
 OpenBabel03252509023D

 53 56  0  0  1  0  0  0  0  0999 V2000
   46.5740   34.5330   43.6100 N   0  0  0  0  0  0  0  0  0  0  0  0
   46.0810   35.5240   42.7240 C   0  0  0  0  0  0  0  0  0  0  0  0
   44.5780   35.6570   42.7180 C   0  0  0  0  0  0  0  0  0  0  0  0
   43.9280   35.4160   44.0680 C   0  0  0  0  0  0  0  0  0  0  0  0
   44.9760   35.1960   45.1470 C   0  0  0  0  0  0  0  0  0  0  0  0
   45.7980   33.9630   44.5890 C   0  0  2  0  0  0  0  0  0  0  0  0
   46.5200   36.5030   43.0760 H   0  0  0  0  0  0  0  0  0  0  0  0
   46.3960   35.4260   41.6770 H   0  0  0  0  0  0  0  0  0  0  0  0
   44.3450   36.7230   42.4490 H   0  0  0  0  0  0  0  0  0  0  0  0
   44.1230   35.0540   41.9090 H   0  0  0  0  0  0  0  0  0  0  0  0
   43.3560   34.4670   43.9730 H   0  0  0  0  0  0  0  0  0  0  0  0
   43.2120   36.2140   44.3400 H   0  0  0  0  0  0  0  0  0  0  0  0
   45.6460   36.0550   45.2060 H   0  0  0  0  0  0  0  0  0  0  0  0
   44.4780   34.8970   46.0690 H   0  0  0  0  0  0  0  0  0  0  0  0
   45.0520   33.2000   44.2860 H   0  0  0  0  0  0  0  0  0  0  0  0
   47.7040   33.7940   43.1040 C   0  0  0  0  0  0  0  0  0  0  0  0
   48.2630   33.4170   44.0040 H   0  0  0  0  0  0  0  0  0  0  0  0
   48.3740   34.5210   42.5980 H   0  0  0  0  0  0  0  0  0  0  0  0
   47.1920   32.7040   42.2350 C   0  0  0  0  0  0  0  0  0  0  0  0
   47.4430   31.7200   42.6570 H   0  0  0  0  0  0  0  0  0  0  0  0
   46.0740   32.7690   42.0990 H   0  0  0  0  0  0  0  0  0  0  0  0
   49.0670   31.9580   39.0730 C   0  0  0  0  0  0  0  0  0  0  0  0
   48.5270   31.8450   40.3690 C   0  0  0  0  0  0  0  0  0  0  0  0
   47.7480   32.8450   40.8700 C   0  0  0  0  0  0  0  0  0  0  0  0
   47.5320   33.9020   40.0900 N   0  0  0  0  0  0  0  0  0  0  0  0
   48.0360   34.0270   38.8550 C   0  0  0  0  0  0  0  0  0  0  0  0
   48.8090   33.0590   38.3310 N   0  0  0  0  0  0  0  0  0  0  0  0
   49.6820   31.1590   38.6850 H   0  0  0  0  0  0  0  0  0  0  0  0
   48.7790   30.9300   40.9040 H   0  0  0  0  0  0  0  0  0  0  0  0
   47.7420   34.9580   38.3940 H   0  0  0  0  0  0  0  0  0  0  0  0
   46.5100   33.6020   45.7180 O   0  0  0  0  0  0  0  0  0  0  0  0
   45.6830   31.1680   45.0320 O   0  0  0  0  0  0  0  0  0  0  0  0
   46.2240   32.0100   46.1840 P   0  0  2  0  0  0  0  0  0  0  0  0
   44.9300   32.0790   47.3010 O   0  0  0  0  0  0  0  0  0  0  0  0
   45.2880   32.2570   48.2090 H   0  0  0  0  0  0  0  0  0  0  0  0
   47.5230   31.3020   46.9380 O   0  0  0  0  0  0  0  0  0  0  0  0
   47.5810   29.9600   46.5980 C   0  0  0  0  0  0  0  0  0  0  0  0
   47.8450   29.7740   45.5550 H   0  0  0  0  0  0  0  0  0  0  0  0
   46.5780   29.5100   46.7830 H   0  0  0  0  0  0  0  0  0  0  0  0
   48.4950   29.3150   47.5310 N   0  0  0  0  0  0  0  0  0  0  0  0
   49.4810   30.0430   48.1180 C   0  0  0  0  0  0  0  0  0  0  0  0
   49.7100   31.1090   47.9910 H   0  0  0  0  0  0  0  0  0  0  0  0
   50.2040   29.2440   48.9410 N   0  0  0  0  0  0  0  0  0  0  0  0
   49.6650   27.9960   48.8700 C   0  0  0  0  0  0  0  0  0  0  0  0
   49.9100   26.7530   49.4350 C   0  0  0  0  0  0  0  0  0  0  0  0
   49.1230   25.7150   49.1010 N   0  0  0  0  0  0  0  0  0  0  0  0
   48.1090   25.8220   48.2450 C   0  0  0  0  0  0  0  0  0  0  0  0
   47.5770   24.9060   48.0820 H   0  0  0  0  0  0  0  0  0  0  0  0
   47.8320   27.0000   47.6720 N   0  0  0  0  0  0  0  0  0  0  0  0
   48.5920   28.0580   47.9800 C   0  0  0  0  0  0  0  0  0  0  0  0
   50.9950   26.6680   50.3420 N   0  0  0  0  0  0  0  0  0  0  0  0
   51.0960   26.9010   51.3660 H   0  0  0  0  0  0  0  0  0  0  0  0
   51.9910   26.3780   50.3470 H   0  0  0  0  0  0  0  0  0  0  0  0
  1  6  1  0  0  0  0
  2  7  1  0  0  0  0
  2  1  1  0  0  0  0
  3  2  1  0  0  0  0
  3  4  1  0  0  0  0
  4 12  1  0  0  0  0
  4  5  1  0  0  0  0
  5 13  1  0  0  0  0
  5 14  1  0  0  0  0
  6 15  1  6  0  0  0
  6  5  1  0  0  0  0
  6 31  1  0  0  0  0
  8  2  1  0  0  0  0
  9  3  1  0  0  0  0
 10  3  1  0  0  0  0
 11  4  1  0  0  0  0
 16  1  1  0  0  0  0
 16 17  1  0  0  0  0
 18 16  1  0  0  0  0
 19 20  1  0  0  0  0
 19 16  1  0  0  0  0
 21 19  1  0  0  0  0
 22 23  1  0  0  0  0
 23 24  2  0  0  0  0
 23 29  1  0  0  0  0
 24 19  1  0  0  0  0
 25 24  1  0  0  0  0
 26 25  2  0  0  0  0
 27 26  1  0  0  0  0
 27 22  2  0  0  0  0
 28 22  1  0  0  0  0
 30 26  1  0  0  0  0
 31 33  1  0  0  0  0
 33 32  2  6  0  0  0
 33 36  1  0  0  0  0
 33 34  1  0  0  0  0
 34 35  1  0  0  0  0
 37 39  1  0  0  0  0
 37 36  1  0  0  0  0
 37 40  1  0  0  0  0
 38 37  1  0  0  0  0
 40 50  1  0  0  0  0
 40 41  1  0  0  0  0
 41 43  2  0  0  0  0
 42 41  1  0  0  0  0
 44 43  1  0  0  0  0
 44 45  1  0  0  0  0
 45 51  1  0  0  0  0
 46 45  2  0  0  0  0
 47 46  1  0  0  0  0
 48 47  1  0  0  0  0
 49 50  1  0  0  0  0
 49 47  2  0  0  0  0
 50 44  2  0  0  0  0
 51 53  1  0  0  0  0
 51 52  1  0  0  0  0
M  END
>  <minimizedAffinity>
-4.78266954

>  <minimizedRMSD>
1.77742064

$$$$
