
 OpenBabel03252509033D

 53 56  0  0  1  0  0  0  0  0999 V2000
   46.8620   34.2690   43.5940 N   0  0  0  0  0  0  0  0  0  0  0  0
   46.5470   35.0260   42.4380 C   0  0  0  0  0  0  0  0  0  0  0  0
   45.0750   35.0730   42.1100 C   0  0  0  0  0  0  0  0  0  0  0  0
   44.1680   35.0800   43.3270 C   0  0  0  0  0  0  0  0  0  0  0  0
   44.9790   35.1450   44.6110 C   0  0  0  0  0  0  0  0  0  0  0  0
   45.9110   33.8700   44.5000 C   0  0  2  0  0  0  0  0  0  0  0  0
   46.8930   36.0790   42.6520 H   0  0  0  0  0  0  0  0  0  0  0  0
   47.0680   34.7320   41.5170 H   0  0  0  0  0  0  0  0  0  0  0  0
   44.8880   36.0460   41.5800 H   0  0  0  0  0  0  0  0  0  0  0  0
   44.8000   34.2910   41.3750 H   0  0  0  0  0  0  0  0  0  0  0  0
   43.6380   34.1020   43.3270 H   0  0  0  0  0  0  0  0  0  0  0  0
   43.4020   35.8760   43.2780 H   0  0  0  0  0  0  0  0  0  0  0  0
   45.6120   36.0330   44.6160 H   0  0  0  0  0  0  0  0  0  0  0  0
   44.3080   35.0160   45.4610 H   0  0  0  0  0  0  0  0  0  0  0  0
   45.2520   33.0220   44.2280 H   0  0  0  0  0  0  0  0  0  0  0  0
   48.0810   33.5040   43.4870 C   0  0  0  0  0  0  0  0  0  0  0  0
   48.3890   33.2540   44.5390 H   0  0  0  0  0  0  0  0  0  0  0  0
   48.8610   34.1820   43.0810 H   0  0  0  0  0  0  0  0  0  0  0  0
   47.8010   32.3030   42.6600 C   0  0  0  0  0  0  0  0  0  0  0  0
   47.6300   31.4230   43.2970 H   0  0  0  0  0  0  0  0  0  0  0  0
   46.9030   32.4530   41.9950 H   0  0  0  0  0  0  0  0  0  0  0  0
   51.2840   32.0700   41.2850 C   0  0  0  0  0  0  0  0  0  0  0  0
   50.1990   32.2920   42.1550 C   0  0  0  0  0  0  0  0  0  0  0  0
   48.9260   32.0610   41.7260 C   0  0  0  0  0  0  0  0  0  0  0  0
   48.7690   31.6290   40.4770 N   0  0  0  0  0  0  0  0  0  0  0  0
   49.7880   31.4120   39.6350 C   0  0  0  0  0  0  0  0  0  0  0  0
   51.0570   31.6290   40.0260 N   0  0  0  0  0  0  0  0  0  0  0  0
   52.2890   32.2550   41.6340 H   0  0  0  0  0  0  0  0  0  0  0  0
   50.4620   32.6460   43.1510 H   0  0  0  0  0  0  0  0  0  0  0  0
   49.4460   31.0640   38.6730 H   0  0  0  0  0  0  0  0  0  0  0  0
   46.3850   33.7900   45.7970 O   0  0  0  0  0  0  0  0  0  0  0  0
   45.7220   31.2390   45.4390 O   0  0  0  0  0  0  0  0  0  0  0  0
   46.1530   32.2680   46.4790 P   0  0  2  0  0  0  0  0  0  0  0  0
   44.7970   32.4230   47.5090 O   0  0  0  0  0  0  0  0  0  0  0  0
   45.0930   32.7500   48.3980 H   0  0  0  0  0  0  0  0  0  0  0  0
   47.4410   31.7530   47.3920 O   0  0  0  0  0  0  0  0  0  0  0  0
   48.0540   30.6800   46.7650 C   0  0  0  0  0  0  0  0  0  0  0  0
   48.7240   30.9610   45.9500 H   0  0  0  0  0  0  0  0  0  0  0  0
   47.2590   30.0220   46.3440 H   0  0  0  0  0  0  0  0  0  0  0  0
   48.7230   29.9000   47.7970 N   0  0  0  0  0  0  0  0  0  0  0  0
   48.7320   28.5430   47.7150 C   0  0  0  0  0  0  0  0  0  0  0  0
   48.2850   27.9040   46.9450 H   0  0  0  0  0  0  0  0  0  0  0  0
   49.4070   28.0300   48.7750 N   0  0  0  0  0  0  0  0  0  0  0  0
   49.8280   29.0810   49.5330 C   0  0  0  0  0  0  0  0  0  0  0  0
   50.5430   29.2590   50.7080 C   0  0  0  0  0  0  0  0  0  0  0  0
   50.7640   30.5080   51.1570 N   0  0  0  0  0  0  0  0  0  0  0  0
   50.3260   31.5930   50.5220 C   0  0  0  0  0  0  0  0  0  0  0  0
   50.5840   32.5140   51.0060 H   0  0  0  0  0  0  0  0  0  0  0  0
   49.6310   31.4730   49.3840 N   0  0  0  0  0  0  0  0  0  0  0  0
   49.3900   30.2470   48.9040 C   0  0  0  0  0  0  0  0  0  0  0  0
   50.9970   28.0870   51.3620 N   0  0  0  0  0  0  0  0  0  0  0  0
   51.8340   27.4610   51.2150 H   0  0  0  0  0  0  0  0  0  0  0  0
   50.7140   27.4680   52.1440 H   0  0  0  0  0  0  0  0  0  0  0  0
  1  6  1  0  0  0  0
  2  7  1  0  0  0  0
  2  1  1  0  0  0  0
  3  2  1  0  0  0  0
  3  4  1  0  0  0  0
  4  5  1  0  0  0  0
  5 13  1  0  0  0  0
  5 14  1  0  0  0  0
  6 15  1  6  0  0  0
  6  5  1  0  0  0  0
  6 31  1  0  0  0  0
  8  2  1  0  0  0  0
  9  3  1  0  0  0  0
 10  3  1  0  0  0  0
 11  4  1  0  0  0  0
 12  4  1  0  0  0  0
 16  1  1  0  0  0  0
 16 17  1  0  0  0  0
 18 16  1  0  0  0  0
 19 20  1  0  0  0  0
 19 16  1  0  0  0  0
 21 19  1  0  0  0  0
 22 28  1  0  0  0  0
 22 23  1  0  0  0  0
 23 29  1  0  0  0  0
 24 23  2  0  0  0  0
 24 19  1  0  0  0  0
 25 24  1  0  0  0  0
 26 27  1  0  0  0  0
 26 25  2  0  0  0  0
 27 22  2  0  0  0  0
 30 26  1  0  0  0  0
 31 33  1  0  0  0  0
 33 32  2  6  0  0  0
 33 36  1  0  0  0  0
 33 34  1  0  0  0  0
 34 35  1  0  0  0  0
 37 36  1  0  0  0  0
 37 40  1  0  0  0  0
 38 37  1  0  0  0  0
 39 37  1  0  0  0  0
 40 50  1  0  0  0  0
 41 40  1  0  0  0  0
 41 43  2  0  0  0  0
 42 41  1  0  0  0  0
 43 44  1  0  0  0  0
 44 45  1  0  0  0  0
 45 46  2  0  0  0  0
 45 51  1  0  0  0  0
 47 48  1  0  0  0  0
 47 46  1  0  0  0  0
 49 47  2  0  0  0  0
 50 49  1  0  0  0  0
 50 44  2  0  0  0  0
 51 53  1  0  0  0  0
 52 51  1  0  0  0  0
M  END
>  <minimizedAffinity>
-5.30418825

>  <minimizedRMSD>
2.89942527

$$$$
