
 OpenBabel03252501533D

 50 54  0  0  1  0  0  0  0  0999 V2000
   36.9500   29.1430   39.6030 N   0  0  0  0  0  0  0  0  0  0  0  0
   36.8050   30.4170   38.9870 C   0  0  0  0  0  0  0  0  0  0  0  0
   36.7710   31.4850   40.0410 C   0  0  0  0  0  0  0  0  0  0  0  0
   36.4500   30.7200   41.2990 C   0  0  0  0  0  0  0  0  0  0  0  0
   36.5780   29.2640   40.9850 C   0  0  2  0  0  0  0  0  0  0  0  0
   35.9500   30.4270   38.3120 H   0  0  0  0  0  0  0  0  0  0  0  0
   37.7030   30.5790   38.3340 H   0  0  0  0  0  0  0  0  0  0  0  0
   35.9060   32.1460   39.8220 H   0  0  0  0  0  0  0  0  0  0  0  0
   37.7140   32.0580   40.1130 H   0  0  0  0  0  0  0  0  0  0  0  0
   35.4760   31.0100   41.7360 H   0  0  0  0  0  0  0  0  0  0  0  0
   37.2220   30.9570   42.0770 H   0  0  0  0  0  0  0  0  0  0  0  0
   35.5290   28.8500   41.0650 H   0  0  0  0  0  0  0  0  0  0  0  0
   37.3700   28.5130   41.9000 N   0  0  0  0  0  0  0  0  0  0  0  0
   36.8060   27.6430   42.7580 C   0  0  0  0  0  0  0  0  0  0  0  0
   35.7570   27.3950   42.8860 H   0  0  0  0  0  0  0  0  0  0  0  0
   37.7880   27.0860   43.4900 N   0  0  0  0  0  0  0  0  0  0  0  0
   38.9570   27.6110   43.0820 C   0  0  0  0  0  0  0  0  0  0  0  0
   40.2800   27.4640   43.4180 C   0  0  0  0  0  0  0  0  0  0  0  0
   41.2930   28.1250   42.8430 N   0  0  0  0  0  0  0  0  0  0  0  0
   40.9930   29.0110   41.8510 C   0  0  0  0  0  0  0  0  0  0  0  0
   41.6780   29.6280   41.2800 H   0  0  0  0  0  0  0  0  0  0  0  0
   39.7000   29.1970   41.4770 N   0  0  0  0  0  0  0  0  0  0  0  0
   38.7160   28.5280   42.0640 C   0  0  0  0  0  0  0  0  0  0  0  0
   40.5660   26.5280   44.4640 N   0  0  0  0  0  0  0  0  0  0  0  0
   40.8400   25.6130   44.0140 H   0  0  0  0  0  0  0  0  0  0  0  0
   40.6100   26.3900   45.4940 H   0  0  0  0  0  0  0  0  0  0  0  0
   36.1390   28.1580   38.9280 C   0  0  0  0  0  0  0  0  0  0  0  0
   36.7910   27.4170   38.4300 H   0  0  0  0  0  0  0  0  0  0  0  0
   35.4230   27.6840   39.6420 H   0  0  0  0  0  0  0  0  0  0  0  0
   33.9580   28.4600   37.8310 C   0  0  0  0  0  3  0  0  0  0  0  0
   35.2560   28.7830   37.8780 C   0  0  0  0  0  3  0  0  0  0  0  0
   31.7370   29.4690   37.0620 C   0  0  0  0  0  0  0  0  0  0  0  0
   33.0630   29.0540   36.8120 C   0  0  0  0  0  0  0  0  0  0  0  0
   33.5950   29.2040   35.5180 C   0  0  0  0  0  0  0  0  0  0  0  0
   32.7900   29.7480   34.5660 N   0  0  0  0  0  0  0  0  0  0  0  0
   31.5370   30.1290   34.8430 C   0  0  0  0  0  0  0  0  0  0  0  0
   31.0380   29.9850   36.0720 N   0  0  0  0  0  0  0  0  0  0  0  0
   31.3900   29.3270   38.0710 H   0  0  0  0  0  0  0  0  0  0  0  0
   34.6100   28.8880   35.3210 H   0  0  0  0  0  0  0  0  0  0  0  0
   30.9980   32.8420   34.6950 F   0  0  0  0  0  0  0  0  0  0  0  0
   30.4700   32.0620   33.7320 C   0  0  0  0  0  0  0  0  0  0  0  0
   30.7230   30.7050   33.7810 C   0  0  0  0  0  0  0  0  0  0  0  0
   30.2140   29.8250   32.8220 C   0  0  0  0  0  0  0  0  0  0  0  0
   29.4360   30.3650   31.8050 C   0  0  0  0  0  0  0  0  0  0  0  0
   29.1670   31.7530   31.7400 C   0  0  0  0  0  0  0  0  0  0  0  0
   29.6940   32.5830   32.7130 C   0  0  0  0  0  0  0  0  0  0  0  0
   30.4200   28.7690   32.8740 H   0  0  0  0  0  0  0  0  0  0  0  0
   29.0330   29.7000   31.0540 H   0  0  0  0  0  0  0  0  0  0  0  0
   28.5530   32.0790   30.9130 H   0  0  0  0  0  0  0  0  0  0  0  0
   29.4800   33.6420   32.6520 H   0  0  0  0  0  0  0  0  0  0  0  0
  1  5  1  0  0  0  0
  2  1  1  0  0  0  0
  2  3  1  0  0  0  0
  3  9  1  0  0  0  0
  3  4  1  0  0  0  0
  4 10  1  0  0  0  0
  4 11  1  0  0  0  0
  5 12  1  1  0  0  0
  5  4  1  0  0  0  0
  5 13  1  0  0  0  0
  6  2  1  0  0  0  0
  7  2  1  0  0  0  0
  8  3  1  0  0  0  0
 13 23  1  0  0  0  0
 13 14  1  0  0  0  0
 14 15  1  0  0  0  0
 14 16  2  0  0  0  0
 17 18  1  0  0  0  0
 17 16  1  0  0  0  0
 18 24  1  0  0  0  0
 19 18  2  0  0  0  0
 20 19  1  0  0  0  0
 21 20  1  0  0  0  0
 22 20  2  0  0  0  0
 22 23  1  0  0  0  0
 23 17  2  0  0  0  0
 24 26  1  0  0  0  0
 25 24  1  0  0  0  0
 27  1  1  0  0  0  0
 27 29  1  0  0  0  0
 28 27  1  0  0  0  0
 30 31  2  0  0  0  0
 31 27  1  0  0  0  0
 32 38  1  0  0  0  0
 33 32  1  0  0  0  0
 33 30  1  0  0  0  0
 34 33  2  0  0  0  0
 35 36  2  0  0  0  0
 35 34  1  0  0  0  0
 36 37  1  0  0  0  0
 37 32  2  0  0  0  0
 39 34  1  0  0  0  0
 41 42  1  0  0  0  0
 41 40  1  0  0  0  0
 42 36  1  0  0  0  0
 43 47  1  0  0  0  0
 43 42  2  0  0  0  0
 44 43  1  0  0  0  0
 45 44  2  0  0  0  0
 45 46  1  0  0  0  0
 46 41  2  0  0  0  0
 48 44  1  0  0  0  0
 49 45  1  0  0  0  0
 50 46  1  0  0  0  0
M  END
>  <minimizedAffinity>
-6.84294701

$$$$

 OpenBabel03252501533D

 50 54  0  0  1  0  0  0  0  0999 V2000
   36.7850   28.3790   41.5740 N   0  0  0  0  0  0  0  0  0  0  0  0
   36.5680   27.5850   42.7340 C   0  0  0  0  0  0  0  0  0  0  0  0
   37.3220   28.1680   43.8920 C   0  0  0  0  0  0  0  0  0  0  0  0
   38.3340   29.0680   43.2290 C   0  0  0  0  0  0  0  0  0  0  0  0
   37.9610   29.1780   41.7860 C   0  0  2  0  0  0  0  0  0  0  0  0
   36.7940   26.5370   42.5340 H   0  0  0  0  0  0  0  0  0  0  0  0
   35.4700   27.6150   42.9610 H   0  0  0  0  0  0  0  0  0  0  0  0
   37.8800   27.3420   44.3810 H   0  0  0  0  0  0  0  0  0  0  0  0
   36.6750   28.7030   44.6100 H   0  0  0  0  0  0  0  0  0  0  0  0
   39.3750   28.7420   43.4100 H   0  0  0  0  0  0  0  0  0  0  0  0
   38.2510   30.0960   43.6690 H   0  0  0  0  0  0  0  0  0  0  0  0
   38.7960   28.6640   41.2230 H   0  0  0  0  0  0  0  0  0  0  0  0
   37.8990   30.5060   41.2740 N   0  0  0  0  0  0  0  0  0  0  0  0
   36.7250   31.0590   40.9160 C   0  0  0  0  0  0  0  0  0  0  0  0
   35.7300   30.6300   40.9530 H   0  0  0  0  0  0  0  0  0  0  0  0
   36.9730   32.3060   40.4730 N   0  0  0  0  0  0  0  0  0  0  0  0
   38.2980   32.5200   40.5600 C   0  0  0  0  0  0  0  0  0  0  0  0
   39.1550   33.5550   40.2750 C   0  0  0  0  0  0  0  0  0  0  0  0
   40.4810   33.5200   40.4560 N   0  0  0  0  0  0  0  0  0  0  0  0
   41.0250   32.3770   40.9590 C   0  0  0  0  0  0  0  0  0  0  0  0
   42.0690   32.1720   41.1680 H   0  0  0  0  0  0  0  0  0  0  0  0
   40.2250   31.3210   41.2590 N   0  0  0  0  0  0  0  0  0  0  0  0
   38.9130   31.3820   41.0700 C   0  0  0  0  0  0  0  0  0  0  0  0
   38.5550   34.7440   39.7480 N   0  0  0  0  0  0  0  0  0  0  0  0
   38.4130   35.4170   40.5480 H   0  0  0  0  0  0  0  0  0  0  0  0
   38.2040   35.2100   38.8860 H   0  0  0  0  0  0  0  0  0  0  0  0
   36.9260   27.5440   40.4050 C   0  0  0  0  0  0  0  0  0  0  0  0
   37.8980   27.7450   39.9190 H   0  0  0  0  0  0  0  0  0  0  0  0
   36.7990   26.4670   40.6750 H   0  0  0  0  0  0  0  0  0  0  0  0
   36.1050   28.5460   38.3140 C   0  0  0  0  0  3  0  0  0  0  0  0
   35.8370   27.8040   39.3950 C   0  0  0  0  0  3  0  0  0  0  0  0
   35.3100   28.9990   35.9250 C   0  0  0  0  0  0  0  0  0  0  0  0
   35.0590   28.8200   37.3030 C   0  0  0  0  0  0  0  0  0  0  0  0
   33.7350   28.9040   37.7740 C   0  0  0  0  0  0  0  0  0  0  0  0
   32.7580   29.1560   36.8620 N   0  0  0  0  0  0  0  0  0  0  0  0
   33.0380   29.3190   35.5630 C   0  0  0  0  0  0  0  0  0  0  0  0
   34.2940   29.2390   35.1220 N   0  0  0  0  0  0  0  0  0  0  0  0
   36.3420   28.9230   35.6290 H   0  0  0  0  0  0  0  0  0  0  0  0
   33.5370   28.7680   38.8270 H   0  0  0  0  0  0  0  0  0  0  0  0
   31.6610   27.2930   34.2700 F   0  0  0  0  0  0  0  0  0  0  0  0
   31.2780   28.5570   34.0040 C   0  0  0  0  0  0  0  0  0  0  0  0
   31.9470   29.5870   34.6340 C   0  0  0  0  0  0  0  0  0  0  0  0
   31.6140   30.9270   34.4140 C   0  0  0  0  0  0  0  0  0  0  0  0
   30.5770   31.1920   33.5290 C   0  0  0  0  0  0  0  0  0  0  0  0
   29.8800   30.1490   32.8750 C   0  0  0  0  0  0  0  0  0  0  0  0
   30.2470   28.8390   33.1260 C   0  0  0  0  0  0  0  0  0  0  0  0
   32.1470   31.7190   34.9140 H   0  0  0  0  0  0  0  0  0  0  0  0
   30.3050   32.2220   33.3460 H   0  0  0  0  0  0  0  0  0  0  0  0
   29.0890   30.4530   32.2050 H   0  0  0  0  0  0  0  0  0  0  0  0
   29.7070   28.0510   32.6180 H   0  0  0  0  0  0  0  0  0  0  0  0
  1  5  1  0  0  0  0
  1  2  1  0  0  0  0
  2  7  1  0  0  0  0
  2  3  1  0  0  0  0
  3  8  1  0  0  0  0
  3  9  1  0  0  0  0
  4 10  1  0  0  0  0
  4 11  1  0  0  0  0
  4  3  1  0  0  0  0
  5 12  1  6  0  0  0
  5  4  1  0  0  0  0
  6  2  1  0  0  0  0
 13  5  1  0  0  0  0
 14 15  1  0  0  0  0
 14 13  1  0  0  0  0
 16 17  1  0  0  0  0
 16 14  2  0  0  0  0
 17 23  1  0  0  0  0
 18 19  1  0  0  0  0
 18 17  2  0  0  0  0
 19 20  2  0  0  0  0
 20 21  1  0  0  0  0
 20 22  1  0  0  0  0
 23 22  2  0  0  0  0
 23 13  1  0  0  0  0
 24 18  1  0  0  0  0
 24 25  1  0  0  0  0
 26 24  1  0  0  0  0
 27 29  1  0  0  0  0
 27  1  1  0  0  0  0
 28 27  1  0  0  0  0
 30 31  2  0  0  0  0
 31 27  1  0  0  0  0
 32 33  1  0  0  0  0
 33 34  2  0  0  0  0
 33 30  1  0  0  0  0
 34 39  1  0  0  0  0
 35 34  1  0  0  0  0
 36 35  2  0  0  0  0
 37 36  1  0  0  0  0
 37 32  2  0  0  0  0
 38 32  1  0  0  0  0
 41 40  1  0  0  0  0
 41 42  1  0  0  0  0
 42 36  1  0  0  0  0
 43 42  2  0  0  0  0
 43 47  1  0  0  0  0
 44 43  1  0  0  0  0
 45 46  1  0  0  0  0
 45 44  2  0  0  0  0
 46 41  2  0  0  0  0
 48 44  1  0  0  0  0
 49 45  1  0  0  0  0
 50 46  1  0  0  0  0
M  END
>  <minimizedAffinity>
-6.71542501

$$$$

 OpenBabel03252501533D

 50 54  0  0  1  0  0  0  0  0999 V2000
   43.4210   33.5710   41.4490 N   0  0  0  0  0  0  0  0  0  0  0  0
   44.7610   33.8840   41.0890 C   0  0  0  0  0  0  0  0  0  0  0  0
   44.8580   34.0480   39.6010 C   0  0  0  0  0  0  0  0  0  0  0  0
   43.6110   33.3700   39.0960 C   0  0  0  0  0  0  0  0  0  0  0  0
   42.7390   33.0940   40.2780 C   0  0  2  0  0  0  0  0  0  0  0  0
   45.4560   33.1550   41.5060 H   0  0  0  0  0  0  0  0  0  0  0  0
   45.0220   34.8590   41.5810 H   0  0  0  0  0  0  0  0  0  0  0  0
   45.7270   33.4510   39.2530 H   0  0  0  0  0  0  0  0  0  0  0  0
   44.9350   35.1040   39.2820 H   0  0  0  0  0  0  0  0  0  0  0  0
   43.8320   32.4830   38.4720 H   0  0  0  0  0  0  0  0  0  0  0  0
   43.0510   34.0820   38.4350 H   0  0  0  0  0  0  0  0  0  0  0  0
   42.7100   31.9670   40.3690 H   0  0  0  0  0  0  0  0  0  0  0  0
   41.3850   33.5140   40.1450 N   0  0  0  0  0  0  0  0  0  0  0  0
   41.0260   34.7910   40.3770 C   0  0  0  0  0  0  0  0  0  0  0  0
   41.6470   35.6290   40.6750 H   0  0  0  0  0  0  0  0  0  0  0  0
   39.6990   34.8920   40.1760 N   0  0  0  0  0  0  0  0  0  0  0  0
   39.2410   33.6790   39.8200 C   0  0  0  0  0  0  0  0  0  0  0  0
   38.0220   33.1380   39.4900 C   0  0  0  0  0  0  0  0  0  0  0  0
   37.8190   31.8560   39.1620 N   0  0  0  0  0  0  0  0  0  0  0  0
   38.8980   31.0220   39.1540 C   0  0  0  0  0  0  0  0  0  0  0  0
   38.9210   29.9650   38.9150 H   0  0  0  0  0  0  0  0  0  0  0  0
   40.1280   31.5030   39.4710 N   0  0  0  0  0  0  0  0  0  0  0  0
   40.3010   32.7790   39.7930 C   0  0  0  0  0  0  0  0  0  0  0  0
   36.9070   34.0370   39.5080 N   0  0  0  0  0  0  0  0  0  0  0  0
   36.7430   34.3690   38.5200 H   0  0  0  0  0  0  0  0  0  0  0  0
   36.1920   34.4940   40.1100 H   0  0  0  0  0  0  0  0  0  0  0  0
   43.3960   32.5870   42.5050 C   0  0  0  0  0  0  0  0  0  0  0  0
   44.4200   32.2120   42.6890 H   0  0  0  0  0  0  0  0  0  0  0  0
   42.9250   33.0110   43.4250 H   0  0  0  0  0  0  0  0  0  0  0  0
   41.4580   31.1270   42.9110 C   0  0  0  0  0  3  0  0  0  0  0  0
   42.5240   31.4080   42.1530 C   0  0  0  0  0  3  0  0  0  0  0  0
   39.1850   29.9610   42.7920 C   0  0  0  0  0  0  0  0  0  0  0  0
   40.5820   29.9760   42.5940 C   0  0  0  0  0  0  0  0  0  0  0  0
   41.2100   28.8350   42.0600 C   0  0  0  0  0  0  0  0  0  0  0  0
   40.4240   27.7660   41.7610 N   0  0  0  0  0  0  0  0  0  0  0  0
   39.1010   27.7920   41.9650 C   0  0  0  0  0  0  0  0  0  0  0  0
   38.5110   28.8750   42.4710 N   0  0  0  0  0  0  0  0  0  0  0  0
   38.7650   30.8630   43.2030 H   0  0  0  0  0  0  0  0  0  0  0  0
   42.2800   28.8410   41.9070 H   0  0  0  0  0  0  0  0  0  0  0  0
   39.1750   25.4710   43.4750 F   0  0  0  0  0  0  0  0  0  0  0  0
   38.3690   25.4710   42.3960 C   0  0  0  0  0  0  0  0  0  0  0  0
   38.3110   26.6140   41.6250 C   0  0  0  0  0  0  0  0  0  0  0  0
   37.5010   26.6990   40.4890 C   0  0  0  0  0  0  0  0  0  0  0  0
   36.7460   25.5820   40.1560 C   0  0  0  0  0  0  0  0  0  0  0  0
   36.7920   24.4020   40.9360 C   0  0  0  0  0  0  0  0  0  0  0  0
   37.6090   24.3680   42.0510 C   0  0  0  0  0  0  0  0  0  0  0  0
   37.4680   27.6000   39.8980 H   0  0  0  0  0  0  0  0  0  0  0  0
   36.1130   25.6280   39.2820 H   0  0  0  0  0  0  0  0  0  0  0  0
   36.1690   23.5860   40.5980 H   0  0  0  0  0  0  0  0  0  0  0  0
   37.6360   23.4590   42.6380 H   0  0  0  0  0  0  0  0  0  0  0  0
  1 27  1  0  0  0  0
  2  1  1  0  0  0  0
  2  6  1  0  0  0  0
  2  7  1  0  0  0  0
  3  2  1  0  0  0  0
  4  3  1  0  0  0  0
  4  5  1  0  0  0  0
  5 12  1  1  0  0  0
  5  1  1  0  0  0  0
  8  3  1  0  0  0  0
  9  3  1  0  0  0  0
 10  4  1  0  0  0  0
 11  4  1  0  0  0  0
 13  5  1  0  0  0  0
 13 14  1  0  0  0  0
 14 15  1  0  0  0  0
 16 14  2  0  0  0  0
 17 16  1  0  0  0  0
 18 24  1  0  0  0  0
 18 17  2  0  0  0  0
 19 18  1  0  0  0  0
 20 19  2  0  0  0  0
 20 22  1  0  0  0  0
 21 20  1  0  0  0  0
 22 23  2  0  0  0  0
 23 17  1  0  0  0  0
 23 13  1  0  0  0  0
 24 26  1  0  0  0  0
 25 24  1  0  0  0  0
 27 28  1  0  0  0  0
 27 29  1  0  0  0  0
 31 27  1  0  0  0  0
 31 30  2  0  0  0  0
 32 38  1  0  0  0  0
 33 32  1  0  0  0  0
 33 30  1  0  0  0  0
 34 33  2  0  0  0  0
 35 36  2  0  0  0  0
 35 34  1  0  0  0  0
 36 37  1  0  0  0  0
 37 32  2  0  0  0  0
 39 34  1  0  0  0  0
 41 40  1  0  0  0  0
 42 36  1  0  0  0  0
 42 41  2  0  0  0  0
 43 42  1  0  0  0  0
 44 43  2  0  0  0  0
 44 45  1  0  0  0  0
 45 46  2  0  0  0  0
 46 41  1  0  0  0  0
 46 50  1  0  0  0  0
 47 43  1  0  0  0  0
 48 44  1  0  0  0  0
 49 45  1  0  0  0  0
M  END
>  <minimizedAffinity>
-6.54285097

$$$$

 OpenBabel03252501533D

 50 54  0  0  1  0  0  0  0  0999 V2000
   39.8520   32.9030   40.3010 N   0  0  0  0  0  0  0  0  0  0  0  0
   38.5800   33.4720   40.5830 C   0  0  0  0  0  0  0  0  0  0  0  0
   38.6070   34.9410   40.2810 C   0  0  0  0  0  0  0  0  0  0  0  0
   40.0790   35.2600   40.2460 C   0  0  0  0  0  0  0  0  0  0  0  0
   40.8210   33.9630   40.2540 C   0  0  2  0  0  0  0  0  0  0  0  0
   38.2610   33.2290   41.5970 H   0  0  0  0  0  0  0  0  0  0  0  0
   37.8320   32.9750   39.9080 H   0  0  0  0  0  0  0  0  0  0  0  0
   38.1710   35.4720   41.1540 H   0  0  0  0  0  0  0  0  0  0  0  0
   38.0860   35.2050   39.3420 H   0  0  0  0  0  0  0  0  0  0  0  0
   40.3810   35.9660   41.0430 H   0  0  0  0  0  0  0  0  0  0  0  0
   40.3190   35.7690   39.2760 H   0  0  0  0  0  0  0  0  0  0  0  0
   41.3630   33.9370   41.2460 H   0  0  0  0  0  0  0  0  0  0  0  0
   41.8250   33.8300   39.2530 N   0  0  0  0  0  0  0  0  0  0  0  0
   41.5020   33.5490   37.9770 C   0  0  0  0  0  0  0  0  0  0  0  0
   40.5210   33.3920   37.5410 H   0  0  0  0  0  0  0  0  0  0  0  0
   42.6420   33.4840   37.2650 N   0  0  0  0  0  0  0  0  0  0  0  0
   43.6670   33.7260   38.1010 C   0  0  0  0  0  0  0  0  0  0  0  0
   45.0340   33.8010   37.9980 C   0  0  0  0  0  0  0  0  0  0  0  0
   45.8640   34.0650   39.0150 N   0  0  0  0  0  0  0  0  0  0  0  0
   45.3170   34.2760   40.2450 C   0  0  0  0  0  0  0  0  0  0  0  0
   45.8300   34.5000   41.1730 H   0  0  0  0  0  0  0  0  0  0  0  0
   43.9690   34.2150   40.4060 N   0  0  0  0  0  0  0  0  0  0  0  0
   43.1690   33.9510   39.3810 C   0  0  0  0  0  0  0  0  0  0  0  0
   45.5810   33.5750   36.6940 N   0  0  0  0  0  0  0  0  0  0  0  0
   45.7500   34.5150   36.2450 H   0  0  0  0  0  0  0  0  0  0  0  0
   45.8810   32.8490   36.0100 H   0  0  0  0  0  0  0  0  0  0  0  0
   40.2010   31.9210   41.3000 C   0  0  0  0  0  0  0  0  0  0  0  0
   41.2980   31.8970   41.4320 H   0  0  0  0  0  0  0  0  0  0  0  0
   39.6610   32.1240   42.2560 H   0  0  0  0  0  0  0  0  0  0  0  0
   38.9360   29.8530   41.7210 C   0  0  0  0  0  3  0  0  0  0  0  0
   39.7500   30.5360   40.9070 C   0  0  0  0  0  3  0  0  0  0  0  0
   37.5120   27.7610   42.0960 C   0  0  0  0  0  0  0  0  0  0  0  0
   38.4750   28.4910   41.3650 C   0  0  0  0  0  0  0  0  0  0  0  0
   39.0500   27.9110   40.2200 C   0  0  0  0  0  0  0  0  0  0  0  0
   38.6410   26.6600   39.8750 N   0  0  0  0  0  0  0  0  0  0  0  0
   37.7250   26.0010   40.5950 C   0  0  0  0  0  0  0  0  0  0  0  0
   37.1830   26.5550   41.6800 N   0  0  0  0  0  0  0  0  0  0  0  0
   37.1110   28.2600   42.9610 H   0  0  0  0  0  0  0  0  0  0  0  0
   39.7880   28.4650   39.6570 H   0  0  0  0  0  0  0  0  0  0  0  0
   39.1800   23.7420   41.2690 F   0  0  0  0  0  0  0  0  0  0  0  0
   38.0720   23.5550   40.5260 C   0  0  0  0  0  0  0  0  0  0  0  0
   37.3270   24.6620   40.1750 C   0  0  0  0  0  0  0  0  0  0  0  0
   36.1650   24.5570   39.4060 C   0  0  0  0  0  0  0  0  0  0  0  0
   35.7780   23.2860   39.0010 C   0  0  0  0  0  0  0  0  0  0  0  0
   36.5290   22.1400   39.3510 C   0  0  0  0  0  0  0  0  0  0  0  0
   37.6720   22.2960   40.1150 C   0  0  0  0  0  0  0  0  0  0  0  0
   35.5950   25.4330   39.1410 H   0  0  0  0  0  0  0  0  0  0  0  0
   34.8820   23.1840   38.4050 H   0  0  0  0  0  0  0  0  0  0  0  0
   36.1500   21.1950   38.9900 H   0  0  0  0  0  0  0  0  0  0  0  0
   38.2380   21.4110   40.3750 H   0  0  0  0  0  0  0  0  0  0  0  0
  1  2  1  0  0  0  0
  1 27  1  0  0  0  0
  2  6  1  0  0  0  0
  3  2  1  0  0  0  0
  3  8  1  0  0  0  0
  4  5  1  0  0  0  0
  4  3  1  0  0  0  0
  4 10  1  0  0  0  0
  5  1  1  0  0  0  0
  5 12  1  1  0  0  0
  7  2  1  0  0  0  0
  9  3  1  0  0  0  0
 11  4  1  0  0  0  0
 13 23  1  0  0  0  0
 13  5  1  0  0  0  0
 14 13  1  0  0  0  0
 15 14  1  0  0  0  0
 16 14  2  0  0  0  0
 16 17  1  0  0  0  0
 17 23  1  0  0  0  0
 18 17  2  0  0  0  0
 18 19  1  0  0  0  0
 19 20  2  0  0  0  0
 20 22  1  0  0  0  0
 20 21  1  0  0  0  0
 23 22  2  0  0  0  0
 24 18  1  0  0  0  0
 25 24  1  0  0  0  0
 26 24  1  0  0  0  0
 27 28  1  0  0  0  0
 27 29  1  0  0  0  0
 31 27  1  0  0  0  0
 31 30  2  0  0  0  0
 32 38  1  0  0  0  0
 33 30  1  0  0  0  0
 33 32  2  0  0  0  0
 34 33  1  0  0  0  0
 35 34  2  0  0  0  0
 35 36  1  0  0  0  0
 36 37  2  0  0  0  0
 37 32  1  0  0  0  0
 39 34  1  0  0  0  0
 41 40  1  0  0  0  0
 42 41  1  0  0  0  0
 42 36  1  0  0  0  0
 43 42  2  0  0  0  0
 44 45  2  0  0  0  0
 44 43  1  0  0  0  0
 45 46  1  0  0  0  0
 46 50  1  0  0  0  0
 46 41  2  0  0  0  0
 47 43  1  0  0  0  0
 48 44  1  0  0  0  0
 49 45  1  0  0  0  0
M  END
>  <minimizedAffinity>
-6.48725414

$$$$

 OpenBabel03252501533D

 50 54  0  0  1  0  0  0  0  0999 V2000
   36.7770   23.8030   39.2830 N   0  0  0  0  0  0  0  0  0  0  0  0
   36.8840   22.3880   39.1860 C   0  0  0  0  0  0  0  0  0  0  0  0
   37.8310   21.8820   40.2330 C   0  0  0  0  0  0  0  0  0  0  0  0
   38.6000   23.1160   40.6310 C   0  0  0  0  0  0  0  0  0  0  0  0
   37.9070   24.2920   40.0230 C   0  0  2  0  0  0  0  0  0  0  0  0
   37.1370   22.0860   38.1700 H   0  0  0  0  0  0  0  0  0  0  0  0
   35.8640   21.9600   39.3800 H   0  0  0  0  0  0  0  0  0  0  0  0
   38.5440   21.1900   39.7360 H   0  0  0  0  0  0  0  0  0  0  0  0
   37.3220   21.3970   41.0860 H   0  0  0  0  0  0  0  0  0  0  0  0
   39.6770   23.0430   40.3890 H   0  0  0  0  0  0  0  0  0  0  0  0
   38.5400   23.2390   41.7440 H   0  0  0  0  0  0  0  0  0  0  0  0
   38.6320   24.7000   39.2560 H   0  0  0  0  0  0  0  0  0  0  0  0
   37.6340   25.3660   40.9180 N   0  0  0  0  0  0  0  0  0  0  0  0
   37.0570   25.1460   42.1140 C   0  0  0  0  0  0  0  0  0  0  0  0
   36.7340   24.2080   42.5520 H   0  0  0  0  0  0  0  0  0  0  0  0
   36.9240   26.3330   42.7350 N   0  0  0  0  0  0  0  0  0  0  0  0
   37.4190   27.2830   41.9220 C   0  0  0  0  0  0  0  0  0  0  0  0
   37.5730   28.6470   41.9710 C   0  0  0  0  0  0  0  0  0  0  0  0
   38.1150   29.3900   40.9980 N   0  0  0  0  0  0  0  0  0  0  0  0
   38.5490   28.7500   39.8750 C   0  0  0  0  0  0  0  0  0  0  0  0
   39.0090   29.1870   38.9960 H   0  0  0  0  0  0  0  0  0  0  0  0
   38.4230   27.4020   39.7730 N   0  0  0  0  0  0  0  0  0  0  0  0
   37.8810   26.6890   40.7520 C   0  0  0  0  0  0  0  0  0  0  0  0
   37.1080   29.2920   43.1620 N   0  0  0  0  0  0  0  0  0  0  0  0
   37.9370   29.4300   43.8000 H   0  0  0  0  0  0  0  0  0  0  0  0
   36.2750   29.6800   43.6500 H   0  0  0  0  0  0  0  0  0  0  0  0
   36.7160   24.3980   37.9700 C   0  0  0  0  0  0  0  0  0  0  0  0
   37.7300   24.7010   37.6500 H   0  0  0  0  0  0  0  0  0  0  0  0
   36.2310   23.7000   37.2440 H   0  0  0  0  0  0  0  0  0  0  0  0
   34.9200   25.7600   36.9830 C   0  0  0  0  0  3  0  0  0  0  0  0
   35.8360   25.6230   37.9490 C   0  0  0  0  0  3  0  0  0  0  0  0
   34.3190   28.1730   37.5800 C   0  0  0  0  0  0  0  0  0  0  0  0
   34.0400   26.9500   36.9330 C   0  0  0  0  0  0  0  0  0  0  0  0
   32.8550   26.8260   36.1840 C   0  0  0  0  0  0  0  0  0  0  0  0
   32.0320   27.9070   36.1250 N   0  0  0  0  0  0  0  0  0  0  0  0
   32.3320   29.0500   36.7540 C   0  0  0  0  0  0  0  0  0  0  0  0
   33.4570   29.1630   37.4620 N   0  0  0  0  0  0  0  0  0  0  0  0
   35.2400   28.2040   38.1360 H   0  0  0  0  0  0  0  0  0  0  0  0
   32.6360   25.8910   35.6870 H   0  0  0  0  0  0  0  0  0  0  0  0
   30.7690   29.8800   38.8850 F   0  0  0  0  0  0  0  0  0  0  0  0
   30.6430   30.5660   37.7330 C   0  0  0  0  0  0  0  0  0  0  0  0
   31.4100   30.1750   36.6530 C   0  0  0  0  0  0  0  0  0  0  0  0
   31.3400   30.8310   35.4220 C   0  0  0  0  0  0  0  0  0  0  0  0
   30.4640   31.9040   35.3160 C   0  0  0  0  0  0  0  0  0  0  0  0
   29.6710   32.3180   36.4120 C   0  0  0  0  0  0  0  0  0  0  0  0
   29.7760   31.6370   37.6100 C   0  0  0  0  0  0  0  0  0  0  0  0
   31.9460   30.5130   34.5890 H   0  0  0  0  0  0  0  0  0  0  0  0
   30.3960   32.4240   34.3710 H   0  0  0  0  0  0  0  0  0  0  0  0
   29.0190   33.1620   36.2340 H   0  0  0  0  0  0  0  0  0  0  0  0
   29.1630   31.9630   38.4400 H   0  0  0  0  0  0  0  0  0  0  0  0
  1  5  1  0  0  0  0
  2  1  1  0  0  0  0
  2  7  1  0  0  0  0
  2  3  1  0  0  0  0
  3  4  1  0  0  0  0
  3  9  1  0  0  0  0
  4 11  1  0  0  0  0
  5 12  1  6  0  0  0
  5  4  1  0  0  0  0
  5 13  1  0  0  0  0
  6  2  1  0  0  0  0
  8  3  1  0  0  0  0
 10  4  1  0  0  0  0
 13 14  1  0  0  0  0
 14 15  1  0  0  0  0
 14 16  2  0  0  0  0
 17 18  1  0  0  0  0
 17 16  1  0  0  0  0
 18 24  1  0  0  0  0
 19 18  2  0  0  0  0
 20 19  1  0  0  0  0
 21 20  1  0  0  0  0
 22 20  2  0  0  0  0
 22 23  1  0  0  0  0
 23 13  1  0  0  0  0
 23 17  2  0  0  0  0
 24 26  1  0  0  0  0
 24 25  1  0  0  0  0
 27  1  1  0  0  0  0
 28 27  1  0  0  0  0
 29 27  1  0  0  0  0
 30 31  2  0  0  0  0
 31 27  1  0  0  0  0
 32 38  1  0  0  0  0
 33 30  1  0  0  0  0
 33 32  2  0  0  0  0
 34 33  1  0  0  0  0
 35 34  2  0  0  0  0
 35 36  1  0  0  0  0
 36 37  2  0  0  0  0
 37 32  1  0  0  0  0
 39 34  1  0  0  0  0
 41 40  1  0  0  0  0
 42 36  1  0  0  0  0
 42 41  2  0  0  0  0
 43 42  1  0  0  0  0
 44 43  2  0  0  0  0
 44 45  1  0  0  0  0
 45 46  2  0  0  0  0
 46 41  1  0  0  0  0
 46 50  1  0  0  0  0
 47 43  1  0  0  0  0
 48 44  1  0  0  0  0
 49 45  1  0  0  0  0
M  END
>  <minimizedAffinity>
-6.46065235

$$$$

 OpenBabel03252501533D

 50 54  0  0  1  0  0  0  0  0999 V2000
   35.8290   29.4390   40.6420 N   0  0  0  0  0  0  0  0  0  0  0  0
   34.9230   29.2040   39.5700 C   0  0  0  0  0  0  0  0  0  0  0  0
   35.4090   28.0510   38.7430 C   0  0  0  0  0  0  0  0  0  0  0  0
   36.8610   27.9350   39.1300 C   0  0  0  0  0  0  0  0  0  0  0  0
   37.0800   28.8100   40.3210 C   0  0  2  0  0  0  0  0  0  0  0  0
   34.7470   30.1190   39.0040 H   0  0  0  0  0  0  0  0  0  0  0  0
   33.9310   28.9370   40.0210 H   0  0  0  0  0  0  0  0  0  0  0  0
   35.3720   28.3620   37.6780 H   0  0  0  0  0  0  0  0  0  0  0  0
   34.8410   27.1190   38.9150 H   0  0  0  0  0  0  0  0  0  0  0  0
   37.5440   28.1330   38.2840 H   0  0  0  0  0  0  0  0  0  0  0  0
   37.0680   26.8810   39.4550 H   0  0  0  0  0  0  0  0  0  0  0  0
   37.7630   29.6360   39.9610 H   0  0  0  0  0  0  0  0  0  0  0  0
   37.7520   28.1920   41.4140 N   0  0  0  0  0  0  0  0  0  0  0  0
   37.0650   27.6180   42.4190 C   0  0  0  0  0  0  0  0  0  0  0  0
   35.9910   27.5390   42.5520 H   0  0  0  0  0  0  0  0  0  0  0  0
   37.9540   27.1220   43.3000 N   0  0  0  0  0  0  0  0  0  0  0  0
   39.1880   27.3900   42.8370 C   0  0  0  0  0  0  0  0  0  0  0  0
   40.4750   27.1570   43.2560 C   0  0  0  0  0  0  0  0  0  0  0  0
   41.5750   27.5380   42.5930 N   0  0  0  0  0  0  0  0  0  0  0  0
   41.4100   28.2060   41.4170 C   0  0  0  0  0  0  0  0  0  0  0  0
   42.1790   28.5860   40.7530 H   0  0  0  0  0  0  0  0  0  0  0  0
   40.1590   28.4630   40.9540 N   0  0  0  0  0  0  0  0  0  0  0  0
   39.0860   28.0750   41.6310 C   0  0  0  0  0  0  0  0  0  0  0  0
   40.6180   26.4540   44.4950 N   0  0  0  0  0  0  0  0  0  0  0  0
   40.7760   25.4340   44.2730 H   0  0  0  0  0  0  0  0  0  0  0  0
   40.6290   26.5490   45.5320 H   0  0  0  0  0  0  0  0  0  0  0  0
   35.9970   30.8550   40.8640 C   0  0  0  0  0  0  0  0  0  0  0  0
   35.4340   31.4210   40.1000 H   0  0  0  0  0  0  0  0  0  0  0  0
   35.6960   31.1270   41.9050 H   0  0  0  0  0  0  0  0  0  0  0  0
   37.7510   32.5330   40.4630 C   0  0  0  0  0  3  0  0  0  0  0  0
   37.4450   31.2680   40.7760 C   0  0  0  0  0  3  0  0  0  0  0  0
   39.5680   34.2950   40.0900 C   0  0  0  0  0  0  0  0  0  0  0  0
   39.1620   32.9720   40.3680 C   0  0  0  0  0  0  0  0  0  0  0  0
   40.1430   31.9840   40.5740 C   0  0  0  0  0  0  0  0  0  0  0  0
   41.4470   32.3650   40.4910 N   0  0  0  0  0  0  0  0  0  0  0  0
   41.7900   33.6310   40.2250 C   0  0  0  0  0  0  0  0  0  0  0  0
   40.8560   34.5630   40.0310 N   0  0  0  0  0  0  0  0  0  0  0  0
   38.7700   35.0020   39.9430 H   0  0  0  0  0  0  0  0  0  0  0  0
   39.8390   30.9690   40.7870 H   0  0  0  0  0  0  0  0  0  0  0  0
   43.2130   34.5410   42.4200 F   0  0  0  0  0  0  0  0  0  0  0  0
   43.8870   34.4290   41.2600 C   0  0  0  0  0  0  0  0  0  0  0  0
   43.2040   33.9780   40.1490 C   0  0  0  0  0  0  0  0  0  0  0  0
   43.8270   33.8340   38.9060 C   0  0  0  0  0  0  0  0  0  0  0  0
   45.1740   34.1640   38.8230 C   0  0  0  0  0  0  0  0  0  0  0  0
   45.8910   34.6270   39.9520 C   0  0  0  0  0  0  0  0  0  0  0  0
   45.2290   34.7520   41.1600 C   0  0  0  0  0  0  0  0  0  0  0  0
   43.2790   33.4810   38.0480 H   0  0  0  0  0  0  0  0  0  0  0  0
   45.6740   34.0590   37.8710 H   0  0  0  0  0  0  0  0  0  0  0  0
   46.9340   34.8580   39.7910 H   0  0  0  0  0  0  0  0  0  0  0  0
   45.7880   35.1080   42.0150 H   0  0  0  0  0  0  0  0  0  0  0  0
  1 27  1  0  0  0  0
  2  7  1  0  0  0  0
  2  1  1  0  0  0  0
  3  9  1  0  0  0  0
  3  4  1  0  0  0  0
  3  2  1  0  0  0  0
  4 11  1  0  0  0  0
  4  5  1  0  0  0  0
  5 12  1  6  0  0  0
  5  1  1  0  0  0  0
  5 13  1  0  0  0  0
  6  2  1  0  0  0  0
  8  3  1  0  0  0  0
 10  4  1  0  0  0  0
 13 23  1  0  0  0  0
 13 14  1  0  0  0  0
 14 15  1  0  0  0  0
 14 16  2  0  0  0  0
 17 18  1  0  0  0  0
 17 16  1  0  0  0  0
 18 24  1  0  0  0  0
 19 18  2  0  0  0  0
 20 19  1  0  0  0  0
 21 20  1  0  0  0  0
 22 20  2  0  0  0  0
 22 23  1  0  0  0  0
 23 17  2  0  0  0  0
 24 26  1  0  0  0  0
 25 24  1  0  0  0  0
 27 29  1  0  0  0  0
 28 27  1  0  0  0  0
 30 31  2  0  0  0  0
 31 27  1  0  0  0  0
 32 33  1  0  0  0  0
 33 30  1  0  0  0  0
 33 34  2  0  0  0  0
 34 39  1  0  0  0  0
 35 34  1  0  0  0  0
 36 35  2  0  0  0  0
 37 32  2  0  0  0  0
 37 36  1  0  0  0  0
 38 32  1  0  0  0  0
 41 40  1  0  0  0  0
 42 36  1  0  0  0  0
 42 41  2  0  0  0  0
 43 42  1  0  0  0  0
 44 43  2  0  0  0  0
 44 45  1  0  0  0  0
 45 46  2  0  0  0  0
 46 41  1  0  0  0  0
 46 50  1  0  0  0  0
 47 43  1  0  0  0  0
 48 44  1  0  0  0  0
 49 45  1  0  0  0  0
M  END
>  <minimizedAffinity>
-6.4412899

$$$$

 OpenBabel03252501533D

 50 54  0  0  1  0  0  0  0  0999 V2000
   36.6850   26.6580   39.6900 N   0  0  0  0  0  0  0  0  0  0  0  0
   36.6070   25.4190   40.3830 C   0  0  0  0  0  0  0  0  0  0  0  0
   37.2160   25.5650   41.7460 C   0  0  0  0  0  0  0  0  0  0  0  0
   38.0450   26.8170   41.6230 C   0  0  0  0  0  0  0  0  0  0  0  0
   37.6810   27.4720   40.3300 C   0  0  2  0  0  0  0  0  0  0  0  0
   37.0330   24.6120   39.7860 H   0  0  0  0  0  0  0  0  0  0  0  0
   35.5200   25.1640   40.4950 H   0  0  0  0  0  0  0  0  0  0  0  0
   37.9140   24.7150   41.8960 H   0  0  0  0  0  0  0  0  0  0  0  0
   36.4660   25.6230   42.5560 H   0  0  0  0  0  0  0  0  0  0  0  0
   39.1270   26.6250   41.7500 H   0  0  0  0  0  0  0  0  0  0  0  0
   37.7590   27.5270   42.4420 H   0  0  0  0  0  0  0  0  0  0  0  0
   38.6080   27.3970   39.6870 H   0  0  0  0  0  0  0  0  0  0  0  0
   37.3730   28.8600   40.4180 N   0  0  0  0  0  0  0  0  0  0  0  0
   36.5130   29.3250   41.3430 C   0  0  0  0  0  0  0  0  0  0  0  0
   35.9640   28.7760   42.1000 H   0  0  0  0  0  0  0  0  0  0  0  0
   36.4180   30.6590   41.1880 N   0  0  0  0  0  0  0  0  0  0  0  0
   37.2200   31.0150   40.1690 C   0  0  0  0  0  0  0  0  0  0  0  0
   37.5570   32.1860   39.5360 C   0  0  0  0  0  0  0  0  0  0  0  0
   38.4100   32.2820   38.5080 N   0  0  0  0  0  0  0  0  0  0  0  0
   38.9880   31.1350   38.0520 C   0  0  0  0  0  0  0  0  0  0  0  0
   39.6950   31.0230   37.2380 H   0  0  0  0  0  0  0  0  0  0  0  0
   38.6920   29.9470   38.6410 N   0  0  0  0  0  0  0  0  0  0  0  0
   37.8430   29.8810   39.6580 C   0  0  0  0  0  0  0  0  0  0  0  0
   36.9340   33.3750   40.0360 N   0  0  0  0  0  0  0  0  0  0  0  0
   37.6080   33.8380   40.7030 H   0  0  0  0  0  0  0  0  0  0  0  0
   36.0780   33.9670   40.0010 H   0  0  0  0  0  0  0  0  0  0  0  0
   37.0030   26.4420   38.2990 C   0  0  0  0  0  0  0  0  0  0  0  0
   37.9940   26.8750   38.0710 H   0  0  0  0  0  0  0  0  0  0  0  0
   36.9440   25.3550   38.0470 H   0  0  0  0  0  0  0  0  0  0  0  0
   35.1320   27.9850   37.8840 C   0  0  0  0  0  3  0  0  0  0  0  0
   35.9920   27.0890   37.3850 C   0  0  0  0  0  3  0  0  0  0  0  0
   32.8340   29.0160   37.4370 C   0  0  0  0  0  0  0  0  0  0  0  0
   34.1270   28.6390   37.0150 C   0  0  0  0  0  0  0  0  0  0  0  0
   34.5130   28.8880   35.6840 C   0  0  0  0  0  0  0  0  0  0  0  0
   33.6040   29.4880   34.8680 N   0  0  0  0  0  0  0  0  0  0  0  0
   32.3870   29.8300   35.3070 C   0  0  0  0  0  0  0  0  0  0  0  0
   32.0270   29.5920   36.5690 N   0  0  0  0  0  0  0  0  0  0  0  0
   32.6010   28.7980   38.4650 H   0  0  0  0  0  0  0  0  0  0  0  0
   35.5010   28.6010   35.3550 H   0  0  0  0  0  0  0  0  0  0  0  0
   30.9410   28.3960   33.4290 F   0  0  0  0  0  0  0  0  0  0  0  0
   30.7500   29.7290   33.4590 C   0  0  0  0  0  0  0  0  0  0  0  0
   31.4570   30.4700   34.3850 C   0  0  0  0  0  0  0  0  0  0  0  0
   31.3190   31.8570   34.4820 C   0  0  0  0  0  0  0  0  0  0  0  0
   30.4360   32.4760   33.6060 C   0  0  0  0  0  0  0  0  0  0  0  0
   29.7020   31.7330   32.6510 C   0  0  0  0  0  0  0  0  0  0  0  0
   29.8740   30.3610   32.5940 C   0  0  0  0  0  0  0  0  0  0  0  0
   31.8790   32.4200   35.2110 H   0  0  0  0  0  0  0  0  0  0  0  0
   30.3150   33.5480   33.6660 H   0  0  0  0  0  0  0  0  0  0  0  0
   29.0400   32.3010   32.0140 H   0  0  0  0  0  0  0  0  0  0  0  0
   29.3080   29.8050   31.8590 H   0  0  0  0  0  0  0  0  0  0  0  0
  1  5  1  0  0  0  0
  1  2  1  0  0  0  0
  2  7  1  0  0  0  0
  2  3  1  0  0  0  0
  3  8  1  0  0  0  0
  3  9  1  0  0  0  0
  4  3  1  0  0  0  0
  4 10  1  0  0  0  0
  4 11  1  0  0  0  0
  5 12  1  6  0  0  0
  5 13  1  0  0  0  0
  5  4  1  0  0  0  0
  6  2  1  0  0  0  0
 13 14  1  0  0  0  0
 14 15  1  0  0  0  0
 16 14  2  0  0  0  0
 17 16  1  0  0  0  0
 18 24  1  0  0  0  0
 18 17  2  0  0  0  0
 19 18  1  0  0  0  0
 20 19  2  0  0  0  0
 20 22  1  0  0  0  0
 21 20  1  0  0  0  0
 22 23  2  0  0  0  0
 23 17  1  0  0  0  0
 23 13  1  0  0  0  0
 24 25  1  0  0  0  0
 26 24  1  0  0  0  0
 27  1  1  0  0  0  0
 28 27  1  0  0  0  0
 29 27  1  0  0  0  0
 31 30  2  0  0  0  0
 31 27  1  0  0  0  0
 32 38  1  0  0  0  0
 33 32  1  0  0  0  0
 33 30  1  0  0  0  0
 34 33  2  0  0  0  0
 35 36  2  0  0  0  0
 35 34  1  0  0  0  0
 36 37  1  0  0  0  0
 37 32  2  0  0  0  0
 39 34  1  0  0  0  0
 40 41  1  0  0  0  0
 41 42  1  0  0  0  0
 42 43  2  0  0  0  0
 42 36  1  0  0  0  0
 43 47  1  0  0  0  0
 44 48  1  0  0  0  0
 44 43  1  0  0  0  0
 45 44  2  0  0  0  0
 46 45  1  0  0  0  0
 46 41  2  0  0  0  0
 49 45  1  0  0  0  0
 50 46  1  0  0  0  0
M  END
>  <minimizedAffinity>
-6.39483595

$$$$

 OpenBabel03252501533D

 50 54  0  0  1  0  0  0  0  0999 V2000
   38.9890   32.1880   40.2920 N   0  0  0  0  0  0  0  0  0  0  0  0
   37.6420   32.2040   39.8330 C   0  0  0  0  0  0  0  0  0  0  0  0
   37.2540   33.6020   39.4550 C   0  0  0  0  0  0  0  0  0  0  0  0
   38.2930   34.4480   40.1440 C   0  0  0  0  0  0  0  0  0  0  0  0
   39.3590   33.5300   40.6470 C   0  0  2  0  0  0  0  0  0  0  0  0
   36.9790   31.7360   40.5610 H   0  0  0  0  0  0  0  0  0  0  0  0
   37.5900   31.5510   38.9210 H   0  0  0  0  0  0  0  0  0  0  0  0
   36.2760   33.8210   39.9310 H   0  0  0  0  0  0  0  0  0  0  0  0
   37.2210   33.7660   38.3620 H   0  0  0  0  0  0  0  0  0  0  0  0
   37.8590   35.1120   40.9150 H   0  0  0  0  0  0  0  0  0  0  0  0
   38.7720   35.1250   39.3890 H   0  0  0  0  0  0  0  0  0  0  0  0
   39.2930   33.5860   41.7740 H   0  0  0  0  0  0  0  0  0  0  0  0
   40.6920   33.9050   40.3120 N   0  0  0  0  0  0  0  0  0  0  0  0
   41.4270   34.6750   41.1370 C   0  0  0  0  0  0  0  0  0  0  0  0
   41.1540   35.0970   42.0980 H   0  0  0  0  0  0  0  0  0  0  0  0
   42.6310   34.8630   40.5650 N   0  0  0  0  0  0  0  0  0  0  0  0
   42.6380   34.2100   39.3900 C   0  0  0  0  0  0  0  0  0  0  0  0
   43.5360   34.0170   38.3690 C   0  0  0  0  0  0  0  0  0  0  0  0
   43.2950   33.2990   37.2650 N   0  0  0  0  0  0  0  0  0  0  0  0
   42.0700   32.7140   37.1410 C   0  0  0  0  0  0  0  0  0  0  0  0
   41.7040   32.1020   36.3240 H   0  0  0  0  0  0  0  0  0  0  0  0
   41.1430   32.8690   38.1210 N   0  0  0  0  0  0  0  0  0  0  0  0
   41.4080   33.5870   39.2050 C   0  0  0  0  0  0  0  0  0  0  0  0
   44.8140   34.6440   38.5260 N   0  0  0  0  0  0  0  0  0  0  0  0
   45.4830   33.9230   38.9100 H   0  0  0  0  0  0  0  0  0  0  0  0
   45.3480   35.5300   38.4110 H   0  0  0  0  0  0  0  0  0  0  0  0
   39.1330   31.2920   41.4130 C   0  0  0  0  0  0  0  0  0  0  0  0
   40.1520   31.3810   41.8330 H   0  0  0  0  0  0  0  0  0  0  0  0
   38.3400   31.4870   42.1760 H   0  0  0  0  0  0  0  0  0  0  0  0
   38.1400   29.0690   41.7690 C   0  0  0  0  0  3  0  0  0  0  0  0
   38.9180   29.8540   41.0140 C   0  0  0  0  0  3  0  0  0  0  0  0
   37.3350   26.6930   42.2670 C   0  0  0  0  0  0  0  0  0  0  0  0
   37.9090   27.6530   41.4050 C   0  0  0  0  0  0  0  0  0  0  0  0
   38.2960   27.2650   40.1090 C   0  0  0  0  0  0  0  0  0  0  0  0
   38.0930   25.9670   39.7540 N   0  0  0  0  0  0  0  0  0  0  0  0
   37.5460   25.0870   40.6020 C   0  0  0  0  0  0  0  0  0  0  0  0
   37.1810   25.4600   41.8290 N   0  0  0  0  0  0  0  0  0  0  0  0
   37.0610   27.0530   43.2440 H   0  0  0  0  0  0  0  0  0  0  0  0
   38.7350   27.9950   39.4450 H   0  0  0  0  0  0  0  0  0  0  0  0
   35.2930   24.2760   39.2080 F   0  0  0  0  0  0  0  0  0  0  0  0
   36.2200   23.3350   39.4700 C   0  0  0  0  0  0  0  0  0  0  0  0
   37.3530   23.7100   40.1630 C   0  0  0  0  0  0  0  0  0  0  0  0
   38.3630   22.7970   40.4770 C   0  0  0  0  0  0  0  0  0  0  0  0
   38.1890   21.4820   40.0640 C   0  0  0  0  0  0  0  0  0  0  0  0
   37.0340   21.0800   39.3520 C   0  0  0  0  0  0  0  0  0  0  0  0
   36.0630   22.0210   39.0650 C   0  0  0  0  0  0  0  0  0  0  0  0
   39.2420   23.1060   41.0190 H   0  0  0  0  0  0  0  0  0  0  0  0
   38.9590   20.7610   40.2970 H   0  0  0  0  0  0  0  0  0  0  0  0
   36.9880   20.0370   39.0730 H   0  0  0  0  0  0  0  0  0  0  0  0
   35.1840   21.7000   38.5210 H   0  0  0  0  0  0  0  0  0  0  0  0
  1  5  1  0  0  0  0
  1 27  1  0  0  0  0
  2  1  1  0  0  0  0
  2  6  1  0  0  0  0
  3  2  1  0  0  0  0
  3  8  1  0  0  0  0
  3  4  1  0  0  0  0
  4  5  1  0  0  0  0
  4 10  1  0  0  0  0
  5 12  1  1  0  0  0
  7  2  1  0  0  0  0
  9  3  1  0  0  0  0
 11  4  1  0  0  0  0
 13  5  1  0  0  0  0
 13 14  1  0  0  0  0
 14 15  1  0  0  0  0
 16 14  2  0  0  0  0
 17 16  1  0  0  0  0
 18 24  1  0  0  0  0
 18 17  2  0  0  0  0
 19 18  1  0  0  0  0
 20 19  2  0  0  0  0
 20 22  1  0  0  0  0
 21 20  1  0  0  0  0
 22 23  2  0  0  0  0
 23 17  1  0  0  0  0
 23 13  1  0  0  0  0
 24 25  1  0  0  0  0
 26 24  1  0  0  0  0
 27 28  1  0  0  0  0
 27 29  1  0  0  0  0
 31 27  1  0  0  0  0
 31 30  2  0  0  0  0
 32 38  1  0  0  0  0
 33 30  1  0  0  0  0
 33 32  2  0  0  0  0
 34 33  1  0  0  0  0
 35 34  2  0  0  0  0
 35 36  1  0  0  0  0
 36 37  2  0  0  0  0
 37 32  1  0  0  0  0
 39 34  1  0  0  0  0
 40 41  1  0  0  0  0
 41 42  1  0  0  0  0
 42 43  2  0  0  0  0
 42 36  1  0  0  0  0
 43 47  1  0  0  0  0
 44 48  1  0  0  0  0
 44 43  1  0  0  0  0
 45 44  2  0  0  0  0
 46 45  1  0  0  0  0
 46 41  2  0  0  0  0
 49 45  1  0  0  0  0
 50 46  1  0  0  0  0
M  END
>  <minimizedAffinity>
-6.35177803

$$$$

 OpenBabel03252501533D

 50 54  0  0  1  0  0  0  0  0999 V2000
   44.8150   33.1840   42.8310 N   0  0  0  0  0  0  0  0  0  0  0  0
   44.8620   33.8690   44.0770 C   0  0  0  0  0  0  0  0  0  0  0  0
   45.3020   35.2860   43.8570 C   0  0  0  0  0  0  0  0  0  0  0  0
   45.9350   35.2440   42.4900 C   0  0  0  0  0  0  0  0  0  0  0  0
   45.6040   33.9200   41.8820 C   0  0  2  0  0  0  0  0  0  0  0  0
   45.4650   33.3200   44.8000 H   0  0  0  0  0  0  0  0  0  0  0  0
   43.8210   33.8720   44.4990 H   0  0  0  0  0  0  0  0  0  0  0  0
   46.1050   35.5070   44.5910 H   0  0  0  0  0  0  0  0  0  0  0  0
   44.4750   36.0170   43.9270 H   0  0  0  0  0  0  0  0  0  0  0  0
   47.0150   35.4800   42.5140 H   0  0  0  0  0  0  0  0  0  0  0  0
   45.4610   36.0300   41.8450 H   0  0  0  0  0  0  0  0  0  0  0  0
   46.5900   33.3740   41.8030 H   0  0  0  0  0  0  0  0  0  0  0  0
   45.0760   33.9740   40.5600 N   0  0  0  0  0  0  0  0  0  0  0  0
   45.8610   33.7580   39.4880 C   0  0  0  0  0  0  0  0  0  0  0  0
   46.9210   33.5310   39.4550 H   0  0  0  0  0  0  0  0  0  0  0  0
   45.0980   33.8720   38.3850 N   0  0  0  0  0  0  0  0  0  0  0  0
   43.8440   34.1560   38.7780 C   0  0  0  0  0  0  0  0  0  0  0  0
   42.6390   34.3850   38.1580 C   0  0  0  0  0  0  0  0  0  0  0  0
   41.4920   34.6570   38.7940 N   0  0  0  0  0  0  0  0  0  0  0  0
   41.5170   34.7130   40.1550 C   0  0  0  0  0  0  0  0  0  0  0  0
   40.6920   34.9190   40.8280 H   0  0  0  0  0  0  0  0  0  0  0  0
   42.6810   34.4950   40.8210 N   0  0  0  0  0  0  0  0  0  0  0  0
   43.8030   34.2270   40.1660 C   0  0  0  0  0  0  0  0  0  0  0  0
   42.6430   34.3200   36.7270 N   0  0  0  0  0  0  0  0  0  0  0  0
   42.3170   33.3570   36.4460 H   0  0  0  0  0  0  0  0  0  0  0  0
   42.8400   34.8470   35.8520 H   0  0  0  0  0  0  0  0  0  0  0  0
   45.2990   31.8330   42.9760 C   0  0  0  0  0  0  0  0  0  0  0  0
   45.9680   31.5840   42.1320 H   0  0  0  0  0  0  0  0  0  0  0  0
   45.7960   31.6980   43.9680 H   0  0  0  0  0  0  0  0  0  0  0  0
   43.1850   30.9400   42.0900 C   0  0  0  0  0  3  0  0  0  0  0  0
   44.1720   30.8310   42.9870 C   0  0  0  0  0  3  0  0  0  0  0  0
   40.9680   30.0390   41.1860 C   0  0  0  0  0  0  0  0  0  0  0  0
   42.0630   29.9730   42.0740 C   0  0  0  0  0  0  0  0  0  0  0  0
   42.1180   28.9300   43.0160 C   0  0  0  0  0  0  0  0  0  0  0  0
   41.0970   28.0300   43.0200 N   0  0  0  0  0  0  0  0  0  0  0  0
   40.0760   28.1290   42.1600 C   0  0  0  0  0  0  0  0  0  0  0  0
   40.0290   29.1190   41.2680 N   0  0  0  0  0  0  0  0  0  0  0  0
   40.9850   30.8600   40.4890 H   0  0  0  0  0  0  0  0  0  0  0  0
   42.9540   28.8740   43.6990 H   0  0  0  0  0  0  0  0  0  0  0  0
   37.5170   28.7410   43.0260 F   0  0  0  0  0  0  0  0  0  0  0  0
   37.7450   27.4680   42.6480 C   0  0  0  0  0  0  0  0  0  0  0  0
   39.0110   27.1340   42.2120 C   0  0  0  0  0  0  0  0  0  0  0  0
   39.3330   25.8370   41.8030 C   0  0  0  0  0  0  0  0  0  0  0  0
   38.3250   24.8820   41.8500 C   0  0  0  0  0  0  0  0  0  0  0  0
   37.0220   25.2070   42.2940 C   0  0  0  0  0  0  0  0  0  0  0  0
   36.7530   26.5050   42.6880 C   0  0  0  0  0  0  0  0  0  0  0  0
   40.3270   25.5930   41.4650 H   0  0  0  0  0  0  0  0  0  0  0  0
   38.5540   23.8730   41.5380 H   0  0  0  0  0  0  0  0  0  0  0  0
   36.3050   24.3980   42.2950 H   0  0  0  0  0  0  0  0  0  0  0  0
   35.7520   26.7400   43.0270 H   0  0  0  0  0  0  0  0  0  0  0  0
  1 27  1  0  0  0  0
  1  2  1  0  0  0  0
  2  7  1  0  0  0  0
  2  6  1  0  0  0  0
  3  9  1  0  0  0  0
  3  2  1  0  0  0  0
  3  8  1  0  0  0  0
  4 10  1  0  0  0  0
  4  3  1  0  0  0  0
  5 12  1  6  0  0  0
  5  4  1  0  0  0  0
  5  1  1  0  0  0  0
 11  4  1  0  0  0  0
 13  5  1  0  0  0  0
 14 13  1  0  0  0  0
 15 14  1  0  0  0  0
 16 17  1  0  0  0  0
 16 14  2  0  0  0  0
 17 23  1  0  0  0  0
 18 17  2  0  0  0  0
 18 19  1  0  0  0  0
 19 20  2  0  0  0  0
 20 22  1  0  0  0  0
 20 21  1  0  0  0  0
 23 13  1  0  0  0  0
 23 22  2  0  0  0  0
 24 18  1  0  0  0  0
 25 24  1  0  0  0  0
 26 24  1  0  0  0  0
 27 31  1  0  0  0  0
 27 29  1  0  0  0  0
 28 27  1  0  0  0  0
 30 31  2  0  0  0  0
 32 37  2  0  0  0  0
 32 33  1  0  0  0  0
 33 30  1  0  0  0  0
 33 34  2  0  0  0  0
 34 35  1  0  0  0  0
 34 39  1  0  0  0  0
 36 42  1  0  0  0  0
 36 35  2  0  0  0  0
 37 36  1  0  0  0  0
 38 32  1  0  0  0  0
 41 46  1  0  0  0  0
 41 40  1  0  0  0  0
 42 41  2  0  0  0  0
 43 44  2  0  0  0  0
 43 42  1  0  0  0  0
 44 45  1  0  0  0  0
 45 49  1  0  0  0  0
 45 46  2  0  0  0  0
 46 50  1  0  0  0  0
 47 43  1  0  0  0  0
 48 44  1  0  0  0  0
M  END
>  <minimizedAffinity>
-6.33674097

$$$$
