
 OpenBabel03242515243D

 36 39  0  0  0  0  0  0  0  0999 V2000
   44.4480   35.5620   43.9450 C   0  0  0  0  0  0  0  0  0  0  0  0
   44.4520   34.9040   42.7170 C   0  0  0  0  0  0  0  0  0  0  0  0
   44.8880   33.5970   42.7290 C   0  0  0  0  0  0  0  0  0  0  0  0
   45.2760   33.0380   43.8910 N   0  0  0  0  0  0  0  0  0  0  0  0
   45.2550   33.7170   45.0560 C   0  0  0  0  0  0  0  0  0  0  0  0
   44.8360   35.0070   45.1130 N   0  0  0  0  0  0  0  0  0  0  0  0
   44.1170   36.6040   44.0290 H   0  0  0  0  0  0  0  0  0  0  0  0
   44.8880   33.0910   41.7700 H   0  0  0  0  0  0  0  0  0  0  0  0
   45.6650   33.1220   46.2810 N   0  0  0  0  0  0  0  0  0  0  0  0
   45.2890   33.4730   47.5200 C   0  0  0  0  0  0  0  0  0  0  0  0
   44.6010   34.2810   47.7590 H   0  0  0  0  0  0  0  0  0  0  0  0
   45.8900   32.6750   48.4430 N   0  0  0  0  0  0  0  0  0  0  0  0
   46.6580   31.8050   47.7980 C   0  0  0  0  0  0  0  0  0  0  0  0
   47.4840   30.7790   48.1840 C   0  0  0  0  0  0  0  0  0  0  0  0
   48.1290   30.0820   47.2300 N   0  0  0  0  0  0  0  0  0  0  0  0
   47.9900   30.3580   45.9170 C   0  0  0  0  0  0  0  0  0  0  0  0
   48.5340   29.7640   45.1690 H   0  0  0  0  0  0  0  0  0  0  0  0
   47.1830   31.3610   45.5060 N   0  0  0  0  0  0  0  0  0  0  0  0
   46.5140   32.0890   46.4410 C   0  0  0  0  0  0  0  0  0  0  0  0
   43.9940   35.6770   41.5600 C   0  0  0  0  0  0  0  0  0  0  0  0
   44.0040   36.7450   41.7610 H   0  0  0  0  0  0  0  0  0  0  0  0
   44.7380   35.5320   40.7260 H   0  0  0  0  0  0  0  0  0  0  0  0
   42.7050   35.1600   41.1370 N   0  0  0  0  0  0  0  0  0  0  0  0
   41.5980   35.4960   41.8090 C   0  0  0  0  0  0  0  0  0  0  0  0
   40.3910   34.9720   41.3610 C   0  0  0  0  0  0  0  0  0  0  0  0
   40.3330   34.1370   40.2620 C   0  0  0  0  0  0  0  0  0  0  0  0
   39.2250   33.6910   39.8970 O   0  0  0  0  0  0  0  0  0  0  0  0
   41.4730   33.8260   39.6180 N   0  0  0  0  0  0  0  0  0  0  0  0
   42.6600   34.3300   40.0440 C   0  0  0  0  0  0  0  0  0  0  0  0
   43.6970   34.0020   39.3960 O   0  0  0  0  0  0  0  0  0  0  0  0
   41.6270   36.1430   42.6640 H   0  0  0  0  0  0  0  0  0  0  0  0
   39.4650   35.2140   41.8710 H   0  0  0  0  0  0  0  0  0  0  0  0
   41.4640   33.1970   38.7830 H   0  0  0  0  0  0  0  0  0  0  0  0
   47.6550   30.4620   49.5410 N   0  0  0  0  0  0  0  0  0  0  0  0
   48.6120   30.2020   49.8940 H   0  0  0  0  0  0  0  0  0  0  0  0
   46.8940   30.4580   50.2680 H   0  0  0  0  0  0  0  0  0  0  0  0
  1  7  1  0  0  0  0
  1  6  1  0  0  0  0
  2  3  1  0  0  0  0
  2  1  2  0  0  0  0
  3  4  2  0  0  0  0
  4  5  1  0  0  0  0
  5  6  2  0  0  0  0
  5  9  1  0  0  0  0
  8  3  1  0  0  0  0
  9 19  1  0  0  0  0
  9 10  1  0  0  0  0
 10 11  1  0  0  0  0
 10 12  2  0  0  0  0
 13 14  1  0  0  0  0
 13 12  1  0  0  0  0
 14 34  1  0  0  0  0
 15 14  2  0  0  0  0
 16 15  1  0  0  0  0
 17 16  1  0  0  0  0
 18 16  2  0  0  0  0
 18 19  1  0  0  0  0
 19 13  2  0  0  0  0
 20 21  1  0  0  0  0
 20  2  1  0  0  0  0
 22 20  1  0  0  0  0
 23 20  1  0  0  0  0
 23 24  1  0  0  0  0
 24 31  1  0  0  0  0
 25 24  2  0  0  0  0
 25 32  1  0  0  0  0
 26 25  1  0  0  0  0
 27 26  2  0  0  0  0
 28 29  1  0  0  0  0
 28 26  1  0  0  0  0
 29 23  1  0  0  0  0
 30 29  2  0  0  0  0
 33 28  1  0  0  0  0
 34 35  1  0  0  0  0
 34 36  1  0  0  0  0
M  END
>  <minimizedAffinity>
-6.40305424

>  <minimizedRMSD>
1.2776109

$$$$
