
 OpenBabel03252509033D

 53 56  0  0  1  0  0  0  0  0999 V2000
   46.7100   34.1510   43.8560 N   0  0  0  0  0  0  0  0  0  0  0  0
   46.3710   35.0090   42.7790 C   0  0  0  0  0  0  0  0  0  0  0  0
   44.8910   35.2490   42.6200 C   0  0  0  0  0  0  0  0  0  0  0  0
   44.1240   35.2920   43.9300 C   0  0  0  0  0  0  0  0  0  0  0  0
   45.0670   35.1830   45.1170 C   0  0  0  0  0  0  0  0  0  0  0  0
   45.8170   33.8150   44.8440 C   0  0  2  0  0  0  0  0  0  0  0  0
   46.8660   35.9980   43.0020 H   0  0  0  0  0  0  0  0  0  0  0  0
   46.7520   34.7100   41.7930 H   0  0  0  0  0  0  0  0  0  0  0  0
   44.7710   36.2670   42.1600 H   0  0  0  0  0  0  0  0  0  0  0  0
   44.4450   34.5510   41.8850 H   0  0  0  0  0  0  0  0  0  0  0  0
   43.4800   34.3850   43.9430 H   0  0  0  0  0  0  0  0  0  0  0  0
   43.4630   36.1740   44.0030 H   0  0  0  0  0  0  0  0  0  0  0  0
   45.8030   35.9880   45.0920 H   0  0  0  0  0  0  0  0  0  0  0  0
   44.4790   35.0840   46.0300 H   0  0  0  0  0  0  0  0  0  0  0  0
   45.0320   33.0690   44.6080 H   0  0  0  0  0  0  0  0  0  0  0  0
   47.8050   33.2550   43.5790 C   0  0  0  0  0  0  0  0  0  0  0  0
   47.8440   32.5300   44.4370 H   0  0  0  0  0  0  0  0  0  0  0  0
   48.7400   33.8520   43.6270 H   0  0  0  0  0  0  0  0  0  0  0  0
   47.5470   32.5990   42.2720 C   0  0  0  0  0  0  0  0  0  0  0  0
   46.9610   31.6790   42.4080 H   0  0  0  0  0  0  0  0  0  0  0  0
   46.9960   33.2830   41.5640 H   0  0  0  0  0  0  0  0  0  0  0  0
   51.2290   32.3020   41.6200 C   0  0  0  0  0  0  0  0  0  0  0  0
   49.9970   32.5710   42.2470 C   0  0  0  0  0  0  0  0  0  0  0  0
   48.8300   32.3070   41.5930 C   0  0  0  0  0  0  0  0  0  0  0  0
   48.9170   31.7950   40.3670 N   0  0  0  0  0  0  0  0  0  0  0  0
   50.0800   31.5320   39.7550 C   0  0  0  0  0  0  0  0  0  0  0  0
   51.2490   31.7810   40.3720 N   0  0  0  0  0  0  0  0  0  0  0  0
   52.1480   32.5140   42.1470 H   0  0  0  0  0  0  0  0  0  0  0  0
   50.0630   32.9890   43.2510 H   0  0  0  0  0  0  0  0  0  0  0  0
   49.9290   31.1220   38.7680 H   0  0  0  0  0  0  0  0  0  0  0  0
   46.4110   33.6020   46.0750 O   0  0  0  0  0  0  0  0  0  0  0  0
   45.7980   31.0610   45.5800 O   0  0  0  0  0  0  0  0  0  0  0  0
   46.0980   32.0660   46.6880 P   0  0  2  0  0  0  0  0  0  0  0  0
   44.6250   32.2000   47.5470 O   0  0  0  0  0  0  0  0  0  0  0  0
   44.8100   32.5070   48.4720 H   0  0  0  0  0  0  0  0  0  0  0  0
   47.2640   31.5270   47.7400 O   0  0  0  0  0  0  0  0  0  0  0  0
   48.1410   30.6900   47.0700 C   0  0  0  0  0  0  0  0  0  0  0  0
   48.8130   31.2060   46.3810 H   0  0  0  0  0  0  0  0  0  0  0  0
   47.5430   29.9570   46.4810 H   0  0  0  0  0  0  0  0  0  0  0  0
   48.8570   29.9170   48.0760 N   0  0  0  0  0  0  0  0  0  0  0  0
   48.9020   28.5630   47.9770 C   0  0  0  0  0  0  0  0  0  0  0  0
   48.4560   27.9200   47.2060 H   0  0  0  0  0  0  0  0  0  0  0  0
   49.6160   28.0560   49.0130 N   0  0  0  0  0  0  0  0  0  0  0  0
   50.0240   29.1080   49.7760 C   0  0  0  0  0  0  0  0  0  0  0  0
   50.7600   29.2920   50.9360 C   0  0  0  0  0  0  0  0  0  0  0  0
   50.9560   30.5410   51.3960 N   0  0  0  0  0  0  0  0  0  0  0  0
   50.4720   31.6220   50.7860 C   0  0  0  0  0  0  0  0  0  0  0  0
   50.7140   32.5430   51.2750 H   0  0  0  0  0  0  0  0  0  0  0  0
   49.7550   31.4950   49.6630 N   0  0  0  0  0  0  0  0  0  0  0  0
   49.5380   30.2690   49.1720 C   0  0  0  0  0  0  0  0  0  0  0  0
   51.2630   28.1250   51.5640 N   0  0  0  0  0  0  0  0  0  0  0  0
   52.1130   27.5250   51.3900 H   0  0  0  0  0  0  0  0  0  0  0  0
   51.0160   27.4890   52.3440 H   0  0  0  0  0  0  0  0  0  0  0  0
  1  6  1  0  0  0  0
  2  7  1  0  0  0  0
  2  1  1  0  0  0  0
  3  2  1  0  0  0  0
  3  4  1  0  0  0  0
  4 11  1  0  0  0  0
  4 12  1  0  0  0  0
  4  5  1  0  0  0  0
  5 14  1  0  0  0  0
  6 15  1  6  0  0  0
  6  5  1  0  0  0  0
  6 31  1  0  0  0  0
  8  2  1  0  0  0  0
  9  3  1  0  0  0  0
 10  3  1  0  0  0  0
 13  5  1  0  0  0  0
 16 18  1  0  0  0  0
 16  1  1  0  0  0  0
 16 17  1  0  0  0  0
 19 20  1  0  0  0  0
 19 16  1  0  0  0  0
 21 19  1  0  0  0  0
 22 28  1  0  0  0  0
 22 23  1  0  0  0  0
 23 29  1  0  0  0  0
 24 23  2  0  0  0  0
 24 19  1  0  0  0  0
 25 24  1  0  0  0  0
 26 25  2  0  0  0  0
 26 27  1  0  0  0  0
 27 22  2  0  0  0  0
 30 26  1  0  0  0  0
 31 33  1  0  0  0  0
 33 32  2  6  0  0  0
 33 34  1  0  0  0  0
 33 36  1  0  0  0  0
 34 35  1  0  0  0  0
 37 36  1  0  0  0  0
 37 40  1  0  0  0  0
 38 37  1  0  0  0  0
 39 37  1  0  0  0  0
 40 50  1  0  0  0  0
 41 40  1  0  0  0  0
 41 43  2  0  0  0  0
 42 41  1  0  0  0  0
 43 44  1  0  0  0  0
 44 45  1  0  0  0  0
 45 46  2  0  0  0  0
 45 51  1  0  0  0  0
 47 48  1  0  0  0  0
 47 46  1  0  0  0  0
 49 47  2  0  0  0  0
 50 49  1  0  0  0  0
 50 44  2  0  0  0  0
 51 53  1  0  0  0  0
 52 51  1  0  0  0  0
M  END
>  <minimizedAffinity>
-5.33002615

>  <minimizedRMSD>
3.15750647

$$$$
