
 OpenBabel03242512233D

 46 50  0  0  0  0  0  0  0  0999 V2000
   37.3370   28.4760   42.2320 C   0  0  0  0  0  0  0  0  0  0  0  0
   37.8380   27.2960   42.7170 C   0  0  0  0  0  0  0  0  0  0  0  0
   39.1410   27.2400   43.1170 C   0  0  0  0  0  0  0  0  0  0  0  0
   39.9450   28.3740   43.0290 C   0  0  0  0  0  0  0  0  0  0  0  0
   39.4110   29.5430   42.5370 C   0  0  0  0  0  0  0  0  0  0  0  0
   38.0730   29.6080   42.1250 C   0  0  0  0  0  0  0  0  0  0  0  0
   39.5380   26.3070   43.5010 H   0  0  0  0  0  0  0  0  0  0  0  0
   40.9820   28.3280   43.3480 H   0  0  0  0  0  0  0  0  0  0  0  0
   40.0590   30.4140   42.4790 H   0  0  0  0  0  0  0  0  0  0  0  0
   36.9270   26.1500   42.7760 C   0  0  0  0  0  0  0  0  0  0  0  0
   37.1120   25.5340   43.6770 H   0  0  0  0  0  0  0  0  0  0  0  0
   35.8810   26.4200   42.7750 H   0  0  0  0  0  0  0  0  0  0  0  0
   37.1030   25.2650   41.5570 C   0  0  0  0  0  0  0  0  0  0  0  0
   37.6280   23.9900   41.7530 C   0  0  0  0  0  0  0  0  0  0  0  0
   37.7750   23.2070   40.6260 C   0  0  0  0  0  0  0  0  0  0  0  0
   37.4150   23.7050   39.4290 N   0  0  0  0  0  0  0  0  0  0  0  0
   36.9080   24.9540   39.2750 C   0  0  0  0  0  0  0  0  0  0  0  0
   36.7590   25.7190   40.3460 N   0  0  0  0  0  0  0  0  0  0  0  0
   37.9080   23.6170   42.7300 H   0  0  0  0  0  0  0  0  0  0  0  0
   38.1820   22.2000   40.7290 H   0  0  0  0  0  0  0  0  0  0  0  0
   36.6350   25.3020   38.2880 H   0  0  0  0  0  0  0  0  0  0  0  0
   36.0130   28.6320   41.7970 O   0  0  0  0  0  0  0  0  0  0  0  0
   35.3170   28.4250   42.5120 H   0  0  0  0  0  0  0  0  0  0  0  0
   37.6390   30.8460   41.6420 O   0  0  0  0  0  0  0  0  0  0  0  0
   38.0480   31.1390   40.3510 C   0  0  0  0  0  0  0  0  0  0  0  0
   37.2270   30.8240   39.2960 C   0  0  0  0  0  0  0  0  0  0  0  0
   37.5620   31.0850   37.9680 C   0  0  0  0  0  0  0  0  0  0  0  0
   38.7400   31.6700   37.7090 N   0  0  0  0  0  0  0  0  0  0  0  0
   39.5490   31.9820   38.7350 C   0  0  0  0  0  0  0  0  0  0  0  0
   39.2190   31.7270   40.0150 N   0  0  0  0  0  0  0  0  0  0  0  0
   36.2620   30.3510   39.4330 H   0  0  0  0  0  0  0  0  0  0  0  0
   36.9140   30.8350   37.1500 H   0  0  0  0  0  0  0  0  0  0  0  0
   40.7950   32.6030   38.4390 N   0  0  0  0  0  0  0  0  0  0  0  0
   41.2490   32.8000   37.1880 C   0  0  0  0  0  0  0  0  0  0  0  0
   40.7410   32.5210   36.2760 H   0  0  0  0  0  0  0  0  0  0  0  0
   42.4660   33.4160   37.2360 N   0  0  0  0  0  0  0  0  0  0  0  0
   42.7580   33.5950   38.5420 C   0  0  0  0  0  0  0  0  0  0  0  0
   43.7910   34.1330   39.2810 C   0  0  0  0  0  0  0  0  0  0  0  0
   43.7760   34.1600   40.6290 N   0  0  0  0  0  0  0  0  0  0  0  0
   42.7420   33.6560   41.3260 C   0  0  0  0  0  0  0  0  0  0  0  0
   42.6170   33.6190   42.3960 H   0  0  0  0  0  0  0  0  0  0  0  0
   41.7360   33.1310   40.6370 N   0  0  0  0  0  0  0  0  0  0  0  0
   41.7200   33.0900   39.2960 C   0  0  0  0  0  0  0  0  0  0  0  0
   44.9060   34.6780   38.5800 N   0  0  0  0  0  0  0  0  0  0  0  0
   45.5040   33.9150   38.1690 H   0  0  0  0  0  0  0  0  0  0  0  0
   45.4070   35.5470   38.2860 H   0  0  0  0  0  0  0  0  0  0  0  0
  1  2  1  0  0  0  0
  2 10  1  0  0  0  0
  2  3  2  0  0  0  0
  3  7  1  0  0  0  0
  4  3  1  0  0  0  0
  4  8  1  0  0  0  0
  5  4  2  0  0  0  0
  6  1  2  0  0  0  0
  6  5  1  0  0  0  0
  9  5  1  0  0  0  0
 10 11  1  0  0  0  0
 12 10  1  0  0  0  0
 13 14  1  0  0  0  0
 13 10  1  0  0  0  0
 14 19  1  0  0  0  0
 15 20  1  0  0  0  0
 15 14  2  0  0  0  0
 16 15  1  0  0  0  0
 17 16  2  0  0  0  0
 17 18  1  0  0  0  0
 18 13  2  0  0  0  0
 21 17  1  0  0  0  0
 22  1  1  0  0  0  0
 22 23  1  0  0  0  0
 24  6  1  0  0  0  0
 25 24  1  0  0  0  0
 26 31  1  0  0  0  0
 26 25  2  0  0  0  0
 27 26  1  0  0  0  0
 28 27  2  0  0  0  0
 28 29  1  0  0  0  0
 29 30  2  0  0  0  0
 30 25  1  0  0  0  0
 32 27  1  0  0  0  0
 33 29  1  0  0  0  0
 33 43  1  0  0  0  0
 34 36  2  0  0  0  0
 34 33  1  0  0  0  0
 35 34  1  0  0  0  0
 36 37  1  0  0  0  0
 37 38  2  0  0  0  0
 37 43  1  0  0  0  0
 38 39  1  0  0  0  0
 39 40  2  0  0  0  0
 40 41  1  0  0  0  0
 42 40  1  0  0  0  0
 43 42  2  0  0  0  0
 44 38  1  0  0  0  0
 45 44  1  0  0  0  0
 46 44  1  0  0  0  0
M  END
>  <minimizedAffinity>
-7.20077467

$$$$

 OpenBabel03242512233D

 46 50  0  0  0  0  0  0  0  0999 V2000
   36.4660   31.3010   39.9570 C   0  0  0  0  0  0  0  0  0  0  0  0
   37.1640   32.1720   39.1610 C   0  0  0  0  0  0  0  0  0  0  0  0
   37.5960   31.7550   37.9360 C   0  0  0  0  0  0  0  0  0  0  0  0
   37.3280   30.4560   37.5090 C   0  0  0  0  0  0  0  0  0  0  0  0
   36.6260   29.6070   38.3330 C   0  0  0  0  0  0  0  0  0  0  0  0
   36.1780   30.0280   39.5930 C   0  0  0  0  0  0  0  0  0  0  0  0
   38.1470   32.4430   37.3060 H   0  0  0  0  0  0  0  0  0  0  0  0
   37.6740   30.1250   36.5350 H   0  0  0  0  0  0  0  0  0  0  0  0
   36.4300   28.5990   37.9770 H   0  0  0  0  0  0  0  0  0  0  0  0
   37.4040   33.5190   39.6840 C   0  0  0  0  0  0  0  0  0  0  0  0
   37.1590   34.2930   38.9320 H   0  0  0  0  0  0  0  0  0  0  0  0
   36.8460   33.7480   40.5810 H   0  0  0  0  0  0  0  0  0  0  0  0
   38.8590   33.6870   40.0770 C   0  0  0  0  0  0  0  0  0  0  0  0
   39.3880   34.9760   40.0640 C   0  0  0  0  0  0  0  0  0  0  0  0
   40.7140   35.0980   40.4270 C   0  0  0  0  0  0  0  0  0  0  0  0
   41.4070   33.9950   40.7650 N   0  0  0  0  0  0  0  0  0  0  0  0
   40.8580   32.7530   40.7650 C   0  0  0  0  0  0  0  0  0  0  0  0
   39.5870   32.6180   40.4200 N   0  0  0  0  0  0  0  0  0  0  0  0
   38.8050   35.8450   39.7870 H   0  0  0  0  0  0  0  0  0  0  0  0
   41.1740   36.0870   40.4320 H   0  0  0  0  0  0  0  0  0  0  0  0
   41.4630   31.9020   41.0450 H   0  0  0  0  0  0  0  0  0  0  0  0
   35.9810   31.6370   41.2290 O   0  0  0  0  0  0  0  0  0  0  0  0
   35.3390   32.4290   41.2300 H   0  0  0  0  0  0  0  0  0  0  0  0
   35.4750   29.0810   40.3430 O   0  0  0  0  0  0  0  0  0  0  0  0
   36.2700   28.1330   40.9680 C   0  0  0  0  0  0  0  0  0  0  0  0
   36.8740   28.4420   42.1630 C   0  0  0  0  0  0  0  0  0  0  0  0
   37.6880   27.5470   42.8560 C   0  0  0  0  0  0  0  0  0  0  0  0
   37.8900   26.3300   42.3330 N   0  0  0  0  0  0  0  0  0  0  0  0
   37.3030   26.0200   41.1640 C   0  0  0  0  0  0  0  0  0  0  0  0
   36.5180   26.8890   40.5000 N   0  0  0  0  0  0  0  0  0  0  0  0
   36.7530   29.4060   42.6420 H   0  0  0  0  0  0  0  0  0  0  0  0
   38.1550   27.7970   43.7890 H   0  0  0  0  0  0  0  0  0  0  0  0
   37.5300   24.7220   40.6260 N   0  0  0  0  0  0  0  0  0  0  0  0
   38.3790   23.8290   41.1680 C   0  0  0  0  0  0  0  0  0  0  0  0
   38.9780   23.9790   42.0550 H   0  0  0  0  0  0  0  0  0  0  0  0
   38.3740   22.6860   40.4240 N   0  0  0  0  0  0  0  0  0  0  0  0
   37.5070   22.8870   39.4100 C   0  0  0  0  0  0  0  0  0  0  0  0
   37.0370   22.1730   38.3260 C   0  0  0  0  0  0  0  0  0  0  0  0
   36.1330   22.6830   37.4640 N   0  0  0  0  0  0  0  0  0  0  0  0
   35.6430   23.9250   37.6200 C   0  0  0  0  0  0  0  0  0  0  0  0
   34.9230   24.4370   37.0020 H   0  0  0  0  0  0  0  0  0  0  0  0
   36.0810   24.6320   38.6550 N   0  0  0  0  0  0  0  0  0  0  0  0
   36.9780   24.1540   39.5300 C   0  0  0  0  0  0  0  0  0  0  0  0
   37.5320   20.8520   38.1260 N   0  0  0  0  0  0  0  0  0  0  0  0
   38.5240   20.8690   37.7730 H   0  0  0  0  0  0  0  0  0  0  0  0
   37.3250   19.8300   38.1810 H   0  0  0  0  0  0  0  0  0  0  0  0
  1 22  1  0  0  0  0
  2 10  1  0  0  0  0
  2  1  2  0  0  0  0
  3  2  1  0  0  0  0
  4  3  2  0  0  0  0
  4  5  1  0  0  0  0
  5  6  2  0  0  0  0
  6  1  1  0  0  0  0
  6 24  1  0  0  0  0
  7  3  1  0  0  0  0
  8  4  1  0  0  0  0
  9  5  1  0  0  0  0
 10 13  1  0  0  0  0
 10 12  1  0  0  0  0
 11 10  1  0  0  0  0
 13 18  1  0  0  0  0
 14 13  2  0  0  0  0
 14 15  1  0  0  0  0
 15 20  1  0  0  0  0
 15 16  2  0  0  0  0
 17 16  1  0  0  0  0
 17 21  1  0  0  0  0
 18 17  2  0  0  0  0
 19 14  1  0  0  0  0
 22 23  1  0  0  0  0
 24 25  1  0  0  0  0
 25 26  1  0  0  0  0
 26 31  1  0  0  0  0
 26 27  2  0  0  0  0
 27 32  1  0  0  0  0
 28 27  1  0  0  0  0
 29 28  2  0  0  0  0
 30 25  2  0  0  0  0
 30 29  1  0  0  0  0
 33 29  1  0  0  0  0
 33 34  1  0  0  0  0
 34 35  1  0  0  0  0
 36 34  2  0  0  0  0
 37 43  1  0  0  0  0
 37 36  1  0  0  0  0
 38 37  2  0  0  0  0
 39 40  2  0  0  0  0
 39 38  1  0  0  0  0
 40 42  1  0  0  0  0
 41 40  1  0  0  0  0
 42 43  2  0  0  0  0
 43 33  1  0  0  0  0
 44 46  1  0  0  0  0
 44 38  1  0  0  0  0
 45 44  1  0  0  0  0
M  END
>  <minimizedAffinity>
-7.14258099

$$$$

 OpenBabel03242512233D

 46 50  0  0  0  0  0  0  0  0999 V2000
   36.3390   30.9990   39.9830 C   0  0  0  0  0  0  0  0  0  0  0  0
   36.1060   29.8730   39.2360 C   0  0  0  0  0  0  0  0  0  0  0  0
   36.6190   29.7930   37.9750 C   0  0  0  0  0  0  0  0  0  0  0  0
   37.3680   30.8490   37.4600 C   0  0  0  0  0  0  0  0  0  0  0  0
   37.5830   31.9650   38.2360 C   0  0  0  0  0  0  0  0  0  0  0  0
   37.0600   32.0540   39.5340 C   0  0  0  0  0  0  0  0  0  0  0  0
   36.4360   28.9030   37.3840 H   0  0  0  0  0  0  0  0  0  0  0  0
   37.7750   30.7840   36.4560 H   0  0  0  0  0  0  0  0  0  0  0  0
   38.1700   32.7740   37.8120 H   0  0  0  0  0  0  0  0  0  0  0  0
   35.3080   28.8090   39.8510 C   0  0  0  0  0  0  0  0  0  0  0  0
   34.5150   29.2240   40.5010 H   0  0  0  0  0  0  0  0  0  0  0  0
   34.8350   28.1480   39.1390 H   0  0  0  0  0  0  0  0  0  0  0  0
   36.1860   27.9060   40.6970 C   0  0  0  0  0  0  0  0  0  0  0  0
   36.8540   26.8660   40.0550 C   0  0  0  0  0  0  0  0  0  0  0  0
   37.6460   26.0630   40.8500 C   0  0  0  0  0  0  0  0  0  0  0  0
   37.7280   26.3200   42.1680 N   0  0  0  0  0  0  0  0  0  0  0  0
   37.0610   27.3430   42.7610 C   0  0  0  0  0  0  0  0  0  0  0  0
   36.2970   28.1240   42.0130 N   0  0  0  0  0  0  0  0  0  0  0  0
   36.7690   26.6850   38.9910 H   0  0  0  0  0  0  0  0  0  0  0  0
   38.1900   25.2350   40.3930 H   0  0  0  0  0  0  0  0  0  0  0  0
   37.1640   27.5020   43.8250 H   0  0  0  0  0  0  0  0  0  0  0  0
   35.8550   31.1740   41.2880 O   0  0  0  0  0  0  0  0  0  0  0  0
   36.1690   30.4590   41.9430 H   0  0  0  0  0  0  0  0  0  0  0  0
   37.3410   33.2330   40.2290 O   0  0  0  0  0  0  0  0  0  0  0  0
   38.6920   33.5060   40.3820 C   0  0  0  0  0  0  0  0  0  0  0  0
   39.1730   34.7420   40.0260 C   0  0  0  0  0  0  0  0  0  0  0  0
   40.5160   35.0980   40.1480 C   0  0  0  0  0  0  0  0  0  0  0  0
   41.3760   34.1920   40.6340 N   0  0  0  0  0  0  0  0  0  0  0  0
   40.9120   32.9800   40.9840 C   0  0  0  0  0  0  0  0  0  0  0  0
   39.6140   32.6440   40.8640 N   0  0  0  0  0  0  0  0  0  0  0  0
   38.5350   35.5210   39.6270 H   0  0  0  0  0  0  0  0  0  0  0  0
   40.8830   36.0660   39.8670 H   0  0  0  0  0  0  0  0  0  0  0  0
   41.8420   32.0320   41.4990 N   0  0  0  0  0  0  0  0  0  0  0  0
   43.1690   32.2470   41.5570 C   0  0  0  0  0  0  0  0  0  0  0  0
   43.6830   33.1400   41.2310 H   0  0  0  0  0  0  0  0  0  0  0  0
   43.7840   31.1560   42.0980 N   0  0  0  0  0  0  0  0  0  0  0  0
   42.8130   30.2600   42.3730 C   0  0  0  0  0  0  0  0  0  0  0  0
   42.7310   28.9920   42.9090 C   0  0  0  0  0  0  0  0  0  0  0  0
   41.5570   28.3440   43.0550 N   0  0  0  0  0  0  0  0  0  0  0  0
   40.3960   28.9100   42.6790 C   0  0  0  0  0  0  0  0  0  0  0  0
   39.4040   28.4950   42.7450 H   0  0  0  0  0  0  0  0  0  0  0  0
   40.4490   30.1300   42.1600 N   0  0  0  0  0  0  0  0  0  0  0  0
   41.6000   30.8010   42.0020 C   0  0  0  0  0  0  0  0  0  0  0  0
   43.9400   28.3570   43.3210 N   0  0  0  0  0  0  0  0  0  0  0  0
   44.5050   28.0460   42.4890 H   0  0  0  0  0  0  0  0  0  0  0  0
   44.5300   28.0550   44.1270 H   0  0  0  0  0  0  0  0  0  0  0  0
  1 22  1  0  0  0  0
  2 10  1  0  0  0  0
  2  1  2  0  0  0  0
  3  2  1  0  0  0  0
  4  3  2  0  0  0  0
  4  5  1  0  0  0  0
  5  6  2  0  0  0  0
  6  1  1  0  0  0  0
  6 24  1  0  0  0  0
  7  3  1  0  0  0  0
  8  4  1  0  0  0  0
  9  5  1  0  0  0  0
 10 11  1  0  0  0  0
 10 13  1  0  0  0  0
 12 10  1  0  0  0  0
 13 18  1  0  0  0  0
 14 13  2  0  0  0  0
 14 15  1  0  0  0  0
 15 16  2  0  0  0  0
 16 17  1  0  0  0  0
 17 21  1  0  0  0  0
 18 17  2  0  0  0  0
 19 14  1  0  0  0  0
 20 15  1  0  0  0  0
 22 23  1  0  0  0  0
 24 25  1  0  0  0  0
 25 30  1  0  0  0  0
 26 27  1  0  0  0  0
 26 25  2  0  0  0  0
 27 28  2  0  0  0  0
 28 29  1  0  0  0  0
 29 33  1  0  0  0  0
 30 29  2  0  0  0  0
 31 26  1  0  0  0  0
 32 27  1  0  0  0  0
 33 34  1  0  0  0  0
 33 43  1  0  0  0  0
 34 36  2  0  0  0  0
 35 34  1  0  0  0  0
 36 37  1  0  0  0  0
 37 38  1  0  0  0  0
 38 39  2  0  0  0  0
 38 44  1  0  0  0  0
 40 41  1  0  0  0  0
 40 39  1  0  0  0  0
 42 40  2  0  0  0  0
 43 42  1  0  0  0  0
 43 37  2  0  0  0  0
 44 46  1  0  0  0  0
 45 44  1  0  0  0  0
M  END
>  <minimizedAffinity>
-7.04116488

$$$$

 OpenBabel03242512233D

 46 50  0  0  0  0  0  0  0  0999 V2000
   36.4520   30.6550   40.1020 C   0  0  0  0  0  0  0  0  0  0  0  0
   36.9460   31.5320   39.1720 C   0  0  0  0  0  0  0  0  0  0  0  0
   37.4050   31.0510   37.9810 C   0  0  0  0  0  0  0  0  0  0  0  0
   37.3700   29.6830   37.7230 C   0  0  0  0  0  0  0  0  0  0  0  0
   36.8680   28.8290   38.6790 C   0  0  0  0  0  0  0  0  0  0  0  0
   36.3930   29.3160   39.9050 C   0  0  0  0  0  0  0  0  0  0  0  0
   37.7960   31.7450   37.2450 H   0  0  0  0  0  0  0  0  0  0  0  0
   37.7370   29.3020   36.7760 H   0  0  0  0  0  0  0  0  0  0  0  0
   36.8520   27.7660   38.4530 H   0  0  0  0  0  0  0  0  0  0  0  0
   36.9480   32.9550   39.5220 C   0  0  0  0  0  0  0  0  0  0  0  0
   36.6020   33.5790   38.6750 H   0  0  0  0  0  0  0  0  0  0  0  0
   36.3350   33.1980   40.3780 H   0  0  0  0  0  0  0  0  0  0  0  0
   38.3450   33.4090   39.9010 C   0  0  0  0  0  0  0  0  0  0  0  0
   39.3550   32.4490   39.9140 C   0  0  0  0  0  0  0  0  0  0  0  0
   40.6160   32.8910   40.2610 C   0  0  0  0  0  0  0  0  0  0  0  0
   40.7970   34.1900   40.5600 N   0  0  0  0  0  0  0  0  0  0  0  0
   39.7880   35.0980   40.5380 C   0  0  0  0  0  0  0  0  0  0  0  0
   38.5720   34.6910   40.2060 N   0  0  0  0  0  0  0  0  0  0  0  0
   39.1780   31.4100   39.6680 H   0  0  0  0  0  0  0  0  0  0  0  0
   41.4390   32.1770   40.2860 H   0  0  0  0  0  0  0  0  0  0  0  0
   39.9920   36.1300   40.7880 H   0  0  0  0  0  0  0  0  0  0  0  0
   35.9570   31.0520   41.3530 O   0  0  0  0  0  0  0  0  0  0  0  0
   35.1790   31.7090   41.2990 H   0  0  0  0  0  0  0  0  0  0  0  0
   35.9070   28.3580   40.7980 O   0  0  0  0  0  0  0  0  0  0  0  0
   36.8310   27.9160   41.7320 C   0  0  0  0  0  0  0  0  0  0  0  0
   36.5670   28.0770   43.0700 C   0  0  0  0  0  0  0  0  0  0  0  0
   37.4420   27.6610   44.0730 C   0  0  0  0  0  0  0  0  0  0  0  0
   38.5940   27.0760   43.7140 N   0  0  0  0  0  0  0  0  0  0  0  0
   38.8600   26.9140   42.4060 C   0  0  0  0  0  0  0  0  0  0  0  0
   38.0100   27.3190   41.4440 N   0  0  0  0  0  0  0  0  0  0  0  0
   35.6570   28.5410   43.4300 H   0  0  0  0  0  0  0  0  0  0  0  0
   37.2280   27.7910   45.1160 H   0  0  0  0  0  0  0  0  0  0  0  0
   40.0880   26.2910   42.0460 N   0  0  0  0  0  0  0  0  0  0  0  0
   41.0380   25.9500   42.9360 C   0  0  0  0  0  0  0  0  0  0  0  0
   40.9910   26.1010   44.0050 H   0  0  0  0  0  0  0  0  0  0  0  0
   42.0880   25.3750   42.2830 N   0  0  0  0  0  0  0  0  0  0  0  0
   41.7720   25.3660   40.9710 C   0  0  0  0  0  0  0  0  0  0  0  0
   42.3560   24.9490   39.7920 C   0  0  0  0  0  0  0  0  0  0  0  0
   41.7500   25.0910   38.5960 N   0  0  0  0  0  0  0  0  0  0  0  0
   40.5330   25.6530   38.4930 C   0  0  0  0  0  0  0  0  0  0  0  0
   39.9520   25.8200   37.6000 H   0  0  0  0  0  0  0  0  0  0  0  0
   39.9500   26.0630   39.6120 N   0  0  0  0  0  0  0  0  0  0  0  0
   40.5250   25.9360   40.8170 C   0  0  0  0  0  0  0  0  0  0  0  0
   43.6470   24.3480   39.8590 N   0  0  0  0  0  0  0  0  0  0  0  0
   44.3900   25.0680   40.0560 H   0  0  0  0  0  0  0  0  0  0  0  0
   44.1960   23.4620   39.7950 H   0  0  0  0  0  0  0  0  0  0  0  0
  1 22  1  0  0  0  0
  2 10  1  0  0  0  0
  2  1  2  0  0  0  0
  3  2  1  0  0  0  0
  4  3  2  0  0  0  0
  4  5  1  0  0  0  0
  5  6  2  0  0  0  0
  6  1  1  0  0  0  0
  6 24  1  0  0  0  0
  7  3  1  0  0  0  0
  8  4  1  0  0  0  0
  9  5  1  0  0  0  0
 10 13  1  0  0  0  0
 10 12  1  0  0  0  0
 11 10  1  0  0  0  0
 13 14  2  0  0  0  0
 13 18  1  0  0  0  0
 14 15  1  0  0  0  0
 15 20  1  0  0  0  0
 15 16  2  0  0  0  0
 17 16  1  0  0  0  0
 17 21  1  0  0  0  0
 18 17  2  0  0  0  0
 19 14  1  0  0  0  0
 23 22  1  0  0  0  0
 24 25  1  0  0  0  0
 25 26  1  0  0  0  0
 26 31  1  0  0  0  0
 26 27  2  0  0  0  0
 27 32  1  0  0  0  0
 28 27  1  0  0  0  0
 29 28  2  0  0  0  0
 30 25  2  0  0  0  0
 30 29  1  0  0  0  0
 33 29  1  0  0  0  0
 33 34  1  0  0  0  0
 34 35  1  0  0  0  0
 36 34  2  0  0  0  0
 37 36  1  0  0  0  0
 38 44  1  0  0  0  0
 38 37  2  0  0  0  0
 39 38  1  0  0  0  0
 40 39  2  0  0  0  0
 40 42  1  0  0  0  0
 41 40  1  0  0  0  0
 42 43  2  0  0  0  0
 43 37  1  0  0  0  0
 43 33  1  0  0  0  0
 44 45  1  0  0  0  0
 46 44  1  0  0  0  0
M  END
>  <minimizedAffinity>
-6.98855352

$$$$

 OpenBabel03242512233D

 46 50  0  0  0  0  0  0  0  0999 V2000
   36.7790   28.9270   41.5360 C   0  0  0  0  0  0  0  0  0  0  0  0
   36.9000   27.5620   41.5030 C   0  0  0  0  0  0  0  0  0  0  0  0
   36.8050   26.9140   40.3060 C   0  0  0  0  0  0  0  0  0  0  0  0
   36.5860   27.6400   39.1370 C   0  0  0  0  0  0  0  0  0  0  0  0
   36.4680   29.0090   39.2060 C   0  0  0  0  0  0  0  0  0  0  0  0
   36.5650   29.6820   40.4320 C   0  0  0  0  0  0  0  0  0  0  0  0
   36.9010   25.8350   40.2790 H   0  0  0  0  0  0  0  0  0  0  0  0
   36.5100   27.1230   38.1860 H   0  0  0  0  0  0  0  0  0  0  0  0
   36.2980   29.5520   38.2810 H   0  0  0  0  0  0  0  0  0  0  0  0
   37.1280   26.8730   42.7760 C   0  0  0  0  0  0  0  0  0  0  0  0
   36.7650   27.4760   43.6300 H   0  0  0  0  0  0  0  0  0  0  0  0
   36.6610   25.9010   42.8390 H   0  0  0  0  0  0  0  0  0  0  0  0
   38.6080   26.6090   42.9810 C   0  0  0  0  0  0  0  0  0  0  0  0
   39.0720   25.3160   42.7490 C   0  0  0  0  0  0  0  0  0  0  0  0
   40.4230   25.1060   42.9420 C   0  0  0  0  0  0  0  0  0  0  0  0
   41.1980   26.1340   43.3330 N   0  0  0  0  0  0  0  0  0  0  0  0
   40.7100   27.3820   43.5510 C   0  0  0  0  0  0  0  0  0  0  0  0
   39.4170   27.6010   43.3700 N   0  0  0  0  0  0  0  0  0  0  0  0
   38.4230   24.5090   42.4340 H   0  0  0  0  0  0  0  0  0  0  0  0
   40.8340   24.1100   42.7730 H   0  0  0  0  0  0  0  0  0  0  0  0
   41.3800   28.1700   43.8650 H   0  0  0  0  0  0  0  0  0  0  0  0
   36.8620   29.6810   42.7160 O   0  0  0  0  0  0  0  0  0  0  0  0
   37.7440   29.5690   43.2150 H   0  0  0  0  0  0  0  0  0  0  0  0
   36.4310   31.0720   40.3810 O   0  0  0  0  0  0  0  0  0  0  0  0
   37.5720   31.7500   39.9820 C   0  0  0  0  0  0  0  0  0  0  0  0
   37.7470   33.0570   40.3630 C   0  0  0  0  0  0  0  0  0  0  0  0
   38.8650   33.8100   40.0050 C   0  0  0  0  0  0  0  0  0  0  0  0
   39.8120   33.2300   39.2530 N   0  0  0  0  0  0  0  0  0  0  0  0
   39.6480   31.9510   38.8760 C   0  0  0  0  0  0  0  0  0  0  0  0
   38.5660   31.2300   39.2260 N   0  0  0  0  0  0  0  0  0  0  0  0
   37.0230   33.5870   40.9700 H   0  0  0  0  0  0  0  0  0  0  0  0
   38.9930   34.8310   40.3080 H   0  0  0  0  0  0  0  0  0  0  0  0
   40.6650   31.3540   38.0790 N   0  0  0  0  0  0  0  0  0  0  0  0
   41.7260   32.0280   37.5990 C   0  0  0  0  0  0  0  0  0  0  0  0
   41.9360   33.0770   37.7540 H   0  0  0  0  0  0  0  0  0  0  0  0
   42.5150   31.1810   36.8770 N   0  0  0  0  0  0  0  0  0  0  0  0
   41.9220   29.9690   36.9170 C   0  0  0  0  0  0  0  0  0  0  0  0
   42.1690   28.7070   36.4190 C   0  0  0  0  0  0  0  0  0  0  0  0
   41.3440   27.6650   36.6510 N   0  0  0  0  0  0  0  0  0  0  0  0
   40.2280   27.8090   37.3870 C   0  0  0  0  0  0  0  0  0  0  0  0
   39.4970   27.0580   37.6390 H   0  0  0  0  0  0  0  0  0  0  0  0
   39.9680   29.0150   37.8770 N   0  0  0  0  0  0  0  0  0  0  0  0
   40.7680   30.0710   37.6650 C   0  0  0  0  0  0  0  0  0  0  0  0
   43.3420   28.5120   35.6330 N   0  0  0  0  0  0  0  0  0  0  0  0
   43.2350   28.9440   34.6790 H   0  0  0  0  0  0  0  0  0  0  0  0
   44.3040   28.1070   35.5950 H   0  0  0  0  0  0  0  0  0  0  0  0
  1 22  1  0  0  0  0
  2  1  1  0  0  0  0
  2 10  1  0  0  0  0
  3  2  2  0  0  0  0
  4  5  2  0  0  0  0
  4  3  1  0  0  0  0
  5  6  1  0  0  0  0
  6  1  2  0  0  0  0
  7  3  1  0  0  0  0
  8  4  1  0  0  0  0
  9  5  1  0  0  0  0
 10 12  1  0  0  0  0
 10 13  1  0  0  0  0
 10 11  1  0  0  0  0
 13 18  1  0  0  0  0
 14 15  1  0  0  0  0
 14 13  2  0  0  0  0
 15 16  2  0  0  0  0
 16 17  1  0  0  0  0
 17 21  1  0  0  0  0
 18 17  2  0  0  0  0
 19 14  1  0  0  0  0
 20 15  1  0  0  0  0
 22 23  1  0  0  0  0
 24  6  1  0  0  0  0
 25 26  1  0  0  0  0
 25 24  1  0  0  0  0
 26 31  1  0  0  0  0
 27 32  1  0  0  0  0
 27 26  2  0  0  0  0
 28 27  1  0  0  0  0
 29 30  1  0  0  0  0
 29 28  2  0  0  0  0
 30 25  2  0  0  0  0
 33 29  1  0  0  0  0
 34 35  1  0  0  0  0
 34 33  1  0  0  0  0
 36 37  1  0  0  0  0
 36 34  2  0  0  0  0
 37 43  1  0  0  0  0
 38 39  1  0  0  0  0
 38 37  2  0  0  0  0
 39 40  2  0  0  0  0
 40 41  1  0  0  0  0
 40 42  1  0  0  0  0
 43 42  2  0  0  0  0
 43 33  1  0  0  0  0
 44 38  1  0  0  0  0
 45 44  1  0  0  0  0
 46 44  1  0  0  0  0
M  END
>  <minimizedAffinity>
-6.91592455

$$$$

 OpenBabel03242512233D

 46 50  0  0  0  0  0  0  0  0999 V2000
   39.1720   33.3320   40.2620 C   0  0  0  0  0  0  0  0  0  0  0  0
   40.3210   33.5680   39.5520 C   0  0  0  0  0  0  0  0  0  0  0  0
   40.5710   32.8370   38.4270 C   0  0  0  0  0  0  0  0  0  0  0  0
   39.6630   31.8650   38.0140 C   0  0  0  0  0  0  0  0  0  0  0  0
   38.5200   31.6530   38.7490 C   0  0  0  0  0  0  0  0  0  0  0  0
   38.2560   32.4000   39.9060 C   0  0  0  0  0  0  0  0  0  0  0  0
   41.4790   33.0240   37.8660 H   0  0  0  0  0  0  0  0  0  0  0  0
   39.8640   31.2840   37.1190 H   0  0  0  0  0  0  0  0  0  0  0  0
   37.8280   30.8880   38.4060 H   0  0  0  0  0  0  0  0  0  0  0  0
   41.2230   34.6080   40.0540 C   0  0  0  0  0  0  0  0  0  0  0  0
   41.4070   35.3860   39.2890 H   0  0  0  0  0  0  0  0  0  0  0  0
   40.8670   35.1040   40.9460 H   0  0  0  0  0  0  0  0  0  0  0  0
   42.5600   34.0090   40.4480 C   0  0  0  0  0  0  0  0  0  0  0  0
   42.6400   33.3550   41.6750 C   0  0  0  0  0  0  0  0  0  0  0  0
   43.8680   32.8190   42.0050 C   0  0  0  0  0  0  0  0  0  0  0  0
   44.8950   32.9540   41.1470 N   0  0  0  0  0  0  0  0  0  0  0  0
   44.7810   33.5990   39.9580 C   0  0  0  0  0  0  0  0  0  0  0  0
   43.6100   34.1190   39.6250 N   0  0  0  0  0  0  0  0  0  0  0  0
   41.7950   33.2630   42.3450 H   0  0  0  0  0  0  0  0  0  0  0  0
   43.9810   32.2980   42.9560 H   0  0  0  0  0  0  0  0  0  0  0  0
   45.6410   33.6770   39.3080 H   0  0  0  0  0  0  0  0  0  0  0  0
   38.8280   34.0310   41.4280 O   0  0  0  0  0  0  0  0  0  0  0  0
   38.7510   35.0380   41.2980 H   0  0  0  0  0  0  0  0  0  0  0  0
   37.0650   32.0990   40.5720 O   0  0  0  0  0  0  0  0  0  0  0  0
   36.9140   30.7630   40.9120 C   0  0  0  0  0  0  0  0  0  0  0  0
   35.7350   30.1230   40.6160 C   0  0  0  0  0  0  0  0  0  0  0  0
   35.5020   28.7830   40.9230 C   0  0  0  0  0  0  0  0  0  0  0  0
   36.4720   28.0880   41.5340 N   0  0  0  0  0  0  0  0  0  0  0  0
   37.6280   28.7080   41.8260 C   0  0  0  0  0  0  0  0  0  0  0  0
   37.8470   30.0020   41.5270 N   0  0  0  0  0  0  0  0  0  0  0  0
   34.9100   30.6230   40.1240 H   0  0  0  0  0  0  0  0  0  0  0  0
   34.5780   28.2900   40.6890 H   0  0  0  0  0  0  0  0  0  0  0  0
   38.6460   27.9530   42.4750 N   0  0  0  0  0  0  0  0  0  0  0  0
   38.4760   26.6880   42.9010 C   0  0  0  0  0  0  0  0  0  0  0  0
   37.5730   26.1010   42.8080 H   0  0  0  0  0  0  0  0  0  0  0  0
   39.6300   26.2430   43.4780 N   0  0  0  0  0  0  0  0  0  0  0  0
   40.5180   27.2570   43.4020 C   0  0  0  0  0  0  0  0  0  0  0  0
   41.8260   27.4850   43.7770 C   0  0  0  0  0  0  0  0  0  0  0  0
   42.4490   28.6580   43.5450 N   0  0  0  0  0  0  0  0  0  0  0  0
   41.8170   29.6750   42.9320 C   0  0  0  0  0  0  0  0  0  0  0  0
   42.2070   30.6510   42.6940 H   0  0  0  0  0  0  0  0  0  0  0  0
   40.5580   29.4800   42.5630 N   0  0  0  0  0  0  0  0  0  0  0  0
   39.9100   28.3250   42.7780 C   0  0  0  0  0  0  0  0  0  0  0  0
   42.5310   26.4310   44.4300 N   0  0  0  0  0  0  0  0  0  0  0  0
   42.1940   26.3080   45.4190 H   0  0  0  0  0  0  0  0  0  0  0  0
   43.2690   25.6980   44.3440 H   0  0  0  0  0  0  0  0  0  0  0  0
  1 22  1  0  0  0  0
  2 10  1  0  0  0  0
  2  1  2  0  0  0  0
  3  2  1  0  0  0  0
  4  3  2  0  0  0  0
  4  5  1  0  0  0  0
  5  6  2  0  0  0  0
  6  1  1  0  0  0  0
  6 24  1  0  0  0  0
  7  3  1  0  0  0  0
  8  4  1  0  0  0  0
  9  5  1  0  0  0  0
 10 13  1  0  0  0  0
 10 12  1  0  0  0  0
 11 10  1  0  0  0  0
 13 14  1  0  0  0  0
 14 15  2  0  0  0  0
 14 19  1  0  0  0  0
 15 20  1  0  0  0  0
 16 15  1  0  0  0  0
 17 16  2  0  0  0  0
 18 17  1  0  0  0  0
 18 13  2  0  0  0  0
 21 17  1  0  0  0  0
 23 22  1  0  0  0  0
 24 25  1  0  0  0  0
 25 30  1  0  0  0  0
 26 25  2  0  0  0  0
 26 27  1  0  0  0  0
 27 28  2  0  0  0  0
 28 29  1  0  0  0  0
 29 33  1  0  0  0  0
 30 29  2  0  0  0  0
 31 26  1  0  0  0  0
 32 27  1  0  0  0  0
 33 43  1  0  0  0  0
 33 34  1  0  0  0  0
 34 36  2  0  0  0  0
 35 34  1  0  0  0  0
 37 36  1  0  0  0  0
 37 38  1  0  0  0  0
 38 44  1  0  0  0  0
 39 38  2  0  0  0  0
 40 39  1  0  0  0  0
 41 40  1  0  0  0  0
 42 43  1  0  0  0  0
 42 40  2  0  0  0  0
 43 37  2  0  0  0  0
 44 45  1  0  0  0  0
 46 44  1  0  0  0  0
M  END
>  <minimizedAffinity>
-6.84886026

$$$$

 OpenBabel03242512233D

 46 50  0  0  0  0  0  0  0  0999 V2000
   38.3030   29.6130   42.0210 C   0  0  0  0  0  0  0  0  0  0  0  0
   36.9800   29.4500   41.7010 C   0  0  0  0  0  0  0  0  0  0  0  0
   36.3670   28.2660   41.9870 C   0  0  0  0  0  0  0  0  0  0  0  0
   37.0850   27.2400   42.5960 C   0  0  0  0  0  0  0  0  0  0  0  0
   38.4120   27.4360   42.9030 C   0  0  0  0  0  0  0  0  0  0  0  0
   39.0490   28.6510   42.6140 C   0  0  0  0  0  0  0  0  0  0  0  0
   35.3210   28.1360   41.7340 H   0  0  0  0  0  0  0  0  0  0  0  0
   36.5960   26.2980   42.8220 H   0  0  0  0  0  0  0  0  0  0  0  0
   38.9510   26.6200   43.3780 H   0  0  0  0  0  0  0  0  0  0  0  0
   36.2960   30.5780   41.0620 C   0  0  0  0  0  0  0  0  0  0  0  0
   35.1970   30.4870   41.1520 H   0  0  0  0  0  0  0  0  0  0  0  0
   36.5780   31.5430   41.4580 H   0  0  0  0  0  0  0  0  0  0  0  0
   36.6430   30.6450   39.5870 C   0  0  0  0  0  0  0  0  0  0  0  0
   36.0350   29.7240   38.7370 C   0  0  0  0  0  0  0  0  0  0  0  0
   36.3690   29.8100   37.4000 C   0  0  0  0  0  0  0  0  0  0  0  0
   37.2410   30.7530   37.0010 N   0  0  0  0  0  0  0  0  0  0  0  0
   37.8150   31.6350   37.8580 C   0  0  0  0  0  0  0  0  0  0  0  0
   37.5060   31.5670   39.1440 N   0  0  0  0  0  0  0  0  0  0  0  0
   35.3370   28.9760   39.0890 H   0  0  0  0  0  0  0  0  0  0  0  0
   35.9190   29.1100   36.6960 H   0  0  0  0  0  0  0  0  0  0  0  0
   38.5100   32.3730   37.4800 H   0  0  0  0  0  0  0  0  0  0  0  0
   39.0190   30.7930   41.7680 O   0  0  0  0  0  0  0  0  0  0  0  0
   38.6250   31.6190   42.2170 H   0  0  0  0  0  0  0  0  0  0  0  0
   40.3970   28.7370   42.9710 O   0  0  0  0  0  0  0  0  0  0  0  0
   41.2850   28.6200   41.9120 C   0  0  0  0  0  0  0  0  0  0  0  0
   41.9470   27.4330   41.7170 C   0  0  0  0  0  0  0  0  0  0  0  0
   42.8550   27.2310   40.6780 C   0  0  0  0  0  0  0  0  0  0  0  0
   43.0920   28.2430   39.8310 N   0  0  0  0  0  0  0  0  0  0  0  0
   42.4470   29.4080   40.0150 C   0  0  0  0  0  0  0  0  0  0  0  0
   41.5720   29.5950   41.0200 N   0  0  0  0  0  0  0  0  0  0  0  0
   41.8040   26.5750   42.3630 H   0  0  0  0  0  0  0  0  0  0  0  0
   43.3680   26.3000   40.5330 H   0  0  0  0  0  0  0  0  0  0  0  0
   42.7120   30.4690   39.1040 N   0  0  0  0  0  0  0  0  0  0  0  0
   43.6450   30.4040   38.1360 C   0  0  0  0  0  0  0  0  0  0  0  0
   44.2910   29.5630   37.9320 H   0  0  0  0  0  0  0  0  0  0  0  0
   43.6560   31.5740   37.4350 N   0  0  0  0  0  0  0  0  0  0  0  0
   42.7140   32.3670   37.9880 C   0  0  0  0  0  0  0  0  0  0  0  0
   42.2140   33.6360   37.7820 C   0  0  0  0  0  0  0  0  0  0  0  0
   41.2280   34.1550   38.5420 N   0  0  0  0  0  0  0  0  0  0  0  0
   40.6780   33.4520   39.5480 C   0  0  0  0  0  0  0  0  0  0  0  0
   39.8920   33.7580   40.2190 H   0  0  0  0  0  0  0  0  0  0  0  0
   41.1430   32.2290   39.7660 N   0  0  0  0  0  0  0  0  0  0  0  0
   42.1220   31.6830   39.0290 C   0  0  0  0  0  0  0  0  0  0  0  0
   42.7700   34.4140   36.7240 N   0  0  0  0  0  0  0  0  0  0  0  0
   43.7330   34.7570   36.9740 H   0  0  0  0  0  0  0  0  0  0  0  0
   42.6250   34.8070   35.7680 H   0  0  0  0  0  0  0  0  0  0  0  0
  1  6  1  0  0  0  0
  2  3  1  0  0  0  0
  2  1  2  0  0  0  0
  3  4  2  0  0  0  0
  4  8  1  0  0  0  0
  4  5  1  0  0  0  0
  5  9  1  0  0  0  0
  6  5  2  0  0  0  0
  6 24  1  0  0  0  0
  7  3  1  0  0  0  0
 10 11  1  0  0  0  0
 10 12  1  0  0  0  0
 10  2  1  0  0  0  0
 13 10  1  0  0  0  0
 14 19  1  0  0  0  0
 14 13  2  0  0  0  0
 15 14  1  0  0  0  0
 16 15  2  0  0  0  0
 16 17  1  0  0  0  0
 17 18  2  0  0  0  0
 18 13  1  0  0  0  0
 20 15  1  0  0  0  0
 21 17  1  0  0  0  0
 22  1  1  0  0  0  0
 22 23  1  0  0  0  0
 25 24  1  0  0  0  0
 26 25  1  0  0  0  0
 26 31  1  0  0  0  0
 27 26  2  0  0  0  0
 28 29  2  0  0  0  0
 28 27  1  0  0  0  0
 29 30  1  0  0  0  0
 30 25  2  0  0  0  0
 32 27  1  0  0  0  0
 33 29  1  0  0  0  0
 34 33  1  0  0  0  0
 35 34  1  0  0  0  0
 36 37  1  0  0  0  0
 36 34  2  0  0  0  0
 37 43  1  0  0  0  0
 38 37  2  0  0  0  0
 38 39  1  0  0  0  0
 39 40  2  0  0  0  0
 40 42  1  0  0  0  0
 40 41  1  0  0  0  0
 43 33  1  0  0  0  0
 43 42  2  0  0  0  0
 44 45  1  0  0  0  0
 44 38  1  0  0  0  0
 46 44  1  0  0  0  0
M  END
>  <minimizedAffinity>
-6.76870728

$$$$

 OpenBabel03242512233D

 46 50  0  0  0  0  0  0  0  0999 V2000
   36.5330   31.2450   39.6440 C   0  0  0  0  0  0  0  0  0  0  0  0
   37.3690   32.2330   39.1920 C   0  0  0  0  0  0  0  0  0  0  0  0
   37.8740   32.1500   37.9270 C   0  0  0  0  0  0  0  0  0  0  0  0
   37.5370   31.0710   37.1130 C   0  0  0  0  0  0  0  0  0  0  0  0
   36.6960   30.0970   37.5980 C   0  0  0  0  0  0  0  0  0  0  0  0
   36.1730   30.1750   38.8970 C   0  0  0  0  0  0  0  0  0  0  0  0
   38.5340   32.9310   37.5680 H   0  0  0  0  0  0  0  0  0  0  0  0
   37.9400   31.0070   36.1070 H   0  0  0  0  0  0  0  0  0  0  0  0
   36.4490   29.2650   36.9440 H   0  0  0  0  0  0  0  0  0  0  0  0
   37.6730   33.3330   40.1100 C   0  0  0  0  0  0  0  0  0  0  0  0
   37.3330   34.3040   39.7030 H   0  0  0  0  0  0  0  0  0  0  0  0
   37.2360   33.2190   41.0920 H   0  0  0  0  0  0  0  0  0  0  0  0
   39.1670   33.4240   40.3570 C   0  0  0  0  0  0  0  0  0  0  0  0
   39.7940   34.6390   40.0900 C   0  0  0  0  0  0  0  0  0  0  0  0
   41.1530   34.6930   40.3250 C   0  0  0  0  0  0  0  0  0  0  0  0
   41.7830   33.5970   40.7870 N   0  0  0  0  0  0  0  0  0  0  0  0
   41.1390   32.4280   41.0360 C   0  0  0  0  0  0  0  0  0  0  0  0
   39.8350   32.3600   40.8160 N   0  0  0  0  0  0  0  0  0  0  0  0
   39.2600   35.5040   39.7180 H   0  0  0  0  0  0  0  0  0  0  0  0
   41.6890   35.6220   40.1310 H   0  0  0  0  0  0  0  0  0  0  0  0
   41.6970   31.5800   41.4070 H   0  0  0  0  0  0  0  0  0  0  0  0
   35.9650   31.2420   40.9270 O   0  0  0  0  0  0  0  0  0  0  0  0
   35.3950   32.0620   41.1280 H   0  0  0  0  0  0  0  0  0  0  0  0
   35.3300   29.1300   39.2830 O   0  0  0  0  0  0  0  0  0  0  0  0
   35.9250   27.8780   39.2900 C   0  0  0  0  0  0  0  0  0  0  0  0
   35.4450   26.8990   38.4550 C   0  0  0  0  0  0  0  0  0  0  0  0
   35.9860   25.6150   38.4000 C   0  0  0  0  0  0  0  0  0  0  0  0
   37.0230   25.3230   39.1990 N   0  0  0  0  0  0  0  0  0  0  0  0
   37.4990   26.2760   40.0190 C   0  0  0  0  0  0  0  0  0  0  0  0
   36.9710   27.5140   40.0660 N   0  0  0  0  0  0  0  0  0  0  0  0
   34.6110   27.0650   37.7840 H   0  0  0  0  0  0  0  0  0  0  0  0
   35.6050   24.8560   37.7450 H   0  0  0  0  0  0  0  0  0  0  0  0
   38.6000   25.9470   40.8580 N   0  0  0  0  0  0  0  0  0  0  0  0
   39.1220   24.7100   40.9500 C   0  0  0  0  0  0  0  0  0  0  0  0
   38.7820   23.8350   40.4140 H   0  0  0  0  0  0  0  0  0  0  0  0
   40.1610   24.7180   41.8330 N   0  0  0  0  0  0  0  0  0  0  0  0
   40.2740   25.9840   42.2880 C   0  0  0  0  0  0  0  0  0  0  0  0
   41.0810   26.6730   43.1690 C   0  0  0  0  0  0  0  0  0  0  0  0
   40.9260   27.9910   43.4110 N   0  0  0  0  0  0  0  0  0  0  0  0
   39.9650   28.7040   42.7980 C   0  0  0  0  0  0  0  0  0  0  0  0
   39.7450   29.7540   42.9090 H   0  0  0  0  0  0  0  0  0  0  0  0
   39.1750   28.0640   41.9460 N   0  0  0  0  0  0  0  0  0  0  0  0
   39.3030   26.7540   41.6840 C   0  0  0  0  0  0  0  0  0  0  0  0
   42.1130   25.9520   43.8390 N   0  0  0  0  0  0  0  0  0  0  0  0
   41.7130   25.3260   44.5850 H   0  0  0  0  0  0  0  0  0  0  0  0
   43.1390   25.7710   43.9110 H   0  0  0  0  0  0  0  0  0  0  0  0
  1 22  1  0  0  0  0
  2  1  1  0  0  0  0
  2 10  1  0  0  0  0
  3  2  2  0  0  0  0
  4  5  2  0  0  0  0
  4  3  1  0  0  0  0
  5  6  1  0  0  0  0
  6 24  1  0  0  0  0
  6  1  2  0  0  0  0
  7  3  1  0  0  0  0
  8  4  1  0  0  0  0
  9  5  1  0  0  0  0
 10 13  1  0  0  0  0
 10 12  1  0  0  0  0
 11 10  1  0  0  0  0
 13 18  1  0  0  0  0
 14 15  1  0  0  0  0
 14 13  2  0  0  0  0
 15 16  2  0  0  0  0
 16 17  1  0  0  0  0
 17 21  1  0  0  0  0
 18 17  2  0  0  0  0
 19 14  1  0  0  0  0
 20 15  1  0  0  0  0
 22 23  1  0  0  0  0
 24 25  1  0  0  0  0
 25 30  1  0  0  0  0
 26 25  2  0  0  0  0
 27 26  1  0  0  0  0
 27 28  2  0  0  0  0
 28 29  1  0  0  0  0
 29 30  2  0  0  0  0
 29 33  1  0  0  0  0
 31 26  1  0  0  0  0
 32 27  1  0  0  0  0
 33 34  1  0  0  0  0
 33 43  1  0  0  0  0
 34 36  2  0  0  0  0
 35 34  1  0  0  0  0
 36 37  1  0  0  0  0
 37 38  1  0  0  0  0
 38 39  2  0  0  0  0
 38 44  1  0  0  0  0
 40 41  1  0  0  0  0
 40 39  1  0  0  0  0
 42 40  2  0  0  0  0
 43 42  1  0  0  0  0
 43 37  2  0  0  0  0
 44 46  1  0  0  0  0
 44 45  1  0  0  0  0
M  END
>  <minimizedAffinity>
-6.68669224

$$$$

 OpenBabel03242512233D

 46 50  0  0  0  0  0  0  0  0999 V2000
   38.5940   26.8620   41.7990 C   0  0  0  0  0  0  0  0  0  0  0  0
   37.2510   26.9590   41.5370 C   0  0  0  0  0  0  0  0  0  0  0  0
   36.4160   27.4310   42.5080 C   0  0  0  0  0  0  0  0  0  0  0  0
   36.9310   27.8060   43.7460 C   0  0  0  0  0  0  0  0  0  0  0  0
   38.2830   27.6960   43.9760 C   0  0  0  0  0  0  0  0  0  0  0  0
   39.1480   27.2120   42.9840 C   0  0  0  0  0  0  0  0  0  0  0  0
   35.3550   27.5080   42.3010 H   0  0  0  0  0  0  0  0  0  0  0  0
   36.2660   28.1800   44.5170 H   0  0  0  0  0  0  0  0  0  0  0  0
   38.6600   27.9940   44.9510 H   0  0  0  0  0  0  0  0  0  0  0  0
   36.7910   26.5440   40.2100 C   0  0  0  0  0  0  0  0  0  0  0  0
   37.4500   25.7650   39.7800 H   0  0  0  0  0  0  0  0  0  0  0  0
   35.7800   26.1610   40.1960 H   0  0  0  0  0  0  0  0  0  0  0  0
   36.7750   27.7240   39.2580 C   0  0  0  0  0  0  0  0  0  0  0  0
   35.5570   28.3650   39.0420 C   0  0  0  0  0  0  0  0  0  0  0  0
   35.5730   29.4370   38.1730 C   0  0  0  0  0  0  0  0  0  0  0  0
   36.7340   29.7950   37.5940 N   0  0  0  0  0  0  0  0  0  0  0  0
   37.9030   29.1470   37.8270 C   0  0  0  0  0  0  0  0  0  0  0  0
   37.9060   28.1170   38.6600 N   0  0  0  0  0  0  0  0  0  0  0  0
   34.6390   28.0530   39.5230 H   0  0  0  0  0  0  0  0  0  0  0  0
   34.6440   29.9710   37.9710 H   0  0  0  0  0  0  0  0  0  0  0  0
   38.8060   29.4790   37.3340 H   0  0  0  0  0  0  0  0  0  0  0  0
   39.5300   26.3910   40.8670 O   0  0  0  0  0  0  0  0  0  0  0  0
   39.5570   26.9280   40.0010 H   0  0  0  0  0  0  0  0  0  0  0  0
   40.5000   27.1440   43.3290 O   0  0  0  0  0  0  0  0  0  0  0  0
   41.2530   28.2400   42.9390 C   0  0  0  0  0  0  0  0  0  0  0  0
   42.6150   28.2190   43.1150 C   0  0  0  0  0  0  0  0  0  0  0  0
   43.4440   29.2790   42.7510 C   0  0  0  0  0  0  0  0  0  0  0  0
   42.8860   30.3690   42.2040 N   0  0  0  0  0  0  0  0  0  0  0  0
   41.5540   30.3970   42.0280 C   0  0  0  0  0  0  0  0  0  0  0  0
   40.7600   29.3700   42.3830 N   0  0  0  0  0  0  0  0  0  0  0  0
   43.1310   27.3730   43.5500 H   0  0  0  0  0  0  0  0  0  0  0  0
   44.5080   29.2540   42.8910 H   0  0  0  0  0  0  0  0  0  0  0  0
   40.9820   31.5630   41.4450 N   0  0  0  0  0  0  0  0  0  0  0  0
   41.6850   32.6730   41.1570 C   0  0  0  0  0  0  0  0  0  0  0  0
   42.7430   32.8170   41.3260 H   0  0  0  0  0  0  0  0  0  0  0  0
   40.8560   33.6090   40.6110 N   0  0  0  0  0  0  0  0  0  0  0  0
   39.6250   33.0580   40.5670 C   0  0  0  0  0  0  0  0  0  0  0  0
   38.3640   33.4330   40.1510 C   0  0  0  0  0  0  0  0  0  0  0  0
   37.2980   32.6130   40.2480 N   0  0  0  0  0  0  0  0  0  0  0  0
   37.4140   31.3750   40.7610 C   0  0  0  0  0  0  0  0  0  0  0  0
   36.6410   30.6350   40.8890 H   0  0  0  0  0  0  0  0  0  0  0  0
   38.6170   30.9910   41.1690 N   0  0  0  0  0  0  0  0  0  0  0  0
   39.6970   31.7820   41.0860 C   0  0  0  0  0  0  0  0  0  0  0  0
   38.1990   34.7380   39.6000 N   0  0  0  0  0  0  0  0  0  0  0  0
   38.2480   35.4740   40.3520 H   0  0  0  0  0  0  0  0  0  0  0  0
   38.0440   35.3020   38.7350 H   0  0  0  0  0  0  0  0  0  0  0  0
  1  6  1  0  0  0  0
  2  1  2  0  0  0  0
  2  3  1  0  0  0  0
  3  4  2  0  0  0  0
  4  5  1  0  0  0  0
  4  8  1  0  0  0  0
  5  9  1  0  0  0  0
  6 24  1  0  0  0  0
  6  5  2  0  0  0  0
  7  3  1  0  0  0  0
 10  2  1  0  0  0  0
 11 10  1  0  0  0  0
 12 10  1  0  0  0  0
 13 10  1  0  0  0  0
 14 13  1  0  0  0  0
 14 19  1  0  0  0  0
 15 14  2  0  0  0  0
 16 17  2  0  0  0  0
 16 15  1  0  0  0  0
 17 18  1  0  0  0  0
 18 13  2  0  0  0  0
 20 15  1  0  0  0  0
 21 17  1  0  0  0  0
 22  1  1  0  0  0  0
 23 22  1  0  0  0  0
 25 26  1  0  0  0  0
 25 24  1  0  0  0  0
 26 31  1  0  0  0  0
 27 32  1  0  0  0  0
 27 26  2  0  0  0  0
 28 27  1  0  0  0  0
 29 28  2  0  0  0  0
 29 30  1  0  0  0  0
 30 25  2  0  0  0  0
 33 29  1  0  0  0  0
 34 35  1  0  0  0  0
 34 33  1  0  0  0  0
 36 34  2  0  0  0  0
 37 36  1  0  0  0  0
 37 43  1  0  0  0  0
 38 39  1  0  0  0  0
 38 37  2  0  0  0  0
 39 40  2  0  0  0  0
 40 41  1  0  0  0  0
 40 42  1  0  0  0  0
 43 42  2  0  0  0  0
 43 33  1  0  0  0  0
 44 38  1  0  0  0  0
 44 45  1  0  0  0  0
 46 44  1  0  0  0  0
M  END
>  <minimizedAffinity>
-6.6704464

$$$$
