
 OpenBabel03252509033D

 53 56  0  0  1  0  0  0  0  0999 V2000
   47.1470   34.1720   43.0770 N   0  0  0  0  0  0  0  0  0  0  0  0
   46.6290   35.2530   42.3200 C   0  0  0  0  0  0  0  0  0  0  0  0
   45.1330   35.4160   42.4150 C   0  0  0  0  0  0  0  0  0  0  0  0
   44.5540   35.0580   43.7710 C   0  0  0  0  0  0  0  0  0  0  0  0
   45.6550   34.7140   44.7600 C   0  0  0  0  0  0  0  0  0  0  0  0
   46.4130   33.5250   44.0400 C   0  0  2  0  0  0  0  0  0  0  0  0
   47.1120   36.1850   42.7380 H   0  0  0  0  0  0  0  0  0  0  0  0
   46.8820   35.2520   41.2510 H   0  0  0  0  0  0  0  0  0  0  0  0
   44.9120   36.5080   42.2630 H   0  0  0  0  0  0  0  0  0  0  0  0
   44.6170   34.9040   41.5790 H   0  0  0  0  0  0  0  0  0  0  0  0
   43.9530   34.1340   43.6190 H   0  0  0  0  0  0  0  0  0  0  0  0
   43.8750   35.8390   44.1600 H   0  0  0  0  0  0  0  0  0  0  0  0
   46.3490   35.5490   44.8630 H   0  0  0  0  0  0  0  0  0  0  0  0
   45.2030   34.3360   45.6780 H   0  0  0  0  0  0  0  0  0  0  0  0
   45.6330   32.8100   43.7100 H   0  0  0  0  0  0  0  0  0  0  0  0
   48.2280   33.4630   42.4360 C   0  0  0  0  0  0  0  0  0  0  0  0
   48.8520   33.0270   43.2630 H   0  0  0  0  0  0  0  0  0  0  0  0
   48.8610   34.2200   41.9270 H   0  0  0  0  0  0  0  0  0  0  0  0
   47.6400   32.4330   41.5430 C   0  0  0  0  0  0  0  0  0  0  0  0
   47.7870   31.4270   41.9600 H   0  0  0  0  0  0  0  0  0  0  0  0
   46.5370   32.6030   41.3790 H   0  0  0  0  0  0  0  0  0  0  0  0
   49.7110   31.6500   38.5160 C   0  0  0  0  0  0  0  0  0  0  0  0
   49.1250   31.5750   39.7940 C   0  0  0  0  0  0  0  0  0  0  0  0
   48.2420   32.5330   40.1940 C   0  0  0  0  0  0  0  0  0  0  0  0
   47.9730   33.5140   39.3360 N   0  0  0  0  0  0  0  0  0  0  0  0
   48.5200   33.6020   38.1160 C   0  0  0  0  0  0  0  0  0  0  0  0
   49.3950   32.6740   37.6900 N   0  0  0  0  0  0  0  0  0  0  0  0
   50.4100   30.8850   38.2080 H   0  0  0  0  0  0  0  0  0  0  0  0
   49.4300   30.7220   40.4000 H   0  0  0  0  0  0  0  0  0  0  0  0
   48.1690   34.4720   37.5810 H   0  0  0  0  0  0  0  0  0  0  0  0
   47.1790   33.0420   45.0850 O   0  0  0  0  0  0  0  0  0  0  0  0
   46.2550   30.6430   44.4000 O   0  0  0  0  0  0  0  0  0  0  0  0
   46.7080   31.5020   45.5770 P   0  0  2  0  0  0  0  0  0  0  0  0
   45.2900   31.7250   46.5070 O   0  0  0  0  0  0  0  0  0  0  0  0
   45.5410   31.9230   47.4470 H   0  0  0  0  0  0  0  0  0  0  0  0
   47.8380   30.7410   46.5270 O   0  0  0  0  0  0  0  0  0  0  0  0
   47.8940   29.3970   46.1930 C   0  0  0  0  0  0  0  0  0  0  0  0
   48.0860   29.2070   45.1350 H   0  0  0  0  0  0  0  0  0  0  0  0
   46.9140   28.9330   46.4520 H   0  0  0  0  0  0  0  0  0  0  0  0
   48.8820   28.7750   47.0640 N   0  0  0  0  0  0  0  0  0  0  0  0
   49.3920   27.5580   46.7400 C   0  0  0  0  0  0  0  0  0  0  0  0
   49.1600   26.9300   45.8710 H   0  0  0  0  0  0  0  0  0  0  0  0
   50.2870   27.1770   47.6850 N   0  0  0  0  0  0  0  0  0  0  0  0
   50.3410   28.1700   48.6160 C   0  0  0  0  0  0  0  0  0  0  0  0
   51.0240   28.4140   49.7980 C   0  0  0  0  0  0  0  0  0  0  0  0
   50.7960   29.5620   50.4600 N   0  0  0  0  0  0  0  0  0  0  0  0
   49.9370   30.4860   50.0340 C   0  0  0  0  0  0  0  0  0  0  0  0
   49.8660   31.3440   50.6730 H   0  0  0  0  0  0  0  0  0  0  0  0
   49.2520   30.2960   48.8990 N   0  0  0  0  0  0  0  0  0  0  0  0
   49.4520   29.1660   48.2100 C   0  0  0  0  0  0  0  0  0  0  0  0
   51.9310   27.4150   50.2280 N   0  0  0  0  0  0  0  0  0  0  0  0
   52.9280   27.1870   49.9650 H   0  0  0  0  0  0  0  0  0  0  0  0
   51.9610   26.6170   50.8890 H   0  0  0  0  0  0  0  0  0  0  0  0
  1  6  1  0  0  0  0
  2  3  1  0  0  0  0
  2  7  1  0  0  0  0
  2  1  1  0  0  0  0
  3  4  1  0  0  0  0
  4 12  1  0  0  0  0
  4  5  1  0  0  0  0
  5 13  1  0  0  0  0
  5 14  1  0  0  0  0
  6 15  1  6  0  0  0
  6  5  1  0  0  0  0
  6 31  1  0  0  0  0
  8  2  1  0  0  0  0
  9  3  1  0  0  0  0
 10  3  1  0  0  0  0
 11  4  1  0  0  0  0
 16  1  1  0  0  0  0
 16 17  1  0  0  0  0
 18 16  1  0  0  0  0
 19 20  1  0  0  0  0
 19 16  1  0  0  0  0
 21 19  1  0  0  0  0
 22 23  1  0  0  0  0
 23 24  2  0  0  0  0
 23 29  1  0  0  0  0
 24 19  1  0  0  0  0
 25 24  1  0  0  0  0
 26 25  2  0  0  0  0
 27 26  1  0  0  0  0
 27 22  2  0  0  0  0
 28 22  1  0  0  0  0
 30 26  1  0  0  0  0
 31 33  1  0  0  0  0
 33 32  2  6  0  0  0
 33 34  1  0  0  0  0
 33 36  1  0  0  0  0
 34 35  1  0  0  0  0
 37 39  1  0  0  0  0
 37 36  1  0  0  0  0
 37 40  1  0  0  0  0
 38 37  1  0  0  0  0
 40 50  1  0  0  0  0
 41 40  1  0  0  0  0
 41 43  2  0  0  0  0
 42 41  1  0  0  0  0
 43 44  1  0  0  0  0
 44 45  1  0  0  0  0
 45 51  1  0  0  0  0
 45 46  2  0  0  0  0
 47 46  1  0  0  0  0
 47 48  1  0  0  0  0
 49 47  2  0  0  0  0
 50 44  2  0  0  0  0
 50 49  1  0  0  0  0
 51 53  1  0  0  0  0
 52 51  1  0  0  0  0
M  END
>  <minimizedAffinity>
-4.24168873

>  <minimizedRMSD>
1.18617141

$$$$
