REMARK  Name = 
REMARK  4 active torsions:
REMARK  status: ('A' for Active; 'I' for Inactive)
REMARK    1  A    between atoms: C_1  and  O_11
REMARK    2  A    between atoms: C_2  and  C_7
REMARK    3  A    between atoms: O_11  and  C_12
REMARK    4  A    between atoms: C_22  and  N_23
REMARK                            x       y       z     vdW  Elec       q    Type
REMARK                         _______ _______ _______ _____ _____    ______ ____
ROOT
ATOM      1  C   UNL     1      47.097  34.390  43.096  0.00  0.00    +0.000 A 
ATOM      2  C   UNL     1      45.777  34.593  43.505  0.00  0.00    +0.000 A 
ATOM      3  C   UNL     1      45.253  33.760  44.497  0.00  0.00    +0.000 A 
ATOM      4  N   UNL     1      46.049  32.794  45.017  0.00  0.00    +0.000 NA
ATOM      5  C   UNL     1      47.326  32.627  44.594  0.00  0.00    +0.000 A 
ATOM      6  N   UNL     1      47.858  33.418  43.637  0.00  0.00    +0.000 NA
ATOM      7  H   UNL     1      44.232  33.904  44.824  0.00  0.00    +0.000 HD
ATOM      8  N   UNL     1      48.033  31.572  45.235  0.00  0.00    +0.000 N 
ATOM      9  C   UNL     1      47.421  30.717  46.105  0.00  0.00    +0.000 A 
ATOM     10  H   UNL     1      46.383  30.728  46.404  0.00  0.00    +0.000 HD
ATOM     11  N   UNL     1      48.289  29.809  46.580  0.00  0.00    +0.000 NA
ATOM     12  C   UNL     1      49.482  30.070  46.016  0.00  0.00    +0.000 A 
ATOM     13  C   UNL     1      50.730  29.479  46.123  0.00  0.00    +0.000 A 
ATOM     14  N   UNL     1      51.756  30.000  45.400  0.00  0.00    +0.000 NA
ATOM     15  C   UNL     1      51.540  31.078  44.595  0.00  0.00    +0.000 A 
ATOM     16  H   UNL     1      52.433  31.396  44.074  0.00  0.00    +0.000 HD
ATOM     17  N   UNL     1      50.323  31.683  44.468  0.00  0.00    +0.000 NA
ATOM     18  C   UNL     1      49.313  31.160  45.188  0.00  0.00    +0.000 A 
ENDROOT
BRANCH   2  19
ATOM     19  C   UNL     1      44.977  35.684  42.873  0.00  0.00    +0.000 C 
ATOM     20  F   UNL     1      45.617  36.903  43.068  0.00  0.00    +0.000 F 
ATOM     21  F   UNL     1      44.959  35.465  41.507  0.00  0.00    +0.000 F 
ATOM     22  F   UNL     1      43.716  35.812  43.348  0.00  0.00    +0.000 F 
ENDBRANCH   2  19
BRANCH  13  23
ATOM     23  N   UNL     1      50.834  28.362  46.993  0.00  0.00    +0.000 N 
ATOM     24  H   UNL     1      50.815  27.473  46.411  0.00  0.00    +0.000 HD
ATOM     25  H   UNL     1      50.918  28.294  48.029  0.00  0.00    +0.000 HD
ENDBRANCH  13  23
BRANCH   1  26
ATOM     26  O   UNL     1      47.591  35.197  42.140  0.00  0.00    +0.000 OA
BRANCH  26  27
ATOM     27  C   UNL     1      48.874  35.191  41.571  0.00  0.00    +0.000 C 
ATOM     28  F   UNL     1      49.767  35.492  42.613  0.00  0.00    +0.000 F 
ATOM     29  F   UNL     1      49.121  33.967  40.998  0.00  0.00    +0.000 F 
ATOM     30  F   UNL     1      49.008  36.227  40.666  0.00  0.00    +0.000 F 
ENDBRANCH  26  27
ENDBRANCH   1  26
TORSDOF 4
