
     RDKit          3D

 24 26  0  0  0  0  0  0  0  0999 V2000
   44.5377   36.0313   44.5316 C   0  0  0  0  0  0  0  0  0  0  0  0
   45.2606   35.8964   43.3140 C   0  0  0  0  0  0  0  0  0  0  0  0
   46.1258   34.7986   43.2107 C   0  0  0  0  0  0  0  0  0  0  0  0
   46.2378   33.9347   44.2409 N   0  0  0  0  0  0  0  0  0  0  0  0
   45.5286   34.1002   45.3873 C   0  0  0  0  0  0  0  0  0  0  0  0
   44.6855   35.1374   45.5351 N   0  0  0  0  0  0  0  0  0  0  0  0
   47.0749   34.5543   41.7095 S   0  0  0  0  0  0  0  0  0  0  0  0
   43.8978   36.8938   44.5349 H   0  0  0  0  0  0  0  0  0  0  0  0
   45.1740   36.5755   42.5016 H   0  0  0  0  0  0  0  0  0  0  0  0
   46.9544   33.2097   41.3357 H   0  0  0  0  0  0  0  0  0  0  0  0
   45.6034   33.2252   46.5064 N   0  0  0  0  0  0  0  0  0  0  0  0
   46.7593   32.6574   46.9325 C   0  0  0  0  0  0  0  0  0  0  0  0
   47.7715   32.7577   46.5279 H   0  0  0  0  0  0  0  0  0  0  0  0
   46.5293   31.8802   48.0069 N   0  0  0  0  0  0  0  0  0  0  0  0
   45.2130   31.9332   48.2945 C   0  0  0  0  0  0  0  0  0  0  0  0
   44.3813   31.3633   49.2618 C   0  0  0  0  0  0  0  0  0  0  0  0
   44.9398   30.5101   50.2214 N   0  0  0  0  0  0  0  0  0  0  0  0
   45.0332   30.5072   51.2741 H   0  0  0  0  0  0  0  0  0  0  0  0
   43.0554   31.6721   49.2188 N   0  0  0  0  0  0  0  0  0  0  0  0
   42.5541   32.4952   48.2830 C   0  0  0  0  0  0  0  0  0  0  0  0
   41.4719   32.6950   48.3160 H   0  0  0  0  0  0  0  0  0  0  0  0
   43.3371   33.0564   47.3401 N   0  0  0  0  0  0  0  0  0  0  0  0
   44.6524   32.7766   47.3482 C   0  0  0  0  0  0  0  0  0  0  0  0
   45.3799   29.6565   49.8210 H   0  0  0  0  0  0  0  0  0  0  0  0
  1  6  2  0
  2  1  1  0
  3  2  2  0
  3  4  1  0
  4  5  2  0
  5  6  1  0
  7  3  1  0
  1  8  1  0
  2  9  1  0
  7 10  1  0
 11 12  1  0
 12 13  1  0
 12 14  2  0
 14 15  1  0
 15 16  2  0
 16 17  1  0
 17 18  1  0
 16 19  1  0
 19 20  2  0
 20 21  1  0
 20 22  1  0
 22 23  2  0
 23 11  1  0
 23 15  1  0
 17 24  1  0
  5 11  1  0
M  ISO  6   8  14   9  14  10  11  13  15  18   5  21  16
M  END
>  <DihAtoms>  (1) 
3,4,10,11

>  <DihDeg>  (1) 
-81.2765529241739

$$$$
