REMARK  Name = 
REMARK  5 active torsions:
REMARK  status: ('A' for Active; 'I' for Inactive)
REMARK    1  A    between atoms: C_2  and  N_23
REMARK    2  A    between atoms: C_5  and  C_12
REMARK    3  A    between atoms: C_19  and  N_40
REMARK    4  A    between atoms: C_20  and  N_22
REMARK    5  A    between atoms: C_45  and  N_46
REMARK                            x       y       z     vdW  Elec       q    Type
REMARK                         _______ _______ _______ _____ _____    ______ ____
ROOT
ATOM      1  C   UNL     1      45.750  33.800  45.188  0.00  0.00    +0.000 A 
ATOM      2  N   UNL     1      44.883  34.778  45.483  0.00  0.00    +0.000 NA
ATOM      3  C   UNL     1      44.613  35.823  44.712  0.00  0.00    +0.000 A 
ATOM      4  N   UNL     1      45.234  35.961  43.526  0.00  0.00    +0.000 NA
ATOM      5  C   UNL     1      46.127  35.052  43.108  0.00  0.00    +0.000 A 
ATOM      6  C   UNL     1      46.767  35.187  41.893  0.00  0.00    +0.000 A 
ATOM      7  C   UNL     1      47.673  34.272  41.459  0.00  0.00    +0.000 A 
ATOM      8  C   UNL     1      47.939  33.190  42.277  0.00  0.00    +0.000 A 
ATOM      9  C   UNL     1      47.267  33.099  43.495  0.00  0.00    +0.000 A 
ATOM     10  C   UNL     1      46.362  33.988  43.957  0.00  0.00    +0.000 A 
ATOM     11  H   UNL     1      43.899  36.588  45.001  0.00  0.00    +0.000 HD
ATOM     12  H   UNL     1      46.534  36.046  41.279  0.00  0.00    +0.000 HD
ATOM     13  H   UNL     1      48.155  34.406  40.507  0.00  0.00    +0.000 HD
ENDROOT
BRANCH   1  18
ATOM     14  C   UNL     1      47.474  32.063  47.851  0.00  0.00    +0.000 A 
ATOM     15  C   UNL     1      46.930  30.775  47.893  0.00  0.00    +0.000 A 
ATOM     16  C   UNL     1      45.932  30.494  46.991  0.00  0.00    +0.000 A 
ATOM     17  N   UNL     1      45.535  31.429  46.135  0.00  0.00    +0.000 NA
ATOM     18  C   UNL     1      46.033  32.646  46.075  0.00  0.00    +0.000 A 
ATOM     19  N   UNL     1      47.016  32.948  46.956  0.00  0.00    +0.000 NA
ATOM     20  N   UNL     1      45.348  29.249  46.995  0.00  0.00    +0.000 N 
ATOM     21  C   UNL     1      44.152  28.893  46.180  0.00  0.00    +0.000 C 
ATOM     22  C   UNL     1      44.042  27.393  46.252  0.00  0.00    +0.000 C 
ATOM     23  C   UNL     1      44.679  27.074  47.562  0.00  0.00    +0.000 C 
ATOM     24  C   UNL     1      45.743  28.102  47.746  0.00  0.00    +0.000 C 
ATOM     25  H   UNL     1      48.268  32.331  48.551  0.00  0.00    +0.000 HD
ATOM     26  H   UNL     1      43.261  29.392  46.598  0.00  0.00    +0.000 HD
ATOM     27  H   UNL     1      44.380  29.263  45.151  0.00  0.00    +0.000 HD
ATOM     28  H   UNL     1      44.573  26.880  45.439  0.00  0.00    +0.000 HD
ATOM     29  H   UNL     1      42.974  27.059  46.254  0.00  0.00    +0.000 HD
ATOM     30  H   UNL     1      43.880  27.104  48.331  0.00  0.00    +0.000 HD
ATOM     31  H   UNL     1      45.096  26.031  47.591  0.00  0.00    +0.000 HD
ATOM     32  H   UNL     1      45.732  28.265  48.866  0.00  0.00    +0.000 HD
ATOM     33  H   UNL     1      46.693  27.667  47.428  0.00  0.00    +0.000 HD
BRANCH  15  34
ATOM     34  N   UNL     1      47.452  29.890  48.800  0.00  0.00    +0.000 N 
ATOM     35  H   UNL     1      46.951  30.160  49.697  0.00  0.00    +0.000 HD
ATOM     36  H   UNL     1      48.173  29.137  48.619  0.00  0.00    +0.000 HD
ENDBRANCH  15  34
ENDBRANCH   1  18
BRANCH   8  37
ATOM     37  N   UNL     1      48.889  32.253  41.795  0.00  0.00    +0.000 N 
ATOM     38  C   UNL     1      49.351  31.097  42.337  0.00  0.00    +0.000 A 
ATOM     39  H   UNL     1      49.012  30.730  43.287  0.00  0.00    +0.000 HD
ATOM     40  N   UNL     1      50.250  30.575  41.477  0.00  0.00    +0.000 NA
ATOM     41  C   UNL     1      50.376  31.373  40.388  0.00  0.00    +0.000 A 
ATOM     42  C   UNL     1      51.151  31.264  39.270  0.00  0.00    +0.000 A 
ATOM     43  N   UNL     1      51.062  32.229  38.341  0.00  0.00    +0.000 NA
ATOM     44  C   UNL     1      50.206  33.266  38.560  0.00  0.00    +0.000 A 
ATOM     45  H   UNL     1      50.087  34.089  37.838  0.00  0.00    +0.000 HD
ATOM     46  N   UNL     1      49.435  33.404  39.643  0.00  0.00    +0.000 NA
ATOM     47  C   UNL     1      49.503  32.448  40.594  0.00  0.00    +0.000 A 
BRANCH  42  48
ATOM     48  N   UNL     1      52.035  30.200  39.033  0.00  0.00    +0.000 N 
ATOM     49  H   UNL     1      52.084  29.203  39.298  0.00  0.00    +0.000 HD
ATOM     50  H   UNL     1      52.905  30.246  38.477  0.00  0.00    +0.000 HD
ENDBRANCH  42  48
ENDBRANCH   8  37
BRANCH   9  51
ATOM     51  N   UNL     1      47.668  31.918  44.204  0.00  0.00    +0.000 N 
ATOM     52  H   UNL     1      48.392  31.707  44.922  0.00  0.00    +0.000 HD
ATOM     53  H   UNL     1      47.020  31.194  43.819  0.00  0.00    +0.000 HD
ENDBRANCH   9  51
TORSDOF 5
