
 OpenBabel03242521423D

 39 42  0  0  1  0  0  0  0  0999 V2000
   44.6180   35.0690   42.3590 C   0  0  0  0  0  0  0  0  0  0  0  0
   45.7420   34.2500   42.1320 C   0  0  0  0  0  0  0  0  0  0  0  0
   46.5070   33.8840   43.2530 C   0  0  0  0  0  0  0  0  0  0  0  0
   46.1330   34.3270   44.4630 N   0  0  0  0  0  0  0  0  0  0  0  0
   45.0380   35.1170   44.6280 C   0  0  0  0  0  0  0  0  0  0  0  0
   44.2850   35.4840   43.5770 N   0  0  0  0  0  0  0  0  0  0  0  0
   45.9490   33.9560   41.1360 H   0  0  0  0  0  0  0  0  0  0  0  0
   44.8250   35.4170   45.6380 H   0  0  0  0  0  0  0  0  0  0  0  0
   48.8720   33.7730   42.4770 C   0  0  2  0  0  0  0  0  0  0  0  0
   47.6710   33.0340   43.0060 C   0  0  2  0  0  0  0  0  0  0  0  0
   47.4840   32.0880   41.9770 O   0  0  0  0  0  0  0  0  0  0  0  0
   48.7420   31.5450   41.7980 C   0  0  0  0  0  0  0  0  0  0  0  0
   49.7790   32.5640   42.2110 C   0  0  1  0  0  0  0  0  0  0  0  0
   48.6990   34.2110   41.4790 H   0  0  0  0  0  0  0  0  0  0  0  0
   47.9210   32.4990   43.9270 H   0  0  0  0  0  0  0  0  0  0  0  0
   48.9240   31.1800   40.7620 H   0  0  0  0  0  0  0  0  0  0  0  0
   48.8450   30.6640   42.4680 H   0  0  0  0  0  0  0  0  0  0  0  0
   50.3550   32.2690   43.1060 H   0  0  0  0  0  0  0  0  0  0  0  0
   49.4090   34.6560   43.3790 O   0  0  0  0  0  0  0  0  0  0  0  0
   48.6720   35.2220   43.7120 H   0  0  0  0  0  0  0  0  0  0  0  0
   50.6700   32.8740   41.2010 O   0  0  0  0  0  0  0  0  0  0  0  0
   51.6130   32.9470   41.4900 H   0  0  0  0  0  0  0  0  0  0  0  0
   43.8020   35.4680   41.1440 C   0  0  0  0  0  0  0  0  0  0  0  0
   43.7660   36.5840   41.1810 H   0  0  0  0  0  0  0  0  0  0  0  0
   44.3240   35.2240   40.2080 H   0  0  0  0  0  0  0  0  0  0  0  0
   42.4790   34.9240   41.2340 N   0  0  0  0  0  0  0  0  0  0  0  0
   41.3730   35.6710   41.4660 C   0  0  0  0  0  0  0  0  0  0  0  0
   41.2710   36.7370   41.6160 H   0  0  0  0  0  0  0  0  0  0  0  0
   40.2770   34.9030   41.4990 N   0  0  0  0  0  0  0  0  0  0  0  0
   40.6800   33.6480   41.2880 C   0  0  0  0  0  0  0  0  0  0  0  0
   40.0720   32.4110   41.2010 C   0  0  0  0  0  0  0  0  0  0  0  0
   40.7560   31.2680   40.9700 N   0  0  0  0  0  0  0  0  0  0  0  0
   42.1110   31.3280   40.8130 C   0  0  0  0  0  0  0  0  0  0  0  0
   42.6420   30.3910   40.6280 H   0  0  0  0  0  0  0  0  0  0  0  0
   42.7310   32.5160   40.8920 N   0  0  0  0  0  0  0  0  0  0  0  0
   42.0680   33.6680   41.1220 C   0  0  0  0  0  0  0  0  0  0  0  0
   38.6670   32.4130   41.3720 N   0  0  0  0  0  0  0  0  0  0  0  0
   37.9470   32.5630   42.1130 H   0  0  0  0  0  0  0  0  0  0  0  0
   37.7520   32.2840   40.9200 H   0  0  0  0  0  0  0  0  0  0  0  0
  1  6  1  0  0  0  0
  2  1  2  0  0  0  0
  2  3  1  0  0  0  0
  3  4  2  0  0  0  0
  4  5  1  0  0  0  0
  5  8  1  0  0  0  0
  6  5  2  0  0  0  0
  7  2  1  0  0  0  0
  9 14  1  6  0  0  0
  9 10  1  0  0  0  0
  9 19  1  0  0  0  0
 10  3  1  0  0  0  0
 10 15  1  1  0  0  0
 11 10  1  0  0  0  0
 12 11  1  0  0  0  0
 12 13  1  0  0  0  0
 12 17  1  0  0  0  0
 13  9  1  0  0  0  0
 13 18  1  1  0  0  0
 16 12  1  0  0  0  0
 19 20  1  0  0  0  0
 21 22  1  0  0  0  0
 21 13  1  0  0  0  0
 23 24  1  0  0  0  0
 23 26  1  0  0  0  0
 23  1  1  0  0  0  0
 25 23  1  0  0  0  0
 26 27  1  0  0  0  0
 27 29  2  0  0  0  0
 27 28  1  0  0  0  0
 30 29  1  0  0  0  0
 31 30  1  0  0  0  0
 31 37  1  0  0  0  0
 32 31  2  0  0  0  0
 33 35  2  0  0  0  0
 33 32  1  0  0  0  0
 34 33  1  0  0  0  0
 35 36  1  0  0  0  0
 36 26  1  0  0  0  0
 36 30  2  0  0  0  0
 37 38  1  0  0  0  0
 39 37  1  0  0  0  0
M  END
>  <minimizedAffinity>
-5.98612881

>  <minimizedRMSD>
1.46460509

$$$$
