
 OpenBabel03252504203D

 24 26  0  0  0  0  0  0  0  0999 V2000
   47.2820   33.7010   42.8830 C   0  0  0  0  0  0  0  0  0  0  0  0
   48.1130   32.8620   42.1430 C   0  0  0  0  0  0  0  0  0  0  0  0
   48.5240   31.6360   42.7200 C   0  0  0  0  0  0  0  0  0  0  0  0
   48.0690   31.3610   43.9790 N   0  0  0  0  0  0  0  0  0  0  0  0
   47.2660   32.2020   44.6600 C   0  0  0  0  0  0  0  0  0  0  0  0
   46.8730   33.3660   44.1170 N   0  0  0  0  0  0  0  0  0  0  0  0
   48.4520   33.1250   41.1360 H   0  0  0  0  0  0  0  0  0  0  0  0
   49.1600   31.0030   42.1440 H   0  0  0  0  0  0  0  0  0  0  0  0
   46.8390   31.8300   45.9730 N   0  0  0  0  0  0  0  0  0  0  0  0
   47.0650   32.5110   47.1140 C   0  0  0  0  0  0  0  0  0  0  0  0
   47.6030   33.4510   47.2440 H   0  0  0  0  0  0  0  0  0  0  0  0
   46.4950   31.8190   48.1410 N   0  0  0  0  0  0  0  0  0  0  0  0
   45.9330   30.7330   47.6040 C   0  0  0  0  0  0  0  0  0  0  0  0
   45.2210   29.6710   48.1210 C   0  0  0  0  0  0  0  0  0  0  0  0
   44.7540   28.6860   47.3670 N   0  0  0  0  0  0  0  0  0  0  0  0
   44.9480   28.6610   46.0310 C   0  0  0  0  0  0  0  0  0  0  0  0
   44.6010   27.8970   45.3500 H   0  0  0  0  0  0  0  0  0  0  0  0
   45.6410   29.6960   45.5280 N   0  0  0  0  0  0  0  0  0  0  0  0
   46.1330   30.7110   46.2390 C   0  0  0  0  0  0  0  0  0  0  0  0
   44.9420   29.5660   49.5090 N   0  0  0  0  0  0  0  0  0  0  0  0
   43.9350   29.3960   49.7630 H   0  0  0  0  0  0  0  0  0  0  0  0
   45.3120   29.5830   50.4710 H   0  0  0  0  0  0  0  0  0  0  0  0
   46.8210   35.2330   42.0540 S   0  0  0  0  0  0  0  0  0  0  0  0
   46.5130   35.0380   40.7080 H   0  0  0  0  0  0  0  0  0  0  0  0
  1  6  1  0  0  0  0
  2  3  1  0  0  0  0
  2  1  2  0  0  0  0
  3  4  2  0  0  0  0
  4  5  1  0  0  0  0
  5  9  1  0  0  0  0
  6  5  2  0  0  0  0
  7  2  1  0  0  0  0
  8  3  1  0  0  0  0
  9 19  1  0  0  0  0
  9 10  1  0  0  0  0
 10 11  1  0  0  0  0
 10 12  2  0  0  0  0
 13 14  1  0  0  0  0
 13 12  1  0  0  0  0
 14 20  1  0  0  0  0
 15 14  2  0  0  0  0
 16 15  1  0  0  0  0
 17 16  1  0  0  0  0
 18 16  2  0  0  0  0
 18 19  1  0  0  0  0
 19 13  2  0  0  0  0
 20 21  1  0  0  0  0
 20 22  1  0  0  0  0
 23  1  1  0  0  0  0
 24 23  1  0  0  0  0
M  END
>  <minimizedAffinity>
-3.9185133

>  <minimizedRMSD>
2.81960773

$$$$
