
 OpenBabel03252504093D

 30 32  0  0  0  0  0  0  0  0999 V2000
   46.9680   34.0460   43.0120 C   0  0  0  0  0  0  0  0  0  0  0  0
   45.6190   33.8670   42.6940 C   0  0  0  0  0  0  0  0  0  0  0  0
   44.9330   32.8020   43.2830 C   0  0  0  0  0  0  0  0  0  0  0  0
   45.6070   31.9920   44.1360 N   0  0  0  0  0  0  0  0  0  0  0  0
   46.9160   32.1970   44.4200 C   0  0  0  0  0  0  0  0  0  0  0  0
   47.6040   33.2190   43.8650 N   0  0  0  0  0  0  0  0  0  0  0  0
   43.8890   32.6500   43.0470 H   0  0  0  0  0  0  0  0  0  0  0  0
   47.4820   31.2630   45.3310 N   0  0  0  0  0  0  0  0  0  0  0  0
   48.1780   30.1700   44.9060 C   0  0  0  0  0  0  0  0  0  0  0  0
   48.3800   29.8860   43.8840 H   0  0  0  0  0  0  0  0  0  0  0  0
   48.6120   29.4390   45.9460 N   0  0  0  0  0  0  0  0  0  0  0  0
   48.1970   30.0590   47.0660 C   0  0  0  0  0  0  0  0  0  0  0  0
   48.3420   29.7770   48.4140 C   0  0  0  0  0  0  0  0  0  0  0  0
   47.7860   30.6290   49.3150 N   0  0  0  0  0  0  0  0  0  0  0  0
   47.1050   31.7270   48.8810 C   0  0  0  0  0  0  0  0  0  0  0  0
   46.7120   32.3240   49.6940 H   0  0  0  0  0  0  0  0  0  0  0  0
   46.9450   32.0320   47.5600 N   0  0  0  0  0  0  0  0  0  0  0  0
   47.5000   31.1830   46.6750 C   0  0  0  0  0  0  0  0  0  0  0  0
   44.9620   34.8120   41.7430 C   0  0  0  0  0  0  0  0  0  0  0  0
   45.0750   36.1120   42.2260 F   0  0  0  0  0  0  0  0  0  0  0  0
   45.6630   34.7750   40.5510 F   0  0  0  0  0  0  0  0  0  0  0  0
   43.6470   34.5770   41.5260 F   0  0  0  0  0  0  0  0  0  0  0  0
   49.0700   28.6050   48.7460 N   0  0  0  0  0  0  0  0  0  0  0  0
   50.0570   28.8830   49.0240 H   0  0  0  0  0  0  0  0  0  0  0  0
   48.7990   27.5980   48.7540 H   0  0  0  0  0  0  0  0  0  0  0  0
   47.6180   35.0740   42.4380 O   0  0  0  0  0  0  0  0  0  0  0  0
   48.8620   35.0650   41.7870 C   0  0  0  0  0  0  0  0  0  0  0  0
   49.8300   35.2570   42.7870 F   0  0  0  0  0  0  0  0  0  0  0  0
   49.0230   33.8780   41.1140 F   0  0  0  0  0  0  0  0  0  0  0  0
   48.9800   36.1590   40.9510 F   0  0  0  0  0  0  0  0  0  0  0  0
  1  6  1  0  0  0  0
  2  1  2  0  0  0  0
  2  3  1  0  0  0  0
  3  4  2  0  0  0  0
  4  5  1  0  0  0  0
  5  8  1  0  0  0  0
  6  5  2  0  0  0  0
  7  3  1  0  0  0  0
  8 18  1  0  0  0  0
  9  8  1  0  0  0  0
  9 11  2  0  0  0  0
 10  9  1  0  0  0  0
 11 12  1  0  0  0  0
 12 13  1  0  0  0  0
 13 23  1  0  0  0  0
 13 14  2  0  0  0  0
 15 14  1  0  0  0  0
 15 16  1  0  0  0  0
 17 15  2  0  0  0  0
 18 12  2  0  0  0  0
 18 17  1  0  0  0  0
 19 20  1  0  0  0  0
 19  2  1  0  0  0  0
 21 19  1  0  0  0  0
 22 19  1  0  0  0  0
 23 25  1  0  0  0  0
 23 24  1  0  0  0  0
 26  1  1  0  0  0  0
 27 26  1  0  0  0  0
 27 28  1  0  0  0  0
 29 27  1  0  0  0  0
 30 27  1  0  0  0  0
M  END
>  <minimizedAffinity>
-6.00764275

>  <minimizedRMSD>
1.31922793

$$$$
