
     RDKit          3D

 24 26  0  0  0  0  0  0  0  0999 V2000
   45.5357   34.7069   44.2333 C   0  0  0  0  0  0  0  0  0  0  0  0
   46.5736   33.9136   43.7467 C   0  0  0  0  0  0  0  0  0  0  0  0
   47.1217   32.9221   44.5963 C   0  0  0  0  0  0  0  0  0  0  0  0
   46.5859   32.8138   45.8480 N   0  0  0  0  0  0  0  0  0  0  0  0
   45.5818   33.6024   46.2776 C   0  0  0  0  0  0  0  0  0  0  0  0
   45.0583   34.5439   45.4770 N   0  0  0  0  0  0  0  0  0  0  0  0
   44.9130   35.9353   43.0711 S   0  0  0  0  0  0  0  0  0  0  0  0
   46.9715   34.0370   42.7343 H   0  0  0  0  0  0  0  0  0  0  0  0
   47.9156   32.3217   44.2117 H   0  0  0  0  0  0  0  0  0  0  0  0
   44.7925   35.4296   41.7770 H   0  0  0  0  0  0  0  0  0  0  0  0
   45.0844   33.4160   47.6056 N   0  0  0  0  0  0  0  0  0  0  0  0
   44.8023   34.3833   48.5008 C   0  0  0  0  0  0  0  0  0  0  0  0
   44.8989   35.4630   48.3808 H   0  0  0  0  0  0  0  0  0  0  0  0
   44.3538   33.7875   49.6417 N   0  0  0  0  0  0  0  0  0  0  0  0
   44.3720   32.4708   49.4179 C   0  0  0  0  0  0  0  0  0  0  0  0
   44.0396   31.3685   50.1760 C   0  0  0  0  0  0  0  0  0  0  0  0
   43.5571   31.4966   51.5052 N   0  0  0  0  0  0  0  0  0  0  0  0
   42.6652   30.9806   51.7214 H   0  0  0  0  0  0  0  0  0  0  0  0
   44.1460   30.1281   49.7226 N   0  0  0  0  0  0  0  0  0  0  0  0
   44.5913   29.8629   48.4765 C   0  0  0  0  0  0  0  0  0  0  0  0
   44.7066   28.8844   48.0336 H   0  0  0  0  0  0  0  0  0  0  0  0
   44.9155   30.9384   47.7374 N   0  0  0  0  0  0  0  0  0  0  0  0
   44.8280   32.2051   48.1429 C   0  0  0  0  0  0  0  0  0  0  0  0
   43.6956   31.9027   52.4427 H   0  0  0  0  0  0  0  0  0  0  0  0
  1  6  2  0
  2  1  1  0
  2  3  2  0
  3  4  1  0
  4  5  2  0
  6  5  1  0
  7  1  1  0
  2  8  1  0
  3  9  1  0
  7 10  1  0
 11 12  1  0
 12 13  1  0
 12 14  2  0
 14 15  1  0
 15 16  2  0
 16 17  1  0
 17 18  1  0
 16 19  1  0
 19 20  2  0
 20 21  1  0
 20 22  1  0
 22 23  2  0
 23 11  1  0
 23 15  1  0
 17 24  1  0
  5 11  1  0
M  ISO  6   8  14   9  14  10  11  13  15  18   5  21  16
M  END
>  <DihAtoms>  (1) 
3,4,10,11

>  <DihDeg>  (1) 
-149.53130666427887

$$$$
