
     RDKit          3D

 30 32  0  0  0  0  0  0  0  0999 V2000
   47.0966   34.3901   43.0956 C   0  0  0  0  0  0  0  0  0  0  0  0
   45.7767   34.5926   43.5049 C   0  0  0  0  0  0  0  0  0  0  0  0
   45.2528   33.7602   44.4966 C   0  0  0  0  0  0  0  0  0  0  0  0
   46.0491   32.7936   45.0168 N   0  0  0  0  0  0  0  0  0  0  0  0
   47.3260   32.6272   44.5941 C   0  0  0  0  0  0  0  0  0  0  0  0
   47.8584   33.4176   43.6367 N   0  0  0  0  0  0  0  0  0  0  0  0
   44.9771   35.6841   42.8726 C   0  0  0  0  0  0  0  0  0  0  0  0
   45.6167   36.9027   43.0681 F   0  0  0  0  0  0  0  0  0  0  0  0
   44.9587   35.4646   41.5066 F   0  0  0  0  0  0  0  0  0  0  0  0
   43.7156   35.8120   43.3476 F   0  0  0  0  0  0  0  0  0  0  0  0
   47.5913   35.1968   42.1404 O   0  0  0  0  0  0  0  0  0  0  0  0
   48.8743   35.1911   41.5711 C   0  0  0  0  0  0  0  0  0  0  0  0
   49.7667   35.4916   42.6133 F   0  0  0  0  0  0  0  0  0  0  0  0
   49.1214   33.9669   40.9984 F   0  0  0  0  0  0  0  0  0  0  0  0
   49.0076   36.2269   40.6662 F   0  0  0  0  0  0  0  0  0  0  0  0
   44.2323   33.9042   44.8244 H   0  0  0  0  0  0  0  0  0  0  0  0
   48.0327   31.5717   45.2354 N   0  0  0  0  0  0  0  0  0  0  0  0
   48.6513   31.7436   46.4387 C   0  0  0  0  0  0  0  0  0  0  0  0
   48.6845   32.6480   47.0279 H   0  0  0  0  0  0  0  0  0  0  0  0
   49.2487   30.6106   46.8401 N   0  0  0  0  0  0  0  0  0  0  0  0
   49.0203   29.6851   45.8906 C   0  0  0  0  0  0  0  0  0  0  0  0
   49.3830   28.3549   45.7578 C   0  0  0  0  0  0  0  0  0  0  0  0
   50.1562   27.7964   46.8089 N   0  0  0  0  0  0  0  0  0  0  0  0
   49.5166   27.2284   47.4393 H   0  0  0  0  0  0  0  0  0  0  0  0
   48.9801   27.6840   44.6467 N   0  0  0  0  0  0  0  0  0  0  0  0
   48.2386   28.3228   43.6990 C   0  0  0  0  0  0  0  0  0  0  0  0
   47.9817   27.6823   42.8659 H   0  0  0  0  0  0  0  0  0  0  0  0
   47.8655   29.6322   43.8012 N   0  0  0  0  0  0  0  0  0  0  0  0
   48.2688   30.2885   44.9045 C   0  0  0  0  0  0  0  0  0  0  0  0
   51.1725   27.8580   47.0320 H   0  0  0  0  0  0  0  0  0  0  0  0
  1  2  2  0
  1  6  1  0
  2  3  1  0
  3  4  2  0
  5  4  1  0
  6  5  2  0
  7  8  1  0
  7 10  1  0
  7  2  1  0
  9  7  1  0
 11  1  1  0
 12 11  1  0
 12 13  1  0
 14 12  1  0
 15 12  1  0
  3 16  1  0
 17 18  1  0
 18 19  1  0
 18 20  2  0
 20 21  1  0
 21 22  2  0
 22 23  1  0
 23 24  1  0
 22 25  1  0
 25 26  2  0
 26 27  1  0
 26 28  1  0
 28 29  2  0
 29 17  1  0
 29 21  1  0
 23 30  1  0
  5 17  1  0
M  ISO  4  16  14  19  15  24   5  27  16
M  END
>  <DihAtoms>  (1) 
3,4,16,17

>  <DihDeg>  (1) 
-53.67935003396244

$$$$
