REMARK  Name = 
REMARK  2 active torsions:
REMARK  status: ('A' for Active; 'I' for Inactive)
REMARK    1  A    between atoms: C_1  and  S_7
REMARK    2  A    between atoms: C_16  and  N_17
REMARK                            x       y       z     vdW  Elec       q    Type
REMARK                         _______ _______ _______ _____ _____    ______ ____
ROOT
ATOM      1  C   UNL     1      45.536  34.707  44.233  0.00  0.00    +0.000 A 
ATOM      2  C   UNL     1      46.574  33.914  43.747  0.00  0.00    +0.000 A 
ATOM      3  C   UNL     1      47.122  32.922  44.596  0.00  0.00    +0.000 A 
ATOM      4  N   UNL     1      46.586  32.814  45.848  0.00  0.00    +0.000 NA
ATOM      5  C   UNL     1      45.582  33.602  46.278  0.00  0.00    +0.000 A 
ATOM      6  N   UNL     1      45.058  34.544  45.477  0.00  0.00    +0.000 NA
ATOM      7  H   UNL     1      46.971  34.037  42.734  0.00  0.00    +0.000 HD
ATOM      8  H   UNL     1      47.916  32.322  44.212  0.00  0.00    +0.000 HD
ATOM      9  N   UNL     1      45.084  33.416  47.606  0.00  0.00    +0.000 N 
ATOM     10  C   UNL     1      44.802  34.383  48.501  0.00  0.00    +0.000 A 
ATOM     11  H   UNL     1      44.899  35.463  48.381  0.00  0.00    +0.000 HD
ATOM     12  N   UNL     1      44.354  33.788  49.642  0.00  0.00    +0.000 NA
ATOM     13  C   UNL     1      44.372  32.471  49.418  0.00  0.00    +0.000 A 
ATOM     14  C   UNL     1      44.040  31.369  50.176  0.00  0.00    +0.000 A 
ATOM     15  N   UNL     1      44.146  30.128  49.723  0.00  0.00    +0.000 NA
ATOM     16  C   UNL     1      44.591  29.863  48.477  0.00  0.00    +0.000 A 
ATOM     17  H   UNL     1      44.707  28.884  48.034  0.00  0.00    +0.000 HD
ATOM     18  N   UNL     1      44.916  30.938  47.737  0.00  0.00    +0.000 NA
ATOM     19  C   UNL     1      44.828  32.205  48.143  0.00  0.00    +0.000 A 
ENDROOT
BRANCH  14  20
ATOM     20  N   UNL     1      43.557  31.497  51.505  0.00  0.00    +0.000 N 
ATOM     21  H   UNL     1      42.665  30.981  51.721  0.00  0.00    +0.000 HD
ATOM     22  H   UNL     1      43.696  31.903  52.443  0.00  0.00    +0.000 HD
ENDBRANCH  14  20
BRANCH   1  23
ATOM     23  S   UNL     1      44.913  35.935  43.071  0.00  0.00    +0.000 S 
ATOM     24  H   UNL     1      44.792  35.430  41.777  0.00  0.00    +0.000 HD
ENDBRANCH   1  23
TORSDOF 2
