
 OpenBabel03252504103D

 30 32  0  0  0  0  0  0  0  0999 V2000
   46.9440   34.1120   43.1810 C   0  0  0  0  0  0  0  0  0  0  0  0
   45.6600   33.8400   42.7030 C   0  0  0  0  0  0  0  0  0  0  0  0
   44.9290   32.8140   43.3070 C   0  0  0  0  0  0  0  0  0  0  0  0
   45.5000   32.1290   44.3280 N   0  0  0  0  0  0  0  0  0  0  0  0
   46.7490   32.4210   44.7640 C   0  0  0  0  0  0  0  0  0  0  0  0
   47.4770   33.4080   44.1990 N   0  0  0  0  0  0  0  0  0  0  0  0
   43.9330   32.5910   42.9480 H   0  0  0  0  0  0  0  0  0  0  0  0
   47.2080   31.6140   45.8430 N   0  0  0  0  0  0  0  0  0  0  0  0
   46.8910   31.8940   47.1400 C   0  0  0  0  0  0  0  0  0  0  0  0
   46.2880   32.7150   47.4970 H   0  0  0  0  0  0  0  0  0  0  0  0
   47.4370   30.9960   47.9740 N   0  0  0  0  0  0  0  0  0  0  0  0
   48.1180   30.1150   47.2180 C   0  0  0  0  0  0  0  0  0  0  0  0
   48.8700   28.9910   47.5170 C   0  0  0  0  0  0  0  0  0  0  0  0
   49.4410   28.3050   46.4930 N   0  0  0  0  0  0  0  0  0  0  0  0
   49.2680   28.7310   45.2100 C   0  0  0  0  0  0  0  0  0  0  0  0
   49.7710   28.1010   44.4880 H   0  0  0  0  0  0  0  0  0  0  0  0
   48.5330   29.8330   44.8820 N   0  0  0  0  0  0  0  0  0  0  0  0
   47.9710   30.5060   45.9030 C   0  0  0  0  0  0  0  0  0  0  0  0
   45.1160   34.6500   41.5720 C   0  0  0  0  0  0  0  0  0  0  0  0
   45.0720   35.9910   41.9380 F   0  0  0  0  0  0  0  0  0  0  0  0
   46.0050   34.5610   40.5160 F   0  0  0  0  0  0  0  0  0  0  0  0
   43.8700   34.3020   41.1730 F   0  0  0  0  0  0  0  0  0  0  0  0
   48.9810   28.6450   48.8890 N   0  0  0  0  0  0  0  0  0  0  0  0
   48.3020   27.8550   49.0990 H   0  0  0  0  0  0  0  0  0  0  0  0
   49.5810   29.0210   49.6540 H   0  0  0  0  0  0  0  0  0  0  0  0
   47.6380   35.1020   42.5920 O   0  0  0  0  0  0  0  0  0  0  0  0
   48.8860   35.0310   41.9520 C   0  0  0  0  0  0  0  0  0  0  0  0
   49.8520   35.2360   42.9510 F   0  0  0  0  0  0  0  0  0  0  0  0
   49.0180   33.8140   41.3280 F   0  0  0  0  0  0  0  0  0  0  0  0
   49.0410   36.0870   41.0740 F   0  0  0  0  0  0  0  0  0  0  0  0
  1  6  1  0  0  0  0
  2  1  2  0  0  0  0
  2  3  1  0  0  0  0
  3  4  2  0  0  0  0
  4  5  1  0  0  0  0
  5  8  1  0  0  0  0
  6  5  2  0  0  0  0
  7  3  1  0  0  0  0
  8 18  1  0  0  0  0
  8  9  1  0  0  0  0
  9 10  1  0  0  0  0
  9 11  2  0  0  0  0
 12 13  1  0  0  0  0
 12 11  1  0  0  0  0
 13 23  1  0  0  0  0
 14 13  2  0  0  0  0
 15 14  1  0  0  0  0
 16 15  1  0  0  0  0
 17 15  2  0  0  0  0
 17 18  1  0  0  0  0
 18 12  2  0  0  0  0
 19 20  1  0  0  0  0
 19  2  1  0  0  0  0
 21 19  1  0  0  0  0
 22 19  1  0  0  0  0
 23 24  1  0  0  0  0
 23 25  1  0  0  0  0
 26  1  1  0  0  0  0
 27 26  1  0  0  0  0
 27 28  1  0  0  0  0
 29 27  1  0  0  0  0
 30 27  1  0  0  0  0
M  END
>  <minimizedAffinity>
-5.60931826

>  <minimizedRMSD>
1.47615969

$$$$
