
 OpenBabel03242514513D

 49 53  0  0  1  0  0  0  0  0999 V2000
   38.1100   31.3130   38.3700 C   0  0  0  0  0  0  0  0  0  0  0  0
   37.3780   31.9450   37.7760 H   0  0  0  0  0  0  0  0  0  0  0  0
   38.6810   30.7960   37.6230 H   0  0  0  0  0  0  0  0  0  0  0  0
   39.2350   29.2660   40.0400 F   0  0  0  0  0  0  0  0  0  0  0  0
   37.9200   29.4130   39.9520 C   0  0  0  0  0  0  0  0  0  0  0  0
   37.3170   30.3760   39.1840 C   0  0  0  0  0  0  0  0  0  0  0  0
   35.9380   30.4850   39.1600 C   0  0  0  0  0  0  0  0  0  0  0  0
   35.2260   29.5920   39.9310 C   0  0  0  0  0  0  0  0  0  0  0  0
   35.7700   28.5950   40.7280 C   0  0  0  0  0  0  0  0  0  0  0  0
   37.1670   28.5130   40.7310 C   0  0  0  0  0  0  0  0  0  0  0  0
   35.4340   31.2260   38.5710 H   0  0  0  0  0  0  0  0  0  0  0  0
   34.1450   29.6800   39.9090 H   0  0  0  0  0  0  0  0  0  0  0  0
   35.1740   27.9280   41.3060 H   0  0  0  0  0  0  0  0  0  0  0  0
   37.7780   27.5060   41.5320 N   0  0  0  0  0  0  0  0  0  0  0  0
   38.2900   27.6940   42.7810 C   0  0  0  0  0  0  0  0  0  0  0  0
   38.3220   28.6050   43.3650 H   0  0  0  0  0  0  0  0  0  0  0  0
   38.8010   26.5660   43.2880 N   0  0  0  0  0  0  0  0  0  0  0  0
   38.6310   25.6090   42.3710 C   0  0  0  0  0  0  0  0  0  0  0  0
   38.9260   24.2490   42.2700 C   0  0  0  0  0  0  0  0  0  0  0  0
   38.6090   23.5340   41.1590 N   0  0  0  0  0  0  0  0  0  0  0  0
   37.9920   24.1490   40.1270 C   0  0  0  0  0  0  0  0  0  0  0  0
   37.7760   23.4990   39.2780 H   0  0  0  0  0  0  0  0  0  0  0  0
   37.6910   25.4680   40.1950 N   0  0  0  0  0  0  0  0  0  0  0  0
   37.9930   26.1970   41.2790 C   0  0  0  0  0  0  0  0  0  0  0  0
   39.5750   23.6620   43.3900 N   0  0  0  0  0  0  0  0  0  0  0  0
   40.6230   23.7580   43.4510 H   0  0  0  0  0  0  0  0  0  0  0  0
   39.3530   23.1210   44.2480 H   0  0  0  0  0  0  0  0  0  0  0  0
   38.8370   32.3220   39.1840 C   0  0  0  0  0  0  0  0  0  0  0  0
   40.2180   32.3480   39.0790 C   0  0  0  0  0  0  0  0  0  0  0  0
   40.8890   33.3190   39.8460 C   0  0  0  0  0  0  0  0  0  0  0  0
   40.1710   34.1600   40.6320 N   0  0  0  0  0  0  0  0  0  0  0  0
   38.8340   34.0890   40.6940 C   0  0  0  0  0  0  0  0  0  0  0  0
   38.1910   33.1850   39.9800 N   0  0  0  0  0  0  0  0  0  0  0  0
   41.9670   33.3950   39.8130 H   0  0  0  0  0  0  0  0  0  0  0  0
   38.2020   34.7280   41.2960 H   0  0  0  0  0  0  0  0  0  0  0  0
   41.4700   32.0630   36.9410 C   0  0  2  0  0  0  0  0  0  0  0  0
   41.0070   31.3860   38.2630 C   0  0  1  0  0  0  0  0  0  0  0  0
   42.0680   30.8300   38.8620 O   0  0  0  0  0  0  0  0  0  0  0  0
   43.2340   31.2760   38.2950 C   0  0  0  0  0  0  0  0  0  0  0  0
   42.8860   31.4460   36.8460 C   0  0  1  0  0  0  0  0  0  0  0  0
   40.9770   31.7340   36.0400 H   0  0  0  0  0  0  0  0  0  0  0  0
   40.5010   30.6260   37.7440 H   0  0  0  0  0  0  0  0  0  0  0  0
   43.6410   32.2090   38.6950 H   0  0  0  0  0  0  0  0  0  0  0  0
   44.0020   30.4700   38.4240 H   0  0  0  0  0  0  0  0  0  0  0  0
   43.5440   32.1620   36.3140 H   0  0  0  0  0  0  0  0  0  0  0  0
   41.5360   33.3960   36.9770 O   0  0  0  0  0  0  0  0  0  0  0  0
   41.3270   33.8000   36.1140 H   0  0  0  0  0  0  0  0  0  0  0  0
   42.8460   30.1840   36.2980 O   0  0  0  0  0  0  0  0  0  0  0  0
   42.0290   30.0580   35.7250 H   0  0  0  0  0  0  0  0  0  0  0  0
  1  6  1  0  0  0  0
  1 28  1  0  0  0  0
  2  1  1  0  0  0  0
  3  1  1  0  0  0  0
  5  4  1  0  0  0  0
  5 10  1  0  0  0  0
  6  5  2  0  0  0  0
  7  6  1  0  0  0  0
  7  8  2  0  0  0  0
  8  9  1  0  0  0  0
  9 10  2  0  0  0  0
  9 13  1  0  0  0  0
 10 14  1  0  0  0  0
 11  7  1  0  0  0  0
 12  8  1  0  0  0  0
 14 15  1  0  0  0  0
 15 17  2  0  0  0  0
 15 16  1  0  0  0  0
 18 17  1  0  0  0  0
 19 18  1  0  0  0  0
 19 25  1  0  0  0  0
 20 19  2  0  0  0  0
 21 23  2  0  0  0  0
 21 20  1  0  0  0  0
 22 21  1  0  0  0  0
 23 24  1  0  0  0  0
 24 14  1  0  0  0  0
 24 18  2  0  0  0  0
 25 26  1  0  0  0  0
 25 27  1  0  0  0  0
 28 33  1  0  0  0  0
 29 28  2  0  0  0  0
 29 30  1  0  0  0  0
 30 31  2  0  0  0  0
 31 32  1  0  0  0  0
 32 35  1  0  0  0  0
 33 32  2  0  0  0  0
 34 30  1  0  0  0  0
 36 41  1  6  0  0  0
 36 46  1  0  0  0  0
 36 37  1  0  0  0  0
 37 42  1  6  0  0  0
 37 38  1  0  0  0  0
 37 29  1  0  0  0  0
 39 44  1  0  0  0  0
 39 43  1  0  0  0  0
 39 38  1  0  0  0  0
 40 45  1  6  0  0  0
 40 36  1  0  0  0  0
 40 39  1  0  0  0  0
 47 46  1  0  0  0  0
 48 40  1  0  0  0  0
 49 48  1  0  0  0  0
M  END
>  <minimizedAffinity>
-6.76205158

$$$$

 OpenBabel03242514513D

 49 53  0  0  1  0  0  0  0  0999 V2000
   39.1830   27.9990   42.7800 C   0  0  0  0  0  0  0  0  0  0  0  0
   38.7360   28.0850   43.8200 H   0  0  0  0  0  0  0  0  0  0  0  0
   40.2340   28.1540   42.9290 H   0  0  0  0  0  0  0  0  0  0  0  0
   40.6030   29.4600   40.7560 F   0  0  0  0  0  0  0  0  0  0  0  0
   39.3330   29.7400   41.0190 C   0  0  0  0  0  0  0  0  0  0  0  0
   38.5930   29.0750   41.9630 C   0  0  0  0  0  0  0  0  0  0  0  0
   37.2660   29.4050   42.1670 C   0  0  0  0  0  0  0  0  0  0  0  0
   36.7450   30.4160   41.3880 C   0  0  0  0  0  0  0  0  0  0  0  0
   37.4360   31.1290   40.4180 C   0  0  0  0  0  0  0  0  0  0  0  0
   38.7760   30.7700   40.2370 C   0  0  0  0  0  0  0  0  0  0  0  0
   36.6580   28.9050   42.8950 H   0  0  0  0  0  0  0  0  0  0  0  0
   35.7050   30.6730   41.5500 H   0  0  0  0  0  0  0  0  0  0  0  0
   36.9870   31.9050   39.8420 H   0  0  0  0  0  0  0  0  0  0  0  0
   39.5320   31.4710   39.2540 N   0  0  0  0  0  0  0  0  0  0  0  0
   39.3590   31.3710   37.9060 C   0  0  0  0  0  0  0  0  0  0  0  0
   38.6450   30.7660   37.3610 H   0  0  0  0  0  0  0  0  0  0  0  0
   40.2160   32.1480   37.2320 N   0  0  0  0  0  0  0  0  0  0  0  0
   40.9720   32.7770   38.1370 C   0  0  0  0  0  0  0  0  0  0  0  0
   42.0200   33.6980   38.1050 C   0  0  0  0  0  0  0  0  0  0  0  0
   42.5950   34.1590   39.2470 N   0  0  0  0  0  0  0  0  0  0  0  0
   42.1450   33.7190   40.4420 C   0  0  0  0  0  0  0  0  0  0  0  0
   42.6640   34.1410   41.3030 H   0  0  0  0  0  0  0  0  0  0  0  0
   41.1290   32.8250   40.5050 N   0  0  0  0  0  0  0  0  0  0  0  0
   40.5440   32.3540   39.3950 C   0  0  0  0  0  0  0  0  0  0  0  0
   42.4460   34.1220   36.8170 N   0  0  0  0  0  0  0  0  0  0  0  0
   43.1350   33.5090   36.3060 H   0  0  0  0  0  0  0  0  0  0  0  0
   42.3000   34.8990   36.1430 H   0  0  0  0  0  0  0  0  0  0  0  0
   38.7630   26.6410   42.3470 C   0  0  0  0  0  0  0  0  0  0  0  0
   39.6950   25.8750   41.6660 C   0  0  0  0  0  0  0  0  0  0  0  0
   39.2860   24.5850   41.2760 C   0  0  0  0  0  0  0  0  0  0  0  0
   38.0310   24.1660   41.5760 N   0  0  0  0  0  0  0  0  0  0  0  0
   37.1700   24.9520   42.2390 C   0  0  0  0  0  0  0  0  0  0  0  0
   37.5400   26.1620   42.6110 N   0  0  0  0  0  0  0  0  0  0  0  0
   39.9630   23.9340   40.7400 H   0  0  0  0  0  0  0  0  0  0  0  0
   36.1590   24.6800   42.5100 H   0  0  0  0  0  0  0  0  0  0  0  0
   42.1050   25.8470   42.3080 C   0  0  2  0  0  0  0  0  0  0  0  0
   41.0500   26.3590   41.2860 C   0  0  1  0  0  0  0  0  0  0  0  0
   41.4620   26.0580   40.0480 O   0  0  0  0  0  0  0  0  0  0  0  0
   42.4970   25.1610   40.0850 C   0  0  0  0  0  0  0  0  0  0  0  0
   43.2570   25.5420   41.3210 C   0  0  1  0  0  0  0  0  0  0  0  0
   42.5180   26.5860   42.9750 H   0  0  0  0  0  0  0  0  0  0  0  0
   41.3000   27.3620   41.4690 H   0  0  0  0  0  0  0  0  0  0  0  0
   42.2200   24.1030   40.1270 H   0  0  0  0  0  0  0  0  0  0  0  0
   43.1220   25.3270   39.1710 H   0  0  0  0  0  0  0  0  0  0  0  0
   43.8650   24.7150   41.7390 H   0  0  0  0  0  0  0  0  0  0  0  0
   41.7570   24.7490   42.9830 O   0  0  0  0  0  0  0  0  0  0  0  0
   42.1260   24.7390   43.8870 H   0  0  0  0  0  0  0  0  0  0  0  0
   43.9670   26.6800   41.0130 O   0  0  0  0  0  0  0  0  0  0  0  0
   43.8810   27.3740   41.7360 H   0  0  0  0  0  0  0  0  0  0  0  0
  1  3  1  0  0  0  0
  1  2  1  0  0  0  0
  4  5  1  0  0  0  0
  5  6  1  0  0  0  0
  6  7  2  0  0  0  0
  6  1  1  0  0  0  0
  7 11  1  0  0  0  0
  8 12  1  0  0  0  0
  8  7  1  0  0  0  0
  9  8  2  0  0  0  0
 10  9  1  0  0  0  0
 10  5  2  0  0  0  0
 13  9  1  0  0  0  0
 14 24  1  0  0  0  0
 14 10  1  0  0  0  0
 15 14  1  0  0  0  0
 16 15  1  0  0  0  0
 17 15  2  0  0  0  0
 17 18  1  0  0  0  0
 18 24  1  0  0  0  0
 19 18  2  0  0  0  0
 19 20  1  0  0  0  0
 20 21  2  0  0  0  0
 21 23  1  0  0  0  0
 21 22  1  0  0  0  0
 24 23  2  0  0  0  0
 25 19  1  0  0  0  0
 26 25  1  0  0  0  0
 27 25  1  0  0  0  0
 28 33  1  0  0  0  0
 28  1  1  0  0  0  0
 29 28  2  0  0  0  0
 30 31  2  0  0  0  0
 30 29  1  0  0  0  0
 31 32  1  0  0  0  0
 32 35  1  0  0  0  0
 32 33  2  0  0  0  0
 34 30  1  0  0  0  0
 36 41  1  1  0  0  0
 36 46  1  0  0  0  0
 37 42  1  1  0  0  0
 37 29  1  0  0  0  0
 37 36  1  0  0  0  0
 38 39  1  0  0  0  0
 38 37  1  0  0  0  0
 39 43  1  0  0  0  0
 39 40  1  0  0  0  0
 40 45  1  1  0  0  0
 40 36  1  0  0  0  0
 44 39  1  0  0  0  0
 46 47  1  0  0  0  0
 48 40  1  0  0  0  0
 48 49  1  0  0  0  0
M  END
>  <minimizedAffinity>
-6.68388557

$$$$

 OpenBabel03242514513D

 49 53  0  0  1  0  0  0  0  0999 V2000
   37.4240   27.8370   38.8170 C   0  0  0  0  0  0  0  0  0  0  0  0
   37.6300   28.9020   38.4830 H   0  0  0  0  0  0  0  0  0  0  0  0
   38.2630   27.2770   38.4520 H   0  0  0  0  0  0  0  0  0  0  0  0
   35.5770   29.6220   37.5320 F   0  0  0  0  0  0  0  0  0  0  0  0
   35.3280   28.3190   37.5810 C   0  0  0  0  0  0  0  0  0  0  0  0
   36.1720   27.4110   38.1670 C   0  0  0  0  0  0  0  0  0  0  0  0
   35.8580   26.0640   38.1600 C   0  0  0  0  0  0  0  0  0  0  0  0
   34.6790   25.6990   37.5460 C   0  0  0  0  0  0  0  0  0  0  0  0
   33.7820   26.5630   36.9370 C   0  0  0  0  0  0  0  0  0  0  0  0
   34.1290   27.9190   36.9610 C   0  0  0  0  0  0  0  0  0  0  0  0
   36.4950   25.3260   38.6080 H   0  0  0  0  0  0  0  0  0  0  0  0
   34.4360   24.6420   37.5430 H   0  0  0  0  0  0  0  0  0  0  0  0
   32.8810   26.2310   36.4760 H   0  0  0  0  0  0  0  0  0  0  0  0
   33.2420   28.8500   36.3490 N   0  0  0  0  0  0  0  0  0  0  0  0
   33.3100   29.2710   35.0550 C   0  0  0  0  0  0  0  0  0  0  0  0
   34.0200   28.9860   34.2900 H   0  0  0  0  0  0  0  0  0  0  0  0
   32.3430   30.1500   34.7630 N   0  0  0  0  0  0  0  0  0  0  0  0
   31.6170   30.3210   35.8730 C   0  0  0  0  0  0  0  0  0  0  0  0
   30.5020   31.0750   36.2380 C   0  0  0  0  0  0  0  0  0  0  0  0
   29.9890   31.0210   37.4950 N   0  0  0  0  0  0  0  0  0  0  0  0
   30.5690   30.2210   38.4150 C   0  0  0  0  0  0  0  0  0  0  0  0
   30.0920   30.2410   39.3960 H   0  0  0  0  0  0  0  0  0  0  0  0
   31.6530   29.4760   38.0910 N   0  0  0  0  0  0  0  0  0  0  0  0
   32.1790   29.5100   36.8580 C   0  0  0  0  0  0  0  0  0  0  0  0
   29.9380   31.8960   35.2240 N   0  0  0  0  0  0  0  0  0  0  0  0
   30.3730   32.8440   35.0680 H   0  0  0  0  0  0  0  0  0  0  0  0
   29.1760   31.8850   34.5190 H   0  0  0  0  0  0  0  0  0  0  0  0
   37.3000   27.9680   40.2920 C   0  0  0  0  0  0  0  0  0  0  0  0
   37.5070   29.2240   40.8380 C   0  0  0  0  0  0  0  0  0  0  0  0
   37.3720   29.3330   42.2350 C   0  0  0  0  0  0  0  0  0  0  0  0
   37.0540   28.2320   42.9610 N   0  0  0  0  0  0  0  0  0  0  0  0
   36.8640   27.0400   42.3780 C   0  0  0  0  0  0  0  0  0  0  0  0
   36.9880   26.9230   41.0700 N   0  0  0  0  0  0  0  0  0  0  0  0
   37.5200   30.2840   42.7270 H   0  0  0  0  0  0  0  0  0  0  0  0
   36.6090   26.1260   42.8960 H   0  0  0  0  0  0  0  0  0  0  0  0
   36.7470   31.4460   39.9960 C   0  0  2  0  0  0  0  0  0  0  0  0
   37.9140   30.4170   40.0460 C   0  0  1  0  0  0  0  0  0  0  0  0
   39.0290   31.0420   40.4460 O   0  0  0  0  0  0  0  0  0  0  0  0
   38.7350   32.2800   40.9550 C   0  0  0  0  0  0  0  0  0  0  0  0
   37.5780   32.7450   40.1220 C   0  0  1  0  0  0  0  0  0  0  0  0
   36.2420   31.5460   39.0500 H   0  0  0  0  0  0  0  0  0  0  0  0
   37.9480   30.3440   39.0000 H   0  0  0  0  0  0  0  0  0  0  0  0
   38.4720   32.3170   42.0170 H   0  0  0  0  0  0  0  0  0  0  0  0
   39.6290   32.9340   40.7900 H   0  0  0  0  0  0  0  0  0  0  0  0
   36.9530   33.5120   40.6220 H   0  0  0  0  0  0  0  0  0  0  0  0
   35.8620   31.3520   40.9910 O   0  0  0  0  0  0  0  0  0  0  0  0
   34.9610   31.5970   40.7090 H   0  0  0  0  0  0  0  0  0  0  0  0
   38.0960   33.1290   38.9060 O   0  0  0  0  0  0  0  0  0  0  0  0
   37.5520   32.7610   38.1430 H   0  0  0  0  0  0  0  0  0  0  0  0
  1 28  1  0  0  0  0
  2  1  1  0  0  0  0
  3  1  1  0  0  0  0
  4  5  1  0  0  0  0
  5  6  1  0  0  0  0
  6  1  1  0  0  0  0
  7  6  2  0  0  0  0
  7 11  1  0  0  0  0
  8  7  1  0  0  0  0
  9 10  1  0  0  0  0
  9  8  2  0  0  0  0
 10  5  2  0  0  0  0
 12  8  1  0  0  0  0
 13  9  1  0  0  0  0
 14 24  1  0  0  0  0
 14 10  1  0  0  0  0
 15 14  1  0  0  0  0
 16 15  1  0  0  0  0
 17 15  2  0  0  0  0
 17 18  1  0  0  0  0
 18 19  2  0  0  0  0
 18 24  1  0  0  0  0
 19 20  1  0  0  0  0
 20 21  2  0  0  0  0
 21 22  1  0  0  0  0
 23 21  1  0  0  0  0
 24 23  2  0  0  0  0
 25 19  1  0  0  0  0
 26 25  1  0  0  0  0
 27 25  1  0  0  0  0
 28 29  2  0  0  0  0
 28 33  1  0  0  0  0
 29 30  1  0  0  0  0
 30 34  1  0  0  0  0
 30 31  2  0  0  0  0
 32 35  1  0  0  0  0
 32 31  1  0  0  0  0
 33 32  2  0  0  0  0
 36 41  1  6  0  0  0
 36 37  1  0  0  0  0
 36 40  1  0  0  0  0
 36 46  1  0  0  0  0
 37 42  1  6  0  0  0
 37 38  1  0  0  0  0
 37 29  1  0  0  0  0
 38 39  1  0  0  0  0
 39 43  1  0  0  0  0
 40 45  1  1  0  0  0
 40 39  1  0  0  0  0
 44 39  1  0  0  0  0
 47 46  1  0  0  0  0
 48 40  1  0  0  0  0
 49 48  1  0  0  0  0
M  END
>  <minimizedAffinity>
-6.60167408

$$$$

 OpenBabel03242514513D

 49 53  0  0  1  0  0  0  0  0999 V2000
   36.6640   28.2070   40.6920 C   0  0  0  0  0  0  0  0  0  0  0  0
   36.5370   28.4150   39.5830 H   0  0  0  0  0  0  0  0  0  0  0  0
   35.7100   28.4490   41.1180 H   0  0  0  0  0  0  0  0  0  0  0  0
   37.9960   30.1770   39.0810 F   0  0  0  0  0  0  0  0  0  0  0  0
   38.3210   30.0220   40.3590 C   0  0  0  0  0  0  0  0  0  0  0  0
   37.7180   29.1100   41.1860 C   0  0  0  0  0  0  0  0  0  0  0  0
   38.0920   29.0210   42.5150 C   0  0  0  0  0  0  0  0  0  0  0  0
   39.0820   29.8780   42.9450 C   0  0  0  0  0  0  0  0  0  0  0  0
   39.7340   30.8210   42.1630 C   0  0  0  0  0  0  0  0  0  0  0  0
   39.3310   30.8860   40.8240 C   0  0  0  0  0  0  0  0  0  0  0  0
   37.6410   28.3200   43.1900 H   0  0  0  0  0  0  0  0  0  0  0  0
   39.3740   29.8060   43.9870 H   0  0  0  0  0  0  0  0  0  0  0  0
   40.4950   31.4610   42.5440 H   0  0  0  0  0  0  0  0  0  0  0  0
   39.9680   31.8370   39.9770 N   0  0  0  0  0  0  0  0  0  0  0  0
   39.8250   33.1900   40.0610 C   0  0  0  0  0  0  0  0  0  0  0  0
   39.2260   33.7620   40.7580 H   0  0  0  0  0  0  0  0  0  0  0  0
   40.5460   33.8280   39.1310 N   0  0  0  0  0  0  0  0  0  0  0  0
   41.1800   32.8950   38.4150 C   0  0  0  0  0  0  0  0  0  0  0  0
   42.0620   32.8850   37.3340 C   0  0  0  0  0  0  0  0  0  0  0  0
   42.5440   31.7220   36.8210 N   0  0  0  0  0  0  0  0  0  0  0  0
   42.1640   30.5470   37.3680 C   0  0  0  0  0  0  0  0  0  0  0  0
   42.5980   29.6670   36.8940 H   0  0  0  0  0  0  0  0  0  0  0  0
   41.3090   30.5250   38.4190 N   0  0  0  0  0  0  0  0  0  0  0  0
   40.8190   31.6560   38.9440 C   0  0  0  0  0  0  0  0  0  0  0  0
   42.4230   34.1540   36.8040 N   0  0  0  0  0  0  0  0  0  0  0  0
   41.7660   34.5940   36.1060 H   0  0  0  0  0  0  0  0  0  0  0  0
   43.1780   34.8620   36.8740 H   0  0  0  0  0  0  0  0  0  0  0  0
   37.0630   26.7760   40.7190 C   0  0  0  0  0  0  0  0  0  0  0  0
   37.4720   26.2070   39.5240 C   0  0  0  0  0  0  0  0  0  0  0  0
   37.8600   24.8540   39.5710 C   0  0  0  0  0  0  0  0  0  0  0  0
   37.8150   24.1890   40.7530 N   0  0  0  0  0  0  0  0  0  0  0  0
   37.4100   24.7920   41.8800 C   0  0  0  0  0  0  0  0  0  0  0  0
   37.0440   26.0590   41.8510 N   0  0  0  0  0  0  0  0  0  0  0  0
   38.1900   24.3480   38.6750 H   0  0  0  0  0  0  0  0  0  0  0  0
   37.3520   24.3230   42.8520 H   0  0  0  0  0  0  0  0  0  0  0  0
   38.8980   27.4190   37.8750 C   0  0  2  0  0  0  0  0  0  0  0  0
   37.4640   26.9210   38.2190 C   0  0  1  0  0  0  0  0  0  0  0  0
   36.9770   26.2410   37.1730 O   0  0  0  0  0  0  0  0  0  0  0  0
   37.9720   25.9500   36.2770 C   0  0  0  0  0  0  0  0  0  0  0  0
   38.8820   27.1400   36.3530 C   0  0  1  0  0  0  0  0  0  0  0  0
   39.0620   28.4810   37.9470 H   0  0  0  0  0  0  0  0  0  0  0  0
   37.0730   27.8950   38.1750 H   0  0  0  0  0  0  0  0  0  0  0  0
   38.5390   25.0320   36.4630 H   0  0  0  0  0  0  0  0  0  0  0  0
   37.5020   25.8760   35.2630 H   0  0  0  0  0  0  0  0  0  0  0  0
   39.9190   26.9250   36.0260 H   0  0  0  0  0  0  0  0  0  0  0  0
   39.8900   26.7500   38.4670 O   0  0  0  0  0  0  0  0  0  0  0  0
   40.6570   27.3210   38.6600 H   0  0  0  0  0  0  0  0  0  0  0  0
   38.2600   28.1570   35.6640 O   0  0  0  0  0  0  0  0  0  0  0  0
   38.2890   29.0210   36.1790 H   0  0  0  0  0  0  0  0  0  0  0  0
  1 28  1  0  0  0  0
  1  3  1  0  0  0  0
  1  6  1  0  0  0  0
  2  1  1  0  0  0  0
  4  5  1  0  0  0  0
  5 10  2  0  0  0  0
  5  6  1  0  0  0  0
  6  7  2  0  0  0  0
  7  8  1  0  0  0  0
  7 11  1  0  0  0  0
  8 12  1  0  0  0  0
  9 13  1  0  0  0  0
  9  8  2  0  0  0  0
 10  9  1  0  0  0  0
 14 15  1  0  0  0  0
 14 10  1  0  0  0  0
 15 16  1  0  0  0  0
 17 15  2  0  0  0  0
 18 24  1  0  0  0  0
 18 17  1  0  0  0  0
 19 18  2  0  0  0  0
 20 19  1  0  0  0  0
 20 21  2  0  0  0  0
 21 23  1  0  0  0  0
 22 21  1  0  0  0  0
 23 24  2  0  0  0  0
 24 14  1  0  0  0  0
 25 27  1  0  0  0  0
 25 19  1  0  0  0  0
 26 25  1  0  0  0  0
 28 33  1  0  0  0  0
 29 30  1  0  0  0  0
 29 28  2  0  0  0  0
 30 31  2  0  0  0  0
 31 32  1  0  0  0  0
 32 35  1  0  0  0  0
 33 32  2  0  0  0  0
 34 30  1  0  0  0  0
 36 41  1  1  0  0  0
 36 37  1  0  0  0  0
 36 46  1  0  0  0  0
 37 42  1  1  0  0  0
 37 29  1  0  0  0  0
 38 37  1  0  0  0  0
 39 40  1  0  0  0  0
 39 43  1  0  0  0  0
 39 38  1  0  0  0  0
 40 45  1  6  0  0  0
 40 36  1  0  0  0  0
 44 39  1  0  0  0  0
 46 47  1  0  0  0  0
 48 49  1  0  0  0  0
 48 40  1  0  0  0  0
M  END
>  <minimizedAffinity>
-6.49958706

$$$$

 OpenBabel03242514513D

 49 53  0  0  1  0  0  0  0  0999 V2000
   39.8110   28.2840   43.1760 C   0  0  0  0  0  0  0  0  0  0  0  0
   39.0230   29.0850   43.0150 H   0  0  0  0  0  0  0  0  0  0  0  0
   39.7540   28.0630   44.2240 H   0  0  0  0  0  0  0  0  0  0  0  0
   40.1630   30.3990   41.2650 F   0  0  0  0  0  0  0  0  0  0  0  0
   41.2100   29.8790   41.8910 C   0  0  0  0  0  0  0  0  0  0  0  0
   41.1130   28.8770   42.8230 C   0  0  0  0  0  0  0  0  0  0  0  0
   42.2470   28.3990   43.4530 C   0  0  0  0  0  0  0  0  0  0  0  0
   43.4500   28.9730   43.0980 C   0  0  0  0  0  0  0  0  0  0  0  0
   43.6190   29.9870   42.1660 C   0  0  0  0  0  0  0  0  0  0  0  0
   42.4520   30.4470   41.5470 C   0  0  0  0  0  0  0  0  0  0  0  0
   42.2070   27.6180   44.1860 H   0  0  0  0  0  0  0  0  0  0  0  0
   44.3370   28.5960   43.5940 H   0  0  0  0  0  0  0  0  0  0  0  0
   44.5730   30.3970   41.9260 H   0  0  0  0  0  0  0  0  0  0  0  0
   42.5700   31.4870   40.5810 N   0  0  0  0  0  0  0  0  0  0  0  0
   42.7930   32.8020   40.8600 C   0  0  0  0  0  0  0  0  0  0  0  0
   42.9160   33.2740   41.8260 H   0  0  0  0  0  0  0  0  0  0  0  0
   42.8560   33.5460   39.7490 N   0  0  0  0  0  0  0  0  0  0  0  0
   42.6740   32.7220   38.7120 C   0  0  0  0  0  0  0  0  0  0  0  0
   42.6260   32.8500   37.3240 C   0  0  0  0  0  0  0  0  0  0  0  0
   42.4160   31.7760   36.5190 N   0  0  0  0  0  0  0  0  0  0  0  0
   42.2490   30.5540   37.0710 C   0  0  0  0  0  0  0  0  0  0  0  0
   42.0850   29.7520   36.3510 H   0  0  0  0  0  0  0  0  0  0  0  0
   42.2910   30.3990   38.4170 N   0  0  0  0  0  0  0  0  0  0  0  0
   42.4970   31.4410   39.2330 C   0  0  0  0  0  0  0  0  0  0  0  0
   42.8090   34.1610   36.8060 N   0  0  0  0  0  0  0  0  0  0  0  0
   41.9650   34.7920   36.7680 H   0  0  0  0  0  0  0  0  0  0  0  0
   43.5560   34.7680   36.4160 H   0  0  0  0  0  0  0  0  0  0  0  0
   39.3880   27.2070   42.2430 C   0  0  0  0  0  0  0  0  0  0  0  0
   38.1970   27.3900   41.5600 C   0  0  0  0  0  0  0  0  0  0  0  0
   37.8180   26.3670   40.6700 C   0  0  0  0  0  0  0  0  0  0  0  0
   38.6170   25.2790   40.5270 N   0  0  0  0  0  0  0  0  0  0  0  0
   39.7610   25.1570   41.2140 C   0  0  0  0  0  0  0  0  0  0  0  0
   40.1290   26.1070   42.0520 N   0  0  0  0  0  0  0  0  0  0  0  0
   36.9000   26.4440   40.1050 H   0  0  0  0  0  0  0  0  0  0  0  0
   40.4430   24.3200   41.1480 H   0  0  0  0  0  0  0  0  0  0  0  0
   37.5410   29.6200   40.6550 C   0  0  2  0  0  0  0  0  0  0  0  0
   37.2930   28.5550   41.7630 C   0  0  1  0  0  0  0  0  0  0  0  0
   35.9830   28.2860   41.8230 O   0  0  0  0  0  0  0  0  0  0  0  0
   35.3330   28.7920   40.7280 C   0  0  0  0  0  0  0  0  0  0  0  0
   36.0750   30.0590   40.4230 C   0  0  1  0  0  0  0  0  0  0  0  0
   38.0400   30.5220   40.9670 H   0  0  0  0  0  0  0  0  0  0  0  0
   37.5130   29.2410   42.5270 H   0  0  0  0  0  0  0  0  0  0  0  0
   35.3060   28.1500   39.8410 H   0  0  0  0  0  0  0  0  0  0  0  0
   34.2780   29.0150   41.0340 H   0  0  0  0  0  0  0  0  0  0  0  0
   35.9720   30.3890   39.3700 H   0  0  0  0  0  0  0  0  0  0  0  0
   38.0790   29.1530   39.5270 O   0  0  0  0  0  0  0  0  0  0  0  0
   38.6600   29.8070   39.0960 H   0  0  0  0  0  0  0  0  0  0  0  0
   35.6750   30.9860   41.3590 O   0  0  0  0  0  0  0  0  0  0  0  0
   36.4620   31.4800   41.7450 H   0  0  0  0  0  0  0  0  0  0  0  0
  1  3  1  0  0  0  0
  2  1  1  0  0  0  0
  4  5  1  0  0  0  0
  5  6  1  0  0  0  0
  6  1  1  0  0  0  0
  6  7  2  0  0  0  0
  7 11  1  0  0  0  0
  8  7  1  0  0  0  0
  8 12  1  0  0  0  0
  9  8  2  0  0  0  0
 10  5  2  0  0  0  0
 10  9  1  0  0  0  0
 13  9  1  0  0  0  0
 14 15  1  0  0  0  0
 14 10  1  0  0  0  0
 15 16  1  0  0  0  0
 17 15  2  0  0  0  0
 18 24  1  0  0  0  0
 18 17  1  0  0  0  0
 19 18  2  0  0  0  0
 20 21  2  0  0  0  0
 20 19  1  0  0  0  0
 21 23  1  0  0  0  0
 22 21  1  0  0  0  0
 23 24  2  0  0  0  0
 24 14  1  0  0  0  0
 25 19  1  0  0  0  0
 26 25  1  0  0  0  0
 27 25  1  0  0  0  0
 28  1  1  0  0  0  0
 29 37  1  0  0  0  0
 29 28  2  0  0  0  0
 30 29  1  0  0  0  0
 31 30  2  0  0  0  0
 31 32  1  0  0  0  0
 32 33  2  0  0  0  0
 33 28  1  0  0  0  0
 34 30  1  0  0  0  0
 35 32  1  0  0  0  0
 36 41  1  1  0  0  0
 36 37  1  0  0  0  0
 37 38  1  0  0  0  0
 37 42  1  1  0  0  0
 39 44  1  0  0  0  0
 39 38  1  0  0  0  0
 40 45  1  6  0  0  0
 40 36  1  0  0  0  0
 40 39  1  0  0  0  0
 40 48  1  0  0  0  0
 43 39  1  0  0  0  0
 46 36  1  0  0  0  0
 47 46  1  0  0  0  0
 48 49  1  0  0  0  0
M  END
>  <minimizedAffinity>
-6.48543692

$$$$

 OpenBabel03242514513D

 49 53  0  0  1  0  0  0  0  0999 V2000
   41.4680   32.2080   37.1730 C   0  0  0  0  0  0  0  0  0  0  0  0
   41.2990   33.0380   36.4170 H   0  0  0  0  0  0  0  0  0  0  0  0
   41.0440   31.3380   36.7120 H   0  0  0  0  0  0  0  0  0  0  0  0
   39.6810   30.4570   38.5830 F   0  0  0  0  0  0  0  0  0  0  0  0
   39.8880   31.6940   39.0150 C   0  0  0  0  0  0  0  0  0  0  0  0
   40.7350   32.5780   38.3970 C   0  0  0  0  0  0  0  0  0  0  0  0
   40.9190   33.8460   38.9180 C   0  0  0  0  0  0  0  0  0  0  0  0
   40.2180   34.1610   40.0620 C   0  0  0  0  0  0  0  0  0  0  0  0
   39.3450   33.3180   40.7350 C   0  0  0  0  0  0  0  0  0  0  0  0
   39.1830   32.0420   40.1830 C   0  0  0  0  0  0  0  0  0  0  0  0
   41.5740   34.5620   38.4610 H   0  0  0  0  0  0  0  0  0  0  0  0
   40.3630   35.1560   40.4670 H   0  0  0  0  0  0  0  0  0  0  0  0
   38.8250   33.6100   41.6180 H   0  0  0  0  0  0  0  0  0  0  0  0
   38.2980   31.1370   40.8350 N   0  0  0  0  0  0  0  0  0  0  0  0
   36.9380   31.1620   40.7490 C   0  0  0  0  0  0  0  0  0  0  0  0
   36.3110   31.8470   40.1930 H   0  0  0  0  0  0  0  0  0  0  0  0
   36.3720   30.1870   41.4700 N   0  0  0  0  0  0  0  0  0  0  0  0
   37.3620   29.4980   42.0470 C   0  0  0  0  0  0  0  0  0  0  0  0
   37.4560   28.3960   42.8970 C   0  0  0  0  0  0  0  0  0  0  0  0
   38.6600   27.9250   43.3170 N   0  0  0  0  0  0  0  0  0  0  0  0
   39.7930   28.5340   42.9040 C   0  0  0  0  0  0  0  0  0  0  0  0
   40.7100   28.0890   43.2910 H   0  0  0  0  0  0  0  0  0  0  0  0
   39.7330   29.6060   42.0780 N   0  0  0  0  0  0  0  0  0  0  0  0
   38.5600   30.0910   41.6490 C   0  0  0  0  0  0  0  0  0  0  0  0
   36.2290   27.8010   43.2950 N   0  0  0  0  0  0  0  0  0  0  0  0
   35.7210   28.2310   44.1130 H   0  0  0  0  0  0  0  0  0  0  0  0
   35.6010   27.0160   43.0340 H   0  0  0  0  0  0  0  0  0  0  0  0
   42.9430   32.2160   37.3530 C   0  0  0  0  0  0  0  0  0  0  0  0
   43.5850   30.9890   37.3900 C   0  0  0  0  0  0  0  0  0  0  0  0
   44.9840   31.0150   37.5460 C   0  0  0  0  0  0  0  0  0  0  0  0
   45.6210   32.2090   37.6500 N   0  0  0  0  0  0  0  0  0  0  0  0
   44.9470   33.3670   37.6060 C   0  0  0  0  0  0  0  0  0  0  0  0
   43.6360   33.3580   37.4600 N   0  0  0  0  0  0  0  0  0  0  0  0
   45.5480   30.0930   37.5840 H   0  0  0  0  0  0  0  0  0  0  0  0
   45.3900   34.3500   37.6820 H   0  0  0  0  0  0  0  0  0  0  0  0
   42.7320   29.2150   35.8580 C   0  0  2  0  0  0  0  0  0  0  0  0
   42.8790   29.6800   37.3360 C   0  0  1  0  0  0  0  0  0  0  0  0
   43.4160   28.6860   38.0540 O   0  0  0  0  0  0  0  0  0  0  0  0
   43.9270   27.7150   37.2320 C   0  0  0  0  0  0  0  0  0  0  0  0
   42.9860   27.7020   36.0640 C   0  0  1  0  0  0  0  0  0  0  0  0
   41.7390   29.2610   35.4420 H   0  0  0  0  0  0  0  0  0  0  0  0
   41.8400   29.6570   37.4880 H   0  0  0  0  0  0  0  0  0  0  0  0
   44.9540   27.8650   36.8850 H   0  0  0  0  0  0  0  0  0  0  0  0
   43.8800   26.7430   37.7870 H   0  0  0  0  0  0  0  0  0  0  0  0
   43.4380   27.2950   35.1370 H   0  0  0  0  0  0  0  0  0  0  0  0
   43.6210   29.7330   35.0070 O   0  0  0  0  0  0  0  0  0  0  0  0
   43.2490   29.8560   34.1140 H   0  0  0  0  0  0  0  0  0  0  0  0
   41.8460   27.0550   36.4810 O   0  0  0  0  0  0  0  0  0  0  0  0
   41.0180   27.5560   36.2070 H   0  0  0  0  0  0  0  0  0  0  0  0
  1 28  1  0  0  0  0
  1  6  1  0  0  0  0
  2  1  1  0  0  0  0
  3  1  1  0  0  0  0
  4  5  1  0  0  0  0
  5 10  1  0  0  0  0
  6  7  1  0  0  0  0
  6  5  2  0  0  0  0
  7  8  2  0  0  0  0
  8 12  1  0  0  0  0
  8  9  1  0  0  0  0
  9 13  1  0  0  0  0
 10  9  2  0  0  0  0
 10 14  1  0  0  0  0
 11  7  1  0  0  0  0
 14 24  1  0  0  0  0
 15 14  1  0  0  0  0
 15 17  2  0  0  0  0
 16 15  1  0  0  0  0
 17 18  1  0  0  0  0
 18 19  1  0  0  0  0
 19 25  1  0  0  0  0
 19 20  2  0  0  0  0
 21 22  1  0  0  0  0
 21 20  1  0  0  0  0
 23 21  2  0  0  0  0
 24 18  2  0  0  0  0
 24 23  1  0  0  0  0
 25 26  1  0  0  0  0
 27 25  1  0  0  0  0
 28 29  2  0  0  0  0
 28 33  1  0  0  0  0
 29 30  1  0  0  0  0
 30 34  1  0  0  0  0
 30 31  2  0  0  0  0
 32 31  1  0  0  0  0
 32 35  1  0  0  0  0
 33 32  2  0  0  0  0
 36 41  1  6  0  0  0
 36 40  1  0  0  0  0
 36 37  1  0  0  0  0
 37 29  1  0  0  0  0
 37 42  1  1  0  0  0
 37 38  1  0  0  0  0
 39 44  1  0  0  0  0
 39 38  1  0  0  0  0
 40 45  1  6  0  0  0
 40 48  1  0  0  0  0
 40 39  1  0  0  0  0
 43 39  1  0  0  0  0
 46 36  1  0  0  0  0
 47 46  1  0  0  0  0
 49 48  1  0  0  0  0
M  END
>  <minimizedAffinity>
-6.42920446

$$$$

 OpenBabel03242514513D

 49 53  0  0  1  0  0  0  0  0999 V2000
   36.6650   28.1500   42.2710 C   0  0  0  0  0  0  0  0  0  0  0  0
   35.8870   27.3230   42.2460 H   0  0  0  0  0  0  0  0  0  0  0  0
   36.3120   28.8230   43.0280 H   0  0  0  0  0  0  0  0  0  0  0  0
   38.8300   29.7240   41.2320 F   0  0  0  0  0  0  0  0  0  0  0  0
   37.7300   29.5370   40.5130 C   0  0  0  0  0  0  0  0  0  0  0  0
   36.6650   28.7880   40.9430 C   0  0  0  0  0  0  0  0  0  0  0  0
   35.5600   28.6170   40.1290 C   0  0  0  0  0  0  0  0  0  0  0  0
   35.5910   29.2290   38.8940 C   0  0  0  0  0  0  0  0  0  0  0  0
   36.6330   29.9990   38.3980 C   0  0  0  0  0  0  0  0  0  0  0  0
   37.7360   30.1520   39.2460 C   0  0  0  0  0  0  0  0  0  0  0  0
   34.7110   28.0380   40.4330 H   0  0  0  0  0  0  0  0  0  0  0  0
   34.7240   29.0930   38.2590 H   0  0  0  0  0  0  0  0  0  0  0  0
   36.6080   30.4530   37.4340 H   0  0  0  0  0  0  0  0  0  0  0  0
   38.8330   30.9340   38.7860 N   0  0  0  0  0  0  0  0  0  0  0  0
   38.9860   32.2740   38.9840 C   0  0  0  0  0  0  0  0  0  0  0  0
   38.3280   32.9570   39.5060 H   0  0  0  0  0  0  0  0  0  0  0  0
   40.1160   32.7360   38.4360 N   0  0  0  0  0  0  0  0  0  0  0  0
   40.7300   31.6960   37.8630 C   0  0  0  0  0  0  0  0  0  0  0  0
   41.9100   31.4960   37.1470 C   0  0  0  0  0  0  0  0  0  0  0  0
   42.2610   30.2670   36.6850 N   0  0  0  0  0  0  0  0  0  0  0  0
   41.4510   29.2120   36.9230 C   0  0  0  0  0  0  0  0  0  0  0  0
   41.8110   28.2660   36.5160 H   0  0  0  0  0  0  0  0  0  0  0  0
   40.2990   29.3750   37.6160 N   0  0  0  0  0  0  0  0  0  0  0  0
   39.9300   30.5750   38.0830 C   0  0  0  0  0  0  0  0  0  0  0  0
   42.7180   32.6450   36.9300 N   0  0  0  0  0  0  0  0  0  0  0  0
   42.4730   33.2650   36.1120 H   0  0  0  0  0  0  0  0  0  0  0  0
   43.5410   33.1310   37.3360 H   0  0  0  0  0  0  0  0  0  0  0  0
   37.9230   27.4160   42.5650 C   0  0  0  0  0  0  0  0  0  0  0  0
   38.0500   26.1390   42.0450 C   0  0  0  0  0  0  0  0  0  0  0  0
   39.2540   25.4630   42.3210 C   0  0  0  0  0  0  0  0  0  0  0  0
   40.2080   26.0790   43.0650 N   0  0  0  0  0  0  0  0  0  0  0  0
   40.0300   27.3190   43.5430 C   0  0  0  0  0  0  0  0  0  0  0  0
   38.9070   27.9640   43.2920 N   0  0  0  0  0  0  0  0  0  0  0  0
   39.4200   24.4630   41.9470 H   0  0  0  0  0  0  0  0  0  0  0  0
   40.7470   27.8670   44.1390 H   0  0  0  0  0  0  0  0  0  0  0  0
   37.2730   25.5300   39.7550 C   0  0  2  0  0  0  0  0  0  0  0  0
   36.9800   25.4430   41.2800 C   0  0  1  0  0  0  0  0  0  0  0  0
   36.7520   24.1640   41.6070 O   0  0  0  0  0  0  0  0  0  0  0  0
   37.1310   23.3280   40.5900 C   0  0  0  0  0  0  0  0  0  0  0  0
   36.8160   24.1090   39.3480 C   0  0  1  0  0  0  0  0  0  0  0  0
   36.6340   26.1860   39.1850 H   0  0  0  0  0  0  0  0  0  0  0  0
   36.0480   25.9140   41.1690 H   0  0  0  0  0  0  0  0  0  0  0  0
   38.1810   23.0190   40.5820 H   0  0  0  0  0  0  0  0  0  0  0  0
   36.4930   22.4100   40.6510 H   0  0  0  0  0  0  0  0  0  0  0  0
   37.4060   23.7920   38.4650 H   0  0  0  0  0  0  0  0  0  0  0  0
   38.5530   25.7270   39.4310 O   0  0  0  0  0  0  0  0  0  0  0  0
   38.6510   26.2540   38.6160 H   0  0  0  0  0  0  0  0  0  0  0  0
   35.4510   24.0500   39.1800 O   0  0  0  0  0  0  0  0  0  0  0  0
   35.0680   24.9550   38.9660 H   0  0  0  0  0  0  0  0  0  0  0  0
  1 28  1  0  0  0  0
  1  3  1  0  0  0  0
  2  1  1  0  0  0  0
  5  6  1  0  0  0  0
  5  4  1  0  0  0  0
  6  1  1  0  0  0  0
  7 11  1  0  0  0  0
  7  6  2  0  0  0  0
  8  7  1  0  0  0  0
  9  8  2  0  0  0  0
  9 10  1  0  0  0  0
 10  5  2  0  0  0  0
 12  8  1  0  0  0  0
 13  9  1  0  0  0  0
 14 15  1  0  0  0  0
 14 10  1  0  0  0  0
 15 16  1  0  0  0  0
 17 15  2  0  0  0  0
 18 24  1  0  0  0  0
 18 17  1  0  0  0  0
 19 18  2  0  0  0  0
 20 21  2  0  0  0  0
 20 19  1  0  0  0  0
 21 23  1  0  0  0  0
 22 21  1  0  0  0  0
 23 24  2  0  0  0  0
 24 14  1  0  0  0  0
 25 19  1  0  0  0  0
 25 27  1  0  0  0  0
 26 25  1  0  0  0  0
 28 33  1  0  0  0  0
 29 30  1  0  0  0  0
 29 28  2  0  0  0  0
 30 31  2  0  0  0  0
 31 32  1  0  0  0  0
 32 35  1  0  0  0  0
 33 32  2  0  0  0  0
 34 30  1  0  0  0  0
 36 41  1  6  0  0  0
 36 37  1  0  0  0  0
 37 42  1  1  0  0  0
 37 38  1  0  0  0  0
 37 29  1  0  0  0  0
 39 44  1  0  0  0  0
 39 38  1  0  0  0  0
 40 45  1  6  0  0  0
 40 36  1  0  0  0  0
 40 39  1  0  0  0  0
 43 39  1  0  0  0  0
 46 36  1  0  0  0  0
 47 46  1  0  0  0  0
 48 40  1  0  0  0  0
 49 48  1  0  0  0  0
M  END
>  <minimizedAffinity>
-6.32962751

$$$$

 OpenBabel03242514513D

 49 53  0  0  1  0  0  0  0  0999 V2000
   37.1460   28.1440   40.3650 C   0  0  0  0  0  0  0  0  0  0  0  0
   37.5740   27.6340   39.4460 H   0  0  0  0  0  0  0  0  0  0  0  0
   36.1070   27.8770   40.3560 H   0  0  0  0  0  0  0  0  0  0  0  0
   39.3620   29.3350   38.9810 F   0  0  0  0  0  0  0  0  0  0  0  0
   38.4190   30.0970   39.5200 C   0  0  0  0  0  0  0  0  0  0  0  0
   37.3300   29.5950   40.1830 C   0  0  0  0  0  0  0  0  0  0  0  0
   36.3730   30.4500   40.7000 C   0  0  0  0  0  0  0  0  0  0  0  0
   36.5760   31.8010   40.5150 C   0  0  0  0  0  0  0  0  0  0  0  0
   37.6540   32.3760   39.8560 C   0  0  0  0  0  0  0  0  0  0  0  0
   38.6020   31.4820   39.3450 C   0  0  0  0  0  0  0  0  0  0  0  0
   35.5090   30.0910   41.2230 H   0  0  0  0  0  0  0  0  0  0  0  0
   35.8250   32.4690   40.9210 H   0  0  0  0  0  0  0  0  0  0  0  0
   37.7650   33.4290   39.7400 H   0  0  0  0  0  0  0  0  0  0  0  0
   39.7290   32.0200   38.6600 N   0  0  0  0  0  0  0  0  0  0  0  0
   39.9650   31.9130   37.3220 C   0  0  0  0  0  0  0  0  0  0  0  0
   39.3630   31.4200   36.5700 H   0  0  0  0  0  0  0  0  0  0  0  0
   41.1040   32.5170   36.9640 N   0  0  0  0  0  0  0  0  0  0  0  0
   41.6400   33.0360   38.0730 C   0  0  0  0  0  0  0  0  0  0  0  0
   42.7850   33.7680   38.3880 C   0  0  0  0  0  0  0  0  0  0  0  0
   43.0500   34.1590   39.6620 N   0  0  0  0  0  0  0  0  0  0  0  0
   42.1880   33.8340   40.6500 C   0  0  0  0  0  0  0  0  0  0  0  0
   42.4800   34.1870   41.6390 H   0  0  0  0  0  0  0  0  0  0  0  0
   41.0670   33.1240   40.3750 N   0  0  0  0  0  0  0  0  0  0  0  0
   40.7820   32.7260   39.1270 C   0  0  0  0  0  0  0  0  0  0  0  0
   43.6520   34.0790   37.3050 N   0  0  0  0  0  0  0  0  0  0  0  0
   44.3510   33.3450   37.0150 H   0  0  0  0  0  0  0  0  0  0  0  0
   43.8520   34.8490   36.6380 H   0  0  0  0  0  0  0  0  0  0  0  0
   37.9680   27.5860   41.4700 C   0  0  0  0  0  0  0  0  0  0  0  0
   38.0460   26.2070   41.5700 C   0  0  0  0  0  0  0  0  0  0  0  0
   38.8400   25.6950   42.6140 C   0  0  0  0  0  0  0  0  0  0  0  0
   39.4760   26.5550   43.4500 N   0  0  0  0  0  0  0  0  0  0  0  0
   39.3640   27.8830   43.3040 C   0  0  0  0  0  0  0  0  0  0  0  0
   38.6230   28.3760   42.3310 N   0  0  0  0  0  0  0  0  0  0  0  0
   38.9450   24.6280   42.7510 H   0  0  0  0  0  0  0  0  0  0  0  0
   39.8430   28.6220   43.9320 H   0  0  0  0  0  0  0  0  0  0  0  0
   38.1230   24.9810   39.4000 C   0  0  2  0  0  0  0  0  0  0  0  0
   37.3010   25.2670   40.6890 C   0  0  1  0  0  0  0  0  0  0  0  0
   36.9350   24.1020   41.2400 O   0  0  0  0  0  0  0  0  0  0  0  0
   37.6290   23.0610   40.6800 C   0  0  0  0  0  0  0  0  0  0  0  0
   37.8020   23.4740   39.2480 C   0  0  1  0  0  0  0  0  0  0  0  0
   37.7510   25.4230   38.4900 H   0  0  0  0  0  0  0  0  0  0  0  0
   36.4850   25.6280   40.1370 H   0  0  0  0  0  0  0  0  0  0  0  0
   38.6030   22.8340   41.1250 H   0  0  0  0  0  0  0  0  0  0  0  0
   36.9850   22.1470   40.7520 H   0  0  0  0  0  0  0  0  0  0  0  0
   38.6610   22.9840   38.7470 H   0  0  0  0  0  0  0  0  0  0  0  0
   39.4400   25.1750   39.5090 O   0  0  0  0  0  0  0  0  0  0  0  0
   39.8380   25.4830   38.6740 H   0  0  0  0  0  0  0  0  0  0  0  0
   36.5870   23.2810   38.6310 O   0  0  0  0  0  0  0  0  0  0  0  0
   36.3320   24.0730   38.0660 H   0  0  0  0  0  0  0  0  0  0  0  0
  1 28  1  0  0  0  0
  2  1  1  0  0  0  0
  3  1  1  0  0  0  0
  4  5  1  0  0  0  0
  5  6  1  0  0  0  0
  6  1  1  0  0  0  0
  6  7  2  0  0  0  0
  7 11  1  0  0  0  0
  8  7  1  0  0  0  0
  8 12  1  0  0  0  0
  9  8  2  0  0  0  0
 10  5  2  0  0  0  0
 10  9  1  0  0  0  0
 13  9  1  0  0  0  0
 14 24  1  0  0  0  0
 14 10  1  0  0  0  0
 15 14  1  0  0  0  0
 16 15  1  0  0  0  0
 17 15  2  0  0  0  0
 17 18  1  0  0  0  0
 18 19  2  0  0  0  0
 18 24  1  0  0  0  0
 19 20  1  0  0  0  0
 20 21  2  0  0  0  0
 21 22  1  0  0  0  0
 23 21  1  0  0  0  0
 24 23  2  0  0  0  0
 25 19  1  0  0  0  0
 26 25  1  0  0  0  0
 27 25  1  0  0  0  0
 28 29  2  0  0  0  0
 28 33  1  0  0  0  0
 29 30  1  0  0  0  0
 30 34  1  0  0  0  0
 30 31  2  0  0  0  0
 32 31  1  0  0  0  0
 32 35  1  0  0  0  0
 33 32  2  0  0  0  0
 36 41  1  6  0  0  0
 36 46  1  0  0  0  0
 36 37  1  0  0  0  0
 37 42  1  6  0  0  0
 37 38  1  0  0  0  0
 37 29  1  0  0  0  0
 39 44  1  0  0  0  0
 39 43  1  0  0  0  0
 39 38  1  0  0  0  0
 40 45  1  6  0  0  0
 40 36  1  0  0  0  0
 40 39  1  0  0  0  0
 47 46  1  0  0  0  0
 48 40  1  0  0  0  0
 49 48  1  0  0  0  0
M  END
>  <minimizedAffinity>
-6.27552414

$$$$

 OpenBabel03242514513D

 49 53  0  0  1  0  0  0  0  0999 V2000
   37.9910   25.2210   40.0780 C   0  0  0  0  0  0  0  0  0  0  0  0
   38.3420   24.2840   40.6150 H   0  0  0  0  0  0  0  0  0  0  0  0
   38.8070   25.4770   39.4310 H   0  0  0  0  0  0  0  0  0  0  0  0
   39.1310   27.8550   39.9900 F   0  0  0  0  0  0  0  0  0  0  0  0
   38.3590   27.4910   41.0060 C   0  0  0  0  0  0  0  0  0  0  0  0
   37.7740   26.2550   41.1050 C   0  0  0  0  0  0  0  0  0  0  0  0
   36.9600   25.9530   42.1820 C   0  0  0  0  0  0  0  0  0  0  0  0
   36.7790   26.9420   43.1260 C   0  0  0  0  0  0  0  0  0  0  0  0
   37.3400   28.2100   43.0880 C   0  0  0  0  0  0  0  0  0  0  0  0
   38.1570   28.4830   41.9850 C   0  0  0  0  0  0  0  0  0  0  0  0
   36.4860   24.9980   42.2910 H   0  0  0  0  0  0  0  0  0  0  0  0
   36.1410   26.7030   43.9690 H   0  0  0  0  0  0  0  0  0  0  0  0
   37.1690   28.9400   43.8450 H   0  0  0  0  0  0  0  0  0  0  0  0
   38.7590   29.7700   41.8980 N   0  0  0  0  0  0  0  0  0  0  0  0
   39.9100   30.1480   42.5220 C   0  0  0  0  0  0  0  0  0  0  0  0
   40.5490   29.5610   43.1700 H   0  0  0  0  0  0  0  0  0  0  0  0
   40.2310   31.4200   42.2540 N   0  0  0  0  0  0  0  0  0  0  0  0
   39.2860   31.9020   41.4410 C   0  0  0  0  0  0  0  0  0  0  0  0
   39.0310   33.1190   40.8090 C   0  0  0  0  0  0  0  0  0  0  0  0
   37.9410   33.2920   40.0160 N   0  0  0  0  0  0  0  0  0  0  0  0
   37.0830   32.2650   39.8330 C   0  0  0  0  0  0  0  0  0  0  0  0
   36.2370   32.4930   39.1840 H   0  0  0  0  0  0  0  0  0  0  0  0
   37.3040   31.0710   40.4340 N   0  0  0  0  0  0  0  0  0  0  0  0
   38.3720   30.8730   41.2200 C   0  0  0  0  0  0  0  0  0  0  0  0
   39.9720   34.1590   41.0410 N   0  0  0  0  0  0  0  0  0  0  0  0
   39.8560   34.7330   41.9180 H   0  0  0  0  0  0  0  0  0  0  0  0
   40.8110   34.5890   40.6060 H   0  0  0  0  0  0  0  0  0  0  0  0
   36.7330   24.7780   39.4210 C   0  0  0  0  0  0  0  0  0  0  0  0
   36.2890   25.5150   38.3360 C   0  0  0  0  0  0  0  0  0  0  0  0
   35.1050   25.0740   37.7170 C   0  0  0  0  0  0  0  0  0  0  0  0
   34.4700   23.9760   38.2000 N   0  0  0  0  0  0  0  0  0  0  0  0
   34.9470   23.3000   39.2550 C   0  0  0  0  0  0  0  0  0  0  0  0
   36.0560   23.7020   39.8450 N   0  0  0  0  0  0  0  0  0  0  0  0
   34.7010   25.6030   36.8660 H   0  0  0  0  0  0  0  0  0  0  0  0
   34.4930   22.4190   39.6890 H   0  0  0  0  0  0  0  0  0  0  0  0
   37.9770   26.4010   36.7270 C   0  0  2  0  0  0  0  0  0  0  0  0
   36.9540   26.7530   37.8460 C   0  0  1  0  0  0  0  0  0  0  0  0
   36.1460   27.7260   37.4060 O   0  0  0  0  0  0  0  0  0  0  0  0
   36.2760   27.8900   36.0510 C   0  0  0  0  0  0  0  0  0  0  0  0
   37.7270   27.6100   35.7940 C   0  0  1  0  0  0  0  0  0  0  0  0
   39.0180   26.4820   36.9920 H   0  0  0  0  0  0  0  0  0  0  0  0
   37.6960   27.2000   38.4390 H   0  0  0  0  0  0  0  0  0  0  0  0
   35.6530   27.2460   35.4230 H   0  0  0  0  0  0  0  0  0  0  0  0
   36.0330   28.9580   35.8150 H   0  0  0  0  0  0  0  0  0  0  0  0
   37.9390   27.2960   34.7520 H   0  0  0  0  0  0  0  0  0  0  0  0
   37.7460   25.2530   36.0860 O   0  0  0  0  0  0  0  0  0  0  0  0
   38.5700   24.8170   35.7980 H   0  0  0  0  0  0  0  0  0  0  0  0
   38.4250   28.7200   36.2150 O   0  0  0  0  0  0  0  0  0  0  0  0
   39.2260   28.4620   36.7660 H   0  0  0  0  0  0  0  0  0  0  0  0
  1  2  1  0  0  0  0
  1  6  1  0  0  0  0
  3  1  1  0  0  0  0
  4  5  1  0  0  0  0
  5  6  2  0  0  0  0
  5 10  1  0  0  0  0
  6  7  1  0  0  0  0
  7 11  1  0  0  0  0
  7  8  2  0  0  0  0
  8 12  1  0  0  0  0
  9  8  1  0  0  0  0
  9 13  1  0  0  0  0
 10  9  2  0  0  0  0
 14 10  1  0  0  0  0
 14 15  1  0  0  0  0
 15 16  1  0  0  0  0
 17 15  2  0  0  0  0
 18 17  1  0  0  0  0
 19 25  1  0  0  0  0
 19 18  2  0  0  0  0
 20 19  1  0  0  0  0
 21 20  2  0  0  0  0
 21 23  1  0  0  0  0
 22 21  1  0  0  0  0
 23 24  2  0  0  0  0
 24 18  1  0  0  0  0
 24 14  1  0  0  0  0
 25 26  1  0  0  0  0
 27 25  1  0  0  0  0
 28 33  1  0  0  0  0
 28  1  1  0  0  0  0
 29 28  2  0  0  0  0
 30 31  2  0  0  0  0
 30 29  1  0  0  0  0
 31 32  1  0  0  0  0
 32 35  1  0  0  0  0
 32 33  2  0  0  0  0
 34 30  1  0  0  0  0
 36 41  1  1  0  0  0
 36 37  1  0  0  0  0
 37 29  1  0  0  0  0
 37 42  1  1  0  0  0
 38 37  1  0  0  0  0
 39 38  1  0  0  0  0
 40 45  1  6  0  0  0
 40 39  1  0  0  0  0
 40 48  1  0  0  0  0
 40 36  1  0  0  0  0
 43 39  1  0  0  0  0
 44 39  1  0  0  0  0
 46 36  1  0  0  0  0
 47 46  1  0  0  0  0
 48 49  1  0  0  0  0
M  END
>  <minimizedAffinity>
-6.20716238

$$$$
