
 OpenBabel03242521423D

 39 42  0  0  1  0  0  0  0  0999 V2000
   45.0590   35.2760   43.2210 C   0  0  0  0  0  0  0  0  0  0  0  0
   46.2020   34.5350   42.8610 C   0  0  0  0  0  0  0  0  0  0  0  0
   46.8150   33.7690   43.8680 C   0  0  0  0  0  0  0  0  0  0  0  0
   46.2880   33.7830   45.1020 N   0  0  0  0  0  0  0  0  0  0  0  0
   45.1810   34.5170   45.3980 C   0  0  0  0  0  0  0  0  0  0  0  0
   44.5720   35.2600   44.4580 N   0  0  0  0  0  0  0  0  0  0  0  0
   46.5360   34.5930   41.8580 H   0  0  0  0  0  0  0  0  0  0  0  0
   44.8400   34.4590   46.4150 H   0  0  0  0  0  0  0  0  0  0  0  0
   48.9940   33.7800   42.6620 C   0  0  2  0  0  0  0  0  0  0  0  0
   48.0000   33.0030   43.4830 C   0  0  2  0  0  0  0  0  0  0  0  0
   47.7320   31.9310   42.6070 O   0  0  0  0  0  0  0  0  0  0  0  0
   48.9880   31.4860   42.2390 C   0  0  0  0  0  0  0  0  0  0  0  0
   49.9650   32.6340   42.3420 C   0  0  1  0  0  0  0  0  0  0  0  0
   48.5940   34.0820   41.6790 H   0  0  0  0  0  0  0  0  0  0  0  0
   48.4720   32.6030   44.3860 H   0  0  0  0  0  0  0  0  0  0  0  0
   49.0150   31.0200   41.2290 H   0  0  0  0  0  0  0  0  0  0  0  0
   49.3080   30.7010   42.9590 H   0  0  0  0  0  0  0  0  0  0  0  0
   50.7240   32.4980   43.1320 H   0  0  0  0  0  0  0  0  0  0  0  0
   49.5880   34.8060   43.3510 O   0  0  0  0  0  0  0  0  0  0  0  0
   48.8680   35.3390   43.7650 H   0  0  0  0  0  0  0  0  0  0  0  0
   50.6150   32.9030   41.1530 O   0  0  0  0  0  0  0  0  0  0  0  0
   51.5810   33.0930   41.2440 H   0  0  0  0  0  0  0  0  0  0  0  0
   44.4080   36.1070   42.1330 C   0  0  0  0  0  0  0  0  0  0  0  0
   43.6860   36.7670   42.6730 H   0  0  0  0  0  0  0  0  0  0  0  0
   45.1280   36.7900   41.6590 H   0  0  0  0  0  0  0  0  0  0  0  0
   43.7130   35.2600   41.2090 N   0  0  0  0  0  0  0  0  0  0  0  0
   44.2950   34.2280   40.5520 C   0  0  0  0  0  0  0  0  0  0  0  0
   45.3130   33.8650   40.5860 H   0  0  0  0  0  0  0  0  0  0  0  0
   43.4140   33.6100   39.7560 N   0  0  0  0  0  0  0  0  0  0  0  0
   42.2500   34.2510   39.9010 C   0  0  0  0  0  0  0  0  0  0  0  0
   40.9760   34.1250   39.3840 C   0  0  0  0  0  0  0  0  0  0  0  0
   39.9570   34.9460   39.7250 N   0  0  0  0  0  0  0  0  0  0  0  0
   40.1880   35.9480   40.6230 C   0  0  0  0  0  0  0  0  0  0  0  0
   39.3500   36.5980   40.8840 H   0  0  0  0  0  0  0  0  0  0  0  0
   41.4150   36.0940   41.1460 N   0  0  0  0  0  0  0  0  0  0  0  0
   42.4460   35.2880   40.8190 C   0  0  0  0  0  0  0  0  0  0  0  0
   40.7990   33.0690   38.4580 N   0  0  0  0  0  0  0  0  0  0  0  0
   41.0740   32.7950   37.4880 H   0  0  0  0  0  0  0  0  0  0  0  0
   40.3690   32.1510   38.2810 H   0  0  0  0  0  0  0  0  0  0  0  0
  1  6  1  0  0  0  0
  2  1  2  0  0  0  0
  2  3  1  0  0  0  0
  3  4  2  0  0  0  0
  4  5  1  0  0  0  0
  5  8  1  0  0  0  0
  6  5  2  0  0  0  0
  7  2  1  0  0  0  0
  9 14  1  6  0  0  0
  9 19  1  0  0  0  0
  9 10  1  0  0  0  0
 10  3  1  0  0  0  0
 10 15  1  1  0  0  0
 11 10  1  0  0  0  0
 12 13  1  0  0  0  0
 12 11  1  0  0  0  0
 12 17  1  0  0  0  0
 13  9  1  0  0  0  0
 13 18  1  1  0  0  0
 16 12  1  0  0  0  0
 19 20  1  0  0  0  0
 21 22  1  0  0  0  0
 21 13  1  0  0  0  0
 23 24  1  0  0  0  0
 23  1  1  0  0  0  0
 25 23  1  0  0  0  0
 26 23  1  0  0  0  0
 27 28  1  0  0  0  0
 27 26  1  0  0  0  0
 29 30  1  0  0  0  0
 29 27  2  0  0  0  0
 30 36  1  0  0  0  0
 31 32  1  0  0  0  0
 31 30  2  0  0  0  0
 32 33  2  0  0  0  0
 33 34  1  0  0  0  0
 33 35  1  0  0  0  0
 36 35  2  0  0  0  0
 36 26  1  0  0  0  0
 37 31  1  0  0  0  0
 38 37  1  0  0  0  0
 39 37  1  0  0  0  0
M  END
>  <minimizedAffinity>
-6.29334021

>  <minimizedRMSD>
1.15588439

$$$$
