
 OpenBabel03252504093D

 30 32  0  0  0  0  0  0  0  0999 V2000
   48.5430   32.3970   40.6890 C   0  0  0  0  0  0  0  0  0  0  0  0
   49.3930   32.5050   41.7920 C   0  0  0  0  0  0  0  0  0  0  0  0
   48.9590   33.2470   42.8940 C   0  0  0  0  0  0  0  0  0  0  0  0
   47.7350   33.8270   42.8420 N   0  0  0  0  0  0  0  0  0  0  0  0
   46.9380   33.6990   41.7530 C   0  0  0  0  0  0  0  0  0  0  0  0
   47.3320   32.9880   40.6740 N   0  0  0  0  0  0  0  0  0  0  0  0
   49.6060   33.3410   43.7560 H   0  0  0  0  0  0  0  0  0  0  0  0
   45.6850   34.3640   41.8510 N   0  0  0  0  0  0  0  0  0  0  0  0
   45.3780   35.1750   42.9040 C   0  0  0  0  0  0  0  0  0  0  0  0
   46.0070   35.4050   43.7520 H   0  0  0  0  0  0  0  0  0  0  0  0
   44.1440   35.6880   42.7750 N   0  0  0  0  0  0  0  0  0  0  0  0
   43.6360   35.2100   41.6250 C   0  0  0  0  0  0  0  0  0  0  0  0
   42.4230   35.3870   40.9790 C   0  0  0  0  0  0  0  0  0  0  0  0
   42.2190   34.7430   39.8000 N   0  0  0  0  0  0  0  0  0  0  0  0
   43.1970   33.9470   39.2830 C   0  0  0  0  0  0  0  0  0  0  0  0
   42.9140   33.4930   38.3430 H   0  0  0  0  0  0  0  0  0  0  0  0
   44.4020   33.7520   39.8950 N   0  0  0  0  0  0  0  0  0  0  0  0
   44.5950   34.3940   41.0630 C   0  0  0  0  0  0  0  0  0  0  0  0
   50.7250   31.8310   41.7560 C   0  0  0  0  0  0  0  0  0  0  0  0
   50.5780   30.5360   41.2720 F   0  0  0  0  0  0  0  0  0  0  0  0
   51.5200   32.5020   40.8440 F   0  0  0  0  0  0  0  0  0  0  0  0
   51.3490   31.7440   42.9540 F   0  0  0  0  0  0  0  0  0  0  0  0
   41.4810   36.2400   41.6130 N   0  0  0  0  0  0  0  0  0  0  0  0
   41.5100   37.1910   41.1400 H   0  0  0  0  0  0  0  0  0  0  0  0
   40.8250   36.0810   42.4050 H   0  0  0  0  0  0  0  0  0  0  0  0
   48.9700   31.6810   39.6330 O   0  0  0  0  0  0  0  0  0  0  0  0
   49.3060   32.1370   38.3490 C   0  0  0  0  0  0  0  0  0  0  0  0
   48.6410   31.2900   37.4460 F   0  0  0  0  0  0  0  0  0  0  0  0
   48.9350   33.4520   38.2120 F   0  0  0  0  0  0  0  0  0  0  0  0
   50.6520   31.9460   38.1030 F   0  0  0  0  0  0  0  0  0  0  0  0
  1  2  1  0  0  0  0
  2  3  2  0  0  0  0
  3  7  1  0  0  0  0
  4  3  1  0  0  0  0
  5  8  1  0  0  0  0
  5  4  2  0  0  0  0
  6  1  2  0  0  0  0
  6  5  1  0  0  0  0
  8  9  1  0  0  0  0
  9 10  1  0  0  0  0
 11  9  2  0  0  0  0
 12 11  1  0  0  0  0
 13 23  1  0  0  0  0
 13 12  2  0  0  0  0
 14 13  1  0  0  0  0
 15 14  2  0  0  0  0
 15 17  1  0  0  0  0
 16 15  1  0  0  0  0
 17 18  2  0  0  0  0
 18 12  1  0  0  0  0
 18  8  1  0  0  0  0
 19  2  1  0  0  0  0
 19 22  1  0  0  0  0
 20 19  1  0  0  0  0
 21 19  1  0  0  0  0
 23 25  1  0  0  0  0
 24 23  1  0  0  0  0
 26  1  1  0  0  0  0
 27 26  1  0  0  0  0
 28 27  1  0  0  0  0
 29 27  1  0  0  0  0
 30 27  1  0  0  0  0
M  END
>  <minimizedAffinity>
-4.99473906

>  <minimizedRMSD>
7.25916719

$$$$
