
 OpenBabel03252504093D

 30 32  0  0  0  0  0  0  0  0999 V2000
   47.1300   34.1860   43.1500 C   0  0  0  0  0  0  0  0  0  0  0  0
   45.7340   34.2270   43.1390 C   0  0  0  0  0  0  0  0  0  0  0  0
   45.0340   33.1850   43.7550 C   0  0  0  0  0  0  0  0  0  0  0  0
   45.7410   32.1850   44.3340 N   0  0  0  0  0  0  0  0  0  0  0  0
   47.0970   32.1790   44.3240 C   0  0  0  0  0  0  0  0  0  0  0  0
   47.7980   33.1730   43.7360 N   0  0  0  0  0  0  0  0  0  0  0  0
   43.9520   33.2020   43.7550 H   0  0  0  0  0  0  0  0  0  0  0  0
   47.6930   31.0630   44.9720 N   0  0  0  0  0  0  0  0  0  0  0  0
   47.3820   30.7200   46.2550 C   0  0  0  0  0  0  0  0  0  0  0  0
   46.6830   31.2220   46.9090 H   0  0  0  0  0  0  0  0  0  0  0  0
   48.0680   29.6360   46.6460 N   0  0  0  0  0  0  0  0  0  0  0  0
   48.8390   29.2610   45.6090 C   0  0  0  0  0  0  0  0  0  0  0  0
   49.7460   28.2300   45.4270 C   0  0  0  0  0  0  0  0  0  0  0  0
   50.3750   28.1280   44.2260 N   0  0  0  0  0  0  0  0  0  0  0  0
   50.1060   29.0280   43.2400 C   0  0  0  0  0  0  0  0  0  0  0  0
   50.6680   28.8390   42.3360 H   0  0  0  0  0  0  0  0  0  0  0  0
   49.2180   30.0550   43.3890 N   0  0  0  0  0  0  0  0  0  0  0  0
   48.6010   30.1480   44.5800 C   0  0  0  0  0  0  0  0  0  0  0  0
   45.0420   35.3710   42.4760 C   0  0  0  0  0  0  0  0  0  0  0  0
   45.5950   36.5680   42.9180 F   0  0  0  0  0  0  0  0  0  0  0  0
   45.3000   35.2980   41.1180 F   0  0  0  0  0  0  0  0  0  0  0  0
   43.7090   35.4370   42.7010 F   0  0  0  0  0  0  0  0  0  0  0  0
   49.9450   27.3530   46.5260 N   0  0  0  0  0  0  0  0  0  0  0  0
   49.3860   26.4650   46.3600 H   0  0  0  0  0  0  0  0  0  0  0  0
   50.5110   27.4480   47.3960 H   0  0  0  0  0  0  0  0  0  0  0  0
   47.7930   35.1930   42.5540 O   0  0  0  0  0  0  0  0  0  0  0  0
   48.9310   35.1230   41.7350 C   0  0  0  0  0  0  0  0  0  0  0  0
   50.0380   35.1220   42.6000 F   0  0  0  0  0  0  0  0  0  0  0  0
   48.8690   33.9970   40.9510 F   0  0  0  0  0  0  0  0  0  0  0  0
   49.0580   36.2760   40.9830 F   0  0  0  0  0  0  0  0  0  0  0  0
  1  6  1  0  0  0  0
  2  1  2  0  0  0  0
  2  3  1  0  0  0  0
  3  4  2  0  0  0  0
  5  4  1  0  0  0  0
  5  8  1  0  0  0  0
  6  5  2  0  0  0  0
  7  3  1  0  0  0  0
  8  9  1  0  0  0  0
  9 11  2  0  0  0  0
  9 10  1  0  0  0  0
 12 11  1  0  0  0  0
 13 12  1  0  0  0  0
 13 23  1  0  0  0  0
 14 13  2  0  0  0  0
 15 17  2  0  0  0  0
 15 14  1  0  0  0  0
 16 15  1  0  0  0  0
 17 18  1  0  0  0  0
 18  8  1  0  0  0  0
 18 12  2  0  0  0  0
 19 22  1  0  0  0  0
 19 20  1  0  0  0  0
 19  2  1  0  0  0  0
 21 19  1  0  0  0  0
 23 25  1  0  0  0  0
 24 23  1  0  0  0  0
 26  1  1  0  0  0  0
 27 26  1  0  0  0  0
 27 28  1  0  0  0  0
 29 27  1  0  0  0  0
 30 27  1  0  0  0  0
M  END
>  <minimizedAffinity>
-5.27343988

>  <minimizedRMSD>
0.612385452

$$$$
