
 OpenBabel03252508563D

 29 31  0  0  0  0  0  0  0  0999 V2000
   46.8440   33.5610   41.1960 C   0  0  0  0  0  0  0  0  0  0  0  0
   47.6570   33.6680   41.9210 H   0  0  0  0  0  0  0  0  0  0  0  0
   46.3760   32.5540   41.1770 H   0  0  0  0  0  0  0  0  0  0  0  0
   47.3420   33.7370   39.8240 N   0  0  0  0  0  0  0  0  0  0  0  0
   48.2600   34.6130   39.3420 C   0  0  0  0  0  0  0  0  0  0  0  0
   48.7610   35.3370   39.9950 H   0  0  0  0  0  0  0  0  0  0  0  0
   48.4050   34.4160   38.0180 N   0  0  0  0  0  0  0  0  0  0  0  0
   47.5800   33.4270   37.6990 C   0  0  0  0  0  0  0  0  0  0  0  0
   47.3470   32.8440   36.4780 C   0  0  0  0  0  0  0  0  0  0  0  0
   46.4410   31.8290   36.3950 N   0  0  0  0  0  0  0  0  0  0  0  0
   45.7870   31.4150   37.5180 C   0  0  0  0  0  0  0  0  0  0  0  0
   45.0570   30.6020   37.4660 H   0  0  0  0  0  0  0  0  0  0  0  0
   46.0140   31.9850   38.7170 N   0  0  0  0  0  0  0  0  0  0  0  0
   46.8940   32.9730   38.8050 C   0  0  0  0  0  0  0  0  0  0  0  0
   47.9910   33.2230   35.2640 N   0  0  0  0  0  0  0  0  0  0  0  0
   48.3540   32.5530   34.5500 H   0  0  0  0  0  0  0  0  0  0  0  0
   48.1790   34.2070   34.9360 H   0  0  0  0  0  0  0  0  0  0  0  0
   45.7520   34.6080   41.3920 C   0  0  0  0  0  0  0  0  0  0  0  0
   44.8580   34.2710   40.8390 H   0  0  0  0  0  0  0  0  0  0  0  0
   46.0740   35.5920   41.0110 H   0  0  0  0  0  0  0  0  0  0  0  0
   44.5200   35.9240   44.6870 C   0  0  0  0  0  0  0  0  0  0  0  0
   44.7910   35.8460   43.3100 C   0  0  0  0  0  0  0  0  0  0  0  0
   45.4510   34.7200   42.8410 C   0  0  0  0  0  0  0  0  0  0  0  0
   45.7950   33.7620   43.7320 N   0  0  0  0  0  0  0  0  0  0  0  0
   45.5250   33.8530   45.0530 C   0  0  0  0  0  0  0  0  0  0  0  0
   44.8880   34.9330   45.5310 N   0  0  0  0  0  0  0  0  0  0  0  0
   44.0040   36.8360   44.9600 H   0  0  0  0  0  0  0  0  0  0  0  0
   44.5120   36.6190   42.6070 H   0  0  0  0  0  0  0  0  0  0  0  0
   45.8310   33.0460   45.7060 H   0  0  0  0  0  0  0  0  0  0  0  0
  1 18  1  0  0  0  0
  1  2  1  0  0  0  0
  3  1  1  0  0  0  0
  4  1  1  0  0  0  0
  5  4  1  0  0  0  0
  5  6  1  0  0  0  0
  7  5  2  0  0  0  0
  8  7  1  0  0  0  0
  8 14  1  0  0  0  0
  9  8  2  0  0  0  0
 10  9  1  0  0  0  0
 10 11  2  0  0  0  0
 11 13  1  0  0  0  0
 12 11  1  0  0  0  0
 13 14  2  0  0  0  0
 14  4  1  0  0  0  0
 15  9  1  0  0  0  0
 16 15  1  0  0  0  0
 17 15  1  0  0  0  0
 18 23  1  0  0  0  0
 19 18  1  0  0  0  0
 20 18  1  0  0  0  0
 21 27  1  0  0  0  0
 21 26  1  0  0  0  0
 22 21  2  0  0  0  0
 23 22  1  0  0  0  0
 23 24  2  0  0  0  0
 24 25  1  0  0  0  0
 25 26  2  0  0  0  0
 25 29  1  0  0  0  0
 28 22  1  0  0  0  0
M  END
>  <minimizedAffinity>
-4.5011673

>  <minimizedRMSD>
1.7873255

$$$$
