
 OpenBabel03252504203D

 24 26  0  0  0  0  0  0  0  0999 V2000
   47.6990   33.4860   40.1280 C   0  0  0  0  0  0  0  0  0  0  0  0
   49.0440   33.2180   40.3810 C   0  0  0  0  0  0  0  0  0  0  0  0
   49.5110   33.3020   41.7150 C   0  0  0  0  0  0  0  0  0  0  0  0
   48.5960   33.6450   42.6700 N   0  0  0  0  0  0  0  0  0  0  0  0
   47.3050   33.8970   42.3820 C   0  0  0  0  0  0  0  0  0  0  0  0
   46.8560   33.8180   41.1190 N   0  0  0  0  0  0  0  0  0  0  0  0
   49.7400   32.9450   39.5810 H   0  0  0  0  0  0  0  0  0  0  0  0
   50.5410   33.0940   41.8950 H   0  0  0  0  0  0  0  0  0  0  0  0
   46.4200   34.2500   43.4490 N   0  0  0  0  0  0  0  0  0  0  0  0
   45.5070   35.2410   43.4410 C   0  0  0  0  0  0  0  0  0  0  0  0
   45.2790   35.9420   42.6370 H   0  0  0  0  0  0  0  0  0  0  0  0
   44.8730   35.2440   44.6470 N   0  0  0  0  0  0  0  0  0  0  0  0
   45.4120   34.2550   45.3640 C   0  0  0  0  0  0  0  0  0  0  0  0
   45.1960   33.7700   46.6360 C   0  0  0  0  0  0  0  0  0  0  0  0
   45.8750   32.7490   47.1400 N   0  0  0  0  0  0  0  0  0  0  0  0
   46.8330   32.1150   46.4320 C   0  0  0  0  0  0  0  0  0  0  0  0
   47.4300   31.2800   46.7690 H   0  0  0  0  0  0  0  0  0  0  0  0
   47.0450   32.5880   45.1910 N   0  0  0  0  0  0  0  0  0  0  0  0
   46.3910   33.6090   44.6360 C   0  0  0  0  0  0  0  0  0  0  0  0
   44.2190   34.3390   47.4940 N   0  0  0  0  0  0  0  0  0  0  0  0
   43.5390   33.6630   47.9290 H   0  0  0  0  0  0  0  0  0  0  0  0
   43.8370   35.1950   47.9260 H   0  0  0  0  0  0  0  0  0  0  0  0
   47.2120   33.3500   38.3990 S   0  0  0  0  0  0  0  0  0  0  0  0
   47.7820   32.2420   37.7710 H   0  0  0  0  0  0  0  0  0  0  0  0
  1  2  2  0  0  0  0
  1  6  1  0  0  0  0
  2  3  1  0  0  0  0
  3  8  1  0  0  0  0
  3  4  2  0  0  0  0
  5  4  1  0  0  0  0
  5  9  1  0  0  0  0
  6  5  2  0  0  0  0
  7  2  1  0  0  0  0
  9 19  1  0  0  0  0
 10  9  1  0  0  0  0
 10 12  2  0  0  0  0
 11 10  1  0  0  0  0
 12 13  1  0  0  0  0
 13 14  1  0  0  0  0
 14 15  2  0  0  0  0
 14 20  1  0  0  0  0
 16 17  1  0  0  0  0
 16 15  1  0  0  0  0
 18 16  2  0  0  0  0
 19 18  1  0  0  0  0
 19 13  2  0  0  0  0
 20 22  1  0  0  0  0
 20 21  1  0  0  0  0
 23  1  1  0  0  0  0
 24 23  1  0  0  0  0
M  END
>  <minimizedAffinity>
-5.29098034

>  <minimizedRMSD>
4.50398493

$$$$
