
 OpenBabel03252508563D

 29 31  0  0  0  0  0  0  0  0999 V2000
   46.4150   33.4050   41.2100 C   0  0  0  0  0  0  0  0  0  0  0  0
   47.1610   33.1870   41.9820 H   0  0  0  0  0  0  0  0  0  0  0  0
   45.7040   32.5760   41.0130 H   0  0  0  0  0  0  0  0  0  0  0  0
   47.0600   33.6250   39.9080 N   0  0  0  0  0  0  0  0  0  0  0  0
   48.0850   34.4500   39.5790 C   0  0  0  0  0  0  0  0  0  0  0  0
   48.5710   35.0880   40.3250 H   0  0  0  0  0  0  0  0  0  0  0  0
   48.3470   34.3260   38.2650 N   0  0  0  0  0  0  0  0  0  0  0  0
   47.4860   33.4310   37.7990 C   0  0  0  0  0  0  0  0  0  0  0  0
   47.3350   32.9460   36.5240 C   0  0  0  0  0  0  0  0  0  0  0  0
   46.3660   32.0170   36.2840 N   0  0  0  0  0  0  0  0  0  0  0  0
   45.5730   31.5880   37.3070 C   0  0  0  0  0  0  0  0  0  0  0  0
   44.7940   30.8430   37.1270 H   0  0  0  0  0  0  0  0  0  0  0  0
   45.7210   32.0620   38.5600 N   0  0  0  0  0  0  0  0  0  0  0  0
   46.6600   32.9660   38.8000 C   0  0  0  0  0  0  0  0  0  0  0  0
   48.1230   33.3460   35.4060 N   0  0  0  0  0  0  0  0  0  0  0  0
   48.5050   32.6950   34.6850 H   0  0  0  0  0  0  0  0  0  0  0  0
   48.4180   34.3300   35.1670 H   0  0  0  0  0  0  0  0  0  0  0  0
   45.6210   34.6730   41.5140 C   0  0  0  0  0  0  0  0  0  0  0  0
   44.6660   34.6120   40.9640 H   0  0  0  0  0  0  0  0  0  0  0  0
   46.1760   35.5720   41.1970 H   0  0  0  0  0  0  0  0  0  0  0  0
   44.5010   35.8890   44.8870 C   0  0  0  0  0  0  0  0  0  0  0  0
   44.7240   35.8510   43.5000 C   0  0  0  0  0  0  0  0  0  0  0  0
   45.3720   34.7430   42.9750 C   0  0  0  0  0  0  0  0  0  0  0  0
   45.7530   33.7620   43.8270 N   0  0  0  0  0  0  0  0  0  0  0  0
   45.5300   33.8150   45.1580 C   0  0  0  0  0  0  0  0  0  0  0  0
   44.9050   34.8770   45.6890 N   0  0  0  0  0  0  0  0  0  0  0  0
   43.9910   36.7900   45.2030 H   0  0  0  0  0  0  0  0  0  0  0  0
   44.4150   36.6410   42.8280 H   0  0  0  0  0  0  0  0  0  0  0  0
   45.8630   32.9930   45.7770 H   0  0  0  0  0  0  0  0  0  0  0  0
  1 18  1  0  0  0  0
  1  2  1  0  0  0  0
  3  1  1  0  0  0  0
  4  1  1  0  0  0  0
  5  4  1  0  0  0  0
  5  6  1  0  0  0  0
  7  5  2  0  0  0  0
  8  7  1  0  0  0  0
  8 14  1  0  0  0  0
  9  8  2  0  0  0  0
 10  9  1  0  0  0  0
 10 11  2  0  0  0  0
 11 13  1  0  0  0  0
 12 11  1  0  0  0  0
 13 14  2  0  0  0  0
 14  4  1  0  0  0  0
 15  9  1  0  0  0  0
 16 15  1  0  0  0  0
 17 15  1  0  0  0  0
 18 23  1  0  0  0  0
 19 18  1  0  0  0  0
 20 18  1  0  0  0  0
 21 27  1  0  0  0  0
 21 26  1  0  0  0  0
 22 21  2  0  0  0  0
 23 22  1  0  0  0  0
 23 24  2  0  0  0  0
 24 25  1  0  0  0  0
 25 26  2  0  0  0  0
 25 29  1  0  0  0  0
 28 22  1  0  0  0  0
M  END
>  <minimizedAffinity>
-4.53058529

>  <minimizedRMSD>
1.80424714

$$$$
