
     RDKit          3D

 53 58  0  0  0  0  0  0  0  0999 V2000
   47.4736   32.0627   47.8507 C   0  0  0  0  0  0  0  0  0  0  0  0
   46.9301   30.7752   47.8926 C   0  0  0  0  0  0  0  0  0  0  0  0
   45.9325   30.4937   46.9911 C   0  0  0  0  0  0  0  0  0  0  0  0
   45.5346   31.4288   46.1345 N   0  0  0  0  0  0  0  0  0  0  0  0
   46.0332   32.6461   46.0749 C   0  0  0  0  0  0  0  0  0  0  0  0
   47.0157   32.9483   46.9557 N   0  0  0  0  0  0  0  0  0  0  0  0
   45.3482   29.2488   46.9954 N   0  0  0  0  0  0  0  0  0  0  0  0
   44.1521   28.8931   46.1804 C   0  0  0  0  0  0  0  0  0  0  0  0
   44.0419   27.3926   46.2518 C   0  0  0  0  0  0  0  0  0  0  0  0
   44.6793   27.0736   47.5619 C   0  0  0  0  0  0  0  0  0  0  0  0
   45.7429   28.1017   47.7457 C   0  0  0  0  0  0  0  0  0  0  0  0
   45.7500   33.7998   45.1879 C   0  0  0  0  0  0  0  0  0  0  0  0
   44.8826   34.7775   45.4832 N   0  0  0  0  0  0  0  0  0  0  0  0
   44.6126   35.8233   44.7125 C   0  0  0  0  0  0  0  0  0  0  0  0
   45.2343   35.9605   43.5260 N   0  0  0  0  0  0  0  0  0  0  0  0
   46.1269   35.0519   43.1082 C   0  0  0  0  0  0  0  0  0  0  0  0
   46.7672   35.1865   41.8934 C   0  0  0  0  0  0  0  0  0  0  0  0
   47.6730   34.2718   41.4593 C   0  0  0  0  0  0  0  0  0  0  0  0
   47.9388   33.1896   42.2774 C   0  0  0  0  0  0  0  0  0  0  0  0
   47.2665   33.0988   43.4949 C   0  0  0  0  0  0  0  0  0  0  0  0
   46.3622   33.9881   43.9568 C   0  0  0  0  0  0  0  0  0  0  0  0
   47.6676   31.9181   44.2043 N   0  0  0  0  0  0  0  0  0  0  0  0
   47.4522   29.8896   48.7996 N   0  0  0  0  0  0  0  0  0  0  0  0
   48.2681   32.3313   48.5513 H   0  0  0  0  0  0  0  0  0  0  0  0
   43.2610   29.3922   46.5984 H   0  0  0  0  0  0  0  0  0  0  0  0
   44.3798   29.2626   45.1507 H   0  0  0  0  0  0  0  0  0  0  0  0
   44.5733   26.8798   45.4387 H   0  0  0  0  0  0  0  0  0  0  0  0
   42.9736   27.0593   46.2540 H   0  0  0  0  0  0  0  0  0  0  0  0
   43.8800   27.1037   48.3305 H   0  0  0  0  0  0  0  0  0  0  0  0
   45.0963   26.0308   47.5911 H   0  0  0  0  0  0  0  0  0  0  0  0
   45.7316   28.2654   48.8660 H   0  0  0  0  0  0  0  0  0  0  0  0
   46.6933   27.6672   47.4276 H   0  0  0  0  0  0  0  0  0  0  0  0
   43.8988   36.5883   45.0013 H   0  0  0  0  0  0  0  0  0  0  0  0
   46.5344   36.0458   41.2795 H   0  0  0  0  0  0  0  0  0  0  0  0
   48.1549   34.4056   40.5073 H   0  0  0  0  0  0  0  0  0  0  0  0
   48.3922   31.7067   44.9218 H   0  0  0  0  0  0  0  0  0  0  0  0
   47.0199   31.1935   43.8195 H   0  0  0  0  0  0  0  0  0  0  0  0
   46.9506   30.1603   49.6967 H   0  0  0  0  0  0  0  0  0  0  0  0
   48.1726   29.1375   48.6186 H   0  0  0  0  0  0  0  0  0  0  0  0
   48.8888   32.2526   41.7954 N   0  0  0  0  0  0  0  0  0  0  0  0
   49.3512   31.0971   42.3368 C   0  0  0  0  0  0  0  0  0  0  0  0
   49.0123   30.7297   43.2872 H   0  0  0  0  0  0  0  0  0  0  0  0
   50.2496   30.5753   41.4766 N   0  0  0  0  0  0  0  0  0  0  0  0
   50.3761   31.3734   40.3883 C   0  0  0  0  0  0  0  0  0  0  0  0
   51.1505   31.2637   39.2697 C   0  0  0  0  0  0  0  0  0  0  0  0
   52.0345   30.2004   39.0332 N   0  0  0  0  0  0  0  0  0  0  0  0
   52.0844   29.2026   39.2976 H   0  0  0  0  0  0  0  0  0  0  0  0
   51.0617   32.2286   38.3412 N   0  0  0  0  0  0  0  0  0  0  0  0
   50.2065   33.2664   38.5596 C   0  0  0  0  0  0  0  0  0  0  0  0
   50.0874   34.0885   37.8382 H   0  0  0  0  0  0  0  0  0  0  0  0
   49.4348   33.4044   39.6427 N   0  0  0  0  0  0  0  0  0  0  0  0
   49.5032   32.4478   40.5945 C   0  0  0  0  0  0  0  0  0  0  0  0
   52.9050   30.2459   38.4768 H   0  0  0  0  0  0  0  0  0  0  0  0
  1  2  2  0
  2 23  1  0
  3  2  1  0
  4  3  2  0
  5  4  1  0
  5  6  2  0
  6  1  1  0
  7  3  1  0
  7 11  1  0
  8  9  1  0
  8  7  1  0
  9 10  1  0
 10 11  1  0
 12 13  2  0
 12  5  1  0
 14 13  1  0
 15 14  2  0
 16 15  1  0
 16 21  2  0
 17 16  1  0
 18 17  2  0
 18 19  1  0
 19 20  2  0
 20 21  1  0
 20 22  1  0
 21 12  1  0
  1 24  1  0
  8 25  1  0
  8 26  1  0
  9 27  1  0
  9 28  1  0
 10 29  1  0
 10 30  1  0
 11 31  1  0
 11 32  1  0
 14 33  1  0
 17 34  1  0
 18 35  1  0
 22 36  1  0
 22 37  1  0
 23 38  1  0
 23 39  1  0
 40 41  1  0
 41 42  1  0
 41 43  2  0
 43 44  1  0
 44 45  2  0
 45 46  1  0
 46 47  1  0
 45 48  1  0
 48 49  2  0
 49 50  1  0
 49 51  1  0
 51 52  2  0
 52 40  1  0
 52 44  1  0
 46 53  1  0
 19 40  1  0
M  ISO  8  24  14  25  13  26  13  27  13  28  13  29  13  30  13  31  13
M  ISO  7  32  13  33  14  34  14  35  14  42  15  47   5  50  16
M  END
>  <DihAtoms>  (1) 
17,18,39,40

>  <DihDeg>  (1) 
105.91403700294295

$$$$
