
 OpenBabel03252504433D

 50 54  0  0  0  0  0  0  0  0999 V2000
   39.5640   27.2320   43.5450 C   0  0  0  0  0  0  0  0  0  0  0  0
   39.0110   27.3510   44.4980 H   0  0  0  0  0  0  0  0  0  0  0  0
   40.6650   27.2220   43.6870 H   0  0  0  0  0  0  0  0  0  0  0  0
   39.2030   25.9360   42.9010 C   0  0  0  0  0  0  0  0  0  0  0  0
   39.5800   24.6870   43.3030 C   0  0  0  0  0  0  0  0  0  0  0  0
   39.0310   23.8330   42.4400 N   0  0  0  0  0  0  0  0  0  0  0  0
   38.3190   24.4690   41.5050 C   0  0  0  0  0  0  0  0  0  0  0  0
   38.4340   25.7930   41.8040 N   0  0  0  0  0  0  0  0  0  0  0  0
   37.5700   23.9970   40.4020 N   0  0  0  0  0  0  0  0  0  0  0  0
   38.2630   23.8390   39.1070 C   0  0  0  0  0  0  0  0  0  0  0  0
   38.4740   22.3330   38.9660 C   0  0  0  0  0  0  0  0  0  0  0  0
   37.1880   21.5990   39.2630 C   0  0  0  0  0  0  0  0  0  0  0  0
   36.0210   22.5710   39.1980 C   0  0  0  0  0  0  0  0  0  0  0  0
   36.1980   23.6150   40.2690 C   0  0  0  0  0  0  0  0  0  0  0  0
   40.2050   24.4080   44.1520 H   0  0  0  0  0  0  0  0  0  0  0  0
   39.1080   22.7920   42.4400 H   0  0  0  0  0  0  0  0  0  0  0  0
   37.6760   24.2640   38.2840 H   0  0  0  0  0  0  0  0  0  0  0  0
   39.2590   24.3140   39.1300 H   0  0  0  0  0  0  0  0  0  0  0  0
   38.8120   22.1400   37.9090 H   0  0  0  0  0  0  0  0  0  0  0  0
   39.3020   22.0290   39.6240 H   0  0  0  0  0  0  0  0  0  0  0  0
   37.2480   21.3090   40.3510 H   0  0  0  0  0  0  0  0  0  0  0  0
   37.0190   20.7110   38.6520 H   0  0  0  0  0  0  0  0  0  0  0  0
   35.0890   21.9980   39.3010 H   0  0  0  0  0  0  0  0  0  0  0  0
   36.0440   23.0190   38.1690 H   0  0  0  0  0  0  0  0  0  0  0  0
   35.7920   23.1740   41.2210 H   0  0  0  0  0  0  0  0  0  0  0  0
   35.5490   24.4900   40.0350 H   0  0  0  0  0  0  0  0  0  0  0  0
   38.1960   29.1270   42.7640 C   0  0  0  0  0  3  0  0  0  0  0  0
   39.2720   28.3700   42.6420 C   0  0  0  0  0  3  0  0  0  0  0  0
   38.0190   30.2230   41.8070 C   0  0  0  0  0  0  0  0  0  0  0  0
   36.7500   30.5670   41.2840 C   0  0  0  0  0  0  0  0  0  0  0  0
   36.7020   31.6250   40.3830 C   0  0  0  0  0  0  0  0  0  0  0  0
   37.8240   32.2710   40.0430 N   0  0  0  0  0  0  0  0  0  0  0  0
   39.0300   31.9260   40.5560 C   0  0  0  0  0  0  0  0  0  0  0  0
   39.1120   30.9260   41.4150 N   0  0  0  0  0  0  0  0  0  0  0  0
   35.8860   29.9970   41.6060 H   0  0  0  0  0  0  0  0  0  0  0  0
   35.7560   31.9040   39.9740 H   0  0  0  0  0  0  0  0  0  0  0  0
   40.1260   32.7040   40.1010 N   0  0  0  0  0  0  0  0  0  0  0  0
   40.6330   33.8410   40.6520 C   0  0  0  0  0  0  0  0  0  0  0  0
   40.2460   34.3260   41.5580 H   0  0  0  0  0  0  0  0  0  0  0  0
   41.6800   34.2700   39.9110 N   0  0  0  0  0  0  0  0  0  0  0  0
   41.8490   33.4090   38.8790 C   0  0  0  0  0  0  0  0  0  0  0  0
   42.7510   33.3520   37.8220 C   0  0  0  0  0  0  0  0  0  0  0  0
   42.6440   32.3260   36.9370 N   0  0  0  0  0  0  0  0  0  0  0  0
   41.7060   31.3850   37.0540 C   0  0  0  0  0  0  0  0  0  0  0  0
   41.6760   30.5980   36.3180 H   0  0  0  0  0  0  0  0  0  0  0  0
   40.8330   31.4480   38.0860 N   0  0  0  0  0  0  0  0  0  0  0  0
   40.8730   32.4260   39.0000 C   0  0  0  0  0  0  0  0  0  0  0  0
   43.7580   34.3480   37.6800 N   0  0  0  0  0  0  0  0  0  0  0  0
   43.8450   35.2970   37.2580 H   0  0  0  0  0  0  0  0  0  0  0  0
   44.5750   33.9130   38.1540 H   0  0  0  0  0  0  0  0  0  0  0  0
  1  3  1  0  0  0  0
  1  2  1  0  0  0  0
  4  5  2  0  0  0  0
  4  1  1  0  0  0  0
  5 15  1  0  0  0  0
  6  5  1  0  0  0  0
  7  8  2  0  0  0  0
  7  6  1  0  0  0  0
  8  4  1  0  0  0  0
  9  7  1  0  0  0  0
 10 18  1  0  0  0  0
 10  9  1  0  0  0  0
 11 10  1  0  0  0  0
 11 12  1  0  0  0  0
 11 20  1  0  0  0  0
 12 21  1  0  0  0  0
 13 12  1  0  0  0  0
 13 23  1  0  0  0  0
 13 14  1  0  0  0  0
 14  9  1  0  0  0  0
 14 25  1  0  0  0  0
 16  6  1  0  0  0  0
 17 10  1  0  0  0  0
 19 11  1  0  0  0  0
 22 12  1  0  0  0  0
 24 13  1  0  0  0  0
 26 14  1  0  0  0  0
 28 27  2  0  0  0  0
 28  1  1  0  0  0  0
 29 27  1  0  0  0  0
 30 35  1  0  0  0  0
 30 29  2  0  0  0  0
 31 30  1  0  0  0  0
 32 31  2  0  0  0  0
 32 33  1  0  0  0  0
 33 34  2  0  0  0  0
 34 29  1  0  0  0  0
 36 31  1  0  0  0  0
 37 33  1  0  0  0  0
 37 38  1  0  0  0  0
 38 39  1  0  0  0  0
 40 38  2  0  0  0  0
 41 47  1  0  0  0  0
 41 40  1  0  0  0  0
 42 41  2  0  0  0  0
 43 44  2  0  0  0  0
 43 42  1  0  0  0  0
 44 46  1  0  0  0  0
 45 44  1  0  0  0  0
 46 47  2  0  0  0  0
 47 37  1  0  0  0  0
 48 42  1  0  0  0  0
 48 50  1  0  0  0  0
 49 48  1  0  0  0  0
M  END
>  <minimizedAffinity>
-6.95690727

$$$$

 OpenBabel03252504433D

 50 54  0  0  0  0  0  0  0  0999 V2000
   36.0470   25.9080   38.0940 C   0  0  0  0  0  0  0  0  0  0  0  0
   35.9220   24.8830   38.4990 H   0  0  0  0  0  0  0  0  0  0  0  0
   36.8120   25.9590   37.2900 H   0  0  0  0  0  0  0  0  0  0  0  0
   34.7650   26.3830   37.4980 C   0  0  0  0  0  0  0  0  0  0  0  0
   33.7420   25.6100   37.0300 C   0  0  0  0  0  0  0  0  0  0  0  0
   32.8050   26.4520   36.5920 N   0  0  0  0  0  0  0  0  0  0  0  0
   33.1740   27.7260   36.7570 C   0  0  0  0  0  0  0  0  0  0  0  0
   34.4100   27.6720   37.3280 N   0  0  0  0  0  0  0  0  0  0  0  0
   32.5260   28.9450   36.4520 N   0  0  0  0  0  0  0  0  0  0  0  0
   32.7510   29.5380   35.1170 C   0  0  0  0  0  0  0  0  0  0  0  0
   31.4670   29.2430   34.3450 C   0  0  0  0  0  0  0  0  0  0  0  0
   30.2630   29.6180   35.1790 C   0  0  0  0  0  0  0  0  0  0  0  0
   30.6960   30.5310   36.3140 C   0  0  0  0  0  0  0  0  0  0  0  0
   31.6430   29.7770   37.2100 C   0  0  0  0  0  0  0  0  0  0  0  0
   33.6710   24.5230   37.0010 H   0  0  0  0  0  0  0  0  0  0  0  0
   31.8830   26.2120   36.1670 H   0  0  0  0  0  0  0  0  0  0  0  0
   32.9680   30.6110   35.1860 H   0  0  0  0  0  0  0  0  0  0  0  0
   33.5790   29.0290   34.5920 H   0  0  0  0  0  0  0  0  0  0  0  0
   31.5010   29.8470   33.3950 H   0  0  0  0  0  0  0  0  0  0  0  0
   31.4680   28.1830   34.0480 H   0  0  0  0  0  0  0  0  0  0  0  0
   29.9420   28.6670   35.6930 H   0  0  0  0  0  0  0  0  0  0  0  0
   29.4290   30.0330   34.6120 H   0  0  0  0  0  0  0  0  0  0  0  0
   29.7950   30.8840   36.8350 H   0  0  0  0  0  0  0  0  0  0  0  0
   31.1900   31.4160   35.8330 H   0  0  0  0  0  0  0  0  0  0  0  0
   31.0090   29.1760   37.9200 H   0  0  0  0  0  0  0  0  0  0  0  0
   32.2040   30.5040   37.8410 H   0  0  0  0  0  0  0  0  0  0  0  0
   36.8730   26.4070   40.3610 C   0  0  0  0  0  3  0  0  0  0  0  0
   36.5050   26.8250   39.1630 C   0  0  0  0  0  3  0  0  0  0  0  0
   37.3070   27.4140   41.3330 C   0  0  0  0  0  0  0  0  0  0  0  0
   36.8390   27.4190   42.6690 C   0  0  0  0  0  0  0  0  0  0  0  0
   37.3180   28.4240   43.5040 C   0  0  0  0  0  0  0  0  0  0  0  0
   38.1830   29.3320   43.0360 N   0  0  0  0  0  0  0  0  0  0  0  0
   38.6190   29.3090   41.7530 C   0  0  0  0  0  0  0  0  0  0  0  0
   38.1840   28.3690   40.9330 N   0  0  0  0  0  0  0  0  0  0  0  0
   36.1390   26.6510   42.9750 H   0  0  0  0  0  0  0  0  0  0  0  0
   36.9800   28.4490   44.5170 H   0  0  0  0  0  0  0  0  0  0  0  0
   39.5330   30.3370   41.4060 N   0  0  0  0  0  0  0  0  0  0  0  0
   40.8930   30.3080   41.4780 C   0  0  0  0  0  0  0  0  0  0  0  0
   41.4850   29.4520   41.8260 H   0  0  0  0  0  0  0  0  0  0  0  0
   41.3890   31.4930   41.0520 N   0  0  0  0  0  0  0  0  0  0  0  0
   40.3480   32.2880   40.7060 C   0  0  0  0  0  0  0  0  0  0  0  0
   40.2610   33.5850   40.2130 C   0  0  0  0  0  0  0  0  0  0  0  0
   39.0280   34.0990   39.9640 N   0  0  0  0  0  0  0  0  0  0  0  0
   37.9120   33.4010   40.1790 C   0  0  0  0  0  0  0  0  0  0  0  0
   36.9650   33.8670   39.9600 H   0  0  0  0  0  0  0  0  0  0  0  0
   38.0060   32.1380   40.6590 N   0  0  0  0  0  0  0  0  0  0  0  0
   39.1830   31.5610   40.9290 C   0  0  0  0  0  0  0  0  0  0  0  0
   41.4400   34.3470   39.9780 N   0  0  0  0  0  0  0  0  0  0  0  0
   42.0800   34.9600   40.5260 H   0  0  0  0  0  0  0  0  0  0  0  0
   41.6220   34.1760   38.9680 H   0  0  0  0  0  0  0  0  0  0  0  0
  1  2  1  0  0  0  0
  1 28  1  0  0  0  0
  3  1  1  0  0  0  0
  4  1  1  0  0  0  0
  5  4  2  0  0  0  0
  6  7  1  0  0  0  0
  6  5  1  0  0  0  0
  7  8  2  0  0  0  0
  8  4  1  0  0  0  0
  9  7  1  0  0  0  0
  9 14  1  0  0  0  0
 10 17  1  0  0  0  0
 10  9  1  0  0  0  0
 11 10  1  0  0  0  0
 11 12  1  0  0  0  0
 12 21  1  0  0  0  0
 12 13  1  0  0  0  0
 13 23  1  0  0  0  0
 13 14  1  0  0  0  0
 14 26  1  0  0  0  0
 14 25  1  0  0  0  0
 15  5  1  0  0  0  0
 16  6  1  0  0  0  0
 18 10  1  0  0  0  0
 19 11  1  0  0  0  0
 20 11  1  0  0  0  0
 22 12  1  0  0  0  0
 24 13  1  0  0  0  0
 27 29  1  0  0  0  0
 28 27  2  0  0  0  0
 29 30  1  0  0  0  0
 30 35  1  0  0  0  0
 30 31  2  0  0  0  0
 31 36  1  0  0  0  0
 32 31  1  0  0  0  0
 33 32  2  0  0  0  0
 34 29  2  0  0  0  0
 34 33  1  0  0  0  0
 37 38  1  0  0  0  0
 37 33  1  0  0  0  0
 38 39  1  0  0  0  0
 40 38  2  0  0  0  0
 41 47  1  0  0  0  0
 41 40  1  0  0  0  0
 42 41  2  0  0  0  0
 43 44  2  0  0  0  0
 43 42  1  0  0  0  0
 44 46  1  0  0  0  0
 45 44  1  0  0  0  0
 46 47  2  0  0  0  0
 47 37  1  0  0  0  0
 48 42  1  0  0  0  0
 48 49  1  0  0  0  0
 50 48  1  0  0  0  0
M  END
>  <minimizedAffinity>
-6.35373497

$$$$

 OpenBabel03252504433D

 50 54  0  0  0  0  0  0  0  0999 V2000
   38.3650   23.2400   40.7880 C   0  0  0  0  0  0  0  0  0  0  0  0
   38.4310   22.6790   41.7420 H   0  0  0  0  0  0  0  0  0  0  0  0
   39.2590   23.0970   40.1460 H   0  0  0  0  0  0  0  0  0  0  0  0
   37.1890   22.7720   39.9980 C   0  0  0  0  0  0  0  0  0  0  0  0
   37.1300   21.6750   39.1880 C   0  0  0  0  0  0  0  0  0  0  0  0
   35.8940   21.6430   38.6880 N   0  0  0  0  0  0  0  0  0  0  0  0
   35.1580   22.6640   39.1370 C   0  0  0  0  0  0  0  0  0  0  0  0
   35.9820   23.3690   39.9610 N   0  0  0  0  0  0  0  0  0  0  0  0
   33.8170   23.0420   38.8920 N   0  0  0  0  0  0  0  0  0  0  0  0
   33.5460   23.9510   37.7590 C   0  0  0  0  0  0  0  0  0  0  0  0
   32.9620   23.0480   36.6740 C   0  0  0  0  0  0  0  0  0  0  0  0
   31.8760   22.1740   37.2570 C   0  0  0  0  0  0  0  0  0  0  0  0
   31.4290   22.7430   38.5940 C   0  0  0  0  0  0  0  0  0  0  0  0
   32.5910   22.7090   39.5510 C   0  0  0  0  0  0  0  0  0  0  0  0
   37.9140   20.9490   38.9700 H   0  0  0  0  0  0  0  0  0  0  0  0
   35.4930   20.9410   38.0290 H   0  0  0  0  0  0  0  0  0  0  0  0
   32.8670   24.7610   38.0480 H   0  0  0  0  0  0  0  0  0  0  0  0
   34.4840   24.3810   37.3630 H   0  0  0  0  0  0  0  0  0  0  0  0
   32.5500   23.7170   35.8680 H   0  0  0  0  0  0  0  0  0  0  0  0
   33.7790   22.4670   36.2180 H   0  0  0  0  0  0  0  0  0  0  0  0
   32.3790   21.2010   37.5240 H   0  0  0  0  0  0  0  0  0  0  0  0
   31.0350   21.9860   36.5880 H   0  0  0  0  0  0  0  0  0  0  0  0
   30.5630   22.1630   38.9430 H   0  0  0  0  0  0  0  0  0  0  0  0
   31.0860   23.7920   38.3890 H   0  0  0  0  0  0  0  0  0  0  0  0
   32.6200   21.6730   39.9890 H   0  0  0  0  0  0  0  0  0  0  0  0
   32.3830   23.3960   40.4020 H   0  0  0  0  0  0  0  0  0  0  0  0
   38.2380   25.1980   42.2790 C   0  0  0  0  0  3  0  0  0  0  0  0
   38.2750   24.6940   41.0580 C   0  0  0  0  0  3  0  0  0  0  0  0
   38.1480   26.6540   42.4150 C   0  0  0  0  0  0  0  0  0  0  0  0
   37.4970   27.2680   43.5120 C   0  0  0  0  0  0  0  0  0  0  0  0
   37.4730   28.6590   43.5360 C   0  0  0  0  0  0  0  0  0  0  0  0
   38.0480   29.3590   42.5510 N   0  0  0  0  0  0  0  0  0  0  0  0
   38.6670   28.7510   41.5090 C   0  0  0  0  0  0  0  0  0  0  0  0
   38.7090   27.4320   41.4540 N   0  0  0  0  0  0  0  0  0  0  0  0
   37.0540   26.6350   44.2710 H   0  0  0  0  0  0  0  0  0  0  0  0
   36.9880   29.1450   44.3530 H   0  0  0  0  0  0  0  0  0  0  0  0
   39.2290   29.6280   40.5450 N   0  0  0  0  0  0  0  0  0  0  0  0
   40.4890   30.1410   40.5130 C   0  0  0  0  0  0  0  0  0  0  0  0
   41.2690   29.9360   41.2580 H   0  0  0  0  0  0  0  0  0  0  0  0
   40.6230   30.9340   39.4250 N   0  0  0  0  0  0  0  0  0  0  0  0
   39.4460   30.9320   38.7530 C   0  0  0  0  0  0  0  0  0  0  0  0
   39.0120   31.5560   37.5890 C   0  0  0  0  0  0  0  0  0  0  0  0
   37.7350   31.3370   37.1780 N   0  0  0  0  0  0  0  0  0  0  0  0
   36.8970   30.5510   37.8550 C   0  0  0  0  0  0  0  0  0  0  0  0
   35.8970   30.4200   37.4750 H   0  0  0  0  0  0  0  0  0  0  0  0
   37.3290   29.9480   38.9880 N   0  0  0  0  0  0  0  0  0  0  0  0
   38.5720   30.1120   39.4580 C   0  0  0  0  0  0  0  0  0  0  0  0
   39.8900   32.4000   36.8530 N   0  0  0  0  0  0  0  0  0  0  0  0
   40.1920   33.3980   36.8710 H   0  0  0  0  0  0  0  0  0  0  0  0
   40.2790   31.7530   36.1370 H   0  0  0  0  0  0  0  0  0  0  0  0
  1 28  1  0  0  0  0
  1  2  1  0  0  0  0
  3  1  1  0  0  0  0
  4  1  1  0  0  0  0
  5  4  2  0  0  0  0
  6  7  1  0  0  0  0
  6  5  1  0  0  0  0
  7  8  2  0  0  0  0
  8  4  1  0  0  0  0
  9  7  1  0  0  0  0
  9 14  1  0  0  0  0
 10 17  1  0  0  0  0
 10  9  1  0  0  0  0
 11 12  1  0  0  0  0
 11 10  1  0  0  0  0
 12 21  1  0  0  0  0
 12 13  1  0  0  0  0
 13 23  1  0  0  0  0
 13 14  1  0  0  0  0
 14 25  1  0  0  0  0
 14 26  1  0  0  0  0
 15  5  1  0  0  0  0
 16  6  1  0  0  0  0
 18 10  1  0  0  0  0
 19 11  1  0  0  0  0
 20 11  1  0  0  0  0
 22 12  1  0  0  0  0
 24 13  1  0  0  0  0
 27 29  1  0  0  0  0
 28 27  2  0  0  0  0
 29 30  1  0  0  0  0
 30 31  2  0  0  0  0
 30 35  1  0  0  0  0
 31 36  1  0  0  0  0
 32 31  1  0  0  0  0
 33 32  2  0  0  0  0
 34 33  1  0  0  0  0
 34 29  2  0  0  0  0
 37 33  1  0  0  0  0
 38 37  1  0  0  0  0
 38 39  1  0  0  0  0
 40 38  2  0  0  0  0
 41 40  1  0  0  0  0
 41 47  1  0  0  0  0
 42 41  2  0  0  0  0
 43 42  1  0  0  0  0
 43 44  2  0  0  0  0
 44 46  1  0  0  0  0
 45 44  1  0  0  0  0
 46 47  2  0  0  0  0
 47 37  1  0  0  0  0
 48 49  1  0  0  0  0
 48 42  1  0  0  0  0
 50 48  1  0  0  0  0
M  END
>  <minimizedAffinity>
-6.3037982

$$$$

 OpenBabel03252504433D

 50 54  0  0  0  0  0  0  0  0999 V2000
   39.0990   26.7840   43.5550 C   0  0  0  0  0  0  0  0  0  0  0  0
   40.1970   26.8650   43.6840 H   0  0  0  0  0  0  0  0  0  0  0  0
   38.5700   26.5710   44.5070 H   0  0  0  0  0  0  0  0  0  0  0  0
   38.5480   28.0710   43.0370 C   0  0  0  0  0  0  0  0  0  0  0  0
   37.3910   28.6820   43.4240 C   0  0  0  0  0  0  0  0  0  0  0  0
   37.2970   29.7990   42.7020 N   0  0  0  0  0  0  0  0  0  0  0  0
   38.3360   29.9370   41.8730 C   0  0  0  0  0  0  0  0  0  0  0  0
   39.1180   28.8430   42.0910 N   0  0  0  0  0  0  0  0  0  0  0  0
   38.6690   30.9390   40.9320 N   0  0  0  0  0  0  0  0  0  0  0  0
   38.1770   30.7840   39.5470 C   0  0  0  0  0  0  0  0  0  0  0  0
   37.0190   31.7730   39.4380 C   0  0  0  0  0  0  0  0  0  0  0  0
   37.4360   33.1210   39.9780 C   0  0  0  0  0  0  0  0  0  0  0  0
   38.9510   33.1870   40.0660 C   0  0  0  0  0  0  0  0  0  0  0  0
   39.4270   32.1460   41.0460 C   0  0  0  0  0  0  0  0  0  0  0  0
   36.6660   28.3520   44.1680 H   0  0  0  0  0  0  0  0  0  0  0  0
   36.5380   30.5150   42.7350 H   0  0  0  0  0  0  0  0  0  0  0  0
   38.9710   30.9780   38.8160 H   0  0  0  0  0  0  0  0  0  0  0  0
   37.7670   29.7720   39.3830 H   0  0  0  0  0  0  0  0  0  0  0  0
   36.7410   31.8440   38.3490 H   0  0  0  0  0  0  0  0  0  0  0  0
   36.1450   31.3540   39.9620 H   0  0  0  0  0  0  0  0  0  0  0  0
   37.0940   33.1380   41.0520 H   0  0  0  0  0  0  0  0  0  0  0  0
   37.0180   33.9750   39.4420 H   0  0  0  0  0  0  0  0  0  0  0  0
   39.2370   34.2100   40.3480 H   0  0  0  0  0  0  0  0  0  0  0  0
   39.3340   32.9900   39.0290 H   0  0  0  0  0  0  0  0  0  0  0  0
   39.3370   32.6020   42.0710 H   0  0  0  0  0  0  0  0  0  0  0  0
   40.5140   31.9650   40.8870 H   0  0  0  0  0  0  0  0  0  0  0  0
   37.5600   25.4460   42.1710 C   0  0  0  0  0  3  0  0  0  0  0  0
   38.7760   25.6650   42.6390 C   0  0  0  0  0  3  0  0  0  0  0  0
   37.3690   24.3040   41.2720 C   0  0  0  0  0  0  0  0  0  0  0  0
   38.3630   23.3110   41.0970 C   0  0  0  0  0  0  0  0  0  0  0  0
   38.0720   22.2730   40.2190 C   0  0  0  0  0  0  0  0  0  0  0  0
   36.8950   22.2400   39.5810 N   0  0  0  0  0  0  0  0  0  0  0  0
   35.9570   23.2020   39.7630 C   0  0  0  0  0  0  0  0  0  0  0  0
   36.2000   24.2030   40.5900 N   0  0  0  0  0  0  0  0  0  0  0  0
   39.2910   23.4050   41.6470 H   0  0  0  0  0  0  0  0  0  0  0  0
   38.8050   21.5110   40.0690 H   0  0  0  0  0  0  0  0  0  0  0  0
   34.7620   23.0290   39.0180 N   0  0  0  0  0  0  0  0  0  0  0  0
   33.6290   22.3740   39.3930 C   0  0  0  0  0  0  0  0  0  0  0  0
   33.4830   21.8720   40.3580 H   0  0  0  0  0  0  0  0  0  0  0  0
   32.7200   22.4420   38.3920 N   0  0  0  0  0  0  0  0  0  0  0  0
   33.2690   23.1420   37.3700 C   0  0  0  0  0  0  0  0  0  0  0  0
   32.8060   23.5160   36.1130 C   0  0  0  0  0  0  0  0  0  0  0  0
   33.6320   24.2370   35.3100 N   0  0  0  0  0  0  0  0  0  0  0  0
   34.8610   24.5890   35.6900 C   0  0  0  0  0  0  0  0  0  0  0  0
   35.4650   25.1600   35.0040 H   0  0  0  0  0  0  0  0  0  0  0  0
   35.3040   24.2200   36.9150 N   0  0  0  0  0  0  0  0  0  0  0  0
   34.5510   23.5100   37.7650 C   0  0  0  0  0  0  0  0  0  0  0  0
   31.4980   23.1500   35.6890 N   0  0  0  0  0  0  0  0  0  0  0  0
   31.0370   22.3300   35.2400 H   0  0  0  0  0  0  0  0  0  0  0  0
   30.9350   23.9890   35.9390 H   0  0  0  0  0  0  0  0  0  0  0  0
  1  2  1  0  0  0  0
  1  3  1  0  0  0  0
  4  5  2  0  0  0  0
  4  1  1  0  0  0  0
  5 15  1  0  0  0  0
  6 16  1  0  0  0  0
  6  5  1  0  0  0  0
  7  8  2  0  0  0  0
  7  6  1  0  0  0  0
  8  4  1  0  0  0  0
  9 14  1  0  0  0  0
  9  7  1  0  0  0  0
 10  9  1  0  0  0  0
 11 10  1  0  0  0  0
 11 20  1  0  0  0  0
 11 12  1  0  0  0  0
 12 13  1  0  0  0  0
 12 21  1  0  0  0  0
 13 23  1  0  0  0  0
 13 14  1  0  0  0  0
 14 25  1  0  0  0  0
 17 10  1  0  0  0  0
 18 10  1  0  0  0  0
 19 11  1  0  0  0  0
 22 12  1  0  0  0  0
 24 13  1  0  0  0  0
 26 14  1  0  0  0  0
 27 28  2  0  0  0  0
 28  1  1  0  0  0  0
 29 27  1  0  0  0  0
 30 29  1  0  0  0  0
 30 35  1  0  0  0  0
 31 30  2  0  0  0  0
 32 33  2  0  0  0  0
 32 31  1  0  0  0  0
 33 34  1  0  0  0  0
 34 29  2  0  0  0  0
 36 31  1  0  0  0  0
 37 38  1  0  0  0  0
 37 33  1  0  0  0  0
 38 39  1  0  0  0  0
 40 38  2  0  0  0  0
 41 47  1  0  0  0  0
 41 40  1  0  0  0  0
 42 41  2  0  0  0  0
 43 44  2  0  0  0  0
 43 42  1  0  0  0  0
 44 46  1  0  0  0  0
 45 44  1  0  0  0  0
 46 47  2  0  0  0  0
 47 37  1  0  0  0  0
 48 50  1  0  0  0  0
 48 42  1  0  0  0  0
 49 48  1  0  0  0  0
M  END
>  <minimizedAffinity>
-6.24631071

$$$$

 OpenBabel03252504433D

 50 54  0  0  0  0  0  0  0  0999 V2000
   36.5180   23.6480   39.7310 C   0  0  0  0  0  0  0  0  0  0  0  0
   36.5020   22.7020   40.3090 H   0  0  0  0  0  0  0  0  0  0  0  0
   37.3910   23.7170   39.0470 H   0  0  0  0  0  0  0  0  0  0  0  0
   35.2970   23.7520   38.8810 C   0  0  0  0  0  0  0  0  0  0  0  0
   35.0720   24.6460   37.8740 C   0  0  0  0  0  0  0  0  0  0  0  0
   33.8580   24.3730   37.3940 N   0  0  0  0  0  0  0  0  0  0  0  0
   33.2940   23.3490   38.0400 C   0  0  0  0  0  0  0  0  0  0  0  0
   34.2080   22.9640   38.9750 N   0  0  0  0  0  0  0  0  0  0  0  0
   32.0410   22.7100   37.8890 N   0  0  0  0  0  0  0  0  0  0  0  0
   30.8970   23.2290   38.6680 C   0  0  0  0  0  0  0  0  0  0  0  0
   30.0600   24.0030   37.6510 C   0  0  0  0  0  0  0  0  0  0  0  0
   29.8510   23.1680   36.4090 C   0  0  0  0  0  0  0  0  0  0  0  0
   30.1670   21.7130   36.7150 C   0  0  0  0  0  0  0  0  0  0  0  0
   31.6210   21.6000   37.0900 C   0  0  0  0  0  0  0  0  0  0  0  0
   35.7280   25.4370   37.5100 H   0  0  0  0  0  0  0  0  0  0  0  0
   33.3590   24.8580   36.6170 H   0  0  0  0  0  0  0  0  0  0  0  0
   30.3380   22.4170   39.1480 H   0  0  0  0  0  0  0  0  0  0  0  0
   31.2340   23.9470   39.4360 H   0  0  0  0  0  0  0  0  0  0  0  0
   29.0770   24.2450   38.1430 H   0  0  0  0  0  0  0  0  0  0  0  0
   30.5560   24.9630   37.4420 H   0  0  0  0  0  0  0  0  0  0  0  0
   30.6620   23.4830   35.6910 H   0  0  0  0  0  0  0  0  0  0  0  0
   28.8740   23.2870   35.9400 H   0  0  0  0  0  0  0  0  0  0  0  0
   29.8980   21.1100   35.8370 H   0  0  0  0  0  0  0  0  0  0  0  0
   29.4920   21.4180   37.5620 H   0  0  0  0  0  0  0  0  0  0  0  0
   32.2000   21.5340   36.1280 H   0  0  0  0  0  0  0  0  0  0  0  0
   31.7880   20.6310   37.6140 H   0  0  0  0  0  0  0  0  0  0  0  0
   37.6730   25.6010   40.6930 C   0  0  0  0  0  3  0  0  0  0  0  0
   36.6200   24.8040   40.6520 C   0  0  0  0  0  3  0  0  0  0  0  0
   37.6530   26.7120   41.6500 C   0  0  0  0  0  0  0  0  0  0  0  0
   36.8780   26.6700   42.8340 C   0  0  0  0  0  0  0  0  0  0  0  0
   36.9360   27.7810   43.6680 C   0  0  0  0  0  0  0  0  0  0  0  0
   37.7000   28.8300   43.3390 N   0  0  0  0  0  0  0  0  0  0  0  0
   38.4340   28.8500   42.2000 C   0  0  0  0  0  0  0  0  0  0  0  0
   38.4030   27.8110   41.3850 N   0  0  0  0  0  0  0  0  0  0  0  0
   36.2850   25.7860   43.0330 H   0  0  0  0  0  0  0  0  0  0  0  0
   36.3610   27.7740   44.5680 H   0  0  0  0  0  0  0  0  0  0  0  0
   39.1920   30.0310   41.9890 N   0  0  0  0  0  0  0  0  0  0  0  0
   40.4720   30.2850   42.3790 C   0  0  0  0  0  0  0  0  0  0  0  0
   41.1130   29.5830   42.9280 H   0  0  0  0  0  0  0  0  0  0  0  0
   40.8220   31.5310   41.9810 N   0  0  0  0  0  0  0  0  0  0  0  0
   39.7660   32.0810   41.3340 C   0  0  0  0  0  0  0  0  0  0  0  0
   39.5570   33.3130   40.7260 C   0  0  0  0  0  0  0  0  0  0  0  0
   38.3490   33.5520   40.1510 N   0  0  0  0  0  0  0  0  0  0  0  0
   37.3690   32.6470   40.1590 C   0  0  0  0  0  0  0  0  0  0  0  0
   36.4340   32.9000   39.6860 H   0  0  0  0  0  0  0  0  0  0  0  0
   37.5810   31.4500   40.7540 N   0  0  0  0  0  0  0  0  0  0  0  0
   38.7440   31.1380   41.3400 C   0  0  0  0  0  0  0  0  0  0  0  0
   40.5900   34.2920   40.7080 N   0  0  0  0  0  0  0  0  0  0  0  0
   40.9460   35.0450   41.3350 H   0  0  0  0  0  0  0  0  0  0  0  0
   41.0450   34.1250   39.7870 H   0  0  0  0  0  0  0  0  0  0  0  0
  1  2  1  0  0  0  0
  1 28  1  0  0  0  0
  3  1  1  0  0  0  0
  4  8  1  0  0  0  0
  4  1  1  0  0  0  0
  5  4  2  0  0  0  0
  6  5  1  0  0  0  0
  6  7  1  0  0  0  0
  7  8  2  0  0  0  0
  9  7  1  0  0  0  0
  9 10  1  0  0  0  0
 10 17  1  0  0  0  0
 10 18  1  0  0  0  0
 11 19  1  0  0  0  0
 11 10  1  0  0  0  0
 12 13  1  0  0  0  0
 12 11  1  0  0  0  0
 13 14  1  0  0  0  0
 13 24  1  0  0  0  0
 14 26  1  0  0  0  0
 14  9  1  0  0  0  0
 15  5  1  0  0  0  0
 16  6  1  0  0  0  0
 20 11  1  0  0  0  0
 21 12  1  0  0  0  0
 22 12  1  0  0  0  0
 23 13  1  0  0  0  0
 25 14  1  0  0  0  0
 27 29  1  0  0  0  0
 28 27  2  0  0  0  0
 29 30  1  0  0  0  0
 30 35  1  0  0  0  0
 30 31  2  0  0  0  0
 31 36  1  0  0  0  0
 32 31  1  0  0  0  0
 33 32  2  0  0  0  0
 34 29  2  0  0  0  0
 34 33  1  0  0  0  0
 37 33  1  0  0  0  0
 37 38  1  0  0  0  0
 38 39  1  0  0  0  0
 40 38  2  0  0  0  0
 41 47  1  0  0  0  0
 41 40  1  0  0  0  0
 42 41  2  0  0  0  0
 43 44  2  0  0  0  0
 43 42  1  0  0  0  0
 44 46  1  0  0  0  0
 45 44  1  0  0  0  0
 46 47  2  0  0  0  0
 47 37  1  0  0  0  0
 48 42  1  0  0  0  0
 48 49  1  0  0  0  0
 50 48  1  0  0  0  0
M  END
>  <minimizedAffinity>
-5.95582771

$$$$

 OpenBabel03252504433D

 50 54  0  0  0  0  0  0  0  0999 V2000
   35.0080   28.1030   36.7170 C   0  0  0  0  0  0  0  0  0  0  0  0
   34.8820   27.0470   36.4050 H   0  0  0  0  0  0  0  0  0  0  0  0
   35.7520   28.6470   36.0980 H   0  0  0  0  0  0  0  0  0  0  0  0
   33.7150   28.8360   36.5760 C   0  0  0  0  0  0  0  0  0  0  0  0
   32.7970   29.0730   37.5580 C   0  0  0  0  0  0  0  0  0  0  0  0
   31.8050   29.7570   36.9870 N   0  0  0  0  0  0  0  0  0  0  0  0
   32.0410   29.9710   35.6890 C   0  0  0  0  0  0  0  0  0  0  0  0
   33.2460   29.3870   35.4400 N   0  0  0  0  0  0  0  0  0  0  0  0
   31.2940   30.6360   34.6890 N   0  0  0  0  0  0  0  0  0  0  0  0
   30.3210   29.8470   33.9060 C   0  0  0  0  0  0  0  0  0  0  0  0
   28.9600   30.2390   34.4770 C   0  0  0  0  0  0  0  0  0  0  0  0
   28.8530   31.7440   34.5750 C   0  0  0  0  0  0  0  0  0  0  0  0
   29.9270   32.3860   33.7120 C   0  0  0  0  0  0  0  0  0  0  0  0
   31.2800   31.9980   34.2500 C   0  0  0  0  0  0  0  0  0  0  0  0
   32.8330   28.7780   38.6070 H   0  0  0  0  0  0  0  0  0  0  0  0
   30.9330   30.1080   37.4380 H   0  0  0  0  0  0  0  0  0  0  0  0
   30.4070   30.0540   32.8330 H   0  0  0  0  0  0  0  0  0  0  0  0
   30.4560   28.7650   34.0830 H   0  0  0  0  0  0  0  0  0  0  0  0
   28.1740   29.8250   33.7840 H   0  0  0  0  0  0  0  0  0  0  0  0
   28.8240   29.7370   35.4470 H   0  0  0  0  0  0  0  0  0  0  0  0
   29.1530   32.0020   35.6310 H   0  0  0  0  0  0  0  0  0  0  0  0
   27.8610   32.1440   34.3630 H   0  0  0  0  0  0  0  0  0  0  0  0
   29.7600   33.4720   33.7050 H   0  0  0  0  0  0  0  0  0  0  0  0
   29.7650   32.0000   32.6700 H   0  0  0  0  0  0  0  0  0  0  0  0
   31.5120   32.7110   35.0890 H   0  0  0  0  0  0  0  0  0  0  0  0
   32.0500   32.1850   33.4680 H   0  0  0  0  0  0  0  0  0  0  0  0
   36.7420   28.5000   38.4220 C   0  0  0  0  0  3  0  0  0  0  0  0
   35.5020   28.1660   38.1120 C   0  0  0  0  0  3  0  0  0  0  0  0
   37.1090   28.5250   39.8410 C   0  0  0  0  0  0  0  0  0  0  0  0
   36.5360   29.4470   40.7490 C   0  0  0  0  0  0  0  0  0  0  0  0
   36.9590   29.3790   42.0720 C   0  0  0  0  0  0  0  0  0  0  0  0
   37.8710   28.4710   42.4410 N   0  0  0  0  0  0  0  0  0  0  0  0
   38.4080   27.5960   41.5540 C   0  0  0  0  0  0  0  0  0  0  0  0
   38.0280   27.6330   40.2900 N   0  0  0  0  0  0  0  0  0  0  0  0
   35.8030   30.1530   40.3770 H   0  0  0  0  0  0  0  0  0  0  0  0
   36.5420   30.0640   42.7770 H   0  0  0  0  0  0  0  0  0  0  0  0
   39.3610   26.6950   42.0960 N   0  0  0  0  0  0  0  0  0  0  0  0
   39.1400   25.4570   42.6180 C   0  0  0  0  0  0  0  0  0  0  0  0
   38.1580   24.9730   42.6920 H   0  0  0  0  0  0  0  0  0  0  0  0
   40.3170   24.9260   43.0240 N   0  0  0  0  0  0  0  0  0  0  0  0
   41.2980   25.8240   42.7640 C   0  0  0  0  0  0  0  0  0  0  0  0
   42.6740   25.8180   42.9650 C   0  0  0  0  0  0  0  0  0  0  0  0
   43.3870   26.9090   42.5790 N   0  0  0  0  0  0  0  0  0  0  0  0
   42.8080   27.9720   42.0200 C   0  0  0  0  0  0  0  0  0  0  0  0
   43.4310   28.8050   41.7370 H   0  0  0  0  0  0  0  0  0  0  0  0
   41.4670   27.9690   41.8280 N   0  0  0  0  0  0  0  0  0  0  0  0
   40.6960   26.9340   42.1810 C   0  0  0  0  0  0  0  0  0  0  0  0
   43.3100   24.6920   43.5600 N   0  0  0  0  0  0  0  0  0  0  0  0
   43.5100   24.3420   44.5210 H   0  0  0  0  0  0  0  0  0  0  0  0
   43.6180   24.1430   42.7320 H   0  0  0  0  0  0  0  0  0  0  0  0
  1 28  1  0  0  0  0
  2  1  1  0  0  0  0
  3  1  1  0  0  0  0
  4  1  1  0  0  0  0
  4  5  2  0  0  0  0
  5 15  1  0  0  0  0
  6 16  1  0  0  0  0
  6  5  1  0  0  0  0
  7  6  1  0  0  0  0
  8  7  2  0  0  0  0
  8  4  1  0  0  0  0
  9  7  1  0  0  0  0
 10 18  1  0  0  0  0
 10 11  1  0  0  0  0
 10  9  1  0  0  0  0
 11 12  1  0  0  0  0
 11 20  1  0  0  0  0
 12 21  1  0  0  0  0
 13 14  1  0  0  0  0
 13 12  1  0  0  0  0
 14  9  1  0  0  0  0
 14 25  1  0  0  0  0
 17 10  1  0  0  0  0
 19 11  1  0  0  0  0
 22 12  1  0  0  0  0
 23 13  1  0  0  0  0
 24 13  1  0  0  0  0
 26 14  1  0  0  0  0
 27 29  1  0  0  0  0
 28 27  2  0  0  0  0
 29 34  2  0  0  0  0
 29 30  1  0  0  0  0
 30 31  2  0  0  0  0
 31 32  1  0  0  0  0
 31 36  1  0  0  0  0
 33 37  1  0  0  0  0
 33 32  2  0  0  0  0
 34 33  1  0  0  0  0
 35 30  1  0  0  0  0
 37 47  1  0  0  0  0
 37 38  1  0  0  0  0
 38 39  1  0  0  0  0
 38 40  2  0  0  0  0
 41 42  1  0  0  0  0
 41 40  1  0  0  0  0
 42 48  1  0  0  0  0
 43 42  2  0  0  0  0
 44 43  1  0  0  0  0
 45 44  1  0  0  0  0
 46 44  2  0  0  0  0
 46 47  1  0  0  0  0
 47 41  2  0  0  0  0
 48 49  1  0  0  0  0
 50 48  1  0  0  0  0
M  END
>  <minimizedAffinity>
-5.92351818

$$$$

 OpenBabel03252504433D

 50 54  0  0  0  0  0  0  0  0999 V2000
   33.8830   26.3490   36.4420 C   0  0  0  0  0  0  0  0  0  0  0  0
   33.4720   25.3540   36.7070 H   0  0  0  0  0  0  0  0  0  0  0  0
   34.6050   26.3030   35.5990 H   0  0  0  0  0  0  0  0  0  0  0  0
   32.7820   27.2610   36.0150 C   0  0  0  0  0  0  0  0  0  0  0  0
   31.5850   26.9000   35.4680 C   0  0  0  0  0  0  0  0  0  0  0  0
   30.9170   28.0330   35.2450 N   0  0  0  0  0  0  0  0  0  0  0  0
   31.6250   29.1020   35.6240 C   0  0  0  0  0  0  0  0  0  0  0  0
   32.7980   28.6050   36.1070 N   0  0  0  0  0  0  0  0  0  0  0  0
   31.3400   30.4860   35.5850 N   0  0  0  0  0  0  0  0  0  0  0  0
   31.7190   31.2420   34.3730 C   0  0  0  0  0  0  0  0  0  0  0  0
   30.4020   31.4620   33.6310 C   0  0  0  0  0  0  0  0  0  0  0  0
   29.3500   31.9810   34.5830 C   0  0  0  0  0  0  0  0  0  0  0  0
   30.0200   32.5050   35.8430 C   0  0  0  0  0  0  0  0  0  0  0  0
   30.7220   31.3640   36.5310 C   0  0  0  0  0  0  0  0  0  0  0  0
   31.2150   25.8990   35.2430 H   0  0  0  0  0  0  0  0  0  0  0  0
   29.9640   28.1390   34.8340 H   0  0  0  0  0  0  0  0  0  0  0  0
   32.2240   32.1810   34.6280 H   0  0  0  0  0  0  0  0  0  0  0  0
   32.3730   30.6390   33.7190 H   0  0  0  0  0  0  0  0  0  0  0  0
   30.6020   32.2050   32.8080 H   0  0  0  0  0  0  0  0  0  0  0  0
   30.1090   30.5190   33.1430 H   0  0  0  0  0  0  0  0  0  0  0  0
   28.7790   31.0720   34.9290 H   0  0  0  0  0  0  0  0  0  0  0  0
   28.6630   32.7080   34.1490 H   0  0  0  0  0  0  0  0  0  0  0  0
   29.2520   32.9820   36.4680 H   0  0  0  0  0  0  0  0  0  0  0  0
   30.7400   33.2990   35.5080 H   0  0  0  0  0  0  0  0  0  0  0  0
   29.9470   30.8330   37.1510 H   0  0  0  0  0  0  0  0  0  0  0  0
   31.4630   31.7750   37.2550 H   0  0  0  0  0  0  0  0  0  0  0  0
   35.6800   26.3320   38.1280 C   0  0  0  0  0  3  0  0  0  0  0  0
   34.6230   26.9170   37.5930 C   0  0  0  0  0  3  0  0  0  0  0  0
   36.3250   26.9940   39.2650 C   0  0  0  0  0  0  0  0  0  0  0  0
   35.9720   28.3040   39.6720 C   0  0  0  0  0  0  0  0  0  0  0  0
   36.6510   28.8320   40.7650 C   0  0  0  0  0  0  0  0  0  0  0  0
   37.5920   28.1110   41.3850 N   0  0  0  0  0  0  0  0  0  0  0  0
   37.9150   26.8580   40.9800 C   0  0  0  0  0  0  0  0  0  0  0  0
   37.2900   26.3250   39.9450 N   0  0  0  0  0  0  0  0  0  0  0  0
   35.2000   28.8260   39.1200 H   0  0  0  0  0  0  0  0  0  0  0  0
   36.4030   29.8180   41.0900 H   0  0  0  0  0  0  0  0  0  0  0  0
   38.9310   26.2200   41.7370 N   0  0  0  0  0  0  0  0  0  0  0  0
   38.7860   25.4280   42.8350 C   0  0  0  0  0  0  0  0  0  0  0  0
   37.8250   25.1660   43.2970 H   0  0  0  0  0  0  0  0  0  0  0  0
   40.0050   25.0180   43.2570 N   0  0  0  0  0  0  0  0  0  0  0  0
   40.9380   25.5480   42.4300 C   0  0  0  0  0  0  0  0  0  0  0  0
   42.3260   25.4700   42.3840 C   0  0  0  0  0  0  0  0  0  0  0  0
   42.9770   26.1400   41.3960 N   0  0  0  0  0  0  0  0  0  0  0  0
   42.3280   26.8630   40.4830 C   0  0  0  0  0  0  0  0  0  0  0  0
   42.9040   27.3700   39.7270 H   0  0  0  0  0  0  0  0  0  0  0  0
   40.9770   26.9340   40.5360 N   0  0  0  0  0  0  0  0  0  0  0  0
   40.2630   26.3030   41.4770 C   0  0  0  0  0  0  0  0  0  0  0  0
   43.0370   24.7040   43.3500 N   0  0  0  0  0  0  0  0  0  0  0  0
   43.4160   24.8400   44.3110 H   0  0  0  0  0  0  0  0  0  0  0  0
   43.1570   23.7890   42.8690 H   0  0  0  0  0  0  0  0  0  0  0  0
  1  2  1  0  0  0  0
  1 28  1  0  0  0  0
  3  1  1  0  0  0  0
  4  8  1  0  0  0  0
  4  1  1  0  0  0  0
  5  4  2  0  0  0  0
  6  5  1  0  0  0  0
  6  7  1  0  0  0  0
  7  8  2  0  0  0  0
  9  7  1  0  0  0  0
  9 14  1  0  0  0  0
 10 17  1  0  0  0  0
 10  9  1  0  0  0  0
 11 10  1  0  0  0  0
 11 12  1  0  0  0  0
 12 21  1  0  0  0  0
 12 13  1  0  0  0  0
 13 23  1  0  0  0  0
 13 14  1  0  0  0  0
 14 25  1  0  0  0  0
 14 26  1  0  0  0  0
 15  5  1  0  0  0  0
 16  6  1  0  0  0  0
 18 10  1  0  0  0  0
 19 11  1  0  0  0  0
 20 11  1  0  0  0  0
 22 12  1  0  0  0  0
 24 13  1  0  0  0  0
 27 29  1  0  0  0  0
 28 27  2  0  0  0  0
 29 30  2  0  0  0  0
 29 34  1  0  0  0  0
 30 31  1  0  0  0  0
 31 36  1  0  0  0  0
 31 32  2  0  0  0  0
 33 32  1  0  0  0  0
 33 37  1  0  0  0  0
 34 33  2  0  0  0  0
 35 30  1  0  0  0  0
 37 38  1  0  0  0  0
 38 40  2  0  0  0  0
 38 39  1  0  0  0  0
 41 40  1  0  0  0  0
 42 41  1  0  0  0  0
 42 48  1  0  0  0  0
 43 42  2  0  0  0  0
 44 46  2  0  0  0  0
 44 43  1  0  0  0  0
 45 44  1  0  0  0  0
 46 47  1  0  0  0  0
 47 37  1  0  0  0  0
 47 41  2  0  0  0  0
 48 49  1  0  0  0  0
 50 48  1  0  0  0  0
M  END
>  <minimizedAffinity>
-5.87484217

$$$$

 OpenBabel03252504433D

 50 54  0  0  0  0  0  0  0  0999 V2000
   35.8030   27.7690   37.8870 C   0  0  0  0  0  0  0  0  0  0  0  0
   35.7600   26.9740   38.6590 H   0  0  0  0  0  0  0  0  0  0  0  0
   36.5000   27.5230   37.0590 H   0  0  0  0  0  0  0  0  0  0  0  0
   34.4570   27.9610   37.2730 C   0  0  0  0  0  0  0  0  0  0  0  0
   33.5660   26.9860   36.9300 C   0  0  0  0  0  0  0  0  0  0  0  0
   32.5040   27.6100   36.4190 N   0  0  0  0  0  0  0  0  0  0  0  0
   32.6680   28.9360   36.4190 C   0  0  0  0  0  0  0  0  0  0  0  0
   33.9010   29.1470   36.9580 N   0  0  0  0  0  0  0  0  0  0  0  0
   31.8330   29.9920   35.9850 N   0  0  0  0  0  0  0  0  0  0  0  0
   31.9510   30.4430   34.5830 C   0  0  0  0  0  0  0  0  0  0  0  0
   30.7240   29.8570   33.8870 C   0  0  0  0  0  0  0  0  0  0  0  0
   29.4820   30.1400   34.7020 C   0  0  0  0  0  0  0  0  0  0  0  0
   29.7740   31.2430   35.7060 C   0  0  0  0  0  0  0  0  0  0  0  0
   30.8350   30.7630   36.6610 C   0  0  0  0  0  0  0  0  0  0  0  0
   33.6680   25.9050   37.0360 H   0  0  0  0  0  0  0  0  0  0  0  0
   31.6280   27.1780   36.0510 H   0  0  0  0  0  0  0  0  0  0  0  0
   31.9960   31.5360   34.5150 H   0  0  0  0  0  0  0  0  0  0  0  0
   32.8450   30.0080   34.1010 H   0  0  0  0  0  0  0  0  0  0  0  0
   30.6550   30.3360   32.8700 H   0  0  0  0  0  0  0  0  0  0  0  0
   30.8900   28.7820   33.7210 H   0  0  0  0  0  0  0  0  0  0  0  0
   29.3200   29.2220   35.3360 H   0  0  0  0  0  0  0  0  0  0  0  0
   28.5890   30.3460   34.1110 H   0  0  0  0  0  0  0  0  0  0  0  0
   28.8320   31.5130   36.2040 H   0  0  0  0  0  0  0  0  0  0  0  0
   30.1180   32.1280   35.1070 H   0  0  0  0  0  0  0  0  0  0  0  0
   30.3100   30.1640   37.4550 H   0  0  0  0  0  0  0  0  0  0  0  0
   31.2790   31.6420   37.1830 H   0  0  0  0  0  0  0  0  0  0  0  0
   37.4920   29.5300   38.2300 C   0  0  0  0  0  3  0  0  0  0  0  0
   36.2960   29.0310   38.4860 C   0  0  0  0  0  3  0  0  0  0  0  0
   37.8630   30.7870   38.8850 C   0  0  0  0  0  0  0  0  0  0  0  0
   36.9040   31.7750   39.2130 C   0  0  0  0  0  0  0  0  0  0  0  0
   37.3700   32.9300   39.8330 C   0  0  0  0  0  0  0  0  0  0  0  0
   38.6750   33.0720   40.0960 N   0  0  0  0  0  0  0  0  0  0  0  0
   39.5780   32.1130   39.7730 C   0  0  0  0  0  0  0  0  0  0  0  0
   39.1690   31.0040   39.1830 N   0  0  0  0  0  0  0  0  0  0  0  0
   35.8650   31.5890   38.9690 H   0  0  0  0  0  0  0  0  0  0  0  0
   36.6660   33.6900   40.0910 H   0  0  0  0  0  0  0  0  0  0  0  0
   40.9230   32.4090   40.1150 N   0  0  0  0  0  0  0  0  0  0  0  0
   41.5780   32.1140   41.2710 C   0  0  0  0  0  0  0  0  0  0  0  0
   41.1350   31.5860   42.1260 H   0  0  0  0  0  0  0  0  0  0  0  0
   42.8490   32.5700   41.1950 N   0  0  0  0  0  0  0  0  0  0  0  0
   43.0150   33.1610   39.9870 C   0  0  0  0  0  0  0  0  0  0  0  0
   44.0910   33.7920   39.3730 C   0  0  0  0  0  0  0  0  0  0  0  0
   43.9190   34.2890   38.1200 N   0  0  0  0  0  0  0  0  0  0  0  0
   42.7570   34.1910   37.4730 C   0  0  0  0  0  0  0  0  0  0  0  0
   42.6870   34.6070   36.4810 H   0  0  0  0  0  0  0  0  0  0  0  0
   41.7140   33.5760   38.0780 N   0  0  0  0  0  0  0  0  0  0  0  0
   41.8040   33.0590   39.3100 C   0  0  0  0  0  0  0  0  0  0  0  0
   45.3390   33.9070   40.0480 N   0  0  0  0  0  0  0  0  0  0  0  0
   45.7860   34.5550   40.7310 H   0  0  0  0  0  0  0  0  0  0  0  0
   45.8640   33.0800   39.6960 H   0  0  0  0  0  0  0  0  0  0  0  0
  1 28  1  0  0  0  0
  1  2  1  0  0  0  0
  3  1  1  0  0  0  0
  4  1  1  0  0  0  0
  5 15  1  0  0  0  0
  5  4  2  0  0  0  0
  6  5  1  0  0  0  0
  7  6  1  0  0  0  0
  7  8  2  0  0  0  0
  8  4  1  0  0  0  0
  9  7  1  0  0  0  0
  9 14  1  0  0  0  0
 10  9  1  0  0  0  0
 11 10  1  0  0  0  0
 11 12  1  0  0  0  0
 12 21  1  0  0  0  0
 12 13  1  0  0  0  0
 13 23  1  0  0  0  0
 13 14  1  0  0  0  0
 14 26  1  0  0  0  0
 14 25  1  0  0  0  0
 16  6  1  0  0  0  0
 17 10  1  0  0  0  0
 18 10  1  0  0  0  0
 19 11  1  0  0  0  0
 20 11  1  0  0  0  0
 22 12  1  0  0  0  0
 24 13  1  0  0  0  0
 27 28  2  0  0  0  0
 27 29  1  0  0  0  0
 29 34  2  0  0  0  0
 29 30  1  0  0  0  0
 30 31  2  0  0  0  0
 31 36  1  0  0  0  0
 31 32  1  0  0  0  0
 33 32  2  0  0  0  0
 33 37  1  0  0  0  0
 34 33  1  0  0  0  0
 35 30  1  0  0  0  0
 37 38  1  0  0  0  0
 38 39  1  0  0  0  0
 40 38  2  0  0  0  0
 41 40  1  0  0  0  0
 42 41  1  0  0  0  0
 42 48  1  0  0  0  0
 43 42  2  0  0  0  0
 44 46  2  0  0  0  0
 44 43  1  0  0  0  0
 45 44  1  0  0  0  0
 46 47  1  0  0  0  0
 47 41  2  0  0  0  0
 47 37  1  0  0  0  0
 48 49  1  0  0  0  0
 50 48  1  0  0  0  0
M  END
>  <minimizedAffinity>
-5.86125231

$$$$

 OpenBabel03252504433D

 50 54  0  0  0  0  0  0  0  0999 V2000
   41.8770   23.6760   37.1560 C   0  0  0  0  0  0  0  0  0  0  0  0
   41.8510   22.8420   36.4270 H   0  0  0  0  0  0  0  0  0  0  0  0
   42.5240   23.4590   38.0310 H   0  0  0  0  0  0  0  0  0  0  0  0
   42.4250   24.9050   36.5110 C   0  0  0  0  0  0  0  0  0  0  0  0
   42.9380   25.0090   35.2500 C   0  0  0  0  0  0  0  0  0  0  0  0
   43.3050   26.2820   35.0990 N   0  0  0  0  0  0  0  0  0  0  0  0
   43.0520   26.9990   36.1970 C   0  0  0  0  0  0  0  0  0  0  0  0
   42.4980   26.1230   37.0810 N   0  0  0  0  0  0  0  0  0  0  0  0
   43.2630   28.3640   36.5050 N   0  0  0  0  0  0  0  0  0  0  0  0
   44.5540   28.7490   37.1120 C   0  0  0  0  0  0  0  0  0  0  0  0
   45.3330   29.4040   35.9740 C   0  0  0  0  0  0  0  0  0  0  0  0
   44.4640   30.4180   35.2670 C   0  0  0  0  0  0  0  0  0  0  0  0
   43.2700   30.7620   36.1420 C   0  0  0  0  0  0  0  0  0  0  0  0
   42.4390   29.5220   36.3400 C   0  0  0  0  0  0  0  0  0  0  0  0
   43.0430   24.2310   34.4940 H   0  0  0  0  0  0  0  0  0  0  0  0
   43.7380   26.7230   34.2580 H   0  0  0  0  0  0  0  0  0  0  0  0
   44.4100   29.4190   37.9690 H   0  0  0  0  0  0  0  0  0  0  0  0
   45.1210   27.8580   37.4340 H   0  0  0  0  0  0  0  0  0  0  0  0
   46.2380   29.8980   36.4280 H   0  0  0  0  0  0  0  0  0  0  0  0
   45.7060   28.6170   35.3010 H   0  0  0  0  0  0  0  0  0  0  0  0
   44.0160   29.8730   34.3870 H   0  0  0  0  0  0  0  0  0  0  0  0
   44.9910   31.3080   34.9220 H   0  0  0  0  0  0  0  0  0  0  0  0
   42.7160   31.5820   35.6640 H   0  0  0  0  0  0  0  0  0  0  0  0
   43.6910   31.1430   37.1110 H   0  0  0  0  0  0  0  0  0  0  0  0
   41.7680   29.4330   35.4410 H   0  0  0  0  0  0  0  0  0  0  0  0
   41.7630   29.6720   37.2130 H   0  0  0  0  0  0  0  0  0  0  0  0
   40.0060   23.2330   38.6970 C   0  0  0  0  0  3  0  0  0  0  0  0
   40.5180   23.9230   37.6940 C   0  0  0  0  0  3  0  0  0  0  0  0
   38.6500   23.5730   39.1380 C   0  0  0  0  0  0  0  0  0  0  0  0
   37.5700   22.6670   39.0140 C   0  0  0  0  0  0  0  0  0  0  0  0
   36.3270   23.0970   39.4660 C   0  0  0  0  0  0  0  0  0  0  0  0
   36.1880   24.3210   39.9900 N   0  0  0  0  0  0  0  0  0  0  0  0
   37.2360   25.1740   40.1000 C   0  0  0  0  0  0  0  0  0  0  0  0
   38.4310   24.7970   39.6810 N   0  0  0  0  0  0  0  0  0  0  0  0
   37.7590   21.6930   38.5780 H   0  0  0  0  0  0  0  0  0  0  0  0
   35.4960   22.4320   39.3830 H   0  0  0  0  0  0  0  0  0  0  0  0
   36.9320   26.4340   40.6760 N   0  0  0  0  0  0  0  0  0  0  0  0
   36.9840   26.7890   41.9900 C   0  0  0  0  0  0  0  0  0  0  0  0
   37.2800   26.1210   42.8090 H   0  0  0  0  0  0  0  0  0  0  0  0
   36.6170   28.0850   42.1190 N   0  0  0  0  0  0  0  0  0  0  0  0
   36.3270   28.5670   40.8860 C   0  0  0  0  0  0  0  0  0  0  0  0
   35.9050   29.8080   40.4220 C   0  0  0  0  0  0  0  0  0  0  0  0
   35.7010   29.9620   39.0870 N   0  0  0  0  0  0  0  0  0  0  0  0
   35.8910   28.9660   38.2220 C   0  0  0  0  0  0  0  0  0  0  0  0
   35.7110   29.1550   37.1750 H   0  0  0  0  0  0  0  0  0  0  0  0
   36.3020   27.7610   38.6820 N   0  0  0  0  0  0  0  0  0  0  0  0
   36.5260   27.5290   39.9810 C   0  0  0  0  0  0  0  0  0  0  0  0
   35.6950   30.8840   41.3310 N   0  0  0  0  0  0  0  0  0  0  0  0
   34.9290   31.2320   41.9450 H   0  0  0  0  0  0  0  0  0  0  0  0
   36.6040   31.3900   41.2950 H   0  0  0  0  0  0  0  0  0  0  0  0
  1 28  1  0  0  0  0
  1  3  1  0  0  0  0
  2  1  1  0  0  0  0
  4  8  1  0  0  0  0
  4  1  1  0  0  0  0
  5  4  2  0  0  0  0
  6  5  1  0  0  0  0
  6  7  1  0  0  0  0
  7  9  1  0  0  0  0
  7  8  2  0  0  0  0
  9 10  1  0  0  0  0
 10 18  1  0  0  0  0
 10 17  1  0  0  0  0
 11 19  1  0  0  0  0
 11 10  1  0  0  0  0
 12 11  1  0  0  0  0
 12 13  1  0  0  0  0
 13 14  1  0  0  0  0
 13 24  1  0  0  0  0
 14  9  1  0  0  0  0
 14 26  1  0  0  0  0
 15  5  1  0  0  0  0
 16  6  1  0  0  0  0
 20 11  1  0  0  0  0
 21 12  1  0  0  0  0
 22 12  1  0  0  0  0
 23 13  1  0  0  0  0
 25 14  1  0  0  0  0
 27 29  1  0  0  0  0
 28 27  2  0  0  0  0
 29 34  1  0  0  0  0
 30 29  2  0  0  0  0
 30 31  1  0  0  0  0
 31 32  2  0  0  0  0
 32 33  1  0  0  0  0
 33 37  1  0  0  0  0
 34 33  2  0  0  0  0
 35 30  1  0  0  0  0
 36 31  1  0  0  0  0
 37 38  1  0  0  0  0
 38 40  2  0  0  0  0
 38 39  1  0  0  0  0
 41 40  1  0  0  0  0
 42 41  1  0  0  0  0
 42 48  1  0  0  0  0
 43 42  2  0  0  0  0
 44 46  2  0  0  0  0
 44 43  1  0  0  0  0
 45 44  1  0  0  0  0
 46 47  1  0  0  0  0
 47 37  1  0  0  0  0
 47 41  2  0  0  0  0
 48 49  1  0  0  0  0
 50 48  1  0  0  0  0
M  END
>  <minimizedAffinity>
-5.83147335

$$$$
