
 OpenBabel03242510413D

 46 50  0  0  0  0  0  0  0  0999 V2000
   45.8750   33.7990   43.5560 C   0  0  0  0  0  0  0  0  0  0  0  0
   45.2540   32.8910   42.6700 C   0  0  0  0  0  0  0  0  0  0  0  0
   44.9530   31.6120   43.2000 C   0  0  0  0  0  0  0  0  0  0  0  0
   45.2790   31.3640   44.4890 N   0  0  0  0  0  0  0  0  0  0  0  0
   45.8790   32.2860   45.2940 C   0  0  0  0  0  0  0  0  0  0  0  0
   46.1730   33.4960   44.8190 N   0  0  0  0  0  0  0  0  0  0  0  0
   46.1110   34.7830   43.1610 H   0  0  0  0  0  0  0  0  0  0  0  0
   44.9430   33.2280   41.3220 N   0  0  0  0  0  0  0  0  0  0  0  0
   45.5430   32.9810   40.1240 C   0  0  0  0  0  0  0  0  0  0  0  0
   46.4570   32.4160   40.0900 H   0  0  0  0  0  0  0  0  0  0  0  0
   44.8150   33.5400   39.1400 N   0  0  0  0  0  0  0  0  0  0  0  0
   43.7400   34.1510   39.6760 C   0  0  0  0  0  0  0  0  0  0  0  0
   42.6900   34.8630   39.1280 C   0  0  0  0  0  0  0  0  0  0  0  0
   41.7280   35.3750   39.9470 N   0  0  0  0  0  0  0  0  0  0  0  0
   41.8100   35.1820   41.2820 C   0  0  0  0  0  0  0  0  0  0  0  0
   41.0320   35.5980   41.9120 H   0  0  0  0  0  0  0  0  0  0  0  0
   42.8440   34.4850   41.7760 N   0  0  0  0  0  0  0  0  0  0  0  0
   43.8280   33.9530   41.0210 C   0  0  0  0  0  0  0  0  0  0  0  0
   42.5910   35.0750   37.7210 N   0  0  0  0  0  0  0  0  0  0  0  0
   42.9140   36.0300   37.4150 H   0  0  0  0  0  0  0  0  0  0  0  0
   42.2680   34.5000   36.8960 H   0  0  0  0  0  0  0  0  0  0  0  0
   48.2130   30.4820   45.5700 Cl  0  0  0  0  0  0  0  0  0  0  0  0
   47.2650   31.0950   46.9400 C   0  0  0  0  0  0  0  0  0  0  0  0
   46.1970   31.9310   46.6700 C   0  0  0  0  0  0  0  0  0  0  0  0
   45.4850   32.3880   47.7200 C   0  0  0  0  0  0  0  0  0  0  0  0
   45.8470   32.0080   49.0180 C   0  0  0  0  0  0  0  0  0  0  0  0
   46.9210   31.1700   49.2710 C   0  0  0  0  0  0  0  0  0  0  0  0
   47.6630   30.6900   48.1960 C   0  0  0  0  0  0  0  0  0  0  0  0
   44.6500   33.0400   47.5150 H   0  0  0  0  0  0  0  0  0  0  0  0
   45.2340   32.4100   49.8180 H   0  0  0  0  0  0  0  0  0  0  0  0
   47.1860   30.8860   50.2840 H   0  0  0  0  0  0  0  0  0  0  0  0
   49.9760   31.8140   49.1170 F   0  0  0  0  0  0  0  0  0  0  0  0
   49.9160   30.4910   48.8500 C   0  0  0  0  0  0  0  0  0  0  0  0
   48.8110   29.8030   48.3810 C   0  0  0  0  0  0  0  0  0  0  0  0
   48.8710   28.4500   48.1440 C   0  0  0  0  0  0  0  0  0  0  0  0
   50.0560   27.7870   48.3830 C   0  0  0  0  0  0  0  0  0  0  0  0
   51.1870   28.4460   48.8550 C   0  0  0  0  0  0  0  0  0  0  0  0
   51.1040   29.8100   49.0860 C   0  0  0  0  0  0  0  0  0  0  0  0
   47.9670   28.0220   47.7870 H   0  0  0  0  0  0  0  0  0  0  0  0
   50.0780   26.7290   48.1910 H   0  0  0  0  0  0  0  0  0  0  0  0
   52.1200   27.9150   49.0420 H   0  0  0  0  0  0  0  0  0  0  0  0
   51.9970   30.3000   49.4530 H   0  0  0  0  0  0  0  0  0  0  0  0
   44.3090   30.6960   42.2600 C   0  0  0  0  0  0  0  0  0  0  0  0
   43.9640   29.5450   42.9380 F   0  0  0  0  0  0  0  0  0  0  0  0
   45.2670   30.3340   41.3440 F   0  0  0  0  0  0  0  0  0  0  0  0
   43.1770   31.2250   41.7000 F   0  0  0  0  0  0  0  0  0  0  0  0
  1  6  1  0  0  0  0
  2  3  1  0  0  0  0
  2  1  2  0  0  0  0
  3  4  2  0  0  0  0
  4  5  1  0  0  0  0
  5 24  1  0  0  0  0
  6  5  2  0  0  0  0
  7  1  1  0  0  0  0
  8  2  1  0  0  0  0
  9  8  1  0  0  0  0
 10  9  1  0  0  0  0
 11 12  1  0  0  0  0
 11  9  2  0  0  0  0
 12 18  1  0  0  0  0
 13 12  2  0  0  0  0
 13 14  1  0  0  0  0
 14 15  2  0  0  0  0
 15 17  1  0  0  0  0
 15 16  1  0  0  0  0
 18  8  1  0  0  0  0
 18 17  2  0  0  0  0
 19 13  1  0  0  0  0
 20 19  1  0  0  0  0
 21 19  1  0  0  0  0
 22 23  1  0  0  0  0
 23 28  1  0  0  0  0
 24 23  2  0  0  0  0
 24 25  1  0  0  0  0
 25 26  2  0  0  0  0
 26 27  1  0  0  0  0
 26 30  1  0  0  0  0
 27 31  1  0  0  0  0
 28 34  1  0  0  0  0
 28 27  2  0  0  0  0
 29 25  1  0  0  0  0
 33 38  1  0  0  0  0
 33 32  1  0  0  0  0
 34 33  2  0  0  0  0
 35 34  1  0  0  0  0
 35 36  2  0  0  0  0
 36 37  1  0  0  0  0
 37 41  1  0  0  0  0
 37 38  2  0  0  0  0
 38 42  1  0  0  0  0
 39 35  1  0  0  0  0
 40 36  1  0  0  0  0
 43 44  1  0  0  0  0
 43  3  1  0  0  0  0
 45 43  1  0  0  0  0
 46 43  1  0  0  0  0
M  END
>  <minimizedAffinity>
-5.91306067

>  <minimizedRMSD>
3.03610873

$$$$
