
 OpenBabel03252505293D

 32 34  0  0  0  0  0  0  0  0999 V2000
   44.9630   29.9490   47.6440 C   0  0  0  0  0  0  0  0  0  0  0  0
   43.9930   30.3720   47.9740 H   0  0  0  0  0  0  0  0  0  0  0  0
   45.6380   30.0320   48.5190 H   0  0  0  0  0  0  0  0  0  0  0  0
   44.8270   28.5780   47.1860 N   0  0  0  0  0  0  0  0  0  0  0  0
   45.6040   27.5640   47.6570 C   0  0  0  0  0  0  0  0  0  0  0  0
   46.3930   27.6210   48.3990 H   0  0  0  0  0  0  0  0  0  0  0  0
   45.2690   26.4040   47.0680 N   0  0  0  0  0  0  0  0  0  0  0  0
   44.2740   26.6740   46.2150 C   0  0  0  0  0  0  0  0  0  0  0  0
   43.5030   25.9420   45.3270 C   0  0  0  0  0  0  0  0  0  0  0  0
   42.5540   26.4850   44.5820 N   0  0  0  0  0  0  0  0  0  0  0  0
   42.3140   27.8230   44.6840 C   0  0  0  0  0  0  0  0  0  0  0  0
   41.5130   28.1780   44.0320 H   0  0  0  0  0  0  0  0  0  0  0  0
   43.0260   28.6190   45.5350 N   0  0  0  0  0  0  0  0  0  0  0  0
   43.9880   28.0390   46.2820 C   0  0  0  0  0  0  0  0  0  0  0  0
   43.8360   24.5420   45.2950 N   0  0  0  0  0  0  0  0  0  0  0  0
   44.7620   24.0880   45.0360 H   0  0  0  0  0  0  0  0  0  0  0  0
   43.0930   23.8300   45.5560 H   0  0  0  0  0  0  0  0  0  0  0  0
   45.5050   30.6900   46.6300 O   0  0  0  0  0  0  0  0  0  0  0  0
   46.9580   31.9090   48.3740 O   0  0  0  0  0  0  0  0  0  0  0  0
   45.9630   32.1870   47.2500 P   0  0  2  0  0  0  0  0  0  0  0  0
   44.5960   32.9620   47.8320 O   0  0  0  0  0  0  0  0  0  0  0  0
   43.7580   32.4610   47.6820 H   0  0  0  0  0  0  0  0  0  0  0  0
   46.7570   33.1290   46.0850 O   0  0  0  0  0  0  0  0  0  0  0  0
   44.4720   35.5520   44.8310 C   0  0  0  0  0  0  0  0  0  0  0  0
   44.8510   35.7420   43.4830 C   0  0  0  0  0  0  0  0  0  0  0  0
   45.9500   34.9700   43.0500 C   0  0  0  0  0  0  0  0  0  0  0  0
   46.5660   34.1160   43.9170 N   0  0  0  0  0  0  0  0  0  0  0  0
   46.1400   33.9950   45.1930 C   0  0  0  0  0  0  0  0  0  0  0  0
   45.1090   34.7020   45.6380 N   0  0  0  0  0  0  0  0  0  0  0  0
   43.6260   36.1490   45.1570 H   0  0  0  0  0  0  0  0  0  0  0  0
   44.3540   36.4170   42.8230 H   0  0  0  0  0  0  0  0  0  0  0  0
   46.2980   35.0670   42.0190 H   0  0  0  0  0  0  0  0  0  0  0  0
  1  2  1  0  0  0  0
  1  3  1  0  0  0  0
  4  1  1  0  0  0  0
  4  5  1  0  0  0  0
  5  6  1  0  0  0  0
  7  5  2  0  0  0  0
  8 14  1  0  0  0  0
  8  7  1  0  0  0  0
  9  8  2  0  0  0  0
 10 11  2  0  0  0  0
 10  9  1  0  0  0  0
 11 13  1  0  0  0  0
 12 11  1  0  0  0  0
 13 14  2  0  0  0  0
 14  4  1  0  0  0  0
 15  9  1  0  0  0  0
 15 17  1  0  0  0  0
 16 15  1  0  0  0  0
 18 20  1  0  0  0  0
 18  1  1  0  0  0  0
 20 21  1  0  0  0  0
 20 19  2  1  0  0  0
 22 21  1  0  0  0  0
 23 20  1  0  0  0  0
 24 30  1  0  0  0  0
 24 29  1  0  0  0  0
 25 24  2  0  0  0  0
 26 25  1  0  0  0  0
 26 27  2  0  0  0  0
 27 28  1  0  0  0  0
 28 29  2  0  0  0  0
 28 23  1  0  0  0  0
 31 25  1  0  0  0  0
 32 26  1  0  0  0  0
M  END
>  <minimizedAffinity>
-4.75227976

>  <minimizedRMSD>
0.852688313

$$$$
