
     RDKit          3D

 32 34  0  0  0  0  0  0  0  0999 V2000
   44.5193   35.6222   44.7903 C   0  0  0  0  0  0  0  0  0  0  0  0
   44.9102   35.8299   43.4481 C   0  0  0  0  0  0  0  0  0  0  0  0
   45.9661   35.0114   42.9936 C   0  0  0  0  0  0  0  0  0  0  0  0
   46.5323   34.1000   43.8359 N   0  0  0  0  0  0  0  0  0  0  0  0
   46.0966   33.9656   45.1082 C   0  0  0  0  0  0  0  0  0  0  0  0
   45.1065   34.7163   45.5732 N   0  0  0  0  0  0  0  0  0  0  0  0
   46.6644   33.0421   45.9750 O   0  0  0  0  0  0  0  0  0  0  0  0
   46.9770   32.2971   48.4480 O   0  0  0  0  0  0  0  0  0  0  0  0
   45.9160   32.4011   47.3550 P   0  0  1  0  0  0  0  0  0  0  0  0
   44.6306   33.3550   47.8499 O   0  0  0  0  0  0  0  0  0  0  0  0
   45.3494   30.8389   47.0845 O   0  0  0  0  0  0  0  0  0  0  0  0
   45.1095   30.2494   48.2953 C   0  0  0  0  0  0  0  0  0  0  0  0
   43.7058   36.2562   45.1328 H   0  0  0  0  0  0  0  0  0  0  0  0
   44.4515   36.5500   42.8081 H   0  0  0  0  0  0  0  0  0  0  0  0
   46.3198   35.1183   41.9657 H   0  0  0  0  0  0  0  0  0  0  0  0
   43.7627   32.8831   47.8579 H   0  0  0  0  0  0  0  0  0  0  0  0
   44.3957   30.8473   48.8973 H   0  0  0  0  0  0  0  0  0  0  0  0
   46.0588   30.2554   48.8654 H   0  0  0  0  0  0  0  0  0  0  0  0
   44.6208   28.9020   48.0586 N   0  0  0  0  0  0  0  0  0  0  0  0
   45.3907   27.7959   48.2519 C   0  0  0  0  0  0  0  0  0  0  0  0
   46.4207   27.7540   48.5906 H   0  0  0  0  0  0  0  0  0  0  0  0
   44.6956   26.6835   47.9600 N   0  0  0  0  0  0  0  0  0  0  0  0
   43.4758   27.0777   47.5782 C   0  0  0  0  0  0  0  0  0  0  0  0
   42.3154   26.4460   47.1589 C   0  0  0  0  0  0  0  0  0  0  0  0
   42.4256   25.0118   47.1156 N   0  0  0  0  0  0  0  0  0  0  0  0
   43.0890   24.4166   46.5365 H   0  0  0  0  0  0  0  0  0  0  0  0
   41.2166   27.1054   46.8318 N   0  0  0  0  0  0  0  0  0  0  0  0
   41.2112   28.4672   46.9057 C   0  0  0  0  0  0  0  0  0  0  0  0
   40.2615   28.9209   46.6166 H   0  0  0  0  0  0  0  0  0  0  0  0
   42.3105   29.1695   47.3088 N   0  0  0  0  0  0  0  0  0  0  0  0
   43.4180   28.4723   47.6366 C   0  0  0  0  0  0  0  0  0  0  0  0
   41.7811   24.4278   47.7241 H   0  0  0  0  0  0  0  0  0  0  0  0
  1  6  2  0
  2  1  1  0
  3  2  2  0
  3  4  1  0
  4  5  2  0
  5  6  1  0
  5  7  1  0
  9  7  1  6
  9 10  1  0
  9  8  2  0
 11  9  1  0
 11 12  1  0
  1 13  1  0
  2 14  1  0
  3 15  1  0
 10 16  1  0
 12 17  1  0
 12 18  1  0
 19 20  1  0
 20 21  1  0
 20 22  2  0
 22 23  1  0
 23 24  2  0
 24 25  1  0
 25 26  1  0
 24 27  1  0
 27 28  2  0
 28 29  1  0
 28 30  1  0
 30 31  2  0
 31 19  1  0
 31 23  1  0
 25 32  1  0
 12 19  1  0
M  ISO  8  13  14  14  14  15  14  16   3  17   8  18   8  21  15  26   5
M  ISO  1  29  16
M  END
>  <DihAtoms>  (1) 
10,11,18,19

>  <DihDeg>  (1) 
-89.99975231010643

$$$$
