
 OpenBabel03242510433D

 46 50  0  0  0  0  0  0  0  0999 V2000
   41.5630   30.7350   42.1320 C   0  0  0  0  0  0  0  0  0  0  0  0
   41.1840   31.8740   41.3880 C   0  0  0  0  0  0  0  0  0  0  0  0
   39.8090   31.9730   41.0590 C   0  0  0  0  0  0  0  0  0  0  0  0
   38.9820   30.9860   41.4750 N   0  0  0  0  0  0  0  0  0  0  0  0
   39.4130   29.9100   42.1910 C   0  0  0  0  0  0  0  0  0  0  0  0
   40.7020   29.7940   42.5130 N   0  0  0  0  0  0  0  0  0  0  0  0
   42.6150   30.6480   42.3890 H   0  0  0  0  0  0  0  0  0  0  0  0
   42.1160   32.8720   40.9860 N   0  0  0  0  0  0  0  0  0  0  0  0
   42.4980   34.0720   41.5050 C   0  0  0  0  0  0  0  0  0  0  0  0
   42.0520   34.4270   42.4170 H   0  0  0  0  0  0  0  0  0  0  0  0
   43.4330   34.6220   40.7100 N   0  0  0  0  0  0  0  0  0  0  0  0
   43.6730   33.7980   39.6720 C   0  0  0  0  0  0  0  0  0  0  0  0
   44.5230   33.8740   38.5840 C   0  0  0  0  0  0  0  0  0  0  0  0
   44.5430   32.8560   37.6770 N   0  0  0  0  0  0  0  0  0  0  0  0
   43.7350   31.7870   37.8490 C   0  0  0  0  0  0  0  0  0  0  0  0
   43.7690   30.9900   37.1150 H   0  0  0  0  0  0  0  0  0  0  0  0
   42.9250   31.7490   38.9180 N   0  0  0  0  0  0  0  0  0  0  0  0
   42.8570   32.7220   39.8510 C   0  0  0  0  0  0  0  0  0  0  0  0
   45.3800   34.9970   38.3890 N   0  0  0  0  0  0  0  0  0  0  0  0
   45.0140   35.6890   37.6850 H   0  0  0  0  0  0  0  0  0  0  0  0
   46.3080   35.3100   38.7850 H   0  0  0  0  0  0  0  0  0  0  0  0
   39.2860   27.5760   40.3710 Cl  0  0  0  0  0  0  0  0  0  0  0  0
   38.2940   27.7490   41.8330 C   0  0  0  0  0  0  0  0  0  0  0  0
   38.4520   28.8920   42.5950 C   0  0  0  0  0  0  0  0  0  0  0  0
   37.6920   29.0110   43.7020 C   0  0  0  0  0  0  0  0  0  0  0  0
   36.7880   27.9930   44.0330 C   0  0  0  0  0  0  0  0  0  0  0  0
   36.6430   26.8540   43.2580 C   0  0  0  0  0  0  0  0  0  0  0  0
   37.4210   26.7190   42.1120 C   0  0  0  0  0  0  0  0  0  0  0  0
   37.8110   29.9010   44.3010 H   0  0  0  0  0  0  0  0  0  0  0  0
   36.2070   28.1500   44.9350 H   0  0  0  0  0  0  0  0  0  0  0  0
   35.9370   26.0750   43.5300 H   0  0  0  0  0  0  0  0  0  0  0  0
   38.8590   24.5110   42.8320 F   0  0  0  0  0  0  0  0  0  0  0  0
   38.0980   24.4990   41.7160 C   0  0  0  0  0  0  0  0  0  0  0  0
   37.3260   25.5460   41.2430 C   0  0  0  0  0  0  0  0  0  0  0  0
   36.5900   25.4150   40.0900 C   0  0  0  0  0  0  0  0  0  0  0  0
   36.6340   24.2180   39.4080 C   0  0  0  0  0  0  0  0  0  0  0  0
   37.3980   23.1440   39.8530 C   0  0  0  0  0  0  0  0  0  0  0  0
   38.1320   23.2980   41.0180 C   0  0  0  0  0  0  0  0  0  0  0  0
   36.0340   26.2790   39.8180 H   0  0  0  0  0  0  0  0  0  0  0  0
   36.0490   24.1390   38.5080 H   0  0  0  0  0  0  0  0  0  0  0  0
   37.4270   22.2000   39.3090 H   0  0  0  0  0  0  0  0  0  0  0  0
   38.7190   22.4480   41.3440 H   0  0  0  0  0  0  0  0  0  0  0  0
   39.4470   33.1630   40.2920 C   0  0  0  0  0  0  0  0  0  0  0  0
   38.0820   33.1550   40.0920 F   0  0  0  0  0  0  0  0  0  0  0  0
   40.0210   33.0210   39.0520 F   0  0  0  0  0  0  0  0  0  0  0  0
   39.7850   34.3260   40.9320 F   0  0  0  0  0  0  0  0  0  0  0  0
  1  7  1  0  0  0  0
  1  6  1  0  0  0  0
  2  1  2  0  0  0  0
  3  2  1  0  0  0  0
  3  4  2  0  0  0  0
  4  5  1  0  0  0  0
  5  6  2  0  0  0  0
  5 24  1  0  0  0  0
  8  2  1  0  0  0  0
  8  9  1  0  0  0  0
  9 10  1  0  0  0  0
 11  9  2  0  0  0  0
 12 18  1  0  0  0  0
 12 11  1  0  0  0  0
 13 12  2  0  0  0  0
 14 15  2  0  0  0  0
 14 13  1  0  0  0  0
 15 17  1  0  0  0  0
 16 15  1  0  0  0  0
 17 18  2  0  0  0  0
 18  8  1  0  0  0  0
 19 13  1  0  0  0  0
 19 21  1  0  0  0  0
 20 19  1  0  0  0  0
 22 23  1  0  0  0  0
 23 28  2  0  0  0  0
 23 24  1  0  0  0  0
 24 25  2  0  0  0  0
 25 26  1  0  0  0  0
 25 29  1  0  0  0  0
 26 30  1  0  0  0  0
 27 31  1  0  0  0  0
 27 26  2  0  0  0  0
 28 27  1  0  0  0  0
 33 32  1  0  0  0  0
 34 33  1  0  0  0  0
 34 28  1  0  0  0  0
 35 34  2  0  0  0  0
 36 37  2  0  0  0  0
 36 35  1  0  0  0  0
 37 38  1  0  0  0  0
 38 42  1  0  0  0  0
 38 33  2  0  0  0  0
 39 35  1  0  0  0  0
 40 36  1  0  0  0  0
 41 37  1  0  0  0  0
 43 46  1  0  0  0  0
 43  3  1  0  0  0  0
 44 43  1  0  0  0  0
 45 43  1  0  0  0  0
M  END
>  <minimizedAffinity>
-7.68908882

$$$$

 OpenBabel03242510433D

 46 50  0  0  0  0  0  0  0  0999 V2000
   39.9170   30.9610   41.8050 C   0  0  0  0  0  0  0  0  0  0  0  0
   39.3070   31.7560   40.8110 C   0  0  0  0  0  0  0  0  0  0  0  0
   38.0490   31.3050   40.3390 C   0  0  0  0  0  0  0  0  0  0  0  0
   37.5410   30.1680   40.8680 N   0  0  0  0  0  0  0  0  0  0  0  0
   38.1830   29.4450   41.8280 C   0  0  0  0  0  0  0  0  0  0  0  0
   39.3680   29.8480   42.2880 N   0  0  0  0  0  0  0  0  0  0  0  0
   40.8830   31.2970   42.1740 H   0  0  0  0  0  0  0  0  0  0  0  0
   39.9070   32.9430   40.3030 N   0  0  0  0  0  0  0  0  0  0  0  0
   39.7570   34.2690   40.5760 C   0  0  0  0  0  0  0  0  0  0  0  0
   39.0530   34.5850   41.3260 H   0  0  0  0  0  0  0  0  0  0  0  0
   40.5850   34.9810   39.7910 N   0  0  0  0  0  0  0  0  0  0  0  0
   41.2810   34.1380   39.0020 C   0  0  0  0  0  0  0  0  0  0  0  0
   42.2460   34.3350   38.0320 C   0  0  0  0  0  0  0  0  0  0  0  0
   42.7780   33.2570   37.3890 N   0  0  0  0  0  0  0  0  0  0  0  0
   42.3610   32.0120   37.7050 C   0  0  0  0  0  0  0  0  0  0  0  0
   42.7990   31.1710   37.1800 H   0  0  0  0  0  0  0  0  0  0  0  0
   41.4240   31.8610   38.6530 N   0  0  0  0  0  0  0  0  0  0  0  0
   40.8560   32.8850   39.3260 C   0  0  0  0  0  0  0  0  0  0  0  0
   42.6950   35.6440   37.6880 N   0  0  0  0  0  0  0  0  0  0  0  0
   42.2580   36.0210   36.8060 H   0  0  0  0  0  0  0  0  0  0  0  0
   43.3700   36.3400   38.1060 H   0  0  0  0  0  0  0  0  0  0  0  0
   38.3980   27.1190   40.0060 Cl  0  0  0  0  0  0  0  0  0  0  0  0
   37.5920   27.0690   41.5870 C   0  0  0  0  0  0  0  0  0  0  0  0
   37.5620   28.2300   42.3390 C   0  0  0  0  0  0  0  0  0  0  0  0
   36.9460   28.1780   43.5370 C   0  0  0  0  0  0  0  0  0  0  0  0
   36.3720   26.9760   43.9680 C   0  0  0  0  0  0  0  0  0  0  0  0
   36.4110   25.8220   43.2020 C   0  0  0  0  0  0  0  0  0  0  0  0
   37.0430   25.8620   41.9630 C   0  0  0  0  0  0  0  0  0  0  0  0
   36.9200   29.0810   44.1280 H   0  0  0  0  0  0  0  0  0  0  0  0
   35.8920   27.0020   44.9410 H   0  0  0  0  0  0  0  0  0  0  0  0
   35.9600   24.9000   43.5520 H   0  0  0  0  0  0  0  0  0  0  0  0
   39.1710   24.1890   42.3310 F   0  0  0  0  0  0  0  0  0  0  0  0
   38.2460   23.9230   41.3830 C   0  0  0  0  0  0  0  0  0  0  0  0
   37.1270   24.6860   41.0970 C   0  0  0  0  0  0  0  0  0  0  0  0
   36.2530   24.3120   40.1040 C   0  0  0  0  0  0  0  0  0  0  0  0
   36.5110   23.1590   39.3940 C   0  0  0  0  0  0  0  0  0  0  0  0
   37.6240   22.3660   39.6540 C   0  0  0  0  0  0  0  0  0  0  0  0
   38.4920   22.7620   40.6590 C   0  0  0  0  0  0  0  0  0  0  0  0
   35.4290   24.9690   39.9680 H   0  0  0  0  0  0  0  0  0  0  0  0
   35.8120   22.8870   38.6220 H   0  0  0  0  0  0  0  0  0  0  0  0
   37.8210   21.4560   39.0890 H   0  0  0  0  0  0  0  0  0  0  0  0
   39.3520   22.1290   40.8420 H   0  0  0  0  0  0  0  0  0  0  0  0
   37.4410   32.1500   39.3130 C   0  0  0  0  0  0  0  0  0  0  0  0
   36.2870   31.5370   38.8690 F   0  0  0  0  0  0  0  0  0  0  0  0
   38.3090   32.1600   38.2470 F   0  0  0  0  0  0  0  0  0  0  0  0
   37.1190   33.3960   39.7790 F   0  0  0  0  0  0  0  0  0  0  0  0
  1  7  1  0  0  0  0
  1  6  1  0  0  0  0
  2  1  2  0  0  0  0
  3  2  1  0  0  0  0
  3  4  2  0  0  0  0
  4  5  1  0  0  0  0
  5  6  2  0  0  0  0
  5 24  1  0  0  0  0
  8  9  1  0  0  0  0
  8  2  1  0  0  0  0
  9 10  1  0  0  0  0
 11  9  2  0  0  0  0
 12 18  1  0  0  0  0
 12 11  1  0  0  0  0
 13 12  2  0  0  0  0
 14 15  2  0  0  0  0
 14 13  1  0  0  0  0
 15 17  1  0  0  0  0
 16 15  1  0  0  0  0
 17 18  2  0  0  0  0
 18  8  1  0  0  0  0
 19 13  1  0  0  0  0
 19 21  1  0  0  0  0
 20 19  1  0  0  0  0
 22 23  1  0  0  0  0
 23 28  2  0  0  0  0
 23 24  1  0  0  0  0
 24 25  2  0  0  0  0
 25 26  1  0  0  0  0
 25 29  1  0  0  0  0
 26 30  1  0  0  0  0
 27 31  1  0  0  0  0
 27 26  2  0  0  0  0
 28 27  1  0  0  0  0
 33 32  1  0  0  0  0
 34 33  1  0  0  0  0
 34 28  1  0  0  0  0
 35 34  2  0  0  0  0
 36 37  2  0  0  0  0
 36 35  1  0  0  0  0
 37 38  1  0  0  0  0
 38 42  1  0  0  0  0
 38 33  2  0  0  0  0
 39 35  1  0  0  0  0
 40 36  1  0  0  0  0
 41 37  1  0  0  0  0
 43 46  1  0  0  0  0
 43  3  1  0  0  0  0
 44 43  1  0  0  0  0
 45 43  1  0  0  0  0
M  END
>  <minimizedAffinity>
-7.62923002

$$$$

 OpenBabel03242510433D

 46 50  0  0  0  0  0  0  0  0999 V2000
   39.9940   31.7880   41.0720 C   0  0  0  0  0  0  0  0  0  0  0  0
   41.3350   31.7530   41.5140 C   0  0  0  0  0  0  0  0  0  0  0  0
   41.6810   30.6780   42.3680 C   0  0  0  0  0  0  0  0  0  0  0  0
   40.7180   29.7840   42.6890 N   0  0  0  0  0  0  0  0  0  0  0  0
   39.4390   29.8740   42.2280 C   0  0  0  0  0  0  0  0  0  0  0  0
   39.0880   30.8770   41.4230 N   0  0  0  0  0  0  0  0  0  0  0  0
   39.7170   32.6090   40.4160 H   0  0  0  0  0  0  0  0  0  0  0  0
   42.2930   32.7350   41.1310 N   0  0  0  0  0  0  0  0  0  0  0  0
   42.8460   33.8100   41.7580 C   0  0  0  0  0  0  0  0  0  0  0  0
   42.5570   34.0490   42.7660 H   0  0  0  0  0  0  0  0  0  0  0  0
   43.7150   34.4110   40.9260 N   0  0  0  0  0  0  0  0  0  0  0  0
   43.7420   33.7430   39.7560 C   0  0  0  0  0  0  0  0  0  0  0  0
   44.4460   33.9280   38.5800 C   0  0  0  0  0  0  0  0  0  0  0  0
   44.2550   33.0650   37.5420 N   0  0  0  0  0  0  0  0  0  0  0  0
   43.3830   32.0410   37.6720 C   0  0  0  0  0  0  0  0  0  0  0  0
   43.2490   31.3680   36.8330 H   0  0  0  0  0  0  0  0  0  0  0  0
   42.7200   31.8940   38.8280 N   0  0  0  0  0  0  0  0  0  0  0  0
   42.8630   32.7120   39.8920 C   0  0  0  0  0  0  0  0  0  0  0  0
   45.3680   35.0060   38.4300 N   0  0  0  0  0  0  0  0  0  0  0  0
   44.9770   35.8230   37.8920 H   0  0  0  0  0  0  0  0  0  0  0  0
   46.3640   35.1890   38.7290 H   0  0  0  0  0  0  0  0  0  0  0  0
   39.2980   27.5380   40.4120 Cl  0  0  0  0  0  0  0  0  0  0  0  0
   38.2990   27.7240   41.8680 C   0  0  0  0  0  0  0  0  0  0  0  0
   38.4650   28.8670   42.6280 C   0  0  0  0  0  0  0  0  0  0  0  0
   37.6990   28.9960   43.7300 C   0  0  0  0  0  0  0  0  0  0  0  0
   36.7840   27.9880   44.0580 C   0  0  0  0  0  0  0  0  0  0  0  0
   36.6310   26.8490   43.2850 C   0  0  0  0  0  0  0  0  0  0  0  0
   37.4140   26.7040   42.1440 C   0  0  0  0  0  0  0  0  0  0  0  0
   37.8240   29.8860   44.3280 H   0  0  0  0  0  0  0  0  0  0  0  0
   36.1990   28.1530   44.9570 H   0  0  0  0  0  0  0  0  0  0  0  0
   35.9160   26.0780   43.5540 H   0  0  0  0  0  0  0  0  0  0  0  0
   38.8400   24.4890   42.8660 F   0  0  0  0  0  0  0  0  0  0  0  0
   38.0780   24.4800   41.7500 C   0  0  0  0  0  0  0  0  0  0  0  0
   37.3120   25.5300   41.2770 C   0  0  0  0  0  0  0  0  0  0  0  0
   36.5740   25.4020   40.1240 C   0  0  0  0  0  0  0  0  0  0  0  0
   36.6110   24.2030   39.4440 C   0  0  0  0  0  0  0  0  0  0  0  0
   37.3690   23.1250   39.8900 C   0  0  0  0  0  0  0  0  0  0  0  0
   38.1050   23.2770   41.0540 C   0  0  0  0  0  0  0  0  0  0  0  0
   36.0230   26.2680   39.8510 H   0  0  0  0  0  0  0  0  0  0  0  0
   36.0250   24.1260   38.5450 H   0  0  0  0  0  0  0  0  0  0  0  0
   37.3930   22.1810   39.3470 H   0  0  0  0  0  0  0  0  0  0  0  0
   38.6870   22.4240   41.3810 H   0  0  0  0  0  0  0  0  0  0  0  0
   43.0760   30.6690   42.8060 C   0  0  0  0  0  0  0  0  0  0  0  0
   43.2960   29.5200   43.5390 F   0  0  0  0  0  0  0  0  0  0  0  0
   43.2200   31.7190   43.6800 F   0  0  0  0  0  0  0  0  0  0  0  0
   43.9580   30.6910   41.7590 F   0  0  0  0  0  0  0  0  0  0  0  0
  1  6  2  0  0  0  0
  1  2  1  0  0  0  0
  2  3  2  0  0  0  0
  3  4  1  0  0  0  0
  3 43  1  0  0  0  0
  5 24  1  0  0  0  0
  5  4  2  0  0  0  0
  6  5  1  0  0  0  0
  7  1  1  0  0  0  0
  8  2  1  0  0  0  0
  8  9  1  0  0  0  0
  9 10  1  0  0  0  0
 11  9  2  0  0  0  0
 12 18  1  0  0  0  0
 12 11  1  0  0  0  0
 13 12  2  0  0  0  0
 14 15  2  0  0  0  0
 14 13  1  0  0  0  0
 15 17  1  0  0  0  0
 16 15  1  0  0  0  0
 17 18  2  0  0  0  0
 18  8  1  0  0  0  0
 19 13  1  0  0  0  0
 19 21  1  0  0  0  0
 20 19  1  0  0  0  0
 22 23  1  0  0  0  0
 23 28  2  0  0  0  0
 23 24  1  0  0  0  0
 24 25  2  0  0  0  0
 25 26  1  0  0  0  0
 25 29  1  0  0  0  0
 26 30  1  0  0  0  0
 27 31  1  0  0  0  0
 27 26  2  0  0  0  0
 28 27  1  0  0  0  0
 33 32  1  0  0  0  0
 34 33  1  0  0  0  0
 34 28  1  0  0  0  0
 35 34  2  0  0  0  0
 36 37  2  0  0  0  0
 36 35  1  0  0  0  0
 37 38  1  0  0  0  0
 38 42  1  0  0  0  0
 38 33  2  0  0  0  0
 39 35  1  0  0  0  0
 40 36  1  0  0  0  0
 41 37  1  0  0  0  0
 43 44  1  0  0  0  0
 43 45  1  0  0  0  0
 46 43  1  0  0  0  0
M  END
>  <minimizedAffinity>
-7.31620646

$$$$

 OpenBabel03242510433D

 46 50  0  0  0  0  0  0  0  0999 V2000
   40.5500   29.3210   39.8950 C   0  0  0  0  0  0  0  0  0  0  0  0
   39.8730   30.2990   39.1340 C   0  0  0  0  0  0  0  0  0  0  0  0
   38.4620   30.1850   39.0880 C   0  0  0  0  0  0  0  0  0  0  0  0
   37.8830   29.1660   39.7650 N   0  0  0  0  0  0  0  0  0  0  0  0
   38.5950   28.2530   40.4830 C   0  0  0  0  0  0  0  0  0  0  0  0
   39.9240   28.3390   40.5420 N   0  0  0  0  0  0  0  0  0  0  0  0
   41.6330   29.3980   39.9370 H   0  0  0  0  0  0  0  0  0  0  0  0
   40.5560   31.3430   38.4470 N   0  0  0  0  0  0  0  0  0  0  0  0
   41.0160   31.4930   37.1740 C   0  0  0  0  0  0  0  0  0  0  0  0
   40.8800   30.7020   36.4580 H   0  0  0  0  0  0  0  0  0  0  0  0
   41.5990   32.6990   37.0520 N   0  0  0  0  0  0  0  0  0  0  0  0
   41.5270   33.3480   38.2310 C   0  0  0  0  0  0  0  0  0  0  0  0
   41.9590   34.5920   38.6510 C   0  0  0  0  0  0  0  0  0  0  0  0
   41.7360   34.9780   39.9390 N   0  0  0  0  0  0  0  0  0  0  0  0
   41.0980   34.1460   40.7900 C   0  0  0  0  0  0  0  0  0  0  0  0
   40.9320   34.4760   41.8090 H   0  0  0  0  0  0  0  0  0  0  0  0
   40.6930   32.9460   40.3450 N   0  0  0  0  0  0  0  0  0  0  0  0
   40.8830   32.5030   39.0840 C   0  0  0  0  0  0  0  0  0  0  0  0
   42.6340   35.4810   37.7630 N   0  0  0  0  0  0  0  0  0  0  0  0
   43.6810   35.4840   37.8870 H   0  0  0  0  0  0  0  0  0  0  0  0
   42.3390   36.1480   37.0000 H   0  0  0  0  0  0  0  0  0  0  0  0
   38.1190   25.8400   38.8330 Cl  0  0  0  0  0  0  0  0  0  0  0  0
   37.6020   26.0030   40.5240 C   0  0  0  0  0  0  0  0  0  0  0  0
   37.8880   27.1870   41.1790 C   0  0  0  0  0  0  0  0  0  0  0  0
   37.4890   27.2970   42.4620 C   0  0  0  0  0  0  0  0  0  0  0  0
   36.8150   26.2320   43.0710 C   0  0  0  0  0  0  0  0  0  0  0  0
   36.5380   25.0520   42.4000 C   0  0  0  0  0  0  0  0  0  0  0  0
   36.9430   24.9250   41.0750 C   0  0  0  0  0  0  0  0  0  0  0  0
   37.7090   28.2200   42.9790 H   0  0  0  0  0  0  0  0  0  0  0  0
   36.5220   26.3850   44.1050 H   0  0  0  0  0  0  0  0  0  0  0  0
   36.0140   24.2370   42.8880 H   0  0  0  0  0  0  0  0  0  0  0  0
   38.8580   22.9790   41.1340 F   0  0  0  0  0  0  0  0  0  0  0  0
   37.7300   22.8080   40.4120 C   0  0  0  0  0  0  0  0  0  0  0  0
   36.6880   23.7120   40.2980 C   0  0  0  0  0  0  0  0  0  0  0  0
   35.5850   23.4250   39.5290 C   0  0  0  0  0  0  0  0  0  0  0  0
   35.5340   22.2160   38.8700 C   0  0  0  0  0  0  0  0  0  0  0  0
   36.5610   21.2820   38.9610 C   0  0  0  0  0  0  0  0  0  0  0  0
   37.6640   21.5920   39.7410 C   0  0  0  0  0  0  0  0  0  0  0  0
   34.8460   24.1880   39.5130 H   0  0  0  0  0  0  0  0  0  0  0  0
   34.6600   22.0140   38.2750 H   0  0  0  0  0  0  0  0  0  0  0  0
   36.5130   20.3280   38.4370 H   0  0  0  0  0  0  0  0  0  0  0  0
   38.4500   20.8500   39.7960 H   0  0  0  0  0  0  0  0  0  0  0  0
   37.7900   31.2120   38.2940 C   0  0  0  0  0  0  0  0  0  0  0  0
   36.4290   30.9950   38.3600 F   0  0  0  0  0  0  0  0  0  0  0  0
   38.1530   30.9980   36.9860 F   0  0  0  0  0  0  0  0  0  0  0  0
   38.0500   32.4790   38.7430 F   0  0  0  0  0  0  0  0  0  0  0  0
  1  7  1  0  0  0  0
  1  6  1  0  0  0  0
  2  1  2  0  0  0  0
  3  2  1  0  0  0  0
  3  4  2  0  0  0  0
  4  5  1  0  0  0  0
  5  6  2  0  0  0  0
  5 24  1  0  0  0  0
  8 18  1  0  0  0  0
  8  2  1  0  0  0  0
  9  8  1  0  0  0  0
 10  9  1  0  0  0  0
 11  9  2  0  0  0  0
 11 12  1  0  0  0  0
 12 13  2  0  0  0  0
 12 18  1  0  0  0  0
 13 14  1  0  0  0  0
 14 15  2  0  0  0  0
 15 16  1  0  0  0  0
 17 15  1  0  0  0  0
 18 17  2  0  0  0  0
 19 20  1  0  0  0  0
 19 13  1  0  0  0  0
 21 19  1  0  0  0  0
 22 23  1  0  0  0  0
 23 28  2  0  0  0  0
 23 24  1  0  0  0  0
 24 25  2  0  0  0  0
 25 29  1  0  0  0  0
 25 26  1  0  0  0  0
 26 30  1  0  0  0  0
 27 31  1  0  0  0  0
 27 26  2  0  0  0  0
 28 27  1  0  0  0  0
 33 32  1  0  0  0  0
 34 33  1  0  0  0  0
 34 28  1  0  0  0  0
 35 34  2  0  0  0  0
 36 37  2  0  0  0  0
 36 35  1  0  0  0  0
 37 38  1  0  0  0  0
 38 42  1  0  0  0  0
 38 33  2  0  0  0  0
 39 35  1  0  0  0  0
 40 36  1  0  0  0  0
 41 37  1  0  0  0  0
 43 44  1  0  0  0  0
 43 46  1  0  0  0  0
 43  3  1  0  0  0  0
 45 43  1  0  0  0  0
M  END
>  <minimizedAffinity>
-7.18190813

$$$$

 OpenBabel03242510433D

 46 50  0  0  0  0  0  0  0  0999 V2000
   40.0350   30.1230   41.1780 C   0  0  0  0  0  0  0  0  0  0  0  0
   39.3440   31.0310   40.3460 C   0  0  0  0  0  0  0  0  0  0  0  0
   38.0730   30.6090   39.8850 C   0  0  0  0  0  0  0  0  0  0  0  0
   37.6290   29.3890   40.2680 N   0  0  0  0  0  0  0  0  0  0  0  0
   38.3470   28.5580   41.0750 C   0  0  0  0  0  0  0  0  0  0  0  0
   39.5460   28.9330   41.5220 N   0  0  0  0  0  0  0  0  0  0  0  0
   41.0110   30.4360   41.5380 H   0  0  0  0  0  0  0  0  0  0  0  0
   39.8800   32.3000   39.9850 N   0  0  0  0  0  0  0  0  0  0  0  0
   39.6670   33.5730   40.4200 C   0  0  0  0  0  0  0  0  0  0  0  0
   38.9560   33.7600   41.2050 H   0  0  0  0  0  0  0  0  0  0  0  0
   40.4510   34.4160   39.7240 N   0  0  0  0  0  0  0  0  0  0  0  0
   41.1800   33.7130   38.8360 C   0  0  0  0  0  0  0  0  0  0  0  0
   42.1250   34.0750   37.8930 C   0  0  0  0  0  0  0  0  0  0  0  0
   42.7030   33.1120   37.1210 N   0  0  0  0  0  0  0  0  0  0  0  0
   42.3510   31.8180   37.2840 C   0  0  0  0  0  0  0  0  0  0  0  0
   42.8250   31.0700   36.6590 H   0  0  0  0  0  0  0  0  0  0  0  0
   41.4320   31.5060   38.2090 N   0  0  0  0  0  0  0  0  0  0  0  0
   40.8210   32.4100   39.0050 C   0  0  0  0  0  0  0  0  0  0  0  0
   42.5050   35.4370   37.7100 N   0  0  0  0  0  0  0  0  0  0  0  0
   42.0420   35.8960   36.8830 H   0  0  0  0  0  0  0  0  0  0  0  0
   43.1490   36.1090   38.2080 H   0  0  0  0  0  0  0  0  0  0  0  0
   38.8050   26.4420   39.0520 Cl  0  0  0  0  0  0  0  0  0  0  0  0
   37.9360   26.1840   40.5790 C   0  0  0  0  0  0  0  0  0  0  0  0
   37.7920   27.2610   41.4350 C   0  0  0  0  0  0  0  0  0  0  0  0
   37.1290   27.0510   42.5900 C   0  0  0  0  0  0  0  0  0  0  0  0
   36.6220   25.7770   42.8750 C   0  0  0  0  0  0  0  0  0  0  0  0
   36.7770   24.7090   42.0060 C   0  0  0  0  0  0  0  0  0  0  0  0
   37.4580   24.9120   40.8100 C   0  0  0  0  0  0  0  0  0  0  0  0
   37.0130   27.8880   43.2630 H   0  0  0  0  0  0  0  0  0  0  0  0
   36.1000   25.6750   43.8210 H   0  0  0  0  0  0  0  0  0  0  0  0
   36.3770   23.7290   42.2430 H   0  0  0  0  0  0  0  0  0  0  0  0
   35.5120   24.5370   38.9300 F   0  0  0  0  0  0  0  0  0  0  0  0
   36.6100   23.7500   38.9470 C   0  0  0  0  0  0  0  0  0  0  0  0
   37.6620   23.8350   39.8410 C   0  0  0  0  0  0  0  0  0  0  0  0
   38.7300   22.9740   39.7580 C   0  0  0  0  0  0  0  0  0  0  0  0
   38.7360   22.0190   38.7640 C   0  0  0  0  0  0  0  0  0  0  0  0
   37.6960   21.9040   37.8470 C   0  0  0  0  0  0  0  0  0  0  0  0
   36.6290   22.7820   37.9490 C   0  0  0  0  0  0  0  0  0  0  0  0
   39.4820   23.1280   40.4930 H   0  0  0  0  0  0  0  0  0  0  0  0
   39.5820   21.3570   38.7190 H   0  0  0  0  0  0  0  0  0  0  0  0
   37.7070   21.1460   37.0640 H   0  0  0  0  0  0  0  0  0  0  0  0
   35.8320   22.6720   37.2240 H   0  0  0  0  0  0  0  0  0  0  0  0
   37.3810   31.5710   39.0290 C   0  0  0  0  0  0  0  0  0  0  0  0
   36.2480   30.9690   38.5220 F   0  0  0  0  0  0  0  0  0  0  0  0
   38.2060   31.8070   37.9560 F   0  0  0  0  0  0  0  0  0  0  0  0
   37.0070   32.7030   39.7030 F   0  0  0  0  0  0  0  0  0  0  0  0
  1  6  1  0  0  0  0
  1  7  1  0  0  0  0
  2  1  2  0  0  0  0
  3  4  2  0  0  0  0
  3  2  1  0  0  0  0
  4  5  1  0  0  0  0
  5 24  1  0  0  0  0
  5  6  2  0  0  0  0
  8  2  1  0  0  0  0
  8  9  1  0  0  0  0
  9 10  1  0  0  0  0
 11  9  2  0  0  0  0
 12 18  1  0  0  0  0
 12 11  1  0  0  0  0
 13 12  2  0  0  0  0
 14 15  2  0  0  0  0
 14 13  1  0  0  0  0
 15 17  1  0  0  0  0
 16 15  1  0  0  0  0
 17 18  2  0  0  0  0
 18  8  1  0  0  0  0
 19 13  1  0  0  0  0
 19 21  1  0  0  0  0
 20 19  1  0  0  0  0
 22 23  1  0  0  0  0
 23 28  2  0  0  0  0
 23 24  1  0  0  0  0
 24 25  2  0  0  0  0
 25 26  1  0  0  0  0
 25 29  1  0  0  0  0
 26 30  1  0  0  0  0
 27 31  1  0  0  0  0
 27 26  2  0  0  0  0
 28 27  1  0  0  0  0
 32 33  1  0  0  0  0
 33 34  1  0  0  0  0
 34 28  1  0  0  0  0
 35 34  2  0  0  0  0
 35 39  1  0  0  0  0
 36 35  1  0  0  0  0
 37 38  1  0  0  0  0
 37 36  2  0  0  0  0
 38 33  2  0  0  0  0
 40 36  1  0  0  0  0
 41 37  1  0  0  0  0
 42 38  1  0  0  0  0
 43 46  1  0  0  0  0
 43  3  1  0  0  0  0
 44 43  1  0  0  0  0
 45 43  1  0  0  0  0
M  END
>  <minimizedAffinity>
-7.16399431

$$$$

 OpenBabel03242510433D

 46 50  0  0  0  0  0  0  0  0999 V2000
   39.2100   32.3560   41.2860 C   0  0  0  0  0  0  0  0  0  0  0  0
   40.2100   32.7890   40.3880 C   0  0  0  0  0  0  0  0  0  0  0  0
   40.2450   32.1350   39.1320 C   0  0  0  0  0  0  0  0  0  0  0  0
   39.3340   31.1620   38.8950 N   0  0  0  0  0  0  0  0  0  0  0  0
   38.3930   30.7890   39.8070 C   0  0  0  0  0  0  0  0  0  0  0  0
   38.3400   31.3900   40.9960 N   0  0  0  0  0  0  0  0  0  0  0  0
   39.1740   32.8500   42.2530 H   0  0  0  0  0  0  0  0  0  0  0  0
   41.1350   33.8220   40.7120 N   0  0  0  0  0  0  0  0  0  0  0  0
   41.1800   35.1610   40.4680 C   0  0  0  0  0  0  0  0  0  0  0  0
   40.3850   35.6310   39.9170 H   0  0  0  0  0  0  0  0  0  0  0  0
   42.3000   35.6740   41.0070 N   0  0  0  0  0  0  0  0  0  0  0  0
   42.9960   34.6870   41.6050 C   0  0  0  0  0  0  0  0  0  0  0  0
   44.1930   34.6620   42.2980 C   0  0  0  0  0  0  0  0  0  0  0  0
   44.6520   33.4810   42.7990 N   0  0  0  0  0  0  0  0  0  0  0  0
   43.9370   32.3490   42.6150 C   0  0  0  0  0  0  0  0  0  0  0  0
   44.3220   31.4230   43.0240 H   0  0  0  0  0  0  0  0  0  0  0  0
   42.7800   32.4140   41.9390 N   0  0  0  0  0  0  0  0  0  0  0  0
   42.2700   33.5500   41.4180 C   0  0  0  0  0  0  0  0  0  0  0  0
   44.9580   35.8490   42.4970 N   0  0  0  0  0  0  0  0  0  0  0  0
   45.7700   35.9430   41.8320 H   0  0  0  0  0  0  0  0  0  0  0  0
   44.9110   36.6700   43.1600 H   0  0  0  0  0  0  0  0  0  0  0  0
   39.2010   28.1050   40.7630 Cl  0  0  0  0  0  0  0  0  0  0  0  0
   37.7090   28.4270   39.8550 C   0  0  0  0  0  0  0  0  0  0  0  0
   37.4530   29.7290   39.4680 C   0  0  0  0  0  0  0  0  0  0  0  0
   36.3170   29.9600   38.7790 C   0  0  0  0  0  0  0  0  0  0  0  0
   35.4570   28.8940   38.4880 C   0  0  0  0  0  0  0  0  0  0  0  0
   35.7290   27.5950   38.8850 C   0  0  0  0  0  0  0  0  0  0  0  0
   36.8980   27.3430   39.5960 C   0  0  0  0  0  0  0  0  0  0  0  0
   36.1120   30.9750   38.4730 H   0  0  0  0  0  0  0  0  0  0  0  0
   34.5600   29.1470   37.9310 H   0  0  0  0  0  0  0  0  0  0  0  0
   35.0510   26.7810   38.6500 H   0  0  0  0  0  0  0  0  0  0  0  0
   36.4700   26.7610   42.2300 F   0  0  0  0  0  0  0  0  0  0  0  0
   36.9910   25.8320   41.3980 C   0  0  0  0  0  0  0  0  0  0  0  0
   37.2560   26.0000   40.0500 C   0  0  0  0  0  0  0  0  0  0  0  0
   37.7890   24.9760   39.3030 C   0  0  0  0  0  0  0  0  0  0  0  0
   38.0580   23.7740   39.9220 C   0  0  0  0  0  0  0  0  0  0  0  0
   37.8050   23.5690   41.2750 C   0  0  0  0  0  0  0  0  0  0  0  0
   37.2670   24.6140   42.0090 C   0  0  0  0  0  0  0  0  0  0  0  0
   37.9520   25.2120   38.2800 H   0  0  0  0  0  0  0  0  0  0  0  0
   38.4750   22.9880   39.3170 H   0  0  0  0  0  0  0  0  0  0  0  0
   38.0200   22.6160   41.7570 H   0  0  0  0  0  0  0  0  0  0  0  0
   37.0800   24.4300   43.0590 H   0  0  0  0  0  0  0  0  0  0  0  0
   41.2890   32.6070   38.2240 C   0  0  0  0  0  0  0  0  0  0  0  0
   41.1430   31.9570   37.0150 F   0  0  0  0  0  0  0  0  0  0  0  0
   42.4860   32.1840   38.7480 F   0  0  0  0  0  0  0  0  0  0  0  0
   41.2230   33.9560   38.0020 F   0  0  0  0  0  0  0  0  0  0  0  0
  1  7  1  0  0  0  0
  2  8  1  0  0  0  0
  2  1  2  0  0  0  0
  3  2  1  0  0  0  0
  4  3  2  0  0  0  0
  4  5  1  0  0  0  0
  5  6  2  0  0  0  0
  6  1  1  0  0  0  0
  8 18  1  0  0  0  0
  9  8  1  0  0  0  0
  9 11  2  0  0  0  0
 10  9  1  0  0  0  0
 11 12  1  0  0  0  0
 12 13  1  0  0  0  0
 13 19  1  0  0  0  0
 13 14  2  0  0  0  0
 15 14  1  0  0  0  0
 15 16  1  0  0  0  0
 17 15  2  0  0  0  0
 18 12  2  0  0  0  0
 18 17  1  0  0  0  0
 19 21  1  0  0  0  0
 20 19  1  0  0  0  0
 23 22  1  0  0  0  0
 24  5  1  0  0  0  0
 24 23  2  0  0  0  0
 25 24  1  0  0  0  0
 26 25  2  0  0  0  0
 26 27  1  0  0  0  0
 27 28  2  0  0  0  0
 28 23  1  0  0  0  0
 28 34  1  0  0  0  0
 29 25  1  0  0  0  0
 30 26  1  0  0  0  0
 31 27  1  0  0  0  0
 33 38  1  0  0  0  0
 33 32  1  0  0  0  0
 34 33  2  0  0  0  0
 35 36  2  0  0  0  0
 35 34  1  0  0  0  0
 36 37  1  0  0  0  0
 37 41  1  0  0  0  0
 37 38  2  0  0  0  0
 38 42  1  0  0  0  0
 39 35  1  0  0  0  0
 40 36  1  0  0  0  0
 43 45  1  0  0  0  0
 43  3  1  0  0  0  0
 44 43  1  0  0  0  0
 46 43  1  0  0  0  0
M  END
>  <minimizedAffinity>
-6.92749977

$$$$

 OpenBabel03242510433D

 46 50  0  0  0  0  0  0  0  0999 V2000
   39.2140   27.4800   39.9520 C   0  0  0  0  0  0  0  0  0  0  0  0
   38.6420   28.1510   41.0550 C   0  0  0  0  0  0  0  0  0  0  0  0
   37.7100   27.4090   41.8200 C   0  0  0  0  0  0  0  0  0  0  0  0
   37.4450   26.1370   41.4420 N   0  0  0  0  0  0  0  0  0  0  0  0
   38.0330   25.5450   40.3650 C   0  0  0  0  0  0  0  0  0  0  0  0
   38.9130   26.2240   39.6280 N   0  0  0  0  0  0  0  0  0  0  0  0
   39.9300   28.0400   39.3570 H   0  0  0  0  0  0  0  0  0  0  0  0
   38.9730   29.4960   41.3890 N   0  0  0  0  0  0  0  0  0  0  0  0
   39.8120   30.0640   42.2990 C   0  0  0  0  0  0  0  0  0  0  0  0
   40.3950   29.4390   42.9520 H   0  0  0  0  0  0  0  0  0  0  0  0
   39.7410   31.4020   42.1930 N   0  0  0  0  0  0  0  0  0  0  0  0
   38.8640   31.7250   41.2230 C   0  0  0  0  0  0  0  0  0  0  0  0
   38.4220   32.9320   40.7120 C   0  0  0  0  0  0  0  0  0  0  0  0
   37.5040   32.9370   39.7040 N   0  0  0  0  0  0  0  0  0  0  0  0
   37.0370   31.7680   39.2150 C   0  0  0  0  0  0  0  0  0  0  0  0
   36.3080   31.7980   38.4130 H   0  0  0  0  0  0  0  0  0  0  0  0
   37.4890   30.6180   39.7350 N   0  0  0  0  0  0  0  0  0  0  0  0
   38.3960   30.5430   40.7330 C   0  0  0  0  0  0  0  0  0  0  0  0
   38.9070   34.1730   41.2200 N   0  0  0  0  0  0  0  0  0  0  0  0
   38.2470   34.6380   41.8960 H   0  0  0  0  0  0  0  0  0  0  0  0
   39.7800   34.7510   41.0820 H   0  0  0  0  0  0  0  0  0  0  0  0
   35.7190   25.2960   38.5320 Cl  0  0  0  0  0  0  0  0  0  0  0  0
   36.6240   23.9140   39.1800 C   0  0  0  0  0  0  0  0  0  0  0  0
   37.6850   24.1710   40.0290 C   0  0  0  0  0  0  0  0  0  0  0  0
   38.3630   23.1120   40.5140 C   0  0  0  0  0  0  0  0  0  0  0  0
   37.9770   21.8170   40.1490 C   0  0  0  0  0  0  0  0  0  0  0  0
   36.9110   21.5770   39.2960 C   0  0  0  0  0  0  0  0  0  0  0  0
   36.2020   22.6610   38.7890 C   0  0  0  0  0  0  0  0  0  0  0  0
   39.1930   23.3070   41.1780 H   0  0  0  0  0  0  0  0  0  0  0  0
   38.5630   21.0090   40.5730 H   0  0  0  0  0  0  0  0  0  0  0  0
   36.6250   20.5660   39.0240 H   0  0  0  0  0  0  0  0  0  0  0  0
   33.7170   22.5260   39.9150 F   0  0  0  0  0  0  0  0  0  0  0  0
   33.8690   22.4360   38.5750 C   0  0  0  0  0  0  0  0  0  0  0  0
   35.0660   22.4900   37.8830 C   0  0  0  0  0  0  0  0  0  0  0  0
   35.0940   22.3860   36.5130 C   0  0  0  0  0  0  0  0  0  0  0  0
   33.9050   22.2280   35.8360 C   0  0  0  0  0  0  0  0  0  0  0  0
   32.6820   22.1710   36.4970 C   0  0  0  0  0  0  0  0  0  0  0  0
   32.6760   22.2770   37.8790 C   0  0  0  0  0  0  0  0  0  0  0  0
   36.0650   22.4400   36.0840 H   0  0  0  0  0  0  0  0  0  0  0  0
   33.9520   22.1500   34.7630 H   0  0  0  0  0  0  0  0  0  0  0  0
   31.7450   22.0460   35.9540 H   0  0  0  0  0  0  0  0  0  0  0  0
   31.7130   22.2290   38.3700 H   0  0  0  0  0  0  0  0  0  0  0  0
   37.1370   28.1300   42.9560 C   0  0  0  0  0  0  0  0  0  0  0  0
   36.1290   27.3600   43.4980 F   0  0  0  0  0  0  0  0  0  0  0  0
   36.5330   29.2530   42.4440 F   0  0  0  0  0  0  0  0  0  0  0  0
   38.0590   28.3910   43.9340 F   0  0  0  0  0  0  0  0  0  0  0  0
  1  2  1  0  0  0  0
  2  8  1  0  0  0  0
  2  3  2  0  0  0  0
  3 43  1  0  0  0  0
  4  3  1  0  0  0  0
  5  4  2  0  0  0  0
  6  1  2  0  0  0  0
  6  5  1  0  0  0  0
  7  1  1  0  0  0  0
  8  9  1  0  0  0  0
  9 10  1  0  0  0  0
 11  9  2  0  0  0  0
 12 11  1  0  0  0  0
 13 19  1  0  0  0  0
 13 12  2  0  0  0  0
 14 13  1  0  0  0  0
 15 14  2  0  0  0  0
 15 17  1  0  0  0  0
 16 15  1  0  0  0  0
 17 18  2  0  0  0  0
 18 12  1  0  0  0  0
 18  8  1  0  0  0  0
 19 20  1  0  0  0  0
 21 19  1  0  0  0  0
 22 23  1  0  0  0  0
 23 24  1  0  0  0  0
 24  5  1  0  0  0  0
 24 25  2  0  0  0  0
 25 29  1  0  0  0  0
 26 25  1  0  0  0  0
 26 30  1  0  0  0  0
 27 26  2  0  0  0  0
 28 23  2  0  0  0  0
 28 27  1  0  0  0  0
 31 27  1  0  0  0  0
 33 32  1  0  0  0  0
 34 33  1  0  0  0  0
 34 28  1  0  0  0  0
 35 34  2  0  0  0  0
 36 37  2  0  0  0  0
 36 35  1  0  0  0  0
 37 38  1  0  0  0  0
 38 42  1  0  0  0  0
 38 33  2  0  0  0  0
 39 35  1  0  0  0  0
 40 36  1  0  0  0  0
 41 37  1  0  0  0  0
 43 44  1  0  0  0  0
 43 46  1  0  0  0  0
 45 43  1  0  0  0  0
M  END
>  <minimizedAffinity>
-6.88402557

$$$$

 OpenBabel03242510433D

 46 50  0  0  0  0  0  0  0  0999 V2000
   38.4850   29.6110   38.8210 C   0  0  0  0  0  0  0  0  0  0  0  0
   38.0030   28.8640   39.9180 C   0  0  0  0  0  0  0  0  0  0  0  0
   38.0130   29.5210   41.1720 C   0  0  0  0  0  0  0  0  0  0  0  0
   38.4760   30.7920   41.2220 N   0  0  0  0  0  0  0  0  0  0  0  0
   38.9290   31.4600   40.1230 C   0  0  0  0  0  0  0  0  0  0  0  0
   38.9300   30.8620   38.9310 N   0  0  0  0  0  0  0  0  0  0  0  0
   38.4830   29.1170   37.8540 H   0  0  0  0  0  0  0  0  0  0  0  0
   37.5320   27.5260   39.7850 N   0  0  0  0  0  0  0  0  0  0  0  0
   36.2980   26.9710   39.6270 C   0  0  0  0  0  0  0  0  0  0  0  0
   35.4290   27.6020   39.5800 H   0  0  0  0  0  0  0  0  0  0  0  0
   36.4200   25.6340   39.5540 N   0  0  0  0  0  0  0  0  0  0  0  0
   37.7210   25.3000   39.6630 C   0  0  0  0  0  0  0  0  0  0  0  0
   38.3880   24.0890   39.6520 C   0  0  0  0  0  0  0  0  0  0  0  0
   39.7450   24.0710   39.7870 N   0  0  0  0  0  0  0  0  0  0  0  0
   40.4220   25.2310   39.9280 C   0  0  0  0  0  0  0  0  0  0  0  0
   41.5000   25.1910   40.0330 H   0  0  0  0  0  0  0  0  0  0  0  0
   39.7390   26.3860   39.9330 N   0  0  0  0  0  0  0  0  0  0  0  0
   38.3980   26.4730   39.8050 C   0  0  0  0  0  0  0  0  0  0  0  0
   37.6860   22.8570   39.5040 N   0  0  0  0  0  0  0  0  0  0  0  0
   37.5360   22.3460   40.4140 H   0  0  0  0  0  0  0  0  0  0  0  0
   37.2730   22.3200   38.6940 H   0  0  0  0  0  0  0  0  0  0  0  0
   41.8290   31.6620   40.6950 Cl  0  0  0  0  0  0  0  0  0  0  0  0
   40.7490   33.0620   40.5370 C   0  0  0  0  0  0  0  0  0  0  0  0
   39.4130   32.8260   40.2700 C   0  0  0  0  0  0  0  0  0  0  0  0
   38.6040   33.8980   40.1540 C   0  0  0  0  0  0  0  0  0  0  0  0
   39.1350   35.1850   40.3050 C   0  0  0  0  0  0  0  0  0  0  0  0
   40.4770   35.4030   40.5720 C   0  0  0  0  0  0  0  0  0  0  0  0
   41.3230   34.3050   40.6950 C   0  0  0  0  0  0  0  0  0  0  0  0
   37.5600   33.7200   39.9450 H   0  0  0  0  0  0  0  0  0  0  0  0
   38.4320   36.0040   40.1990 H   0  0  0  0  0  0  0  0  0  0  0  0
   40.8710   36.4080   40.6860 H   0  0  0  0  0  0  0  0  0  0  0  0
   43.0490   33.9470   38.6090 F   0  0  0  0  0  0  0  0  0  0  0  0
   43.5160   34.2480   39.8410 C   0  0  0  0  0  0  0  0  0  0  0  0
   42.7510   34.4540   40.9760 C   0  0  0  0  0  0  0  0  0  0  0  0
   43.3420   34.7560   42.1800 C   0  0  0  0  0  0  0  0  0  0  0  0
   44.7150   34.8520   42.2380 C   0  0  0  0  0  0  0  0  0  0  0  0
   45.5170   34.6530   41.1180 C   0  0  0  0  0  0  0  0  0  0  0  0
   44.9000   34.3490   39.9150 C   0  0  0  0  0  0  0  0  0  0  0  0
   42.6620   34.8930   42.9850 H   0  0  0  0  0  0  0  0  0  0  0  0
   45.1550   35.0900   43.1910 H   0  0  0  0  0  0  0  0  0  0  0  0
   46.6020   34.7310   41.1720 H   0  0  0  0  0  0  0  0  0  0  0  0
   45.5450   34.1980   39.0580 H   0  0  0  0  0  0  0  0  0  0  0  0
   37.5060   28.7230   42.2870 C   0  0  0  0  0  0  0  0  0  0  0  0
   37.6000   29.4740   43.4410 F   0  0  0  0  0  0  0  0  0  0  0  0
   38.3720   27.6670   42.4400 F   0  0  0  0  0  0  0  0  0  0  0  0
   36.1990   28.3500   42.1170 F   0  0  0  0  0  0  0  0  0  0  0  0
  1  6  2  0  0  0  0
  1  2  1  0  0  0  0
  2  3  2  0  0  0  0
  3  4  1  0  0  0  0
  3 43  1  0  0  0  0
  5 24  1  0  0  0  0
  5  4  2  0  0  0  0
  6  5  1  0  0  0  0
  7  1  1  0  0  0  0
  8 18  1  0  0  0  0
  8  2  1  0  0  0  0
  9  8  1  0  0  0  0
 10  9  1  0  0  0  0
 11  9  2  0  0  0  0
 11 12  1  0  0  0  0
 12 18  1  0  0  0  0
 13 12  2  0  0  0  0
 13 14  1  0  0  0  0
 14 15  2  0  0  0  0
 15 17  1  0  0  0  0
 15 16  1  0  0  0  0
 18 17  2  0  0  0  0
 19 13  1  0  0  0  0
 19 20  1  0  0  0  0
 21 19  1  0  0  0  0
 23 28  1  0  0  0  0
 23 22  1  0  0  0  0
 24 23  2  0  0  0  0
 25 24  1  0  0  0  0
 25 26  2  0  0  0  0
 26 27  1  0  0  0  0
 27 31  1  0  0  0  0
 27 28  2  0  0  0  0
 28 34  1  0  0  0  0
 29 25  1  0  0  0  0
 30 26  1  0  0  0  0
 32 33  1  0  0  0  0
 33 38  2  0  0  0  0
 33 34  1  0  0  0  0
 34 35  2  0  0  0  0
 35 36  1  0  0  0  0
 35 39  1  0  0  0  0
 36 40  1  0  0  0  0
 37 41  1  0  0  0  0
 37 36  2  0  0  0  0
 38 37  1  0  0  0  0
 42 38  1  0  0  0  0
 43 45  1  0  0  0  0
 43 44  1  0  0  0  0
 46 43  1  0  0  0  0
M  END
>  <minimizedAffinity>
-6.76621056

$$$$

 OpenBabel03242510433D

 46 50  0  0  0  0  0  0  0  0999 V2000
   40.7650   30.9760   37.7520 C   0  0  0  0  0  0  0  0  0  0  0  0
   40.7770   32.1660   38.5120 C   0  0  0  0  0  0  0  0  0  0  0  0
   39.6410   32.3960   39.3260 C   0  0  0  0  0  0  0  0  0  0  0  0
   38.6500   31.4740   39.3110 N   0  0  0  0  0  0  0  0  0  0  0  0
   38.7000   30.3440   38.5530 C   0  0  0  0  0  0  0  0  0  0  0  0
   39.7580   30.1050   37.7780 N   0  0  0  0  0  0  0  0  0  0  0  0
   41.6320   30.7890   37.1230 H   0  0  0  0  0  0  0  0  0  0  0  0
   41.8610   33.0890   38.4740 N   0  0  0  0  0  0  0  0  0  0  0  0
   42.1360   34.1920   37.7230 C   0  0  0  0  0  0  0  0  0  0  0  0
   41.4400   34.5130   36.9680 H   0  0  0  0  0  0  0  0  0  0  0  0
   43.3200   34.7040   38.1030 N   0  0  0  0  0  0  0  0  0  0  0  0
   43.8300   33.9510   39.0980 C   0  0  0  0  0  0  0  0  0  0  0  0
   44.9950   34.0280   39.8380 C   0  0  0  0  0  0  0  0  0  0  0  0
   45.2400   33.0960   40.8020 N   0  0  0  0  0  0  0  0  0  0  0  0
   44.3450   32.1100   41.0250 C   0  0  0  0  0  0  0  0  0  0  0  0
   44.5610   31.3810   41.7970 H   0  0  0  0  0  0  0  0  0  0  0  0
   43.2250   32.0680   40.2880 N   0  0  0  0  0  0  0  0  0  0  0  0
   42.9230   32.9590   39.3190 C   0  0  0  0  0  0  0  0  0  0  0  0
   45.9490   35.0640   39.6120 N   0  0  0  0  0  0  0  0  0  0  0  0
   46.7740   34.7580   39.0310 H   0  0  0  0  0  0  0  0  0  0  0  0
   46.0340   36.0800   39.8880 H   0  0  0  0  0  0  0  0  0  0  0  0
   39.2470   27.8840   40.1100 Cl  0  0  0  0  0  0  0  0  0  0  0  0
   37.7070   28.2180   39.2920 C   0  0  0  0  0  0  0  0  0  0  0  0
   37.5850   29.4070   38.5960 C   0  0  0  0  0  0  0  0  0  0  0  0
   36.4110   29.6480   37.9790 C   0  0  0  0  0  0  0  0  0  0  0  0
   35.3790   28.7040   38.0630 C   0  0  0  0  0  0  0  0  0  0  0  0
   35.5180   27.5180   38.7650 C   0  0  0  0  0  0  0  0  0  0  0  0
   36.7250   27.2570   39.4060 C   0  0  0  0  0  0  0  0  0  0  0  0
   36.3100   30.5740   37.4340 H   0  0  0  0  0  0  0  0  0  0  0  0
   34.4610   28.9590   37.5450 H   0  0  0  0  0  0  0  0  0  0  0  0
   34.7080   26.7980   38.8190 H   0  0  0  0  0  0  0  0  0  0  0  0
   37.4350   25.0280   37.9970 F   0  0  0  0  0  0  0  0  0  0  0  0
   37.3020   24.9750   39.3410 C   0  0  0  0  0  0  0  0  0  0  0  0
   36.9500   26.0280   40.1670 C   0  0  0  0  0  0  0  0  0  0  0  0
   36.8450   25.8530   41.5270 C   0  0  0  0  0  0  0  0  0  0  0  0
   37.1000   24.6060   42.0560 C   0  0  0  0  0  0  0  0  0  0  0  0
   37.4570   23.5240   41.2560 C   0  0  0  0  0  0  0  0  0  0  0  0
   37.5560   23.7230   39.8880 C   0  0  0  0  0  0  0  0  0  0  0  0
   36.5690   26.7250   42.0660 H   0  0  0  0  0  0  0  0  0  0  0  0
   37.0120   24.4930   43.1220 H   0  0  0  0  0  0  0  0  0  0  0  0
   37.6570   22.5420   41.6810 H   0  0  0  0  0  0  0  0  0  0  0  0
   37.8350   22.8670   39.2870 H   0  0  0  0  0  0  0  0  0  0  0  0
   39.6840   33.6340   40.1030 C   0  0  0  0  0  0  0  0  0  0  0  0
   40.6490   33.5030   41.0800 F   0  0  0  0  0  0  0  0  0  0  0  0
   38.4800   33.7290   40.7580 F   0  0  0  0  0  0  0  0  0  0  0  0
   39.9880   34.7260   39.3360 F   0  0  0  0  0  0  0  0  0  0  0  0
  1  6  2  0  0  0  0
  1  2  1  0  0  0  0
  2  3  2  0  0  0  0
  3 43  1  0  0  0  0
  4  3  1  0  0  0  0
  5 24  1  0  0  0  0
  5  4  2  0  0  0  0
  6  5  1  0  0  0  0
  7  1  1  0  0  0  0
  8  2  1  0  0  0  0
  8 18  1  0  0  0  0
  9 11  2  0  0  0  0
  9  8  1  0  0  0  0
 10  9  1  0  0  0  0
 11 12  1  0  0  0  0
 12 18  2  0  0  0  0
 12 13  1  0  0  0  0
 13 14  2  0  0  0  0
 14 15  1  0  0  0  0
 15 16  1  0  0  0  0
 17 15  2  0  0  0  0
 18 17  1  0  0  0  0
 19 13  1  0  0  0  0
 19 21  1  0  0  0  0
 20 19  1  0  0  0  0
 23 28  1  0  0  0  0
 23 22  1  0  0  0  0
 24 23  2  0  0  0  0
 25 26  2  0  0  0  0
 25 24  1  0  0  0  0
 26 27  1  0  0  0  0
 27 31  1  0  0  0  0
 27 28  2  0  0  0  0
 28 34  1  0  0  0  0
 29 25  1  0  0  0  0
 30 26  1  0  0  0  0
 32 33  1  0  0  0  0
 33 38  2  0  0  0  0
 33 34  1  0  0  0  0
 34 35  2  0  0  0  0
 35 36  1  0  0  0  0
 35 39  1  0  0  0  0
 36 40  1  0  0  0  0
 37 41  1  0  0  0  0
 37 36  2  0  0  0  0
 38 37  1  0  0  0  0
 42 38  1  0  0  0  0
 43 45  1  0  0  0  0
 43 44  1  0  0  0  0
 46 43  1  0  0  0  0
M  END
>  <minimizedAffinity>
-6.72148085

$$$$
