
     RDKit          3D

 52 56  0  0  0  0  0  0  0  0999 V2000
   45.6773   32.9651   46.7567 C   0  0  0  0  0  0  0  0  0  0  0  0
   46.3936   32.1660   47.7928 C   0  0  0  0  0  0  0  0  0  0  0  0
   45.9165   31.7912   49.0152 C   0  0  0  0  0  0  0  0  0  0  0  0
   46.8901   31.0947   49.6019 N   0  0  0  0  0  0  0  0  0  0  0  0
   47.9681   31.0033   48.8179 C   0  0  0  0  0  0  0  0  0  0  0  0
   47.6463   31.6807   47.6811 N   0  0  0  0  0  0  0  0  0  0  0  0
   49.2225   30.3760   49.0044 N   0  0  0  0  0  0  0  0  0  0  0  0
   50.3099   31.1644   49.6200 C   0  0  0  0  0  0  0  0  0  0  0  0
   50.4004   30.6403   51.0516 C   0  0  0  0  0  0  0  0  0  0  0  0
   50.4282   29.1289   51.0500 C   0  0  0  0  0  0  0  0  0  0  0  0
   50.7725   28.6289   49.6565 C   0  0  0  0  0  0  0  0  0  0  0  0
   49.6880   29.0570   48.7036 C   0  0  0  0  0  0  0  0  0  0  0  0
   46.1491   33.8868   44.5209 C   0  0  0  0  0  0  0  0  0  0  0  0
   46.5401   33.1917   45.5737 C   0  0  0  0  0  0  0  0  0  0  0  0
   47.0957   34.0400   43.4129 C   0  0  0  0  0  0  0  0  0  0  0  0
   46.9187   35.0151   42.4023 C   0  0  0  0  0  0  0  0  0  0  0  0
   47.8810   35.0690   41.3993 C   0  0  0  0  0  0  0  0  0  0  0  0
   48.9180   34.2234   41.4150 N   0  0  0  0  0  0  0  0  0  0  0  0
   49.0692   33.2962   42.3926 C   0  0  0  0  0  0  0  0  0  0  0  0
   48.1738   33.2165   43.3615 N   0  0  0  0  0  0  0  0  0  0  0  0
   44.7451   32.4467   46.4540 H   0  0  0  0  0  0  0  0  0  0  0  0
   45.4857   33.9651   47.1996 H   0  0  0  0  0  0  0  0  0  0  0  0
   44.9415   32.0012   49.4556 H   0  0  0  0  0  0  0  0  0  0  0  0
   46.8747   30.6528   50.5475 H   0  0  0  0  0  0  0  0  0  0  0  0
   51.2499   31.0508   49.0674 H   0  0  0  0  0  0  0  0  0  0  0  0
   50.0421   32.2341   49.6740 H   0  0  0  0  0  0  0  0  0  0  0  0
   51.3430   31.0590   51.5033 H   0  0  0  0  0  0  0  0  0  0  0  0
   49.5598   31.0513   51.6335 H   0  0  0  0  0  0  0  0  0  0  0  0
   49.3590   28.8051   51.2051 H   0  0  0  0  0  0  0  0  0  0  0  0
   51.0654   28.6853   51.8156 H   0  0  0  0  0  0  0  0  0  0  0  0
   50.9034   27.5392   49.7042 H   0  0  0  0  0  0  0  0  0  0  0  0
   51.7645   29.0880   49.3963 H   0  0  0  0  0  0  0  0  0  0  0  0
   48.8650   28.2935   48.7861 H   0  0  0  0  0  0  0  0  0  0  0  0
   50.0699   28.9843   47.6595 H   0  0  0  0  0  0  0  0  0  0  0  0
   45.1763   34.3193   44.4847 H   0  0  0  0  0  0  0  0  0  0  0  0
   47.5521   32.7565   45.5819 H   0  0  0  0  0  0  0  0  0  0  0  0
   46.0538   35.6654   42.4560 H   0  0  0  0  0  0  0  0  0  0  0  0
   47.7698   35.7963   40.6253 H   0  0  0  0  0  0  0  0  0  0  0  0
   50.2179   32.4721   42.2732 N   0  0  0  0  0  0  0  0  0  0  0  0
   51.4236   32.7899   41.7270 C   0  0  0  0  0  0  0  0  0  0  0  0
   51.6780   33.7637   41.2891 H   0  0  0  0  0  0  0  0  0  0  0  0
   52.2492   31.7214   41.8106 N   0  0  0  0  0  0  0  0  0  0  0  0
   51.5749   30.7118   42.4120 C   0  0  0  0  0  0  0  0  0  0  0  0
   51.9152   29.4074   42.7539 C   0  0  0  0  0  0  0  0  0  0  0  0
   53.2148   28.9031   42.4664 N   0  0  0  0  0  0  0  0  0  0  0  0
   53.7061   28.4593   41.6607 H   0  0  0  0  0  0  0  0  0  0  0  0
   50.9780   28.6355   43.3652 N   0  0  0  0  0  0  0  0  0  0  0  0
   49.7565   29.0905   43.6421 C   0  0  0  0  0  0  0  0  0  0  0  0
   49.0597   28.4268   44.1285 H   0  0  0  0  0  0  0  0  0  0  0  0
   49.4331   30.3614   43.3061 N   0  0  0  0  0  0  0  0  0  0  0  0
   50.2997   31.1849   42.7018 C   0  0  0  0  0  0  0  0  0  0  0  0
   53.7246   29.0697   43.3572 H   0  0  0  0  0  0  0  0  0  0  0  0
  1  2  1  0
  2  3  2  0
  3  4  1  0
  5  7  1  0
  5  4  1  0
  6  2  1  0
  6  5  2  0
  7  8  1  0
  8  9  1  0
  9 10  1  0
 11 10  1  0
 12  7  1  0
 12 11  1  0
 13 14  2  0
 14  1  1  0
 15 13  1  0
 16 15  2  0
 17 18  2  0
 17 16  1  0
 18 19  1  0
 19 20  2  0
 20 15  1  0
  1 21  1  0
  1 22  1  0
  3 23  1  0
  4 24  1  0
  8 25  1  0
  8 26  1  0
  9 27  1  0
  9 28  1  0
 10 29  1  0
 10 30  1  0
 11 31  1  0
 11 32  1  0
 12 33  1  0
 12 34  1  0
 13 35  1  0
 14 36  1  0
 16 37  1  0
 17 38  1  0
 39 40  1  0
 40 41  1  0
 40 42  2  0
 42 43  1  0
 43 44  2  0
 44 45  1  0
 45 46  1  0
 44 47  1  0
 47 48  2  0
 48 49  1  0
 48 50  1  0
 50 51  2  0
 51 39  1  0
 51 43  1  0
 45 52  1  0
 19 39  1  0
M  ISO  8  21   8  22   8  23  14  24   9  25  13  26  13  27  13  28  13
M  ISO  8  29  13  30  13  31  13  32  13  33  13  34  13  37  14  38  14
M  ISO  3  41  15  46   5  49  16
M  END
>  <DihAtoms>  (1) 
17,18,38,39

>  <DihDeg>  (1) 
-119.27209543356823

$$$$
