
 OpenBabel03252505293D

 32 34  0  0  0  0  0  0  0  0999 V2000
   44.9630   29.9490   47.6450 C   0  0  0  0  0  0  0  0  0  0  0  0
   43.9930   30.3720   47.9750 H   0  0  0  0  0  0  0  0  0  0  0  0
   45.6380   30.0320   48.5190 H   0  0  0  0  0  0  0  0  0  0  0  0
   44.8260   28.5780   47.1870 N   0  0  0  0  0  0  0  0  0  0  0  0
   45.6030   27.5640   47.6580 C   0  0  0  0  0  0  0  0  0  0  0  0
   46.3920   27.6210   48.4010 H   0  0  0  0  0  0  0  0  0  0  0  0
   45.2690   26.4030   47.0680 N   0  0  0  0  0  0  0  0  0  0  0  0
   44.2750   26.6750   46.2150 C   0  0  0  0  0  0  0  0  0  0  0  0
   43.5030   25.9420   45.3260 C   0  0  0  0  0  0  0  0  0  0  0  0
   42.5550   26.4850   44.5820 N   0  0  0  0  0  0  0  0  0  0  0  0
   42.3140   27.8240   44.6840 C   0  0  0  0  0  0  0  0  0  0  0  0
   41.5140   28.1790   44.0310 H   0  0  0  0  0  0  0  0  0  0  0  0
   43.0260   28.6190   45.5340 N   0  0  0  0  0  0  0  0  0  0  0  0
   43.9880   28.0400   46.2820 C   0  0  0  0  0  0  0  0  0  0  0  0
   43.8370   24.5430   45.2950 N   0  0  0  0  0  0  0  0  0  0  0  0
   44.7620   24.0890   45.0350 H   0  0  0  0  0  0  0  0  0  0  0  0
   43.0930   23.8310   45.5550 H   0  0  0  0  0  0  0  0  0  0  0  0
   45.5050   30.6900   46.6300 O   0  0  0  0  0  0  0  0  0  0  0  0
   46.9580   31.9090   48.3740 O   0  0  0  0  0  0  0  0  0  0  0  0
   45.9630   32.1870   47.2500 P   0  0  2  0  0  0  0  0  0  0  0  0
   44.5970   32.9620   47.8320 O   0  0  0  0  0  0  0  0  0  0  0  0
   43.7590   32.4610   47.6820 H   0  0  0  0  0  0  0  0  0  0  0  0
   46.7570   33.1290   46.0850 O   0  0  0  0  0  0  0  0  0  0  0  0
   44.4730   35.5520   44.8310 C   0  0  0  0  0  0  0  0  0  0  0  0
   44.8510   35.7430   43.4830 C   0  0  0  0  0  0  0  0  0  0  0  0
   45.9500   34.9700   43.0500 C   0  0  0  0  0  0  0  0  0  0  0  0
   46.5660   34.1160   43.9170 N   0  0  0  0  0  0  0  0  0  0  0  0
   46.1400   33.9950   45.1930 C   0  0  0  0  0  0  0  0  0  0  0  0
   45.1090   34.7020   45.6380 N   0  0  0  0  0  0  0  0  0  0  0  0
   43.6260   36.1500   45.1570 H   0  0  0  0  0  0  0  0  0  0  0  0
   44.3540   36.4180   42.8230 H   0  0  0  0  0  0  0  0  0  0  0  0
   46.2970   35.0670   42.0190 H   0  0  0  0  0  0  0  0  0  0  0  0
  1  2  1  0  0  0  0
  1  3  1  0  0  0  0
  4  1  1  0  0  0  0
  4  5  1  0  0  0  0
  5  6  1  0  0  0  0
  7  5  2  0  0  0  0
  8 14  1  0  0  0  0
  8  7  1  0  0  0  0
  9  8  2  0  0  0  0
 10 11  2  0  0  0  0
 10  9  1  0  0  0  0
 11 13  1  0  0  0  0
 12 11  1  0  0  0  0
 13 14  2  0  0  0  0
 14  4  1  0  0  0  0
 15  9  1  0  0  0  0
 15 17  1  0  0  0  0
 16 15  1  0  0  0  0
 18 20  1  0  0  0  0
 18  1  1  0  0  0  0
 20 21  1  0  0  0  0
 20 19  2  1  0  0  0
 22 21  1  0  0  0  0
 23 20  1  0  0  0  0
 24 30  1  0  0  0  0
 24 29  1  0  0  0  0
 25 24  2  0  0  0  0
 26 25  1  0  0  0  0
 26 27  2  0  0  0  0
 27 28  1  0  0  0  0
 28 29  2  0  0  0  0
 28 23  1  0  0  0  0
 31 25  1  0  0  0  0
 32 26  1  0  0  0  0
M  END
>  <minimizedAffinity>
-4.75215006

>  <minimizedRMSD>
1.29909098

$$$$
