
 OpenBabel03242523093D

 50 55  0  0  1  0  0  0  0  0999 V2000
   35.8330   28.3020   39.8380 C   0  0  0  0  0  0  0  0  0  0  0  0
   36.8560   27.4360   39.3960 C   0  0  0  0  0  0  0  0  0  0  0  0
   37.7960   28.1280   38.6530 C   0  0  0  0  0  0  0  0  0  0  0  0
   37.7710   29.4610   38.3630 C   0  0  0  0  0  0  0  0  0  0  0  0
   36.7250   30.2310   38.8330 C   0  0  0  0  0  0  0  0  0  0  0  0
   35.7420   29.6540   39.5830 C   0  0  0  0  0  0  0  0  0  0  0  0
   36.9870   31.5050   38.3660 O   0  0  0  0  0  0  0  0  0  0  0  0
   38.2270   31.5380   37.6990 C   0  0  2  0  0  0  0  0  0  0  0  0
   38.6910   30.1900   37.6310 O   0  0  0  0  0  0  0  0  0  0  0  0
   34.9410   28.0810   40.4620 H   0  0  0  0  0  0  0  0  0  0  0  0
   38.5520   27.4940   38.3200 H   0  0  0  0  0  0  0  0  0  0  0  0
   34.9970   30.3320   39.8920 H   0  0  0  0  0  0  0  0  0  0  0  0
   38.1420   32.0010   36.7090 H   0  0  0  0  0  0  0  0  0  0  0  0
   39.1100   32.3210   38.5790 N   0  0  0  0  0  0  0  0  0  0  0  0
   38.8080   32.8650   39.7630 C   0  0  0  0  0  0  0  0  0  0  0  0
   37.8170   32.7670   40.2090 H   0  0  0  0  0  0  0  0  0  0  0  0
   39.9200   33.4990   40.2280 N   0  0  0  0  0  0  0  0  0  0  0  0
   40.8970   33.3460   39.3320 C   0  0  0  0  0  0  0  0  0  0  0  0
   42.2120   33.7620   39.2660 C   0  0  0  0  0  0  0  0  0  0  0  0
   42.9460   33.4280   38.1930 N   0  0  0  0  0  0  0  0  0  0  0  0
   42.4750   32.7060   37.1670 C   0  0  0  0  0  0  0  0  0  0  0  0
   43.0890   32.4500   36.3110 H   0  0  0  0  0  0  0  0  0  0  0  0
   41.1910   32.3050   37.2410 N   0  0  0  0  0  0  0  0  0  0  0  0
   40.3940   32.6010   38.2850 C   0  0  0  0  0  0  0  0  0  0  0  0
   42.7760   34.5350   40.3280 N   0  0  0  0  0  0  0  0  0  0  0  0
   43.1690   33.8020   40.9730 H   0  0  0  0  0  0  0  0  0  0  0  0
   42.8830   35.5270   40.5950 H   0  0  0  0  0  0  0  0  0  0  0  0
   36.5770   24.0380   40.9240 C   0  0  0  0  0  0  0  0  0  0  0  0
   36.9360   25.3770   40.8880 C   0  0  0  0  0  0  0  0  0  0  0  0
   36.6380   26.0930   39.7550 C   0  0  0  0  0  0  0  0  0  0  0  0
   36.0070   25.4570   38.7170 N   0  0  0  0  0  0  0  0  0  0  0  0
   35.6720   24.1550   38.7850 C   0  0  0  0  0  0  0  0  0  0  0  0
   35.9560   23.4610   39.8740 N   0  0  0  0  0  0  0  0  0  0  0  0
   36.8010   23.4570   41.8050 H   0  0  0  0  0  0  0  0  0  0  0  0
   35.1750   23.5860   38.0120 H   0  0  0  0  0  0  0  0  0  0  0  0
   37.5870   25.9150   41.9940 N   0  0  0  0  0  0  0  0  0  0  0  0
   38.9460   25.6630   42.2820 C   0  0  0  0  0  0  0  0  0  0  0  0
   39.5130   26.4650   43.4320 C   0  0  0  0  0  0  0  0  0  0  0  0
   39.0950   27.7930   43.5180 N   0  0  0  0  0  0  0  0  0  0  0  0
   37.7480   28.0430   43.2320 C   0  0  0  0  0  0  0  0  0  0  0  0
   36.9800   26.7660   42.9590 C   0  0  0  0  0  0  0  0  0  0  0  0
   39.0510   24.5930   42.5720 H   0  0  0  0  0  0  0  0  0  0  0  0
   39.6260   25.7630   41.3940 H   0  0  0  0  0  0  0  0  0  0  0  0
   39.3590   25.9140   44.4040 H   0  0  0  0  0  0  0  0  0  0  0  0
   40.6320   26.4590   43.2870 H   0  0  0  0  0  0  0  0  0  0  0  0
   39.3510   28.1800   44.4510 H   0  0  0  0  0  0  0  0  0  0  0  0
   37.2280   28.4870   44.1350 H   0  0  0  0  0  0  0  0  0  0  0  0
   37.5250   28.7770   42.4320 H   0  0  0  0  0  0  0  0  0  0  0  0
   36.8620   26.1590   43.8970 H   0  0  0  0  0  0  0  0  0  0  0  0
   35.9770   27.0750   42.5780 H   0  0  0  0  0  0  0  0  0  0  0  0
  1 10  1  0  0  0  0
  2 30  1  0  0  0  0
  2  1  2  0  0  0  0
  3  2  1  0  0  0  0
  4  3  2  0  0  0  0
  4  5  1  0  0  0  0
  5  6  2  0  0  0  0
  6  1  1  0  0  0  0
  6 12  1  0  0  0  0
  7  5  1  0  0  0  0
  8 13  1  6  0  0  0
  8  7  1  0  0  0  0
  8 14  1  0  0  0  0
  9  8  1  0  0  0  0
  9  4  1  0  0  0  0
 11  3  1  0  0  0  0
 14 15  1  0  0  0  0
 15 16  1  0  0  0  0
 15 17  2  0  0  0  0
 18 17  1  0  0  0  0
 19 18  1  0  0  0  0
 19 25  1  0  0  0  0
 20 19  2  0  0  0  0
 21 23  2  0  0  0  0
 21 20  1  0  0  0  0
 22 21  1  0  0  0  0
 23 24  1  0  0  0  0
 24 14  1  0  0  0  0
 24 18  2  0  0  0  0
 25 27  1  0  0  0  0
 25 26  1  0  0  0  0
 28 34  1  0  0  0  0
 29 28  1  0  0  0  0
 29 36  1  0  0  0  0
 30 29  2  0  0  0  0
 31 32  2  0  0  0  0
 31 30  1  0  0  0  0
 32 33  1  0  0  0  0
 33 28  2  0  0  0  0
 35 32  1  0  0  0  0
 36 37  1  0  0  0  0
 36 41  1  0  0  0  0
 37 42  1  0  0  0  0
 37 38  1  0  0  0  0
 38 39  1  0  0  0  0
 38 44  1  0  0  0  0
 39 46  1  0  0  0  0
 40 39  1  0  0  0  0
 40 47  1  0  0  0  0
 41 40  1  0  0  0  0
 41 49  1  0  0  0  0
 43 37  1  0  0  0  0
 45 38  1  0  0  0  0
 48 40  1  0  0  0  0
 50 41  1  0  0  0  0
M  END
>  <minimizedAffinity>
-6.80031919

$$$$

 OpenBabel03242523093D

 50 55  0  0  1  0  0  0  0  0999 V2000
   39.4920   32.2730   39.3720 C   0  0  0  0  0  0  0  0  0  0  0  0
   40.7560   32.0580   39.9630 C   0  0  0  0  0  0  0  0  0  0  0  0
   40.6460   31.2270   41.0630 C   0  0  0  0  0  0  0  0  0  0  0  0
   39.4940   30.6750   41.5450 C   0  0  0  0  0  0  0  0  0  0  0  0
   38.3010   30.9470   40.9050 C   0  0  0  0  0  0  0  0  0  0  0  0
   38.2900   31.7520   39.8030 C   0  0  0  0  0  0  0  0  0  0  0  0
   37.3470   30.2610   41.6320 O   0  0  0  0  0  0  0  0  0  0  0  0
   37.9570   29.4980   42.6470 C   0  0  2  0  0  0  0  0  0  0  0  0
   39.3430   29.8370   42.6360 O   0  0  0  0  0  0  0  0  0  0  0  0
   39.2250   32.8700   38.4750 H   0  0  0  0  0  0  0  0  0  0  0  0
   41.5750   31.0670   41.5070 H   0  0  0  0  0  0  0  0  0  0  0  0
   37.3300   31.8890   39.3920 H   0  0  0  0  0  0  0  0  0  0  0  0
   37.4910   29.6790   43.6230 H   0  0  0  0  0  0  0  0  0  0  0  0
   37.7860   28.0990   42.2250 N   0  0  0  0  0  0  0  0  0  0  0  0
   36.8920   27.6110   41.3590 C   0  0  0  0  0  0  0  0  0  0  0  0
   36.1650   28.2500   40.8550 H   0  0  0  0  0  0  0  0  0  0  0  0
   37.0900   26.2670   41.2650 N   0  0  0  0  0  0  0  0  0  0  0  0
   38.0990   25.9330   42.0720 C   0  0  0  0  0  0  0  0  0  0  0  0
   38.7270   24.7430   42.3810 C   0  0  0  0  0  0  0  0  0  0  0  0
   39.7420   24.7530   43.2590 N   0  0  0  0  0  0  0  0  0  0  0  0
   40.1900   25.8620   43.8630 C   0  0  0  0  0  0  0  0  0  0  0  0
   41.0120   25.8440   44.5700 H   0  0  0  0  0  0  0  0  0  0  0  0
   39.5710   27.0180   43.5550 N   0  0  0  0  0  0  0  0  0  0  0  0
   38.5470   27.0870   42.6840 C   0  0  0  0  0  0  0  0  0  0  0  0
   38.2970   23.5240   41.7710 N   0  0  0  0  0  0  0  0  0  0  0  0
   38.8910   23.4690   40.9050 H   0  0  0  0  0  0  0  0  0  0  0  0
   37.6220   22.7630   41.9480 H   0  0  0  0  0  0  0  0  0  0  0  0
   43.8110   33.9280   38.9020 C   0  0  0  0  0  0  0  0  0  0  0  0
   43.0090   33.2250   39.7890 C   0  0  0  0  0  0  0  0  0  0  0  0
   41.7890   32.7830   39.3400 C   0  0  0  0  0  0  0  0  0  0  0  0
   41.4210   33.0540   38.0480 N   0  0  0  0  0  0  0  0  0  0  0  0
   42.2240   33.7390   37.2140 C   0  0  0  0  0  0  0  0  0  0  0  0
   43.4000   34.1670   37.6390 N   0  0  0  0  0  0  0  0  0  0  0  0
   44.7740   34.2850   39.2330 H   0  0  0  0  0  0  0  0  0  0  0  0
   42.0040   33.9900   36.1850 H   0  0  0  0  0  0  0  0  0  0  0  0
   43.4780   33.0210   41.0830 N   0  0  0  0  0  0  0  0  0  0  0  0
   44.2050   31.8730   41.4640 C   0  0  0  0  0  0  0  0  0  0  0  0
   44.7660   31.9100   42.8680 C   0  0  0  0  0  0  0  0  0  0  0  0
   45.2760   33.1380   43.2920 N   0  0  0  0  0  0  0  0  0  0  0  0
   44.5550   34.2760   42.9140 C   0  0  0  0  0  0  0  0  0  0  0  0
   43.2840   33.9210   42.1670 C   0  0  0  0  0  0  0  0  0  0  0  0
   43.5200   30.9960   41.4300 H   0  0  0  0  0  0  0  0  0  0  0  0
   45.0240   31.5940   40.7490 H   0  0  0  0  0  0  0  0  0  0  0  0
   44.0150   31.4950   43.5980 H   0  0  0  0  0  0  0  0  0  0  0  0
   45.6080   31.1590   42.8820 H   0  0  0  0  0  0  0  0  0  0  0  0
   45.4180   33.1190   44.3240 H   0  0  0  0  0  0  0  0  0  0  0  0
   44.1870   34.8340   43.8290 H   0  0  0  0  0  0  0  0  0  0  0  0
   45.0990   35.0590   42.3490 H   0  0  0  0  0  0  0  0  0  0  0  0
   42.5340   33.4440   42.8540 H   0  0  0  0  0  0  0  0  0  0  0  0
   42.8770   34.8790   41.7640 H   0  0  0  0  0  0  0  0  0  0  0  0
  1  6  2  0  0  0  0
  1  2  1  0  0  0  0
  2  3  2  0  0  0  0
  3 11  1  0  0  0  0
  3  4  1  0  0  0  0
  4  9  1  0  0  0  0
  5  4  2  0  0  0  0
  5  7  1  0  0  0  0
  6  5  1  0  0  0  0
  7  8  1  0  0  0  0
  8 13  1  1  0  0  0
  9  8  1  0  0  0  0
 10  1  1  0  0  0  0
 12  6  1  0  0  0  0
 14  8  1  0  0  0  0
 14 24  1  0  0  0  0
 15 14  1  0  0  0  0
 16 15  1  0  0  0  0
 17 15  2  0  0  0  0
 17 18  1  0  0  0  0
 18 19  2  0  0  0  0
 18 24  1  0  0  0  0
 19 20  1  0  0  0  0
 20 21  2  0  0  0  0
 21 22  1  0  0  0  0
 23 21  1  0  0  0  0
 24 23  2  0  0  0  0
 25 27  1  0  0  0  0
 25 19  1  0  0  0  0
 26 25  1  0  0  0  0
 28 34  1  0  0  0  0
 28 29  1  0  0  0  0
 29 36  1  0  0  0  0
 30 29  2  0  0  0  0
 30  2  1  0  0  0  0
 31 30  1  0  0  0  0
 32 33  1  0  0  0  0
 32 31  2  0  0  0  0
 33 28  2  0  0  0  0
 35 32  1  0  0  0  0
 36 37  1  0  0  0  0
 36 41  1  0  0  0  0
 37 38  1  0  0  0  0
 38 45  1  0  0  0  0
 38 39  1  0  0  0  0
 38 44  1  0  0  0  0
 39 46  1  0  0  0  0
 40 39  1  0  0  0  0
 40 47  1  0  0  0  0
 41 49  1  0  0  0  0
 41 40  1  0  0  0  0
 42 37  1  0  0  0  0
 43 37  1  0  0  0  0
 48 40  1  0  0  0  0
 50 41  1  0  0  0  0
M  END
>  <minimizedAffinity>
-6.7400732

$$$$

 OpenBabel03242523093D

 50 55  0  0  1  0  0  0  0  0999 V2000
   36.1480   26.0480   38.6190 C   0  0  0  0  0  0  0  0  0  0  0  0
   37.4940   25.6930   38.8500 C   0  0  0  0  0  0  0  0  0  0  0  0
   38.3350   26.7580   38.5790 C   0  0  0  0  0  0  0  0  0  0  0  0
   37.9550   27.9940   38.1430 C   0  0  0  0  0  0  0  0  0  0  0  0
   36.6130   28.2500   37.9380 C   0  0  0  0  0  0  0  0  0  0  0  0
   35.6910   27.2730   38.1790 C   0  0  0  0  0  0  0  0  0  0  0  0
   36.5670   29.5590   37.4980 O   0  0  0  0  0  0  0  0  0  0  0  0
   37.8540   30.1320   37.5240 C   0  0  2  0  0  0  0  0  0  0  0  0
   38.7600   29.0840   37.8670 O   0  0  0  0  0  0  0  0  0  0  0  0
   35.2260   25.4440   38.7500 H   0  0  0  0  0  0  0  0  0  0  0  0
   39.3310   26.5010   38.7430 H   0  0  0  0  0  0  0  0  0  0  0  0
   34.7000   27.5760   37.9940 H   0  0  0  0  0  0  0  0  0  0  0  0
   38.1050   30.6070   36.5690 H   0  0  0  0  0  0  0  0  0  0  0  0
   37.8060   31.1200   38.6140 N   0  0  0  0  0  0  0  0  0  0  0  0
   36.8160   31.3230   39.4890 C   0  0  0  0  0  0  0  0  0  0  0  0
   35.8980   30.7340   39.4720 H   0  0  0  0  0  0  0  0  0  0  0  0
   37.1930   32.3340   40.3200 N   0  0  0  0  0  0  0  0  0  0  0  0
   38.4070   32.7500   39.9540 C   0  0  0  0  0  0  0  0  0  0  0  0
   39.2680   33.7230   40.4200 C   0  0  0  0  0  0  0  0  0  0  0  0
   40.4520   33.8890   39.8090 N   0  0  0  0  0  0  0  0  0  0  0  0
   40.8540   33.1590   38.7600 C   0  0  0  0  0  0  0  0  0  0  0  0
   41.8160   33.3130   38.2830 H   0  0  0  0  0  0  0  0  0  0  0  0
   40.0060   32.2120   38.3130 N   0  0  0  0  0  0  0  0  0  0  0  0
   38.8040   31.9870   38.8750 C   0  0  0  0  0  0  0  0  0  0  0  0
   38.8990   34.5360   41.5360 N   0  0  0  0  0  0  0  0  0  0  0  0
   39.2660   33.9920   42.3580 H   0  0  0  0  0  0  0  0  0  0  0  0
   38.4130   35.4290   41.7200 H   0  0  0  0  0  0  0  0  0  0  0  0
   38.0590   22.3680   40.4570 C   0  0  0  0  0  0  0  0  0  0  0  0
   37.9790   23.7520   40.4210 C   0  0  0  0  0  0  0  0  0  0  0  0
   37.6550   24.3470   39.2260 C   0  0  0  0  0  0  0  0  0  0  0  0
   37.4270   23.5530   38.1320 N   0  0  0  0  0  0  0  0  0  0  0  0
   37.5120   22.2110   38.2030 C   0  0  0  0  0  0  0  0  0  0  0  0
   37.8230   21.6330   39.3500 N   0  0  0  0  0  0  0  0  0  0  0  0
   38.3110   21.8800   41.3850 H   0  0  0  0  0  0  0  0  0  0  0  0
   37.3460   21.5220   37.3870 H   0  0  0  0  0  0  0  0  0  0  0  0
   38.2460   24.4590   41.5890 N   0  0  0  0  0  0  0  0  0  0  0  0
   39.5370   24.5510   42.1530 C   0  0  0  0  0  0  0  0  0  0  0  0
   39.6540   25.4950   43.3290 C   0  0  0  0  0  0  0  0  0  0  0  0
   38.9290   26.6830   43.2360 N   0  0  0  0  0  0  0  0  0  0  0  0
   37.6490   26.5910   42.6770 C   0  0  0  0  0  0  0  0  0  0  0  0
   37.2730   25.1590   42.3540 C   0  0  0  0  0  0  0  0  0  0  0  0
   39.8270   23.5470   42.5340 H   0  0  0  0  0  0  0  0  0  0  0  0
   40.3430   24.7920   41.4080 H   0  0  0  0  0  0  0  0  0  0  0  0
   39.4360   24.9470   44.2900 H   0  0  0  0  0  0  0  0  0  0  0  0
   40.7480   25.7580   43.4040 H   0  0  0  0  0  0  0  0  0  0  0  0
   38.8900   27.1420   44.1700 H   0  0  0  0  0  0  0  0  0  0  0  0
   36.8660   26.9170   43.4270 H   0  0  0  0  0  0  0  0  0  0  0  0
   37.4310   27.2290   41.7980 H   0  0  0  0  0  0  0  0  0  0  0  0
   37.1100   24.5650   43.2940 H   0  0  0  0  0  0  0  0  0  0  0  0
   36.3260   25.2060   41.7650 H   0  0  0  0  0  0  0  0  0  0  0  0
  1 10  1  0  0  0  0
  1  2  1  0  0  0  0
  2 30  1  0  0  0  0
  3 11  1  0  0  0  0
  3  2  2  0  0  0  0
  4  3  1  0  0  0  0
  5  4  2  0  0  0  0
  5  6  1  0  0  0  0
  6  1  2  0  0  0  0
  7  8  1  0  0  0  0
  7  5  1  0  0  0  0
  8 13  1  6  0  0  0
  8  9  1  0  0  0  0
  8 14  1  0  0  0  0
  9  4  1  0  0  0  0
 12  6  1  0  0  0  0
 14 24  1  0  0  0  0
 14 15  1  0  0  0  0
 15 17  2  0  0  0  0
 16 15  1  0  0  0  0
 18 17  1  0  0  0  0
 18 19  1  0  0  0  0
 19 25  1  0  0  0  0
 20 19  2  0  0  0  0
 21 20  1  0  0  0  0
 22 21  1  0  0  0  0
 23 21  2  0  0  0  0
 23 24  1  0  0  0  0
 24 18  2  0  0  0  0
 25 27  1  0  0  0  0
 25 26  1  0  0  0  0
 28 34  1  0  0  0  0
 29 28  1  0  0  0  0
 29 36  1  0  0  0  0
 30 29  2  0  0  0  0
 31 32  2  0  0  0  0
 31 30  1  0  0  0  0
 32 33  1  0  0  0  0
 33 28  2  0  0  0  0
 35 32  1  0  0  0  0
 36 37  1  0  0  0  0
 36 41  1  0  0  0  0
 37 42  1  0  0  0  0
 37 38  1  0  0  0  0
 38 45  1  0  0  0  0
 38 44  1  0  0  0  0
 39 38  1  0  0  0  0
 39 46  1  0  0  0  0
 40 39  1  0  0  0  0
 40 47  1  0  0  0  0
 41 40  1  0  0  0  0
 41 49  1  0  0  0  0
 43 37  1  0  0  0  0
 48 40  1  0  0  0  0
 50 41  1  0  0  0  0
M  END
>  <minimizedAffinity>
-6.47771072

$$$$

 OpenBabel03242523093D

 50 55  0  0  1  0  0  0  0  0999 V2000
   36.7430   28.3510   41.5220 C   0  0  0  0  0  0  0  0  0  0  0  0
   37.2600   27.7420   40.3580 C   0  0  0  0  0  0  0  0  0  0  0  0
   37.5560   28.6940   39.3980 C   0  0  0  0  0  0  0  0  0  0  0  0
   37.3830   30.0420   39.5210 C   0  0  0  0  0  0  0  0  0  0  0  0
   36.8630   30.5490   40.6960 C   0  0  0  0  0  0  0  0  0  0  0  0
   36.5400   29.7010   41.7150 C   0  0  0  0  0  0  0  0  0  0  0  0
   36.8060   31.9140   40.4970 O   0  0  0  0  0  0  0  0  0  0  0  0
   37.3730   32.2540   39.2530 C   0  0  2  0  0  0  0  0  0  0  0  0
   37.6700   31.0250   38.5900 O   0  0  0  0  0  0  0  0  0  0  0  0
   36.4210   27.8860   42.4780 H   0  0  0  0  0  0  0  0  0  0  0  0
   37.9340   28.2510   38.5340 H   0  0  0  0  0  0  0  0  0  0  0  0
   36.1570   30.1920   42.5650 H   0  0  0  0  0  0  0  0  0  0  0  0
   36.7040   32.8940   38.6650 H   0  0  0  0  0  0  0  0  0  0  0  0
   38.6250   32.9530   39.5850 N   0  0  0  0  0  0  0  0  0  0  0  0
   38.8570   33.7630   40.6220 C   0  0  0  0  0  0  0  0  0  0  0  0
   38.0890   33.9900   41.3630 H   0  0  0  0  0  0  0  0  0  0  0  0
   40.1490   34.1880   40.5400 N   0  0  0  0  0  0  0  0  0  0  0  0
   40.7040   33.6420   39.4560 C   0  0  0  0  0  0  0  0  0  0  0  0
   41.9570   33.7120   38.8820 C   0  0  0  0  0  0  0  0  0  0  0  0
   42.1960   33.0180   37.7580 N   0  0  0  0  0  0  0  0  0  0  0  0
   41.2800   32.2520   37.1500 C   0  0  0  0  0  0  0  0  0  0  0  0
   41.4980   31.7020   36.2410 H   0  0  0  0  0  0  0  0  0  0  0  0
   40.0600   32.1910   37.7180 N   0  0  0  0  0  0  0  0  0  0  0  0
   39.7470   32.8580   38.8450 C   0  0  0  0  0  0  0  0  0  0  0  0
   42.9790   34.5110   39.4820 N   0  0  0  0  0  0  0  0  0  0  0  0
   43.4530   33.8390   40.1380 H   0  0  0  0  0  0  0  0  0  0  0  0
   43.3330   35.4810   39.4380 H   0  0  0  0  0  0  0  0  0  0  0  0
   37.3910   24.0390   39.8850 C   0  0  0  0  0  0  0  0  0  0  0  0
   37.4040   25.3630   39.4720 C   0  0  0  0  0  0  0  0  0  0  0  0
   37.2840   26.3370   40.4310 C   0  0  0  0  0  0  0  0  0  0  0  0
   37.1560   25.9620   41.7430 N   0  0  0  0  0  0  0  0  0  0  0  0
   37.1480   24.6670   42.1100 C   0  0  0  0  0  0  0  0  0  0  0  0
   37.2640   23.7240   41.1910 N   0  0  0  0  0  0  0  0  0  0  0  0
   37.4850   23.2560   39.1480 H   0  0  0  0  0  0  0  0  0  0  0  0
   37.0520   24.2950   43.1210 H   0  0  0  0  0  0  0  0  0  0  0  0
   37.5230   25.6270   38.1110 N   0  0  0  0  0  0  0  0  0  0  0  0
   36.4110   25.8620   37.2740 C   0  0  0  0  0  0  0  0  0  0  0  0
   36.7530   26.2910   35.8650 C   0  0  0  0  0  0  0  0  0  0  0  0
   37.8260   27.1730   35.7350 N   0  0  0  0  0  0  0  0  0  0  0  0
   38.9290   26.9390   36.5650 C   0  0  0  0  0  0  0  0  0  0  0  0
   38.7550   25.6870   37.4010 C   0  0  0  0  0  0  0  0  0  0  0  0
   35.8380   24.9130   37.1760 H   0  0  0  0  0  0  0  0  0  0  0  0
   35.6610   26.5790   37.7040 H   0  0  0  0  0  0  0  0  0  0  0  0
   36.8730   25.3870   35.2010 H   0  0  0  0  0  0  0  0  0  0  0  0
   35.8300   26.8040   35.4670 H   0  0  0  0  0  0  0  0  0  0  0  0
   38.1210   27.2200   34.7370 H   0  0  0  0  0  0  0  0  0  0  0  0
   39.8530   26.7270   35.9450 H   0  0  0  0  0  0  0  0  0  0  0  0
   39.2570   27.7690   37.2210 H   0  0  0  0  0  0  0  0  0  0  0  0
   38.8040   24.7650   36.7600 H   0  0  0  0  0  0  0  0  0  0  0  0
   39.5910   25.6820   38.1400 H   0  0  0  0  0  0  0  0  0  0  0  0
  1  6  1  0  0  0  0
  1 10  1  0  0  0  0
  2 30  1  0  0  0  0
  2  1  2  0  0  0  0
  3  4  2  0  0  0  0
  3  2  1  0  0  0  0
  4  5  1  0  0  0  0
  5  6  2  0  0  0  0
  6 12  1  0  0  0  0
  7  5  1  0  0  0  0
  8 13  1  6  0  0  0
  8 14  1  0  0  0  0
  8  7  1  0  0  0  0
  9  8  1  0  0  0  0
  9  4  1  0  0  0  0
 11  3  1  0  0  0  0
 14 15  1  0  0  0  0
 15 16  1  0  0  0  0
 17 15  2  0  0  0  0
 18 17  1  0  0  0  0
 19 18  1  0  0  0  0
 19 25  1  0  0  0  0
 20 19  2  0  0  0  0
 21 23  2  0  0  0  0
 21 20  1  0  0  0  0
 22 21  1  0  0  0  0
 23 24  1  0  0  0  0
 24 18  2  0  0  0  0
 24 14  1  0  0  0  0
 25 26  1  0  0  0  0
 27 25  1  0  0  0  0
 28 33  1  0  0  0  0
 29 28  2  0  0  0  0
 29 30  1  0  0  0  0
 30 31  2  0  0  0  0
 31 32  1  0  0  0  0
 32 35  1  0  0  0  0
 33 32  2  0  0  0  0
 34 28  1  0  0  0  0
 36 29  1  0  0  0  0
 37 43  1  0  0  0  0
 37 36  1  0  0  0  0
 38 37  1  0  0  0  0
 39 38  1  0  0  0  0
 39 40  1  0  0  0  0
 40 48  1  0  0  0  0
 40 41  1  0  0  0  0
 41 36  1  0  0  0  0
 41 50  1  0  0  0  0
 42 37  1  0  0  0  0
 44 38  1  0  0  0  0
 45 38  1  0  0  0  0
 46 39  1  0  0  0  0
 47 40  1  0  0  0  0
 49 41  1  0  0  0  0
M  END
>  <minimizedAffinity>
-6.4692359

$$$$

 OpenBabel03242523093D

 50 55  0  0  1  0  0  0  0  0999 V2000
   37.3140   24.8460   41.4500 C   0  0  0  0  0  0  0  0  0  0  0  0
   37.2000   24.9650   40.0480 C   0  0  0  0  0  0  0  0  0  0  0  0
   36.9160   26.2710   39.6890 C   0  0  0  0  0  0  0  0  0  0  0  0
   36.7570   27.3240   40.5420 C   0  0  0  0  0  0  0  0  0  0  0  0
   36.8800   27.1120   41.9020 C   0  0  0  0  0  0  0  0  0  0  0  0
   37.1650   25.8630   42.3700 C   0  0  0  0  0  0  0  0  0  0  0  0
   36.6560   28.3500   42.4730 O   0  0  0  0  0  0  0  0  0  0  0  0
   36.4930   29.3310   41.4750 C   0  0  2  0  0  0  0  0  0  0  0  0
   36.4790   28.6420   40.2250 O   0  0  0  0  0  0  0  0  0  0  0  0
   37.5480   23.9520   42.0660 H   0  0  0  0  0  0  0  0  0  0  0  0
   36.8260   26.3650   38.6560 H   0  0  0  0  0  0  0  0  0  0  0  0
   37.2400   25.8140   43.4190 H   0  0  0  0  0  0  0  0  0  0  0  0
   35.5860   29.9240   41.6350 H   0  0  0  0  0  0  0  0  0  0  0  0
   37.7010   30.1670   41.5650 N   0  0  0  0  0  0  0  0  0  0  0  0
   38.8090   29.9280   42.2740 C   0  0  0  0  0  0  0  0  0  0  0  0
   38.9220   29.0320   42.8860 H   0  0  0  0  0  0  0  0  0  0  0  0
   39.6700   30.9620   42.0660 N   0  0  0  0  0  0  0  0  0  0  0  0
   39.0920   31.8320   41.2360 C   0  0  0  0  0  0  0  0  0  0  0  0
   39.4810   33.0360   40.6850 C   0  0  0  0  0  0  0  0  0  0  0  0
   38.6360   33.6760   39.8610 N   0  0  0  0  0  0  0  0  0  0  0  0
   37.4220   33.2120   39.5360 C   0  0  0  0  0  0  0  0  0  0  0  0
   36.7580   33.7490   38.8680 H   0  0  0  0  0  0  0  0  0  0  0  0
   37.0520   32.0360   40.0790 N   0  0  0  0  0  0  0  0  0  0  0  0
   37.8450   31.3370   40.9120 C   0  0  0  0  0  0  0  0  0  0  0  0
   40.7640   33.5860   40.9920 N   0  0  0  0  0  0  0  0  0  0  0  0
   41.3800   33.1840   40.2400 H   0  0  0  0  0  0  0  0  0  0  0  0
   41.1930   34.2130   41.6920 H   0  0  0  0  0  0  0  0  0  0  0  0
   36.8960   21.7660   38.1430 C   0  0  0  0  0  0  0  0  0  0  0  0
   36.4320   22.9440   38.7090 C   0  0  0  0  0  0  0  0  0  0  0  0
   37.3330   23.7370   39.3750 C   0  0  0  0  0  0  0  0  0  0  0  0
   38.6410   23.3320   39.4500 N   0  0  0  0  0  0  0  0  0  0  0  0
   39.0590   22.1830   38.8880 C   0  0  0  0  0  0  0  0  0  0  0  0
   38.1950   21.4150   38.2450 N   0  0  0  0  0  0  0  0  0  0  0  0
   36.2050   21.1280   37.6140 H   0  0  0  0  0  0  0  0  0  0  0  0
   40.0690   21.7990   38.9050 H   0  0  0  0  0  0  0  0  0  0  0  0
   35.0790   23.2470   38.5840 N   0  0  0  0  0  0  0  0  0  0  0  0
   34.5780   24.1300   37.6030 C   0  0  0  0  0  0  0  0  0  0  0  0
   33.0700   24.2040   37.5230 C   0  0  0  0  0  0  0  0  0  0  0  0
   32.3870   22.9980   37.6820 N   0  0  0  0  0  0  0  0  0  0  0  0
   32.8850   22.1230   38.6550 C   0  0  0  0  0  0  0  0  0  0  0  0
   34.0500   22.7230   39.4150 C   0  0  0  0  0  0  0  0  0  0  0  0
   34.9240   25.1590   37.8460 H   0  0  0  0  0  0  0  0  0  0  0  0
   34.9910   23.9500   36.5740 H   0  0  0  0  0  0  0  0  0  0  0  0
   32.6820   24.9990   38.2230 H   0  0  0  0  0  0  0  0  0  0  0  0
   32.8360   24.6050   36.4950 H   0  0  0  0  0  0  0  0  0  0  0  0
   31.3750   23.1880   37.8420 H   0  0  0  0  0  0  0  0  0  0  0  0
   32.1040   21.9360   39.4550 H   0  0  0  0  0  0  0  0  0  0  0  0
   33.1540   21.0990   38.3290 H   0  0  0  0  0  0  0  0  0  0  0  0
   33.7090   23.5650   40.0770 H   0  0  0  0  0  0  0  0  0  0  0  0
   34.4800   21.9010   40.0360 H   0  0  0  0  0  0  0  0  0  0  0  0
  1 10  1  0  0  0  0
  1  6  1  0  0  0  0
  2  1  2  0  0  0  0
  3  2  1  0  0  0  0
  3  4  2  0  0  0  0
  4  5  1  0  0  0  0
  5  6  2  0  0  0  0
  5  7  1  0  0  0  0
  6 12  1  0  0  0  0
  8 14  1  0  0  0  0
  8 13  1  1  0  0  0
  8  7  1  0  0  0  0
  9  4  1  0  0  0  0
  9  8  1  0  0  0  0
 11  3  1  0  0  0  0
 14 15  1  0  0  0  0
 15 16  1  0  0  0  0
 17 15  2  0  0  0  0
 18 17  1  0  0  0  0
 19 25  1  0  0  0  0
 19 18  2  0  0  0  0
 20 19  1  0  0  0  0
 21 20  2  0  0  0  0
 21 23  1  0  0  0  0
 22 21  1  0  0  0  0
 23 24  2  0  0  0  0
 24 18  1  0  0  0  0
 24 14  1  0  0  0  0
 25 27  1  0  0  0  0
 26 25  1  0  0  0  0
 28 33  2  0  0  0  0
 28 29  1  0  0  0  0
 29 30  2  0  0  0  0
 30 31  1  0  0  0  0
 30  2  1  0  0  0  0
 32 35  1  0  0  0  0
 32 31  2  0  0  0  0
 33 32  1  0  0  0  0
 34 28  1  0  0  0  0
 36 29  1  0  0  0  0
 36 41  1  0  0  0  0
 37 42  1  0  0  0  0
 37 36  1  0  0  0  0
 38 37  1  0  0  0  0
 38 39  1  0  0  0  0
 38 44  1  0  0  0  0
 39 46  1  0  0  0  0
 39 40  1  0  0  0  0
 40 41  1  0  0  0  0
 40 47  1  0  0  0  0
 41 50  1  0  0  0  0
 41 49  1  0  0  0  0
 43 37  1  0  0  0  0
 45 38  1  0  0  0  0
 48 40  1  0  0  0  0
M  END
>  <minimizedAffinity>
-6.41303492

$$$$

 OpenBabel03242523093D

 50 55  0  0  1  0  0  0  0  0999 V2000
   37.2460   25.0080   41.1120 C   0  0  0  0  0  0  0  0  0  0  0  0
   37.0460   25.2220   39.7310 C   0  0  0  0  0  0  0  0  0  0  0  0
   36.7730   26.5540   39.4770 C   0  0  0  0  0  0  0  0  0  0  0  0
   36.6950   27.5520   40.4050 C   0  0  0  0  0  0  0  0  0  0  0  0
   36.8990   27.2480   41.7370 C   0  0  0  0  0  0  0  0  0  0  0  0
   37.1810   25.9640   42.1040 C   0  0  0  0  0  0  0  0  0  0  0  0
   36.7430   28.4490   42.4010 O   0  0  0  0  0  0  0  0  0  0  0  0
   36.5420   29.4970   41.4810 C   0  0  2  0  0  0  0  0  0  0  0  0
   36.4300   28.8930   40.1930 O   0  0  0  0  0  0  0  0  0  0  0  0
   37.4950   24.0700   41.6520 H   0  0  0  0  0  0  0  0  0  0  0  0
   36.6190   26.7190   38.4600 H   0  0  0  0  0  0  0  0  0  0  0  0
   37.3220   25.8450   43.1410 H   0  0  0  0  0  0  0  0  0  0  0  0
   35.6620   30.0980   41.7390 H   0  0  0  0  0  0  0  0  0  0  0  0
   37.7740   30.3000   41.5460 N   0  0  0  0  0  0  0  0  0  0  0  0
   38.9080   30.0050   42.1910 C   0  0  0  0  0  0  0  0  0  0  0  0
   39.0260   29.0830   42.7610 H   0  0  0  0  0  0  0  0  0  0  0  0
   39.7850   31.0260   41.9830 N   0  0  0  0  0  0  0  0  0  0  0  0
   39.1900   31.9420   41.2160 C   0  0  0  0  0  0  0  0  0  0  0  0
   39.5840   33.1590   40.6960 C   0  0  0  0  0  0  0  0  0  0  0  0
   38.7180   33.8520   39.9390 N   0  0  0  0  0  0  0  0  0  0  0  0
   37.4790   33.4310   39.6550 C   0  0  0  0  0  0  0  0  0  0  0  0
   36.7980   34.0100   39.0410 H   0  0  0  0  0  0  0  0  0  0  0  0
   37.1040   32.2430   40.1680 N   0  0  0  0  0  0  0  0  0  0  0  0
   37.9170   31.4910   40.9340 C   0  0  0  0  0  0  0  0  0  0  0  0
   40.8940   33.6650   40.9620 N   0  0  0  0  0  0  0  0  0  0  0  0
   41.4640   33.2790   40.1660 H   0  0  0  0  0  0  0  0  0  0  0  0
   41.3720   34.2520   41.6640 H   0  0  0  0  0  0  0  0  0  0  0  0
   37.2480   22.4910   37.1900 C   0  0  0  0  0  0  0  0  0  0  0  0
   37.2180   23.8080   37.6240 C   0  0  0  0  0  0  0  0  0  0  0  0
   37.1040   24.0380   38.9730 C   0  0  0  0  0  0  0  0  0  0  0  0
   37.0260   22.9650   39.8230 N   0  0  0  0  0  0  0  0  0  0  0  0
   37.0590   21.6990   39.3680 C   0  0  0  0  0  0  0  0  0  0  0  0
   37.1680   21.4710   38.0710 N   0  0  0  0  0  0  0  0  0  0  0  0
   37.3370   22.2860   36.1340 H   0  0  0  0  0  0  0  0  0  0  0  0
   37.0020   20.8060   39.9740 H   0  0  0  0  0  0  0  0  0  0  0  0
   37.2890   24.8180   36.6700 N   0  0  0  0  0  0  0  0  0  0  0  0
   36.1460   25.3940   36.0740 C   0  0  0  0  0  0  0  0  0  0  0  0
   36.4220   26.5850   35.1850 C   0  0  0  0  0  0  0  0  0  0  0  0
   37.4030   27.4700   35.6320 N   0  0  0  0  0  0  0  0  0  0  0  0
   38.5360   26.8990   36.2230 C   0  0  0  0  0  0  0  0  0  0  0  0
   38.4970   25.3850   36.1770 C   0  0  0  0  0  0  0  0  0  0  0  0
   35.6650   24.6290   35.4240 H   0  0  0  0  0  0  0  0  0  0  0  0
   35.3370   25.6620   36.8060 H   0  0  0  0  0  0  0  0  0  0  0  0
   36.6180   26.2440   34.1280 H   0  0  0  0  0  0  0  0  0  0  0  0
   35.4470   27.1500   35.1160 H   0  0  0  0  0  0  0  0  0  0  0  0
   37.6760   28.1100   34.8570 H   0  0  0  0  0  0  0  0  0  0  0  0
   39.4670   27.1660   35.6330 H   0  0  0  0  0  0  0  0  0  0  0  0
   38.7930   27.2230   37.2500 H   0  0  0  0  0  0  0  0  0  0  0  0
   38.6250   25.0100   35.1250 H   0  0  0  0  0  0  0  0  0  0  0  0
   39.3420   25.0270   36.8140 H   0  0  0  0  0  0  0  0  0  0  0  0
  1 10  1  0  0  0  0
  1  6  1  0  0  0  0
  2  1  2  0  0  0  0
  3  2  1  0  0  0  0
  3  4  2  0  0  0  0
  4  5  1  0  0  0  0
  5  6  2  0  0  0  0
  5  7  1  0  0  0  0
  6 12  1  0  0  0  0
  8 14  1  0  0  0  0
  8 13  1  1  0  0  0
  8  7  1  0  0  0  0
  9  4  1  0  0  0  0
  9  8  1  0  0  0  0
 11  3  1  0  0  0  0
 14 15  1  0  0  0  0
 15 16  1  0  0  0  0
 17 15  2  0  0  0  0
 18 17  1  0  0  0  0
 19 25  1  0  0  0  0
 19 18  2  0  0  0  0
 20 19  1  0  0  0  0
 21 20  2  0  0  0  0
 21 23  1  0  0  0  0
 22 21  1  0  0  0  0
 23 24  2  0  0  0  0
 24 18  1  0  0  0  0
 24 14  1  0  0  0  0
 25 27  1  0  0  0  0
 26 25  1  0  0  0  0
 28 29  2  0  0  0  0
 28 33  1  0  0  0  0
 29 30  1  0  0  0  0
 30  2  1  0  0  0  0
 30 31  2  0  0  0  0
 32 31  1  0  0  0  0
 32 35  1  0  0  0  0
 33 32  2  0  0  0  0
 34 28  1  0  0  0  0
 36 29  1  0  0  0  0
 37 36  1  0  0  0  0
 37 43  1  0  0  0  0
 38 39  1  0  0  0  0
 38 37  1  0  0  0  0
 39 40  1  0  0  0  0
 40 48  1  0  0  0  0
 41 40  1  0  0  0  0
 41 36  1  0  0  0  0
 41 50  1  0  0  0  0
 42 37  1  0  0  0  0
 44 38  1  0  0  0  0
 45 38  1  0  0  0  0
 46 39  1  0  0  0  0
 47 40  1  0  0  0  0
 49 41  1  0  0  0  0
M  END
>  <minimizedAffinity>
-6.38548422

$$$$

 OpenBabel03242523093D

 50 55  0  0  1  0  0  0  0  0999 V2000
   39.7380   32.0910   40.0730 C   0  0  0  0  0  0  0  0  0  0  0  0
   40.8950   31.8100   40.8320 C   0  0  0  0  0  0  0  0  0  0  0  0
   40.6090   30.9140   41.8470 C   0  0  0  0  0  0  0  0  0  0  0  0
   39.3900   30.3600   42.1140 C   0  0  0  0  0  0  0  0  0  0  0  0
   38.3110   30.6990   41.3210 C   0  0  0  0  0  0  0  0  0  0  0  0
   38.4780   31.5710   40.2850 C   0  0  0  0  0  0  0  0  0  0  0  0
   37.2490   29.9910   41.8500 O   0  0  0  0  0  0  0  0  0  0  0  0
   37.6880   29.1530   42.8930 C   0  0  2  0  0  0  0  0  0  0  0  0
   39.0650   29.4600   43.1120 O   0  0  0  0  0  0  0  0  0  0  0  0
   39.6180   32.7480   39.1870 H   0  0  0  0  0  0  0  0  0  0  0  0
   41.4580   30.7060   42.4150 H   0  0  0  0  0  0  0  0  0  0  0  0
   37.5930   31.7560   39.7440 H   0  0  0  0  0  0  0  0  0  0  0  0
   37.0820   29.2830   43.7980 H   0  0  0  0  0  0  0  0  0  0  0  0
   37.5640   27.7870   42.3600 N   0  0  0  0  0  0  0  0  0  0  0  0
   36.6980   27.3440   41.4430 C   0  0  0  0  0  0  0  0  0  0  0  0
   35.9600   28.0000   40.9790 H   0  0  0  0  0  0  0  0  0  0  0  0
   36.9360   26.0170   41.2480 N   0  0  0  0  0  0  0  0  0  0  0  0
   37.9430   25.6490   42.0430 C   0  0  0  0  0  0  0  0  0  0  0  0
   38.6000   24.4560   42.2690 C   0  0  0  0  0  0  0  0  0  0  0  0
   39.6020   24.4260   43.1630 N   0  0  0  0  0  0  0  0  0  0  0  0
   40.0080   25.4960   43.8590 C   0  0  0  0  0  0  0  0  0  0  0  0
   40.8200   25.4450   44.5760 H   0  0  0  0  0  0  0  0  0  0  0  0
   39.3600   26.6550   43.6310 N   0  0  0  0  0  0  0  0  0  0  0  0
   38.3470   26.7630   42.7510 C   0  0  0  0  0  0  0  0  0  0  0  0
   38.2150   23.2780   41.5580 N   0  0  0  0  0  0  0  0  0  0  0  0
   38.8240   23.3090   40.7000 H   0  0  0  0  0  0  0  0  0  0  0  0
   37.5600   22.4870   41.6630 H   0  0  0  0  0  0  0  0  0  0  0  0
   43.9500   33.2910   39.2740 C   0  0  0  0  0  0  0  0  0  0  0  0
   42.9360   32.3560   39.4160 C   0  0  0  0  0  0  0  0  0  0  0  0
   42.0200   32.5480   40.4210 C   0  0  0  0  0  0  0  0  0  0  0  0
   42.1480   33.6460   41.2320 N   0  0  0  0  0  0  0  0  0  0  0  0
   43.1440   34.5350   41.0650 C   0  0  0  0  0  0  0  0  0  0  0  0
   44.0290   34.3560   40.1000 N   0  0  0  0  0  0  0  0  0  0  0  0
   44.6810   33.1600   38.4910 H   0  0  0  0  0  0  0  0  0  0  0  0
   43.3100   35.4210   41.6620 H   0  0  0  0  0  0  0  0  0  0  0  0
   42.9130   31.2710   38.5450 N   0  0  0  0  0  0  0  0  0  0  0  0
   43.6590   30.0930   38.7660 C   0  0  0  0  0  0  0  0  0  0  0  0
   43.3770   28.9680   37.7950 C   0  0  0  0  0  0  0  0  0  0  0  0
   42.0430   28.7990   37.4240 N   0  0  0  0  0  0  0  0  0  0  0  0
   41.3030   29.9670   37.2060 C   0  0  0  0  0  0  0  0  0  0  0  0
   42.1560   31.2120   37.3420 C   0  0  0  0  0  0  0  0  0  0  0  0
   44.7400   30.3350   38.6500 H   0  0  0  0  0  0  0  0  0  0  0  0
   43.5890   29.6990   39.8150 H   0  0  0  0  0  0  0  0  0  0  0  0
   44.0530   29.0510   36.8970 H   0  0  0  0  0  0  0  0  0  0  0  0
   43.7190   28.0240   38.3110 H   0  0  0  0  0  0  0  0  0  0  0  0
   41.9880   28.1690   36.5970 H   0  0  0  0  0  0  0  0  0  0  0  0
   40.9320   30.0060   36.1360 H   0  0  0  0  0  0  0  0  0  0  0  0
   40.3740   30.0990   37.7950 H   0  0  0  0  0  0  0  0  0  0  0  0
   42.8880   31.2930   36.4940 H   0  0  0  0  0  0  0  0  0  0  0  0
   41.4540   32.0800   37.3230 H   0  0  0  0  0  0  0  0  0  0  0  0
  1  6  2  0  0  0  0
  1  2  1  0  0  0  0
  2  3  2  0  0  0  0
  3  4  1  0  0  0  0
  3 11  1  0  0  0  0
  4  9  1  0  0  0  0
  5  7  1  0  0  0  0
  5  4  2  0  0  0  0
  6  5  1  0  0  0  0
  7  8  1  0  0  0  0
  8  9  1  0  0  0  0
  8 13  1  1  0  0  0
 10  1  1  0  0  0  0
 12  6  1  0  0  0  0
 14 24  1  0  0  0  0
 14  8  1  0  0  0  0
 15 14  1  0  0  0  0
 16 15  1  0  0  0  0
 17 15  2  0  0  0  0
 17 18  1  0  0  0  0
 18 19  2  0  0  0  0
 18 24  1  0  0  0  0
 19 20  1  0  0  0  0
 20 21  2  0  0  0  0
 21 22  1  0  0  0  0
 23 21  1  0  0  0  0
 24 23  2  0  0  0  0
 25 27  1  0  0  0  0
 25 19  1  0  0  0  0
 26 25  1  0  0  0  0
 28 29  2  0  0  0  0
 28 33  1  0  0  0  0
 29 30  1  0  0  0  0
 30  2  1  0  0  0  0
 30 31  2  0  0  0  0
 32 31  1  0  0  0  0
 32 35  1  0  0  0  0
 33 32  2  0  0  0  0
 34 28  1  0  0  0  0
 36 37  1  0  0  0  0
 36 29  1  0  0  0  0
 37 43  1  0  0  0  0
 38 45  1  0  0  0  0
 38 37  1  0  0  0  0
 39 38  1  0  0  0  0
 40 41  1  0  0  0  0
 40 39  1  0  0  0  0
 40 48  1  0  0  0  0
 41 36  1  0  0  0  0
 42 37  1  0  0  0  0
 44 38  1  0  0  0  0
 46 39  1  0  0  0  0
 47 40  1  0  0  0  0
 49 41  1  0  0  0  0
 50 41  1  0  0  0  0
M  END
>  <minimizedAffinity>
-6.34988737

$$$$

 OpenBabel03242523093D

 50 55  0  0  1  0  0  0  0  0999 V2000
   34.6370   27.1530   37.2920 C   0  0  0  0  0  0  0  0  0  0  0  0
   35.5790   26.3140   37.9260 C   0  0  0  0  0  0  0  0  0  0  0  0
   36.7840   26.9730   38.0980 C   0  0  0  0  0  0  0  0  0  0  0  0
   37.0630   28.2530   37.7180 C   0  0  0  0  0  0  0  0  0  0  0  0
   36.0800   28.9990   37.0970 C   0  0  0  0  0  0  0  0  0  0  0  0
   34.8490   28.4520   36.8800 C   0  0  0  0  0  0  0  0  0  0  0  0
   36.6750   30.2190   36.8370 O   0  0  0  0  0  0  0  0  0  0  0  0
   37.9750   30.2580   37.3770 C   0  0  2  0  0  0  0  0  0  0  0  0
   38.2490   28.9480   37.8760 O   0  0  0  0  0  0  0  0  0  0  0  0
   33.5810   26.9490   37.0200 H   0  0  0  0  0  0  0  0  0  0  0  0
   37.4850   26.3580   38.5610 H   0  0  0  0  0  0  0  0  0  0  0  0
   34.1760   29.1080   36.4050 H   0  0  0  0  0  0  0  0  0  0  0  0
   38.7120   30.5850   36.6340 H   0  0  0  0  0  0  0  0  0  0  0  0
   37.8910   31.2070   38.4990 N   0  0  0  0  0  0  0  0  0  0  0  0
   36.8830   31.3630   39.3630 C   0  0  0  0  0  0  0  0  0  0  0  0
   35.9750   30.7600   39.3080 H   0  0  0  0  0  0  0  0  0  0  0  0
   37.2280   32.3510   40.2350 N   0  0  0  0  0  0  0  0  0  0  0  0
   38.4410   32.7980   39.9050 C   0  0  0  0  0  0  0  0  0  0  0  0
   39.2780   33.7680   40.4200 C   0  0  0  0  0  0  0  0  0  0  0  0
   40.4690   33.9740   39.8370 N   0  0  0  0  0  0  0  0  0  0  0  0
   40.9020   33.2870   38.7710 C   0  0  0  0  0  0  0  0  0  0  0  0
   41.8700   33.4730   38.3170 H   0  0  0  0  0  0  0  0  0  0  0  0
   40.0780   32.3430   38.2760 N   0  0  0  0  0  0  0  0  0  0  0  0
   38.8700   32.0800   38.8080 C   0  0  0  0  0  0  0  0  0  0  0  0
   38.8750   34.5360   41.5560 N   0  0  0  0  0  0  0  0  0  0  0  0
   39.2360   33.9700   42.3660 H   0  0  0  0  0  0  0  0  0  0  0  0
   38.3710   35.4150   41.7610 H   0  0  0  0  0  0  0  0  0  0  0  0
   34.8040   22.8150   38.9790 C   0  0  0  0  0  0  0  0  0  0  0  0
   35.5240   24.0000   38.9810 C   0  0  0  0  0  0  0  0  0  0  0  0
   35.0930   25.0150   38.1620 C   0  0  0  0  0  0  0  0  0  0  0  0
   33.9820   24.8120   37.3860 N   0  0  0  0  0  0  0  0  0  0  0  0
   33.3060   23.6480   37.4090 C   0  0  0  0  0  0  0  0  0  0  0  0
   33.7150   22.6680   38.1960 N   0  0  0  0  0  0  0  0  0  0  0  0
   35.1240   22.0040   39.6160 H   0  0  0  0  0  0  0  0  0  0  0  0
   32.4250   23.4150   36.8290 H   0  0  0  0  0  0  0  0  0  0  0  0
   36.6460   24.0890   39.7980 N   0  0  0  0  0  0  0  0  0  0  0  0
   36.6090   24.6400   41.0980 C   0  0  0  0  0  0  0  0  0  0  0  0
   37.8910   24.4990   41.8870 C   0  0  0  0  0  0  0  0  0  0  0  0
   38.5700   23.2890   41.7440 N   0  0  0  0  0  0  0  0  0  0  0  0
   38.6070   22.7440   40.4550 C   0  0  0  0  0  0  0  0  0  0  0  0
   37.9510   23.6530   39.4350 C   0  0  0  0  0  0  0  0  0  0  0  0
   36.4190   25.7330   41.0110 H   0  0  0  0  0  0  0  0  0  0  0  0
   35.7510   24.2730   41.7230 H   0  0  0  0  0  0  0  0  0  0  0  0
   38.5650   25.3820   41.6940 H   0  0  0  0  0  0  0  0  0  0  0  0
   37.5970   24.6090   42.9710 H   0  0  0  0  0  0  0  0  0  0  0  0
   39.5320   23.3810   42.1320 H   0  0  0  0  0  0  0  0  0  0  0  0
   39.6770   22.6560   40.0940 H   0  0  0  0  0  0  0  0  0  0  0  0
   38.2170   21.7150   40.3270 H   0  0  0  0  0  0  0  0  0  0  0  0
   38.5660   24.5770   39.2650 H   0  0  0  0  0  0  0  0  0  0  0  0
   37.8770   23.0650   38.4890 H   0  0  0  0  0  0  0  0  0  0  0  0
  1  2  1  0  0  0  0
  2  3  2  0  0  0  0
  2 30  1  0  0  0  0
  3 11  1  0  0  0  0
  4  9  1  0  0  0  0
  4  3  1  0  0  0  0
  5  4  2  0  0  0  0
  6  5  1  0  0  0  0
  6  1  2  0  0  0  0
  7  5  1  0  0  0  0
  7  8  1  0  0  0  0
  8 13  1  6  0  0  0
  8  9  1  0  0  0  0
  8 14  1  0  0  0  0
 10  1  1  0  0  0  0
 12  6  1  0  0  0  0
 14 24  1  0  0  0  0
 14 15  1  0  0  0  0
 15 17  2  0  0  0  0
 16 15  1  0  0  0  0
 18 17  1  0  0  0  0
 18 19  1  0  0  0  0
 19 25  1  0  0  0  0
 20 19  2  0  0  0  0
 21 20  1  0  0  0  0
 22 21  1  0  0  0  0
 23 21  2  0  0  0  0
 23 24  1  0  0  0  0
 24 18  2  0  0  0  0
 25 27  1  0  0  0  0
 25 26  1  0  0  0  0
 28 29  1  0  0  0  0
 28 34  1  0  0  0  0
 29 36  1  0  0  0  0
 30 29  2  0  0  0  0
 31 32  2  0  0  0  0
 31 30  1  0  0  0  0
 32 33  1  0  0  0  0
 33 28  2  0  0  0  0
 35 32  1  0  0  0  0
 36 37  1  0  0  0  0
 37 43  1  0  0  0  0
 37 38  1  0  0  0  0
 38 45  1  0  0  0  0
 39 38  1  0  0  0  0
 39 46  1  0  0  0  0
 40 39  1  0  0  0  0
 41 36  1  0  0  0  0
 41 40  1  0  0  0  0
 42 37  1  0  0  0  0
 44 38  1  0  0  0  0
 47 40  1  0  0  0  0
 48 40  1  0  0  0  0
 49 41  1  0  0  0  0
 50 41  1  0  0  0  0
M  END
>  <minimizedAffinity>
-6.31334877

$$$$

 OpenBabel03242523093D

 50 55  0  0  1  0  0  0  0  0999 V2000
   35.9630   28.0500   40.3300 C   0  0  0  0  0  0  0  0  0  0  0  0
   37.0490   27.4200   39.6840 C   0  0  0  0  0  0  0  0  0  0  0  0
   37.7780   28.3350   38.9470 C   0  0  0  0  0  0  0  0  0  0  0  0
   37.5140   29.6690   38.8310 C   0  0  0  0  0  0  0  0  0  0  0  0
   36.4240   30.1990   39.4940 C   0  0  0  0  0  0  0  0  0  0  0  0
   35.6350   29.3880   40.2570 C   0  0  0  0  0  0  0  0  0  0  0  0
   36.4310   31.5410   39.1680 O   0  0  0  0  0  0  0  0  0  0  0  0
   37.5650   31.8540   38.3930 C   0  0  2  0  0  0  0  0  0  0  0  0
   38.2190   30.6170   38.1100 O   0  0  0  0  0  0  0  0  0  0  0  0
   35.1950   27.6160   41.0040 H   0  0  0  0  0  0  0  0  0  0  0  0
   38.5790   27.8760   38.4640 H   0  0  0  0  0  0  0  0  0  0  0  0
   34.8360   29.8940   40.7200 H   0  0  0  0  0  0  0  0  0  0  0  0
   37.2940   32.4010   37.4830 H   0  0  0  0  0  0  0  0  0  0  0  0
   38.4130   32.6720   39.2750 N   0  0  0  0  0  0  0  0  0  0  0  0
   38.0200   33.5950   40.1590 C   0  0  0  0  0  0  0  0  0  0  0  0
   36.9670   33.8370   40.3140 H   0  0  0  0  0  0  0  0  0  0  0  0
   39.1330   34.1040   40.7560 N   0  0  0  0  0  0  0  0  0  0  0  0
   40.2030   33.4960   40.2390 C   0  0  0  0  0  0  0  0  0  0  0  0
   41.5630   33.6010   40.4530 C   0  0  0  0  0  0  0  0  0  0  0  0
   42.3940   32.8200   39.7460 N   0  0  0  0  0  0  0  0  0  0  0  0
   41.9790   31.9320   38.8310 C   0  0  0  0  0  0  0  0  0  0  0  0
   42.6720   31.3120   38.2720 H   0  0  0  0  0  0  0  0  0  0  0  0
   40.6510   31.8380   38.6290 N   0  0  0  0  0  0  0  0  0  0  0  0
   39.7570   32.5870   39.3010 C   0  0  0  0  0  0  0  0  0  0  0  0
   42.0690   34.5280   41.4160 N   0  0  0  0  0  0  0  0  0  0  0  0
   42.0980   33.9610   42.3010 H   0  0  0  0  0  0  0  0  0  0  0  0
   42.3810   35.5120   41.4570 H   0  0  0  0  0  0  0  0  0  0  0  0
   37.6200   23.8640   40.6790 C   0  0  0  0  0  0  0  0  0  0  0  0
   37.8350   25.2340   40.7210 C   0  0  0  0  0  0  0  0  0  0  0  0
   37.0840   26.0280   39.8900 C   0  0  0  0  0  0  0  0  0  0  0  0
   36.1640   25.4370   39.0630 N   0  0  0  0  0  0  0  0  0  0  0  0
   35.9800   24.1040   39.0490 C   0  0  0  0  0  0  0  0  0  0  0  0
   36.6990   23.3340   39.8470 N   0  0  0  0  0  0  0  0  0  0  0  0
   38.1980   23.2210   41.3240 H   0  0  0  0  0  0  0  0  0  0  0  0
   35.2760   23.5680   38.4270 H   0  0  0  0  0  0  0  0  0  0  0  0
   38.8060   25.7230   41.5880 N   0  0  0  0  0  0  0  0  0  0  0  0
   40.1870   25.4920   41.4040 C   0  0  0  0  0  0  0  0  0  0  0  0
   41.0910   26.2400   42.3580 C   0  0  0  0  0  0  0  0  0  0  0  0
   40.7140   27.5480   42.6620 N   0  0  0  0  0  0  0  0  0  0  0  0
   39.3450   27.7760   42.8450 C   0  0  0  0  0  0  0  0  0  0  0  0
   38.5390   26.4960   42.7520 C   0  0  0  0  0  0  0  0  0  0  0  0
   40.3880   24.4110   41.5730 H   0  0  0  0  0  0  0  0  0  0  0  0
   40.5410   25.6640   40.3520 H   0  0  0  0  0  0  0  0  0  0  0  0
   41.2650   25.6280   43.2890 H   0  0  0  0  0  0  0  0  0  0  0  0
   42.1020   26.2740   41.8590 H   0  0  0  0  0  0  0  0  0  0  0  0
   41.2560   27.8850   43.4860 H   0  0  0  0  0  0  0  0  0  0  0  0
   39.1440   28.1510   43.8950 H   0  0  0  0  0  0  0  0  0  0  0  0
   38.8690   28.5500   42.2110 H   0  0  0  0  0  0  0  0  0  0  0  0
   38.7380   25.8310   43.6360 H   0  0  0  0  0  0  0  0  0  0  0  0
   37.4650   26.7990   42.7380 H   0  0  0  0  0  0  0  0  0  0  0  0
  1 10  1  0  0  0  0
  2 30  1  0  0  0  0
  2  1  2  0  0  0  0
  3  2  1  0  0  0  0
  4  3  2  0  0  0  0
  4  5  1  0  0  0  0
  5  6  2  0  0  0  0
  6  1  1  0  0  0  0
  6 12  1  0  0  0  0
  7  5  1  0  0  0  0
  8 13  1  6  0  0  0
  8  7  1  0  0  0  0
  8 14  1  0  0  0  0
  9  8  1  0  0  0  0
  9  4  1  0  0  0  0
 11  3  1  0  0  0  0
 14 24  1  0  0  0  0
 14 15  1  0  0  0  0
 15 16  1  0  0  0  0
 15 17  2  0  0  0  0
 18 19  1  0  0  0  0
 18 17  1  0  0  0  0
 19 25  1  0  0  0  0
 20 19  2  0  0  0  0
 21 20  1  0  0  0  0
 22 21  1  0  0  0  0
 23 21  2  0  0  0  0
 23 24  1  0  0  0  0
 24 18  2  0  0  0  0
 25 27  1  0  0  0  0
 25 26  1  0  0  0  0
 28 29  1  0  0  0  0
 28 34  1  0  0  0  0
 29 36  1  0  0  0  0
 30 29  2  0  0  0  0
 31 30  1  0  0  0  0
 32 31  2  0  0  0  0
 32 33  1  0  0  0  0
 33 28  2  0  0  0  0
 35 32  1  0  0  0  0
 36 41  1  0  0  0  0
 37 42  1  0  0  0  0
 37 36  1  0  0  0  0
 37 38  1  0  0  0  0
 38 39  1  0  0  0  0
 38 44  1  0  0  0  0
 39 40  1  0  0  0  0
 39 46  1  0  0  0  0
 40 47  1  0  0  0  0
 41 40  1  0  0  0  0
 41 49  1  0  0  0  0
 43 37  1  0  0  0  0
 45 38  1  0  0  0  0
 48 40  1  0  0  0  0
 50 41  1  0  0  0  0
M  END
>  <minimizedAffinity>
-6.28406382

$$$$
