
 OpenBabel03252505293D

 32 34  0  0  0  0  0  0  0  0999 V2000
   45.3350   30.0720   48.0050 C   0  0  0  0  0  0  0  0  0  0  0  0
   44.3160   29.9830   48.4320 H   0  0  0  0  0  0  0  0  0  0  0  0
   45.9390   30.5830   48.7810 H   0  0  0  0  0  0  0  0  0  0  0  0
   45.8870   28.7780   47.6460 N   0  0  0  0  0  0  0  0  0  0  0  0
   47.0310   28.6420   46.9210 C   0  0  0  0  0  0  0  0  0  0  0  0
   47.6660   29.4290   46.5260 H   0  0  0  0  0  0  0  0  0  0  0  0
   47.3150   27.3420   46.7310 N   0  0  0  0  0  0  0  0  0  0  0  0
   46.3500   26.6430   47.3360 C   0  0  0  0  0  0  0  0  0  0  0  0
   46.0580   25.2980   47.5100 C   0  0  0  0  0  0  0  0  0  0  0  0
   44.9980   24.8730   48.1760 N   0  0  0  0  0  0  0  0  0  0  0  0
   44.1450   25.7860   48.7230 C   0  0  0  0  0  0  0  0  0  0  0  0
   43.3020   25.3400   49.2530 H   0  0  0  0  0  0  0  0  0  0  0  0
   44.3570   27.1300   48.6010 N   0  0  0  0  0  0  0  0  0  0  0  0
   45.4460   27.5360   47.9160 C   0  0  0  0  0  0  0  0  0  0  0  0
   47.0180   24.4190   46.8950 N   0  0  0  0  0  0  0  0  0  0  0  0
   47.2820   24.3420   45.8690 H   0  0  0  0  0  0  0  0  0  0  0  0
   47.5580   23.7400   47.5060 H   0  0  0  0  0  0  0  0  0  0  0  0
   45.3360   30.8650   46.8900 O   0  0  0  0  0  0  0  0  0  0  0  0
   46.9500   32.1660   48.4200 O   0  0  0  0  0  0  0  0  0  0  0  0
   45.9160   32.3870   47.3190 P   0  0  2  0  0  0  0  0  0  0  0  0
   44.6310   33.3090   47.8720 O   0  0  0  0  0  0  0  0  0  0  0  0
   43.7580   32.8510   47.8170 H   0  0  0  0  0  0  0  0  0  0  0  0
   46.7040   33.1430   46.0220 O   0  0  0  0  0  0  0  0  0  0  0  0
   44.4920   35.6220   44.7470 C   0  0  0  0  0  0  0  0  0  0  0  0
   44.8800   35.7950   43.3990 C   0  0  0  0  0  0  0  0  0  0  0  0
   45.9580   34.9900   42.9750 C   0  0  0  0  0  0  0  0  0  0  0  0
   46.5470   34.1240   43.8480 N   0  0  0  0  0  0  0  0  0  0  0  0
   46.1140   34.0210   45.1230 C   0  0  0  0  0  0  0  0  0  0  0  0
   45.1020   34.7600   45.5610 N   0  0  0  0  0  0  0  0  0  0  0  0
   43.6610   36.2450   45.0680 H   0  0  0  0  0  0  0  0  0  0  0  0
   44.4040   36.4800   42.7350 H   0  0  0  0  0  0  0  0  0  0  0  0
   46.3110   35.0710   41.9440 H   0  0  0  0  0  0  0  0  0  0  0  0
  1  2  1  0  0  0  0
  1  3  1  0  0  0  0
  4 14  1  0  0  0  0
  4  1  1  0  0  0  0
  5  4  1  0  0  0  0
  6  5  1  0  0  0  0
  7  5  2  0  0  0  0
  7  8  1  0  0  0  0
  8  9  2  0  0  0  0
  8 14  1  0  0  0  0
  9 10  1  0  0  0  0
 10 11  2  0  0  0  0
 11 12  1  0  0  0  0
 13 11  1  0  0  0  0
 14 13  2  0  0  0  0
 15 17  1  0  0  0  0
 15  9  1  0  0  0  0
 16 15  1  0  0  0  0
 18 20  1  0  0  0  0
 18  1  1  0  0  0  0
 20 21  1  0  0  0  0
 20 19  2  1  0  0  0
 22 21  1  0  0  0  0
 23 20  1  0  0  0  0
 24 30  1  0  0  0  0
 24 29  1  0  0  0  0
 25 24  2  0  0  0  0
 26 25  1  0  0  0  0
 26 27  2  0  0  0  0
 27 28  1  0  0  0  0
 28 29  2  0  0  0  0
 28 23  1  0  0  0  0
 31 25  1  0  0  0  0
 32 26  1  0  0  0  0
M  END
>  <minimizedAffinity>
-4.93443584

>  <minimizedRMSD>
1.97764409

$$$$
