
 OpenBabel03252506593D

 29 31  0  0  0  0  0  0  0  0999 V2000
   44.7960   31.2550   43.4790 C   0  0  0  0  0  0  0  0  0  0  0  0
   44.0420   31.7290   42.8200 H   0  0  0  0  0  0  0  0  0  0  0  0
   44.4820   31.4480   44.5230 H   0  0  0  0  0  0  0  0  0  0  0  0
   46.1360   31.7760   43.1890 N   0  0  0  0  0  0  0  0  0  0  0  0
   47.1280   31.6780   44.1040 C   0  0  0  0  0  0  0  0  0  0  0  0
   47.0850   31.2410   45.0930 H   0  0  0  0  0  0  0  0  0  0  0  0
   48.2270   32.2460   43.5420 N   0  0  0  0  0  0  0  0  0  0  0  0
   47.8960   32.6760   42.3120 C   0  0  0  0  0  0  0  0  0  0  0  0
   48.5600   33.3190   41.2750 C   0  0  0  0  0  0  0  0  0  0  0  0
   47.9100   33.6170   40.1320 N   0  0  0  0  0  0  0  0  0  0  0  0
   46.5970   33.3070   39.9480 C   0  0  0  0  0  0  0  0  0  0  0  0
   46.2610   33.6270   38.9700 H   0  0  0  0  0  0  0  0  0  0  0  0
   45.8920   32.6750   40.9300 N   0  0  0  0  0  0  0  0  0  0  0  0
   46.5510   32.3840   42.0620 C   0  0  0  0  0  0  0  0  0  0  0  0
   49.9390   33.6460   41.4690 N   0  0  0  0  0  0  0  0  0  0  0  0
   50.5790   33.0240   42.0420 H   0  0  0  0  0  0  0  0  0  0  0  0
   50.5040   34.4470   41.1310 H   0  0  0  0  0  0  0  0  0  0  0  0
   44.7460   29.7570   43.1870 C   0  0  0  0  0  0  0  0  0  0  0  0
   45.3260   29.5130   42.2730 H   0  0  0  0  0  0  0  0  0  0  0  0
   45.2890   29.2970   44.0210 H   0  0  0  0  0  0  0  0  0  0  0  0
   43.3450   29.3400   43.1140 C   0  0  0  0  0  0  0  0  0  0  0  0
   42.4240   30.0300   42.3410 C   0  0  0  0  0  0  0  0  0  0  0  0
   41.0820   29.5840   42.3080 C   0  0  0  0  0  0  0  0  0  0  0  0
   40.7860   28.4920   43.0480 N   0  0  0  0  0  0  0  0  0  0  0  0
   41.7140   27.8390   43.7960 C   0  0  0  0  0  0  0  0  0  0  0  0
   42.9930   28.2690   43.8230 N   0  0  0  0  0  0  0  0  0  0  0  0
   42.6610   30.8860   41.7610 H   0  0  0  0  0  0  0  0  0  0  0  0
   40.3070   30.0580   41.7380 H   0  0  0  0  0  0  0  0  0  0  0  0
   41.4430   26.9540   44.3860 H   0  0  0  0  0  0  0  0  0  0  0  0
  1  3  1  0  0  0  0
  2  1  1  0  0  0  0
  4  1  1  0  0  0  0
  4  5  1  0  0  0  0
  5  6  1  0  0  0  0
  7  5  2  0  0  0  0
  8  7  1  0  0  0  0
  9 15  1  0  0  0  0
  9  8  2  0  0  0  0
 10  9  1  0  0  0  0
 11 10  2  0  0  0  0
 11 13  1  0  0  0  0
 12 11  1  0  0  0  0
 13 14  2  0  0  0  0
 14  8  1  0  0  0  0
 14  4  1  0  0  0  0
 15 16  1  0  0  0  0
 17 15  1  0  0  0  0
 18  1  1  0  0  0  0
 18 20  1  0  0  0  0
 19 18  1  0  0  0  0
 21 18  1  0  0  0  0
 21 26  1  0  0  0  0
 22 21  2  0  0  0  0
 23 22  1  0  0  0  0
 23 24  2  0  0  0  0
 24 25  1  0  0  0  0
 25 26  2  0  0  0  0
 25 29  1  0  0  0  0
 27 22  1  0  0  0  0
 28 23  1  0  0  0  0
M  END
>  <minimizedAffinity>
-2.42405152

>  <minimizedRMSD>
5.91375399

$$$$
