
     RDKit          3D

 29 31  0  0  0  0  0  0  0  0999 V2000
   47.2762   34.1869   43.2987 C   0  0  0  0  0  0  0  0  0  0  0  0
   46.6250   35.1744   42.5751 C   0  0  0  0  0  0  0  0  0  0  0  0
   45.3729   35.6475   43.0314 C   0  0  0  0  0  0  0  0  0  0  0  0
   44.8883   35.0929   44.1638 N   0  0  0  0  0  0  0  0  0  0  0  0
   45.5528   34.1257   44.8497 C   0  0  0  0  0  0  0  0  0  0  0  0
   46.7471   33.6782   44.4097 N   0  0  0  0  0  0  0  0  0  0  0  0
   48.5737   33.6591   42.8762 C   0  0  0  0  0  0  0  0  0  0  0  0
   49.4980   34.8322   42.5574 C   0  0  0  0  0  0  0  0  0  0  0  0
   47.0076   35.6060   41.6859 H   0  0  0  0  0  0  0  0  0  0  0  0
   44.8030   36.4079   42.5330 H   0  0  0  0  0  0  0  0  0  0  0  0
   45.1332   33.6945   45.7665 H   0  0  0  0  0  0  0  0  0  0  0  0
   48.5060   32.9644   42.0145 H   0  0  0  0  0  0  0  0  0  0  0  0
   49.0927   33.1079   43.6679 H   0  0  0  0  0  0  0  0  0  0  0  0
   49.0138   35.3995   41.7378 H   0  0  0  0  0  0  0  0  0  0  0  0
   49.5620   35.5112   43.4295 H   0  0  0  0  0  0  0  0  0  0  0  0
   50.8106   34.3345   42.1346 N   0  0  0  0  0  0  0  0  0  0  0  0
   51.8005   35.1946   41.7987 C   0  0  0  0  0  0  0  0  0  0  0  0
   51.7725   36.2758   41.7930 H   0  0  0  0  0  0  0  0  0  0  0  0
   52.8732   34.4331   41.4581 N   0  0  0  0  0  0  0  0  0  0  0  0
   52.5289   33.1390   41.5887 C   0  0  0  0  0  0  0  0  0  0  0  0
   53.1665   31.9204   41.3968 C   0  0  0  0  0  0  0  0  0  0  0  0
   54.5257   31.9428   40.9516 N   0  0  0  0  0  0  0  0  0  0  0  0
   55.1922   32.7117   41.2504 H   0  0  0  0  0  0  0  0  0  0  0  0
   52.5106   30.7654   41.6274 N   0  0  0  0  0  0  0  0  0  0  0  0
   51.2161   30.7445   42.0514 C   0  0  0  0  0  0  0  0  0  0  0  0
   50.8722   29.7261   42.1780 H   0  0  0  0  0  0  0  0  0  0  0  0
   50.5376   31.9087   42.2574 N   0  0  0  0  0  0  0  0  0  0  0  0
   51.2023   33.0516   42.0241 C   0  0  0  0  0  0  0  0  0  0  0  0
   55.0519   31.2973   40.3329 H   0  0  0  0  0  0  0  0  0  0  0  0
  1  6  2  0
  2  3  2  0
  2  1  1  0
  3  4  1  0
  4  5  2  0
  6  5  1  0
  7  1  1  0
  8  7  1  0
  2  9  1  0
  3 10  1  0
  5 11  1  0
  7 12  1  0
  7 13  1  0
  8 14  1  0
  8 15  1  0
 16 17  1  0
 17 18  1  0
 17 19  2  0
 19 20  1  0
 20 21  2  0
 21 22  1  0
 22 23  1  0
 21 24  1  0
 24 25  2  0
 25 26  1  0
 25 27  1  0
 27 28  2  0
 28 16  1  0
 28 20  1  0
 22 29  1  0
  8 16  1  0
M  ISO  8   9  14  10  14  11  14  12   8  13   8  14   8  15   8  18  15
M  ISO  2  23   5  26  16
M  END
>  <DihAtoms>  (1) 
6,7,15,16

>  <DihDeg>  (1) 
-89.99788751780501

$$$$
