
 OpenBabel03252505293D

 32 34  0  0  0  0  0  0  0  0999 V2000
   45.1600   30.2440   48.0810 C   0  0  0  0  0  0  0  0  0  0  0  0
   44.1290   30.1660   48.4810 H   0  0  0  0  0  0  0  0  0  0  0  0
   45.7430   30.7770   48.8580 H   0  0  0  0  0  0  0  0  0  0  0  0
   45.7210   28.9400   47.7740 N   0  0  0  0  0  0  0  0  0  0  0  0
   44.9770   27.8000   47.7810 C   0  0  0  0  0  0  0  0  0  0  0  0
   43.9200   27.6980   48.0030 H   0  0  0  0  0  0  0  0  0  0  0  0
   45.7390   26.7410   47.4630 N   0  0  0  0  0  0  0  0  0  0  0  0
   46.9770   27.2030   47.2500 C   0  0  0  0  0  0  0  0  0  0  0  0
   48.1970   26.6470   46.9000 C   0  0  0  0  0  0  0  0  0  0  0  0
   49.2980   27.3640   46.7540 N   0  0  0  0  0  0  0  0  0  0  0  0
   49.2450   28.7120   46.9540 C   0  0  0  0  0  0  0  0  0  0  0  0
   50.2010   29.2180   46.8110 H   0  0  0  0  0  0  0  0  0  0  0  0
   48.0840   29.3420   47.3010 N   0  0  0  0  0  0  0  0  0  0  0  0
   46.9760   28.5860   47.4440 C   0  0  0  0  0  0  0  0  0  0  0  0
   48.1450   25.2200   46.7130 N   0  0  0  0  0  0  0  0  0  0  0  0
   47.8810   24.4700   47.4170 H   0  0  0  0  0  0  0  0  0  0  0  0
   48.3950   24.8170   45.7630 H   0  0  0  0  0  0  0  0  0  0  0  0
   45.1920   31.0050   46.9440 O   0  0  0  0  0  0  0  0  0  0  0  0
   46.8150   32.3090   48.4620 O   0  0  0  0  0  0  0  0  0  0  0  0
   45.8060   32.5230   47.3370 P   0  0  2  0  0  0  0  0  0  0  0  0
   44.5380   33.4950   47.8410 O   0  0  0  0  0  0  0  0  0  0  0  0
   43.6530   33.0590   47.7850 H   0  0  0  0  0  0  0  0  0  0  0  0
   46.6340   33.2190   46.0320 O   0  0  0  0  0  0  0  0  0  0  0  0
   44.4820   35.6690   44.6070 C   0  0  0  0  0  0  0  0  0  0  0  0
   44.9090   35.7890   43.2650 C   0  0  0  0  0  0  0  0  0  0  0  0
   45.9920   34.9600   42.9000 C   0  0  0  0  0  0  0  0  0  0  0  0
   46.5480   34.1210   43.8200 N   0  0  0  0  0  0  0  0  0  0  0  0
   46.0780   34.0690   45.0860 C   0  0  0  0  0  0  0  0  0  0  0  0
   45.0610   34.8310   45.4680 N   0  0  0  0  0  0  0  0  0  0  0  0
   43.6490   36.3100   44.8810 H   0  0  0  0  0  0  0  0  0  0  0  0
   44.4580   36.4540   42.5630 H   0  0  0  0  0  0  0  0  0  0  0  0
   46.3740   35.0010   41.8780 H   0  0  0  0  0  0  0  0  0  0  0  0
  1  2  1  0  0  0  0
  1  3  1  0  0  0  0
  4  5  1  0  0  0  0
  4  1  1  0  0  0  0
  5  6  1  0  0  0  0
  7  5  2  0  0  0  0
  8 14  1  0  0  0  0
  8  7  1  0  0  0  0
  9  8  2  0  0  0  0
 10  9  1  0  0  0  0
 10 11  2  0  0  0  0
 11 13  1  0  0  0  0
 12 11  1  0  0  0  0
 13 14  2  0  0  0  0
 14  4  1  0  0  0  0
 15  9  1  0  0  0  0
 15 16  1  0  0  0  0
 17 15  1  0  0  0  0
 18 20  1  0  0  0  0
 18  1  1  0  0  0  0
 20 21  1  0  0  0  0
 20 19  2  1  0  0  0
 22 21  1  0  0  0  0
 23 20  1  0  0  0  0
 24 30  1  0  0  0  0
 24 29  1  0  0  0  0
 25 24  2  0  0  0  0
 26 25  1  0  0  0  0
 26 27  2  0  0  0  0
 27 28  1  0  0  0  0
 28 29  2  0  0  0  0
 28 23  1  0  0  0  0
 31 25  1  0  0  0  0
 32 26  1  0  0  0  0
M  END
>  <minimizedAffinity>
-4.77569914

>  <minimizedRMSD>
2.02132487

$$$$
