REMARK  Name = 
REMARK  4 active torsions:
REMARK  status: ('A' for Active; 'I' for Inactive)
REMARK    1  A    between atoms: C_1  and  C_2
REMARK    2  A    between atoms: C_1  and  C_14
REMARK    3  A    between atoms: C_13  and  C_15
REMARK    4  A    between atoms: C_44  and  N_45
REMARK                            x       y       z     vdW  Elec       q    Type
REMARK                         _______ _______ _______ _____ _____    ______ ____
ROOT
ATOM      1  C   UNL     1      45.677  32.965  46.757  0.00  0.00    +0.000 C 
ATOM      2  H   UNL     1      44.745  32.447  46.454  0.00  0.00    +0.000 HD
ATOM      3  H   UNL     1      45.486  33.965  47.200  0.00  0.00    +0.000 HD
ENDROOT
BRANCH   1   4
ATOM      4  C   UNL     1      46.394  32.166  47.793  0.00  0.00    +0.000 A 
ATOM      5  C   UNL     1      45.916  31.791  49.015  0.00  0.00    +0.000 A 
ATOM      6  N   UNL     1      46.890  31.095  49.602  0.00  0.00    +0.000 N 
ATOM      7  C   UNL     1      47.968  31.003  48.818  0.00  0.00    +0.000 A 
ATOM      8  N   UNL     1      47.646  31.681  47.681  0.00  0.00    +0.000 NA
ATOM      9  N   UNL     1      49.222  30.376  49.004  0.00  0.00    +0.000 N 
ATOM     10  C   UNL     1      50.310  31.164  49.620  0.00  0.00    +0.000 C 
ATOM     11  C   UNL     1      50.400  30.640  51.052  0.00  0.00    +0.000 C 
ATOM     12  C   UNL     1      50.428  29.129  51.050  0.00  0.00    +0.000 C 
ATOM     13  C   UNL     1      50.773  28.629  49.657  0.00  0.00    +0.000 C 
ATOM     14  C   UNL     1      49.688  29.057  48.704  0.00  0.00    +0.000 C 
ATOM     15  H   UNL     1      44.941  32.001  49.456  0.00  0.00    +0.000 HD
ATOM     16  H   UNL     1      46.875  30.653  50.547  0.00  0.00    +0.000 HD
ATOM     17  H   UNL     1      51.250  31.051  49.067  0.00  0.00    +0.000 HD
ATOM     18  H   UNL     1      50.042  32.234  49.674  0.00  0.00    +0.000 HD
ATOM     19  H   UNL     1      51.343  31.059  51.503  0.00  0.00    +0.000 HD
ATOM     20  H   UNL     1      49.560  31.051  51.633  0.00  0.00    +0.000 HD
ATOM     21  H   UNL     1      49.359  28.805  51.205  0.00  0.00    +0.000 HD
ATOM     22  H   UNL     1      51.065  28.685  51.816  0.00  0.00    +0.000 HD
ATOM     23  H   UNL     1      50.903  27.539  49.704  0.00  0.00    +0.000 HD
ATOM     24  H   UNL     1      51.764  29.088  49.396  0.00  0.00    +0.000 HD
ATOM     25  H   UNL     1      48.865  28.294  48.786  0.00  0.00    +0.000 HD
ATOM     26  H   UNL     1      50.070  28.984  47.660  0.00  0.00    +0.000 HD
ENDBRANCH   1   4
BRANCH   1  28
ATOM     27  C   UNL     1      46.149  33.887  44.521  0.00  0.00    +0.000 C 
ATOM     28  C   UNL     1      46.540  33.192  45.574  0.00  0.00    +0.000 C 
BRANCH  27  29
ATOM     29  C   UNL     1      47.096  34.040  43.413  0.00  0.00    +0.000 A 
ATOM     30  C   UNL     1      46.919  35.015  42.402  0.00  0.00    +0.000 A 
ATOM     31  C   UNL     1      47.881  35.069  41.399  0.00  0.00    +0.000 A 
ATOM     32  N   UNL     1      48.918  34.223  41.415  0.00  0.00    +0.000 NA
ATOM     33  C   UNL     1      49.069  33.296  42.393  0.00  0.00    +0.000 A 
ATOM     34  N   UNL     1      48.174  33.217  43.361  0.00  0.00    +0.000 NA
ATOM     35  H   UNL     1      46.054  35.665  42.456  0.00  0.00    +0.000 HD
ATOM     36  H   UNL     1      47.770  35.796  40.625  0.00  0.00    +0.000 HD
ATOM     37  N   UNL     1      50.218  32.472  42.273  0.00  0.00    +0.000 N 
ATOM     38  C   UNL     1      51.525  32.852  42.270  0.00  0.00    +0.000 A 
ATOM     39  H   UNL     1      51.878  33.888  42.362  0.00  0.00    +0.000 HD
ATOM     40  N   UNL     1      52.310  31.759  42.135  0.00  0.00    +0.000 NA
ATOM     41  C   UNL     1      51.508  30.670  42.051  0.00  0.00    +0.000 A 
ATOM     42  C   UNL     1      51.757  29.310  41.907  0.00  0.00    +0.000 A 
ATOM     43  N   UNL     1      50.696  28.461  41.855  0.00  0.00    +0.000 NA
ATOM     44  C   UNL     1      49.438  28.894  41.939  0.00  0.00    +0.000 A 
ATOM     45  H   UNL     1      48.642  28.169  41.892  0.00  0.00    +0.000 HD
ATOM     46  N   UNL     1      49.204  30.220  42.080  0.00  0.00    +0.000 NA
ATOM     47  C   UNL     1      50.194  31.120  42.138  0.00  0.00    +0.000 A 
BRANCH  42  48
ATOM     48  N   UNL     1      53.093  28.828  41.816  0.00  0.00    +0.000 N 
ATOM     49  H   UNL     1      53.813  28.693  41.073  0.00  0.00    +0.000 HD
ATOM     50  H   UNL     1      53.309  28.572  42.800  0.00  0.00    +0.000 HD
ENDBRANCH  42  48
ENDBRANCH  27  29
ENDBRANCH   1  28
TORSDOF 4
