
     RDKit          3D

 26 27  0  0  0  0  0  0  0  0999 V2000
   45.1860   35.2201   44.0542 C   0  0  0  0  0  0  0  0  0  0  0  0
   46.2189   34.5815   43.3717 C   0  0  0  0  0  0  0  0  0  0  0  0
   46.9101   33.5500   44.0606 C   0  0  0  0  0  0  0  0  0  0  0  0
   46.5240   33.2554   45.3279 N   0  0  0  0  0  0  0  0  0  0  0  0
   45.5140   33.9155   45.9278 C   0  0  0  0  0  0  0  0  0  0  0  0
   44.8427   34.8924   45.3052 N   0  0  0  0  0  0  0  0  0  0  0  0
   46.5515   34.9741   42.0120 C   0  0  1  0  0  0  0  0  0  0  0  0
   48.0489   35.1970   41.9467 C   0  0  0  0  0  0  0  0  0  0  0  0
   44.5904   36.0203   43.6376 H   0  0  0  0  0  0  0  0  0  0  0  0
   47.7186   33.0252   43.5708 H   0  0  0  0  0  0  0  0  0  0  0  0
   45.2948   33.5994   46.9300 H   0  0  0  0  0  0  0  0  0  0  0  0
   46.0631   35.9482   41.8050 H   0  0  0  0  0  0  0  0  0  0  0  0
   48.3431   36.0960   42.5628 H   0  0  0  0  0  0  0  0  0  0  0  0
   48.6251   34.3179   42.2957 H   0  0  0  0  0  0  0  0  0  0  0  0
   48.3056   35.4975   40.9049 H   0  0  0  0  0  0  0  0  0  0  0  0
   44.4087   35.6666   39.8972 Cl  0  0  0  0  0  0  0  0  0  0  0  0
   45.2841   34.1737   39.9674 C   0  0  0  0  0  0  0  0  0  0  0  0
   46.2158   33.9851   40.9592 C   0  0  0  0  0  0  0  0  0  0  0  0
   46.8388   32.7395   40.8869 C   0  0  0  0  0  0  0  0  0  0  0  0
   47.5995   32.4734   41.6223 H   0  0  0  0  0  0  0  0  0  0  0  0
   46.5992   31.7684   39.9621 C   0  0  0  0  0  0  0  0  0  0  0  0
   45.6416   32.0317   38.9883 C   0  0  0  0  0  0  0  0  0  0  0  0
   45.2893   30.8269   37.7747 Cl  0  0  0  0  0  0  0  0  0  0  0  0
   44.9850   33.2436   38.9983 C   0  0  0  0  0  0  0  0  0  0  0  0
   44.2402   33.4262   38.2274 H   0  0  0  0  0  0  0  0  0  0  0  0
   47.1165   30.8195   39.9583 H   0  0  0  0  0  0  0  0  0  0  0  0
  1  6  2  0
  2  1  1  0
  2  3  2  0
  3  4  1  0
  4  5  2  0
  6  5  1  0
  7  2  1  0
  8  7  1  0
  1  9  1  0
  3 10  1  0
  5 11  1  0
  7 12  1  6
  8 13  1  0
  8 14  1  0
  8 15  1  0
 16 17  1  0
 17 18  2  0
 18 19  1  0
 19 20  1  0
 19 21  2  0
 21 22  1  0
 22 23  1  0
 22 24  2  0
 24 25  1  0
 24 17  1  0
 21 26  1  0
  7 18  1  0
M  ISO  8   9  14  10  14  11  14  12   8  13   8  14   8  15   8  20  16
M  ISO  1  25  15
M  END
>  <DihAtoms>  (1) 
1,6,17,16

>  <DihDeg>  (1) 
69.7379195042612

$$$$
