
 OpenBabel03252508463D

 46 48  0  0  0  0  0  0  0  0999 V2000
   42.6910   31.3970   42.6050 N   0  0  0  0  0  0  0  0  0  0  0  0
   42.9580   31.6770   43.5880 H   0  0  0  0  0  0  0  0  0  0  0  0
   42.9910   32.4440   41.6800 C   0  0  0  0  0  0  0  0  0  0  0  0
   43.4920   32.0120   40.7920 H   0  0  0  0  0  0  0  0  0  0  0  0
   42.0640   32.9410   41.2970 H   0  0  0  0  0  0  0  0  0  0  0  0
   43.6630   34.8510   41.9100 C   0  0  0  0  0  0  0  0  0  0  0  0
   43.8870   33.5050   42.2260 C   0  0  0  0  0  0  0  0  0  0  0  0
   44.9490   33.1960   43.0500 C   0  0  0  0  0  0  0  0  0  0  0  0
   45.7580   34.1790   43.5410 C   0  0  0  0  0  0  0  0  0  0  0  0
   45.5570   35.5090   43.2420 C   0  0  0  0  0  0  0  0  0  0  0  0
   44.4800   35.7890   42.4120 C   0  0  0  0  0  0  0  0  0  0  0  0
   45.0770   32.1420   43.2620 H   0  0  0  0  0  0  0  0  0  0  0  0
   46.5700   33.8540   44.1780 H   0  0  0  0  0  0  0  0  0  0  0  0
   46.2180   36.2560   43.6500 H   0  0  0  0  0  0  0  0  0  0  0  0
   44.2880   36.8230   42.1540 H   0  0  0  0  0  0  0  0  0  0  0  0
   40.2550   35.7300   40.5480 C   0  0  0  0  0  0  0  0  0  0  0  0
   41.2720   35.4910   41.4940 C   0  0  0  0  0  0  0  0  0  0  0  0
   42.5350   35.1240   41.0400 C   0  0  0  0  0  0  0  0  0  0  0  0
   42.7020   35.0190   39.6880 N   0  0  0  0  0  0  0  0  0  0  0  0
   41.7080   35.2550   38.7960 C   0  0  0  0  0  0  0  0  0  0  0  0
   40.4960   35.6070   39.2410 N   0  0  0  0  0  0  0  0  0  0  0  0
   39.3410   36.0000   41.0330 H   0  0  0  0  0  0  0  0  0  0  0  0
   41.1760   35.5610   42.5500 H   0  0  0  0  0  0  0  0  0  0  0  0
   41.8270   35.1730   37.7380 H   0  0  0  0  0  0  0  0  0  0  0  0
   41.0140   31.0190   42.6540 S   0  0  0  0  0  0  0  0  0  0  0  0
   40.1760   32.2620   42.4620 O   0  0  0  0  0  0  0  0  0  0  0  0
   40.0550   32.7090   41.5750 H   0  0  0  0  0  0  0  0  0  0  0  0
   40.6490   30.3210   43.9080 O   0  0  0  0  0  0  0  0  0  0  0  0
   41.1650   30.2000   44.7400 H   0  0  0  0  0  0  0  0  0  0  0  0
   40.7260   29.9740   41.3670 O   0  0  0  0  0  0  0  0  0  0  0  0
   39.9890   28.9040   41.8080 C   0  0  0  0  0  0  0  0  0  0  0  0
   38.9190   29.1840   41.7180 H   0  0  0  0  0  0  0  0  0  0  0  0
   40.1520   28.5990   42.8500 H   0  0  0  0  0  0  0  0  0  0  0  0
   40.2440   27.7010   40.8810 C   0  0  0  0  0  0  0  0  0  0  0  0
   41.3240   27.5470   40.8900 H   0  0  0  0  0  0  0  0  0  0  0  0
   39.9460   28.0080   39.8830 H   0  0  0  0  0  0  0  0  0  0  0  0
   37.4080   27.2350   39.8080 Cl  0  0  0  0  0  0  0  0  0  0  0  0
   38.2050   26.2020   40.9760 C   0  0  0  0  0  0  0  0  0  0  0  0
   39.4860   26.5220   41.3680 C   0  0  0  0  0  0  0  0  0  0  0  0
   40.1370   25.7030   42.2980 C   0  0  0  0  0  0  0  0  0  0  0  0
   41.1450   25.9350   42.6170 H   0  0  0  0  0  0  0  0  0  0  0  0
   39.5260   24.5870   42.8310 C   0  0  0  0  0  3  0  0  0  0  0  0
   38.2510   24.3040   42.4140 C   0  0  0  0  0  0  0  0  0  0  0  0
   37.4900   22.8710   43.1120 Cl  0  0  0  0  0  0  0  0  0  0  0  0
   37.5600   25.0830   41.4930 C   0  0  0  0  0  0  0  0  0  0  0  0
   36.5380   24.8180   41.1840 H   0  0  0  0  0  0  0  0  0  0  0  0
  1 25  1  0  0  0  0
  1  2  1  0  0  0  0
  3  7  1  0  0  0  0
  3  1  1  0  0  0  0
  4  3  1  0  0  0  0
  5  3  1  0  0  0  0
  6  7  2  0  0  0  0
  6 11  1  0  0  0  0
  7  8  1  0  0  0  0
  8 12  1  0  0  0  0
  8  9  2  0  0  0  0
  9 13  1  0  0  0  0
 10  9  1  0  0  0  0
 10 14  1  0  0  0  0
 11 10  2  0  0  0  0
 15 11  1  0  0  0  0
 16 22  1  0  0  0  0
 16 17  1  0  0  0  0
 17 23  1  0  0  0  0
 18 17  2  0  0  0  0
 18  6  1  0  0  0  0
 19 18  1  0  0  0  0
 20 21  1  0  0  0  0
 20 19  2  0  0  0  0
 21 16  2  0  0  0  0
 24 20  1  0  0  0  0
 25 28  1  0  0  0  0
 26 25  1  0  0  0  0
 27 26  1  0  0  0  0
 28 29  1  0  0  0  0
 30 31  1  0  0  0  0
 30 25  1  0  0  0  0
 31 33  1  0  0  0  0
 32 31  1  0  0  0  0
 34 35  1  0  0  0  0
 34 39  1  0  0  0  0
 34 31  1  0  0  0  0
 36 34  1  0  0  0  0
 37 38  1  0  0  0  0
 38 39  2  0  0  0  0
 38 45  1  0  0  0  0
 39 40  1  0  0  0  0
 40 41  1  0  0  0  0
 40 42  2  0  0  0  0
 43 42  1  0  0  0  0
 43 44  1  0  0  0  0
 45 43  2  0  0  0  0
 46 45  1  0  0  0  0
M  END
>  <minimizedAffinity>
-5.23191833

>  <minimizedRMSD>
0.49042356

$$$$
