
     RDKit          3D

 22 23  0  0  0  0  0  0  0  0999 V2000
   44.5803   36.0013   44.4816 C   0  0  0  0  0  0  0  0  0  0  0  0
   45.3269   35.9009   43.2954 C   0  0  0  0  0  0  0  0  0  0  0  0
   46.2260   34.8292   43.1618 C   0  0  0  0  0  0  0  0  0  0  0  0
   46.3033   33.9653   44.2014 N   0  0  0  0  0  0  0  0  0  0  0  0
   45.5819   34.0793   45.3246 C   0  0  0  0  0  0  0  0  0  0  0  0
   44.7035   35.1141   45.4717 N   0  0  0  0  0  0  0  0  0  0  0  0
   46.9573   34.7843   41.9272 C   0  0  0  0  0  0  0  0  0  0  0  0
   48.0518   35.4097   41.7544 O   0  0  0  0  0  0  0  0  0  0  0  0
   43.8946   36.8278   44.5708 H   0  0  0  0  0  0  0  0  0  0  0  0
   45.1730   36.6553   42.5406 H   0  0  0  0  0  0  0  0  0  0  0  0
   45.7207   33.3262   46.1044 H   0  0  0  0  0  0  0  0  0  0  0  0
   46.7333   31.7446   42.1223 Cl  0  0  0  0  0  0  0  0  0  0  0  0
   46.5286   32.6944   40.6593 C   0  0  0  0  0  0  0  0  0  0  0  0
   46.6521   34.0750   40.6816 C   0  0  0  0  0  0  0  0  0  0  0  0
   46.4661   34.6957   39.4585 C   0  0  0  0  0  0  0  0  0  0  0  0
   46.5523   35.7830   39.4200 H   0  0  0  0  0  0  0  0  0  0  0  0
   46.1800   33.9829   38.3123 C   0  0  0  0  0  0  0  0  0  0  0  0
   46.0671   32.6193   38.3362 C   0  0  0  0  0  0  0  0  0  0  0  0
   45.7010   31.7783   36.8377 Cl  0  0  0  0  0  0  0  0  0  0  0  0
   46.2432   31.9655   39.5232 C   0  0  0  0  0  0  0  0  0  0  0  0
   46.1503   30.8867   39.5238 H   0  0  0  0  0  0  0  0  0  0  0  0
   46.0477   34.5372   37.3927 H   0  0  0  0  0  0  0  0  0  0  0  0
  1  6  2  0
  2  1  1  0
  3  2  2  0
  3  4  1  0
  4  5  2  0
  5  6  1  0
  7  3  1  0
  8  7  2  0
  1  9  1  0
  2 10  1  0
  5 11  1  0
 12 13  1  0
 13 14  2  0
 14 15  1  0
 15 16  1  0
 15 17  2  0
 17 18  1  0
 18 19  1  0
 18 20  2  0
 20 21  1  0
 20 13  1  0
 17 22  1  0
  7 14  1  0
M  ISO  5   9  14  10  14  11  14  16  16  21  15
M  END
>  <DihAtoms>  (1) 
2,6,13,12

>  <DihDeg>  (1) 
-45.00340542686451

$$$$
