
 OpenBabel03252508463D

 46 48  0  0  0  0  0  0  0  0999 V2000
   42.7020   31.5330   42.5740 N   0  0  0  0  0  0  0  0  0  0  0  0
   42.9310   31.8400   43.5570 H   0  0  0  0  0  0  0  0  0  0  0  0
   43.0460   32.5500   41.6300 C   0  0  0  0  0  0  0  0  0  0  0  0
   43.5910   32.0910   40.7840 H   0  0  0  0  0  0  0  0  0  0  0  0
   42.1370   33.0300   41.1870 H   0  0  0  0  0  0  0  0  0  0  0  0
   43.6500   34.9730   41.8770 C   0  0  0  0  0  0  0  0  0  0  0  0
   43.9110   33.6320   42.1860 C   0  0  0  0  0  0  0  0  0  0  0  0
   44.9800   33.3480   43.0090 C   0  0  0  0  0  0  0  0  0  0  0  0
   45.7600   34.3490   43.5080 C   0  0  0  0  0  0  0  0  0  0  0  0
   45.5230   35.6750   43.2170 C   0  0  0  0  0  0  0  0  0  0  0  0
   44.4400   35.9300   42.3870 C   0  0  0  0  0  0  0  0  0  0  0  0
   45.1360   32.2950   43.2150 H   0  0  0  0  0  0  0  0  0  0  0  0
   46.5800   34.0430   44.1440 H   0  0  0  0  0  0  0  0  0  0  0  0
   46.1620   36.4380   43.6310 H   0  0  0  0  0  0  0  0  0  0  0  0
   44.2200   36.9600   42.1350 H   0  0  0  0  0  0  0  0  0  0  0  0
   40.2310   35.8020   40.5130 C   0  0  0  0  0  0  0  0  0  0  0  0
   41.2540   35.5900   41.4590 C   0  0  0  0  0  0  0  0  0  0  0  0
   42.5160   35.2200   41.0070 C   0  0  0  0  0  0  0  0  0  0  0  0
   42.6770   35.0870   39.6560 N   0  0  0  0  0  0  0  0  0  0  0  0
   41.6780   35.2970   38.7650 C   0  0  0  0  0  0  0  0  0  0  0  0
   40.4660   35.6510   39.2080 N   0  0  0  0  0  0  0  0  0  0  0  0
   39.3170   36.0770   40.9960 H   0  0  0  0  0  0  0  0  0  0  0  0
   41.1620   35.6820   42.5130 H   0  0  0  0  0  0  0  0  0  0  0  0
   41.7930   35.1930   37.7080 H   0  0  0  0  0  0  0  0  0  0  0  0
   41.0230   31.1640   42.5670 S   0  0  0  0  0  0  0  0  0  0  0  0
   40.1950   32.4260   42.4910 O   0  0  0  0  0  0  0  0  0  0  0  0
   40.0870   32.9610   41.6530 H   0  0  0  0  0  0  0  0  0  0  0  0
   40.6400   30.3450   43.7400 O   0  0  0  0  0  0  0  0  0  0  0  0
   41.1450   30.1380   44.5610 H   0  0  0  0  0  0  0  0  0  0  0  0
   40.7440   30.2550   41.1780 O   0  0  0  0  0  0  0  0  0  0  0  0
   40.1650   29.0610   41.5260 C   0  0  0  0  0  0  0  0  0  0  0  0
   39.1760   29.2940   41.9730 H   0  0  0  0  0  0  0  0  0  0  0  0
   40.7100   28.4530   42.2590 H   0  0  0  0  0  0  0  0  0  0  0  0
   39.9250   28.2280   40.2530 C   0  0  0  0  0  0  0  0  0  0  0  0
   40.5690   27.3530   40.3500 H   0  0  0  0  0  0  0  0  0  0  0  0
   40.2770   28.8270   39.4180 H   0  0  0  0  0  0  0  0  0  0  0  0
   38.0300   30.2330   38.9110 Cl  0  0  0  0  0  0  0  0  0  0  0  0
   37.5310   28.6900   39.5740 C   0  0  0  0  0  0  0  0  0  0  0  0
   38.4870   27.8810   40.1430 C   0  0  0  0  0  0  0  0  0  0  0  0
   38.1030   26.6440   40.6750 C   0  0  0  0  0  0  0  0  0  0  0  0
   38.8410   25.9900   41.1240 H   0  0  0  0  0  0  0  0  0  0  0  0
   36.7910   26.2190   40.6420 C   0  0  0  0  0  3  0  0  0  0  0  0
   35.8700   27.0560   40.0660 C   0  0  0  0  0  0  0  0  0  0  0  0
   34.1960   26.4900   40.0390 Cl  0  0  0  0  0  0  0  0  0  0  0  0
   36.1970   28.2920   39.5250 C   0  0  0  0  0  0  0  0  0  0  0  0
   35.4250   28.9320   39.0710 H   0  0  0  0  0  0  0  0  0  0  0  0
  1  2  1  0  0  0  0
  3  7  1  0  0  0  0
  3  1  1  0  0  0  0
  4  3  1  0  0  0  0
  5  3  1  0  0  0  0
  6  7  2  0  0  0  0
  6 11  1  0  0  0  0
  7  8  1  0  0  0  0
  8 12  1  0  0  0  0
  8  9  2  0  0  0  0
  9 13  1  0  0  0  0
 10  9  1  0  0  0  0
 10 14  1  0  0  0  0
 11 10  2  0  0  0  0
 15 11  1  0  0  0  0
 16 22  1  0  0  0  0
 16 17  1  0  0  0  0
 17 23  1  0  0  0  0
 18 17  2  0  0  0  0
 18  6  1  0  0  0  0
 19 18  1  0  0  0  0
 20 21  1  0  0  0  0
 20 19  2  0  0  0  0
 21 16  2  0  0  0  0
 24 20  1  0  0  0  0
 25  1  1  0  0  0  0
 25 28  1  0  0  0  0
 26 25  1  0  0  0  0
 27 26  1  0  0  0  0
 28 29  1  0  0  0  0
 30 31  1  0  0  0  0
 30 25  1  0  0  0  0
 31 32  1  0  0  0  0
 31 33  1  0  0  0  0
 34 35  1  0  0  0  0
 34 31  1  0  0  0  0
 36 34  1  0  0  0  0
 37 38  1  0  0  0  0
 38 39  1  0  0  0  0
 39 34  1  0  0  0  0
 39 40  2  0  0  0  0
 40 41  1  0  0  0  0
 42 40  1  0  0  0  0
 43 42  2  0  0  0  0
 44 43  1  0  0  0  0
 45 38  2  0  0  0  0
 45 43  1  0  0  0  0
 46 45  1  0  0  0  0
M  END
>  <minimizedAffinity>
-5.55029964

>  <minimizedRMSD>
2.3151381

$$$$
