
 OpenBabel03252504533D

 22 23  0  0  0  0  0  0  0  0999 V2000
   45.9070   32.8820   42.7450 C   0  0  0  0  0  0  0  0  0  0  0  0
   46.7180   33.6440   42.5830 H   0  0  0  0  0  0  0  0  0  0  0  0
   46.1480   31.9810   42.1440 H   0  0  0  0  0  0  0  0  0  0  0  0
   45.9820   35.8410   42.7190 Cl  0  0  0  0  0  0  0  0  0  0  0  0
   44.5750   34.9150   42.2020 C   0  0  0  0  0  0  0  0  0  0  0  0
   44.6670   33.5230   42.2630 C   0  0  0  0  0  0  0  0  0  0  0  0
   43.5470   32.7920   41.8520 C   0  0  0  0  0  0  0  0  0  0  0  0
   43.6000   31.6960   41.8930 H   0  0  0  0  0  0  0  0  0  0  0  0
   42.3850   33.3890   41.4010 C   0  0  0  0  0  3  0  0  0  0  0  0
   42.3120   34.7850   41.3470 C   0  0  0  0  0  0  0  0  0  0  0  0
   40.8530   35.5780   40.7790 Cl  0  0  0  0  0  0  0  0  0  0  0  0
   43.4160   35.5330   41.7520 C   0  0  0  0  0  0  0  0  0  0  0  0
   43.3650   36.6250   41.7120 H   0  0  0  0  0  0  0  0  0  0  0  0
   45.8860   30.7990   45.8170 C   0  0  0  0  0  0  0  0  0  0  0  0
   45.8950   31.1460   44.4540 C   0  0  0  0  0  0  0  0  0  0  0  0
   45.8980   32.5200   44.1550 C   0  0  0  0  0  0  0  0  0  0  0  0
   45.8920   33.4090   45.1900 N   0  0  0  0  0  0  0  0  0  0  0  0
   45.8830   33.0150   46.4850 C   0  0  0  0  0  0  0  0  0  0  0  0
   45.8810   31.7040   46.7920 N   0  0  0  0  0  0  0  0  0  0  0  0
   45.8840   29.7210   46.0230 H   0  0  0  0  0  0  0  0  0  0  0  0
   45.8990   30.4140   43.6600 H   0  0  0  0  0  0  0  0  0  0  0  0
   45.8790   33.8100   47.2290 H   0  0  0  0  0  0  0  0  0  0  0  0
  1 16  1  0  0  0  0
  2  1  1  0  0  0  0
  3  1  1  0  0  0  0
  5  6  1  0  0  0  0
  5  4  1  0  0  0  0
  6  1  1  0  0  0  0
  7  8  1  0  0  0  0
  7  6  2  0  0  0  0
  9  7  1  0  0  0  0
 10  9  2  0  0  0  0
 10 12  1  0  0  0  0
 11 10  1  0  0  0  0
 12  5  2  0  0  0  0
 13 12  1  0  0  0  0
 14 20  1  0  0  0  0
 14 19  1  0  0  0  0
 15 14  2  0  0  0  0
 16 15  1  0  0  0  0
 16 17  2  0  0  0  0
 17 18  1  0  0  0  0
 18 19  2  0  0  0  0
 18 22  1  0  0  0  0
 21 15  1  0  0  0  0
M  END
>  <minimizedAffinity>
-3.65115166

>  <minimizedRMSD>
5.87361336

$$$$
