
 OpenBabel03252508173D

 48 52  0  0  1  0  0  0  0  0999 V2000
   47.3840   31.0500   46.9700 C   0  0  0  0  0  0  0  0  0  0  0  0
   46.5100   30.3470   47.1020 H   0  0  0  0  0  0  0  0  0  0  0  0
   48.1760   30.4570   46.5350 H   0  0  0  0  0  0  0  0  0  0  0  0
   47.6620   31.7250   48.2710 C   0  0  1  0  0  0  0  0  0  0  0  0
   47.3560   30.9250   49.4900 C   0  0  0  0  0  0  0  0  0  0  0  0
   48.7410   31.2260   49.1480 C   0  0  1  0  0  0  0  0  0  0  0  0
   47.1950   32.7490   48.3810 H   0  0  0  0  0  0  0  0  0  0  0  0
   46.9210   31.3730   50.4040 H   0  0  0  0  0  0  0  0  0  0  0  0
   46.9970   29.8800   49.3500 H   0  0  0  0  0  0  0  0  0  0  0  0
   49.2550   31.9900   49.7660 H   0  0  0  0  0  0  0  0  0  0  0  0
   49.6600   30.1780   48.6040 C   0  0  2  0  0  0  0  0  0  0  0  0
   50.0070   29.0860   49.6490 C   0  0  0  0  0  0  0  0  0  0  0  0
   51.0410   30.0380   49.2350 C   0  0  2  0  0  0  0  0  0  0  0  0
   49.4600   29.7070   47.6180 H   0  0  0  0  0  0  0  0  0  0  0  0
   50.0980   28.0480   49.3430 H   0  0  0  0  0  0  0  0  0  0  0  0
   49.6310   29.2060   50.6800 H   0  0  0  0  0  0  0  0  0  0  0  0
   51.8080   29.6590   48.5230 H   0  0  0  0  0  0  0  0  0  0  0  0
   53.1990   31.7020   48.0480 Cl  0  0  0  0  0  0  0  0  0  0  0  0
   52.4430   32.0410   49.6130 C   0  0  0  0  0  0  0  0  0  0  0  0
   51.4460   31.1920   50.0640 C   0  0  0  0  0  0  0  0  0  0  0  0
   50.8750   31.4830   51.2890 C   0  0  0  0  0  0  0  0  0  0  0  0
   50.0950   30.8480   51.6780 H   0  0  0  0  0  0  0  0  0  0  0  0
   51.2720   32.5720   52.0470 C   0  0  0  0  0  3  0  0  0  0  0  0
   52.2700   33.3920   51.5580 C   0  0  0  0  0  0  0  0  0  0  0  0
   52.8250   34.7980   52.4730 Cl  0  0  0  0  0  0  0  0  0  0  0  0
   52.8760   33.1510   50.3430 C   0  0  0  0  0  0  0  0  0  0  0  0
   53.6540   33.8070   49.9840 H   0  0  0  0  0  0  0  0  0  0  0  0
   46.2410   32.9860   46.2610 C   0  0  0  0  0  3  0  0  0  0  0  0
   47.0380   32.0690   45.9070 C   0  0  0  0  0  3  0  0  0  0  0  0
   44.5470   35.7760   44.5470 C   0  0  0  0  0  0  0  0  0  0  0  0
   45.1720   35.8090   43.3090 C   0  0  0  0  0  0  0  0  0  0  0  0
   46.1480   34.8760   43.0960 C   0  0  0  0  0  0  0  0  0  0  0  0
   46.4560   33.9830   44.0760 N   0  0  0  0  0  0  0  0  0  0  0  0
   45.8270   33.9820   45.2670 C   0  0  0  0  0  0  0  0  0  0  0  0
   44.8830   34.8840   45.4720 N   0  0  0  0  0  0  0  0  0  0  0  0
   43.7620   36.5030   44.7580 H   0  0  0  0  0  0  0  0  0  0  0  0
   44.9300   36.5150   42.5340 H   0  0  0  0  0  0  0  0  0  0  0  0
   46.8900   34.7900   41.8480 C   0  0  0  0  0  0  0  0  0  0  0  0
   48.0820   35.4210   41.6110 C   0  0  0  0  0  0  0  0  0  0  0  0
   48.7740   35.3290   40.4170 C   0  0  0  0  0  0  0  0  0  0  0  0
   48.2650   34.5730   39.3950 C   0  0  0  0  0  0  0  0  0  0  0  0
   47.0750   33.9190   39.5760 C   0  0  0  0  0  0  0  0  0  0  0  0
   46.4240   34.0420   40.7880 C   0  0  0  0  0  0  0  0  0  0  0  0
   48.5020   36.0320   42.4240 H   0  0  0  0  0  0  0  0  0  0  0  0
   49.7150   35.8830   40.3560 H   0  0  0  0  0  0  0  0  0  0  0  0
   48.8900   34.5700   38.5010 H   0  0  0  0  0  0  0  0  0  0  0  0
   46.7090   33.3340   38.7490 H   0  0  0  0  0  0  0  0  0  0  0  0
   45.4920   33.4940   40.8440 H   0  0  0  0  0  0  0  0  0  0  0  0
  1  2  1  0  0  0  0
  1  4  1  0  0  0  0
  3  1  1  0  0  0  0
  4  7  1  1  0  0  0
  4  6  1  0  0  0  0
  4  5  1  0  0  0  0
  5  8  1  0  0  0  0
  6  5  1  0  0  0  0
  6 10  1  1  0  0  0
  9  5  1  0  0  0  0
 11 14  1  6  0  0  0
 11  6  1  0  0  0  0
 11 13  1  0  0  0  0
 11 12  1  0  0  0  0
 12 16  1  0  0  0  0
 13 17  1  6  0  0  0
 13 12  1  0  0  0  0
 13 20  1  0  0  0  0
 15 12  1  0  0  0  0
 18 19  1  0  0  0  0
 19 20  2  0  0  0  0
 19 26  1  0  0  0  0
 20 21  1  0  0  0  0
 21 22  1  0  0  0  0
 21 23  2  0  0  0  0
 24 23  1  0  0  0  0
 24 25  1  0  0  0  0
 26 24  2  0  0  0  0
 27 26  1  0  0  0  0
 29 28  2  0  0  0  0
 29  1  1  0  0  0  0
 30 36  1  0  0  0  0
 30 35  1  0  0  0  0
 31 30  2  0  0  0  0
 32 31  1  0  0  0  0
 32 33  2  0  0  0  0
 33 34  1  0  0  0  0
 34 35  2  0  0  0  0
 34 28  1  0  0  0  0
 37 31  1  0  0  0  0
 38 32  1  0  0  0  0
 39 38  1  0  0  0  0
 39 44  1  0  0  0  0
 40 39  2  0  0  0  0
 41 42  2  0  0  0  0
 41 40  1  0  0  0  0
 42 43  1  0  0  0  0
 43 48  1  0  0  0  0
 43 38  2  0  0  0  0
 45 40  1  0  0  0  0
 46 41  1  0  0  0  0
 47 42  1  0  0  0  0
M  END
>  <minimizedAffinity>
-7.17218781

>  <minimizedRMSD>
2.46710825

$$$$
