
 OpenBabel03252503083D

 28 30  0  0  1  0  0  0  0  0999 V2000
   45.3280   36.1340   43.3970 C   0  0  0  0  0  0  0  0  0  0  0  0
   45.9900   34.9070   43.1290 C   0  0  0  0  0  0  0  0  0  0  0  0
   45.8640   33.9610   44.1360 C   0  0  0  0  0  0  0  0  0  0  0  0
   45.1750   34.1930   45.2610 N   0  0  0  0  0  0  0  0  0  0  0  0
   44.5570   35.3930   45.4670 C   0  0  0  0  0  0  0  0  0  0  0  0
   44.6460   36.3510   44.5200 N   0  0  0  0  0  0  0  0  0  0  0  0
   45.3920   36.9200   42.6390 H   0  0  0  0  0  0  0  0  0  0  0  0
   44.0170   35.5240   46.3910 H   0  0  0  0  0  0  0  0  0  0  0  0
   46.4650   32.7190   43.9520 C   0  0  0  0  0  0  0  0  0  0  0  0
   47.7350   32.2440   43.9940 C   0  0  0  0  0  0  0  0  0  0  0  0
   48.0830   30.9890   43.7580 C   0  0  0  0  0  0  0  0  0  0  0  0
   47.0580   30.1330   43.4520 C   0  0  0  0  0  0  0  0  0  0  0  0
   45.5870   31.2350   43.5270 S   0  0  0  0  0  0  0  0  0  0  0  0
   48.6360   32.7730   44.2530 H   0  0  0  0  0  0  0  0  0  0  0  0
   48.9590   30.3850   43.7250 H   0  0  0  0  0  0  0  0  0  0  0  0
   46.8260   29.1260   43.2030 H   0  0  0  0  0  0  0  0  0  0  0  0
   46.6860   34.7530   41.9080 C   0  0  2  0  0  3  0  0  0  0  0  0
   47.8090   35.4380   41.9110 O   0  0  0  0  0  1  0  0  0  0  0  0
   48.8450   35.2630   40.0160 Cl  0  0  0  0  0  0  0  0  0  0  0  0
   47.4020   34.2540   39.7580 C   0  0  0  0  0  0  0  0  0  0  0  0
   46.3570   33.9860   40.6670 C   0  0  0  0  0  0  0  0  0  0  0  0
   45.3630   33.1710   40.2020 C   0  0  0  0  0  0  0  0  0  0  0  0
   44.6110   33.0480   40.9610 H   0  0  0  0  0  0  0  0  0  0  0  0
   45.3570   32.6350   38.9410 C   0  0  0  0  0  3  0  0  0  0  0  0
   46.3790   32.9020   38.0600 C   0  0  0  0  0  0  0  0  0  0  0  0
   46.2290   32.1450   36.4870 Cl  0  0  0  0  0  0  0  0  0  0  0  0
   47.4140   33.7160   38.4620 C   0  0  0  0  0  0  0  0  0  0  0  0
   48.1660   33.8680   37.7080 H   0  0  0  0  0  0  0  0  0  0  0  0
  1  6  1  0  0  0  0
  2  1  2  0  0  0  0
  2  3  1  0  0  0  0
  3  4  2  0  0  0  0
  4  5  1  0  0  0  0
  5  8  1  0  0  0  0
  6  5  2  0  0  0  0
  7  1  1  0  0  0  0
  9 10  2  0  0  0  0
  9  3  1  0  0  0  0
 10 14  1  0  0  0  0
 11 10  1  0  0  0  0
 12 13  1  0  0  0  0
 12 11  2  0  0  0  0
 13  9  1  0  0  0  0
 15 11  1  0  0  0  0
 16 12  1  0  0  0  0
 17 18  1  6  0  0  0
 17  2  1  0  0  0  0
 20 19  1  0  0  0  0
 20 21  1  0  0  0  0
 21 17  1  0  0  0  0
 22 21  2  0  0  0  0
 22 23  1  0  0  0  0
 24 22  1  0  0  0  0
 25 27  1  0  0  0  0
 25 24  2  0  0  0  0
 26 25  1  0  0  0  0
 27 20  2  0  0  0  0
 28 27  1  0  0  0  0
M  END
>  <minimizedAffinity>
-4.86391401

>  <minimizedRMSD>
0.689945459

$$$$
