
 OpenBabel03242512353D

 21 22  0  0  0  0  0  0  0  0999 V2000
   35.4810   29.2930   40.1580 C   0  0  0  0  0  0  0  0  0  0  0  0
   34.2410   29.1970   39.8660 O   0  0  0  0  0  0  0  0  0  0  0  0
   36.0290   27.1380   38.2390 Cl  0  0  0  0  0  0  0  0  0  0  0  0
   36.4170   27.1410   39.9550 C   0  0  0  0  0  0  0  0  0  0  0  0
   36.1440   28.1840   40.8410 C   0  0  0  0  0  0  0  0  0  0  0  0
   36.5030   28.0570   42.1660 C   0  0  0  0  0  0  0  0  0  0  0  0
   36.2400   28.9240   42.7530 H   0  0  0  0  0  0  0  0  0  0  0  0
   37.1240   26.9090   42.5920 C   0  0  0  0  0  3  0  0  0  0  0  0
   37.4060   25.8640   41.7350 C   0  0  0  0  0  0  0  0  0  0  0  0
   38.2060   24.4250   42.3590 Cl  0  0  0  0  0  0  0  0  0  0  0  0
   37.0480   25.9870   40.4080 C   0  0  0  0  0  0  0  0  0  0  0  0
   37.2870   25.1470   39.7710 H   0  0  0  0  0  0  0  0  0  0  0  0
   36.3050   30.4350   39.8630 C   0  0  0  0  0  0  0  0  0  0  0  0
   36.6410   30.5510   38.4940 C   0  0  0  0  0  0  0  0  0  0  0  0
   37.4370   31.6370   38.1500 C   0  0  0  0  0  0  0  0  0  0  0  0
   37.8340   32.5010   39.1180 N   0  0  0  0  0  0  0  0  0  0  0  0
   37.4920   32.3540   40.4030 C   0  0  0  0  0  0  0  0  0  0  0  0
   36.7290   31.3250   40.7820 N   0  0  0  0  0  0  0  0  0  0  0  0
   36.3130   29.8530   37.7490 H   0  0  0  0  0  0  0  0  0  0  0  0
   37.7370   31.7930   37.1120 H   0  0  0  0  0  0  0  0  0  0  0  0
   37.8020   33.0350   41.1860 H   0  0  0  0  0  0  0  0  0  0  0  0
  1  5  1  0  0  0  0
  2  1  2  0  0  0  0
  3  4  1  0  0  0  0
  4 11  2  0  0  0  0
  4  5  1  0  0  0  0
  5  6  2  0  0  0  0
  6  8  1  0  0  0  0
  6  7  1  0  0  0  0
  9 10  1  0  0  0  0
  9  8  2  0  0  0  0
 11  9  1  0  0  0  0
 12 11  1  0  0  0  0
 13  1  1  0  0  0  0
 13 18  1  0  0  0  0
 14 13  2  0  0  0  0
 15 14  1  0  0  0  0
 15 16  2  0  0  0  0
 16 17  1  0  0  0  0
 17 18  2  0  0  0  0
 17 21  1  0  0  0  0
 19 14  1  0  0  0  0
 20 15  1  0  0  0  0
M  END
>  <minimizedAffinity>
-4.83390903

$$$$

 OpenBabel03242512353D

 21 22  0  0  0  0  0  0  0  0999 V2000
   36.7860   27.3650   42.4600 C   0  0  0  0  0  0  0  0  0  0  0  0
   36.2580   27.3750   43.6230 O   0  0  0  0  0  0  0  0  0  0  0  0
   38.9250   29.2490   43.1680 Cl  0  0  0  0  0  0  0  0  0  0  0  0
   37.6930   29.4730   41.9320 C   0  0  0  0  0  0  0  0  0  0  0  0
   36.6900   28.5560   41.6190 C   0  0  0  0  0  0  0  0  0  0  0  0
   35.7850   28.8580   40.6230 C   0  0  0  0  0  0  0  0  0  0  0  0
   35.0570   28.0750   40.4730 H   0  0  0  0  0  0  0  0  0  0  0  0
   35.8850   30.0540   39.9560 C   0  0  0  0  0  3  0  0  0  0  0  0
   36.8700   30.9770   40.2460 C   0  0  0  0  0  0  0  0  0  0  0  0
   36.9320   32.4880   39.3450 Cl  0  0  0  0  0  0  0  0  0  0  0  0
   37.7770   30.6790   41.2420 C   0  0  0  0  0  0  0  0  0  0  0  0
   38.5310   31.4290   41.4380 H   0  0  0  0  0  0  0  0  0  0  0  0
   37.4900   26.2460   41.8920 C   0  0  0  0  0  0  0  0  0  0  0  0
   36.8630   25.0020   42.1330 C   0  0  0  0  0  0  0  0  0  0  0  0
   37.4990   23.8840   41.6070 C   0  0  0  0  0  0  0  0  0  0  0  0
   38.6530   24.0440   40.9110 N   0  0  0  0  0  0  0  0  0  0  0  0
   39.2120   25.2420   40.7050 C   0  0  0  0  0  0  0  0  0  0  0  0
   38.6380   26.3450   41.1920 N   0  0  0  0  0  0  0  0  0  0  0  0
   35.9500   24.9040   42.6870 H   0  0  0  0  0  0  0  0  0  0  0  0
   37.0740   22.8890   41.7530 H   0  0  0  0  0  0  0  0  0  0  0  0
   40.1320   25.3850   40.1520 H   0  0  0  0  0  0  0  0  0  0  0  0
  1  2  2  0  0  0  0
  4  3  1  0  0  0  0
  5  4  1  0  0  0  0
  5  1  1  0  0  0  0
  6  5  2  0  0  0  0
  7  6  1  0  0  0  0
  8  9  2  0  0  0  0
  8  6  1  0  0  0  0
  9 11  1  0  0  0  0
 10  9  1  0  0  0  0
 11 12  1  0  0  0  0
 11  4  2  0  0  0  0
 13 14  1  0  0  0  0
 13  1  1  0  0  0  0
 14 19  1  0  0  0  0
 15 20  1  0  0  0  0
 15 14  2  0  0  0  0
 16 15  1  0  0  0  0
 17 16  2  0  0  0  0
 17 18  1  0  0  0  0
 18 13  2  0  0  0  0
 21 17  1  0  0  0  0
M  END
>  <minimizedAffinity>
-4.8134923

$$$$

 OpenBabel03242512353D

 21 22  0  0  0  0  0  0  0  0999 V2000
   36.9750   27.7990   42.8360 C   0  0  0  0  0  0  0  0  0  0  0  0
   36.0980   27.4100   43.6790 O   0  0  0  0  0  0  0  0  0  0  0  0
   37.0490   24.9390   42.1690 Cl  0  0  0  0  0  0  0  0  0  0  0  0
   38.4140   25.9450   42.6380 C   0  0  0  0  0  0  0  0  0  0  0  0
   38.3450   27.3030   42.9480 C   0  0  0  0  0  0  0  0  0  0  0  0
   39.4960   27.9760   43.3020 C   0  0  0  0  0  0  0  0  0  0  0  0
   39.3180   29.0180   43.5200 H   0  0  0  0  0  0  0  0  0  0  0  0
   40.6900   27.3000   43.3420 C   0  0  0  0  0  3  0  0  0  0  0  0
   40.7850   25.9560   43.0390 C   0  0  0  0  0  0  0  0  0  0  0  0
   42.3540   25.1610   43.1140 Cl  0  0  0  0  0  0  0  0  0  0  0  0
   39.6350   25.2800   42.6850 C   0  0  0  0  0  0  0  0  0  0  0  0
   39.7540   24.2300   42.4550 H   0  0  0  0  0  0  0  0  0  0  0  0
   36.7190   28.7100   41.7530 C   0  0  0  0  0  0  0  0  0  0  0  0
   36.1990   28.0830   40.5970 C   0  0  0  0  0  0  0  0  0  0  0  0
   35.9330   28.9150   39.5160 C   0  0  0  0  0  0  0  0  0  0  0  0
   36.1790   30.2460   39.6280 N   0  0  0  0  0  0  0  0  0  0  0  0
   36.6720   30.7980   40.7430 C   0  0  0  0  0  0  0  0  0  0  0  0
   36.9440   30.0380   41.8070 N   0  0  0  0  0  0  0  0  0  0  0  0
   36.0150   27.0290   40.5360 H   0  0  0  0  0  0  0  0  0  0  0  0
   35.5300   28.5030   38.5900 H   0  0  0  0  0  0  0  0  0  0  0  0
   36.8730   31.8570   40.8460 H   0  0  0  0  0  0  0  0  0  0  0  0
  1  5  1  0  0  0  0
  1  2  2  0  0  0  0
  3  4  1  0  0  0  0
  4 11  2  0  0  0  0
  4  5  1  0  0  0  0
  5  6  2  0  0  0  0
  6  8  1  0  0  0  0
  6  7  1  0  0  0  0
  9 10  1  0  0  0  0
  9  8  2  0  0  0  0
 11  9  1  0  0  0  0
 12 11  1  0  0  0  0
 13 18  1  0  0  0  0
 13  1  1  0  0  0  0
 14 13  2  0  0  0  0
 15 16  2  0  0  0  0
 15 14  1  0  0  0  0
 16 17  1  0  0  0  0
 17 21  1  0  0  0  0
 17 18  2  0  0  0  0
 19 14  1  0  0  0  0
 20 15  1  0  0  0  0
M  END
>  <minimizedAffinity>
-4.79337215

$$$$

 OpenBabel03242512353D

 21 22  0  0  0  0  0  0  0  0999 V2000
   37.2110   27.3480   42.8140 C   0  0  0  0  0  0  0  0  0  0  0  0
   36.2680   27.3050   43.6740 O   0  0  0  0  0  0  0  0  0  0  0  0
   35.5750   28.6760   40.7680 Cl  0  0  0  0  0  0  0  0  0  0  0  0
   37.0530   29.2940   41.4970 C   0  0  0  0  0  0  0  0  0  0  0  0
   37.8070   28.6370   42.4690 C   0  0  0  0  0  0  0  0  0  0  0  0
   38.9490   29.2350   42.9580 C   0  0  0  0  0  0  0  0  0  0  0  0
   39.4480   28.6330   43.7020 H   0  0  0  0  0  0  0  0  0  0  0  0
   39.3250   30.4670   42.4820 C   0  0  0  0  0  3  0  0  0  0  0  0
   38.5950   31.1380   41.5210 C   0  0  0  0  0  0  0  0  0  0  0  0
   39.1440   32.7150   40.9620 Cl  0  0  0  0  0  0  0  0  0  0  0  0
   37.4520   30.5420   41.0290 C   0  0  0  0  0  0  0  0  0  0  0  0
   36.9100   31.1010   40.2790 H   0  0  0  0  0  0  0  0  0  0  0  0
   37.7510   26.2000   42.1360 C   0  0  0  0  0  0  0  0  0  0  0  0
   36.9160   25.0600   42.2000 C   0  0  0  0  0  0  0  0  0  0  0  0
   37.3880   23.9200   41.5610 C   0  0  0  0  0  0  0  0  0  0  0  0
   38.5890   23.9620   40.9290 N   0  0  0  0  0  0  0  0  0  0  0  0
   39.3470   25.0640   40.8920 C   0  0  0  0  0  0  0  0  0  0  0  0
   38.9360   26.1840   41.4920 N   0  0  0  0  0  0  0  0  0  0  0  0
   35.9720   25.0540   42.7070 H   0  0  0  0  0  0  0  0  0  0  0  0
   36.7990   23.0010   41.5680 H   0  0  0  0  0  0  0  0  0  0  0  0
   40.3060   25.1130   40.3920 H   0  0  0  0  0  0  0  0  0  0  0  0
  1  2  2  0  0  0  0
  3  4  1  0  0  0  0
  4  5  1  0  0  0  0
  5  1  1  0  0  0  0
  5  6  2  0  0  0  0
  6  7  1  0  0  0  0
  8  6  1  0  0  0  0
  9  8  2  0  0  0  0
 10  9  1  0  0  0  0
 11  4  2  0  0  0  0
 11  9  1  0  0  0  0
 12 11  1  0  0  0  0
 13 14  1  0  0  0  0
 13  1  1  0  0  0  0
 14 19  1  0  0  0  0
 15 20  1  0  0  0  0
 15 14  2  0  0  0  0
 16 15  1  0  0  0  0
 17 16  2  0  0  0  0
 17 18  1  0  0  0  0
 18 13  2  0  0  0  0
 21 17  1  0  0  0  0
M  END
>  <minimizedAffinity>
-4.6286602

$$$$

 OpenBabel03242512353D

 21 22  0  0  0  0  0  0  0  0999 V2000
   36.2660   30.1720   40.8830 C   0  0  0  0  0  0  0  0  0  0  0  0
   36.2460   31.4220   41.1460 O   0  0  0  0  0  0  0  0  0  0  0  0
   38.1060   30.4830   38.6150 Cl  0  0  0  0  0  0  0  0  0  0  0  0
   36.4770   29.8220   38.5640 C   0  0  0  0  0  0  0  0  0  0  0  0
   35.6270   29.6870   39.6620 C   0  0  0  0  0  0  0  0  0  0  0  0
   34.3700   29.1490   39.4830 C   0  0  0  0  0  0  0  0  0  0  0  0
   33.8060   29.0970   40.4020 H   0  0  0  0  0  0  0  0  0  0  0  0
   33.9740   28.7560   38.2280 C   0  0  0  0  0  3  0  0  0  0  0  0
   34.7960   28.8780   37.1260 C   0  0  0  0  0  0  0  0  0  0  0  0
   34.2150   28.3500   35.5500 Cl  0  0  0  0  0  0  0  0  0  0  0  0
   36.0550   29.4150   37.3010 C   0  0  0  0  0  0  0  0  0  0  0  0
   36.6670   29.4930   36.4130 H   0  0  0  0  0  0  0  0  0  0  0  0
   36.8850   29.1730   41.7130 C   0  0  0  0  0  0  0  0  0  0  0  0
   38.1150   29.5860   42.2740 C   0  0  0  0  0  0  0  0  0  0  0  0
   38.7590   28.6600   43.0860 C   0  0  0  0  0  0  0  0  0  0  0  0
   38.1880   27.4460   43.2890 N   0  0  0  0  0  0  0  0  0  0  0  0
   37.0190   27.0960   42.7380 C   0  0  0  0  0  0  0  0  0  0  0  0
   36.3640   27.9520   41.9500 N   0  0  0  0  0  0  0  0  0  0  0  0
   38.5450   30.5520   42.0970 H   0  0  0  0  0  0  0  0  0  0  0  0
   39.7130   28.9070   43.5540 H   0  0  0  0  0  0  0  0  0  0  0  0
   36.5510   26.1310   42.8920 H   0  0  0  0  0  0  0  0  0  0  0  0
  1  2  2  0  0  0  0
  1 13  1  0  0  0  0
  4  3  1  0  0  0  0
  4  5  1  0  0  0  0
  5  1  1  0  0  0  0
  6  5  2  0  0  0  0
  6  7  1  0  0  0  0
  8  6  1  0  0  0  0
  9 11  1  0  0  0  0
  9  8  2  0  0  0  0
 10  9  1  0  0  0  0
 11  4  2  0  0  0  0
 12 11  1  0  0  0  0
 13 18  2  0  0  0  0
 13 14  1  0  0  0  0
 14 15  2  0  0  0  0
 15 16  1  0  0  0  0
 15 20  1  0  0  0  0
 17 21  1  0  0  0  0
 17 16  2  0  0  0  0
 18 17  1  0  0  0  0
 19 14  1  0  0  0  0
M  END
>  <minimizedAffinity>
-4.54558706

$$$$

 OpenBabel03242512353D

 21 22  0  0  0  0  0  0  0  0999 V2000
   37.0420   30.2300   41.2820 C   0  0  0  0  0  0  0  0  0  0  0  0
   35.7880   30.2050   41.0410 O   0  0  0  0  0  0  0  0  0  0  0  0
   37.8580   28.2560   39.2660 Cl  0  0  0  0  0  0  0  0  0  0  0  0
   38.0660   28.1260   41.0080 C   0  0  0  0  0  0  0  0  0  0  0  0
   37.6670   29.0840   41.9410 C   0  0  0  0  0  0  0  0  0  0  0  0
   37.8910   28.8570   43.2820 C   0  0  0  0  0  0  0  0  0  0  0  0
   37.5390   29.6650   43.9050 H   0  0  0  0  0  0  0  0  0  0  0  0
   38.5020   27.6930   43.6790 C   0  0  0  0  0  3  0  0  0  0  0  0
   38.9070   26.7300   42.7760 C   0  0  0  0  0  0  0  0  0  0  0  0
   39.6850   25.2640   43.3650 Cl  0  0  0  0  0  0  0  0  0  0  0  0
   38.6850   26.9540   41.4330 C   0  0  0  0  0  0  0  0  0  0  0  0
   39.0170   26.1760   40.7600 H   0  0  0  0  0  0  0  0  0  0  0  0
   37.9180   31.3220   40.9500 C   0  0  0  0  0  0  0  0  0  0  0  0
   37.2870   32.3460   40.2070 C   0  0  0  0  0  0  0  0  0  0  0  0
   38.0850   33.4280   39.8570 C   0  0  0  0  0  0  0  0  0  0  0  0
   39.3880   33.4420   40.2370 N   0  0  0  0  0  0  0  0  0  0  0  0
   39.9450   32.4500   40.9420 C   0  0  0  0  0  0  0  0  0  0  0  0
   39.2180   31.3890   41.3010 N   0  0  0  0  0  0  0  0  0  0  0  0
   36.2550   32.3100   39.9190 H   0  0  0  0  0  0  0  0  0  0  0  0
   37.6680   34.2580   39.2830 H   0  0  0  0  0  0  0  0  0  0  0  0
   40.9830   32.4470   41.2530 H   0  0  0  0  0  0  0  0  0  0  0  0
  1  5  1  0  0  0  0
  2  1  2  0  0  0  0
  3  4  1  0  0  0  0
  4 11  2  0  0  0  0
  4  5  1  0  0  0  0
  5  6  2  0  0  0  0
  6  8  1  0  0  0  0
  6  7  1  0  0  0  0
  9 10  1  0  0  0  0
  9  8  2  0  0  0  0
 11  9  1  0  0  0  0
 12 11  1  0  0  0  0
 13  1  1  0  0  0  0
 13 18  1  0  0  0  0
 14 13  2  0  0  0  0
 15 14  1  0  0  0  0
 15 16  2  0  0  0  0
 16 17  1  0  0  0  0
 17 21  1  0  0  0  0
 17 18  2  0  0  0  0
 19 14  1  0  0  0  0
 20 15  1  0  0  0  0
M  END
>  <minimizedAffinity>
-4.53725243

$$$$

 OpenBabel03242512353D

 21 22  0  0  0  0  0  0  0  0999 V2000
   39.1790   30.3310   42.2120 C   0  0  0  0  0  0  0  0  0  0  0  0
   40.2520   30.5570   42.8680 O   0  0  0  0  0  0  0  0  0  0  0  0
   40.2580   28.4090   40.2710 Cl  0  0  0  0  0  0  0  0  0  0  0  0
   38.9930   28.1080   41.4560 C   0  0  0  0  0  0  0  0  0  0  0  0
   38.5030   29.0440   42.3670 C   0  0  0  0  0  0  0  0  0  0  0  0
   37.5070   28.6750   43.2460 C   0  0  0  0  0  0  0  0  0  0  0  0
   37.2100   29.4820   43.8990 H   0  0  0  0  0  0  0  0  0  0  0  0
   37.0140   27.3940   43.2120 C   0  0  0  0  0  3  0  0  0  0  0  0
   37.4830   26.4490   42.3220 C   0  0  0  0  0  0  0  0  0  0  0  0
   36.7990   24.8270   42.3420 Cl  0  0  0  0  0  0  0  0  0  0  0  0
   38.4800   26.8140   41.4400 C   0  0  0  0  0  0  0  0  0  0  0  0
   38.8180   26.0450   40.7600 H   0  0  0  0  0  0  0  0  0  0  0  0
   38.5620   31.2630   41.3070 C   0  0  0  0  0  0  0  0  0  0  0  0
   39.2750   32.4770   41.1730 C   0  0  0  0  0  0  0  0  0  0  0  0
   38.7250   33.4170   40.3100 C   0  0  0  0  0  0  0  0  0  0  0  0
   37.5680   33.1270   39.6630 N   0  0  0  0  0  0  0  0  0  0  0  0
   36.9250   31.9640   39.8190 C   0  0  0  0  0  0  0  0  0  0  0  0
   37.4150   31.0290   40.6380 N   0  0  0  0  0  0  0  0  0  0  0  0
   40.1880   32.6810   41.6970 H   0  0  0  0  0  0  0  0  0  0  0  0
   39.2190   34.3780   40.1550 H   0  0  0  0  0  0  0  0  0  0  0  0
   36.0020   31.7180   39.3100 H   0  0  0  0  0  0  0  0  0  0  0  0
  1  5  1  0  0  0  0
  1  2  2  0  0  0  0
  3  4  1  0  0  0  0
  4  5  1  0  0  0  0
  5  6  2  0  0  0  0
  6  7  1  0  0  0  0
  8  6  1  0  0  0  0
  9 10  1  0  0  0  0
  9  8  2  0  0  0  0
 11  4  2  0  0  0  0
 11  9  1  0  0  0  0
 12 11  1  0  0  0  0
 13  1  1  0  0  0  0
 14 13  1  0  0  0  0
 14 19  1  0  0  0  0
 15 14  2  0  0  0  0
 16 17  2  0  0  0  0
 16 15  1  0  0  0  0
 17 18  1  0  0  0  0
 18 13  2  0  0  0  0
 20 15  1  0  0  0  0
 21 17  1  0  0  0  0
M  END
>  <minimizedAffinity>
-4.52187777

$$$$

 OpenBabel03242512353D

 21 22  0  0  0  0  0  0  0  0999 V2000
   39.2930   32.1980   40.6200 C   0  0  0  0  0  0  0  0  0  0  0  0
   39.0500   33.3880   41.0140 O   0  0  0  0  0  0  0  0  0  0  0  0
   36.6110   31.4700   39.6680 Cl  0  0  0  0  0  0  0  0  0  0  0  0
   37.5110   30.6980   40.9690 C   0  0  0  0  0  0  0  0  0  0  0  0
   38.7860   31.0680   41.3970 C   0  0  0  0  0  0  0  0  0  0  0  0
   39.3800   30.3760   42.4310 C   0  0  0  0  0  0  0  0  0  0  0  0
   40.3620   30.7540   42.6730 H   0  0  0  0  0  0  0  0  0  0  0  0
   38.7080   29.3350   43.0230 C   0  0  0  0  0  3  0  0  0  0  0  0
   37.4460   28.9490   42.6170 C   0  0  0  0  0  0  0  0  0  0  0  0
   36.6520   27.6030   43.4270 Cl  0  0  0  0  0  0  0  0  0  0  0  0
   36.8490   29.6390   41.5820 C   0  0  0  0  0  0  0  0  0  0  0  0
   35.8610   29.3040   41.2960 H   0  0  0  0  0  0  0  0  0  0  0  0
   40.0460   31.8650   39.4400 C   0  0  0  0  0  0  0  0  0  0  0  0
   40.5500   32.9950   38.7540 C   0  0  0  0  0  0  0  0  0  0  0  0
   41.2870   32.7340   37.6050 C   0  0  0  0  0  0  0  0  0  0  0  0
   41.4770   31.4470   37.2170 N   0  0  0  0  0  0  0  0  0  0  0  0
   40.9830   30.4070   37.8980 C   0  0  0  0  0  0  0  0  0  0  0  0
   40.2680   30.6080   39.0080 N   0  0  0  0  0  0  0  0  0  0  0  0
   40.3850   34.0020   39.0830 H   0  0  0  0  0  0  0  0  0  0  0  0
   41.7080   33.5560   37.0230 H   0  0  0  0  0  0  0  0  0  0  0  0
   41.1260   29.3750   37.6000 H   0  0  0  0  0  0  0  0  0  0  0  0
  1  2  2  0  0  0  0
  1  5  1  0  0  0  0
  3  4  1  0  0  0  0
  4  5  2  0  0  0  0
  4 11  1  0  0  0  0
  5  6  1  0  0  0  0
  6  7  1  0  0  0  0
  6  8  2  0  0  0  0
  9  8  1  0  0  0  0
  9 10  1  0  0  0  0
 11  9  2  0  0  0  0
 12 11  1  0  0  0  0
 13  1  1  0  0  0  0
 14 19  1  0  0  0  0
 14 13  2  0  0  0  0
 15 14  1  0  0  0  0
 16 15  2  0  0  0  0
 16 17  1  0  0  0  0
 17 18  2  0  0  0  0
 18 13  1  0  0  0  0
 20 15  1  0  0  0  0
 21 17  1  0  0  0  0
M  END
>  <minimizedAffinity>
-4.48210669

$$$$

 OpenBabel03242512353D

 21 22  0  0  0  0  0  0  0  0999 V2000
   37.9040   27.5950   42.5430 C   0  0  0  0  0  0  0  0  0  0  0  0
   38.5540   27.8440   43.6140 O   0  0  0  0  0  0  0  0  0  0  0  0
   40.2440   27.2000   40.8130 Cl  0  0  0  0  0  0  0  0  0  0  0  0
   38.9970   26.0150   41.1810 C   0  0  0  0  0  0  0  0  0  0  0  0
   37.8960   26.2350   42.0090 C   0  0  0  0  0  0  0  0  0  0  0  0
   36.9900   25.2160   42.2150 C   0  0  0  0  0  0  0  0  0  0  0  0
   36.1830   25.5040   42.8710 H   0  0  0  0  0  0  0  0  0  0  0  0
   37.1850   24.0020   41.6020 C   0  0  0  0  0  3  0  0  0  0  0  0
   38.2660   23.7600   40.7790 C   0  0  0  0  0  0  0  0  0  0  0  0
   38.4460   22.1760   40.0310 Cl  0  0  0  0  0  0  0  0  0  0  0  0
   39.1750   24.7770   40.5710 C   0  0  0  0  0  0  0  0  0  0  0  0
   40.0070   24.5450   39.9210 H   0  0  0  0  0  0  0  0  0  0  0  0
   37.1570   28.5710   41.7960 C   0  0  0  0  0  0  0  0  0  0  0  0
   37.7690   29.8450   41.7580 C   0  0  0  0  0  0  0  0  0  0  0  0
   37.0910   30.8290   41.0490 C   0  0  0  0  0  0  0  0  0  0  0  0
   35.9130   30.5220   40.4490 N   0  0  0  0  0  0  0  0  0  0  0  0
   35.3690   29.3010   40.5090 C   0  0  0  0  0  0  0  0  0  0  0  0
   35.9840   28.3230   41.1790 N   0  0  0  0  0  0  0  0  0  0  0  0
   38.7010   30.0610   42.2420 H   0  0  0  0  0  0  0  0  0  0  0  0
   37.5020   31.8380   40.9760 H   0  0  0  0  0  0  0  0  0  0  0  0
   34.4300   29.0410   40.0350 H   0  0  0  0  0  0  0  0  0  0  0  0
  1  2  2  0  0  0  0
  3  4  1  0  0  0  0
  4  5  1  0  0  0  0
  5  6  2  0  0  0  0
  5  1  1  0  0  0  0
  6  7  1  0  0  0  0
  8  6  1  0  0  0  0
  9  8  2  0  0  0  0
 10  9  1  0  0  0  0
 11  9  1  0  0  0  0
 11  4  2  0  0  0  0
 12 11  1  0  0  0  0
 13  1  1  0  0  0  0
 14 13  1  0  0  0  0
 14 19  1  0  0  0  0
 15 14  2  0  0  0  0
 16 17  2  0  0  0  0
 16 15  1  0  0  0  0
 17 18  1  0  0  0  0
 18 13  2  0  0  0  0
 20 15  1  0  0  0  0
 21 17  1  0  0  0  0
M  END
>  <minimizedAffinity>
-4.39962435

$$$$
