
 OpenBabel03252506053D

 44 48  0  0  0  0  0  0  0  0999 V2000
   44.7830   35.9800   43.2700 Cl  0  0  0  0  0  0  0  0  0  0  0  0
   45.5340   34.7410   44.2240 C   0  0  0  0  0  0  0  0  0  0  0  0
   46.6280   34.0520   43.7310 C   0  0  0  0  0  0  0  0  0  0  0  0
   47.1460   33.0850   44.5770 C   0  0  0  0  0  0  0  0  0  0  0  0
   46.6660   32.7770   45.8260 C   0  0  0  0  0  0  0  0  0  0  0  0
   45.5800   33.4830   46.2780 C   0  0  0  0  0  0  0  0  0  0  0  0
   44.9880   33.0700   47.8730 Cl  0  0  0  0  0  0  0  0  0  0  0  0
   45.0190   34.4520   45.4920 C   0  0  0  0  0  0  0  0  0  0  0  0
   48.0130   32.5490   44.1720 H   0  0  0  0  0  0  0  0  0  0  0  0
   44.1640   35.0020   45.8590 H   0  0  0  0  0  0  0  0  0  0  0  0
   47.3550   31.7240   46.5580 C   0  0  0  0  0  0  0  0  0  0  0  0
   47.4690   30.4280   46.0800 C   0  0  0  0  0  0  0  0  0  0  0  0
   48.1150   29.4100   46.7490 C   0  0  0  0  0  0  0  0  0  0  0  0
   48.6910   29.6760   47.9710 C   0  0  0  0  0  0  0  0  0  0  0  0
   49.3160   28.6750   48.6100 N   0  0  0  0  0  0  0  0  0  0  0  0
   49.9100   28.8530   49.8200 C   0  0  0  0  0  0  0  0  0  0  0  0
   49.8380   30.1210   50.3610 C   0  0  0  0  0  0  0  0  0  0  0  0
   49.1980   31.1440   49.7090 C   0  0  0  0  0  0  0  0  0  0  0  0
   48.6010   30.9430   48.4780 C   0  0  0  0  0  0  0  0  0  0  0  0
   47.9490   31.9520   47.7930 C   0  0  0  0  0  0  0  0  0  0  0  0
   47.0160   30.1990   45.1080 H   0  0  0  0  0  0  0  0  0  0  0  0
   48.1730   28.4110   46.3220 H   0  0  0  0  0  0  0  0  0  0  0  0
   50.3950   28.0010   50.2760 H   0  0  0  0  0  0  0  0  0  0  0  0
   50.3130   30.2700   51.3340 H   0  0  0  0  0  0  0  0  0  0  0  0
   49.1620   32.1170   50.1590 H   0  0  0  0  0  0  0  0  0  0  0  0
   47.9000   32.9330   48.2270 H   0  0  0  0  0  0  0  0  0  0  0  0
   48.7620   35.4290   41.1270 C   0  0  0  0  0  0  0  0  0  0  0  0
   48.2610   34.8430   39.9560 C   0  0  0  0  0  0  0  0  0  0  0  0
   47.1690   33.9580   40.0680 C   0  0  0  0  0  0  0  0  0  0  0  0
   46.7020   33.7560   41.3140 N   0  0  0  0  0  0  0  0  0  0  0  0
   47.1920   34.3240   42.4200 C   0  0  0  0  0  0  0  0  0  0  0  0
   48.2260   35.1640   42.3370 N   0  0  0  0  0  0  0  0  0  0  0  0
   49.5930   36.0980   41.0080 H   0  0  0  0  0  0  0  0  0  0  0  0
   48.6880   35.0560   39.0080 H   0  0  0  0  0  0  0  0  0  0  0  0
   48.5540   34.6120   37.5550 Cl  0  0  0  0  0  0  0  0  0  0  0  0
   47.1560   33.5420   37.6780 C   0  0  0  0  0  0  0  0  0  0  0  0
   46.5820   33.3030   38.9090 C   0  0  0  0  0  0  0  0  0  0  0  0
   45.5040   32.4700   38.9520 C   0  0  0  0  0  0  0  0  0  0  0  0
   45.0280   32.2580   39.8980 H   0  0  0  0  0  0  0  0  0  0  0  0
   45.0180   31.8900   37.7750 C   0  0  0  0  0  0  0  0  0  0  0  0
   45.6140   32.1500   36.5680 C   0  0  0  0  0  0  0  0  0  0  0  0
   44.9950   31.4160   35.0940 Cl  0  0  0  0  0  0  0  0  0  0  0  0
   46.7050   32.9900   36.5060 C   0  0  0  0  0  0  0  0  0  0  0  0
   47.1710   33.1930   35.5570 H   0  0  0  0  0  0  0  0  0  0  0  0
  1  2  1  0  0  0  0
  2  8  1  0  0  0  0
  3  2  2  0  0  0  0
  3  4  1  0  0  0  0
  4  5  2  0  0  0  0
  5  6  1  0  0  0  0
  5 11  1  0  0  0  0
  6  7  1  0  0  0  0
  8 10  1  0  0  0  0
  8  6  2  0  0  0  0
  9  4  1  0  0  0  0
 11 20  1  0  0  0  0
 12 11  2  0  0  0  0
 12 13  1  0  0  0  0
 13 14  2  0  0  0  0
 14 19  1  0  0  0  0
 14 15  1  0  0  0  0
 15 16  2  0  0  0  0
 16 23  1  0  0  0  0
 16 17  1  0  0  0  0
 17 24  1  0  0  0  0
 18 25  1  0  0  0  0
 18 17  2  0  0  0  0
 19 18  1  0  0  0  0
 20 26  1  0  0  0  0
 20 19  2  0  0  0  0
 21 12  1  0  0  0  0
 22 13  1  0  0  0  0
 27 32  1  0  0  0  0
 28 29  1  0  0  0  0
 28 27  2  0  0  0  0
 29 30  2  0  0  0  0
 30 31  1  0  0  0  0
 31  3  1  0  0  0  0
 32 31  2  0  0  0  0
 33 27  1  0  0  0  0
 34 28  1  0  0  0  0
 35 36  1  0  0  0  0
 36 37  1  0  0  0  0
 37 38  2  0  0  0  0
 37 29  1  0  0  0  0
 38 39  1  0  0  0  0
 40 38  1  0  0  0  0
 41 40  2  0  0  0  0
 42 41  1  0  0  0  0
 43 41  1  0  0  0  0
 43 36  2  0  0  0  0
 44 43  1  0  0  0  0
M  END
>  <minimizedAffinity>
-7.80062723

>  <minimizedRMSD>
0.0374822579

$$$$
