
 OpenBabel03252500523D

 36 38  0  0  0  0  0  0  0  0999 V2000
   37.6540   32.7710   40.0600 C   0  0  0  0  0  0  0  0  0  0  0  0
   37.0180   33.3400   39.1520 O   0  0  0  0  0  0  0  0  0  0  0  0
   39.9870   32.3060   40.6570 C   0  0  0  0  0  0  0  0  0  0  0  0
   39.0110   33.2220   40.3480 C   0  0  0  0  0  0  0  0  0  0  0  0
   39.3030   34.5970   40.3000 C   0  0  0  0  0  0  0  0  0  0  0  0
   40.5900   34.9900   40.5730 N   0  0  0  0  0  0  0  0  0  0  0  0
   41.5270   34.0730   40.8730 C   0  0  0  0  0  0  0  0  0  0  0  0
   41.2260   32.7550   40.9130 N   0  0  0  0  0  0  0  0  0  0  0  0
   39.7800   31.2620   40.6970 H   0  0  0  0  0  0  0  0  0  0  0  0
   38.5370   35.3200   40.0570 H   0  0  0  0  0  0  0  0  0  0  0  0
   42.8880   34.4980   41.1600 C   0  0  0  0  0  0  0  0  0  0  0  0
   43.9620   34.0620   40.4590 C   0  0  0  0  0  0  0  0  0  0  0  0
   45.2450   34.4470   40.7110 C   0  0  0  0  0  0  0  0  0  0  0  0
   45.4230   35.3240   41.7350 N   0  0  0  0  0  0  0  0  0  0  0  0
   44.3740   35.7550   42.4250 C   0  0  0  0  0  0  0  0  0  0  0  0
   43.1040   35.3830   42.1880 N   0  0  0  0  0  0  0  0  0  0  0  0
   43.7240   33.3600   39.6560 H   0  0  0  0  0  0  0  0  0  0  0  0
   46.0550   34.0510   40.1020 H   0  0  0  0  0  0  0  0  0  0  0  0
   44.4540   36.4580   43.2560 H   0  0  0  0  0  0  0  0  0  0  0  0
   36.8660   31.7920   40.6020 O   0  0  0  0  0  0  0  0  0  0  0  0
   36.5980   30.5980   39.9680 C   0  0  0  0  0  0  0  0  0  0  0  0
   37.3710   30.1320   39.3630 H   0  0  0  0  0  0  0  0  0  0  0  0
   35.7890   30.8490   39.2130 H   0  0  0  0  0  0  0  0  0  0  0  0
   35.9130   29.5780   40.8680 C   0  0  0  0  0  0  0  0  0  0  0  0
   35.2500   30.1620   41.5440 H   0  0  0  0  0  0  0  0  0  0  0  0
   35.2360   28.9310   40.2580 H   0  0  0  0  0  0  0  0  0  0  0  0
   36.3390   26.9070   39.7020 Cl  0  0  0  0  0  0  0  0  0  0  0  0
   37.1150   27.5040   41.1470 C   0  0  0  0  0  0  0  0  0  0  0  0
   36.8710   28.7780   41.6480 C   0  0  0  0  0  0  0  0  0  0  0  0
   37.5200   29.1860   42.7970 C   0  0  0  0  0  0  0  0  0  0  0  0
   37.3130   30.1640   43.1530 H   0  0  0  0  0  0  0  0  0  0  0  0
   38.3870   28.3110   43.4040 C   0  0  0  0  0  3  0  0  0  0  0  0
   38.6710   27.0210   42.9490 C   0  0  0  0  0  0  0  0  0  0  0  0
   39.7890   25.9620   43.7770 Cl  0  0  0  0  0  0  0  0  0  0  0  0
   37.9980   26.6560   41.7940 C   0  0  0  0  0  0  0  0  0  0  0  0
   38.1820   25.6520   41.3880 H   0  0  0  0  0  0  0  0  0  0  0  0
  1  4  1  0  0  0  0
  1 20  1  0  0  0  0
  2  1  2  0  0  0  0
  3  9  1  0  0  0  0
  3  8  1  0  0  0  0
  4  3  2  0  0  0  0
  5  4  1  0  0  0  0
  5  6  2  0  0  0  0
  6  7  1  0  0  0  0
  7  8  2  0  0  0  0
  7 11  1  0  0  0  0
 10  5  1  0  0  0  0
 11 16  1  0  0  0  0
 12 13  1  0  0  0  0
 12 11  2  0  0  0  0
 13 14  2  0  0  0  0
 14 15  1  0  0  0  0
 15 19  1  0  0  0  0
 16 15  2  0  0  0  0
 17 12  1  0  0  0  0
 18 13  1  0  0  0  0
 21 20  1  0  0  0  0
 21 24  1  0  0  0  0
 22 21  1  0  0  0  0
 23 21  1  0  0  0  0
 24 25  1  0  0  0  0
 24 29  1  0  0  0  0
 26 24  1  0  0  0  0
 27 28  1  0  0  0  0
 28 29  2  0  0  0  0
 28 35  1  0  0  0  0
 29 30  1  0  0  0  0
 30 31  1  0  0  0  0
 30 32  2  0  0  0  0
 33 32  1  0  0  0  0
 33 34  1  0  0  0  0
 35 33  2  0  0  0  0
 36 35  1  0  0  0  0
M  END
>  <minimizedAffinity>
-6.01747751

$$$$

 OpenBabel03252500523D

 36 38  0  0  0  0  0  0  0  0999 V2000
   35.5960   29.0700   39.5720 C   0  0  0  0  0  0  0  0  0  0  0  0
   34.3630   29.2540   39.6190 O   0  0  0  0  0  0  0  0  0  0  0  0
   36.6280   30.9460   40.7680 C   0  0  0  0  0  0  0  0  0  0  0  0
   36.4740   30.2350   39.6030 C   0  0  0  0  0  0  0  0  0  0  0  0
   37.1580   30.6110   38.4330 C   0  0  0  0  0  0  0  0  0  0  0  0
   37.9800   31.7090   38.4950 N   0  0  0  0  0  0  0  0  0  0  0  0
   38.1130   32.3890   39.6470 C   0  0  0  0  0  0  0  0  0  0  0  0
   37.4470   32.0100   40.7620 N   0  0  0  0  0  0  0  0  0  0  0  0
   36.1170   30.6720   41.6610 H   0  0  0  0  0  0  0  0  0  0  0  0
   37.0390   30.0530   37.5150 H   0  0  0  0  0  0  0  0  0  0  0  0
   38.9860   33.5500   39.7050 C   0  0  0  0  0  0  0  0  0  0  0  0
   38.5980   34.7440   40.2120 C   0  0  0  0  0  0  0  0  0  0  0  0
   39.4000   35.8440   40.2760 C   0  0  0  0  0  0  0  0  0  0  0  0
   40.6630   35.7000   39.7910 N   0  0  0  0  0  0  0  0  0  0  0  0
   41.0500   34.5320   39.2920 C   0  0  0  0  0  0  0  0  0  0  0  0
   40.2690   33.4400   39.2240 N   0  0  0  0  0  0  0  0  0  0  0  0
   37.5690   34.7670   40.5780 H   0  0  0  0  0  0  0  0  0  0  0  0
   39.0140   36.7680   40.6980 H   0  0  0  0  0  0  0  0  0  0  0  0
   42.0480   34.3570   38.8900 H   0  0  0  0  0  0  0  0  0  0  0  0
   35.8380   27.7260   39.4940 O   0  0  0  0  0  0  0  0  0  0  0  0
   36.9440   27.1220   40.0520 C   0  0  0  0  0  0  0  0  0  0  0  0
   37.9330   27.5140   39.8290 H   0  0  0  0  0  0  0  0  0  0  0  0
   36.9640   26.0830   39.5980 H   0  0  0  0  0  0  0  0  0  0  0  0
   36.7880   26.8350   41.5400 C   0  0  0  0  0  0  0  0  0  0  0  0
   36.0850   27.6030   41.9290 H   0  0  0  0  0  0  0  0  0  0  0  0
   36.2760   25.8510   41.6820 H   0  0  0  0  0  0  0  0  0  0  0  0
   37.7660   24.1550   42.2770 Cl  0  0  0  0  0  0  0  0  0  0  0  0
   38.5830   25.6550   42.6400 C   0  0  0  0  0  0  0  0  0  0  0  0
   38.0680   26.8900   42.2640 C   0  0  0  0  0  0  0  0  0  0  0  0
   38.7680   28.0380   42.5840 C   0  0  0  0  0  0  0  0  0  0  0  0
   38.3480   28.9650   42.2820 H   0  0  0  0  0  0  0  0  0  0  0  0
   39.9520   27.9130   43.2660 C   0  0  0  0  0  3  0  0  0  0  0  0
   40.5190   26.7010   43.6710 C   0  0  0  0  0  0  0  0  0  0  0  0
   42.0350   26.6210   44.5380 Cl  0  0  0  0  0  0  0  0  0  0  0  0
   39.7820   25.5780   43.3280 C   0  0  0  0  0  0  0  0  0  0  0  0
   40.1790   24.5960   43.6200 H   0  0  0  0  0  0  0  0  0  0  0  0
  1  4  1  0  0  0  0
  1  2  2  0  0  0  0
  3  9  1  0  0  0  0
  4  3  2  0  0  0  0
  5  6  2  0  0  0  0
  5  4  1  0  0  0  0
  6  7  1  0  0  0  0
  7 11  1  0  0  0  0
  7  8  2  0  0  0  0
  8  3  1  0  0  0  0
 10  5  1  0  0  0  0
 11 12  1  0  0  0  0
 12 13  2  0  0  0  0
 12 17  1  0  0  0  0
 13 18  1  0  0  0  0
 14 13  1  0  0  0  0
 15 14  2  0  0  0  0
 16 15  1  0  0  0  0
 16 11  2  0  0  0  0
 19 15  1  0  0  0  0
 20  1  1  0  0  0  0
 20 21  1  0  0  0  0
 21 24  1  0  0  0  0
 22 21  1  0  0  0  0
 23 21  1  0  0  0  0
 24 26  1  0  0  0  0
 24 25  1  0  0  0  0
 24 29  1  0  0  0  0
 27 28  1  0  0  0  0
 28 35  1  0  0  0  0
 29 30  1  0  0  0  0
 29 28  2  0  0  0  0
 30 32  2  0  0  0  0
 31 30  1  0  0  0  0
 32 33  1  0  0  0  0
 33 34  1  0  0  0  0
 35 36  1  0  0  0  0
 35 33  2  0  0  0  0
M  END
>  <minimizedAffinity>
-5.97655487

$$$$

 OpenBabel03252500523D

 36 38  0  0  0  0  0  0  0  0999 V2000
   37.6390   32.2610   39.8860 C   0  0  0  0  0  0  0  0  0  0  0  0
   37.2640   32.1740   38.7010 O   0  0  0  0  0  0  0  0  0  0  0  0
   39.2210   34.0980   40.2600 C   0  0  0  0  0  0  0  0  0  0  0  0
   38.9880   32.7490   40.1550 C   0  0  0  0  0  0  0  0  0  0  0  0
   40.0350   31.8220   40.3070 C   0  0  0  0  0  0  0  0  0  0  0  0
   41.2920   32.3110   40.5630 N   0  0  0  0  0  0  0  0  0  0  0  0
   41.4950   33.6370   40.6610 C   0  0  0  0  0  0  0  0  0  0  0  0
   40.4730   34.5110   40.5110 N   0  0  0  0  0  0  0  0  0  0  0  0
   38.4370   34.8100   40.1470 H   0  0  0  0  0  0  0  0  0  0  0  0
   39.8540   30.7600   40.2260 H   0  0  0  0  0  0  0  0  0  0  0  0
   42.8290   34.1470   40.9320 C   0  0  0  0  0  0  0  0  0  0  0  0
   43.1010   35.0070   41.9420 C   0  0  0  0  0  0  0  0  0  0  0  0
   44.3430   35.4960   42.2140 C   0  0  0  0  0  0  0  0  0  0  0  0
   45.3510   35.0740   41.4030 N   0  0  0  0  0  0  0  0  0  0  0  0
   45.0900   34.2310   40.4110 C   0  0  0  0  0  0  0  0  0  0  0  0
   43.8690   33.7420   40.1320 N   0  0  0  0  0  0  0  0  0  0  0  0
   42.2330   35.2910   42.5420 H   0  0  0  0  0  0  0  0  0  0  0  0
   44.4810   36.1850   43.0440 H   0  0  0  0  0  0  0  0  0  0  0  0
   45.8550   33.8580   39.7290 H   0  0  0  0  0  0  0  0  0  0  0  0
   36.6210   31.8470   40.7020 O   0  0  0  0  0  0  0  0  0  0  0  0
   36.2140   30.5350   40.7990 C   0  0  0  0  0  0  0  0  0  0  0  0
   36.0430   29.9630   39.8910 H   0  0  0  0  0  0  0  0  0  0  0  0
   35.1850   30.5870   41.2750 H   0  0  0  0  0  0  0  0  0  0  0  0
   37.0130   29.7290   41.8150 C   0  0  0  0  0  0  0  0  0  0  0  0
   38.0460   30.1370   41.7860 H   0  0  0  0  0  0  0  0  0  0  0  0
   36.6310   29.9370   42.8450 H   0  0  0  0  0  0  0  0  0  0  0  0
   37.1040   28.0880   44.2610 Cl  0  0  0  0  0  0  0  0  0  0  0  0
   37.0580   27.4590   42.6330 C   0  0  0  0  0  0  0  0  0  0  0  0
   37.0160   28.2880   41.5180 C   0  0  0  0  0  0  0  0  0  0  0  0
   36.9810   27.7210   40.2580 C   0  0  0  0  0  0  0  0  0  0  0  0
   36.9480   28.3810   39.4270 H   0  0  0  0  0  0  0  0  0  0  0  0
   36.9900   26.3530   40.1560 C   0  0  0  0  0  3  0  0  0  0  0  0
   37.0320   25.4690   41.2380 C   0  0  0  0  0  0  0  0  0  0  0  0
   37.0400   23.7340   41.0300 Cl  0  0  0  0  0  0  0  0  0  0  0  0
   37.0660   26.0830   42.4810 C   0  0  0  0  0  0  0  0  0  0  0  0
   37.1000   25.4380   43.3700 H   0  0  0  0  0  0  0  0  0  0  0  0
  1  4  1  0  0  0  0
  1 20  1  0  0  0  0
  2  1  2  0  0  0  0
  3  8  1  0  0  0  0
  4  3  2  0  0  0  0
  4  5  1  0  0  0  0
  5  6  2  0  0  0  0
  6  7  1  0  0  0  0
  7 11  1  0  0  0  0
  8  7  2  0  0  0  0
  9  3  1  0  0  0  0
 10  5  1  0  0  0  0
 11 12  1  0  0  0  0
 12 13  2  0  0  0  0
 12 17  1  0  0  0  0
 13 18  1  0  0  0  0
 14 13  1  0  0  0  0
 15 14  2  0  0  0  0
 16 15  1  0  0  0  0
 16 11  2  0  0  0  0
 19 15  1  0  0  0  0
 20 21  1  0  0  0  0
 21 23  1  0  0  0  0
 21 24  1  0  0  0  0
 22 21  1  0  0  0  0
 24 26  1  0  0  0  0
 25 24  1  0  0  0  0
 28 27  1  0  0  0  0
 29 24  1  0  0  0  0
 29 28  2  0  0  0  0
 30 29  1  0  0  0  0
 31 30  1  0  0  0  0
 32 30  2  0  0  0  0
 32 33  1  0  0  0  0
 33 35  2  0  0  0  0
 34 33  1  0  0  0  0
 35 28  1  0  0  0  0
 35 36  1  0  0  0  0
M  END
>  <minimizedAffinity>
-5.90183687

$$$$

 OpenBabel03252500523D

 36 38  0  0  0  0  0  0  0  0999 V2000
   37.0890   28.7770   42.3450 C   0  0  0  0  0  0  0  0  0  0  0  0
   36.9490   28.6090   43.5730 O   0  0  0  0  0  0  0  0  0  0  0  0
   37.0320   30.8730   41.0730 C   0  0  0  0  0  0  0  0  0  0  0  0
   37.7260   30.0040   41.8790 C   0  0  0  0  0  0  0  0  0  0  0  0
   39.0490   30.2810   42.2660 C   0  0  0  0  0  0  0  0  0  0  0  0
   39.6210   31.4440   41.8140 N   0  0  0  0  0  0  0  0  0  0  0  0
   38.9200   32.2790   41.0260 C   0  0  0  0  0  0  0  0  0  0  0  0
   37.6480   31.9940   40.6650 N   0  0  0  0  0  0  0  0  0  0  0  0
   36.0300   30.6760   40.7720 H   0  0  0  0  0  0  0  0  0  0  0  0
   39.5980   29.5990   42.9000 H   0  0  0  0  0  0  0  0  0  0  0  0
   39.5320   33.5100   40.5510 C   0  0  0  0  0  0  0  0  0  0  0  0
   38.8630   34.6840   40.4680 C   0  0  0  0  0  0  0  0  0  0  0  0
   39.4170   35.8490   40.0270 C   0  0  0  0  0  0  0  0  0  0  0  0
   40.7250   35.7940   39.6550 N   0  0  0  0  0  0  0  0  0  0  0  0
   41.3860   34.6450   39.7350 C   0  0  0  0  0  0  0  0  0  0  0  0
   40.8510   33.4900   40.1680 N   0  0  0  0  0  0  0  0  0  0  0  0
   37.8190   34.6350   40.7860 H   0  0  0  0  0  0  0  0  0  0  0  0
   38.8130   36.7520   39.9880 H   0  0  0  0  0  0  0  0  0  0  0  0
   42.4340   34.5390   39.4520 H   0  0  0  0  0  0  0  0  0  0  0  0
   36.5720   27.6920   41.6900 O   0  0  0  0  0  0  0  0  0  0  0  0
   37.3510   26.6900   41.1540 C   0  0  0  0  0  0  0  0  0  0  0  0
   38.2050   26.9530   40.5360 H   0  0  0  0  0  0  0  0  0  0  0  0
   36.6630   26.1460   40.4330 H   0  0  0  0  0  0  0  0  0  0  0  0
   37.7100   25.6030   42.1580 C   0  0  0  0  0  0  0  0  0  0  0  0
   37.0160   25.7360   43.0160 H   0  0  0  0  0  0  0  0  0  0  0  0
   37.4760   24.5980   41.7270 H   0  0  0  0  0  0  0  0  0  0  0  0
   39.5440   24.1550   40.3630 Cl  0  0  0  0  0  0  0  0  0  0  0  0
   40.0250   25.0240   41.7990 C   0  0  0  0  0  0  0  0  0  0  0  0
   39.1100   25.6880   42.6070 C   0  0  0  0  0  0  0  0  0  0  0  0
   39.5610   26.3560   43.7290 C   0  0  0  0  0  0  0  0  0  0  0  0
   38.8370   26.8540   44.3240 H   0  0  0  0  0  0  0  0  0  0  0  0
   40.9060   26.3360   44.0050 C   0  0  0  0  0  3  0  0  0  0  0  0
   41.8720   25.6860   43.2320 C   0  0  0  0  0  0  0  0  0  0  0  0
   43.5700   25.7060   43.6480 Cl  0  0  0  0  0  0  0  0  0  0  0  0
   41.3730   25.0310   42.1170 C   0  0  0  0  0  0  0  0  0  0  0  0
   42.0870   24.5010   41.4710 H   0  0  0  0  0  0  0  0  0  0  0  0
  1  2  2  0  0  0  0
  3  4  1  0  0  0  0
  4  5  2  0  0  0  0
  4  1  1  0  0  0  0
  5 10  1  0  0  0  0
  6  5  1  0  0  0  0
  7  6  2  0  0  0  0
  8  7  1  0  0  0  0
  8  3  2  0  0  0  0
  9  3  1  0  0  0  0
 11  7  1  0  0  0  0
 12 11  1  0  0  0  0
 12 17  1  0  0  0  0
 13 12  2  0  0  0  0
 14 15  2  0  0  0  0
 14 13  1  0  0  0  0
 15 16  1  0  0  0  0
 16 11  2  0  0  0  0
 18 13  1  0  0  0  0
 19 15  1  0  0  0  0
 20  1  1  0  0  0  0
 21 20  1  0  0  0  0
 21 24  1  0  0  0  0
 22 21  1  0  0  0  0
 23 21  1  0  0  0  0
 24 29  1  0  0  0  0
 24 25  1  0  0  0  0
 26 24  1  0  0  0  0
 27 28  1  0  0  0  0
 28 35  2  0  0  0  0
 28 29  1  0  0  0  0
 29 30  2  0  0  0  0
 30 32  1  0  0  0  0
 30 31  1  0  0  0  0
 33 34  1  0  0  0  0
 33 32  2  0  0  0  0
 35 33  1  0  0  0  0
 36 35  1  0  0  0  0
M  END
>  <minimizedAffinity>
-5.89370871

$$$$

 OpenBabel03252500523D

 36 38  0  0  0  0  0  0  0  0999 V2000
   36.4890   30.2050   38.2550 C   0  0  0  0  0  0  0  0  0  0  0  0
   36.5030   29.9690   37.0310 O   0  0  0  0  0  0  0  0  0  0  0  0
   38.7570   31.1370   38.2720 C   0  0  0  0  0  0  0  0  0  0  0  0
   37.4890   31.1170   38.8000 C   0  0  0  0  0  0  0  0  0  0  0  0
   37.1370   31.9680   39.8620 C   0  0  0  0  0  0  0  0  0  0  0  0
   38.0990   32.8170   40.3510 N   0  0  0  0  0  0  0  0  0  0  0  0
   39.3340   32.8180   39.8170 C   0  0  0  0  0  0  0  0  0  0  0  0
   39.6520   31.9910   38.7950 N   0  0  0  0  0  0  0  0  0  0  0  0
   39.0370   30.4990   37.4680 H   0  0  0  0  0  0  0  0  0  0  0  0
   36.1400   31.9540   40.2790 H   0  0  0  0  0  0  0  0  0  0  0  0
   40.3470   33.7200   40.3400 C   0  0  0  0  0  0  0  0  0  0  0  0
   41.6050   33.3230   40.6440 C   0  0  0  0  0  0  0  0  0  0  0  0
   42.5690   34.1520   41.1350 C   0  0  0  0  0  0  0  0  0  0  0  0
   42.2140   35.4520   41.3180 N   0  0  0  0  0  0  0  0  0  0  0  0
   40.9810   35.8470   41.0210 C   0  0  0  0  0  0  0  0  0  0  0  0
   40.0210   35.0400   40.5370 N   0  0  0  0  0  0  0  0  0  0  0  0
   41.8020   32.2630   40.4650 H   0  0  0  0  0  0  0  0  0  0  0  0
   43.5580   33.7560   41.3550 H   0  0  0  0  0  0  0  0  0  0  0  0
   40.6380   36.8750   41.1460 H   0  0  0  0  0  0  0  0  0  0  0  0
   35.4660   29.5000   38.8280 O   0  0  0  0  0  0  0  0  0  0  0  0
   35.6460   28.3020   39.4840 C   0  0  0  0  0  0  0  0  0  0  0  0
   36.2230   27.5150   39.0070 H   0  0  0  0  0  0  0  0  0  0  0  0
   34.6060   27.8560   39.5600 H   0  0  0  0  0  0  0  0  0  0  0  0
   36.0470   28.4700   40.9450 C   0  0  0  0  0  0  0  0  0  0  0  0
   36.5680   29.4490   41.0090 H   0  0  0  0  0  0  0  0  0  0  0  0
   35.1300   28.5680   41.5780 H   0  0  0  0  0  0  0  0  0  0  0  0
   37.8320   29.3490   43.1170 Cl  0  0  0  0  0  0  0  0  0  0  0  0
   37.7880   27.7370   42.4460 C   0  0  0  0  0  0  0  0  0  0  0  0
   36.9210   27.3850   41.4190 C   0  0  0  0  0  0  0  0  0  0  0  0
   36.9390   26.0900   40.9360 C   0  0  0  0  0  0  0  0  0  0  0  0
   36.2640   25.8530   40.1520 H   0  0  0  0  0  0  0  0  0  0  0  0
   37.8210   25.1970   41.4920 C   0  0  0  0  0  3  0  0  0  0  0  0
   38.7160   25.4930   42.5240 C   0  0  0  0  0  0  0  0  0  0  0  0
   39.8110   24.3000   43.1830 Cl  0  0  0  0  0  0  0  0  0  0  0  0
   38.6610   26.8020   42.9760 C   0  0  0  0  0  0  0  0  0  0  0  0
   39.3420   27.0940   43.7880 H   0  0  0  0  0  0  0  0  0  0  0  0
  1  4  1  0  0  0  0
  1 20  1  0  0  0  0
  2  1  2  0  0  0  0
  3  8  2  0  0  0  0
  3  4  1  0  0  0  0
  4  5  2  0  0  0  0
  5 10  1  0  0  0  0
  5  6  1  0  0  0  0
  7 11  1  0  0  0  0
  7  6  2  0  0  0  0
  8  7  1  0  0  0  0
  9  3  1  0  0  0  0
 11 16  2  0  0  0  0
 11 12  1  0  0  0  0
 12 13  2  0  0  0  0
 13 14  1  0  0  0  0
 13 18  1  0  0  0  0
 15 19  1  0  0  0  0
 15 14  2  0  0  0  0
 16 15  1  0  0  0  0
 17 12  1  0  0  0  0
 20 21  1  0  0  0  0
 21 23  1  0  0  0  0
 21 24  1  0  0  0  0
 22 21  1  0  0  0  0
 24 25  1  0  0  0  0
 24 29  1  0  0  0  0
 24 26  1  0  0  0  0
 28 35  1  0  0  0  0
 28 27  1  0  0  0  0
 29 28  2  0  0  0  0
 30 29  1  0  0  0  0
 30 32  2  0  0  0  0
 31 30  1  0  0  0  0
 32 33  1  0  0  0  0
 33 35  2  0  0  0  0
 33 34  1  0  0  0  0
 35 36  1  0  0  0  0
M  END
>  <minimizedAffinity>
-5.69545412

$$$$

 OpenBabel03252500523D

 36 38  0  0  0  0  0  0  0  0999 V2000
   36.3280   28.6800   40.1010 C   0  0  0  0  0  0  0  0  0  0  0  0
   35.5200   28.4200   39.1880 O   0  0  0  0  0  0  0  0  0  0  0  0
   38.2350   29.9930   39.2910 C   0  0  0  0  0  0  0  0  0  0  0  0
   37.0790   29.9290   40.0300 C   0  0  0  0  0  0  0  0  0  0  0  0
   36.6030   31.0560   40.7230 C   0  0  0  0  0  0  0  0  0  0  0  0
   37.3310   32.2180   40.6350 N   0  0  0  0  0  0  0  0  0  0  0  0
   38.4590   32.2550   39.9050 C   0  0  0  0  0  0  0  0  0  0  0  0
   38.9000   31.1580   39.2460 N   0  0  0  0  0  0  0  0  0  0  0  0
   38.6070   29.1470   38.7620 H   0  0  0  0  0  0  0  0  0  0  0  0
   35.6950   31.0090   41.3050 H   0  0  0  0  0  0  0  0  0  0  0  0
   39.2230   33.4880   39.8160 C   0  0  0  0  0  0  0  0  0  0  0  0
   38.7560   34.6810   40.2570 C   0  0  0  0  0  0  0  0  0  0  0  0
   39.4550   35.8490   40.1830 C   0  0  0  0  0  0  0  0  0  0  0  0
   40.6950   35.7770   39.6280 N   0  0  0  0  0  0  0  0  0  0  0  0
   41.1580   34.6110   39.1940 C   0  0  0  0  0  0  0  0  0  0  0  0
   40.4790   33.4530   39.2600 N   0  0  0  0  0  0  0  0  0  0  0  0
   37.7530   34.6440   40.6870 H   0  0  0  0  0  0  0  0  0  0  0  0
   39.0110   36.7670   40.5600 H   0  0  0  0  0  0  0  0  0  0  0  0
   42.1430   34.4920   38.7410 H   0  0  0  0  0  0  0  0  0  0  0  0
   36.3120   27.6560   41.0080 O   0  0  0  0  0  0  0  0  0  0  0  0
   37.4540   27.1020   41.5450 C   0  0  0  0  0  0  0  0  0  0  0  0
   38.3320   26.9790   40.9170 H   0  0  0  0  0  0  0  0  0  0  0  0
   37.1630   26.0350   41.8010 H   0  0  0  0  0  0  0  0  0  0  0  0
   37.8240   27.6830   42.9040 C   0  0  0  0  0  0  0  0  0  0  0  0
   37.0660   28.4660   43.1190 H   0  0  0  0  0  0  0  0  0  0  0  0
   37.6950   26.9040   43.6950 H   0  0  0  0  0  0  0  0  0  0  0  0
   39.8440   25.7320   43.7950 Cl  0  0  0  0  0  0  0  0  0  0  0  0
   40.1800   27.3830   43.3350 C   0  0  0  0  0  0  0  0  0  0  0  0
   39.1800   28.2560   42.9230 C   0  0  0  0  0  0  0  0  0  0  0  0
   39.5170   29.5500   42.5730 C   0  0  0  0  0  0  0  0  0  0  0  0
   38.7310   30.1910   42.2610 H   0  0  0  0  0  0  0  0  0  0  0  0
   40.8350   29.9250   42.6470 C   0  0  0  0  0  3  0  0  0  0  0  0
   41.8820   29.0940   43.0550 C   0  0  0  0  0  0  0  0  0  0  0  0
   43.5400   29.6430   43.1240 Cl  0  0  0  0  0  0  0  0  0  0  0  0
   41.4960   27.8060   43.3950 C   0  0  0  0  0  0  0  0  0  0  0  0
   42.2780   27.1070   43.7230 H   0  0  0  0  0  0  0  0  0  0  0  0
  1 20  1  0  0  0  0
  2  1  2  0  0  0  0
  3  4  1  0  0  0  0
  4  1  1  0  0  0  0
  4  5  2  0  0  0  0
  5 10  1  0  0  0  0
  6  5  1  0  0  0  0
  7  6  2  0  0  0  0
  8  3  2  0  0  0  0
  8  7  1  0  0  0  0
  9  3  1  0  0  0  0
 11  7  1  0  0  0  0
 11 12  1  0  0  0  0
 12 17  1  0  0  0  0
 13 12  2  0  0  0  0
 13 18  1  0  0  0  0
 14 13  1  0  0  0  0
 15 16  1  0  0  0  0
 15 14  2  0  0  0  0
 16 11  2  0  0  0  0
 19 15  1  0  0  0  0
 20 21  1  0  0  0  0
 21 23  1  0  0  0  0
 21 24  1  0  0  0  0
 22 21  1  0  0  0  0
 24 29  1  0  0  0  0
 24 25  1  0  0  0  0
 24 26  1  0  0  0  0
 28 35  1  0  0  0  0
 28 27  1  0  0  0  0
 29 28  2  0  0  0  0
 30 32  2  0  0  0  0
 30 29  1  0  0  0  0
 31 30  1  0  0  0  0
 32 33  1  0  0  0  0
 33 34  1  0  0  0  0
 33 35  2  0  0  0  0
 35 36  1  0  0  0  0
M  END
>  <minimizedAffinity>
-5.57451963

$$$$

 OpenBabel03252500523D

 36 38  0  0  0  0  0  0  0  0999 V2000
   36.8710   26.0710   39.2300 C   0  0  0  0  0  0  0  0  0  0  0  0
   35.8170   25.7220   38.6630 O   0  0  0  0  0  0  0  0  0  0  0  0
   38.3830   27.9270   39.7620 C   0  0  0  0  0  0  0  0  0  0  0  0
   37.1290   27.4960   39.4060 C   0  0  0  0  0  0  0  0  0  0  0  0
   36.0820   28.4130   39.2030 C   0  0  0  0  0  0  0  0  0  0  0  0
   36.3570   29.7480   39.3730 N   0  0  0  0  0  0  0  0  0  0  0  0
   37.5930   30.1450   39.7220 C   0  0  0  0  0  0  0  0  0  0  0  0
   38.5860   29.2450   39.9120 N   0  0  0  0  0  0  0  0  0  0  0  0
   39.1840   27.2430   39.9190 H   0  0  0  0  0  0  0  0  0  0  0  0
   35.0940   28.0770   38.9220 H   0  0  0  0  0  0  0  0  0  0  0  0
   37.8760   31.5590   39.8990 C   0  0  0  0  0  0  0  0  0  0  0  0
   37.1070   32.5390   39.3690 C   0  0  0  0  0  0  0  0  0  0  0  0
   37.3530   33.8710   39.5220 C   0  0  0  0  0  0  0  0  0  0  0  0
   38.4480   34.2020   40.2600 N   0  0  0  0  0  0  0  0  0  0  0  0
   39.2060   33.2460   40.7820 C   0  0  0  0  0  0  0  0  0  0  0  0
   38.9740   31.9290   40.6380 N   0  0  0  0  0  0  0  0  0  0  0  0
   36.2500   32.1820   38.7920 H   0  0  0  0  0  0  0  0  0  0  0  0
   36.6880   34.5980   39.0640 H   0  0  0  0  0  0  0  0  0  0  0  0
   40.0940   33.4490   41.3820 H   0  0  0  0  0  0  0  0  0  0  0  0
   37.5780   24.9500   39.5710 O   0  0  0  0  0  0  0  0  0  0  0  0
   37.1420   24.0340   40.5030 C   0  0  0  0  0  0  0  0  0  0  0  0
   37.6490   23.0750   40.5850 H   0  0  0  0  0  0  0  0  0  0  0  0
   36.0980   23.7500   40.1600 H   0  0  0  0  0  0  0  0  0  0  0  0
   36.8910   24.6430   41.8760 C   0  0  0  0  0  0  0  0  0  0  0  0
   36.1800   25.4820   41.7140 H   0  0  0  0  0  0  0  0  0  0  0  0
   36.3540   23.9060   42.5230 H   0  0  0  0  0  0  0  0  0  0  0  0
   36.5950   27.3730   42.9450 Cl  0  0  0  0  0  0  0  0  0  0  0  0
   38.0500   26.4110   43.0400 C   0  0  0  0  0  0  0  0  0  0  0  0
   38.1260   25.1270   42.5150 C   0  0  0  0  0  0  0  0  0  0  0  0
   39.3090   24.4220   42.6250 C   0  0  0  0  0  0  0  0  0  0  0  0
   39.3350   23.4440   42.2140 H   0  0  0  0  0  0  0  0  0  0  0  0
   40.3710   25.0230   43.2530 C   0  0  0  0  0  3  0  0  0  0  0  0
   40.3550   26.3100   43.7990 C   0  0  0  0  0  0  0  0  0  0  0  0
   41.7500   27.0090   44.5870 Cl  0  0  0  0  0  0  0  0  0  0  0  0
   39.1480   26.9770   43.6650 C   0  0  0  0  0  0  0  0  0  0  0  0
   39.0750   27.9940   44.0760 H   0  0  0  0  0  0  0  0  0  0  0  0
  1  4  1  0  0  0  0
  1 20  1  0  0  0  0
  2  1  2  0  0  0  0
  3  8  1  0  0  0  0
  3  9  1  0  0  0  0
  4  3  2  0  0  0  0
  5  6  2  0  0  0  0
  5  4  1  0  0  0  0
  6  7  1  0  0  0  0
  7 11  1  0  0  0  0
  7  8  2  0  0  0  0
 10  5  1  0  0  0  0
 11 16  1  0  0  0  0
 12 13  1  0  0  0  0
 12 11  2  0  0  0  0
 13 14  2  0  0  0  0
 14 15  1  0  0  0  0
 15 19  1  0  0  0  0
 16 15  2  0  0  0  0
 17 12  1  0  0  0  0
 18 13  1  0  0  0  0
 20 21  1  0  0  0  0
 21 22  1  0  0  0  0
 21 24  1  0  0  0  0
 23 21  1  0  0  0  0
 24 29  1  0  0  0  0
 24 26  1  0  0  0  0
 25 24  1  0  0  0  0
 27 28  1  0  0  0  0
 28 35  1  0  0  0  0
 29 30  1  0  0  0  0
 29 28  2  0  0  0  0
 30 32  2  0  0  0  0
 31 30  1  0  0  0  0
 32 33  1  0  0  0  0
 33 34  1  0  0  0  0
 35 33  2  0  0  0  0
 35 36  1  0  0  0  0
M  END
>  <minimizedAffinity>
-5.56274652

$$$$

 OpenBabel03252500523D

 36 38  0  0  0  0  0  0  0  0999 V2000
   36.4950   28.7390   40.6480 C   0  0  0  0  0  0  0  0  0  0  0  0
   35.2500   28.7990   40.6650 O   0  0  0  0  0  0  0  0  0  0  0  0
   36.6570   31.1860   40.6930 C   0  0  0  0  0  0  0  0  0  0  0  0
   37.2490   29.9720   40.4450 C   0  0  0  0  0  0  0  0  0  0  0  0
   38.5810   29.8970   40.0000 C   0  0  0  0  0  0  0  0  0  0  0  0
   39.2650   31.0740   39.8220 N   0  0  0  0  0  0  0  0  0  0  0  0
   38.6630   32.2510   40.0710 C   0  0  0  0  0  0  0  0  0  0  0  0
   37.3800   32.3000   40.4990 N   0  0  0  0  0  0  0  0  0  0  0  0
   35.6500   31.2570   41.0300 H   0  0  0  0  0  0  0  0  0  0  0  0
   39.0500   28.9440   39.8050 H   0  0  0  0  0  0  0  0  0  0  0  0
   39.3940   33.4920   39.8810 C   0  0  0  0  0  0  0  0  0  0  0  0
   40.5980   33.5550   39.2640 C   0  0  0  0  0  0  0  0  0  0  0  0
   41.3000   34.7080   39.0750 C   0  0  0  0  0  0  0  0  0  0  0  0
   40.7280   35.8490   39.5470 N   0  0  0  0  0  0  0  0  0  0  0  0
   39.5480   35.7930   40.1530 C   0  0  0  0  0  0  0  0  0  0  0  0
   38.8460   34.6630   40.3460 N   0  0  0  0  0  0  0  0  0  0  0  0
   40.9800   32.5920   38.9170 H   0  0  0  0  0  0  0  0  0  0  0  0
   42.2620   34.6750   38.5690 H   0  0  0  0  0  0  0  0  0  0  0  0
   39.0410   36.6730   40.5520 H   0  0  0  0  0  0  0  0  0  0  0  0
   36.8760   27.4380   40.8340 O   0  0  0  0  0  0  0  0  0  0  0  0
   36.6350   26.7380   41.9960 C   0  0  0  0  0  0  0  0  0  0  0  0
   36.6550   25.6520   41.9770 H   0  0  0  0  0  0  0  0  0  0  0  0
   35.5570   26.9770   42.2570 H   0  0  0  0  0  0  0  0  0  0  0  0
   37.4000   27.2820   43.1970 C   0  0  0  0  0  0  0  0  0  0  0  0
   37.3210   28.3880   43.1340 H   0  0  0  0  0  0  0  0  0  0  0  0
   36.8760   26.9900   44.1410 H   0  0  0  0  0  0  0  0  0  0  0  0
   39.2440   29.5790   43.2180 Cl  0  0  0  0  0  0  0  0  0  0  0  0
   39.7320   27.9020   43.2170 C   0  0  0  0  0  0  0  0  0  0  0  0
   38.8100   26.8620   43.2060 C   0  0  0  0  0  0  0  0  0  0  0  0
   39.2670   25.5580   43.2060 C   0  0  0  0  0  0  0  0  0  0  0  0
   38.5380   24.7860   43.1980 H   0  0  0  0  0  0  0  0  0  0  0  0
   40.6220   25.3390   43.2160 C   0  0  0  0  0  3  0  0  0  0  0  0
   41.5940   26.3430   43.2260 C   0  0  0  0  0  0  0  0  0  0  0  0
   43.3060   25.9860   43.2380 Cl  0  0  0  0  0  0  0  0  0  0  0  0
   41.0900   27.6340   43.2260 C   0  0  0  0  0  0  0  0  0  0  0  0
   41.8080   28.4650   43.2340 H   0  0  0  0  0  0  0  0  0  0  0  0
  1  2  2  0  0  0  0
  1 20  1  0  0  0  0
  3  9  1  0  0  0  0
  4  1  1  0  0  0  0
  4  3  2  0  0  0  0
  5  4  1  0  0  0  0
  6  5  2  0  0  0  0
  6  7  1  0  0  0  0
  7  8  2  0  0  0  0
  8  3  1  0  0  0  0
 10  5  1  0  0  0  0
 11  7  1  0  0  0  0
 11 16  1  0  0  0  0
 12 11  2  0  0  0  0
 13 12  1  0  0  0  0
 13 14  2  0  0  0  0
 14 15  1  0  0  0  0
 15 16  2  0  0  0  0
 15 19  1  0  0  0  0
 17 12  1  0  0  0  0
 18 13  1  0  0  0  0
 20 21  1  0  0  0  0
 21 23  1  0  0  0  0
 21 24  1  0  0  0  0
 22 21  1  0  0  0  0
 24 29  1  0  0  0  0
 24 26  1  0  0  0  0
 25 24  1  0  0  0  0
 28 27  1  0  0  0  0
 28 35  1  0  0  0  0
 29 30  1  0  0  0  0
 29 28  2  0  0  0  0
 30 32  2  0  0  0  0
 31 30  1  0  0  0  0
 32 33  1  0  0  0  0
 33 35  2  0  0  0  0
 33 34  1  0  0  0  0
 35 36  1  0  0  0  0
M  END
>  <minimizedAffinity>
-5.54707623

$$$$

 OpenBabel03252500523D

 36 38  0  0  0  0  0  0  0  0999 V2000
   37.2290   28.7840   42.4770 C   0  0  0  0  0  0  0  0  0  0  0  0
   37.4260   28.4810   43.6710 O   0  0  0  0  0  0  0  0  0  0  0  0
   39.1040   30.3550   42.3020 C   0  0  0  0  0  0  0  0  0  0  0  0
   37.8160   30.0170   41.9660 C   0  0  0  0  0  0  0  0  0  0  0  0
   37.0490   30.8460   41.1270 C   0  0  0  0  0  0  0  0  0  0  0  0
   37.6300   31.9990   40.6590 N   0  0  0  0  0  0  0  0  0  0  0  0
   38.8930   32.3070   41.0030 C   0  0  0  0  0  0  0  0  0  0  0  0
   39.6140   31.4950   41.8110 N   0  0  0  0  0  0  0  0  0  0  0  0
   39.6950   29.7360   42.9350 H   0  0  0  0  0  0  0  0  0  0  0  0
   36.0350   30.5840   40.8610 H   0  0  0  0  0  0  0  0  0  0  0  0
   39.5020   33.5290   40.5020 C   0  0  0  0  0  0  0  0  0  0  0  0
   40.7290   33.5640   39.9320 C   0  0  0  0  0  0  0  0  0  0  0  0
   41.3180   34.6980   39.4560 C   0  0  0  0  0  0  0  0  0  0  0  0
   40.6000   35.8480   39.5770 N   0  0  0  0  0  0  0  0  0  0  0  0
   39.3960   35.8190   40.1350 C   0  0  0  0  0  0  0  0  0  0  0  0
   38.8050   34.7080   40.6080 N   0  0  0  0  0  0  0  0  0  0  0  0
   41.2320   32.5950   39.8770 H   0  0  0  0  0  0  0  0  0  0  0  0
   42.3080   34.6440   39.0110 H   0  0  0  0  0  0  0  0  0  0  0  0
   38.7750   36.7070   40.2590 H   0  0  0  0  0  0  0  0  0  0  0  0
   36.4530   27.8150   41.9000 O   0  0  0  0  0  0  0  0  0  0  0  0
   36.9570   26.8280   41.0820 C   0  0  0  0  0  0  0  0  0  0  0  0
   36.4730   25.8560   41.0600 H   0  0  0  0  0  0  0  0  0  0  0  0
   37.9850   26.6000   41.5070 H   0  0  0  0  0  0  0  0  0  0  0  0
   37.2770   27.3170   39.6750 C   0  0  0  0  0  0  0  0  0  0  0  0
   37.8000   28.2900   39.8000 H   0  0  0  0  0  0  0  0  0  0  0  0
   38.0190   26.6300   39.1970 H   0  0  0  0  0  0  0  0  0  0  0  0
   36.6890   24.9060   38.0880 Cl  0  0  0  0  0  0  0  0  0  0  0  0
   35.7420   26.3720   38.0710 C   0  0  0  0  0  0  0  0  0  0  0  0
   36.0730   27.4780   38.8450 C   0  0  0  0  0  0  0  0  0  0  0  0
   35.2780   28.6070   38.7830 C   0  0  0  0  0  0  0  0  0  0  0  0
   35.5570   29.4340   39.3860 H   0  0  0  0  0  0  0  0  0  0  0  0
   34.1850   28.5910   37.9520 C   0  0  0  0  0  3  0  0  0  0  0  0
   33.8030   27.5120   37.1510 C   0  0  0  0  0  0  0  0  0  0  0  0
   32.3940   27.5660   36.1170 Cl  0  0  0  0  0  0  0  0  0  0  0  0
   34.6290   26.4030   37.2480 C   0  0  0  0  0  0  0  0  0  0  0  0
   34.3780   25.5220   36.6400 H   0  0  0  0  0  0  0  0  0  0  0  0
  1  2  2  0  0  0  0
  3  9  1  0  0  0  0
  4  3  1  0  0  0  0
  4  1  1  0  0  0  0
  5  4  2  0  0  0  0
  6  7  2  0  0  0  0
  6  5  1  0  0  0  0
  7  8  1  0  0  0  0
  8  3  2  0  0  0  0
 10  5  1  0  0  0  0
 11 16  1  0  0  0  0
 11  7  1  0  0  0  0
 12 11  2  0  0  0  0
 13 14  2  0  0  0  0
 13 12  1  0  0  0  0
 14 15  1  0  0  0  0
 15 19  1  0  0  0  0
 15 16  2  0  0  0  0
 17 12  1  0  0  0  0
 18 13  1  0  0  0  0
 20  1  1  0  0  0  0
 21 23  1  0  0  0  0
 21 20  1  0  0  0  0
 22 21  1  0  0  0  0
 24 25  1  0  0  0  0
 24 21  1  0  0  0  0
 26 24  1  0  0  0  0
 28 27  1  0  0  0  0
 28 29  1  0  0  0  0
 29 24  1  0  0  0  0
 30 29  2  0  0  0  0
 30 31  1  0  0  0  0
 32 30  1  0  0  0  0
 33 35  1  0  0  0  0
 33 32  2  0  0  0  0
 34 33  1  0  0  0  0
 35 28  2  0  0  0  0
 36 35  1  0  0  0  0
M  END
>  <minimizedAffinity>
-5.54666042

$$$$
