
     RDKit          3D

 37 39  0  0  0  0  0  0  0  0999 V2000
   44.9118   35.0361   44.5014 C   0  0  0  0  0  0  0  0  0  0  0  0
   44.9967   34.3124   43.3371 C   0  0  0  0  0  0  0  0  0  0  0  0
   45.4391   32.9770   43.3490 C   0  0  0  0  0  0  0  0  0  0  0  0
   45.7812   32.4249   44.5593 N   0  0  0  0  0  0  0  0  0  0  0  0
   45.6890   33.1548   45.6850 C   0  0  0  0  0  0  0  0  0  0  0  0
   45.2613   34.4376   45.6513 N   0  0  0  0  0  0  0  0  0  0  0  0
   46.0521   32.5633   46.9617 C   0  0  0  0  0  0  0  0  0  0  0  0
   47.3269   32.2569   47.3000 C   0  0  0  0  0  0  0  0  0  0  0  0
   47.6890   31.7022   48.4908 C   0  0  0  0  0  0  0  0  0  0  0  0
   46.6827   31.4529   49.3733 N   0  0  0  0  0  0  0  0  0  0  0  0
   45.4313   31.7512   49.0469 C   0  0  0  0  0  0  0  0  0  0  0  0
   45.0614   32.2984   47.8760 N   0  0  0  0  0  0  0  0  0  0  0  0
   44.6226   34.9267   42.0676 C   0  0  0  0  0  0  0  0  0  0  0  0
   45.3156   34.6824   41.0608 O   0  0  0  0  0  0  0  0  0  0  0  0
   43.6080   35.7720   41.7085 O   0  0  0  0  0  0  0  0  0  0  0  0
   42.5350   35.3821   40.9382 C   0  0  0  0  0  0  0  0  0  0  0  0
   41.2113   35.4070   41.6910 C   0  0  0  0  0  0  0  0  0  0  0  0
   44.5787   36.0471   44.5059 H   0  0  0  0  0  0  0  0  0  0  0  0
   45.5070   32.4054   42.4353 H   0  0  0  0  0  0  0  0  0  0  0  0
   48.0680   32.4911   46.5325 H   0  0  0  0  0  0  0  0  0  0  0  0
   48.7365   31.4849   48.6878 H   0  0  0  0  0  0  0  0  0  0  0  0
   44.5840   31.5753   49.7106 H   0  0  0  0  0  0  0  0  0  0  0  0
   42.6192   34.4917   40.3198 H   0  0  0  0  0  0  0  0  0  0  0  0
   42.4065   36.2165   40.1799 H   0  0  0  0  0  0  0  0  0  0  0  0
   41.3359   34.7179   42.5538 H   0  0  0  0  0  0  0  0  0  0  0  0
   41.0461   36.4217   42.1297 H   0  0  0  0  0  0  0  0  0  0  0  0
   39.4053   33.5597   43.1077 Cl  0  0  0  0  0  0  0  0  0  0  0  0
   39.1860   34.1130   41.4665 C   0  0  0  0  0  0  0  0  0  0  0  0
   40.0758   34.9869   40.8527 C   0  0  0  0  0  0  0  0  0  0  0  0
   39.8412   35.3843   39.5504 C   0  0  0  0  0  0  0  0  0  0  0  0
   40.5387   36.0521   39.1106 H   0  0  0  0  0  0  0  0  0  0  0  0
   38.7300   34.8965   38.9089 C   0  0  0  0  0  0  0  0  0  0  0  0
   37.8014   34.0174   39.4723 C   0  0  0  0  0  0  0  0  0  0  0  0
   36.4072   33.4386   38.5909 Cl  0  0  0  0  0  0  0  0  0  0  0  0
   38.0780   33.6473   40.7786 C   0  0  0  0  0  0  0  0  0  0  0  0
   37.3822   32.9570   41.2751 H   0  0  0  0  0  0  0  0  0  0  0  0
   38.5238   35.2004   37.8707 H   0  0  0  0  0  0  0  0  0  0  0  0
  1  6  2  0
  2  3  2  0
  2  1  1  0
  3  4  1  0
  4  5  2  0
  5  7  1  0
  6  5  1  0
  7  8  2  0
  7 12  1  0
  8  9  1  0
  9 10  2  0
 11 10  1  0
 12 11  2  0
 13  2  1  0
 14 13  2  0
 15 13  1  0
 16 17  1  0
 16 15  1  0
  1 18  1  0
  3 19  1  0
  8 20  1  0
  9 21  1  0
 11 22  1  0
 16 23  1  0
 16 24  1  0
 17 25  1  0
 17 26  1  0
 27 28  1  0
 28 29  2  0
 29 30  1  0
 30 31  1  0
 30 32  2  0
 32 33  1  0
 33 34  1  0
 33 35  2  0
 35 36  1  0
 35 28  1  0
 32 37  1  0
 17 29  1  0
M  ISO  8  18  14  19  14  20  14  21  14  22  14  23   8  24   8  25   8
M  ISO  3  26   8  31  16  36  15
M  END
>  <DihAtoms>  (1) 
15,16,28,27

>  <DihDeg>  (1) 
76.01436221704178

$$$$
