
 OpenBabel03252504533D

 22 23  0  0  0  0  0  0  0  0999 V2000
   44.2840   34.2660   41.4490 C   0  0  0  0  0  0  0  0  0  0  0  0
   44.6870   33.5670   40.6670 H   0  0  0  0  0  0  0  0  0  0  0  0
   44.6210   35.2950   41.2070 H   0  0  0  0  0  0  0  0  0  0  0  0
   45.0030   36.4370   43.3260 Cl  0  0  0  0  0  0  0  0  0  0  0  0
   45.2500   34.7320   43.6960 C   0  0  0  0  0  0  0  0  0  0  0  0
   44.8690   33.8040   42.7250 C   0  0  0  0  0  0  0  0  0  0  0  0
   45.0660   32.4520   43.0220 C   0  0  0  0  0  0  0  0  0  0  0  0
   44.7720   31.7070   42.2710 H   0  0  0  0  0  0  0  0  0  0  0  0
   45.6120   32.0180   44.2160 C   0  0  0  0  0  3  0  0  0  0  0  0
   45.9880   32.9630   45.1760 C   0  0  0  0  0  0  0  0  0  0  0  0
   46.6860   32.4490   46.7030 Cl  0  0  0  0  0  0  0  0  0  0  0  0
   45.8000   34.3140   44.9000 C   0  0  0  0  0  0  0  0  0  0  0  0
   46.0930   35.0600   45.6480 H   0  0  0  0  0  0  0  0  0  0  0  0
   40.7540   35.4090   41.3550 C   0  0  0  0  0  0  0  0  0  0  0  0
   42.1580   35.4550   41.4090 C   0  0  0  0  0  0  0  0  0  0  0  0
   42.8300   34.2200   41.3940 C   0  0  0  0  0  0  0  0  0  0  0  0
   42.0860   33.0780   41.3300 N   0  0  0  0  0  0  0  0  0  0  0  0
   40.7330   33.0950   41.2800 C   0  0  0  0  0  0  0  0  0  0  0  0
   40.0710   34.2680   41.2930 N   0  0  0  0  0  0  0  0  0  0  0  0
   40.2530   36.3860   41.3680 H   0  0  0  0  0  0  0  0  0  0  0  0
   42.7140   36.3790   41.4590 H   0  0  0  0  0  0  0  0  0  0  0  0
   40.2410   32.1250   41.2310 H   0  0  0  0  0  0  0  0  0  0  0  0
  1  6  1  0  0  0  0
  2  1  1  0  0  0  0
  3  1  1  0  0  0  0
  4  5  1  0  0  0  0
  5 12  1  0  0  0  0
  6  7  1  0  0  0  0
  6  5  2  0  0  0  0
  7  9  2  0  0  0  0
  8  7  1  0  0  0  0
  9 10  1  0  0  0  0
 10 11  1  0  0  0  0
 12 10  2  0  0  0  0
 12 13  1  0  0  0  0
 14 20  1  0  0  0  0
 14 15  1  0  0  0  0
 15 21  1  0  0  0  0
 16 15  2  0  0  0  0
 16  1  1  0  0  0  0
 17 16  1  0  0  0  0
 18 19  1  0  0  0  0
 18 17  2  0  0  0  0
 19 14  2  0  0  0  0
 22 18  1  0  0  0  0
M  END
>  <minimizedAffinity>
-4.10188293

>  <minimizedRMSD>
5.64127636

$$$$
