
 OpenBabel03242515393D

 37 40  0  0  0  0  0  0  0  0999 V2000
   43.9380   34.7880   41.0080 C   0  0  0  0  0  0  0  0  0  0  0  0
   43.8970   33.9250   39.9270 C   0  0  0  0  0  0  0  0  0  0  0  0
   45.1000   33.3530   39.5140 C   0  0  0  0  0  0  0  0  0  0  0  0
   46.2310   33.6790   40.1980 N   0  0  0  0  0  0  0  0  0  0  0  0
   46.2360   34.5150   41.2350 C   0  0  0  0  0  0  0  0  0  0  0  0
   45.0910   35.0490   41.6160 N   0  0  0  0  0  0  0  0  0  0  0  0
   42.9680   33.7140   39.4360 H   0  0  0  0  0  0  0  0  0  0  0  0
   47.7890   32.2260   39.0210 Cl  0  0  0  0  0  0  0  0  0  0  0  0
   46.3550   31.8500   38.0660 C   0  0  0  0  0  0  0  0  0  0  0  0
   45.1630   32.4440   38.4020 C   0  0  0  0  0  0  0  0  0  0  0  0
   44.1010   32.0880   37.6000 C   0  0  0  0  0  0  0  0  0  0  0  0
   43.1320   32.5140   37.8030 H   0  0  0  0  0  0  0  0  0  0  0  0
   44.2260   31.1970   36.5300 C   0  0  0  0  0  3  0  0  0  0  0  0
   45.4690   30.6380   36.2560 C   0  0  0  0  0  0  0  0  0  0  0  0
   45.5650   29.5310   34.9090 Cl  0  0  0  0  0  0  0  0  0  0  0  0
   46.5600   30.9700   37.0400 C   0  0  0  0  0  0  0  0  0  0  0  0
   47.5240   30.5280   36.8160 H   0  0  0  0  0  0  0  0  0  0  0  0
   42.3600   35.5120   41.5150 S   0  0  0  0  0  0  0  0  0  0  0  0
   40.0100   34.9430   40.3170 C   0  0  0  0  0  0  0  0  0  0  0  0
   41.0160   34.4010   41.1220 C   0  0  0  0  0  0  0  0  0  0  0  0
   40.9440   33.0920   41.5630 C   0  0  0  0  0  0  0  0  0  0  0  0
   39.8810   32.2700   41.2320 C   0  0  0  0  0  0  0  0  0  0  0  0
   38.8680   32.8220   40.4190 C   0  0  0  0  0  0  0  0  0  0  0  0
   38.9310   34.1350   39.9690 C   0  0  0  0  0  0  0  0  0  0  0  0
   37.9090   31.7970   40.2240 O   0  0  0  0  0  0  0  0  0  0  0  0
   38.1730   30.8300   41.2080 C   0  0  0  0  0  0  0  0  0  0  0  0
   39.5530   30.9570   41.5210 O   0  0  0  0  0  0  0  0  0  0  0  0
   40.0270   35.9540   39.9530 H   0  0  0  0  0  0  0  0  0  0  0  0
   41.7500   32.7300   42.1820 H   0  0  0  0  0  0  0  0  0  0  0  0
   38.1640   34.5550   39.3550 H   0  0  0  0  0  0  0  0  0  0  0  0
   37.8880   29.8100   40.9200 H   0  0  0  0  0  0  0  0  0  0  0  0
   37.6260   31.1550   42.1320 H   0  0  0  0  0  0  0  0  0  0  0  0
   47.3600   34.8580   41.9380 O   0  0  0  0  0  0  0  0  0  0  0  0
   48.5700   35.0620   41.2720 C   0  0  0  0  0  0  0  0  0  0  0  0
   49.4220   33.9960   41.3800 F   0  0  0  0  0  0  0  0  0  0  0  0
   48.2190   35.3450   39.9430 F   0  0  0  0  0  0  0  0  0  0  0  0
   49.1880   36.1550   41.8600 F   0  0  0  0  0  0  0  0  0  0  0  0
  1 18  1  0  0  0  0
  1  6  1  0  0  0  0
  2  1  2  0  0  0  0
  3  2  1  0  0  0  0
  3  4  2  0  0  0  0
  4  5  1  0  0  0  0
  5  6  2  0  0  0  0
  5 33  1  0  0  0  0
  7  2  1  0  0  0  0
  9 10  1  0  0  0  0
  9  8  1  0  0  0  0
 10  3  1  0  0  0  0
 11 12  1  0  0  0  0
 11 10  2  0  0  0  0
 13 11  1  0  0  0  0
 14 13  2  0  0  0  0
 14 16  1  0  0  0  0
 15 14  1  0  0  0  0
 16  9  2  0  0  0  0
 17 16  1  0  0  0  0
 19 20  1  0  0  0  0
 20 18  1  0  0  0  0
 20 21  2  0  0  0  0
 21 29  1  0  0  0  0
 22 27  1  0  0  0  0
 22 21  1  0  0  0  0
 23 22  2  0  0  0  0
 24 19  2  0  0  0  0
 24 23  1  0  0  0  0
 25 23  1  0  0  0  0
 25 26  1  0  0  0  0
 26 27  1  0  0  0  0
 26 32  1  0  0  0  0
 28 19  1  0  0  0  0
 30 24  1  0  0  0  0
 31 26  1  0  0  0  0
 34 35  1  0  0  0  0
 34 37  1  0  0  0  0
 34 33  1  0  0  0  0
 36 34  1  0  0  0  0
M  END
>  <minimizedAffinity>
-6.10054874

>  <minimizedRMSD>
0.265671432

$$$$
