
 OpenBabel03242517033D

 34 36  0  0  0  0  0  0  0  0999 V2000
   46.5940   34.7470   41.9820 C   0  0  0  0  0  0  0  0  0  0  0  0
   47.9250   35.1300   41.9520 C   0  0  0  0  0  0  0  0  0  0  0  0
   48.6370   34.9110   40.7820 C   0  0  0  0  0  0  0  0  0  0  0  0
   48.0420   34.3380   39.7060 C   0  0  0  0  0  0  0  0  0  0  0  0
   46.7160   33.9450   39.7050 C   0  0  0  0  0  0  0  0  0  0  0  0
   46.0070   34.1720   40.8940 C   0  0  0  0  0  0  0  0  0  0  0  0
   48.4250   35.5870   42.7880 H   0  0  0  0  0  0  0  0  0  0  0  0
   49.6800   35.1860   40.6910 H   0  0  0  0  0  0  0  0  0  0  0  0
   48.5430   34.1410   38.7660 H   0  0  0  0  0  0  0  0  0  0  0  0
   46.1520   33.4920   38.9280 H   0  0  0  0  0  0  0  0  0  0  0  0
   44.5060   36.2530   44.7370 C   0  0  0  0  0  0  0  0  0  0  0  0
   45.1520   36.1270   43.4840 C   0  0  0  0  0  0  0  0  0  0  0  0
   45.8810   34.9960   43.2370 C   0  0  0  0  0  0  0  0  0  0  0  0
   45.9450   34.0490   44.2190 N   0  0  0  0  0  0  0  0  0  0  0  0
   45.3280   34.1720   45.4110 C   0  0  0  0  0  0  0  0  0  0  0  0
   44.6000   35.2850   45.6770 N   0  0  0  0  0  0  0  0  0  0  0  0
   43.9640   37.1900   44.8080 H   0  0  0  0  0  0  0  0  0  0  0  0
   45.0990   36.8720   42.7160 H   0  0  0  0  0  0  0  0  0  0  0  0
   45.3970   33.4050   46.1700 H   0  0  0  0  0  0  0  0  0  0  0  0
   43.4170   34.2950   40.5750 C   0  0  0  0  0  0  0  0  0  0  0  0
   43.2650   35.2800   39.8720 O   0  0  0  0  0  0  0  0  0  0  0  0
   44.6500   33.8140   41.0470 N   0  0  0  0  0  0  0  0  0  0  0  0
   44.7000   32.9720   41.6910 H   0  0  0  0  0  0  0  0  0  0  0  0
   42.2700   33.5860   40.9400 O   0  0  0  0  0  0  0  0  0  0  0  0
   40.3250   35.8800   41.1820 Cl  0  0  0  0  0  0  0  0  0  0  0  0
   40.1850   34.5830   40.0290 C   0  0  0  0  0  0  0  0  0  0  0  0
   41.1820   33.6220   40.0770 C   0  0  0  0  0  0  0  0  0  0  0  0
   41.1330   32.5590   39.1870 C   0  0  0  0  0  0  0  0  0  0  0  0
   41.8740   31.7600   39.1560 H   0  0  0  0  0  0  0  0  0  0  0  0
   40.1090   32.4470   38.2590 C   0  0  0  0  0  0  0  0  0  0  0  0
   39.1200   33.4210   38.2280 C   0  0  0  0  0  0  0  0  0  0  0  0
   37.8060   33.3200   37.0710 Cl  0  0  0  0  0  0  0  0  0  0  0  0
   39.1620   34.4820   39.1110 C   0  0  0  0  0  0  0  0  0  0  0  0
   38.4040   35.2610   39.1130 H   0  0  0  0  0  0  0  0  0  0  0  0
  1 13  1  0  0  0  0
  2  1  1  0  0  0  0
  2  7  1  0  0  0  0
  3  2  2  0  0  0  0
  4  3  1  0  0  0  0
  5  4  2  0  0  0  0
  5  6  1  0  0  0  0
  6 22  1  0  0  0  0
  6  1  2  0  0  0  0
  8  3  1  0  0  0  0
  9  4  1  0  0  0  0
 10  5  1  0  0  0  0
 11 17  1  0  0  0  0
 11 16  1  0  0  0  0
 12 11  2  0  0  0  0
 13 12  1  0  0  0  0
 13 14  2  0  0  0  0
 14 15  1  0  0  0  0
 15 16  2  0  0  0  0
 15 19  1  0  0  0  0
 18 12  1  0  0  0  0
 20 24  1  0  0  0  0
 20 22  1  0  0  0  0
 21 20  2  0  0  0  0
 22 23  1  0  0  0  0
 26 27  1  0  0  0  0
 26 25  1  0  0  0  0
 27 24  1  0  0  0  0
 28 27  2  0  0  0  0
 29 28  1  0  0  0  0
 30 28  1  0  0  0  0
 31 30  2  0  0  0  0
 31 33  1  0  0  0  0
 32 31  1  0  0  0  0
 33 34  1  0  0  0  0
 33 26  2  0  0  0  0
M  END
>  <minimizedAffinity>
-7.1081028

>  <minimizedRMSD>
1.09118307

$$$$
