
 OpenBabel03252506053D

 44 48  0  0  0  0  0  0  0  0999 V2000
   44.7200   35.8570   43.3890 Cl  0  0  0  0  0  0  0  0  0  0  0  0
   45.4970   34.6260   44.3310 C   0  0  0  0  0  0  0  0  0  0  0  0
   46.5760   33.9310   43.8120 C   0  0  0  0  0  0  0  0  0  0  0  0
   47.1180   32.9720   44.6500 C   0  0  0  0  0  0  0  0  0  0  0  0
   46.6760   32.6750   45.9160 C   0  0  0  0  0  0  0  0  0  0  0  0
   45.6050   33.3870   46.3950 C   0  0  0  0  0  0  0  0  0  0  0  0
   45.0620   32.9890   48.0110 Cl  0  0  0  0  0  0  0  0  0  0  0  0
   45.0220   34.3500   45.6170 C   0  0  0  0  0  0  0  0  0  0  0  0
   47.9710   32.4300   44.2230 H   0  0  0  0  0  0  0  0  0  0  0  0
   44.1790   34.9040   46.0050 H   0  0  0  0  0  0  0  0  0  0  0  0
   47.3860   31.6280   46.6370 C   0  0  0  0  0  0  0  0  0  0  0  0
   47.5210   30.3390   46.1460 C   0  0  0  0  0  0  0  0  0  0  0  0
   48.1870   29.3260   46.8040 C   0  0  0  0  0  0  0  0  0  0  0  0
   48.7630   29.5910   48.0260 C   0  0  0  0  0  0  0  0  0  0  0  0
   49.4080   28.5960   48.6540 N   0  0  0  0  0  0  0  0  0  0  0  0
   50.0030   28.7730   49.8640 C   0  0  0  0  0  0  0  0  0  0  0  0
   49.9100   30.0350   50.4160 C   0  0  0  0  0  0  0  0  0  0  0  0
   49.2510   31.0530   49.7750 C   0  0  0  0  0  0  0  0  0  0  0  0
   48.6520   30.8520   48.5450 C   0  0  0  0  0  0  0  0  0  0  0  0
   47.9800   31.8550   47.8720 C   0  0  0  0  0  0  0  0  0  0  0  0
   47.0680   30.1100   45.1740 H   0  0  0  0  0  0  0  0  0  0  0  0
   48.2600   28.3320   46.3680 H   0  0  0  0  0  0  0  0  0  0  0  0
   50.5040   27.9260   50.3100 H   0  0  0  0  0  0  0  0  0  0  0  0
   50.3860   30.1840   51.3880 H   0  0  0  0  0  0  0  0  0  0  0  0
   49.1990   32.0210   50.2350 H   0  0  0  0  0  0  0  0  0  0  0  0
   47.9160   32.8310   48.3140 H   0  0  0  0  0  0  0  0  0  0  0  0
   48.6240   35.2880   41.1300 C   0  0  0  0  0  0  0  0  0  0  0  0
   48.0920   34.6850   39.9810 C   0  0  0  0  0  0  0  0  0  0  0  0
   47.0100   33.7960   40.1350 C   0  0  0  0  0  0  0  0  0  0  0  0
   46.5810   33.6060   41.3970 N   0  0  0  0  0  0  0  0  0  0  0  0
   47.1000   34.1900   42.4810 C   0  0  0  0  0  0  0  0  0  0  0  0
   48.1250   35.0350   42.3590 N   0  0  0  0  0  0  0  0  0  0  0  0
   49.4480   35.9600   40.9790 H   0  0  0  0  0  0  0  0  0  0  0  0
   48.4900   34.8900   39.0190 H   0  0  0  0  0  0  0  0  0  0  0  0
   44.0890   34.1410   40.0470 Cl  0  0  0  0  0  0  0  0  0  0  0  0
   45.0250   33.2220   38.8650 C   0  0  0  0  0  0  0  0  0  0  0  0
   46.3920   33.1240   39.0020 C   0  0  0  0  0  0  0  0  0  0  0  0
   47.0710   32.4030   38.0640 C   0  0  0  0  0  0  0  0  0  0  0  0
   48.1440   32.3040   38.1380 H   0  0  0  0  0  0  0  0  0  0  0  0
   46.3790   31.7950   37.0110 C   0  0  0  0  0  3  0  0  0  0  0  0
   45.0160   31.9140   36.9080 C   0  0  0  0  0  0  0  0  0  0  0  0
   44.1560   31.1450   35.5790 Cl  0  0  0  0  0  0  0  0  0  0  0  0
   44.3150   32.6380   37.8470 C   0  0  0  0  0  0  0  0  0  0  0  0
   43.2460   32.7310   37.7640 H   0  0  0  0  0  0  0  0  0  0  0  0
  1  2  1  0  0  0  0
  2  8  1  0  0  0  0
  3  2  2  0  0  0  0
  3  4  1  0  0  0  0
  4  5  2  0  0  0  0
  5  6  1  0  0  0  0
  5 11  1  0  0  0  0
  6  7  1  0  0  0  0
  8 10  1  0  0  0  0
  8  6  2  0  0  0  0
  9  4  1  0  0  0  0
 11 20  1  0  0  0  0
 12 11  2  0  0  0  0
 12 13  1  0  0  0  0
 13 14  2  0  0  0  0
 14 19  1  0  0  0  0
 14 15  1  0  0  0  0
 15 16  2  0  0  0  0
 16 23  1  0  0  0  0
 16 17  1  0  0  0  0
 17 24  1  0  0  0  0
 18 25  1  0  0  0  0
 18 17  2  0  0  0  0
 19 18  1  0  0  0  0
 20 26  1  0  0  0  0
 20 19  2  0  0  0  0
 21 12  1  0  0  0  0
 22 13  1  0  0  0  0
 27 32  1  0  0  0  0
 28 29  1  0  0  0  0
 28 27  2  0  0  0  0
 29 30  2  0  0  0  0
 30 31  1  0  0  0  0
 31  3  1  0  0  0  0
 32 31  2  0  0  0  0
 33 27  1  0  0  0  0
 34 28  1  0  0  0  0
 36 37  1  0  0  0  0
 36 35  1  0  0  0  0
 37 29  1  0  0  0  0
 38 39  1  0  0  0  0
 38 37  2  0  0  0  0
 40 38  1  0  0  0  0
 41 40  2  0  0  0  0
 41 43  1  0  0  0  0
 42 41  1  0  0  0  0
 43 36  2  0  0  0  0
 44 43  1  0  0  0  0
M  END
>  <minimizedAffinity>
-7.4593358

>  <minimizedRMSD>
0.573904693

$$$$
