
 OpenBabel03242518293D

 22 23  0  0  0  0  0  0  0  0999 V2000
   46.6860   33.6890   42.6950 C   0  0  0  0  0  0  0  0  0  0  0  0
   47.5640   32.8150   42.5570 O   0  0  0  0  0  0  0  0  0  0  0  0
   46.0120   34.0840   43.8890 C   0  0  0  0  0  0  0  0  0  0  0  0
   45.2510   35.2290   43.7480 C   0  0  0  0  0  0  0  0  0  0  0  0
   44.5500   35.6970   44.8630 C   0  0  0  0  0  0  0  0  0  0  0  0
   44.6520   35.0080   46.0150 N   0  0  0  0  0  0  0  0  0  0  0  0
   45.4150   33.8780   46.1140 C   0  0  0  0  0  0  0  0  0  0  0  0
   46.0900   33.4280   45.0420 N   0  0  0  0  0  0  0  0  0  0  0  0
   45.1110   35.8400   42.8770 H   0  0  0  0  0  0  0  0  0  0  0  0
   43.9320   36.5900   44.8290 H   0  0  0  0  0  0  0  0  0  0  0  0
   45.5170   33.3020   47.0290 H   0  0  0  0  0  0  0  0  0  0  0  0
   46.2980   34.3810   41.5410 O   0  0  0  0  0  0  0  0  0  0  0  0
   48.9100   35.7420   40.9590 Cl  0  0  0  0  0  0  0  0  0  0  0  0
   48.0770   34.6830   39.8270 C   0  0  0  0  0  0  0  0  0  0  0  0
   46.8900   34.1700   40.3130 C   0  0  0  0  0  0  0  0  0  0  0  0
   46.1860   33.3210   39.4530 C   0  0  0  0  0  0  0  0  0  0  0  0
   45.2480   32.8550   39.7120 H   0  0  0  0  0  0  0  0  0  0  0  0
   46.6600   33.0160   38.1850 C   0  0  0  0  0  0  0  0  0  0  0  0
   47.8330   33.5350   37.7270 C   0  0  0  0  0  0  0  0  0  0  0  0
   48.4460   33.1640   36.1340 Cl  0  0  0  0  0  0  0  0  0  0  0  0
   48.5330   34.3750   38.5720 C   0  0  0  0  0  0  0  0  0  0  0  0
   49.4700   34.8110   38.2550 H   0  0  0  0  0  0  0  0  0  0  0  0
  1  3  1  0  0  0  0
  2  1  2  0  0  0  0
  3  8  1  0  0  0  0
  4  3  2  0  0  0  0
  4  5  1  0  0  0  0
  5  6  2  0  0  0  0
  6  7  1  0  0  0  0
  7 11  1  0  0  0  0
  8  7  2  0  0  0  0
  9  4  1  0  0  0  0
 10  5  1  0  0  0  0
 12  1  1  0  0  0  0
 14 15  1  0  0  0  0
 14 13  1  0  0  0  0
 15 12  1  0  0  0  0
 16 17  1  0  0  0  0
 16 15  2  0  0  0  0
 18 16  1  0  0  0  0
 19 18  2  0  0  0  0
 19 21  1  0  0  0  0
 20 19  1  0  0  0  0
 21 14  2  0  0  0  0
 22 21  1  0  0  0  0
M  END
>  <minimizedAffinity>
-4.75943613

>  <minimizedRMSD>
1.09476268

$$$$
