
 OpenBabel03252508463D

 46 48  0  0  0  0  0  0  0  0999 V2000
   42.6850   31.4300   42.5860 N   0  0  0  0  0  0  0  0  0  0  0  0
   42.9530   31.7070   43.5680 H   0  0  0  0  0  0  0  0  0  0  0  0
   42.9990   32.4710   41.6590 C   0  0  0  0  0  0  0  0  0  0  0  0
   43.5090   32.0340   40.7800 H   0  0  0  0  0  0  0  0  0  0  0  0
   42.0780   32.9690   41.2640 H   0  0  0  0  0  0  0  0  0  0  0  0
   43.6650   34.8790   41.9010 C   0  0  0  0  0  0  0  0  0  0  0  0
   43.8920   33.5330   42.2120 C   0  0  0  0  0  0  0  0  0  0  0  0
   44.9530   33.2230   43.0360 C   0  0  0  0  0  0  0  0  0  0  0  0
   45.7590   34.2050   43.5320 C   0  0  0  0  0  0  0  0  0  0  0  0
   45.5550   35.5360   43.2390 C   0  0  0  0  0  0  0  0  0  0  0  0
   44.4790   35.8170   42.4080 C   0  0  0  0  0  0  0  0  0  0  0  0
   45.0820   32.1670   43.2440 H   0  0  0  0  0  0  0  0  0  0  0  0
   46.5700   33.8790   44.1700 H   0  0  0  0  0  0  0  0  0  0  0  0
   46.2130   36.2830   43.6510 H   0  0  0  0  0  0  0  0  0  0  0  0
   44.2850   36.8520   42.1540 H   0  0  0  0  0  0  0  0  0  0  0  0
   40.2610   35.7700   40.5360 C   0  0  0  0  0  0  0  0  0  0  0  0
   41.2780   35.5310   41.4830 C   0  0  0  0  0  0  0  0  0  0  0  0
   42.5370   35.1530   41.0300 C   0  0  0  0  0  0  0  0  0  0  0  0
   42.7020   35.0380   39.6780 N   0  0  0  0  0  0  0  0  0  0  0  0
   41.7090   35.2740   38.7870 C   0  0  0  0  0  0  0  0  0  0  0  0
   40.4990   35.6360   39.2300 N   0  0  0  0  0  0  0  0  0  0  0  0
   39.3490   36.0490   41.0210 H   0  0  0  0  0  0  0  0  0  0  0  0
   41.1830   35.6090   42.5380 H   0  0  0  0  0  0  0  0  0  0  0  0
   41.8260   35.1840   37.7280 H   0  0  0  0  0  0  0  0  0  0  0  0
   41.0040   31.0710   42.6320 S   0  0  0  0  0  0  0  0  0  0  0  0
   40.1810   32.3220   42.4330 O   0  0  0  0  0  0  0  0  0  0  0  0
   40.0660   32.7670   41.5440 H   0  0  0  0  0  0  0  0  0  0  0  0
   40.6280   30.3810   43.8880 O   0  0  0  0  0  0  0  0  0  0  0  0
   41.1400   30.2580   44.7220 H   0  0  0  0  0  0  0  0  0  0  0  0
   40.7070   30.0230   41.3480 O   0  0  0  0  0  0  0  0  0  0  0  0
   39.9280   28.9810   41.7840 C   0  0  0  0  0  0  0  0  0  0  0  0
   39.0770   28.8910   41.0780 H   0  0  0  0  0  0  0  0  0  0  0  0
   39.4990   29.0840   42.7890 H   0  0  0  0  0  0  0  0  0  0  0  0
   40.7450   27.6780   41.7110 C   0  0  0  0  0  0  0  0  0  0  0  0
   41.5130   27.7690   42.4800 H   0  0  0  0  0  0  0  0  0  0  0  0
   41.2280   27.6670   40.7390 H   0  0  0  0  0  0  0  0  0  0  0  0
   41.7070   25.3930   43.5190 Cl  0  0  0  0  0  0  0  0  0  0  0  0
   40.1620   25.4190   42.6960 C   0  0  0  0  0  0  0  0  0  0  0  0
   39.8510   26.5120   41.9200 C   0  0  0  0  0  0  0  0  0  0  0  0
   38.6180   26.5480   41.2590 C   0  0  0  0  0  0  0  0  0  0  0  0
   38.3530   27.4000   40.6450 H   0  0  0  0  0  0  0  0  0  0  0  0
   37.7090   25.5170   41.3660 C   0  0  0  0  0  3  0  0  0  0  0  0
   38.0580   24.4450   42.1500 C   0  0  0  0  0  0  0  0  0  0  0  0
   36.8790   23.1360   42.2690 Cl  0  0  0  0  0  0  0  0  0  0  0  0
   39.2690   24.3590   42.8280 C   0  0  0  0  0  0  0  0  0  0  0  0
   39.5070   23.4820   43.4460 H   0  0  0  0  0  0  0  0  0  0  0  0
  1 25  1  0  0  0  0
  1  2  1  0  0  0  0
  3  7  1  0  0  0  0
  3  1  1  0  0  0  0
  4  3  1  0  0  0  0
  5  3  1  0  0  0  0
  6  7  2  0  0  0  0
  6 11  1  0  0  0  0
  7  8  1  0  0  0  0
  8 12  1  0  0  0  0
  8  9  2  0  0  0  0
  9 13  1  0  0  0  0
 10  9  1  0  0  0  0
 10 14  1  0  0  0  0
 11 10  2  0  0  0  0
 15 11  1  0  0  0  0
 16 22  1  0  0  0  0
 16 17  1  0  0  0  0
 17 23  1  0  0  0  0
 18 17  2  0  0  0  0
 18  6  1  0  0  0  0
 19 18  1  0  0  0  0
 20 21  1  0  0  0  0
 20 19  2  0  0  0  0
 21 16  2  0  0  0  0
 24 20  1  0  0  0  0
 25 28  1  0  0  0  0
 26 25  1  0  0  0  0
 27 26  1  0  0  0  0
 28 29  1  0  0  0  0
 30 31  1  0  0  0  0
 30 25  1  0  0  0  0
 31 33  1  0  0  0  0
 32 31  1  0  0  0  0
 34 31  1  0  0  0  0
 34 39  1  0  0  0  0
 34 35  1  0  0  0  0
 36 34  1  0  0  0  0
 38 45  1  0  0  0  0
 38 37  1  0  0  0  0
 39 38  2  0  0  0  0
 40 42  2  0  0  0  0
 40 39  1  0  0  0  0
 41 40  1  0  0  0  0
 42 43  1  0  0  0  0
 43 44  1  0  0  0  0
 43 45  2  0  0  0  0
 45 46  1  0  0  0  0
M  END
>  <minimizedAffinity>
-5.28818178

>  <minimizedRMSD>
0.973852396

$$$$
