
 OpenBabel03242515393D

 37 40  0  0  0  0  0  0  0  0999 V2000
   43.8200   34.7170   40.9230 C   0  0  0  0  0  0  0  0  0  0  0  0
   43.7680   33.8860   39.8180 C   0  0  0  0  0  0  0  0  0  0  0  0
   44.9650   33.3160   39.3830 C   0  0  0  0  0  0  0  0  0  0  0  0
   46.1020   33.6150   40.0720 N   0  0  0  0  0  0  0  0  0  0  0  0
   46.1170   34.4200   41.1330 C   0  0  0  0  0  0  0  0  0  0  0  0
   44.9770   34.9520   41.5340 N   0  0  0  0  0  0  0  0  0  0  0  0
   42.8360   33.6950   39.3250 H   0  0  0  0  0  0  0  0  0  0  0  0
   42.3150   32.4590   38.3860 Cl  0  0  0  0  0  0  0  0  0  0  0  0
   43.8560   31.9670   37.6850 C   0  0  0  0  0  0  0  0  0  0  0  0
   45.0170   32.4390   38.2460 C   0  0  0  0  0  0  0  0  0  0  0  0
   46.1690   32.0000   37.6300 C   0  0  0  0  0  0  0  0  0  0  0  0
   47.1210   32.3290   38.0150 H   0  0  0  0  0  0  0  0  0  0  0  0
   46.1570   31.1450   36.5240 C   0  0  0  0  0  3  0  0  0  0  0  0
   44.9380   30.7130   36.0160 C   0  0  0  0  0  0  0  0  0  0  0  0
   44.9840   29.6460   34.6350 Cl  0  0  0  0  0  0  0  0  0  0  0  0
   43.7590   31.1320   36.6080 C   0  0  0  0  0  0  0  0  0  0  0  0
   42.8130   30.7880   36.2030 H   0  0  0  0  0  0  0  0  0  0  0  0
   42.2490   35.4380   41.4580 S   0  0  0  0  0  0  0  0  0  0  0  0
   39.9310   34.8390   40.2130 C   0  0  0  0  0  0  0  0  0  0  0  0
   40.9000   34.3270   41.0810 C   0  0  0  0  0  0  0  0  0  0  0  0
   40.7910   33.0470   41.5910 C   0  0  0  0  0  0  0  0  0  0  0  0
   39.7260   32.2240   41.2700 C   0  0  0  0  0  0  0  0  0  0  0  0
   38.7500   32.7450   40.3940 C   0  0  0  0  0  0  0  0  0  0  0  0
   38.8500   34.0290   39.8740 C   0  0  0  0  0  0  0  0  0  0  0  0
   37.7800   31.7260   40.2220 O   0  0  0  0  0  0  0  0  0  0  0  0
   37.9950   30.8110   41.2680 C   0  0  0  0  0  0  0  0  0  0  0  0
   39.3650   30.9340   41.6210 O   0  0  0  0  0  0  0  0  0  0  0  0
   39.9780   35.8270   39.7940 H   0  0  0  0  0  0  0  0  0  0  0  0
   41.5700   32.7070   42.2570 H   0  0  0  0  0  0  0  0  0  0  0  0
   38.1120   34.4260   39.2110 H   0  0  0  0  0  0  0  0  0  0  0  0
   37.7020   29.7810   41.0280 H   0  0  0  0  0  0  0  0  0  0  0  0
   37.4230   31.1960   42.1530 H   0  0  0  0  0  0  0  0  0  0  0  0
   47.2470   34.7340   41.8400 O   0  0  0  0  0  0  0  0  0  0  0  0
   48.4450   34.9920   41.1720 C   0  0  0  0  0  0  0  0  0  0  0  0
   49.3780   34.0090   41.3580 F   0  0  0  0  0  0  0  0  0  0  0  0
   48.0910   35.1570   39.8240 F   0  0  0  0  0  0  0  0  0  0  0  0
   48.9640   36.1680   41.6910 F   0  0  0  0  0  0  0  0  0  0  0  0
  1 18  1  0  0  0  0
  1  6  1  0  0  0  0
  2  1  2  0  0  0  0
  3  2  1  0  0  0  0
  3  4  2  0  0  0  0
  4  5  1  0  0  0  0
  5  6  2  0  0  0  0
  5 33  1  0  0  0  0
  7  2  1  0  0  0  0
  9 10  1  0  0  0  0
  9  8  1  0  0  0  0
 10  3  1  0  0  0  0
 11 12  1  0  0  0  0
 11 10  2  0  0  0  0
 13 11  1  0  0  0  0
 14 13  2  0  0  0  0
 14 16  1  0  0  0  0
 15 14  1  0  0  0  0
 16  9  2  0  0  0  0
 17 16  1  0  0  0  0
 19 20  1  0  0  0  0
 20 18  1  0  0  0  0
 20 21  2  0  0  0  0
 21 29  1  0  0  0  0
 22 21  1  0  0  0  0
 22 27  1  0  0  0  0
 23 22  2  0  0  0  0
 24 19  2  0  0  0  0
 24 23  1  0  0  0  0
 25 23  1  0  0  0  0
 25 26  1  0  0  0  0
 26 27  1  0  0  0  0
 26 32  1  0  0  0  0
 28 19  1  0  0  0  0
 30 24  1  0  0  0  0
 31 26  1  0  0  0  0
 34 35  1  0  0  0  0
 34 37  1  0  0  0  0
 34 33  1  0  0  0  0
 36 34  1  0  0  0  0
M  END
>  <minimizedAffinity>
-6.17415762

>  <minimizedRMSD>
0.382056862

$$$$
