
 OpenBabel03252508143D

 38 41  0  0  1  0  0  0  0  0999 V2000
   45.7220   33.0170   46.1310 C   0  0  0  0  0  3  0  0  0  0  0  0
   45.9650   31.8190   45.7840 C   0  0  0  0  0  3  0  0  0  0  0  0
   44.7160   36.0410   44.2840 C   0  0  0  0  0  0  0  0  0  0  0  0
   45.3430   35.8940   43.0550 C   0  0  0  0  0  0  0  0  0  0  0  0
   46.1110   34.7550   42.8970 C   0  0  0  0  0  0  0  0  0  0  0  0
   46.2170   33.8630   43.9080 N   0  0  0  0  0  0  0  0  0  0  0  0
   45.5970   34.0330   45.0860 C   0  0  0  0  0  0  0  0  0  0  0  0
   44.8530   35.1330   45.2490 N   0  0  0  0  0  0  0  0  0  0  0  0
   44.0840   36.8620   44.5830 H   0  0  0  0  0  0  0  0  0  0  0  0
   45.1270   36.7130   42.3940 H   0  0  0  0  0  0  0  0  0  0  0  0
   44.6980   33.0680   40.7530 Cl  0  0  0  0  0  0  0  0  0  0  0  0
   46.2310   33.8750   40.5640 C   0  0  0  0  0  0  0  0  0  0  0  0
   46.7520   34.6020   41.6110 C   0  0  0  0  0  0  0  0  0  0  0  0
   47.9580   35.1790   41.2950 C   0  0  0  0  0  0  0  0  0  0  0  0
   48.5010   35.7750   41.9890 H   0  0  0  0  0  0  0  0  0  0  0  0
   48.5900   35.0570   40.0770 C   0  0  0  0  0  3  0  0  0  0  0  0
   48.0220   34.3180   39.0680 C   0  0  0  0  0  0  0  0  0  0  0  0
   48.8000   34.1490   37.5220 Cl  0  0  0  0  0  0  0  0  0  0  0  0
   46.8060   33.7120   39.3270 C   0  0  0  0  0  0  0  0  0  0  0  0
   46.3730   33.1350   38.5250 H   0  0  0  0  0  0  0  0  0  0  0  0
   46.0660   30.8150   46.9240 C   0  0  0  0  0  0  0  0  0  0  0  0
   45.1890   30.1190   46.8120 H   0  0  0  0  0  0  0  0  0  0  0  0
   46.9720   30.2120   46.8590 H   0  0  0  0  0  0  0  0  0  0  0  0
   45.9150   31.5290   48.2280 C   0  0  1  0  0  0  0  0  0  0  0  0
   45.7030   30.6830   49.4400 C   0  0  0  0  0  0  0  0  0  0  0  0
   46.9610   31.3850   49.2740 C   0  0  1  0  0  0  0  0  0  0  0  0
   45.3530   32.4960   48.2190 H   0  0  0  0  0  0  0  0  0  0  0  0
   44.9530   30.9890   50.2150 H   0  0  0  0  0  0  0  0  0  0  0  0
   45.7530   29.5630   49.3240 H   0  0  0  0  0  0  0  0  0  0  0  0
   47.0960   32.2820   49.9520 H   0  0  0  0  0  0  0  0  0  0  0  0
   48.2420   30.7610   48.8860 C   0  0  0  0  0  0  0  0  0  0  0  0
   49.1790   30.4360   50.0810 C   0  0  0  0  0  0  0  0  0  0  0  0
   49.5130   31.5870   49.1960 C   0  0  0  0  0  0  0  0  0  0  0  0
   48.3030   30.0870   48.0190 H   0  0  0  0  0  0  0  0  0  0  0  0
   49.8210   29.5460   49.9140 H   0  0  0  0  0  0  0  0  0  0  0  0
   48.8020   30.6570   51.0950 H   0  0  0  0  0  0  0  0  0  0  0  0
   50.2940   31.5310   48.4360 H   0  0  0  0  0  0  0  0  0  0  0  0
   49.3510   32.6240   49.5650 H   0  0  0  0  0  0  0  0  0  0  0  0
  2  1  2  0  0  0  0
  2 21  1  0  0  0  0
  3  9  1  0  0  0  0
  3  8  1  0  0  0  0
  4  3  2  0  0  0  0
  5  4  1  0  0  0  0
  5  6  2  0  0  0  0
  6  7  1  0  0  0  0
  7  8  2  0  0  0  0
  7  1  1  0  0  0  0
 10  4  1  0  0  0  0
 12 11  1  0  0  0  0
 12 13  1  0  0  0  0
 13  5  1  0  0  0  0
 14 13  2  0  0  0  0
 14 15  1  0  0  0  0
 16 14  1  0  0  0  0
 17 19  1  0  0  0  0
 17 16  2  0  0  0  0
 18 17  1  0  0  0  0
 19 12  2  0  0  0  0
 20 19  1  0  0  0  0
 21 24  1  0  0  0  0
 22 21  1  0  0  0  0
 23 21  1  0  0  0  0
 24 27  1  6  0  0  0
 24 26  1  0  0  0  0
 24 25  1  0  0  0  0
 25 28  1  0  0  0  0
 26 25  1  0  0  0  0
 26 30  1  1  0  0  0
 29 25  1  0  0  0  0
 31 33  1  0  0  0  0
 31 26  1  0  0  0  0
 31 32  1  0  0  0  0
 32 36  1  0  0  0  0
 33 38  1  0  0  0  0
 33 32  1  0  0  0  0
 34 31  1  0  0  0  0
 35 32  1  0  0  0  0
 37 33  1  0  0  0  0
M  END
>  <minimizedAffinity>
-6.21660757

>  <minimizedRMSD>
0.73567307

$$$$
