REMARK  Name = 
REMARK  6 active torsions:
REMARK  status: ('A' for Active; 'I' for Inactive)
REMARK    1  A    between atoms: C_1  and  C_7
REMARK    2  A    between atoms: C_2  and  C_15
REMARK    3  A    between atoms: C_5  and  C_9
REMARK    4  A    between atoms: C_15  and  C_16
REMARK    5  A    between atoms: C_18  and  C_19
REMARK    6  A    between atoms: C_21  and  C_43
REMARK                            x       y       z     vdW  Elec       q    Type
REMARK                         _______ _______ _______ _____ _____    ______ ____
ROOT
ATOM      1  C   UNL     1      46.093  30.893  46.908  0.00  0.00    +0.000 C 
ATOM      2  H   UNL     1      45.331  30.074  46.758  0.00  0.00    +0.000 HD
ATOM      3  H   UNL     1      47.053  30.444  46.699  0.00  0.00    +0.000 HD
ENDROOT
BRANCH   1   4
ATOM      4  C   UNL     1      45.893  31.499  48.256  0.00  0.00    +0.000 C 
ATOM      5  C   UNL     1      45.713  30.533  49.376  0.00  0.00    +0.000 C 
ATOM      6  C   UNL     1      46.926  31.338  49.300  0.00  0.00    +0.000 C 
ATOM      7  H   UNL     1      45.072  32.274  48.309  0.00  0.00    +0.000 HD
ATOM      8  H   UNL     1      45.005  30.710  50.208  0.00  0.00    +0.000 HD
ATOM      9  H   UNL     1      45.790  29.447  49.143  0.00  0.00    +0.000 HD
ATOM     10  H   UNL     1      47.019  32.174  50.023  0.00  0.00    +0.000 HD
BRANCH   6  11
ATOM     11  C   UNL     1      48.239  30.742  48.903  0.00  0.00    +0.000 C 
ATOM     12  C   UNL     1      49.177  30.498  50.114  0.00  0.00    +0.000 C 
ATOM     13  C   UNL     1      49.503  31.557  49.156  0.00  0.00    +0.000 C 
ATOM     14  H   UNL     1      48.280  29.872  48.213  0.00  0.00    +0.000 HD
ATOM     15  H   UNL     1      49.803  29.611  50.149  0.00  0.00    +0.000 HD
ATOM     16  H   UNL     1      48.848  30.839  51.111  0.00  0.00    +0.000 HD
ATOM     17  H   UNL     1      50.317  31.335  48.429  0.00  0.00    +0.000 HD
BRANCH  13  20
ATOM     18 CL   UNL     1      50.465  32.490  51.810  0.00  0.00    +0.000 Cl
ATOM     19  C   UNL     1      49.658  33.537  50.632  0.00  0.00    +0.000 A 
ATOM     20  C   UNL     1      49.254  32.988  49.427  0.00  0.00    +0.000 A 
ATOM     21  C   UNL     1      48.626  33.830  48.528  0.00  0.00    +0.000 A 
ATOM     22  H   UNL     1      48.295  33.444  47.577  0.00  0.00    +0.000 HD
ATOM     23  C   UNL     1      48.403  35.170  48.805  0.00  0.00    +0.000 A 
ATOM     24  C   UNL     1      48.823  35.673  50.019  0.00  0.00    +0.000 A 
ATOM     25 CL   UNL     1      48.571  37.372  50.438  0.00  0.00    +0.000 Cl
ATOM     26  C   UNL     1      49.454  34.880  50.955  0.00  0.00    +0.000 A 
ATOM     27  H   UNL     1      49.773  35.301  51.898  0.00  0.00    +0.000 HD
ENDBRANCH  13  20
ENDBRANCH   6  11
ENDBRANCH   1   4
BRANCH   1  29
ATOM     28  C   UNL     1      45.749  33.124  46.228  0.00  0.00    +0.000 C 
ATOM     29  C   UNL     1      45.912  31.935  45.826  0.00  0.00    +0.000 C 
BRANCH  28  34
ATOM     30  C   UNL     1      44.544  36.146  44.493  0.00  0.00    +0.000 A 
ATOM     31  C   UNL     1      45.214  36.099  43.279  0.00  0.00    +0.000 A 
ATOM     32  C   UNL     1      46.053  35.036  43.089  0.00  0.00    +0.000 A 
ATOM     33  N   UNL     1      46.190  34.099  44.067  0.00  0.00    +0.000 NA
ATOM     34  C   UNL     1      45.522  34.178  45.234  0.00  0.00    +0.000 A 
ATOM     35  N   UNL     1      44.711  35.206  45.417  0.00  0.00    +0.000 NA
ATOM     36  H   UNL     1      43.865  36.977  44.685  0.00  0.00    +0.000 HD
ATOM     37  H   UNL     1      45.107  36.839  42.506  0.00  0.00    +0.000 HD
BRANCH  32  38
ATOM     38  C   UNL     1      46.822  34.854  41.868  0.00  0.00    +0.000 A 
ATOM     39  C   UNL     1      48.053  35.408  41.639  0.00  0.00    +0.000 A 
ATOM     40  C   UNL     1      48.771  35.226  40.471  0.00  0.00    +0.000 A 
ATOM     41  C   UNL     1      48.248  34.454  39.468  0.00  0.00    +0.000 A 
ATOM     42  C   UNL     1      47.019  33.875  39.642  0.00  0.00    +0.000 A 
ATOM     43  C   UNL     1      46.343  34.087  40.828  0.00  0.00    +0.000 A 
ATOM     44  H   UNL     1      48.485  36.031  42.437  0.00  0.00    +0.000 HD
ATOM     45  H   UNL     1      49.742  35.724  40.414  0.00  0.00    +0.000 HD
ATOM     46  H   UNL     1      48.895  34.377  38.593  0.00  0.00    +0.000 HD
ATOM     47  H   UNL     1      46.643  33.275  38.830  0.00  0.00    +0.000 HD
ATOM     48  H   UNL     1      45.381  33.593  40.880  0.00  0.00    +0.000 HD
ENDBRANCH  32  38
ENDBRANCH  28  34
ENDBRANCH   1  29
TORSDOF 6
