
 OpenBabel03242520293D

 42 44  0  0  0  0  0  0  0  0999 V2000
   45.8930   35.1580   43.0660 C   0  0  0  0  0  0  0  0  0  0  0  0
   46.7050   34.1580   43.6700 C   0  0  0  0  0  0  0  0  0  0  0  0
   46.3930   33.7630   44.9640 C   0  0  0  0  0  0  0  0  0  0  0  0
   45.3330   34.3460   45.5960 N   0  0  0  0  0  0  0  0  0  0  0  0
   44.5780   35.2950   44.9970 C   0  0  0  0  0  0  0  0  0  0  0  0
   44.8600   35.6910   43.7500 N   0  0  0  0  0  0  0  0  0  0  0  0
   46.1080   35.4870   42.0610 H   0  0  0  0  0  0  0  0  0  0  0  0
   43.7450   35.7460   45.5080 H   0  0  0  0  0  0  0  0  0  0  0  0
   47.7620   33.6620   42.8730 N   0  0  0  0  0  0  0  0  0  0  0  0
   49.0840   34.2630   42.8560 C   0  0  0  0  0  0  0  0  0  0  0  0
   50.0000   33.4200   42.0150 C   0  0  0  0  0  0  0  0  0  0  0  0
   49.4770   33.1380   40.7210 N   0  0  0  0  0  0  0  0  0  0  0  0
   48.1380   32.6380   40.6980 C   0  0  0  0  0  0  0  0  0  0  0  0
   47.4950   32.4920   42.0310 C   0  0  0  0  0  0  0  0  0  0  0  0
   49.5030   34.4470   43.8390 H   0  0  0  0  0  0  0  0  0  0  0  0
   48.9710   35.2440   42.3360 H   0  0  0  0  0  0  0  0  0  0  0  0
   50.1480   32.4510   42.5610 H   0  0  0  0  0  0  0  0  0  0  0  0
   50.9610   33.9370   41.9180 H   0  0  0  0  0  0  0  0  0  0  0  0
   49.5710   34.0240   40.1560 H   0  0  0  0  0  0  0  0  0  0  0  0
   48.0690   31.6830   40.1510 H   0  0  0  0  0  0  0  0  0  0  0  0
   47.5020   33.3590   40.1130 H   0  0  0  0  0  0  0  0  0  0  0  0
   47.9500   31.6160   42.5330 H   0  0  0  0  0  0  0  0  0  0  0  0
   46.4100   32.3620   41.8930 H   0  0  0  0  0  0  0  0  0  0  0  0
   47.1980   32.7940   45.5180 O   0  0  0  0  0  0  0  0  0  0  0  0
   45.4690   30.8460   44.9870 O   0  0  0  0  0  0  0  0  0  0  0  0
   46.4890   31.3020   46.0390 P   0  0  1  0  0  0  0  0  0  0  0  0
   47.6990   30.1960   46.2590 O   0  0  0  0  0  0  0  0  0  0  0  0
   50.2270   29.5600   47.6340 Cl  0  0  0  0  0  0  0  0  0  0  0  0
   48.7950   28.5520   47.4690 C   0  0  0  0  0  0  0  0  0  0  0  0
   47.6270   28.9280   46.7970 C   0  0  0  0  0  0  0  0  0  0  0  0
   46.5790   28.0320   46.7490 C   0  0  0  0  0  0  0  0  0  0  0  0
   45.7070   28.4080   46.2040 H   0  0  0  0  0  0  0  0  0  0  0  0
   46.6620   26.7940   47.3390 C   0  0  0  0  0  0  0  0  0  0  0  0
   47.8270   26.4340   48.0030 C   0  0  0  0  0  0  0  0  0  0  0  0
   47.8650   24.8420   48.7330 Cl  0  0  0  0  0  0  0  0  0  0  0  0
   48.8950   27.3100   48.0710 C   0  0  0  0  0  0  0  0  0  0  0  0
   49.7530   26.9560   48.5980 H   0  0  0  0  0  0  0  0  0  0  0  0
   45.6520   31.6470   47.4630 O   0  0  0  0  0  0  0  0  0  0  0  0
   46.4880   31.9160   48.5150 C   0  0  0  0  0  0  0  0  0  0  0  0
   47.6010   32.6410   48.1630 F   0  0  0  0  0  0  0  0  0  0  0  0
   46.8620   30.8120   49.2360 F   0  0  0  0  0  0  0  0  0  0  0  0
   45.7310   32.7070   49.3900 F   0  0  0  0  0  0  0  0  0  0  0  0
  1  2  2  0  0  0  0
  1  6  1  0  0  0  0
  2  3  1  0  0  0  0
  3 24  1  0  0  0  0
  3  4  2  0  0  0  0
  5  8  1  0  0  0  0
  5  4  1  0  0  0  0
  6  5  2  0  0  0  0
  7  1  1  0  0  0  0
  9  2  1  0  0  0  0
 10  9  1  0  0  0  0
 10 15  1  0  0  0  0
 11 17  1  0  0  0  0
 11 10  1  0  0  0  0
 12 11  1  0  0  0  0
 13 12  1  0  0  0  0
 13 14  1  0  0  0  0
 14 22  1  0  0  0  0
 14  9  1  0  0  0  0
 16 10  1  0  0  0  0
 18 11  1  0  0  0  0
 19 12  1  0  0  0  0
 20 13  1  0  0  0  0
 21 13  1  0  0  0  0
 23 14  1  0  0  0  0
 24 26  1  0  0  0  0
 26 25  2  6  0  0  0
 26 27  1  0  0  0  0
 26 38  1  0  0  0  0
 27 30  1  0  0  0  0
 29 28  1  0  0  0  0
 29 36  1  0  0  0  0
 30 29  2  0  0  0  0
 31 30  1  0  0  0  0
 31 33  2  0  0  0  0
 32 31  1  0  0  0  0
 33 34  1  0  0  0  0
 34 36  2  0  0  0  0
 34 35  1  0  0  0  0
 36 37  1  0  0  0  0
 38 39  1  0  0  0  0
 39 41  1  0  0  0  0
 39 42  1  0  0  0  0
 40 39  1  0  0  0  0
M  END
>  <minimizedAffinity>
-5.50342798

>  <minimizedRMSD>
1.23195851

$$$$
