
     RDKit          3D

 30 32  0  0  0  0  0  0  0  0999 V2000
   45.5322   34.1285   44.3986 C   0  0  0  0  0  0  0  0  0  0  0  0
   46.4901   33.5927   43.5369 C   0  0  0  0  0  0  0  0  0  0  0  0
   47.3760   32.6798   44.0594 C   0  0  0  0  0  0  0  0  0  0  0  0
   47.2785   32.3468   45.3705 N   0  0  0  0  0  0  0  0  0  0  0  0
   46.3439   32.8820   46.1696 C   0  0  0  0  0  0  0  0  0  0  0  0
   45.4558   33.7848   45.6842 N   0  0  0  0  0  0  0  0  0  0  0  0
   46.4052   32.3900   47.5861 C   0  0  0  0  0  0  0  0  0  0  0  0
   45.3755   32.9042   48.3519 F   0  0  0  0  0  0  0  0  0  0  0  0
   47.6123   32.7732   48.1736 F   0  0  0  0  0  0  0  0  0  0  0  0
   46.3941   30.9996   47.5818 F   0  0  0  0  0  0  0  0  0  0  0  0
   44.5813   35.1510   43.8715 C   0  0  1  0  0  0  0  0  0  0  0  0
   44.9004   36.6000   44.3234 C   0  0  0  0  0  0  0  0  0  0  0  0
   44.9728   36.1844   42.9205 C   0  0  1  0  0  0  0  0  0  0  0  0
   46.6360   33.7888   42.5090 H   0  0  0  0  0  0  0  0  0  0  0  0
   48.1601   32.2043   43.4719 H   0  0  0  0  0  0  0  0  0  0  0  0
   43.5320   34.8390   44.0184 H   0  0  0  0  0  0  0  0  0  0  0  0
   43.9754   37.1257   44.7078 H   0  0  0  0  0  0  0  0  0  0  0  0
   45.6989   36.6587   45.0528 H   0  0  0  0  0  0  0  0  0  0  0  0
   44.0516   36.5946   42.3360 H   0  0  0  0  0  0  0  0  0  0  0  0
   44.7950   36.7169   39.8085 Cl  0  0  0  0  0  0  0  0  0  0  0  0
   46.2615   36.4071   40.7030 C   0  0  0  0  0  0  0  0  0  0  0  0
   46.1327   36.2070   42.0547 C   0  0  0  0  0  0  0  0  0  0  0  0
   47.3846   35.9654   42.6502 C   0  0  0  0  0  0  0  0  0  0  0  0
   47.4461   35.7866   43.7266 H   0  0  0  0  0  0  0  0  0  0  0  0
   48.5808   35.9335   41.9691 C   0  0  0  0  0  0  0  0  0  0  0  0
   48.6137   36.1465   40.6079 C   0  0  0  0  0  0  0  0  0  0  0  0
   50.1392   36.0973   39.7940 Cl  0  0  0  0  0  0  0  0  0  0  0  0
   47.4174   36.3885   39.9690 C   0  0  0  0  0  0  0  0  0  0  0  0
   47.4261   36.5560   38.9107 H   0  0  0  0  0  0  0  0  0  0  0  0
   49.5029   35.7422   42.4913 H   0  0  0  0  0  0  0  0  0  0  0  0
  1  6  2  0
  2  3  2  0
  2  1  1  0
  3  4  1  0
  4  5  2  0
  5  7  1  0
  6  5  1  0
  7  9  1  0
  7  8  1  0
 10  7  1  0
 11 12  1  0
 11  1  1  0
 13 11  1  0
 13 12  1  0
  2 14  1  0
  3 15  1  0
 11 16  1  6
 12 17  1  0
 12 18  1  0
 13 19  1  6
 20 21  1  0
 21 22  2  0
 22 23  1  0
 23 24  1  0
 23 25  2  0
 25 26  1  0
 26 27  1  0
 26 28  2  0
 28 29  1  0
 28 21  1  0
 25 30  1  0
 13 22  1  0
M  ISO  8  14  14  15  14  16  13  17  13  18  13  19  13  24  16  29  15
M  END
>  <DihAtoms>  (1) 
10,12,21,20

>  <DihDeg>  (1) 
-82.15852100489948

$$$$
