
 OpenBabel03242523403D

 38 42  0  0  1  0  0  0  0  0999 V2000
   46.7280   32.6710   45.0060 C   0  0  2  0  0  0  0  0  0  0  0  0
   47.3380   31.5560   44.9210 N   0  0  2  0  0  4  0  0  0  0  0  0
   47.3460   30.3220   44.7050 C   0  0  0  0  0  0  0  0  0  0  0  0
   47.7710   30.2170   46.0090 N   0  0  0  0  0  0  0  0  0  0  0  0
   47.0000   30.9910   46.8500 C   0  0  2  0  0  3  0  0  0  0  0  0
   46.8190   30.4720   48.1640 C   0  0  0  0  0  0  0  0  0  0  0  0
   46.0140   31.1650   48.9800 C   0  0  0  0  0  0  0  0  0  0  0  0
   45.3740   32.3070   48.6420 C   0  0  0  0  0  0  0  0  0  0  0  0
   45.6410   32.7040   47.3290 C   0  0  0  0  0  0  0  0  0  0  0  0
   46.4270   32.1640   46.3150 C   0  0  1  0  0  0  0  0  0  0  0  0
   47.6210   33.4140   45.3590 H   0  0  0  0  0  0  0  0  0  0  0  0
   48.1770   31.8080   44.2350 H   0  0  0  0  0  0  0  0  0  0  0  0
   48.0520   29.7250   44.0440 H   0  0  0  0  0  0  0  0  0  0  0  0
   46.3850   29.7930   44.5300 H   0  0  0  0  0  0  0  0  0  0  0  0
   48.5930   29.6090   46.3290 H   0  0  0  0  0  0  0  0  0  0  0  0
   47.2920   29.5780   48.5090 H   0  0  0  0  0  0  0  0  0  0  0  0
   45.8800   30.7550   49.9990 H   0  0  0  0  0  0  0  0  0  0  0  0
   44.7400   32.8260   49.3250 H   0  0  0  0  0  0  0  0  0  0  0  0
   45.0650   33.6180   47.1960 H   0  0  0  0  0  0  0  0  0  0  0  0
   44.5150   35.6320   45.0220 C   0  0  0  0  0  0  0  0  0  0  0  0
   44.0770   35.5100   43.6860 C   0  0  0  0  0  0  0  0  0  0  0  0
   44.5580   34.4420   42.9570 C   0  0  0  0  0  0  0  0  0  0  0  0
   45.4140   33.6010   43.5900 N   0  0  0  0  0  0  0  0  0  0  0  0
   45.8270   33.7380   44.8870 C   0  0  0  0  0  0  0  0  0  0  0  0
   45.3410   34.7380   45.4820 N   0  0  0  0  0  0  0  0  0  0  0  0
   44.1930   36.4390   45.6790 H   0  0  0  0  0  0  0  0  0  0  0  0
   43.3940   36.2690   43.3370 H   0  0  0  0  0  0  0  0  0  0  0  0
   44.0030   34.2760   41.3100 S   0  0  0  0  0  0  0  0  0  0  0  0
   41.4200   35.9720   41.0640 Cl  0  0  0  0  0  0  0  0  0  0  0  0
   41.2720   34.2300   41.1850 C   0  0  0  0  0  0  0  0  0  0  0  0
   42.4170   33.4440   41.2960 C   0  0  0  0  0  0  0  0  0  0  0  0
   42.2430   32.0640   41.3900 C   0  0  0  0  0  0  0  0  0  0  0  0
   43.1590   31.4730   41.4760 H   0  0  0  0  0  0  0  0  0  0  0  0
   40.9690   31.5250   41.3700 C   0  0  0  0  0  3  0  0  0  0  0  0
   39.8490   32.3260   41.2580 C   0  0  0  0  0  0  0  0  0  0  0  0
   38.2360   31.6450   41.2320 Cl  0  0  0  0  0  0  0  0  0  0  0  0
   39.9810   33.6970   41.1640 C   0  0  0  0  0  0  0  0  0  0  0  0
   39.1220   34.3660   41.0740 H   0  0  0  0  0  0  0  0  0  0  0  0
  1 11  1  1  0  0  0
  1 10  1  0  0  0  0
  2 12  1  1  0  0  0
  2  1  1  0  0  0  0
  2 10  1  0  0  0  0
  3  2  1  0  0  0  0
  3  4  1  0  0  0  0
  4 15  1  0  0  0  0
  4  5  1  0  0  0  0
  5  6  1  6  0  0  0
  6 16  1  0  0  0  0
  6  7  2  0  0  0  0
  7 17  1  0  0  0  0
  8  7  1  0  0  0  0
  8 18  1  0  0  0  0
  9  8  2  0  0  0  0
 10  5  1  0  0  0  0
 10  9  1  6  0  0  0
 13  3  1  0  0  0  0
 14  3  1  0  0  0  0
 19  9  1  0  0  0  0
 20 25  1  0  0  0  0
 20 26  1  0  0  0  0
 21 20  2  0  0  0  0
 22 23  2  0  0  0  0
 22 21  1  0  0  0  0
 23 24  1  0  0  0  0
 24  1  1  0  0  0  0
 24 25  2  0  0  0  0
 27 21  1  0  0  0  0
 28 22  1  0  0  0  0
 29 30  1  0  0  0  0
 30 31  1  0  0  0  0
 31 28  1  0  0  0  0
 31 32  2  0  0  0  0
 32 33  1  0  0  0  0
 34 32  1  0  0  0  0
 35 34  2  0  0  0  0
 36 35  1  0  0  0  0
 37 30  2  0  0  0  0
 37 35  1  0  0  0  0
 38 37  1  0  0  0  0
M  END
>  <minimizedAffinity>
-6.33566618

>  <minimizedRMSD>
0.962680757

$$$$
