
 OpenBabel03242516223D

 30 32  0  0  0  0  0  0  0  0999 V2000
   46.0260   32.7730   47.0430 C   0  0  0  0  0  0  0  0  0  0  0  0
   47.2740   32.4870   47.5370 C   0  0  0  0  0  0  0  0  0  0  0  0
   47.4840   31.7070   48.6510 C   0  0  0  0  0  0  0  0  0  0  0  0
   46.3850   31.1780   49.3200 C   0  0  0  0  0  0  0  0  0  0  0  0
   45.1330   31.4400   48.8600 C   0  0  0  0  0  0  0  0  0  0  0  0
   44.9880   32.2300   47.7360 C   0  0  0  0  0  0  0  0  0  0  0  0
   48.1460   32.9050   47.0100 H   0  0  0  0  0  0  0  0  0  0  0  0
   46.5630   30.5610   50.2020 H   0  0  0  0  0  0  0  0  0  0  0  0
   44.2680   31.0350   49.3690 H   0  0  0  0  0  0  0  0  0  0  0  0
   43.9680   32.4070   47.4110 H   0  0  0  0  0  0  0  0  0  0  0  0
   44.7050   35.3650   44.8420 C   0  0  0  0  0  0  0  0  0  0  0  0
   45.4470   35.2260   43.6750 C   0  0  0  0  0  0  0  0  0  0  0  0
   46.4120   34.2310   43.6380 C   0  0  0  0  0  0  0  0  0  0  0  0
   46.6230   33.4150   44.7280 N   0  0  0  0  0  0  0  0  0  0  0  0
   45.8520   33.6060   45.8550 C   0  0  0  0  0  0  0  0  0  0  0  0
   44.9020   34.5720   45.9140 N   0  0  0  0  0  0  0  0  0  0  0  0
   43.9700   36.1570   44.8080 H   0  0  0  0  0  0  0  0  0  0  0  0
   45.3570   35.8070   42.7840 H   0  0  0  0  0  0  0  0  0  0  0  0
   47.0760   33.9700   42.8440 H   0  0  0  0  0  0  0  0  0  0  0  0
   49.1450   31.3920   49.2160 S   0  0  0  0  0  0  0  0  0  0  0  0
   50.8660   30.0750   51.5800 Cl  0  0  0  0  0  0  0  0  0  0  0  0
   50.2450   29.1090   50.2670 C   0  0  0  0  0  0  0  0  0  0  0  0
   49.5040   29.6340   49.2330 C   0  0  0  0  0  0  0  0  0  0  0  0
   49.0580   28.7810   48.2390 C   0  0  0  0  0  0  0  0  0  0  0  0
   48.4740   29.1680   47.4180 H   0  0  0  0  0  0  0  0  0  0  0  0
   49.3780   27.4230   48.3220 C   0  0  0  0  0  0  0  0  0  0  0  0
   50.1290   26.8950   49.3680 C   0  0  0  0  0  0  0  0  0  0  0  0
   50.5020   25.1780   49.4220 Cl  0  0  0  0  0  0  0  0  0  0  0  0
   50.5470   27.7820   50.3310 C   0  0  0  0  0  0  0  0  0  0  0  0
   51.1360   27.3260   51.1360 H   0  0  0  0  0  0  0  0  0  0  0  0
  1  2  2  0  0  0  0
  1  6  1  0  0  0  0
  2  3  1  0  0  0  0
  3 20  1  0  0  0  0
  3  4  2  0  0  0  0
  4  8  1  0  0  0  0
  5  4  1  0  0  0  0
  5  9  1  0  0  0  0
  6  5  2  0  0  0  0
  7  2  1  0  0  0  0
 10  6  1  0  0  0  0
 11 16  1  0  0  0  0
 12 11  2  0  0  0  0
 13 12  1  0  0  0  0
 13 14  2  0  0  0  0
 14 15  1  0  0  0  0
 15 16  2  0  0  0  0
 15  1  1  0  0  0  0
 17 11  1  0  0  0  0
 18 12  1  0  0  0  0
 19 13  1  0  0  0  0
 20 23  1  0  0  0  0
 22 29  1  0  0  0  0
 22 21  1  0  0  0  0
 23 22  2  0  0  0  0
 24 26  2  0  0  0  0
 24 23  1  0  0  0  0
 25 24  1  0  0  0  0
 26 27  1  0  0  0  0
 27 28  1  0  0  0  0
 27 29  2  0  0  0  0
 29 30  1  0  0  0  0
M  END
>  <minimizedAffinity>
-5.7714777

>  <minimizedRMSD>
1.17504418

$$$$
