
 OpenBabel03242516293D

 47 51  0  0  0  0  0  0  0  0999 V2000
   49.9110   30.4080   49.7110 C   0  0  0  0  0  0  0  0  0  0  0  0
   50.0660   31.6950   50.1780 N   0  0  0  0  0  0  0  0  0  0  0  0
   50.7790   32.0040   51.2540 C   0  0  0  0  0  0  0  0  0  0  0  0
   51.3720   31.0010   51.9050 N   0  0  0  0  0  0  0  0  0  0  0  0
   51.2730   29.7270   51.5200 C   0  0  0  0  0  0  0  0  0  0  0  0
   51.9050   28.6910   52.1940 C   0  0  0  0  0  0  0  0  0  0  0  0
   51.7950   27.4000   51.7680 C   0  0  0  0  0  0  0  0  0  0  0  0
   51.0560   27.1010   50.6660 C   0  0  0  0  0  0  0  0  0  0  0  0
   50.4000   28.1080   49.9530 C   0  0  0  0  0  0  0  0  0  0  0  0
   50.5200   29.3980   50.3870 C   0  0  0  0  0  0  0  0  0  0  0  0
   50.8270   33.0510   51.5220 H   0  0  0  0  0  0  0  0  0  0  0  0
   52.4700   29.0010   53.0560 H   0  0  0  0  0  0  0  0  0  0  0  0
   52.3310   26.6850   52.3740 H   0  0  0  0  0  0  0  0  0  0  0  0
   51.0600   26.0420   50.4580 H   0  0  0  0  0  0  0  0  0  0  0  0
   49.5880   27.6670   48.8060 C   0  0  0  0  0  0  0  0  0  0  0  0
   48.5990   28.1000   48.7100 H   0  0  0  0  0  0  0  0  0  0  0  0
   50.1880   27.5190   47.8820 H   0  0  0  0  0  0  0  0  0  0  0  0
   46.8490   26.9490   47.7730 Cl  0  0  0  0  0  0  0  0  0  0  0  0
   47.9110   25.7800   48.5690 C   0  0  0  0  0  0  0  0  0  0  0  0
   49.1470   26.2230   49.0060 C   0  0  0  0  0  0  0  0  0  0  0  0
   49.8920   25.2320   49.6090 C   0  0  0  0  0  0  0  0  0  0  0  0
   50.8720   25.5260   49.9710 H   0  0  0  0  0  0  0  0  0  0  0  0
   49.5140   23.9240   49.7940 C   0  0  0  0  0  0  0  0  0  0  0  0
   48.2560   23.5880   49.3190 C   0  0  0  0  0  0  0  0  0  0  0  0
   47.7570   21.9200   49.5460 Cl  0  0  0  0  0  0  0  0  0  0  0  0
   47.4510   24.5100   48.7050 C   0  0  0  0  0  0  0  0  0  0  0  0
   46.4800   24.1910   48.3550 H   0  0  0  0  0  0  0  0  0  0  0  0
   49.0120   30.0700   48.2760 S   0  0  0  0  0  0  0  0  0  0  0  0
   46.1530   32.5640   47.0120 C   0  0  0  0  0  0  0  0  0  0  0  0
   47.3070   31.8170   47.1150 C   0  0  0  0  0  0  0  0  0  0  0  0
   47.5170   30.9800   48.1780 C   0  0  0  0  0  0  0  0  0  0  0  0
   46.5690   30.8720   49.1690 C   0  0  0  0  0  0  0  0  0  0  0  0
   45.4120   31.5890   49.1150 C   0  0  0  0  0  0  0  0  0  0  0  0
   45.2280   32.4260   48.0300 C   0  0  0  0  0  0  0  0  0  0  0  0
   48.0360   31.9200   46.3210 H   0  0  0  0  0  0  0  0  0  0  0  0
   46.7740   30.2010   49.9910 H   0  0  0  0  0  0  0  0  0  0  0  0
   44.6370   31.5350   49.8750 H   0  0  0  0  0  0  0  0  0  0  0  0
   44.3300   33.0460   47.8930 H   0  0  0  0  0  0  0  0  0  0  0  0
   44.7450   35.2700   44.9870 C   0  0  0  0  0  0  0  0  0  0  0  0
   45.4900   35.1850   43.7740 C   0  0  0  0  0  0  0  0  0  0  0  0
   46.4660   34.2000   43.6630 C   0  0  0  0  0  0  0  0  0  0  0  0
   46.6970   33.3380   44.7050 N   0  0  0  0  0  0  0  0  0  0  0  0
   45.9580   33.4560   45.8550 C   0  0  0  0  0  0  0  0  0  0  0  0
   44.9920   34.4080   45.9990 N   0  0  0  0  0  0  0  0  0  0  0  0
   43.9980   36.0420   45.0410 H   0  0  0  0  0  0  0  0  0  0  0  0
   45.2800   35.8810   42.9730 H   0  0  0  0  0  0  0  0  0  0  0  0
   47.0460   34.1100   42.7610 H   0  0  0  0  0  0  0  0  0  0  0  0
  1  2  2  0  0  0  0
  1 10  1  0  0  0  0
  2  3  1  0  0  0  0
  3 11  1  0  0  0  0
  3  4  2  0  0  0  0
  5  4  1  0  0  0  0
  5  6  1  0  0  0  0
  6 12  1  0  0  0  0
  7  6  2  0  0  0  0
  7 13  1  0  0  0  0
  8  7  1  0  0  0  0
  9 10  1  0  0  0  0
  9  8  2  0  0  0  0
 10  5  2  0  0  0  0
 14  8  1  0  0  0  0
 15 20  1  0  0  0  0
 15  9  1  0  0  0  0
 16 15  1  0  0  0  0
 17 15  1  0  0  0  0
 18 19  1  0  0  0  0
 19 26  2  0  0  0  0
 19 20  1  0  0  0  0
 20 21  2  0  0  0  0
 21 23  1  0  0  0  0
 21 22  1  0  0  0  0
 24 25  1  0  0  0  0
 24 23  2  0  0  0  0
 26 24  1  0  0  0  0
 27 26  1  0  0  0  0
 28  1  1  0  0  0  0
 29 30  2  0  0  0  0
 29 34  1  0  0  0  0
 30 31  1  0  0  0  0
 31 28  1  0  0  0  0
 31 32  2  0  0  0  0
 32 36  1  0  0  0  0
 33 32  1  0  0  0  0
 33 37  1  0  0  0  0
 34 33  2  0  0  0  0
 35 30  1  0  0  0  0
 38 34  1  0  0  0  0
 39 45  1  0  0  0  0
 39 44  1  0  0  0  0
 40 39  2  0  0  0  0
 41 40  1  0  0  0  0
 41 42  2  0  0  0  0
 42 43  1  0  0  0  0
 43 44  2  0  0  0  0
 43 29  1  0  0  0  0
 46 40  1  0  0  0  0
 47 41  1  0  0  0  0
M  END
>  <minimizedAffinity>
-7.12138367

>  <minimizedRMSD>
0.642061949

$$$$
