
 OpenBabel03242523113D

 47 51  0  0  1  0  0  0  0  0999 V2000
   46.4270   31.9840   45.4290 C   0  0  0  0  0  0  0  0  0  0  0  0
   46.7820   32.7370   44.2940 C   0  0  0  0  0  0  0  0  0  0  0  0
   47.7760   32.1200   43.5720 C   0  0  0  0  0  0  0  0  0  0  0  0
   48.3690   30.9340   43.8830 C   0  0  0  0  0  0  0  0  0  0  0  0
   47.9620   30.2560   45.0300 C   0  0  0  0  0  0  0  0  0  0  0  0
   46.9770   30.7890   45.8100 C   0  0  0  0  0  0  0  0  0  0  0  0
   48.7510   29.1170   45.0640 O   0  0  0  0  0  0  0  0  0  0  0  0
   49.5960   29.0710   43.9250 C   0  0  2  0  0  0  0  0  0  0  0  0
   49.3660   30.2690   43.1910 O   0  0  0  0  0  0  0  0  0  0  0  0
   45.6580   32.1920   46.2060 H   0  0  0  0  0  0  0  0  0  0  0  0
   48.0530   32.6620   42.7210 H   0  0  0  0  0  0  0  0  0  0  0  0
   46.7450   30.1820   46.6570 H   0  0  0  0  0  0  0  0  0  0  0  0
   50.6670   29.0300   44.2040 H   0  0  0  0  0  0  0  0  0  0  0  0
   45.2120   36.0290   43.4400 C   0  0  0  0  0  0  0  0  0  0  0  0
   46.0110   34.9060   43.2210 C   0  0  0  0  0  0  0  0  0  0  0  0
   46.0980   33.9520   44.1900 C   0  0  0  0  0  0  0  0  0  0  0  0
   45.3860   34.1590   45.3430 N   0  0  0  0  0  0  0  0  0  0  0  0
   44.6190   35.2420   45.5480 C   0  0  0  0  0  0  0  0  0  0  0  0
   44.5400   36.1530   44.6100 N   0  0  0  0  0  0  0  0  0  0  0  0
   45.1370   36.7900   42.6740 H   0  0  0  0  0  0  0  0  0  0  0  0
   44.0390   35.4550   46.4350 H   0  0  0  0  0  0  0  0  0  0  0  0
   46.7020   34.8390   42.0130 N   0  0  0  0  0  0  0  0  0  0  0  0
   48.0020   35.4090   41.8570 C   0  0  0  0  0  0  0  0  0  0  0  0
   48.6750   35.0970   40.5500 C   0  0  0  0  0  0  0  0  0  0  0  0
   48.4890   33.7930   40.0830 N   0  0  0  0  0  0  0  0  0  0  0  0
   47.2220   33.2650   40.2050 C   0  0  0  0  0  0  0  0  0  0  0  0
   46.2420   34.2350   40.8290 C   0  0  0  0  0  0  0  0  0  0  0  0
   48.7130   35.1710   42.6960 H   0  0  0  0  0  0  0  0  0  0  0  0
   47.8730   36.5140   41.8950 H   0  0  0  0  0  0  0  0  0  0  0  0
   49.7690   35.3150   40.6720 H   0  0  0  0  0  0  0  0  0  0  0  0
   48.3310   35.8310   39.7930 H   0  0  0  0  0  0  0  0  0  0  0  0
   49.2220   33.1560   40.5010 H   0  0  0  0  0  0  0  0  0  0  0  0
   46.7920   33.0220   39.1900 H   0  0  0  0  0  0  0  0  0  0  0  0
   47.1070   32.3090   40.7830 H   0  0  0  0  0  0  0  0  0  0  0  0
   46.1060   35.0380   40.0460 H   0  0  0  0  0  0  0  0  0  0  0  0
   45.2390   33.7700   40.9350 H   0  0  0  0  0  0  0  0  0  0  0  0
   49.1780   27.9730   43.1660 O   0  0  0  0  0  0  0  0  0  0  0  0
   50.7130   27.7990   40.7060 Cl  0  0  0  0  0  0  0  0  0  0  0  0
   48.9710   27.8530   40.8690 C   0  0  0  0  0  0  0  0  0  0  0  0
   48.3230   27.9370   42.1050 C   0  0  0  0  0  0  0  0  0  0  0  0
   46.9480   27.9790   42.2180 C   0  0  0  0  0  0  0  0  0  0  0  0
   46.4920   28.0430   43.1820 H   0  0  0  0  0  0  0  0  0  0  0  0
   46.2420   27.9340   41.0520 C   0  0  0  0  0  3  0  0  0  0  0  0
   46.8380   27.8510   39.8220 C   0  0  0  0  0  0  0  0  0  0  0  0
   45.9030   27.7950   38.3320 Cl  0  0  0  0  0  0  0  0  0  0  0  0
   48.1960   27.8100   39.7070 C   0  0  0  0  0  0  0  0  0  0  0  0
   48.7040   27.7440   38.7380 H   0  0  0  0  0  0  0  0  0  0  0  0
  1  6  1  0  0  0  0
  1 10  1  0  0  0  0
  2  1  2  0  0  0  0
  3  4  2  0  0  0  0
  3  2  1  0  0  0  0
  4  5  1  0  0  0  0
  5  7  1  0  0  0  0
  5  6  2  0  0  0  0
  6 12  1  0  0  0  0
  8 13  1  1  0  0  0
  8  7  1  0  0  0  0
  9  4  1  0  0  0  0
  9  8  1  0  0  0  0
 11  3  1  0  0  0  0
 14 19  1  0  0  0  0
 15 14  2  0  0  0  0
 15 16  1  0  0  0  0
 16  2  1  0  0  0  0
 16 17  2  0  0  0  0
 17 18  1  0  0  0  0
 18 21  1  0  0  0  0
 19 18  2  0  0  0  0
 20 14  1  0  0  0  0
 22 15  1  0  0  0  0
 23 29  1  0  0  0  0
 23 22  1  0  0  0  0
 23 28  1  0  0  0  0
 24 30  1  0  0  0  0
 24 23  1  0  0  0  0
 25 26  1  0  0  0  0
 25 32  1  0  0  0  0
 25 24  1  0  0  0  0
 26 34  1  0  0  0  0
 26 27  1  0  0  0  0
 27 36  1  0  0  0  0
 27 22  1  0  0  0  0
 31 24  1  0  0  0  0
 33 26  1  0  0  0  0
 35 27  1  0  0  0  0
 37  8  1  0  0  0  0
 38 39  1  0  0  0  0
 39 40  1  0  0  0  0
 40 41  2  0  0  0  0
 40 37  1  0  0  0  0
 41 42  1  0  0  0  0
 43 41  1  0  0  0  0
 44 43  2  0  0  0  0
 45 44  1  0  0  0  0
 46 44  1  0  0  0  0
 46 39  2  0  0  0  0
 47 46  1  0  0  0  0
M  END
>  <minimizedAffinity>
-4.733078

>  <minimizedRMSD>
2.64985251

$$$$
