
 OpenBabel03252506373D

 45 48  0  0  1  0  0  0  0  0999 V2000
   44.5070   35.5370   45.1290 C   0  0  0  0  0  0  0  0  0  0  0  0
   45.1540   35.5360   43.8870 C   0  0  0  0  0  0  0  0  0  0  0  0
   46.0710   34.5790   43.6210 C   0  0  0  0  0  0  0  0  0  0  0  0
   46.3090   33.6620   44.5910 N   0  0  0  0  0  0  0  0  0  0  0  0
   45.6950   33.6670   45.7630 C   0  0  0  0  0  0  0  0  0  0  0  0
   44.7880   34.5970   46.0520 N   0  0  0  0  0  0  0  0  0  0  0  0
   46.0280   32.6490   46.7220 N   0  0  0  0  0  0  0  0  0  0  0  0
   45.2920   32.3940   47.9100 C   0  0  0  0  0  0  0  0  0  0  0  0
   46.3720   32.0350   48.9150 C   0  0  0  0  0  0  0  0  0  0  0  0
   47.6500   31.9450   48.1430 C   0  0  0  0  0  0  0  0  0  0  0  0
   47.1510   31.7390   46.7120 C   0  0  1  0  0  0  0  0  0  0  0  0
   43.7840   36.3020   45.3220 H   0  0  0  0  0  0  0  0  0  0  0  0
   46.5840   34.5550   42.6730 H   0  0  0  0  0  0  0  0  0  0  0  0
   44.4580   31.7730   47.9880 H   0  0  0  0  0  0  0  0  0  0  0  0
   44.9440   33.4120   48.2790 H   0  0  0  0  0  0  0  0  0  0  0  0
   46.3880   32.6450   49.8130 H   0  0  0  0  0  0  0  0  0  0  0  0
   46.1490   30.9780   49.2500 H   0  0  0  0  0  0  0  0  0  0  0  0
   48.2700   31.1060   48.4940 H   0  0  0  0  0  0  0  0  0  0  0  0
   48.1520   32.9310   48.2420 H   0  0  0  0  0  0  0  0  0  0  0  0
   47.9570   32.0460   46.0070 H   0  0  0  0  0  0  0  0  0  0  0  0
   44.7980   36.5730   42.9550 N   0  0  0  0  0  0  0  0  0  0  0  0
   44.8270   37.5670   43.2420 H   0  0  0  0  0  0  0  0  0  0  0  0
   44.5400   36.1390   42.0470 H   0  0  0  0  0  0  0  0  0  0  0  0
   46.6370   30.0480   46.5180 S   0  0  0  0  0  0  0  0  0  0  0  0
   45.6310   30.6150   43.3880 O   0  0  0  0  0  0  0  0  0  0  0  0
   45.0040   30.0400   44.2920 C   0  0  0  0  0  0  0  0  0  0  0  0
   45.0950   29.7690   45.7480 C   0  0  1  0  0  0  0  0  0  0  0  0
   44.5710   28.3570   45.8330 C   0  0  0  0  0  0  0  0  0  0  0  0
   43.2590   28.5790   45.0740 C   0  0  0  0  0  0  0  0  0  0  0  0
   43.7670   29.3770   43.9660 N   0  0  0  0  0  0  0  0  0  0  0  0
   44.2050   30.3500   46.1110 H   0  0  0  0  0  0  0  0  0  0  0  0
   45.2030   27.6400   45.2690 H   0  0  0  0  0  0  0  0  0  0  0  0
   44.3860   28.0860   46.8740 H   0  0  0  0  0  0  0  0  0  0  0  0
   42.8050   27.6350   44.7700 H   0  0  0  0  0  0  0  0  0  0  0  0
   42.5810   29.1750   45.7190 H   0  0  0  0  0  0  0  0  0  0  0  0
   44.5190   27.4590   41.7310 Cl  0  0  0  0  0  0  0  0  0  0  0  0
   43.1750   28.5780   41.6780 C   0  0  0  0  0  0  0  0  0  0  0  0
   42.9710   29.3720   42.7610 C   0  0  0  0  0  0  0  0  0  0  0  0
   41.9120   30.2550   42.7220 C   0  0  0  0  0  0  0  0  0  0  0  0
   41.6930   30.9260   43.5670 H   0  0  0  0  0  0  0  0  0  0  0  0
   41.0360   30.3940   41.6500 C   0  0  0  0  0  3  0  0  0  0  0  0
   41.2590   29.5690   40.5420 C   0  0  0  0  0  0  0  0  0  0  0  0
   40.1990   29.6840   39.1540 Cl  0  0  0  0  0  0  0  0  0  0  0  0
   42.3190   28.6950   40.6010 C   0  0  0  0  0  0  0  0  0  0  0  0
   42.4890   28.0520   39.7290 H   0  0  0  0  0  0  0  0  0  0  0  0
  1 12  1  0  0  0  0
  1  6  1  0  0  0  0
  2  1  2  0  0  0  0
  3  2  1  0  0  0  0
  3  4  2  0  0  0  0
  4  5  1  0  0  0  0
  5  6  2  0  0  0  0
  5  7  1  0  0  0  0
  7  8  1  0  0  0  0
  8 14  1  0  0  0  0
  8 15  1  0  0  0  0
  8  9  1  0  0  0  0
  9 17  1  0  0  0  0
  9 16  1  0  0  0  0
 10 19  1  0  0  0  0
 10 18  1  0  0  0  0
 10  9  1  0  0  0  0
 11 20  1  6  0  0  0
 11  7  1  0  0  0  0
 11 10  1  0  0  0  0
 13  3  1  0  0  0  0
 21 22  1  0  0  0  0
 21  2  1  0  0  0  0
 23 21  1  0  0  0  0
 24 11  1  0  0  0  0
 25 26  2  0  0  0  0
 26 27  1  0  0  0  0
 27 28  1  0  0  0  0
 27 31  1  1  0  0  0
 27 24  1  0  0  0  0
 28 33  1  0  0  0  0
 29 35  1  0  0  0  0
 29 28  1  0  0  0  0
 30 26  1  0  0  0  0
 30 29  1  0  0  0  0
 32 28  1  0  0  0  0
 34 29  1  0  0  0  0
 37 36  1  0  0  0  0
 37 38  1  0  0  0  0
 38 30  1  0  0  0  0
 39 38  2  0  0  0  0
 39 40  1  0  0  0  0
 41 39  1  0  0  0  0
 42 44  1  0  0  0  0
 42 41  2  0  0  0  0
 43 42  1  0  0  0  0
 44 37  2  0  0  0  0
 45 44  1  0  0  0  0
M  END
>  <minimizedAffinity>
-5.44363642

>  <minimizedRMSD>
0.194427446

$$$$
