
 OpenBabel03252503083D

 28 30  0  0  1  0  0  0  0  0999 V2000
   44.9250   35.9450   43.7260 C   0  0  0  0  0  0  0  0  0  0  0  0
   45.6120   34.7820   43.2900 C   0  0  0  0  0  0  0  0  0  0  0  0
   45.7670   33.8120   44.2700 C   0  0  0  0  0  0  0  0  0  0  0  0
   45.3050   33.9680   45.5180 N   0  0  0  0  0  0  0  0  0  0  0  0
   44.6500   35.1100   45.8830 C   0  0  0  0  0  0  0  0  0  0  0  0
   44.4710   36.0880   44.9700 N   0  0  0  0  0  0  0  0  0  0  0  0
   44.7720   36.7460   42.9970 H   0  0  0  0  0  0  0  0  0  0  0  0
   44.3010   35.1810   46.9010 H   0  0  0  0  0  0  0  0  0  0  0  0
   46.4120   32.6270   43.9290 C   0  0  0  0  0  0  0  0  0  0  0  0
   47.6920   32.1790   43.9630 C   0  0  0  0  0  0  0  0  0  0  0  0
   48.0880   30.9830   43.5550 C   0  0  0  0  0  0  0  0  0  0  0  0
   47.1040   30.1640   43.0680 C   0  0  0  0  0  0  0  0  0  0  0  0
   45.6000   31.2080   43.2340 S   0  0  0  0  0  0  0  0  0  0  0  0
   48.5640   32.6800   44.3470 H   0  0  0  0  0  0  0  0  0  0  0  0
   48.9820   30.4120   43.4750 H   0  0  0  0  0  0  0  0  0  0  0  0
   46.9150   29.2030   42.6550 H   0  0  0  0  0  0  0  0  0  0  0  0
   46.0550   34.7050   41.9490 C   0  0  2  0  0  3  0  0  0  0  0  0
   47.2160   35.3050   41.7970 O   0  0  0  0  0  1  0  0  0  0  0  0
   48.1570   33.1880   40.6160 Cl  0  0  0  0  0  0  0  0  0  0  0  0
   46.4680   33.3790   40.0910 C   0  0  0  0  0  0  0  0  0  0  0  0
   45.4360   34.0960   40.7320 C   0  0  0  0  0  0  0  0  0  0  0  0
   44.2230   34.0750   40.1030 C   0  0  0  0  0  0  0  0  0  0  0  0
   43.5170   34.6650   40.6610 H   0  0  0  0  0  0  0  0  0  0  0  0
   43.9950   33.4090   38.9280 C   0  0  0  0  0  3  0  0  0  0  0  0
   45.0070   32.7110   38.3080 C   0  0  0  0  0  0  0  0  0  0  0  0
   44.5620   31.9140   36.8150 Cl  0  0  0  0  0  0  0  0  0  0  0  0
   46.2550   32.6900   38.8860 C   0  0  0  0  0  0  0  0  0  0  0  0
   46.9820   32.1220   38.3330 H   0  0  0  0  0  0  0  0  0  0  0  0
  1  6  1  0  0  0  0
  2  1  2  0  0  0  0
  2  3  1  0  0  0  0
  3  4  2  0  0  0  0
  4  5  1  0  0  0  0
  5  8  1  0  0  0  0
  6  5  2  0  0  0  0
  7  1  1  0  0  0  0
  9 10  2  0  0  0  0
  9  3  1  0  0  0  0
 10 14  1  0  0  0  0
 11 10  1  0  0  0  0
 12 13  1  0  0  0  0
 12 11  2  0  0  0  0
 13  9  1  0  0  0  0
 15 11  1  0  0  0  0
 16 12  1  0  0  0  0
 17 18  1  6  0  0  0
 17  2  1  0  0  0  0
 20 19  1  0  0  0  0
 20 21  1  0  0  0  0
 21 17  1  0  0  0  0
 22 23  1  0  0  0  0
 22 21  2  0  0  0  0
 24 22  1  0  0  0  0
 25 27  1  0  0  0  0
 25 24  2  0  0  0  0
 26 25  1  0  0  0  0
 27 20  2  0  0  0  0
 28 27  1  0  0  0  0
M  END
>  <minimizedAffinity>
-4.52221966

>  <minimizedRMSD>
1.2588948

$$$$
