
 OpenBabel03242520523D

 23 24  0  0  0  0  0  0  0  0999 V2000
   39.1840   34.1610   40.3890 C   0  0  0  0  0  0  0  0  0  0  0  0
   40.3340   34.0050   39.6010 C   0  0  0  0  0  0  0  0  0  0  0  0
   40.8690   32.7430   39.4220 C   0  0  0  0  0  0  0  0  0  0  0  0
   40.2550   31.6960   40.0220 N   0  0  0  0  0  0  0  0  0  0  0  0
   39.1410   31.8740   40.7820 C   0  0  0  0  0  0  0  0  0  0  0  0
   38.6260   33.0980   40.9530 N   0  0  0  0  0  0  0  0  0  0  0  0
   38.8550   35.1900   40.4590 H   0  0  0  0  0  0  0  0  0  0  0  0
   40.8340   34.8110   39.1190 H   0  0  0  0  0  0  0  0  0  0  0  0
   36.6370   30.8210   39.4470 Cl  0  0  0  0  0  0  0  0  0  0  0  0
   37.3380   30.1700   40.9180 C   0  0  0  0  0  0  0  0  0  0  0  0
   38.4850   30.7420   41.4260 C   0  0  0  0  0  0  0  0  0  0  0  0
   38.9740   30.1850   42.5720 C   0  0  0  0  0  0  0  0  0  0  0  0
   39.8790   30.6150   42.9970 H   0  0  0  0  0  0  0  0  0  0  0  0
   38.3780   29.1180   43.2020 C   0  0  0  0  0  3  0  0  0  0  0  0
   37.2280   28.5870   42.6460 C   0  0  0  0  0  0  0  0  0  0  0  0
   36.4210   27.2220   43.4060 Cl  0  0  0  0  0  0  0  0  0  0  0  0
   36.6720   29.0990   41.4810 C   0  0  0  0  0  0  0  0  0  0  0  0
   35.7680   28.6910   41.0340 H   0  0  0  0  0  0  0  0  0  0  0  0
   41.9890   32.4250   38.6790 O   0  0  0  0  0  0  0  0  0  0  0  0
   41.8910   32.6340   37.2580 C   0  0  0  0  0  0  0  0  0  0  0  0
   42.3050   33.9060   36.9330 F   0  0  0  0  0  0  0  0  0  0  0  0
   42.7430   31.7090   36.6340 F   0  0  0  0  0  0  0  0  0  0  0  0
   40.5870   32.3840   36.8210 F   0  0  0  0  0  0  0  0  0  0  0  0
  1  7  1  0  0  0  0
  1  6  1  0  0  0  0
  2  1  2  0  0  0  0
  3  2  1  0  0  0  0
  3  4  2  0  0  0  0
  4  5  1  0  0  0  0
  5  6  2  0  0  0  0
  5 11  1  0  0  0  0
  8  2  1  0  0  0  0
  9 10  1  0  0  0  0
 10 11  2  0  0  0  0
 10 17  1  0  0  0  0
 11 12  1  0  0  0  0
 12 13  1  0  0  0  0
 12 14  2  0  0  0  0
 15 14  1  0  0  0  0
 15 16  1  0  0  0  0
 17 15  2  0  0  0  0
 18 17  1  0  0  0  0
 19  3  1  0  0  0  0
 20 19  1  0  0  0  0
 21 20  1  0  0  0  0
 22 20  1  0  0  0  0
 23 20  1  0  0  0  0
M  END
>  <minimizedAffinity>
-5.23021269

$$$$

 OpenBabel03242520523D

 23 24  0  0  0  0  0  0  0  0999 V2000
   35.5260   28.7420   40.7840 C   0  0  0  0  0  0  0  0  0  0  0  0
   35.5890   30.1230   40.5420 C   0  0  0  0  0  0  0  0  0  0  0  0
   36.7630   30.8050   40.8010 C   0  0  0  0  0  0  0  0  0  0  0  0
   37.8170   30.1050   41.2840 N   0  0  0  0  0  0  0  0  0  0  0  0
   37.7310   28.7670   41.5100 C   0  0  0  0  0  0  0  0  0  0  0  0
   36.5910   28.1100   41.2580 N   0  0  0  0  0  0  0  0  0  0  0  0
   34.5610   28.3140   40.5440 H   0  0  0  0  0  0  0  0  0  0  0  0
   34.7760   30.6940   40.1630 H   0  0  0  0  0  0  0  0  0  0  0  0
   39.9370   30.3880   42.8010 Cl  0  0  0  0  0  0  0  0  0  0  0  0
   39.9390   28.6400   42.6420 C   0  0  0  0  0  0  0  0  0  0  0  0
   38.8690   28.0200   42.0310 C   0  0  0  0  0  0  0  0  0  0  0  0
   38.9380   26.6600   41.9420 C   0  0  0  0  0  0  0  0  0  0  0  0
   38.1080   26.1420   41.4650 H   0  0  0  0  0  0  0  0  0  0  0  0
   39.9980   25.9280   42.4240 C   0  0  0  0  0  3  0  0  0  0  0  0
   41.0420   26.6070   43.0260 C   0  0  0  0  0  0  0  0  0  0  0  0
   42.4260   25.7250   43.6610 Cl  0  0  0  0  0  0  0  0  0  0  0  0
   41.0440   27.9900   43.1540 C   0  0  0  0  0  0  0  0  0  0  0  0
   41.8590   28.5340   43.6250 H   0  0  0  0  0  0  0  0  0  0  0  0
   36.9840   32.1560   40.6170 O   0  0  0  0  0  0  0  0  0  0  0  0
   37.3650   32.5630   39.2900 C   0  0  0  0  0  0  0  0  0  0  0  0
   36.9030   33.8340   39.0300 F   0  0  0  0  0  0  0  0  0  0  0  0
   38.7670   32.5730   39.2350 F   0  0  0  0  0  0  0  0  0  0  0  0
   36.9010   31.6400   38.3470 F   0  0  0  0  0  0  0  0  0  0  0  0
  1  6  1  0  0  0  0
  2  1  2  0  0  0  0
  2  3  1  0  0  0  0
  3  4  2  0  0  0  0
  4  5  1  0  0  0  0
  5 11  1  0  0  0  0
  6  5  2  0  0  0  0
  7  1  1  0  0  0  0
  8  2  1  0  0  0  0
 10  9  1  0  0  0  0
 10 17  1  0  0  0  0
 11 10  2  0  0  0  0
 12 11  1  0  0  0  0
 12 14  2  0  0  0  0
 13 12  1  0  0  0  0
 14 15  1  0  0  0  0
 15 17  2  0  0  0  0
 15 16  1  0  0  0  0
 17 18  1  0  0  0  0
 19  3  1  0  0  0  0
 20 19  1  0  0  0  0
 21 20  1  0  0  0  0
 22 20  1  0  0  0  0
 23 20  1  0  0  0  0
M  END
>  <minimizedAffinity>
-4.94973326

$$$$

 OpenBabel03242520523D

 23 24  0  0  0  0  0  0  0  0999 V2000
   36.1860   30.9880   41.0060 C   0  0  0  0  0  0  0  0  0  0  0  0
   37.0140   31.7930   40.2100 C   0  0  0  0  0  0  0  0  0  0  0  0
   38.2970   31.3690   39.9190 C   0  0  0  0  0  0  0  0  0  0  0  0
   38.7070   30.1800   40.4200 N   0  0  0  0  0  0  0  0  0  0  0  0
   37.8860   29.4180   41.1890 C   0  0  0  0  0  0  0  0  0  0  0  0
   36.6430   29.8320   41.4690 N   0  0  0  0  0  0  0  0  0  0  0  0
   35.2050   31.4180   41.1680 H   0  0  0  0  0  0  0  0  0  0  0  0
   36.7140   32.7300   39.8050 H   0  0  0  0  0  0  0  0  0  0  0  0
   37.0650   26.9420   39.6540 Cl  0  0  0  0  0  0  0  0  0  0  0  0
   38.0280   26.9390   41.1210 C   0  0  0  0  0  0  0  0  0  0  0  0
   38.3350   28.1390   41.7270 C   0  0  0  0  0  0  0  0  0  0  0  0
   39.0870   28.0610   42.8630 C   0  0  0  0  0  0  0  0  0  0  0  0
   39.3440   28.9930   43.3630 H   0  0  0  0  0  0  0  0  0  0  0  0
   39.5240   26.8700   43.3930 C   0  0  0  0  0  3  0  0  0  0  0  0
   39.1840   25.6980   42.7410 C   0  0  0  0  0  0  0  0  0  0  0  0
   39.7160   24.1450   43.3720 Cl  0  0  0  0  0  0  0  0  0  0  0  0
   38.4230   25.6980   41.5800 C   0  0  0  0  0  0  0  0  0  0  0  0
   38.1490   24.7830   41.0590 H   0  0  0  0  0  0  0  0  0  0  0  0
   39.2290   32.0430   39.1540 O   0  0  0  0  0  0  0  0  0  0  0  0
   39.7070   33.2910   39.6860 C   0  0  0  0  0  0  0  0  0  0  0  0
   40.6360   33.8480   38.8360 F   0  0  0  0  0  0  0  0  0  0  0  0
   38.6080   34.1600   39.7850 F   0  0  0  0  0  0  0  0  0  0  0  0
   40.2260   33.1040   40.9710 F   0  0  0  0  0  0  0  0  0  0  0  0
  1  7  1  0  0  0  0
  1  6  1  0  0  0  0
  2  1  2  0  0  0  0
  3  2  1  0  0  0  0
  3  4  2  0  0  0  0
  4  5  1  0  0  0  0
  5  6  2  0  0  0  0
  5 11  1  0  0  0  0
  8  2  1  0  0  0  0
  9 10  1  0  0  0  0
 10 17  2  0  0  0  0
 10 11  1  0  0  0  0
 11 12  2  0  0  0  0
 12 13  1  0  0  0  0
 12 14  1  0  0  0  0
 15 16  1  0  0  0  0
 15 14  2  0  0  0  0
 17 15  1  0  0  0  0
 18 17  1  0  0  0  0
 19 20  1  0  0  0  0
 19  3  1  0  0  0  0
 20 22  1  0  0  0  0
 20 23  1  0  0  0  0
 21 20  1  0  0  0  0
M  END
>  <minimizedAffinity>
-4.83127928

$$$$

 OpenBabel03242520523D

 23 24  0  0  0  0  0  0  0  0999 V2000
   39.4500   27.0480   43.6780 C   0  0  0  0  0  0  0  0  0  0  0  0
   39.2170   25.8330   43.0170 C   0  0  0  0  0  0  0  0  0  0  0  0
   38.6310   25.8430   41.7650 C   0  0  0  0  0  0  0  0  0  0  0  0
   38.3020   27.0390   41.2210 N   0  0  0  0  0  0  0  0  0  0  0  0
   38.5390   28.2030   41.8830 C   0  0  0  0  0  0  0  0  0  0  0  0
   39.1070   28.1890   43.0960 N   0  0  0  0  0  0  0  0  0  0  0  0
   39.9120   26.9200   44.6490 H   0  0  0  0  0  0  0  0  0  0  0  0
   39.4660   24.8820   43.4230 H   0  0  0  0  0  0  0  0  0  0  0  0
   40.7400   29.6780   40.4190 Cl  0  0  0  0  0  0  0  0  0  0  0  0
   39.0930   30.2570   40.5990 C   0  0  0  0  0  0  0  0  0  0  0  0
   38.1820   29.4870   41.2920 C   0  0  0  0  0  0  0  0  0  0  0  0
   36.9210   29.9980   41.3920 C   0  0  0  0  0  0  0  0  0  0  0  0
   36.1790   29.4130   41.9340 H   0  0  0  0  0  0  0  0  0  0  0  0
   36.5540   31.2060   40.8460 C   0  0  0  0  0  3  0  0  0  0  0  0
   37.5120   31.9330   40.1630 C   0  0  0  0  0  0  0  0  0  0  0  0
   37.1030   33.4850   39.4420 Cl  0  0  0  0  0  0  0  0  0  0  0  0
   38.8160   31.4780   40.0180 C   0  0  0  0  0  0  0  0  0  0  0  0
   39.5770   32.0420   39.4840 H   0  0  0  0  0  0  0  0  0  0  0  0
   38.3370   24.7390   40.9880 O   0  0  0  0  0  0  0  0  0  0  0  0
   36.9670   24.2990   41.0010 C   0  0  0  0  0  0  0  0  0  0  0  0
   36.2500   24.9430   40.0170 F   0  0  0  0  0  0  0  0  0  0  0  0
   36.9620   22.9210   40.7330 F   0  0  0  0  0  0  0  0  0  0  0  0
   36.4060   24.4950   42.2660 F   0  0  0  0  0  0  0  0  0  0  0  0
  1  7  1  0  0  0  0
  2  8  1  0  0  0  0
  2  1  2  0  0  0  0
  3  2  1  0  0  0  0
  4  3  2  0  0  0  0
  4  5  1  0  0  0  0
  5  6  2  0  0  0  0
  6  1  1  0  0  0  0
  9 10  1  0  0  0  0
 10 11  1  0  0  0  0
 11 12  2  0  0  0  0
 11  5  1  0  0  0  0
 12 13  1  0  0  0  0
 14 12  1  0  0  0  0
 15 14  2  0  0  0  0
 16 15  1  0  0  0  0
 17 15  1  0  0  0  0
 17 10  2  0  0  0  0
 18 17  1  0  0  0  0
 19 20  1  0  0  0  0
 19  3  1  0  0  0  0
 20 23  1  0  0  0  0
 21 20  1  0  0  0  0
 22 20  1  0  0  0  0
M  END
>  <minimizedAffinity>
-4.79779196

$$$$

 OpenBabel03242520523D

 23 24  0  0  0  0  0  0  0  0999 V2000
   36.9150   27.7810   43.6800 C   0  0  0  0  0  0  0  0  0  0  0  0
   36.9550   26.6300   42.8780 C   0  0  0  0  0  0  0  0  0  0  0  0
   37.5720   26.6840   41.6420 C   0  0  0  0  0  0  0  0  0  0  0  0
   38.1190   27.8590   41.2510 N   0  0  0  0  0  0  0  0  0  0  0  0
   38.0680   28.9600   42.0470 C   0  0  0  0  0  0  0  0  0  0  0  0
   37.4690   28.9040   43.2430 N   0  0  0  0  0  0  0  0  0  0  0  0
   36.4090   27.6220   44.6240 H   0  0  0  0  0  0  0  0  0  0  0  0
   36.5330   25.6970   43.1640 H   0  0  0  0  0  0  0  0  0  0  0  0
   36.2020   30.9530   40.7390 Cl  0  0  0  0  0  0  0  0  0  0  0  0
   37.9160   31.2130   41.0100 C   0  0  0  0  0  0  0  0  0  0  0  0
   38.6590   30.2230   41.6180 C   0  0  0  0  0  0  0  0  0  0  0  0
   39.9840   30.4930   41.7970 C   0  0  0  0  0  0  0  0  0  0  0  0
   40.5960   29.7290   42.2740 H   0  0  0  0  0  0  0  0  0  0  0  0
   40.5700   31.6730   41.4030 C   0  0  0  0  0  3  0  0  0  0  0  0
   39.7740   32.6290   40.7980 C   0  0  0  0  0  0  0  0  0  0  0  0
   40.4660   34.1590   40.2730 Cl  0  0  0  0  0  0  0  0  0  0  0  0
   38.4170   32.4270   40.5830 C   0  0  0  0  0  0  0  0  0  0  0  0
   37.7820   33.1710   40.1070 H   0  0  0  0  0  0  0  0  0  0  0  0
   37.6940   25.6450   40.7410 O   0  0  0  0  0  0  0  0  0  0  0  0
   38.4850   24.5210   41.1690 C   0  0  0  0  0  0  0  0  0  0  0  0
   37.7140   23.6470   41.9040 F   0  0  0  0  0  0  0  0  0  0  0  0
   38.9420   23.8600   40.0180 F   0  0  0  0  0  0  0  0  0  0  0  0
   39.6010   24.9590   41.8880 F   0  0  0  0  0  0  0  0  0  0  0  0
  1  7  1  0  0  0  0
  2  8  1  0  0  0  0
  2  1  2  0  0  0  0
  3  2  1  0  0  0  0
  4  3  2  0  0  0  0
  4  5  1  0  0  0  0
  5  6  2  0  0  0  0
  6  1  1  0  0  0  0
  9 10  1  0  0  0  0
 10 11  1  0  0  0  0
 11 12  2  0  0  0  0
 11  5  1  0  0  0  0
 12 13  1  0  0  0  0
 14 12  1  0  0  0  0
 15 14  2  0  0  0  0
 16 15  1  0  0  0  0
 17 15  1  0  0  0  0
 17 10  2  0  0  0  0
 18 17  1  0  0  0  0
 19 20  1  0  0  0  0
 19  3  1  0  0  0  0
 20 23  1  0  0  0  0
 20 21  1  0  0  0  0
 22 20  1  0  0  0  0
M  END
>  <minimizedAffinity>
-4.76664257

$$$$

 OpenBabel03242520523D

 23 24  0  0  0  0  0  0  0  0999 V2000
   40.0080   30.2370   42.4610 C   0  0  0  0  0  0  0  0  0  0  0  0
   39.1660   31.2340   41.9450 C   0  0  0  0  0  0  0  0  0  0  0  0
   38.0530   30.8690   41.2100 C   0  0  0  0  0  0  0  0  0  0  0  0
   37.8190   29.5500   41.0160 N   0  0  0  0  0  0  0  0  0  0  0  0
   38.6500   28.6030   41.5260 C   0  0  0  0  0  0  0  0  0  0  0  0
   39.7280   28.9610   42.2380 N   0  0  0  0  0  0  0  0  0  0  0  0
   40.8450   30.6370   43.0180 H   0  0  0  0  0  0  0  0  0  0  0  0
   39.3290   32.2750   42.0850 H   0  0  0  0  0  0  0  0  0  0  0  0
   36.5690   27.3220   43.3110 Cl  0  0  0  0  0  0  0  0  0  0  0  0
   37.4680   26.4840   42.0580 C   0  0  0  0  0  0  0  0  0  0  0  0
   38.3920   27.1840   41.3120 C   0  0  0  0  0  0  0  0  0  0  0  0
   39.0540   26.4690   40.3560 C   0  0  0  0  0  0  0  0  0  0  0  0
   39.7900   26.9960   39.7510 H   0  0  0  0  0  0  0  0  0  0  0  0
   38.8320   25.1310   40.1310 C   0  0  0  0  0  3  0  0  0  0  0  0
   37.8930   24.4820   40.9120 C   0  0  0  0  0  0  0  0  0  0  0  0
   37.5660   22.7710   40.6710 Cl  0  0  0  0  0  0  0  0  0  0  0  0
   37.1790   25.1430   41.9040 C   0  0  0  0  0  0  0  0  0  0  0  0
   36.4390   24.6430   42.5240 H   0  0  0  0  0  0  0  0  0  0  0  0
   37.1320   31.7250   40.6390 O   0  0  0  0  0  0  0  0  0  0  0  0
   37.2730   31.9610   39.2260 C   0  0  0  0  0  0  0  0  0  0  0  0
   36.4510   31.1140   38.5170 F   0  0  0  0  0  0  0  0  0  0  0  0
   36.8800   33.2850   38.9760 F   0  0  0  0  0  0  0  0  0  0  0  0
   38.6110   31.8270   38.8430 F   0  0  0  0  0  0  0  0  0  0  0  0
  1  7  1  0  0  0  0
  2  8  1  0  0  0  0
  2  1  2  0  0  0  0
  3  2  1  0  0  0  0
  4  3  2  0  0  0  0
  4  5  1  0  0  0  0
  5  6  2  0  0  0  0
  6  1  1  0  0  0  0
 10  9  1  0  0  0  0
 11  5  1  0  0  0  0
 11 10  2  0  0  0  0
 12 11  1  0  0  0  0
 13 12  1  0  0  0  0
 14 12  2  0  0  0  0
 14 15  1  0  0  0  0
 15 17  2  0  0  0  0
 16 15  1  0  0  0  0
 17 10  1  0  0  0  0
 17 18  1  0  0  0  0
 19  3  1  0  0  0  0
 20 19  1  0  0  0  0
 21 20  1  0  0  0  0
 22 20  1  0  0  0  0
 23 20  1  0  0  0  0
M  END
>  <minimizedAffinity>
-4.76434088

$$$$

 OpenBabel03242520523D

 23 24  0  0  0  0  0  0  0  0999 V2000
   35.8330   30.4140   40.4370 C   0  0  0  0  0  0  0  0  0  0  0  0
   36.8640   31.2650   40.8640 C   0  0  0  0  0  0  0  0  0  0  0  0
   38.0700   30.7220   41.2650 C   0  0  0  0  0  0  0  0  0  0  0  0
   38.2100   29.3760   41.2280 N   0  0  0  0  0  0  0  0  0  0  0  0
   37.1960   28.5720   40.8100 C   0  0  0  0  0  0  0  0  0  0  0  0
   36.0290   29.1020   40.4230 N   0  0  0  0  0  0  0  0  0  0  0  0
   34.9370   30.9470   40.1460 H   0  0  0  0  0  0  0  0  0  0  0  0
   36.7780   32.3240   40.9010 H   0  0  0  0  0  0  0  0  0  0  0  0
   36.5160   27.0740   43.3500 Cl  0  0  0  0  0  0  0  0  0  0  0  0
   37.0770   26.3260   41.8650 C   0  0  0  0  0  0  0  0  0  0  0  0
   37.3540   27.1230   40.7740 C   0  0  0  0  0  0  0  0  0  0  0  0
   37.7850   26.4740   39.6540 C   0  0  0  0  0  0  0  0  0  0  0  0
   38.0120   27.0780   38.7760 H   0  0  0  0  0  0  0  0  0  0  0  0
   37.9440   25.1100   39.5900 C   0  0  0  0  0  3  0  0  0  0  0  0
   37.6510   24.3640   40.7170 C   0  0  0  0  0  0  0  0  0  0  0  0
   37.8340   22.6140   40.6960 Cl  0  0  0  0  0  0  0  0  0  0  0  0
   37.2060   24.9520   41.8940 C   0  0  0  0  0  0  0  0  0  0  0  0
   36.9730   24.3750   42.7860 H   0  0  0  0  0  0  0  0  0  0  0  0
   39.1760   31.4200   41.7090 O   0  0  0  0  0  0  0  0  0  0  0  0
   39.6810   32.4400   40.8280 C   0  0  0  0  0  0  0  0  0  0  0  0
   38.9530   33.5990   40.9720 F   0  0  0  0  0  0  0  0  0  0  0  0
   41.0130   32.6950   41.1930 F   0  0  0  0  0  0  0  0  0  0  0  0
   39.6750   31.9840   39.5060 F   0  0  0  0  0  0  0  0  0  0  0  0
  1  2  1  0  0  0  0
  2  8  1  0  0  0  0
  2  3  2  0  0  0  0
  3 19  1  0  0  0  0
  4  3  1  0  0  0  0
  5  4  2  0  0  0  0
  6  1  2  0  0  0  0
  6  5  1  0  0  0  0
  7  1  1  0  0  0  0
 10 17  1  0  0  0  0
 10  9  1  0  0  0  0
 11  5  1  0  0  0  0
 11 10  2  0  0  0  0
 12 11  1  0  0  0  0
 13 12  1  0  0  0  0
 14 12  2  0  0  0  0
 14 15  1  0  0  0  0
 15 17  2  0  0  0  0
 16 15  1  0  0  0  0
 17 18  1  0  0  0  0
 20 21  1  0  0  0  0
 20 22  1  0  0  0  0
 20 19  1  0  0  0  0
 23 20  1  0  0  0  0
M  END
>  <minimizedAffinity>
-4.69959974

$$$$

 OpenBabel03242520523D

 23 24  0  0  0  0  0  0  0  0999 V2000
   35.0990   26.3260   37.7230 C   0  0  0  0  0  0  0  0  0  0  0  0
   35.7950   25.3350   38.4310 C   0  0  0  0  0  0  0  0  0  0  0  0
   36.7560   25.7070   39.3540 C   0  0  0  0  0  0  0  0  0  0  0  0
   36.9880   27.0280   39.5380 N   0  0  0  0  0  0  0  0  0  0  0  0
   36.2990   27.9700   38.8390 C   0  0  0  0  0  0  0  0  0  0  0  0
   35.3700   27.6050   37.9470 N   0  0  0  0  0  0  0  0  0  0  0  0
   34.3730   25.9200   37.0310 H   0  0  0  0  0  0  0  0  0  0  0  0
   35.6310   24.2920   38.3040 H   0  0  0  0  0  0  0  0  0  0  0  0
   37.5430   29.4660   36.5220 Cl  0  0  0  0  0  0  0  0  0  0  0  0
   37.1180   30.1840   38.0650 C   0  0  0  0  0  0  0  0  0  0  0  0
   36.5550   29.3910   39.0430 C   0  0  0  0  0  0  0  0  0  0  0  0
   36.2500   30.0150   40.2170 C   0  0  0  0  0  0  0  0  0  0  0  0
   35.8040   29.4140   41.0080 H   0  0  0  0  0  0  0  0  0  0  0  0
   36.4790   31.3530   40.4390 C   0  0  0  0  0  3  0  0  0  0  0  0
   37.0470   32.0970   39.4200 C   0  0  0  0  0  0  0  0  0  0  0  0
   37.3650   33.8120   39.6440 Cl  0  0  0  0  0  0  0  0  0  0  0  0
   37.3840   31.5320   38.1970 C   0  0  0  0  0  0  0  0  0  0  0  0
   37.8320   32.1070   37.3900 H   0  0  0  0  0  0  0  0  0  0  0  0
   37.5230   24.8580   40.1260 O   0  0  0  0  0  0  0  0  0  0  0  0
   36.9340   24.4170   41.3640 C   0  0  0  0  0  0  0  0  0  0  0  0
   35.7730   23.7180   41.1170 F   0  0  0  0  0  0  0  0  0  0  0  0
   37.8530   23.5590   41.9890 F   0  0  0  0  0  0  0  0  0  0  0  0
   36.7130   25.5070   42.2110 F   0  0  0  0  0  0  0  0  0  0  0  0
  1  6  2  0  0  0  0
  1  2  1  0  0  0  0
  2  3  2  0  0  0  0
  3  4  1  0  0  0  0
  3 19  1  0  0  0  0
  5 11  1  0  0  0  0
  5  4  2  0  0  0  0
  6  5  1  0  0  0  0
  7  1  1  0  0  0  0
  8  2  1  0  0  0  0
  9 10  1  0  0  0  0
 10 17  2  0  0  0  0
 10 11  1  0  0  0  0
 11 12  2  0  0  0  0
 12 14  1  0  0  0  0
 12 13  1  0  0  0  0
 15 16  1  0  0  0  0
 15 14  2  0  0  0  0
 17 15  1  0  0  0  0
 18 17  1  0  0  0  0
 19 20  1  0  0  0  0
 20 22  1  0  0  0  0
 20 23  1  0  0  0  0
 21 20  1  0  0  0  0
M  END
>  <minimizedAffinity>
-4.6669836

$$$$

 OpenBabel03242520523D

 23 24  0  0  0  0  0  0  0  0999 V2000
   37.1470   29.4410   37.4350 C   0  0  0  0  0  0  0  0  0  0  0  0
   37.5080   30.7730   37.6850 C   0  0  0  0  0  0  0  0  0  0  0  0
   38.2240   31.0800   38.8270 C   0  0  0  0  0  0  0  0  0  0  0  0
   38.5520   30.0700   39.6670 N   0  0  0  0  0  0  0  0  0  0  0  0
   38.1910   28.7860   39.4020 C   0  0  0  0  0  0  0  0  0  0  0  0
   37.4970   28.4930   38.2950 N   0  0  0  0  0  0  0  0  0  0  0  0
   36.5900   29.3180   36.5140 H   0  0  0  0  0  0  0  0  0  0  0  0
   37.2620   31.5820   37.0400 H   0  0  0  0  0  0  0  0  0  0  0  0
   36.2760   28.2520   41.6840 Cl  0  0  0  0  0  0  0  0  0  0  0  0
   37.7590   27.3610   41.3900 C   0  0  0  0  0  0  0  0  0  0  0  0
   38.5470   27.7040   40.3120 C   0  0  0  0  0  0  0  0  0  0  0  0
   39.6850   26.9690   40.1450 C   0  0  0  0  0  0  0  0  0  0  0  0
   40.3270   27.2170   39.3010 H   0  0  0  0  0  0  0  0  0  0  0  0
   40.0470   25.9440   40.9860 C   0  0  0  0  0  3  0  0  0  0  0  0
   39.2160   25.6460   42.0510 C   0  0  0  0  0  0  0  0  0  0  0  0
   39.6270   24.3450   43.1610 Cl  0  0  0  0  0  0  0  0  0  0  0  0
   38.0420   26.3490   42.2860 C   0  0  0  0  0  0  0  0  0  0  0  0
   37.3810   26.1240   43.1200 H   0  0  0  0  0  0  0  0  0  0  0  0
   38.6530   32.3340   39.2130 O   0  0  0  0  0  0  0  0  0  0  0  0
   37.7180   33.1180   39.9770 C   0  0  0  0  0  0  0  0  0  0  0  0
   38.3890   34.0370   40.7530 F   0  0  0  0  0  0  0  0  0  0  0  0
   36.9000   33.8080   39.0690 F   0  0  0  0  0  0  0  0  0  0  0  0
   36.9020   32.2850   40.7480 F   0  0  0  0  0  0  0  0  0  0  0  0
  1  2  2  0  0  0  0
  1  6  1  0  0  0  0
  2  3  1  0  0  0  0
  3 19  1  0  0  0  0
  3  4  2  0  0  0  0
  5  4  1  0  0  0  0
  5 11  1  0  0  0  0
  6  5  2  0  0  0  0
  7  1  1  0  0  0  0
  8  2  1  0  0  0  0
 10  9  1  0  0  0  0
 10 17  1  0  0  0  0
 11 10  2  0  0  0  0
 12 11  1  0  0  0  0
 12 14  2  0  0  0  0
 13 12  1  0  0  0  0
 14 15  1  0  0  0  0
 15 17  2  0  0  0  0
 15 16  1  0  0  0  0
 17 18  1  0  0  0  0
 19 20  1  0  0  0  0
 20 23  1  0  0  0  0
 20 21  1  0  0  0  0
 22 20  1  0  0  0  0
M  END
>  <minimizedAffinity>
-4.64495754

$$$$
