REMARK  Name = 
REMARK  2 active torsions:
REMARK  status: ('A' for Active; 'I' for Inactive)
REMARK    1  A    between atoms: C_2  and  C_14
REMARK    2  A    between atoms: C_9  and  C_25
REMARK                            x       y       z     vdW  Elec       q    Type
REMARK                         _______ _______ _______ _____ _____    ______ ____
ROOT
ATOM      1  C   UNL     1      47.224  31.369  45.088  0.00  0.00    +0.000 A 
ATOM      2  C   UNL     1      46.877  32.706  45.098  0.00  0.00    +0.000 A 
ATOM      3  C   UNL     1      46.272  33.327  46.184  0.00  0.00    +0.000 A 
ATOM      4  C   UNL     1      46.001  32.555  47.323  0.00  0.00    +0.000 A 
ATOM      5  N   UNL     1      45.434  32.809  48.541  0.00  0.00    +0.000 N 
ATOM      6  C   UNL     1      45.437  31.653  49.255  0.00  0.00    +0.000 A 
ATOM      7  N   UNL     1      45.999  30.709  48.476  0.00  0.00    +0.000 NA
ATOM      8  C   UNL     1      46.354  31.229  47.288  0.00  0.00    +0.000 A 
ATOM      9  C   UNL     1      46.951  30.609  46.223  0.00  0.00    +0.000 A 
ATOM     10  H   UNL     1      47.696  30.943  44.203  0.00  0.00    +0.000 HD
ATOM     11  H   UNL     1      46.005  34.358  46.191  0.00  0.00    +0.000 HD
ATOM     12  H   UNL     1      45.076  33.748  48.828  0.00  0.00    +0.000 HD
ATOM     13  H   UNL     1      45.038  31.628  50.241  0.00  0.00    +0.000 HD
ENDROOT
BRANCH   9  16
ATOM     14 CL   UNL     1      48.339  29.512  48.646  0.00  0.00    +0.000 Cl
ATOM     15  C   UNL     1      47.979  28.532  47.226  0.00  0.00    +0.000 A 
ATOM     16  C   UNL     1      47.328  29.199  46.184  0.00  0.00    +0.000 A 
ATOM     17  C   UNL     1      47.036  28.443  45.058  0.00  0.00    +0.000 A 
ATOM     18  H   UNL     1      46.530  28.930  44.229  0.00  0.00    +0.000 HD
ATOM     19  C   UNL     1      47.346  27.102  44.914  0.00  0.00    +0.000 A 
ATOM     20  C   UNL     1      47.982  26.501  45.962  0.00  0.00    +0.000 A 
ATOM     21 CL   UNL     1      48.404  24.815  45.854  0.00  0.00    +0.000 Cl
ATOM     22  C   UNL     1      48.294  27.197  47.098  0.00  0.00    +0.000 A 
ATOM     23  H   UNL     1      48.800  26.755  47.954  0.00  0.00    +0.000 HD
ENDBRANCH   9  16
BRANCH   2  28
ATOM     24  C   UNL     1      46.510  35.213  42.425  0.00  0.00    +0.000 A 
ATOM     25  C   UNL     1      47.718  35.054  41.709  0.00  0.00    +0.000 A 
ATOM     26  C   UNL     1      48.650  34.086  42.150  0.00  0.00    +0.000 A 
ATOM     27  N   UNL     1      48.314  33.357  43.258  0.00  0.00    +0.000 NA
ATOM     28  C   UNL     1      47.149  33.532  43.923  0.00  0.00    +0.000 A 
ATOM     29  N   UNL     1      46.276  34.445  43.503  0.00  0.00    +0.000 NA
ATOM     30  H   UNL     1      45.840  35.962  42.045  0.00  0.00    +0.000 HD
ATOM     31  H   UNL     1      48.009  35.615  40.831  0.00  0.00    +0.000 HD
ATOM     32  H   UNL     1      49.585  33.893  41.677  0.00  0.00    +0.000 HD
ENDBRANCH   2  28
TORSDOF 2
