
 OpenBabel03252503083D

 28 30  0  0  1  0  0  0  0  0999 V2000
   45.0440   35.8410   43.7290 C   0  0  0  0  0  0  0  0  0  0  0  0
   45.7140   34.6530   43.3370 C   0  0  0  0  0  0  0  0  0  0  0  0
   45.8090   33.6960   44.3370 C   0  0  0  0  0  0  0  0  0  0  0  0
   45.3080   33.8850   45.5650 N   0  0  0  0  0  0  0  0  0  0  0  0
   44.6720   35.0490   45.8880 C   0  0  0  0  0  0  0  0  0  0  0  0
   44.5510   36.0160   44.9540 N   0  0  0  0  0  0  0  0  0  0  0  0
   44.9380   36.6330   42.9830 H   0  0  0  0  0  0  0  0  0  0  0  0
   44.2890   35.1470   46.8920 H   0  0  0  0  0  0  0  0  0  0  0  0
   46.4340   32.4890   44.0370 C   0  0  0  0  0  0  0  0  0  0  0  0
   47.7160   32.0800   43.8690 C   0  0  0  0  0  0  0  0  0  0  0  0
   48.0840   30.8470   43.5580 C   0  0  0  0  0  0  0  0  0  0  0  0
   47.0670   29.9430   43.4020 C   0  0  0  0  0  0  0  0  0  0  0  0
   45.5740   30.9650   43.7290 S   0  0  0  0  0  0  0  0  0  0  0  0
   48.6200   32.6520   43.9910 H   0  0  0  0  0  0  0  0  0  0  0  0
   48.9730   30.2900   43.3750 H   0  0  0  0  0  0  0  0  0  0  0  0
   46.8490   28.9270   43.1750 H   0  0  0  0  0  0  0  0  0  0  0  0
   46.2010   34.5420   42.0140 C   0  0  2  0  0  3  0  0  0  0  0  0
   47.1480   35.4260   41.7800 O   0  0  0  0  0  1  0  0  0  0  0  0
   43.6780   35.5470   40.9550 Cl  0  0  0  0  0  0  0  0  0  0  0  0
   44.5900   34.1260   40.3960 C   0  0  0  0  0  0  0  0  0  0  0  0
   45.8190   33.6360   40.8870 C   0  0  0  0  0  0  0  0  0  0  0  0
   46.2990   32.5170   40.2670 C   0  0  0  0  0  0  0  0  0  0  0  0
   47.2240   32.2170   40.7270 H   0  0  0  0  0  0  0  0  0  0  0  0
   45.6520   31.8920   39.2340 C   0  0  0  0  0  3  0  0  0  0  0  0
   44.4530   32.3760   38.7600 C   0  0  0  0  0  0  0  0  0  0  0  0
   43.7500   31.4690   37.4380 Cl  0  0  0  0  0  0  0  0  0  0  0  0
   43.9120   33.5000   39.3380 C   0  0  0  0  0  0  0  0  0  0  0  0
   42.9760   33.8060   38.9050 H   0  0  0  0  0  0  0  0  0  0  0  0
  1  6  1  0  0  0  0
  2  1  2  0  0  0  0
  2  3  1  0  0  0  0
  3  4  2  0  0  0  0
  4  5  1  0  0  0  0
  5  8  1  0  0  0  0
  6  5  2  0  0  0  0
  7  1  1  0  0  0  0
  9  3  1  0  0  0  0
 10 14  1  0  0  0  0
 10  9  2  0  0  0  0
 11 10  1  0  0  0  0
 12 11  2  0  0  0  0
 12 13  1  0  0  0  0
 13  9  1  0  0  0  0
 15 11  1  0  0  0  0
 16 12  1  0  0  0  0
 17 18  1  6  0  0  0
 17  2  1  0  0  0  0
 20 21  1  0  0  0  0
 20 19  1  0  0  0  0
 21 17  1  0  0  0  0
 22 23  1  0  0  0  0
 22 21  2  0  0  0  0
 24 22  1  0  0  0  0
 25 24  2  0  0  0  0
 25 27  1  0  0  0  0
 26 25  1  0  0  0  0
 27 20  2  0  0  0  0
 28 27  1  0  0  0  0
M  END
>  <minimizedAffinity>
-4.40674019

>  <minimizedRMSD>
0.843454003

$$$$
