
 OpenBabel03242523103D

 47 51  0  0  1  0  0  0  0  0999 V2000
   46.4200   31.9980   45.4090 C   0  0  0  0  0  0  0  0  0  0  0  0
   46.7800   32.7430   44.2710 C   0  0  0  0  0  0  0  0  0  0  0  0
   47.7740   32.1200   43.5540 C   0  0  0  0  0  0  0  0  0  0  0  0
   48.3630   30.9340   43.8740 C   0  0  0  0  0  0  0  0  0  0  0  0
   47.9520   30.2630   45.0230 C   0  0  0  0  0  0  0  0  0  0  0  0
   46.9660   30.8030   45.7980 C   0  0  0  0  0  0  0  0  0  0  0  0
   48.7370   29.1220   45.0650 O   0  0  0  0  0  0  0  0  0  0  0  0
   49.5850   29.0680   43.9290 C   0  0  2  0  0  0  0  0  0  0  0  0
   49.3600   30.2630   43.1870 O   0  0  0  0  0  0  0  0  0  0  0  0
   45.6500   32.2110   46.1830 H   0  0  0  0  0  0  0  0  0  0  0  0
   48.0540   32.6560   42.7020 H   0  0  0  0  0  0  0  0  0  0  0  0
   46.7310   30.2020   46.6470 H   0  0  0  0  0  0  0  0  0  0  0  0
   50.6550   29.0260   44.2090 H   0  0  0  0  0  0  0  0  0  0  0  0
   45.2170   36.0330   43.3950 C   0  0  0  0  0  0  0  0  0  0  0  0
   46.0120   34.9060   43.1830 C   0  0  0  0  0  0  0  0  0  0  0  0
   46.0990   33.9600   44.1590 C   0  0  0  0  0  0  0  0  0  0  0  0
   45.3900   34.1770   45.3120 N   0  0  0  0  0  0  0  0  0  0  0  0
   44.6270   35.2640   45.5100 C   0  0  0  0  0  0  0  0  0  0  0  0
   44.5480   36.1680   44.5650 N   0  0  0  0  0  0  0  0  0  0  0  0
   45.1430   36.7880   42.6230 H   0  0  0  0  0  0  0  0  0  0  0  0
   44.0490   35.4860   46.3960 H   0  0  0  0  0  0  0  0  0  0  0  0
   46.7000   34.8270   41.9730 N   0  0  0  0  0  0  0  0  0  0  0  0
   48.0030   35.3870   41.8110 C   0  0  0  0  0  0  0  0  0  0  0  0
   48.6710   35.0630   40.5050 C   0  0  0  0  0  0  0  0  0  0  0  0
   48.4760   33.7580   40.0460 N   0  0  0  0  0  0  0  0  0  0  0  0
   47.2060   33.2390   40.1740 C   0  0  0  0  0  0  0  0  0  0  0  0
   46.2330   34.2200   40.7930 C   0  0  0  0  0  0  0  0  0  0  0  0
   48.7150   35.1490   42.6500 H   0  0  0  0  0  0  0  0  0  0  0  0
   47.8820   36.4940   41.8440 H   0  0  0  0  0  0  0  0  0  0  0  0
   49.7670   35.2750   40.6240 H   0  0  0  0  0  0  0  0  0  0  0  0
   48.3310   35.7950   39.7440 H   0  0  0  0  0  0  0  0  0  0  0  0
   49.2050   33.1180   40.4660 H   0  0  0  0  0  0  0  0  0  0  0  0
   46.7710   32.9940   39.1610 H   0  0  0  0  0  0  0  0  0  0  0  0
   47.0850   32.2880   40.7570 H   0  0  0  0  0  0  0  0  0  0  0  0
   46.1020   35.0190   40.0070 H   0  0  0  0  0  0  0  0  0  0  0  0
   45.2280   33.7620   40.9040 H   0  0  0  0  0  0  0  0  0  0  0  0
   49.1650   27.9670   43.1740 O   0  0  0  0  0  0  0  0  0  0  0  0
   50.7040   27.7690   40.7180 Cl  0  0  0  0  0  0  0  0  0  0  0  0
   48.9620   27.8330   40.8780 C   0  0  0  0  0  0  0  0  0  0  0  0
   48.3120   27.9280   42.1120 C   0  0  0  0  0  0  0  0  0  0  0  0
   46.9370   27.9760   42.2230 C   0  0  0  0  0  0  0  0  0  0  0  0
   46.4790   28.0490   43.1860 H   0  0  0  0  0  0  0  0  0  0  0  0
   46.2330   27.9260   41.0560 C   0  0  0  0  0  3  0  0  0  0  0  0
   46.8310   27.8330   39.8270 C   0  0  0  0  0  0  0  0  0  0  0  0
   45.8990   27.7690   38.3360 Cl  0  0  0  0  0  0  0  0  0  0  0  0
   48.1880   27.7850   39.7150 C   0  0  0  0  0  0  0  0  0  0  0  0
   48.6980   27.7090   38.7470 H   0  0  0  0  0  0  0  0  0  0  0  0
  1  6  1  0  0  0  0
  1 10  1  0  0  0  0
  2  1  2  0  0  0  0
  3  4  2  0  0  0  0
  3  2  1  0  0  0  0
  4  5  1  0  0  0  0
  5  7  1  0  0  0  0
  5  6  2  0  0  0  0
  6 12  1  0  0  0  0
  8 13  1  1  0  0  0
  8  7  1  0  0  0  0
  9  4  1  0  0  0  0
  9  8  1  0  0  0  0
 11  3  1  0  0  0  0
 14 19  1  0  0  0  0
 15 14  2  0  0  0  0
 15 16  1  0  0  0  0
 16  2  1  0  0  0  0
 16 17  2  0  0  0  0
 17 18  1  0  0  0  0
 18 21  1  0  0  0  0
 19 18  2  0  0  0  0
 20 14  1  0  0  0  0
 22 15  1  0  0  0  0
 23 29  1  0  0  0  0
 23 22  1  0  0  0  0
 23 28  1  0  0  0  0
 24 30  1  0  0  0  0
 24 23  1  0  0  0  0
 25 26  1  0  0  0  0
 25 32  1  0  0  0  0
 25 24  1  0  0  0  0
 26 34  1  0  0  0  0
 26 27  1  0  0  0  0
 27 36  1  0  0  0  0
 27 22  1  0  0  0  0
 31 24  1  0  0  0  0
 33 26  1  0  0  0  0
 35 27  1  0  0  0  0
 37  8  1  0  0  0  0
 38 39  1  0  0  0  0
 39 40  1  0  0  0  0
 40 41  2  0  0  0  0
 40 37  1  0  0  0  0
 41 42  1  0  0  0  0
 43 41  1  0  0  0  0
 44 43  2  0  0  0  0
 45 44  1  0  0  0  0
 46 44  1  0  0  0  0
 46 39  2  0  0  0  0
 47 46  1  0  0  0  0
M  END
>  <minimizedAffinity>
-4.71460867

>  <minimizedRMSD>
2.60875916

$$$$
