
     RDKit          3D

 45 49  0  0  0  0  0  0  0  0999 V2000
   44.7820   35.9743   43.2910 Cl  0  0  0  0  0  0  0  0  0  0  0  0
   45.5335   34.7345   44.2432 C   0  0  0  0  0  0  0  0  0  0  0  0
   46.6324   34.0507   43.7516 C   0  0  0  0  0  0  0  0  0  0  0  0
   47.1501   33.0834   44.5962 C   0  0  0  0  0  0  0  0  0  0  0  0
   46.6658   32.7681   45.8420 C   0  0  0  0  0  0  0  0  0  0  0  0
   45.5763   33.4680   46.2930 C   0  0  0  0  0  0  0  0  0  0  0  0
   44.9793   33.0466   47.8838 Cl  0  0  0  0  0  0  0  0  0  0  0  0
   45.0148   34.4386   45.5078 C   0  0  0  0  0  0  0  0  0  0  0  0
   47.3563   31.7153   46.5728 C   0  0  0  0  0  0  0  0  0  0  0  0
   47.4649   30.4182   46.0962 C   0  0  0  0  0  0  0  0  0  0  0  0
   48.1121   29.3988   46.7641 C   0  0  0  0  0  0  0  0  0  0  0  0
   48.6937   29.6663   47.9833 C   0  0  0  0  0  0  0  0  0  0  0  0
   49.3196   28.6648   48.6210 N   0  0  0  0  0  0  0  0  0  0  0  0
   49.9198   28.8431   49.8279 C   0  0  0  0  0  0  0  0  0  0  0  0
   49.8530   30.1118   50.3673 C   0  0  0  0  0  0  0  0  0  0  0  0
   49.2133   31.1358   49.7157 C   0  0  0  0  0  0  0  0  0  0  0  0
   48.6087   30.9342   48.4884 C   0  0  0  0  0  0  0  0  0  0  0  0
   47.9563   31.9426   47.8050 C   0  0  0  0  0  0  0  0  0  0  0  0
   48.7717   35.4441   41.1617 C   0  0  0  0  0  0  0  0  0  0  0  0
   48.2757   34.8622   39.9862 C   0  0  0  0  0  0  0  0  0  0  0  0
   47.1857   33.9751   40.0899 C   0  0  0  0  0  0  0  0  0  0  0  0
   46.7146   33.7662   41.3335 N   0  0  0  0  0  0  0  0  0  0  0  0
   47.2003   34.3301   42.4445 C   0  0  0  0  0  0  0  0  0  0  0  0
   48.2321   35.1733   42.3689 N   0  0  0  0  0  0  0  0  0  0  0  0
   48.0205   32.5508   44.1917 H   0  0  0  0  0  0  0  0  0  0  0  0
   44.1557   34.9844   45.8736 H   0  0  0  0  0  0  0  0  0  0  0  0
   47.0071   30.1882   45.1265 H   0  0  0  0  0  0  0  0  0  0  0  0
   48.1647   28.3991   46.3391 H   0  0  0  0  0  0  0  0  0  0  0  0
   50.4053   27.9908   50.2832 H   0  0  0  0  0  0  0  0  0  0  0  0
   50.3332   30.2619   51.3368 H   0  0  0  0  0  0  0  0  0  0  0  0
   49.1808   32.1103   50.1648 H   0  0  0  0  0  0  0  0  0  0  0  0
   47.9119   32.9255   48.2366 H   0  0  0  0  0  0  0  0  0  0  0  0
   49.6025   36.1154   41.0489 H   0  0  0  0  0  0  0  0  0  0  0  0
   48.7058   35.0805   39.0406 H   0  0  0  0  0  0  0  0  0  0  0  0
   48.9045   34.1341   37.7066 Cl  0  0  0  0  0  0  0  0  0  0  0  0
   47.3283   33.3400   37.7533 C   0  0  0  0  0  0  0  0  0  0  0  0
   46.6040   33.3239   38.9258 C   0  0  0  0  0  0  0  0  0  0  0  0
   45.3927   32.6984   38.9118 C   0  0  0  0  0  0  0  0  0  0  0  0
   44.7962   32.6653   39.8118 H   0  0  0  0  0  0  0  0  0  0  0  0
   44.9248   32.1019   37.7353 C   0  0  0  0  0  0  0  0  0  0  0  0
   45.6739   32.1379   36.5871 C   0  0  0  0  0  0  0  0  0  0  0  0
   45.0762   31.3844   35.1129 Cl  0  0  0  0  0  0  0  0  0  0  0  0
   46.9007   32.7660   36.5837 C   0  0  0  0  0  0  0  0  0  0  0  0
   47.4860   32.7926   35.6810 H   0  0  0  0  0  0  0  0  0  0  0  0
   43.9572   31.6232   37.7935 H   0  0  0  0  0  0  0  0  0  0  0  0
  1  2  1  0
  2  8  2  0
  3  2  1  0
  3  4  2  0
  4  5  1  0
  5  6  2  0
  5  9  1  0
  6  7  1  0
  8  6  1  0
  9 18  1  0
 10  9  2  0
 10 11  1  0
 11 12  2  0
 12 17  1  0
 12 13  1  0
 13 14  2  0
 14 15  1  0
 16 15  2  0
 17 16  1  0
 18 17  2  0
 19 24  2  0
 20 21  2  0
 20 19  1  0
 21 22  1  0
 22 23  2  0
 23  3  1  0
 24 23  1  0
  4 25  1  0
  8 26  1  0
 10 27  1  0
 11 28  1  0
 14 29  1  0
 15 30  1  0
 16 31  1  0
 18 32  1  0
 19 33  1  0
 20 34  1  0
 35 36  1  0
 36 37  2  0
 37 38  1  0
 38 39  1  0
 38 40  2  0
 40 41  1  0
 41 42  1  0
 41 43  2  0
 43 44  1  0
 43 36  1  0
 40 45  1  0
 21 37  1  0
M  ISO  8  25  14  26  14  27  14  28  14  29  14  30  14  31  14  32  14
M  ISO  4  33  14  34  14  39  16  44  15
M  END
>  <DihAtoms>  (1) 
19,20,36,35

>  <DihDeg>  (1) 
-179.99885252476147

$$$$
