
     RDKit          3D

 23 24  0  0  0  0  0  0  0  0999 V2000
   45.4416   35.0681   43.9892 C   0  0  0  0  0  0  0  0  0  0  0  0
   46.5064   34.2904   43.5035 C   0  0  0  0  0  0  0  0  0  0  0  0
   47.0172   33.2893   44.3348 C   0  0  0  0  0  0  0  0  0  0  0  0
   46.4563   33.1232   45.5670 N   0  0  0  0  0  0  0  0  0  0  0  0
   45.4322   33.8964   45.9909 C   0  0  0  0  0  0  0  0  0  0  0  0
   44.9193   34.8673   45.2142 N   0  0  0  0  0  0  0  0  0  0  0  0
   44.8919   36.1383   43.1043 C   0  0  0  0  0  0  0  0  0  0  0  0
   46.9202   34.4681   42.5035 H   0  0  0  0  0  0  0  0  0  0  0  0
   47.8283   32.6710   44.0076 H   0  0  0  0  0  0  0  0  0  0  0  0
   45.1002   33.6480   46.9754 H   0  0  0  0  0  0  0  0  0  0  0  0
   44.5174   36.9973   43.7103 H   0  0  0  0  0  0  0  0  0  0  0  0
   45.7522   36.5263   42.5238 H   0  0  0  0  0  0  0  0  0  0  0  0
   43.7535   38.2237   41.2475 Cl  0  0  0  0  0  0  0  0  0  0  0  0
   43.2208   36.5645   41.3646 C   0  0  0  0  0  0  0  0  0  0  0  0
   43.7935   35.6677   42.2415 C   0  0  0  0  0  0  0  0  0  0  0  0
   43.2809   34.3864   42.2364 C   0  0  0  0  0  0  0  0  0  0  0  0
   43.7487   33.6963   42.9371 H   0  0  0  0  0  0  0  0  0  0  0  0
   42.2480   33.9724   41.4144 C   0  0  0  0  0  0  0  0  0  0  0  0
   41.7024   34.9204   40.5440 C   0  0  0  0  0  0  0  0  0  0  0  0
   40.3826   34.3888   39.4947 Cl  0  0  0  0  0  0  0  0  0  0  0  0
   42.1827   36.2197   40.5121 C   0  0  0  0  0  0  0  0  0  0  0  0
   41.6907   36.8558   39.8083 H   0  0  0  0  0  0  0  0  0  0  0  0
   41.8894   32.9472   41.4597 H   0  0  0  0  0  0  0  0  0  0  0  0
  1  6  1  0
  2  1  2  0
  2  3  1  0
  3  4  2  0
  4  5  1  0
  6  5  2  0
  7  1  1  0
  2  8  1  0
  3  9  1  0
  5 10  1  0
  7 11  1  0
  7 12  1  0
 13 14  1  0
 14 15  2  0
 15 16  1  0
 16 17  1  0
 16 18  2  0
 18 19  1  0
 19 20  1  0
 19 21  2  0
 21 22  1  0
 21 14  1  0
 18 23  1  0
  7 15  1  0
M  ISO  7   8  14   9  14  10  14  11   8  12   8  17  16  22  15
M  END
>  <DihAtoms>  (1) 
0,6,14,13

>  <DihDeg>  (1) 
76.02489206239109

$$$$
