
 OpenBabel03242515393D

 37 40  0  0  0  0  0  0  0  0999 V2000
   43.9300   34.6320   40.9160 C   0  0  0  0  0  0  0  0  0  0  0  0
   43.8850   33.5330   40.0760 C   0  0  0  0  0  0  0  0  0  0  0  0
   45.0890   32.8860   39.7970 C   0  0  0  0  0  0  0  0  0  0  0  0
   46.2250   33.3760   40.3680 N   0  0  0  0  0  0  0  0  0  0  0  0
   46.2330   34.4370   41.1720 C   0  0  0  0  0  0  0  0  0  0  0  0
   45.0870   35.0400   41.4280 N   0  0  0  0  0  0  0  0  0  0  0  0
   42.9530   33.2030   39.6620 H   0  0  0  0  0  0  0  0  0  0  0  0
   45.5470   33.5230   36.9460 Cl  0  0  0  0  0  0  0  0  0  0  0  0
   45.3570   31.8930   37.5900 C   0  0  0  0  0  0  0  0  0  0  0  0
   45.1490   31.7360   38.9380 C   0  0  0  0  0  0  0  0  0  0  0  0
   45.0130   30.4270   39.3460 C   0  0  0  0  0  0  0  0  0  0  0  0
   44.8470   30.2240   40.3920 H   0  0  0  0  0  0  0  0  0  0  0  0
   45.0820   29.3460   38.4610 C   0  0  0  0  0  3  0  0  0  0  0  0
   45.2950   29.5920   37.1100 C   0  0  0  0  0  0  0  0  0  0  0  0
   45.3720   28.2050   36.0520 Cl  0  0  0  0  0  0  0  0  0  0  0  0
   45.4370   30.8940   36.6610 C   0  0  0  0  0  0  0  0  0  0  0  0
   45.6030   31.0730   35.6040 H   0  0  0  0  0  0  0  0  0  0  0  0
   42.3500   35.4470   41.2540 S   0  0  0  0  0  0  0  0  0  0  0  0
   40.1760   34.7720   39.8050 C   0  0  0  0  0  0  0  0  0  0  0  0
   40.9940   34.3520   40.8580 C   0  0  0  0  0  0  0  0  0  0  0  0
   40.7410   33.1660   41.5230 C   0  0  0  0  0  0  0  0  0  0  0  0
   39.6770   32.3520   41.1800 C   0  0  0  0  0  0  0  0  0  0  0  0
   38.8550   32.7790   40.1160 C   0  0  0  0  0  0  0  0  0  0  0  0
   39.0990   33.9690   39.4400 C   0  0  0  0  0  0  0  0  0  0  0  0
   37.8530   31.7890   39.9600 O   0  0  0  0  0  0  0  0  0  0  0  0
   37.8760   31.0290   41.1420 C   0  0  0  0  0  0  0  0  0  0  0  0
   39.1950   31.1440   41.6560 O   0  0  0  0  0  0  0  0  0  0  0  0
   40.3370   35.6850   39.2620 H   0  0  0  0  0  0  0  0  0  0  0  0
   41.4070   32.8950   42.3280 H   0  0  0  0  0  0  0  0  0  0  0  0
   38.4770   34.2950   38.6350 H   0  0  0  0  0  0  0  0  0  0  0  0
   37.5530   29.9890   41.0110 H   0  0  0  0  0  0  0  0  0  0  0  0
   37.2220   31.5640   41.8800 H   0  0  0  0  0  0  0  0  0  0  0  0
   47.3620   34.9470   41.7570 O   0  0  0  0  0  0  0  0  0  0  0  0
   48.5410   35.0660   41.0200 C   0  0  0  0  0  0  0  0  0  0  0  0
   49.4210   34.0440   41.2590 F   0  0  0  0  0  0  0  0  0  0  0  0
   48.1370   35.1320   39.6780 F   0  0  0  0  0  0  0  0  0  0  0  0
   49.1550   36.2470   41.4060 F   0  0  0  0  0  0  0  0  0  0  0  0
  1 18  1  0  0  0  0
  1  6  1  0  0  0  0
  2  1  2  0  0  0  0
  3  2  1  0  0  0  0
  3  4  2  0  0  0  0
  4  5  1  0  0  0  0
  5  6  2  0  0  0  0
  5 33  1  0  0  0  0
  7  2  1  0  0  0  0
  8  9  1  0  0  0  0
  9 10  1  0  0  0  0
 10 11  2  0  0  0  0
 10  3  1  0  0  0  0
 11 12  1  0  0  0  0
 13 11  1  0  0  0  0
 14 13  2  0  0  0  0
 15 14  1  0  0  0  0
 16 14  1  0  0  0  0
 16  9  2  0  0  0  0
 17 16  1  0  0  0  0
 19 20  1  0  0  0  0
 20 18  1  0  0  0  0
 20 21  2  0  0  0  0
 21 29  1  0  0  0  0
 22 21  1  0  0  0  0
 22 27  1  0  0  0  0
 23 22  2  0  0  0  0
 24 19  2  0  0  0  0
 24 23  1  0  0  0  0
 25 23  1  0  0  0  0
 25 26  1  0  0  0  0
 26 27  1  0  0  0  0
 26 32  1  0  0  0  0
 28 19  1  0  0  0  0
 30 24  1  0  0  0  0
 31 26  1  0  0  0  0
 34 35  1  0  0  0  0
 34 37  1  0  0  0  0
 34 33  1  0  0  0  0
 36 34  1  0  0  0  0
M  END
>  <minimizedAffinity>
-5.82925463

>  <minimizedRMSD>
0.552079737

$$$$
