
 OpenBabel03252506523D

 32 35  0  0  0  0  0  0  0  0999 V2000
   46.0930   30.8550   45.2620 C   0  0  0  0  0  0  0  0  0  0  0  0
   46.5370   32.1590   45.3560 C   0  0  0  0  0  0  0  0  0  0  0  0
   46.4940   32.8940   46.5350 C   0  0  0  0  0  0  0  0  0  0  0  0
   45.9720   32.2780   47.6820 C   0  0  0  0  0  0  0  0  0  0  0  0
   45.7740   32.6720   48.9760 N   0  0  0  0  0  0  0  0  0  0  0  0
   45.2230   31.6310   49.6520 C   0  0  0  0  0  0  0  0  0  0  0  0
   45.0880   30.6170   48.7760 N   0  0  0  0  0  0  0  0  0  0  0  0
   45.5370   30.9820   47.5620 C   0  0  0  0  0  0  0  0  0  0  0  0
   45.5760   30.2500   46.4050 C   0  0  0  0  0  0  0  0  0  0  0  0
   46.1550   30.3340   44.3060 H   0  0  0  0  0  0  0  0  0  0  0  0
   46.8370   33.9000   46.6070 H   0  0  0  0  0  0  0  0  0  0  0  0
   46.0220   33.6210   49.3360 H   0  0  0  0  0  0  0  0  0  0  0  0
   44.9870   31.7240   50.6850 H   0  0  0  0  0  0  0  0  0  0  0  0
   47.5520   28.0910   47.0660 Cl  0  0  0  0  0  0  0  0  0  0  0  0
   45.9040   27.7500   46.5440 C   0  0  0  0  0  0  0  0  0  0  0  0
   45.1140   28.8710   46.2760 C   0  0  0  0  0  0  0  0  0  0  0  0
   43.8120   28.6220   45.8620 C   0  0  0  0  0  0  0  0  0  0  0  0
   43.1710   29.4710   45.6450 H   0  0  0  0  0  0  0  0  0  0  0  0
   43.2700   27.3580   45.7060 C   0  0  0  0  0  3  0  0  0  0  0  0
   44.0860   26.2990   45.9810 C   0  0  0  0  0  0  0  0  0  0  0  0
   43.4740   24.6790   45.8070 Cl  0  0  0  0  0  0  0  0  0  0  0  0
   45.3770   26.4850   46.3920 C   0  0  0  0  0  0  0  0  0  0  0  0
   46.0590   25.6690   46.6220 H   0  0  0  0  0  0  0  0  0  0  0  0
   47.1590   34.6560   42.7210 C   0  0  0  0  0  0  0  0  0  0  0  0
   48.1550   34.0200   41.9460 C   0  0  0  0  0  0  0  0  0  0  0  0
   48.6050   32.7370   42.3350 C   0  0  0  0  0  0  0  0  0  0  0  0
   48.0380   32.1890   43.4530 N   0  0  0  0  0  0  0  0  0  0  0  0
   47.0850   32.8230   44.1750 C   0  0  0  0  0  0  0  0  0  0  0  0
   46.6660   34.0310   43.8040 N   0  0  0  0  0  0  0  0  0  0  0  0
   46.8550   35.6290   42.3800 H   0  0  0  0  0  0  0  0  0  0  0  0
   48.6200   34.4280   41.0590 H   0  0  0  0  0  0  0  0  0  0  0  0
   49.3500   32.1790   41.8160 H   0  0  0  0  0  0  0  0  0  0  0  0
  1  2  2  0  0  0  0
  1  9  1  0  0  0  0
  2  3  1  0  0  0  0
  3 11  1  0  0  0  0
  3  4  2  0  0  0  0
  4  5  1  0  0  0  0
  5 12  1  0  0  0  0
  5  6  1  0  0  0  0
  6 13  1  0  0  0  0
  7  6  2  0  0  0  0
  8  4  1  0  0  0  0
  8  7  1  0  0  0  0
  9  8  2  0  0  0  0
 10  1  1  0  0  0  0
 15 14  1  0  0  0  0
 16  9  1  0  0  0  0
 16 15  2  0  0  0  0
 17 16  1  0  0  0  0
 18 17  1  0  0  0  0
 19 17  2  0  0  0  0
 19 20  1  0  0  0  0
 20 22  2  0  0  0  0
 21 20  1  0  0  0  0
 22 15  1  0  0  0  0
 22 23  1  0  0  0  0
 24 29  1  0  0  0  0
 25 26  1  0  0  0  0
 25 24  2  0  0  0  0
 26 27  2  0  0  0  0
 27 28  1  0  0  0  0
 28  2  1  0  0  0  0
 29 28  2  0  0  0  0
 30 24  1  0  0  0  0
 31 25  1  0  0  0  0
 32 26  1  0  0  0  0
M  END
>  <minimizedAffinity>
-5.44586372

>  <minimizedRMSD>
2.2270453

$$$$
