
 OpenBabel03242515393D

 37 40  0  0  0  0  0  0  0  0999 V2000
   44.2960   34.7310   41.1030 C   0  0  0  0  0  0  0  0  0  0  0  0
   44.2450   34.1080   39.8670 C   0  0  0  0  0  0  0  0  0  0  0  0
   45.3960   33.4550   39.4280 C   0  0  0  0  0  0  0  0  0  0  0  0
   46.4910   33.4730   40.2390 N   0  0  0  0  0  0  0  0  0  0  0  0
   46.5060   34.0830   41.4230 C   0  0  0  0  0  0  0  0  0  0  0  0
   45.4090   34.6970   41.8270 N   0  0  0  0  0  0  0  0  0  0  0  0
   43.3480   34.1350   39.2820 H   0  0  0  0  0  0  0  0  0  0  0  0
   47.7380   34.1630   37.7650 Cl  0  0  0  0  0  0  0  0  0  0  0  0
   46.4830   33.0180   37.2930 C   0  0  0  0  0  0  0  0  0  0  0  0
   45.4460   32.7790   38.1610 C   0  0  0  0  0  0  0  0  0  0  0  0
   44.5160   31.8710   37.7040 C   0  0  0  0  0  0  0  0  0  0  0  0
   43.6730   31.6310   38.3300 H   0  0  0  0  0  0  0  0  0  0  0  0
   44.6200   31.2430   36.4580 C   0  0  0  0  0  3  0  0  0  0  0  0
   45.7020   31.5400   35.6390 C   0  0  0  0  0  0  0  0  0  0  0  0
   45.7780   30.7280   34.0950 Cl  0  0  0  0  0  0  0  0  0  0  0  0
   46.6570   32.4480   36.0630 C   0  0  0  0  0  0  0  0  0  0  0  0
   47.4970   32.6730   35.4140 H   0  0  0  0  0  0  0  0  0  0  0  0
   42.7850   35.5690   41.6400 S   0  0  0  0  0  0  0  0  0  0  0  0
   40.4640   35.2970   40.2900 C   0  0  0  0  0  0  0  0  0  0  0  0
   41.3480   34.6290   41.1420 C   0  0  0  0  0  0  0  0  0  0  0  0
   41.0960   33.3310   41.5490 C   0  0  0  0  0  0  0  0  0  0  0  0
   39.9680   32.6450   41.1370 C   0  0  0  0  0  0  0  0  0  0  0  0
   39.0790   33.3240   40.2770 C   0  0  0  0  0  0  0  0  0  0  0  0
   39.3220   34.6270   39.8610 C   0  0  0  0  0  0  0  0  0  0  0  0
   38.0210   32.4230   40.0010 O   0  0  0  0  0  0  0  0  0  0  0  0
   38.1090   31.4160   40.9780 C   0  0  0  0  0  0  0  0  0  0  0  0
   39.4710   31.3750   41.3760 O   0  0  0  0  0  0  0  0  0  0  0  0
   40.6210   36.3050   39.9510 H   0  0  0  0  0  0  0  0  0  0  0  0
   41.8150   32.8680   42.2070 H   0  0  0  0  0  0  0  0  0  0  0  0
   38.6490   35.1440   39.2100 H   0  0  0  0  0  0  0  0  0  0  0  0
   37.7260   30.4410   40.6510 H   0  0  0  0  0  0  0  0  0  0  0  0
   37.5470   31.7900   41.8750 H   0  0  0  0  0  0  0  0  0  0  0  0
   47.5930   34.1140   42.2550 O   0  0  0  0  0  0  0  0  0  0  0  0
   48.8160   34.6060   41.7950 C   0  0  0  0  0  0  0  0  0  0  0  0
   49.5430   33.6660   41.1150 F   0  0  0  0  0  0  0  0  0  0  0  0
   48.4940   35.7200   41.0050 F   0  0  0  0  0  0  0  0  0  0  0  0
   49.5540   34.9860   42.9050 F   0  0  0  0  0  0  0  0  0  0  0  0
  1 18  1  0  0  0  0
  1  6  1  0  0  0  0
  2  1  2  0  0  0  0
  3  2  1  0  0  0  0
  3  4  2  0  0  0  0
  4  5  1  0  0  0  0
  5  6  2  0  0  0  0
  5 33  1  0  0  0  0
  7  2  1  0  0  0  0
  9  8  1  0  0  0  0
  9 10  1  0  0  0  0
 10  3  1  0  0  0  0
 11 10  2  0  0  0  0
 11 12  1  0  0  0  0
 13 11  1  0  0  0  0
 14 16  1  0  0  0  0
 14 13  2  0  0  0  0
 15 14  1  0  0  0  0
 16  9  2  0  0  0  0
 17 16  1  0  0  0  0
 19 20  1  0  0  0  0
 20 21  2  0  0  0  0
 20 18  1  0  0  0  0
 21 29  1  0  0  0  0
 22 27  1  0  0  0  0
 22 21  1  0  0  0  0
 23 22  2  0  0  0  0
 24 23  1  0  0  0  0
 24 19  2  0  0  0  0
 25 23  1  0  0  0  0
 25 26  1  0  0  0  0
 26 27  1  0  0  0  0
 26 32  1  0  0  0  0
 28 19  1  0  0  0  0
 30 24  1  0  0  0  0
 31 26  1  0  0  0  0
 34 33  1  0  0  0  0
 34 37  1  0  0  0  0
 35 34  1  0  0  0  0
 36 34  1  0  0  0  0
M  END
>  <minimizedAffinity>
-5.99841976

>  <minimizedRMSD>
0.99389708

$$$$
