
 OpenBabel03252509293D

 22 23  0  0  0  0  0  0  0  0999 V2000
   44.4410   32.7590   39.8070 C   0  0  0  0  0  0  0  0  0  0  0  0
   44.5560   31.6570   39.9940 H   0  0  0  0  0  0  0  0  0  0  0  0
   45.3670   33.1310   39.3220 H   0  0  0  0  0  0  0  0  0  0  0  0
   46.9060   32.8770   41.4400 Cl  0  0  0  0  0  0  0  0  0  0  0  0
   45.3520   33.4800   42.0100 C   0  0  0  0  0  0  0  0  0  0  0  0
   44.2640   33.3660   41.1420 C   0  0  0  0  0  0  0  0  0  0  0  0
   43.0320   33.8460   41.5980 C   0  0  0  0  0  0  0  0  0  0  0  0
   42.1650   33.7650   40.9300 H   0  0  0  0  0  0  0  0  0  0  0  0
   42.8630   34.4140   42.8470 C   0  0  0  0  0  3  0  0  0  0  0  0
   43.9650   34.5190   43.7020 C   0  0  0  0  0  0  0  0  0  0  0  0
   43.7900   35.2350   45.2950 Cl  0  0  0  0  0  0  0  0  0  0  0  0
   45.2020   34.0480   43.2680 C   0  0  0  0  0  0  0  0  0  0  0  0
   46.0690   34.1270   43.9320 H   0  0  0  0  0  0  0  0  0  0  0  0
   41.9290   34.4630   37.6700 C   0  0  0  0  0  0  0  0  0  0  0  0
   43.0110   34.2790   38.5490 C   0  0  0  0  0  0  0  0  0  0  0  0
   43.3210   32.9530   38.8970 C   0  0  0  0  0  0  0  0  0  0  0  0
   42.5630   31.9490   38.3670 N   0  0  0  0  0  0  0  0  0  0  0  0
   41.5310   32.1870   37.5240 C   0  0  0  0  0  0  0  0  0  0  0  0
   41.2190   33.4510   37.1780 N   0  0  0  0  0  0  0  0  0  0  0  0
   41.7080   35.5070   37.4140 H   0  0  0  0  0  0  0  0  0  0  0  0
   43.5900   35.0980   38.9500 H   0  0  0  0  0  0  0  0  0  0  0  0
   40.9950   31.3120   37.1610 H   0  0  0  0  0  0  0  0  0  0  0  0
  1  2  1  0  0  0  0
  1  6  1  0  0  0  0
  3  1  1  0  0  0  0
  4  5  1  0  0  0  0
  5 12  1  0  0  0  0
  6  7  1  0  0  0  0
  6  5  2  0  0  0  0
  7  9  2  0  0  0  0
  8  7  1  0  0  0  0
  9 10  1  0  0  0  0
 10 11  1  0  0  0  0
 12 10  2  0  0  0  0
 12 13  1  0  0  0  0
 14 15  1  0  0  0  0
 15 16  2  0  0  0  0
 15 21  1  0  0  0  0
 16  1  1  0  0  0  0
 17 16  1  0  0  0  0
 18 17  2  0  0  0  0
 19 18  1  0  0  0  0
 19 14  2  0  0  0  0
 20 14  1  0  0  0  0
 22 18  1  0  0  0  0
M  END
>  <minimizedAffinity>
2.35095692

>  <minimizedRMSD>
6.73027992

$$$$
