REMARK  Name = 
REMARK  3 active torsions:
REMARK  status: ('A' for Active; 'I' for Inactive)
REMARK    1  A    between atoms: C_2  and  C_12
REMARK    2  A    between atoms: C_3  and  C_7
REMARK    3  A    between atoms: C_12  and  C_21
REMARK                            x       y       z     vdW  Elec       q    Type
REMARK                         _______ _______ _______ _____ _____    ______ ____
ROOT
ATOM      1  C   UNL     1      45.339  36.052  43.181  0.00  0.00    +0.000 A 
ATOM      2  C   UNL     1      46.112  34.868  43.057  0.00  0.00    +0.000 A 
ATOM      3  C   UNL     1      46.100  34.059  44.184  0.00  0.00    +0.000 A 
ATOM      4  N   UNL     1      45.415  34.376  45.291  0.00  0.00    +0.000 NA
ATOM      5  C   UNL     1      44.687  35.530  45.356  0.00  0.00    +0.000 A 
ATOM      6  N   UNL     1      44.663  36.355  44.288  0.00  0.00    +0.000 NA
ATOM      7  H   UNL     1      45.310  36.730  42.324  0.00  0.00    +0.000 HD
ATOM      8  H   UNL     1      44.156  35.734  46.272  0.00  0.00    +0.000 HD
ENDROOT
BRANCH   3   9
ATOM      9  C   UNL     1      46.815  32.866  44.147  0.00  0.00    +0.000 A 
ATOM     10  C   UNL     1      47.760  32.330  43.335  0.00  0.00    +0.000 A 
ATOM     11  C   UNL     1      48.300  31.131  43.487  0.00  0.00    +0.000 A 
ATOM     12  C   UNL     1      47.846  30.405  44.556  0.00  0.00    +0.000 A 
ATOM     13  S   UNL     1      46.615  31.542  45.314  0.00  0.00    +0.000 S 
ATOM     14  H   UNL     1      48.243  32.782  42.485  0.00  0.00    +0.000 HD
ATOM     15  H   UNL     1      49.020  30.503  43.018  0.00  0.00    +0.000 HD
ATOM     16  H   UNL     1      47.946  29.479  45.069  0.00  0.00    +0.000 HD
ENDBRANCH   3   9
BRANCH   2  17
ATOM     17  C   UNL     1      46.794  34.615  41.844  0.00  0.00    +0.000 C 
ATOM     18  O   UNL     1      47.882  35.349  41.749  0.00  0.00    +0.000 OA
BRANCH  17  21
ATOM     19 CL   UNL     1      49.282  34.248  40.368  0.00  0.00    +0.000 Cl
ATOM     20  C   UNL     1      47.691  33.548  39.989  0.00  0.00    +0.000 A 
ATOM     21  C   UNL     1      46.482  33.704  40.700  0.00  0.00    +0.000 A 
ATOM     22  C   UNL     1      45.402  33.049  40.180  0.00  0.00    +0.000 A 
ATOM     23  H   UNL     1      44.533  33.249  40.782  0.00  0.00    +0.000 HD
ATOM     24  C   UNL     1      45.459  32.284  39.045  0.00  0.00    +0.000 A 
ATOM     25  C   UNL     1      46.642  32.136  38.356  0.00  0.00    +0.000 A 
ATOM     26 CL   UNL     1      46.555  31.130  36.927  0.00  0.00    +0.000 Cl
ATOM     27  C   UNL     1      47.771  32.770  38.824  0.00  0.00    +0.000 A 
ATOM     28  H   UNL     1      48.646  32.598  38.223  0.00  0.00    +0.000 HD
ENDBRANCH  17  21
ENDBRANCH   2  17
TORSDOF 3
