
     RDKit          3D

 31 33  0  0  0  0  0  0  0  0999 V2000
   46.0023   32.7544   47.0516 C   0  0  0  0  0  0  0  0  0  0  0  0
   47.2419   32.4057   47.5266 C   0  0  0  0  0  0  0  0  0  0  0  0
   47.4315   31.6194   48.6394 C   0  0  0  0  0  0  0  0  0  0  0  0
   46.3180   31.1468   49.3280 C   0  0  0  0  0  0  0  0  0  0  0  0
   45.0740   31.4709   48.8881 C   0  0  0  0  0  0  0  0  0  0  0  0
   44.9498   32.2647   47.7635 C   0  0  0  0  0  0  0  0  0  0  0  0
   44.7304   35.3616   44.8418 C   0  0  0  0  0  0  0  0  0  0  0  0
   45.4879   35.2223   43.6849 C   0  0  0  0  0  0  0  0  0  0  0  0
   46.4482   34.2222   43.6592 C   0  0  0  0  0  0  0  0  0  0  0  0
   46.6367   33.3999   44.7494 N   0  0  0  0  0  0  0  0  0  0  0  0
   45.8514   33.5922   45.8649 C   0  0  0  0  0  0  0  0  0  0  0  0
   44.9056   34.5638   45.9136 N   0  0  0  0  0  0  0  0  0  0  0  0
   49.0833   31.2212   49.1779 S   0  0  0  0  0  0  0  0  0  0  0  0
   48.1258   32.7780   46.9840 H   0  0  0  0  0  0  0  0  0  0  0  0
   46.4794   30.5241   50.2093 H   0  0  0  0  0  0  0  0  0  0  0  0
   44.1980   31.1119   49.4116 H   0  0  0  0  0  0  0  0  0  0  0  0
   43.9347   32.4935   47.4550 H   0  0  0  0  0  0  0  0  0  0  0  0
   43.9996   36.1577   44.8000 H   0  0  0  0  0  0  0  0  0  0  0  0
   45.4152   35.8075   42.7954 H   0  0  0  0  0  0  0  0  0  0  0  0
   47.1221   33.9588   42.8739 H   0  0  0  0  0  0  0  0  0  0  0  0
   49.2454   28.4794   50.8332 Cl  0  0  0  0  0  0  0  0  0  0  0  0
   49.7240   28.5536   49.1586 C   0  0  0  0  0  0  0  0  0  0  0  0
   49.6707   29.7086   48.4110 C   0  0  0  0  0  0  0  0  0  0  0  0
   50.0738   29.6613   47.0888 C   0  0  0  0  0  0  0  0  0  0  0  0
   50.0415   30.5527   46.4822 H   0  0  0  0  0  0  0  0  0  0  0  0
   50.5193   28.4453   46.5628 C   0  0  0  0  0  0  0  0  0  0  0  0
   50.5728   27.2786   47.3194 C   0  0  0  0  0  0  0  0  0  0  0  0
   51.1415   25.7768   46.6068 Cl  0  0  0  0  0  0  0  0  0  0  0  0
   50.1613   27.3778   48.6278 C   0  0  0  0  0  0  0  0  0  0  0  0
   50.2189   26.4369   49.1889 H   0  0  0  0  0  0  0  0  0  0  0  0
   50.8427   28.3697   45.5325 H   0  0  0  0  0  0  0  0  0  0  0  0
  1  2  2  0
  1  6  1  0
  2  3  1  0
  3 13  1  0
  3  4  2  0
  5  4  1  0
  6  5  2  0
  7 12  2  0
  8  7  1  0
  9  8  2  0
  9 10  1  0
 10 11  2  0
 11 12  1  0
 11  1  1  0
  2 14  1  0
  4 15  1  0
  5 16  1  0
  6 17  1  0
  7 18  1  0
  8 19  1  0
  9 20  1  0
 21 22  1  0
 22 23  2  0
 23 24  1  0
 24 25  1  0
 24 26  2  0
 26 27  1  0
 27 28  1  0
 27 29  2  0
 29 30  1  0
 29 22  1  0
 26 31  1  0
 13 23  1  0
M  ISO  8  14  14  15  14  16  14  17  14  18  14  19  14  20  14  25  16
M  ISO  1  30  15
M  END
>  <DihAtoms>  (1) 
2,12,22,21

>  <DihDeg>  (1) 
90.00206418519745

$$$$
