
 OpenBabel03252503503D

 22 23  0  0  0  0  0  0  0  0999 V2000
   47.6670   35.0790   42.2520 C   0  0  0  0  0  0  0  0  0  0  0  0
   47.9090   34.0840   43.2220 C   0  0  0  0  0  0  0  0  0  0  0  0
   46.8440   33.6560   44.0140 C   0  0  0  0  0  0  0  0  0  0  0  0
   45.6370   34.2280   43.8000 N   0  0  0  0  0  0  0  0  0  0  0  0
   45.4290   35.1730   42.8740 C   0  0  0  0  0  0  0  0  0  0  0  0
   46.4420   35.5980   42.1000 N   0  0  0  0  0  0  0  0  0  0  0  0
   48.8830   33.6780   43.3360 H   0  0  0  0  0  0  0  0  0  0  0  0
   44.4160   35.5740   42.7760 H   0  0  0  0  0  0  0  0  0  0  0  0
   47.5590   31.0160   42.9510 Cl  0  0  0  0  0  0  0  0  0  0  0  0
   47.3470   31.3550   44.6510 C   0  0  0  0  0  0  0  0  0  0  0  0
   47.0110   32.6370   45.0320 C   0  0  0  0  0  0  0  0  0  0  0  0
   46.8620   32.8240   46.3910 C   0  0  0  0  0  0  0  0  0  0  0  0
   46.5980   33.8110   46.7360 H   0  0  0  0  0  0  0  0  0  0  0  0
   47.0440   31.7790   47.2940 C   0  0  0  0  0  0  0  0  0  0  0  0
   47.3810   30.5110   46.8660 C   0  0  0  0  0  0  0  0  0  0  0  0
   47.6050   29.2140   48.0060 Cl  0  0  0  0  0  0  0  0  0  0  0  0
   47.5350   30.2980   45.5120 C   0  0  0  0  0  0  0  0  0  0  0  0
   47.7990   29.3120   45.1530 H   0  0  0  0  0  0  0  0  0  0  0  0
   48.8410   35.5010   41.4320 C   0  0  0  0  0  0  0  0  0  0  0  0
   48.5780   35.4440   40.0880 F   0  0  0  0  0  0  0  0  0  0  0  0
   49.1950   36.7920   41.8240 F   0  0  0  0  0  0  0  0  0  0  0  0
   49.9400   34.7090   41.7390 F   0  0  0  0  0  0  0  0  0  0  0  0
  1  2  1  0  0  0  0
  2  7  1  0  0  0  0
  2  3  2  0  0  0  0
  3 11  1  0  0  0  0
  4  3  1  0  0  0  0
  5  4  2  0  0  0  0
  6  1  2  0  0  0  0
  6  5  1  0  0  0  0
  8  5  1  0  0  0  0
  9 10  1  0  0  0  0
 10 11  2  0  0  0  0
 10 17  1  0  0  0  0
 11 12  1  0  0  0  0
 12 13  1  0  0  0  0
 12 14  2  0  0  0  0
 15 14  1  0  0  0  0
 15 16  1  0  0  0  0
 17 15  2  0  0  0  0
 18 17  1  0  0  0  0
 19 22  1  0  0  0  0
 19 21  1  0  0  0  0
 19  1  1  0  0  0  0
 20 19  1  0  0  0  0
M  END
>  <minimizedAffinity>
-5.21460724

>  <minimizedRMSD>
0.244945377

$$$$
