
 OpenBabel03252502223D

 34 36  0  0  1  0  0  0  0  0999 V2000
   38.6070   31.4110   40.6420 N   0  0  0  0  0  0  0  0  0  0  0  0
   39.7170   32.3560   40.5250 C   0  0  0  0  0  0  0  0  0  0  0  0
   39.1180   33.7050   40.9810 C   0  0  0  0  0  0  0  0  0  0  0  0
   38.0650   34.1570   40.0190 C   0  0  0  0  0  0  0  0  0  0  0  0
   37.2060   33.0710   39.4960 C   0  0  0  0  0  0  0  0  0  0  0  0
   37.2930   31.7760   40.2200 C   0  0  1  0  0  0  0  0  0  0  0  0
   40.5130   32.1490   41.2490 H   0  0  0  0  0  0  0  0  0  0  0  0
   40.0340   32.3850   39.4770 H   0  0  0  0  0  0  0  0  0  0  0  0
   38.6410   33.5040   41.9640 H   0  0  0  0  0  0  0  0  0  0  0  0
   39.8990   34.4600   41.0980 H   0  0  0  0  0  0  0  0  0  0  0  0
   38.5860   34.7660   39.2400 H   0  0  0  0  0  0  0  0  0  0  0  0
   37.4060   34.9020   40.5500 H   0  0  0  0  0  0  0  0  0  0  0  0
   37.4440   32.9650   38.4020 H   0  0  0  0  0  0  0  0  0  0  0  0
   36.1110   33.3440   39.4840 H   0  0  0  0  0  0  0  0  0  0  0  0
   36.7340   31.9670   41.1940 H   0  0  0  0  0  0  0  0  0  0  0  0
   37.9970   31.1000   37.2960 Cl  0  0  0  0  0  0  0  0  0  0  0  0
   36.7350   30.3200   38.2280 C   0  0  0  0  0  0  0  0  0  0  0  0
   36.5210   30.7370   39.5240 C   0  0  0  0  0  0  0  0  0  0  0  0
   35.4700   30.0320   40.1240 C   0  0  0  0  0  0  0  0  0  0  0  0
   35.2140   30.2880   41.1640 H   0  0  0  0  0  0  0  0  0  0  0  0
   34.7230   29.0530   39.5540 C   0  0  0  0  0  3  0  0  0  0  0  0
   35.0090   28.7040   38.2580 C   0  0  0  0  0  0  0  0  0  0  0  0
   34.0540   27.4440   37.5090 Cl  0  0  0  0  0  0  0  0  0  0  0  0
   36.0210   29.3350   37.5770 C   0  0  0  0  0  0  0  0  0  0  0  0
   36.2380   29.0520   36.5570 H   0  0  0  0  0  0  0  0  0  0  0  0
   38.6670   28.4470   42.9040 C   0  0  0  0  0  0  0  0  0  0  0  0
   38.4260   29.7550   42.4770 C   0  0  0  0  0  0  0  0  0  0  0  0
   38.8020   30.1190   41.1770 C   0  0  0  0  0  0  0  0  0  0  0  0
   39.3810   29.1470   40.4300 N   0  0  0  0  0  0  0  0  0  0  0  0
   39.6120   27.8890   40.8470 C   0  0  0  0  0  0  0  0  0  0  0  0
   39.2500   27.5450   42.0920 N   0  0  0  0  0  0  0  0  0  0  0  0
   38.3650   28.2180   43.8990 H   0  0  0  0  0  0  0  0  0  0  0  0
   37.9680   30.5180   43.0730 H   0  0  0  0  0  0  0  0  0  0  0  0
   40.0840   27.1790   40.1670 H   0  0  0  0  0  0  0  0  0  0  0  0
  1 28  1  0  0  0  0
  2  1  1  0  0  0  0
  2  3  1  0  0  0  0
  2  7  1  0  0  0  0
  3 10  1  0  0  0  0
  3  9  1  0  0  0  0
  4 12  1  0  0  0  0
  4  3  1  0  0  0  0
  5  4  1  0  0  0  0
  5  6  1  0  0  0  0
  6  1  1  0  0  0  0
  6 15  1  1  0  0  0
  8  2  1  0  0  0  0
 11  4  1  0  0  0  0
 13  5  1  0  0  0  0
 14  5  1  0  0  0  0
 16 17  1  0  0  0  0
 17 18  1  0  0  0  0
 18 19  2  0  0  0  0
 18  6  1  0  0  0  0
 19 20  1  0  0  0  0
 21 19  1  0  0  0  0
 22 21  2  0  0  0  0
 23 22  1  0  0  0  0
 24 17  2  0  0  0  0
 24 22  1  0  0  0  0
 25 24  1  0  0  0  0
 26 32  1  0  0  0  0
 27 26  1  0  0  0  0
 27 33  1  0  0  0  0
 28 27  2  0  0  0  0
 29 30  2  0  0  0  0
 29 28  1  0  0  0  0
 30 31  1  0  0  0  0
 31 26  2  0  0  0  0
 34 30  1  0  0  0  0
M  END
>  <minimizedAffinity>
-5.37988377

$$$$

 OpenBabel03252502223D

 34 36  0  0  1  0  0  0  0  0999 V2000
   38.0030   29.3640   41.5680 N   0  0  0  0  0  0  0  0  0  0  0  0
   38.3530   29.4160   42.9860 C   0  0  0  0  0  0  0  0  0  0  0  0
   38.9830   28.0360   43.2740 C   0  0  0  0  0  0  0  0  0  0  0  0
   37.9580   26.9560   43.1240 C   0  0  0  0  0  0  0  0  0  0  0  0
   37.0210   27.1540   41.9960 C   0  0  0  0  0  0  0  0  0  0  0  0
   37.4140   28.1920   41.0060 C   0  0  1  0  0  0  0  0  0  0  0  0
   39.1570   30.1330   43.1870 H   0  0  0  0  0  0  0  0  0  0  0  0
   37.4340   29.5720   43.5620 H   0  0  0  0  0  0  0  0  0  0  0  0
   39.7650   27.8950   42.4990 H   0  0  0  0  0  0  0  0  0  0  0  0
   39.4400   28.0130   44.2660 H   0  0  0  0  0  0  0  0  0  0  0  0
   37.4760   26.8330   44.1240 H   0  0  0  0  0  0  0  0  0  0  0  0
   38.5010   25.9810   42.9620 H   0  0  0  0  0  0  0  0  0  0  0  0
   36.0090   27.3550   42.4430 H   0  0  0  0  0  0  0  0  0  0  0  0
   36.8440   26.2120   41.4000 H   0  0  0  0  0  0  0  0  0  0  0  0
   38.2650   27.7080   40.4230 H   0  0  0  0  0  0  0  0  0  0  0  0
   37.9010   27.3960   38.0680 Cl  0  0  0  0  0  0  0  0  0  0  0  0
   36.4120   28.0850   38.6850 C   0  0  0  0  0  0  0  0  0  0  0  0
   36.3420   28.4080   40.0240 C   0  0  0  0  0  0  0  0  0  0  0  0
   35.1000   28.9640   40.3540 C   0  0  0  0  0  0  0  0  0  0  0  0
   34.9380   29.2590   41.4020 H   0  0  0  0  0  0  0  0  0  0  0  0
   34.0600   29.1810   39.5090 C   0  0  0  0  0  3  0  0  0  0  0  0
   34.2220   28.8270   38.1940 C   0  0  0  0  0  0  0  0  0  0  0  0
   32.8900   29.1000   37.0930 Cl  0  0  0  0  0  0  0  0  0  0  0  0
   35.4030   28.2740   37.7640 C   0  0  0  0  0  0  0  0  0  0  0  0
   35.5190   27.9990   36.7260 H   0  0  0  0  0  0  0  0  0  0  0  0
   39.3760   31.6190   38.9340 C   0  0  0  0  0  0  0  0  0  0  0  0
   39.2260   30.4730   39.7200 C   0  0  0  0  0  0  0  0  0  0  0  0
   38.2410   30.4660   40.7160 C   0  0  0  0  0  0  0  0  0  0  0  0
   37.5030   31.5960   40.8350 N   0  0  0  0  0  0  0  0  0  0  0  0
   37.6520   32.6970   40.0760 C   0  0  0  0  0  0  0  0  0  0  0  0
   38.5960   32.7000   39.1230 N   0  0  0  0  0  0  0  0  0  0  0  0
   40.1370   31.5780   38.1900 H   0  0  0  0  0  0  0  0  0  0  0  0
   39.8130   29.5840   39.6210 H   0  0  0  0  0  0  0  0  0  0  0  0
   37.0060   33.5570   40.2500 H   0  0  0  0  0  0  0  0  0  0  0  0
  1  2  1  0  0  0  0
  2  7  1  0  0  0  0
  2  3  1  0  0  0  0
  2  8  1  0  0  0  0
  3 10  1  0  0  0  0
  4  3  1  0  0  0  0
  4 11  1  0  0  0  0
  5 13  1  0  0  0  0
  5  4  1  0  0  0  0
  6 15  1  6  0  0  0
  6  1  1  0  0  0  0
  6  5  1  0  0  0  0
  9  3  1  0  0  0  0
 12  4  1  0  0  0  0
 14  5  1  0  0  0  0
 16 17  1  0  0  0  0
 17 18  1  0  0  0  0
 18 19  2  0  0  0  0
 18  6  1  0  0  0  0
 19 20  1  0  0  0  0
 21 19  1  0  0  0  0
 22 21  2  0  0  0  0
 23 22  1  0  0  0  0
 24 22  1  0  0  0  0
 24 17  2  0  0  0  0
 25 24  1  0  0  0  0
 26 31  2  0  0  0  0
 26 27  1  0  0  0  0
 27 28  2  0  0  0  0
 28 29  1  0  0  0  0
 28  1  1  0  0  0  0
 30 34  1  0  0  0  0
 30 29  2  0  0  0  0
 31 30  1  0  0  0  0
 32 26  1  0  0  0  0
 33 27  1  0  0  0  0
M  END
>  <minimizedAffinity>
-5.24363756

$$$$

 OpenBabel03252502223D

 34 36  0  0  1  0  0  0  0  0999 V2000
   37.6220   29.4340   41.1310 N   0  0  0  0  0  0  0  0  0  0  0  0
   37.3400   29.2740   42.5560 C   0  0  0  0  0  0  0  0  0  0  0  0
   38.0090   27.9320   42.9280 C   0  0  0  0  0  0  0  0  0  0  0  0
   37.3280   26.8000   42.2250 C   0  0  0  0  0  0  0  0  0  0  0  0
   36.9230   27.0990   40.8330 C   0  0  0  0  0  0  0  0  0  0  0  0
   37.5170   28.3250   40.2380 C   0  0  1  0  0  0  0  0  0  0  0  0
   37.8600   30.0200   43.1660 H   0  0  0  0  0  0  0  0  0  0  0  0
   36.2530   29.2370   42.6890 H   0  0  0  0  0  0  0  0  0  0  0  0
   39.0530   28.0050   42.5590 H   0  0  0  0  0  0  0  0  0  0  0  0
   38.0100   27.7830   44.0100 H   0  0  0  0  0  0  0  0  0  0  0  0
   36.5020   26.4590   42.8960 H   0  0  0  0  0  0  0  0  0  0  0  0
   38.0390   25.9260   42.2040 H   0  0  0  0  0  0  0  0  0  0  0  0
   35.7990   27.1190   40.8170 H   0  0  0  0  0  0  0  0  0  0  0  0
   37.1650   26.2610   40.1160 H   0  0  0  0  0  0  0  0  0  0  0  0
   38.6000   28.0350   40.0320 H   0  0  0  0  0  0  0  0  0  0  0  0
   34.5520   29.1490   40.0710 Cl  0  0  0  0  0  0  0  0  0  0  0  0
   35.6270   28.9970   38.6960 C   0  0  0  0  0  0  0  0  0  0  0  0
   36.9290   28.6020   38.9210 C   0  0  0  0  0  0  0  0  0  0  0  0
   37.6510   28.5090   37.7240 C   0  0  0  0  0  0  0  0  0  0  0  0
   38.7060   28.2010   37.7890 H   0  0  0  0  0  0  0  0  0  0  0  0
   37.1840   28.7630   36.4750 C   0  0  0  0  0  3  0  0  0  0  0  0
   35.8740   29.1500   36.3500 C   0  0  0  0  0  0  0  0  0  0  0  0
   35.2580   29.4810   34.7460 Cl  0  0  0  0  0  0  0  0  0  0  0  0
   35.0770   29.2720   37.4620 C   0  0  0  0  0  0  0  0  0  0  0  0
   34.0470   29.5780   37.3520 H   0  0  0  0  0  0  0  0  0  0  0  0
   37.6370   32.9750   39.9610 C   0  0  0  0  0  0  0  0  0  0  0  0
   37.1470   31.7850   40.5050 C   0  0  0  0  0  0  0  0  0  0  0  0
   38.0090   30.6840   40.5990 C   0  0  0  0  0  0  0  0  0  0  0  0
   39.2720   30.8740   40.1440 N   0  0  0  0  0  0  0  0  0  0  0  0
   39.7370   32.0220   39.6200 C   0  0  0  0  0  0  0  0  0  0  0  0
   38.9090   33.0740   39.5310 N   0  0  0  0  0  0  0  0  0  0  0  0
   36.9450   33.7830   39.9090 H   0  0  0  0  0  0  0  0  0  0  0  0
   36.1480   31.6420   40.8630 H   0  0  0  0  0  0  0  0  0  0  0  0
   40.7720   32.0740   39.2810 H   0  0  0  0  0  0  0  0  0  0  0  0
  1  2  1  0  0  0  0
  2  8  1  0  0  0  0
  2  3  1  0  0  0  0
  2  7  1  0  0  0  0
  3 10  1  0  0  0  0
  4 11  1  0  0  0  0
  4  3  1  0  0  0  0
  5  4  1  0  0  0  0
  6 15  1  6  0  0  0
  6  5  1  0  0  0  0
  6  1  1  0  0  0  0
  9  3  1  0  0  0  0
 12  4  1  0  0  0  0
 13  5  1  0  0  0  0
 14  5  1  0  0  0  0
 17 18  1  0  0  0  0
 17 16  1  0  0  0  0
 18  6  1  0  0  0  0
 19 20  1  0  0  0  0
 19 18  2  0  0  0  0
 21 19  1  0  0  0  0
 22 21  2  0  0  0  0
 22 24  1  0  0  0  0
 23 22  1  0  0  0  0
 24 17  2  0  0  0  0
 25 24  1  0  0  0  0
 26 27  1  0  0  0  0
 27 28  2  0  0  0  0
 27 33  1  0  0  0  0
 28  1  1  0  0  0  0
 29 28  1  0  0  0  0
 30 29  2  0  0  0  0
 31 30  1  0  0  0  0
 31 26  2  0  0  0  0
 32 26  1  0  0  0  0
 34 30  1  0  0  0  0
M  END
>  <minimizedAffinity>
-5.11255074

$$$$

 OpenBabel03252502223D

 34 36  0  0  1  0  0  0  0  0999 V2000
   36.2870   29.3570   37.0750 N   0  0  0  0  0  0  0  0  0  0  0  0
   35.9160   28.7880   35.7810 C   0  0  0  0  0  0  0  0  0  0  0  0
   34.4870   29.3160   35.5270 C   0  0  0  0  0  0  0  0  0  0  0  0
   33.5370   28.7490   36.5340 C   0  0  0  0  0  0  0  0  0  0  0  0
   34.0880   28.6450   37.9040 C   0  0  0  0  0  0  0  0  0  0  0  0
   35.3490   29.3920   38.1510 C   0  0  1  0  0  0  0  0  0  0  0  0
   36.5130   29.2020   34.9610 H   0  0  0  0  0  0  0  0  0  0  0  0
   35.9360   27.6950   35.8680 H   0  0  0  0  0  0  0  0  0  0  0  0
   34.5450   30.4160   35.6710 H   0  0  0  0  0  0  0  0  0  0  0  0
   34.1630   29.0940   34.5080 H   0  0  0  0  0  0  0  0  0  0  0  0
   33.1520   27.7920   36.1050 H   0  0  0  0  0  0  0  0  0  0  0  0
   32.6290   29.4160   36.5700 H   0  0  0  0  0  0  0  0  0  0  0  0
   34.1910   27.5490   38.1330 H   0  0  0  0  0  0  0  0  0  0  0  0
   33.3630   28.9940   38.6970 H   0  0  0  0  0  0  0  0  0  0  0  0
   35.0190   30.4820   38.1930 H   0  0  0  0  0  0  0  0  0  0  0  0
   36.1080   26.4850   38.8390 Cl  0  0  0  0  0  0  0  0  0  0  0  0
   36.2760   27.8480   39.9270 C   0  0  0  0  0  0  0  0  0  0  0  0
   35.8790   29.0930   39.4880 C   0  0  0  0  0  0  0  0  0  0  0  0
   36.0580   30.0680   40.4770 C   0  0  0  0  0  0  0  0  0  0  0  0
   35.7730   31.1020   40.2300 H   0  0  0  0  0  0  0  0  0  0  0  0
   36.5550   29.8730   41.7250 C   0  0  0  0  0  3  0  0  0  0  0  0
   36.9230   28.5980   42.0730 C   0  0  0  0  0  0  0  0  0  0  0  0
   37.5650   28.3310   43.6790 Cl  0  0  0  0  0  0  0  0  0  0  0  0
   36.7880   27.5670   41.1770 C   0  0  0  0  0  0  0  0  0  0  0  0
   37.0810   26.5670   41.4610 H   0  0  0  0  0  0  0  0  0  0  0  0
   39.1560   31.6820   37.5960 C   0  0  0  0  0  0  0  0  0  0  0  0
   37.8410   31.2640   37.3750 C   0  0  0  0  0  0  0  0  0  0  0  0
   37.5760   29.8910   37.2960 C   0  0  0  0  0  0  0  0  0  0  0  0
   38.6430   29.0670   37.4430 N   0  0  0  0  0  0  0  0  0  0  0  0
   39.9070   29.4750   37.6540 C   0  0  0  0  0  0  0  0  0  0  0  0
   40.1570   30.7910   37.7300 N   0  0  0  0  0  0  0  0  0  0  0  0
   39.3080   32.7350   37.6480 H   0  0  0  0  0  0  0  0  0  0  0  0
   37.0030   31.9200   37.2590 H   0  0  0  0  0  0  0  0  0  0  0  0
   40.6970   28.7320   37.7610 H   0  0  0  0  0  0  0  0  0  0  0  0
  1 28  1  0  0  0  0
  1  6  1  0  0  0  0
  2  8  1  0  0  0  0
  2  1  1  0  0  0  0
  3  9  1  0  0  0  0
  3  2  1  0  0  0  0
  3  4  1  0  0  0  0
  4 12  1  0  0  0  0
  4  5  1  0  0  0  0
  5 13  1  0  0  0  0
  5  6  1  0  0  0  0
  5 14  1  0  0  0  0
  6 15  1  1  0  0  0
  6 18  1  0  0  0  0
  7  2  1  0  0  0  0
 10  3  1  0  0  0  0
 11  4  1  0  0  0  0
 16 17  1  0  0  0  0
 17 24  1  0  0  0  0
 18 17  2  0  0  0  0
 18 19  1  0  0  0  0
 19 21  2  0  0  0  0
 20 19  1  0  0  0  0
 21 22  1  0  0  0  0
 22 23  1  0  0  0  0
 24 25  1  0  0  0  0
 24 22  2  0  0  0  0
 26 32  1  0  0  0  0
 26 31  1  0  0  0  0
 27 26  2  0  0  0  0
 28 27  1  0  0  0  0
 28 29  2  0  0  0  0
 29 30  1  0  0  0  0
 30 31  2  0  0  0  0
 30 34  1  0  0  0  0
 33 27  1  0  0  0  0
M  END
>  <minimizedAffinity>
-4.91176414

$$$$

 OpenBabel03252502223D

 34 36  0  0  1  0  0  0  0  0999 V2000
   38.5860   31.0200   39.9830 N   0  0  0  0  0  0  0  0  0  0  0  0
   39.6090   32.0350   40.2290 C   0  0  0  0  0  0  0  0  0  0  0  0
   38.8390   33.1990   40.8920 C   0  0  0  0  0  0  0  0  0  0  0  0
   37.8650   33.7950   39.9240 C   0  0  0  0  0  0  0  0  0  0  0  0
   37.1770   32.8080   39.0620 C   0  0  0  0  0  0  0  0  0  0  0  0
   37.3000   31.3880   39.4830 C   0  0  1  0  0  0  0  0  0  0  0  0
   40.3330   31.7170   40.9870 H   0  0  0  0  0  0  0  0  0  0  0  0
   40.0400   32.3290   39.2650 H   0  0  0  0  0  0  0  0  0  0  0  0
   38.2730   32.7440   41.7320 H   0  0  0  0  0  0  0  0  0  0  0  0
   39.5270   33.9540   41.2770 H   0  0  0  0  0  0  0  0  0  0  0  0
   38.4120   34.6010   39.3780 H   0  0  0  0  0  0  0  0  0  0  0  0
   37.0830   34.3500   40.5160 H   0  0  0  0  0  0  0  0  0  0  0  0
   37.5470   32.9760   38.0140 H   0  0  0  0  0  0  0  0  0  0  0  0
   36.0690   33.0050   38.9670 H   0  0  0  0  0  0  0  0  0  0  0  0
   36.6180   31.3090   40.3920 H   0  0  0  0  0  0  0  0  0  0  0  0
   35.0970   29.4130   40.3470 Cl  0  0  0  0  0  0  0  0  0  0  0  0
   35.7110   29.5750   38.7140 C   0  0  0  0  0  0  0  0  0  0  0  0
   36.7130   30.4930   38.4760 C   0  0  0  0  0  0  0  0  0  0  0  0
   37.1060   30.4870   37.1320 C   0  0  0  0  0  0  0  0  0  0  0  0
   37.9040   31.1850   36.8330 H   0  0  0  0  0  0  0  0  0  0  0  0
   36.6030   29.7040   36.1450 C   0  0  0  0  0  3  0  0  0  0  0  0
   35.6070   28.8200   36.4760 C   0  0  0  0  0  0  0  0  0  0  0  0
   34.9480   27.8040   35.2140 Cl  0  0  0  0  0  0  0  0  0  0  0  0
   35.1480   28.7440   37.7680 C   0  0  0  0  0  0  0  0  0  0  0  0
   34.3640   28.0450   38.0180 H   0  0  0  0  0  0  0  0  0  0  0  0
   39.7560   27.4890   39.7210 C   0  0  0  0  0  0  0  0  0  0  0  0
   39.5680   28.8280   39.3710 C   0  0  0  0  0  0  0  0  0  0  0  0
   38.8380   29.6540   40.2370 C   0  0  0  0  0  0  0  0  0  0  0  0
   38.3670   29.0680   41.3640 N   0  0  0  0  0  0  0  0  0  0  0  0
   38.5510   27.7760   41.6960 C   0  0  0  0  0  0  0  0  0  0  0  0
   39.2500   26.9900   40.8650 N   0  0  0  0  0  0  0  0  0  0  0  0
   40.3160   26.9010   39.0320 H   0  0  0  0  0  0  0  0  0  0  0  0
   39.9420   29.2850   38.4780 H   0  0  0  0  0  0  0  0  0  0  0  0
   38.1310   27.4000   42.6290 H   0  0  0  0  0  0  0  0  0  0  0  0
  1  2  1  0  0  0  0
  1 28  1  0  0  0  0
  2  3  1  0  0  0  0
  2  7  1  0  0  0  0
  3 10  1  0  0  0  0
  3  9  1  0  0  0  0
  4 12  1  0  0  0  0
  4  3  1  0  0  0  0
  5  6  1  0  0  0  0
  5  4  1  0  0  0  0
  6  1  1  0  0  0  0
  6 15  1  1  0  0  0
  8  2  1  0  0  0  0
 11  4  1  0  0  0  0
 13  5  1  0  0  0  0
 14  5  1  0  0  0  0
 17 16  1  0  0  0  0
 18 17  1  0  0  0  0
 18  6  1  0  0  0  0
 19 18  2  0  0  0  0
 20 19  1  0  0  0  0
 21 22  2  0  0  0  0
 21 19  1  0  0  0  0
 22 24  1  0  0  0  0
 23 22  1  0  0  0  0
 24 25  1  0  0  0  0
 24 17  2  0  0  0  0
 26 31  1  0  0  0  0
 27 26  2  0  0  0  0
 27 28  1  0  0  0  0
 28 29  2  0  0  0  0
 29 30  1  0  0  0  0
 30 34  1  0  0  0  0
 31 30  2  0  0  0  0
 32 26  1  0  0  0  0
 33 27  1  0  0  0  0
M  END
>  <minimizedAffinity>
-4.85736752

$$$$

 OpenBabel03252502223D

 34 36  0  0  1  0  0  0  0  0999 V2000
   36.4040   29.2540   37.4260 N   0  0  0  0  0  0  0  0  0  0  0  0
   35.9020   28.7790   36.1380 C   0  0  0  0  0  0  0  0  0  0  0  0
   34.4450   29.2860   36.0860 C   0  0  0  0  0  0  0  0  0  0  0  0
   33.6230   28.6160   37.1410 C   0  0  0  0  0  0  0  0  0  0  0  0
   34.3240   28.4190   38.4300 C   0  0  0  0  0  0  0  0  0  0  0  0
   35.5910   29.1780   38.5970 C   0  0  1  0  0  0  0  0  0  0  0  0
   36.3960   29.2720   35.2940 H   0  0  0  0  0  0  0  0  0  0  0  0
   35.9520   27.6840   36.1330 H   0  0  0  0  0  0  0  0  0  0  0  0
   34.4970   30.3720   36.3110 H   0  0  0  0  0  0  0  0  0  0  0  0
   34.0130   29.1370   35.0930 H   0  0  0  0  0  0  0  0  0  0  0  0
   33.2100   27.6860   36.6800 H   0  0  0  0  0  0  0  0  0  0  0  0
   32.7120   29.2530   37.3310 H   0  0  0  0  0  0  0  0  0  0  0  0
   34.4720   27.3110   38.5550 H   0  0  0  0  0  0  0  0  0  0  0  0
   33.6860   28.6850   39.3230 H   0  0  0  0  0  0  0  0  0  0  0  0
   35.2480   30.2530   38.7630 H   0  0  0  0  0  0  0  0  0  0  0  0
   36.2490   31.3520   40.6810 Cl  0  0  0  0  0  0  0  0  0  0  0  0
   36.6120   29.6470   40.8640 C   0  0  0  0  0  0  0  0  0  0  0  0
   36.2720   28.7890   39.8390 C   0  0  0  0  0  0  0  0  0  0  0  0
   36.6450   27.4710   40.1280 C   0  0  0  0  0  0  0  0  0  0  0  0
   36.4190   26.7010   39.3740 H   0  0  0  0  0  0  0  0  0  0  0  0
   37.2610   27.0330   41.2560 C   0  0  0  0  0  3  0  0  0  0  0  0
   37.5600   27.9600   42.2210 C   0  0  0  0  0  0  0  0  0  0  0  0
   38.3550   27.4110   43.6800 Cl  0  0  0  0  0  0  0  0  0  0  0  0
   37.2390   29.2820   42.0370 C   0  0  0  0  0  0  0  0  0  0  0  0
   37.4780   30.0040   42.8040 H   0  0  0  0  0  0  0  0  0  0  0  0
   39.2740   31.6130   37.7490 C   0  0  0  0  0  0  0  0  0  0  0  0
   37.9510   31.1790   37.6330 C   0  0  0  0  0  0  0  0  0  0  0  0
   37.6990   29.8030   37.5470 C   0  0  0  0  0  0  0  0  0  0  0  0
   38.7860   28.9940   37.5850 N   0  0  0  0  0  0  0  0  0  0  0  0
   40.0590   29.4180   37.6960 C   0  0  0  0  0  0  0  0  0  0  0  0
   40.2950   30.7360   37.7780 N   0  0  0  0  0  0  0  0  0  0  0  0
   39.4160   32.6670   37.8100 H   0  0  0  0  0  0  0  0  0  0  0  0
   37.0970   31.8240   37.6020 H   0  0  0  0  0  0  0  0  0  0  0  0
   40.8650   28.6850   37.7180 H   0  0  0  0  0  0  0  0  0  0  0  0
  1 28  1  0  0  0  0
  1  6  1  0  0  0  0
  2  1  1  0  0  0  0
  3  2  1  0  0  0  0
  3  9  1  0  0  0  0
  3  4  1  0  0  0  0
  4 12  1  0  0  0  0
  4  5  1  0  0  0  0
  5 13  1  0  0  0  0
  5  6  1  0  0  0  0
  5 14  1  0  0  0  0
  6 15  1  1  0  0  0
  6 18  1  0  0  0  0
  7  2  1  0  0  0  0
  8  2  1  0  0  0  0
 10  3  1  0  0  0  0
 11  4  1  0  0  0  0
 16 17  1  0  0  0  0
 17 24  1  0  0  0  0
 18 19  1  0  0  0  0
 18 17  2  0  0  0  0
 19 21  2  0  0  0  0
 20 19  1  0  0  0  0
 21 22  1  0  0  0  0
 22 23  1  0  0  0  0
 24 22  2  0  0  0  0
 24 25  1  0  0  0  0
 26 31  1  0  0  0  0
 26 32  1  0  0  0  0
 27 26  2  0  0  0  0
 28 29  2  0  0  0  0
 28 27  1  0  0  0  0
 29 30  1  0  0  0  0
 30 34  1  0  0  0  0
 30 31  2  0  0  0  0
 33 27  1  0  0  0  0
M  END
>  <minimizedAffinity>
-4.84113026

$$$$

 OpenBabel03252502223D

 34 36  0  0  1  0  0  0  0  0999 V2000
   38.7640   28.2940   41.4950 N   0  0  0  0  0  0  0  0  0  0  0  0
   40.1910   28.5130   41.7250 C   0  0  0  0  0  0  0  0  0  0  0  0
   40.2390   29.6410   42.7790 C   0  0  0  0  0  0  0  0  0  0  0  0
   39.6960   30.9110   42.2050 C   0  0  0  0  0  0  0  0  0  0  0  0
   38.5210   30.7320   41.3230 C   0  0  0  0  0  0  0  0  0  0  0  0
   37.8660   29.3990   41.3850 C   0  0  1  0  0  0  0  0  0  0  0  0
   40.6660   27.6570   42.2150 H   0  0  0  0  0  0  0  0  0  0  0  0
   40.6480   28.8220   40.7780 H   0  0  0  0  0  0  0  0  0  0  0  0
   39.5730   29.3090   43.6040 H   0  0  0  0  0  0  0  0  0  0  0  0
   41.2540   29.7790   43.1580 H   0  0  0  0  0  0  0  0  0  0  0  0
   40.5600   31.4460   41.7400 H   0  0  0  0  0  0  0  0  0  0  0  0
   39.3920   31.5780   43.0620 H   0  0  0  0  0  0  0  0  0  0  0  0
   38.8520   30.9960   40.2810 H   0  0  0  0  0  0  0  0  0  0  0  0
   37.7040   31.4850   41.5200 H   0  0  0  0  0  0  0  0  0  0  0  0
   37.3170   29.4080   42.3830 H   0  0  0  0  0  0  0  0  0  0  0  0
   38.6770   29.3720   38.4110 Cl  0  0  0  0  0  0  0  0  0  0  0  0
   37.0320   29.2430   39.0020 C   0  0  0  0  0  0  0  0  0  0  0  0
   36.8170   29.2850   40.3630 C   0  0  0  0  0  0  0  0  0  0  0  0
   35.4540   29.1900   40.6710 C   0  0  0  0  0  0  0  0  0  0  0  0
   35.1700   29.2130   41.7340 H   0  0  0  0  0  0  0  0  0  0  0  0
   34.4310   29.0680   39.7870 C   0  0  0  0  0  3  0  0  0  0  0  0
   34.7420   29.0340   38.4510 C   0  0  0  0  0  0  0  0  0  0  0  0
   33.4340   28.8770   37.3000 Cl  0  0  0  0  0  0  0  0  0  0  0  0
   36.0500   29.1220   38.0410 C   0  0  0  0  0  0  0  0  0  0  0  0
   36.2830   29.0940   36.9860 H   0  0  0  0  0  0  0  0  0  0  0  0
   36.9470   25.1020   42.1390 C   0  0  0  0  0  0  0  0  0  0  0  0
   37.4150   26.4010   42.3540 C   0  0  0  0  0  0  0  0  0  0  0  0
   38.2340   26.9900   41.3820 C   0  0  0  0  0  0  0  0  0  0  0  0
   38.5090   26.2310   40.2930 N   0  0  0  0  0  0  0  0  0  0  0  0
   38.0560   24.9790   40.0920 C   0  0  0  0  0  0  0  0  0  0  0  0
   37.2710   24.4200   41.0250 N   0  0  0  0  0  0  0  0  0  0  0  0
   36.3280   24.6960   42.9060 H   0  0  0  0  0  0  0  0  0  0  0  0
   37.1950   26.9950   43.2170 H   0  0  0  0  0  0  0  0  0  0  0  0
   38.3330   24.4510   39.1800 H   0  0  0  0  0  0  0  0  0  0  0  0
  1  2  1  0  0  0  0
  2  7  1  0  0  0  0
  2  3  1  0  0  0  0
  3 10  1  0  0  0  0
  3  9  1  0  0  0  0
  4  3  1  0  0  0  0
  4 12  1  0  0  0  0
  5  6  1  0  0  0  0
  5 14  1  0  0  0  0
  5  4  1  0  0  0  0
  6  1  1  0  0  0  0
  6 15  1  1  0  0  0
  8  2  1  0  0  0  0
 11  4  1  0  0  0  0
 13  5  1  0  0  0  0
 16 17  1  0  0  0  0
 17 18  1  0  0  0  0
 18 19  2  0  0  0  0
 18  6  1  0  0  0  0
 19 20  1  0  0  0  0
 21 19  1  0  0  0  0
 22 21  2  0  0  0  0
 23 22  1  0  0  0  0
 24 22  1  0  0  0  0
 24 17  2  0  0  0  0
 25 24  1  0  0  0  0
 26 27  1  0  0  0  0
 26 32  1  0  0  0  0
 27 33  1  0  0  0  0
 28  1  1  0  0  0  0
 28 27  2  0  0  0  0
 29 28  1  0  0  0  0
 30 29  2  0  0  0  0
 30 31  1  0  0  0  0
 31 26  2  0  0  0  0
 34 30  1  0  0  0  0
M  END
>  <minimizedAffinity>
-4.78693533

$$$$

 OpenBabel03252502223D

 34 36  0  0  1  0  0  0  0  0999 V2000
   37.3130   30.9710   39.4350 N   0  0  0  0  0  0  0  0  0  0  0  0
   37.0550   32.3970   39.6270 C   0  0  0  0  0  0  0  0  0  0  0  0
   38.4600   33.0200   39.7800 C   0  0  0  0  0  0  0  0  0  0  0  0
   39.1130   32.5290   41.0340 C   0  0  0  0  0  0  0  0  0  0  0  0
   38.8680   31.1000   41.3310 C   0  0  0  0  0  0  0  0  0  0  0  0
   38.3000   30.2970   40.2160 C   0  0  1  0  0  0  0  0  0  0  0  0
   36.6420   32.8660   38.7280 H   0  0  0  0  0  0  0  0  0  0  0  0
   36.4550   32.5180   40.5360 H   0  0  0  0  0  0  0  0  0  0  0  0
   39.0450   32.6600   38.9080 H   0  0  0  0  0  0  0  0  0  0  0  0
   38.4080   34.1120   39.7620 H   0  0  0  0  0  0  0  0  0  0  0  0
   38.8190   33.2380   41.8450 H   0  0  0  0  0  0  0  0  0  0  0  0
   40.2250   32.6810   40.9290 H   0  0  0  0  0  0  0  0  0  0  0  0
   38.2250   31.0630   42.2530 H   0  0  0  0  0  0  0  0  0  0  0  0
   39.8000   30.5540   41.6590 H   0  0  0  0  0  0  0  0  0  0  0  0
   39.1750   30.1640   39.4980 H   0  0  0  0  0  0  0  0  0  0  0  0
   39.5210   27.8790   38.7450 Cl  0  0  0  0  0  0  0  0  0  0  0  0
   38.4410   27.7730   40.1220 C   0  0  0  0  0  0  0  0  0  0  0  0
   37.9580   28.9420   40.6700 C   0  0  0  0  0  0  0  0  0  0  0  0
   37.0970   28.6880   41.7450 C   0  0  0  0  0  0  0  0  0  0  0  0
   36.6530   29.5560   42.2570 H   0  0  0  0  0  0  0  0  0  0  0  0
   36.7460   27.4700   42.2300 C   0  0  0  0  0  3  0  0  0  0  0  0
   37.2780   26.3630   41.6200 C   0  0  0  0  0  0  0  0  0  0  0  0
   36.8340   24.7860   42.2340 Cl  0  0  0  0  0  0  0  0  0  0  0  0
   38.1330   26.5010   40.5550 C   0  0  0  0  0  0  0  0  0  0  0  0
   38.5460   25.6210   40.0820 H   0  0  0  0  0  0  0  0  0  0  0  0
   36.2740   29.2440   36.2970 C   0  0  0  0  0  0  0  0  0  0  0  0
   37.0630   29.9990   37.1690 C   0  0  0  0  0  0  0  0  0  0  0  0
   36.6000   30.2230   38.4720 C   0  0  0  0  0  0  0  0  0  0  0  0
   35.3980   29.6770   38.7800 N   0  0  0  0  0  0  0  0  0  0  0  0
   34.6420   28.9520   37.9360 C   0  0  0  0  0  0  0  0  0  0  0  0
   35.0900   28.7390   36.6900 N   0  0  0  0  0  0  0  0  0  0  0  0
   36.6670   29.1010   35.3170 H   0  0  0  0  0  0  0  0  0  0  0  0
   38.0110   30.4280   36.9180 H   0  0  0  0  0  0  0  0  0  0  0  0
   33.6880   28.5540   38.2820 H   0  0  0  0  0  0  0  0  0  0  0  0
  1  2  1  0  0  0  0
  1  6  1  0  0  0  0
  2  3  1  0  0  0  0
  2  8  1  0  0  0  0
  3  4  1  0  0  0  0
  4  5  1  0  0  0  0
  4 11  1  0  0  0  0
  5 14  1  0  0  0  0
  5 13  1  0  0  0  0
  6 15  1  6  0  0  0
  6 18  1  0  0  0  0
  6  5  1  0  0  0  0
  7  2  1  0  0  0  0
  9  3  1  0  0  0  0
 10  3  1  0  0  0  0
 12  4  1  0  0  0  0
 16 17  1  0  0  0  0
 17 24  2  0  0  0  0
 17 18  1  0  0  0  0
 18 19  2  0  0  0  0
 19 21  1  0  0  0  0
 19 20  1  0  0  0  0
 22 21  2  0  0  0  0
 22 23  1  0  0  0  0
 24 22  1  0  0  0  0
 25 24  1  0  0  0  0
 26 31  2  0  0  0  0
 26 27  1  0  0  0  0
 27 28  2  0  0  0  0
 28 29  1  0  0  0  0
 28  1  1  0  0  0  0
 30 34  1  0  0  0  0
 30 29  2  0  0  0  0
 31 30  1  0  0  0  0
 32 26  1  0  0  0  0
 33 27  1  0  0  0  0
M  END
>  <minimizedAffinity>
-4.78165817

$$$$

 OpenBabel03252502223D

 34 36  0  0  1  0  0  0  0  0999 V2000
   38.7270   25.6200   41.6780 N   0  0  0  0  0  0  0  0  0  0  0  0
   38.3460   24.3610   42.3170 C   0  0  0  0  0  0  0  0  0  0  0  0
   37.9170   23.4530   41.1430 C   0  0  0  0  0  0  0  0  0  0  0  0
   36.6850   23.9950   40.4900 C   0  0  0  0  0  0  0  0  0  0  0  0
   36.6510   25.4700   40.3740 C   0  0  0  0  0  0  0  0  0  0  0  0
   37.9430   26.1650   40.6170 C   0  0  1  0  0  0  0  0  0  0  0  0
   39.2040   23.8480   42.7630 H   0  0  0  0  0  0  0  0  0  0  0  0
   37.5130   24.5610   43.0010 H   0  0  0  0  0  0  0  0  0  0  0  0
   38.7540   23.4910   40.4130 H   0  0  0  0  0  0  0  0  0  0  0  0
   37.7680   22.4240   41.4780 H   0  0  0  0  0  0  0  0  0  0  0  0
   35.8150   23.5420   41.0260 H   0  0  0  0  0  0  0  0  0  0  0  0
   36.6210   23.5600   39.4520 H   0  0  0  0  0  0  0  0  0  0  0  0
   35.8370   25.8330   41.0590 H   0  0  0  0  0  0  0  0  0  0  0  0
   36.2980   25.8240   39.3620 H   0  0  0  0  0  0  0  0  0  0  0  0
   38.5550   25.9450   39.6810 H   0  0  0  0  0  0  0  0  0  0  0  0
   36.4580   27.4630   42.9860 Cl  0  0  0  0  0  0  0  0  0  0  0  0
   37.1320   28.3390   41.6260 C   0  0  0  0  0  0  0  0  0  0  0  0
   37.7570   27.6220   40.6270 C   0  0  0  0  0  0  0  0  0  0  0  0
   38.2210   28.4620   39.6060 C   0  0  0  0  0  0  0  0  0  0  0  0
   38.7380   27.9900   38.7560 H   0  0  0  0  0  0  0  0  0  0  0  0
   38.1010   29.8120   39.5530 C   0  0  0  0  0  3  0  0  0  0  0  0
   37.4630   30.4390   40.5930 C   0  0  0  0  0  0  0  0  0  0  0  0
   37.3010   32.1800   40.5370 Cl  0  0  0  0  0  0  0  0  0  0  0  0
   36.9690   29.7080   41.6450 C   0  0  0  0  0  0  0  0  0  0  0  0
   36.4680   30.2120   42.4590 H   0  0  0  0  0  0  0  0  0  0  0  0
   41.2350   27.5240   43.6760 C   0  0  0  0  0  0  0  0  0  0  0  0
   40.0540   26.8390   43.3800 C   0  0  0  0  0  0  0  0  0  0  0  0
   39.8800   26.3260   42.0880 C   0  0  0  0  0  0  0  0  0  0  0  0
   40.8960   26.5430   41.2170 N   0  0  0  0  0  0  0  0  0  0  0  0
   42.0310   27.2040   41.5080 C   0  0  0  0  0  0  0  0  0  0  0  0
   42.1940   27.6940   42.7460 N   0  0  0  0  0  0  0  0  0  0  0  0
   41.3220   27.8960   44.6700 H   0  0  0  0  0  0  0  0  0  0  0  0
   39.2540   26.6720   44.0720 H   0  0  0  0  0  0  0  0  0  0  0  0
   42.7910   27.3250   40.7360 H   0  0  0  0  0  0  0  0  0  0  0  0
  1 28  1  0  0  0  0
  1  2  1  0  0  0  0
  2  7  1  0  0  0  0
  2  8  1  0  0  0  0
  3 10  1  0  0  0  0
  3  2  1  0  0  0  0
  4 11  1  0  0  0  0
  4  3  1  0  0  0  0
  5  4  1  0  0  0  0
  5  6  1  0  0  0  0
  5 13  1  0  0  0  0
  6 15  1  6  0  0  0
  6 18  1  0  0  0  0
  6  1  1  0  0  0  0
  9  3  1  0  0  0  0
 12  4  1  0  0  0  0
 14  5  1  0  0  0  0
 17 24  1  0  0  0  0
 17 16  1  0  0  0  0
 18 17  2  0  0  0  0
 19 18  1  0  0  0  0
 20 19  1  0  0  0  0
 21 19  2  0  0  0  0
 21 22  1  0  0  0  0
 22 24  2  0  0  0  0
 23 22  1  0  0  0  0
 24 25  1  0  0  0  0
 26 32  1  0  0  0  0
 27 26  1  0  0  0  0
 27 33  1  0  0  0  0
 28 27  2  0  0  0  0
 29 30  2  0  0  0  0
 29 28  1  0  0  0  0
 30 31  1  0  0  0  0
 31 26  2  0  0  0  0
 34 30  1  0  0  0  0
M  END
>  <minimizedAffinity>
-4.78089476

$$$$
