
     RDKit          3D

 39 42  0  0  0  0  0  0  0  0999 V2000
   46.7478   32.5784   45.0639 C   0  0  2  0  0  0  0  0  0  0  0  0
   47.3735   31.4749   44.9399 N   0  0  0  0  0  0  0  0  0  0  0  0
   47.3945   30.2451   44.7032 C   0  0  0  0  0  0  0  0  0  0  0  0
   47.8636   30.1261   45.9913 N   0  0  0  0  0  0  0  0  0  0  0  0
   47.1077   30.8731   46.8691 C   0  0  0  0  0  0  0  0  0  0  0  0
   46.9783   30.3287   48.1788 C   0  0  0  0  0  0  0  0  0  0  0  0
   46.1891   30.9950   49.0329 C   0  0  0  0  0  0  0  0  0  0  0  0
   45.5189   32.1314   48.7348 C   0  0  0  0  0  0  0  0  0  0  0  0
   45.7369   32.5544   47.4207 C   0  0  0  0  0  0  0  0  0  0  0  0
   46.4976   32.0440   46.3729 C   0  0  0  0  0  0  0  0  0  0  0  0
   44.4242   35.4470   45.2440 C   0  0  0  0  0  0  0  0  0  0  0  0
   44.1859   35.5452   43.8563 C   0  0  0  0  0  0  0  0  0  0  0  0
   44.8127   34.6270   43.0391 C   0  0  0  0  0  0  0  0  0  0  0  0
   45.6069   33.7075   43.6428 N   0  0  0  0  0  0  0  0  0  0  0  0
   45.8259   33.6307   44.9920 C   0  0  0  0  0  0  0  0  0  0  0  0
   45.2159   34.5040   45.6663 N   0  0  0  0  0  0  0  0  0  0  0  0
   44.5047   34.7327   41.3240 S   0  0  0  0  0  0  0  0  0  0  0  0
   47.6393   33.3302   45.4000 H   0  0  0  0  0  0  0  0  0  0  0  0
   48.1847   31.7519   44.2323 H   0  0  0  0  0  0  0  0  0  0  0  0
   48.0890   29.6706   44.0101 H   0  0  0  0  0  0  0  0  0  0  0  0
   46.4381   29.7017   44.5496 H   0  0  0  0  0  0  0  0  0  0  0  0
   48.7060   29.5267   46.2741 H   0  0  0  0  0  0  0  0  0  0  0  0
   47.4767   29.4379   48.4938 H   0  0  0  0  0  0  0  0  0  0  0  0
   46.0951   30.5656   50.0481 H   0  0  0  0  0  0  0  0  0  0  0  0
   44.8991   32.6284   49.4457 H   0  0  0  0  0  0  0  0  0  0  0  0
   45.1412   33.4597   47.3223 H   0  0  0  0  0  0  0  0  0  0  0  0
   43.9764   36.1226   45.9715 H   0  0  0  0  0  0  0  0  0  0  0  0
   43.5257   36.3385   43.5411 H   0  0  0  0  0  0  0  0  0  0  0  0
   41.6692   35.7446   42.0596 Cl  0  0  0  0  0  0  0  0  0  0  0  0
   41.8243   34.1984   41.2508 C   0  0  0  0  0  0  0  0  0  0  0  0
   43.0866   33.7203   40.9091 C   0  0  0  0  0  0  0  0  0  0  0  0
   43.1542   32.4843   40.2668 C   0  0  0  0  0  0  0  0  0  0  0  0
   44.1595   32.1350   40.0109 H   0  0  0  0  0  0  0  0  0  0  0  0
   41.9940   31.7834   39.9930 C   0  0  0  0  0  0  0  0  0  0  0  0
   40.7526   32.2797   40.3425 C   0  0  0  0  0  0  0  0  0  0  0  0
   39.2827   31.3933   39.9965 Cl  0  0  0  0  0  0  0  0  0  0  0  0
   40.6453   33.4999   40.9797 C   0  0  0  0  0  0  0  0  0  0  0  0
   39.6834   33.9278   41.2728 H   0  0  0  0  0  0  0  0  0  0  0  0
   42.0886   30.8250   39.4918 H   0  0  0  0  0  0  0  0  0  0  0  0
  1 15  1  0
  1 10  1  0
  2  1  1  0
  3  2  1  0
  3  4  1  0
  4  5  1  0
  5  6  2  0
  6  7  1  0
  8  7  2  0
  9  8  1  0
 10  5  1  0
 10  9  2  0
 11 16  2  0
 12 11  1  0
 13 14  1  0
 13 12  2  0
 14 15  2  0
 15 16  1  0
 17 13  1  0
  1 18  1  1
  2 19  1  0
  3 20  1  0
  3 21  1  0
  4 22  1  0
  6 23  1  0
  7 24  1  0
  8 25  1  0
  9 26  1  0
 11 27  1  0
 12 28  1  0
 29 30  1  0
 30 31  2  0
 31 32  1  0
 32 33  1  0
 32 34  2  0
 34 35  1  0
 35 36  1  0
 35 37  2  0
 37 38  1  0
 37 30  1  0
 34 39  1  0
 17 31  1  0
M  ISO  8  18  13  19   5  20  13  21  13  23  14  24  14  25  14  26  14
M  ISO  4  27  14  28  14  33  16  38  15
M  END
>  <DihAtoms>  (1) 
12,16,30,29

>  <DihDeg>  (1) 
179.9975601828897

$$$$
