
 OpenBabel03252506523D

 32 35  0  0  0  0  0  0  0  0999 V2000
   47.1640   31.3680   45.1910 C   0  0  0  0  0  0  0  0  0  0  0  0
   46.8190   32.7050   45.1890 C   0  0  0  0  0  0  0  0  0  0  0  0
   46.2300   33.3410   46.2750 C   0  0  0  0  0  0  0  0  0  0  0  0
   45.9720   32.5840   47.4270 C   0  0  0  0  0  0  0  0  0  0  0  0
   45.4220   32.8550   48.6490 N   0  0  0  0  0  0  0  0  0  0  0  0
   45.4320   31.7080   49.3770 C   0  0  0  0  0  0  0  0  0  0  0  0
   45.9830   30.7530   48.6030 N   0  0  0  0  0  0  0  0  0  0  0  0
   46.3230   31.2570   47.4040 C   0  0  0  0  0  0  0  0  0  0  0  0
   46.9050   30.6220   46.3390 C   0  0  0  0  0  0  0  0  0  0  0  0
   47.6240   30.9290   44.3050 H   0  0  0  0  0  0  0  0  0  0  0  0
   45.9650   34.3730   46.2720 H   0  0  0  0  0  0  0  0  0  0  0  0
   45.0690   33.7980   48.9280 H   0  0  0  0  0  0  0  0  0  0  0  0
   45.0460   31.6960   50.3690 H   0  0  0  0  0  0  0  0  0  0  0  0
   44.7170   28.6540   45.7550 Cl  0  0  0  0  0  0  0  0  0  0  0  0
   46.3850   28.1670   46.0580 C   0  0  0  0  0  0  0  0  0  0  0  0
   47.2790   29.2110   46.3130 C   0  0  0  0  0  0  0  0  0  0  0  0
   48.5960   28.8470   46.5550 C   0  0  0  0  0  0  0  0  0  0  0  0
   49.3170   29.6330   46.7560 H   0  0  0  0  0  0  0  0  0  0  0  0
   49.0590   27.5430   46.5540 C   0  0  0  0  0  3  0  0  0  0  0  0
   48.1430   26.5640   46.2980 C   0  0  0  0  0  0  0  0  0  0  0  0
   48.6520   24.8990   46.2820 Cl  0  0  0  0  0  0  0  0  0  0  0  0
   46.8310   26.8640   46.0540 C   0  0  0  0  0  0  0  0  0  0  0  0
   46.0710   26.1130   45.8460 H   0  0  0  0  0  0  0  0  0  0  0  0
   46.4350   35.1980   42.5050 C   0  0  0  0  0  0  0  0  0  0  0  0
   47.6190   35.0070   41.7580 C   0  0  0  0  0  0  0  0  0  0  0  0
   48.5410   34.0230   42.1820 C   0  0  0  0  0  0  0  0  0  0  0  0
   48.2200   33.3100   43.3050 N   0  0  0  0  0  0  0  0  0  0  0  0
   47.0770   33.5160   44.0000 C   0  0  0  0  0  0  0  0  0  0  0  0
   46.2130   34.4440   43.5960 N   0  0  0  0  0  0  0  0  0  0  0  0
   45.7710   35.9590   42.1370 H   0  0  0  0  0  0  0  0  0  0  0  0
   47.8980   35.5550   40.8680 H   0  0  0  0  0  0  0  0  0  0  0  0
   49.4590   33.8050   41.6860 H   0  0  0  0  0  0  0  0  0  0  0  0
  1  9  1  0  0  0  0
  2  1  2  0  0  0  0
  2  3  1  0  0  0  0
  3  4  2  0  0  0  0
  4  5  1  0  0  0  0
  5 12  1  0  0  0  0
  5  6  1  0  0  0  0
  6 13  1  0  0  0  0
  7  6  2  0  0  0  0
  8  4  1  0  0  0  0
  8  7  1  0  0  0  0
  9  8  2  0  0  0  0
 10  1  1  0  0  0  0
 11  3  1  0  0  0  0
 14 15  1  0  0  0  0
 15 16  1  0  0  0  0
 16  9  1  0  0  0  0
 16 17  2  0  0  0  0
 17 18  1  0  0  0  0
 19 17  1  0  0  0  0
 20 19  2  0  0  0  0
 21 20  1  0  0  0  0
 22 15  2  0  0  0  0
 22 20  1  0  0  0  0
 23 22  1  0  0  0  0
 24 29  1  0  0  0  0
 25 26  1  0  0  0  0
 25 24  2  0  0  0  0
 26 27  2  0  0  0  0
 27 28  1  0  0  0  0
 28  2  1  0  0  0  0
 29 28  2  0  0  0  0
 30 24  1  0  0  0  0
 31 25  1  0  0  0  0
 32 26  1  0  0  0  0
M  END
>  <minimizedAffinity>
-5.4176383

>  <minimizedRMSD>
0.461109251

$$$$
