
 OpenBabel03252506523D

 32 35  0  0  0  0  0  0  0  0999 V2000
   47.3260   31.5150   44.8410 C   0  0  0  0  0  0  0  0  0  0  0  0
   46.9830   32.8490   44.7340 C   0  0  0  0  0  0  0  0  0  0  0  0
   46.1890   33.5070   45.6650 C   0  0  0  0  0  0  0  0  0  0  0  0
   45.7130   32.7780   46.7640 C   0  0  0  0  0  0  0  0  0  0  0  0
   44.9310   33.0750   47.8460 N   0  0  0  0  0  0  0  0  0  0  0  0
   44.8030   31.9480   48.5940 C   0  0  0  0  0  0  0  0  0  0  0  0
   45.4990   30.9780   47.9690 N   0  0  0  0  0  0  0  0  0  0  0  0
   46.0660   31.4540   46.8470 C   0  0  0  0  0  0  0  0  0  0  0  0
   46.8490   30.7980   45.9350 C   0  0  0  0  0  0  0  0  0  0  0  0
   47.9530   31.0580   44.0750 H   0  0  0  0  0  0  0  0  0  0  0  0
   45.9250   34.5360   45.5820 H   0  0  0  0  0  0  0  0  0  0  0  0
   44.5270   34.0220   48.0250 H   0  0  0  0  0  0  0  0  0  0  0  0
   44.2290   31.9580   49.4900 H   0  0  0  0  0  0  0  0  0  0  0  0
   44.8690   28.8000   44.8920 Cl  0  0  0  0  0  0  0  0  0  0  0  0
   46.4230   28.3340   45.5820 C   0  0  0  0  0  0  0  0  0  0  0  0
   47.2270   29.3900   46.0220 C   0  0  0  0  0  0  0  0  0  0  0  0
   48.4540   29.0430   46.5680 C   0  0  0  0  0  0  0  0  0  0  0  0
   49.1040   29.8380   46.9200 H   0  0  0  0  0  0  0  0  0  0  0  0
   48.9110   27.7430   46.6990 C   0  0  0  0  0  3  0  0  0  0  0  0
   48.0850   26.7510   46.2540 C   0  0  0  0  0  0  0  0  0  0  0  0
   48.5940   25.0910   46.3850 Cl  0  0  0  0  0  0  0  0  0  0  0  0
   46.8640   27.0350   45.7060 C   0  0  0  0  0  0  0  0  0  0  0  0
   46.1780   26.2730   45.3390 H   0  0  0  0  0  0  0  0  0  0  0  0
   47.1470   35.3120   42.0000 C   0  0  0  0  0  0  0  0  0  0  0  0
   48.4310   35.0660   41.4640 C   0  0  0  0  0  0  0  0  0  0  0  0
   49.2320   34.0550   42.0460 C   0  0  0  0  0  0  0  0  0  0  0  0
   48.7000   33.3730   43.1060 N   0  0  0  0  0  0  0  0  0  0  0  0
   47.4670   33.6310   43.5970 C   0  0  0  0  0  0  0  0  0  0  0  0
   46.7180   34.5830   43.0460 N   0  0  0  0  0  0  0  0  0  0  0  0
   46.5840   36.0900   41.5190 H   0  0  0  0  0  0  0  0  0  0  0  0
   48.8760   35.5890   40.6280 H   0  0  0  0  0  0  0  0  0  0  0  0
   50.2100   33.7970   41.7120 H   0  0  0  0  0  0  0  0  0  0  0  0
  1  9  1  0  0  0  0
  2  1  2  0  0  0  0
  2  3  1  0  0  0  0
  3  4  2  0  0  0  0
  4  8  1  0  0  0  0
  4  5  1  0  0  0  0
  5 12  1  0  0  0  0
  5  6  1  0  0  0  0
  6 13  1  0  0  0  0
  7  6  2  0  0  0  0
  8  7  1  0  0  0  0
  9 16  1  0  0  0  0
  9  8  2  0  0  0  0
 10  1  1  0  0  0  0
 11  3  1  0  0  0  0
 14 15  1  0  0  0  0
 15 22  2  0  0  0  0
 15 16  1  0  0  0  0
 16 17  2  0  0  0  0
 17 19  1  0  0  0  0
 17 18  1  0  0  0  0
 20 21  1  0  0  0  0
 20 19  2  0  0  0  0
 22 20  1  0  0  0  0
 23 22  1  0  0  0  0
 24 29  1  0  0  0  0
 25 24  2  0  0  0  0
 25 26  1  0  0  0  0
 26 27  2  0  0  0  0
 27 28  1  0  0  0  0
 28  2  1  0  0  0  0
 29 28  2  0  0  0  0
 30 24  1  0  0  0  0
 31 25  1  0  0  0  0
 32 26  1  0  0  0  0
M  END
>  <minimizedAffinity>
-5.28162241

>  <minimizedRMSD>
1.23859549

$$$$
