REMARK  Name = 
REMARK  5 active torsions:
REMARK  status: ('A' for Active; 'I' for Inactive)
REMARK    1  A    between atoms: C_2  and  S_10
REMARK    2  A    between atoms: S_10  and  C_11
REMARK    3  A    between atoms: C_13  and  C_30
REMARK    4  A    between atoms: C_15  and  O_17
REMARK    5  A    between atoms: O_17  and  C_18
REMARK                            x       y       z     vdW  Elec       q    Type
REMARK                         _______ _______ _______ _____ _____    ______ ____
ROOT
ATOM      1  C   UNL     1      43.907  34.755  40.941  0.00  0.00    +0.000 A 
ATOM      2  C   UNL     1      43.871  33.798  39.942  0.00  0.00    +0.000 A 
ATOM      3  C   UNL     1      45.074  33.184  39.595  0.00  0.00    +0.000 A 
ATOM      4  N   UNL     1      46.201  33.565  40.259  0.00  0.00    +0.000 NA
ATOM      5  C   UNL     1      46.201  34.491  41.216  0.00  0.00    +0.000 A 
ATOM      6  N   UNL     1      45.055  35.064  41.535  0.00  0.00    +0.000 NA
ATOM      7  H   UNL     1      42.946  33.548  39.462  0.00  0.00    +0.000 HD
ENDROOT
BRANCH   3  10
ATOM      8 CL   UNL     1      42.680  33.047  37.862  0.00  0.00    +0.000 Cl
ATOM      9  C   UNL     1      44.097  32.009  37.698  0.00  0.00    +0.000 A 
ATOM     10  C   UNL     1      45.143  32.178  38.571  0.00  0.00    +0.000 A 
ATOM     11  C   UNL     1      46.203  31.322  38.364  0.00  0.00    +0.000 A 
ATOM     12  H   UNL     1      47.063  31.395  39.011  0.00  0.00    +0.000 HD
ATOM     13  C   UNL     1      46.213  30.361  37.349  0.00  0.00    +0.000 A 
ATOM     14  C   UNL     1      45.113  30.255  36.507  0.00  0.00    +0.000 A 
ATOM     15 CL   UNL     1      45.181  29.037  35.257  0.00  0.00    +0.000 Cl
ATOM     16  C   UNL     1      44.029  31.097  36.683  0.00  0.00    +0.000 A 
ATOM     17  H   UNL     1      43.176  31.005  36.019  0.00  0.00    +0.000 HD
ENDBRANCH   3  10
BRANCH   1  18
ATOM     18  S   UNL     1      42.328  35.531  41.364  0.00  0.00    +0.000 S 
BRANCH  18  20
ATOM     19  C   UNL     1      39.968  34.883  40.227  0.00  0.00    +0.000 A 
ATOM     20  C   UNL     1      40.981  34.396  41.058  0.00  0.00    +0.000 A 
ATOM     21  C   UNL     1      40.913  33.120  41.587  0.00  0.00    +0.000 A 
ATOM     22  C   UNL     1      39.848  32.278  41.321  0.00  0.00    +0.000 A 
ATOM     23  C   UNL     1      38.828  32.774  40.482  0.00  0.00    +0.000 A 
ATOM     24  C   UNL     1      38.886  34.054  39.944  0.00  0.00    +0.000 A 
ATOM     25  O   UNL     1      37.867  31.739  40.364  0.00  0.00    +0.000 OA
ATOM     26  C   UNL     1      38.140  30.840  41.409  0.00  0.00    +0.000 C 
ATOM     27  O   UNL     1      39.522  30.987  41.701  0.00  0.00    +0.000 OA
ATOM     28  H   UNL     1      39.982  35.867  39.796  0.00  0.00    +0.000 HD
ATOM     29  H   UNL     1      41.725  32.800  42.222  0.00  0.00    +0.000 HD
ATOM     30  H   UNL     1      38.114  34.432  39.309  0.00  0.00    +0.000 HD
ATOM     31  H   UNL     1      37.853  29.803  41.193  0.00  0.00    +0.000 HD
ATOM     32  H   UNL     1      37.601  31.227  42.314  0.00  0.00    +0.000 HD
ENDBRANCH  18  20
ENDBRANCH   1  18
BRANCH   5  33
ATOM     33  O   UNL     1      47.320  34.890  41.897  0.00  0.00    +0.000 OA
BRANCH  33  34
ATOM     34  C   UNL     1      48.532  35.050  41.223  0.00  0.00    +0.000 C 
ATOM     35  F   UNL     1      49.361  33.969  41.359  0.00  0.00    +0.000 F 
ATOM     36  F   UNL     1      48.184  35.303  39.887  0.00  0.00    +0.000 F 
ATOM     37  F   UNL     1      49.175  36.145  41.779  0.00  0.00    +0.000 F 
ENDBRANCH  33  34
ENDBRANCH   5  33
TORSDOF 5
