
 OpenBabel03242517473D

 44 47  0  0  0  0  0  0  0  0999 V2000
   38.5160   31.7880   41.1960 C   0  0  0  0  0  0  0  0  0  0  0  0
   39.8970   31.6860   40.9400 C   0  0  0  0  0  0  0  0  0  0  0  0
   40.3920   30.4540   40.5310 C   0  0  0  0  0  0  0  0  0  0  0  0
   39.5290   29.4310   40.4020 N   0  0  0  0  0  0  0  0  0  0  0  0
   38.2100   29.5570   40.6530 C   0  0  0  0  0  0  0  0  0  0  0  0
   37.6720   30.7110   41.0480 N   0  0  0  0  0  0  0  0  0  0  0  0
   38.1790   32.7630   41.5100 H   0  0  0  0  0  0  0  0  0  0  0  0
   41.4350   30.3190   40.3220 H   0  0  0  0  0  0  0  0  0  0  0  0
   37.3070   28.3830   40.4930 C   0  0  0  0  0  0  0  0  0  0  0  0
   37.1920   27.8070   41.4250 H   0  0  0  0  0  0  0  0  0  0  0  0
   37.7430   27.6690   39.7560 H   0  0  0  0  0  0  0  0  0  0  0  0
   35.9490   28.7920   39.9230 C   0  0  0  0  0  0  0  0  0  0  0  0
   35.2500   28.7640   40.7890 H   0  0  0  0  0  0  0  0  0  0  0  0
   36.0510   29.8580   39.6120 H   0  0  0  0  0  0  0  0  0  0  0  0
   32.9350   28.6440   39.6360 Cl  0  0  0  0  0  0  0  0  0  0  0  0
   34.1630   27.8370   38.6700 C   0  0  0  0  0  0  0  0  0  0  0  0
   35.5340   27.9230   38.8230 C   0  0  0  0  0  0  0  0  0  0  0  0
   36.3560   27.2190   37.9700 C   0  0  0  0  0  0  0  0  0  0  0  0
   37.4200   27.3200   38.1320 H   0  0  0  0  0  0  0  0  0  0  0  0
   35.7890   26.4290   36.9640 C   0  0  0  0  0  0  0  0  0  0  0  0
   34.4160   26.3360   36.8020 C   0  0  0  0  0  0  0  0  0  0  0  0
   33.7550   25.3230   35.5140 Cl  0  0  0  0  0  0  0  0  0  0  0  0
   33.5940   27.0580   37.6760 C   0  0  0  0  0  0  0  0  0  0  0  0
   32.5460   26.9170   37.4660 H   0  0  0  0  0  0  0  0  0  0  0  0
   40.9630   33.0870   41.1370 S   0  0  0  0  0  0  0  0  0  0  0  0
   40.9250   34.1030   39.6970 C   0  0  0  0  0  0  0  0  0  0  0  0
   39.8400   34.1600   38.8290 C   0  0  0  0  0  0  0  0  0  0  0  0
   39.8830   34.9890   37.7080 C   0  0  0  0  0  0  0  0  0  0  0  0
   40.9760   35.7510   37.4430 C   0  0  0  0  0  0  0  0  0  0  0  0
   42.0550   35.6940   38.3090 C   0  0  0  0  0  0  0  0  0  0  0  0
   42.0470   34.8770   39.4380 C   0  0  0  0  0  0  0  0  0  0  0  0
   38.9770   33.5640   39.0290 H   0  0  0  0  0  0  0  0  0  0  0  0
   39.0280   35.0170   37.0460 H   0  0  0  0  0  0  0  0  0  0  0  0
   41.0230   36.4050   36.5700 H   0  0  0  0  0  0  0  0  0  0  0  0
   42.9160   36.3110   38.0780 H   0  0  0  0  0  0  0  0  0  0  0  0
   43.1840   34.8280   40.3340 C   0  0  0  0  0  0  0  0  0  0  0  0
   44.2600   34.0020   40.1650 C   0  0  0  0  0  0  0  0  0  0  0  0
   45.3460   33.9640   41.0300 C   0  0  0  0  0  0  0  0  0  0  0  0
   45.3360   34.7880   42.0960 N   0  0  0  0  0  0  0  0  0  0  0  0
   44.2740   35.6070   42.2670 C   0  0  0  0  0  0  0  0  0  0  0  0
   43.2150   35.6430   41.4220 N   0  0  0  0  0  0  0  0  0  0  0  0
   44.1790   33.3700   39.2710 H   0  0  0  0  0  0  0  0  0  0  0  0
   46.0870   33.2510   40.7250 H   0  0  0  0  0  0  0  0  0  0  0  0
   44.3490   36.2320   43.1460 H   0  0  0  0  0  0  0  0  0  0  0  0
  1  7  1  0  0  0  0
  2 25  1  0  0  0  0
  2  1  2  0  0  0  0
  3  2  1  0  0  0  0
  4  3  2  0  0  0  0
  4  5  1  0  0  0  0
  5  6  2  0  0  0  0
  6  1  1  0  0  0  0
  8  3  1  0  0  0  0
  9  5  1  0  0  0  0
  9 10  1  0  0  0  0
 11  9  1  0  0  0  0
 12  9  1  0  0  0  0
 12 13  1  0  0  0  0
 14 12  1  0  0  0  0
 16 17  1  0  0  0  0
 16 15  1  0  0  0  0
 17 12  1  0  0  0  0
 18 19  1  0  0  0  0
 18 17  2  0  0  0  0
 20 18  1  0  0  0  0
 21 20  2  0  0  0  0
 21 23  1  0  0  0  0
 22 21  1  0  0  0  0
 23 16  2  0  0  0  0
 24 23  1  0  0  0  0
 26 25  1  0  0  0  0
 27 32  1  0  0  0  0
 27 26  2  0  0  0  0
 28 27  1  0  0  0  0
 29 28  2  0  0  0  0
 29 30  1  0  0  0  0
 30 31  2  0  0  0  0
 31 26  1  0  0  0  0
 31 36  1  0  0  0  0
 33 28  1  0  0  0  0
 34 29  1  0  0  0  0
 35 30  1  0  0  0  0
 36 41  1  0  0  0  0
 37 36  2  0  0  0  0
 37 38  1  0  0  0  0
 38 39  2  0  0  0  0
 39 40  1  0  0  0  0
 40 44  1  0  0  0  0
 41 40  2  0  0  0  0
 42 37  1  0  0  0  0
 43 38  1  0  0  0  0
M  END
>  <minimizedAffinity>
-5.7108326

>  <minimizedRMSD>
1.90828407

$$$$
