REMARK  Name = 
REMARK  3 active torsions:
REMARK  status: ('A' for Active; 'I' for Inactive)
REMARK    1  A    between atoms: C_1  and  C_15
REMARK    2  A    between atoms: C_13  and  S_17
REMARK    3  A    between atoms: S_17  and  C_31
REMARK                            x       y       z     vdW  Elec       q    Type
REMARK                         _______ _______ _______ _____ _____    ______ ____
ROOT
ATOM      1  C   UNL     1      46.748  32.578  45.064  0.00  0.00    +0.000 C 
ATOM      2  N   UNL     1      47.373  31.475  44.940  0.00  0.00    +0.000 NA
ATOM      3  C   UNL     1      47.395  30.245  44.703  0.00  0.00    +0.000 C 
ATOM      4  N   UNL     1      47.864  30.126  45.991  0.00  0.00    +0.000 N 
ATOM      5  C   UNL     1      47.108  30.873  46.869  0.00  0.00    +0.000 A 
ATOM      6  C   UNL     1      46.978  30.329  48.179  0.00  0.00    +0.000 A 
ATOM      7  C   UNL     1      46.189  30.995  49.033  0.00  0.00    +0.000 A 
ATOM      8  C   UNL     1      45.519  32.131  48.735  0.00  0.00    +0.000 A 
ATOM      9  C   UNL     1      45.737  32.554  47.421  0.00  0.00    +0.000 A 
ATOM     10  C   UNL     1      46.498  32.044  46.373  0.00  0.00    +0.000 A 
ATOM     11  H   UNL     1      47.639  33.330  45.400  0.00  0.00    +0.000 HD
ATOM     12  H   UNL     1      48.185  31.752  44.232  0.00  0.00    +0.000 HD
ATOM     13  H   UNL     1      48.089  29.671  44.010  0.00  0.00    +0.000 HD
ATOM     14  H   UNL     1      46.438  29.702  44.550  0.00  0.00    +0.000 HD
ATOM     15  H   UNL     1      48.706  29.527  46.274  0.00  0.00    +0.000 HD
ATOM     16  H   UNL     1      47.477  29.438  48.494  0.00  0.00    +0.000 HD
ATOM     17  H   UNL     1      46.095  30.566  50.048  0.00  0.00    +0.000 HD
ATOM     18  H   UNL     1      44.899  32.628  49.446  0.00  0.00    +0.000 HD
ATOM     19  H   UNL     1      45.141  33.460  47.322  0.00  0.00    +0.000 HD
ENDROOT
BRANCH   1  24
ATOM     20  C   UNL     1      44.424  35.447  45.244  0.00  0.00    +0.000 A 
ATOM     21  C   UNL     1      44.186  35.545  43.856  0.00  0.00    +0.000 A 
ATOM     22  C   UNL     1      44.813  34.627  43.039  0.00  0.00    +0.000 A 
ATOM     23  N   UNL     1      45.607  33.708  43.643  0.00  0.00    +0.000 NA
ATOM     24  C   UNL     1      45.826  33.631  44.992  0.00  0.00    +0.000 A 
ATOM     25  N   UNL     1      45.216  34.504  45.666  0.00  0.00    +0.000 NA
ATOM     26  H   UNL     1      43.976  36.123  45.971  0.00  0.00    +0.000 HD
ATOM     27  H   UNL     1      43.526  36.339  43.541  0.00  0.00    +0.000 HD
BRANCH  22  28
ATOM     28  S   UNL     1      44.505  34.733  41.324  0.00  0.00    +0.000 S 
BRANCH  28  31
ATOM     29 CL   UNL     1      43.566  34.599  38.373  0.00  0.00    +0.000 Cl
ATOM     30  C   UNL     1      42.686  33.678  39.576  0.00  0.00    +0.000 A 
ATOM     31  C   UNL     1      43.087  33.720  40.909  0.00  0.00    +0.000 A 
ATOM     32  C   UNL     1      42.352  32.969  41.826  0.00  0.00    +0.000 A 
ATOM     33  H   UNL     1      42.691  33.022  42.865  0.00  0.00    +0.000 HD
ATOM     34  C   UNL     1      41.271  32.220  41.398  0.00  0.00    +0.000 A 
ATOM     35  C   UNL     1      40.894  32.194  40.069  0.00  0.00    +0.000 A 
ATOM     36 CL   UNL     1      39.526  31.247  39.525  0.00  0.00    +0.000 Cl
ATOM     37  C   UNL     1      41.596  32.925  39.131  0.00  0.00    +0.000 A 
ATOM     38  H   UNL     1      41.331  32.932  38.071  0.00  0.00    +0.000 HD
ENDBRANCH  28  31
ENDBRANCH  22  28
ENDBRANCH   1  24
TORSDOF 3
