
 OpenBabel03252508463D

 46 48  0  0  0  0  0  0  0  0999 V2000
   42.6660   31.3670   42.6050 N   0  0  0  0  0  0  0  0  0  0  0  0
   42.9440   31.6360   43.5870 H   0  0  0  0  0  0  0  0  0  0  0  0
   42.9680   32.4190   41.6850 C   0  0  0  0  0  0  0  0  0  0  0  0
   43.4590   31.9900   40.7910 H   0  0  0  0  0  0  0  0  0  0  0  0
   42.0410   32.9250   41.3140 H   0  0  0  0  0  0  0  0  0  0  0  0
   43.6680   34.8180   41.9180 C   0  0  0  0  0  0  0  0  0  0  0  0
   43.8760   33.4690   42.2330 C   0  0  0  0  0  0  0  0  0  0  0  0
   44.9330   33.1480   43.0580 C   0  0  0  0  0  0  0  0  0  0  0  0
   45.7530   34.1200   43.5500 C   0  0  0  0  0  0  0  0  0  0  0  0
   45.5670   35.4530   43.2520 C   0  0  0  0  0  0  0  0  0  0  0  0
   44.4950   35.7460   42.4210 C   0  0  0  0  0  0  0  0  0  0  0  0
   45.0480   32.0910   43.2690 H   0  0  0  0  0  0  0  0  0  0  0  0
   46.5610   33.7850   44.1870 H   0  0  0  0  0  0  0  0  0  0  0  0
   46.2370   36.1920   43.6610 H   0  0  0  0  0  0  0  0  0  0  0  0
   44.3150   36.7830   42.1640 H   0  0  0  0  0  0  0  0  0  0  0  0
   40.2680   35.7280   40.5550 C   0  0  0  0  0  0  0  0  0  0  0  0
   41.2810   35.4750   41.5020 C   0  0  0  0  0  0  0  0  0  0  0  0
   42.5430   35.1050   41.0470 C   0  0  0  0  0  0  0  0  0  0  0  0
   42.7130   35.0100   39.6950 N   0  0  0  0  0  0  0  0  0  0  0  0
   41.7230   35.2590   38.8030 C   0  0  0  0  0  0  0  0  0  0  0  0
   40.5110   35.6140   39.2470 N   0  0  0  0  0  0  0  0  0  0  0  0
   39.3540   35.9990   41.0400 H   0  0  0  0  0  0  0  0  0  0  0  0
   41.1830   35.5370   42.5570 H   0  0  0  0  0  0  0  0  0  0  0  0
   41.8440   35.1860   37.7440 H   0  0  0  0  0  0  0  0  0  0  0  0
   40.9870   31.0030   42.6660 S   0  0  0  0  0  0  0  0  0  0  0  0
   40.1580   32.2530   42.4780 O   0  0  0  0  0  0  0  0  0  0  0  0
   40.0340   32.7000   41.5910 H   0  0  0  0  0  0  0  0  0  0  0  0
   40.6250   30.3080   43.9230 O   0  0  0  0  0  0  0  0  0  0  0  0
   41.1450   30.1840   44.7510 H   0  0  0  0  0  0  0  0  0  0  0  0
   40.6820   29.9590   41.3810 O   0  0  0  0  0  0  0  0  0  0  0  0
   39.9940   28.8640   41.8410 C   0  0  0  0  0  0  0  0  0  0  0  0
   39.0680   28.7800   41.2340 H   0  0  0  0  0  0  0  0  0  0  0  0
   39.6830   28.8930   42.8930 H   0  0  0  0  0  0  0  0  0  0  0  0
   40.8380   27.6000   41.5960 C   0  0  0  0  0  0  0  0  0  0  0  0
   41.7680   27.7580   42.1430 H   0  0  0  0  0  0  0  0  0  0  0  0
   41.0620   27.5760   40.5330 H   0  0  0  0  0  0  0  0  0  0  0  0
   42.0350   25.8940   43.8480 Cl  0  0  0  0  0  0  0  0  0  0  0  0
   40.5190   25.5460   43.0430 C   0  0  0  0  0  0  0  0  0  0  0  0
   40.0920   26.4010   42.0510 C   0  0  0  0  0  0  0  0  0  0  0  0
   38.8810   26.1390   41.4010 C   0  0  0  0  0  0  0  0  0  0  0  0
   38.5260   26.7990   40.6200 H   0  0  0  0  0  0  0  0  0  0  0  0
   38.1060   25.0450   41.7300 C   0  0  0  0  0  3  0  0  0  0  0  0
   38.5670   24.2190   42.7230 C   0  0  0  0  0  0  0  0  0  0  0  0
   37.5600   22.8260   43.1240 Cl  0  0  0  0  0  0  0  0  0  0  0  0
   39.7620   24.4340   43.4000 C   0  0  0  0  0  0  0  0  0  0  0  0
   40.0930   23.7460   44.1920 H   0  0  0  0  0  0  0  0  0  0  0  0
  1 25  1  0  0  0  0
  1  2  1  0  0  0  0
  3  7  1  0  0  0  0
  3  1  1  0  0  0  0
  4  3  1  0  0  0  0
  5  3  1  0  0  0  0
  6  7  2  0  0  0  0
  6 11  1  0  0  0  0
  7  8  1  0  0  0  0
  8 12  1  0  0  0  0
  8  9  2  0  0  0  0
  9 13  1  0  0  0  0
 10  9  1  0  0  0  0
 10 14  1  0  0  0  0
 11 10  2  0  0  0  0
 15 11  1  0  0  0  0
 16 22  1  0  0  0  0
 16 17  1  0  0  0  0
 17 23  1  0  0  0  0
 18 17  2  0  0  0  0
 18  6  1  0  0  0  0
 19 18  1  0  0  0  0
 20 21  1  0  0  0  0
 20 19  2  0  0  0  0
 21 16  2  0  0  0  0
 24 20  1  0  0  0  0
 25 28  1  0  0  0  0
 26 25  1  0  0  0  0
 27 26  1  0  0  0  0
 28 29  1  0  0  0  0
 30 31  1  0  0  0  0
 30 25  1  0  0  0  0
 31 33  1  0  0  0  0
 32 31  1  0  0  0  0
 34 31  1  0  0  0  0
 34 39  1  0  0  0  0
 34 35  1  0  0  0  0
 36 34  1  0  0  0  0
 38 45  1  0  0  0  0
 38 37  1  0  0  0  0
 39 38  2  0  0  0  0
 40 42  2  0  0  0  0
 40 39  1  0  0  0  0
 41 40  1  0  0  0  0
 42 43  1  0  0  0  0
 43 44  1  0  0  0  0
 43 45  2  0  0  0  0
 45 46  1  0  0  0  0
M  END
>  <minimizedAffinity>
-5.23588324

>  <minimizedRMSD>
0.604270637

$$$$
