
 OpenBabel03252501363D

 26 27  0  0  0  0  0  0  0  0999 V2000
   37.4580   28.1100   42.2210 C   0  0  0  0  0  0  0  0  0  0  0  0
   37.8450   28.2170   41.0090 O   0  0  0  0  0  0  0  0  0  0  0  0
   37.3280   29.3740   42.8720 N   0  0  0  0  0  0  0  0  0  0  0  0
   37.0130   29.4330   43.8440 H   0  0  0  0  0  0  0  0  0  0  0  0
   37.7020   30.4210   41.9330 C   0  0  0  0  0  0  0  0  0  0  0  0
   36.8340   31.0300   41.0610 C   0  0  0  0  0  0  0  0  0  0  0  0
   37.3800   32.0110   40.2430 C   0  0  0  0  0  0  0  0  0  0  0  0
   38.6930   32.2860   40.3620 N   0  0  0  0  0  0  0  0  0  0  0  0
   39.5090   31.6610   41.2350 C   0  0  0  0  0  0  0  0  0  0  0  0
   39.0070   30.6970   42.0490 N   0  0  0  0  0  0  0  0  0  0  0  0
   36.7070   32.4940   39.5560 H   0  0  0  0  0  0  0  0  0  0  0  0
   40.5560   31.9370   41.2730 H   0  0  0  0  0  0  0  0  0  0  0  0
   35.4890   30.6120   41.0760 N   0  0  0  0  0  0  0  0  0  0  0  0
   35.0220   29.7810   40.6480 H   0  0  0  0  0  0  0  0  0  0  0  0
   34.8580   31.2490   41.6080 H   0  0  0  0  0  0  0  0  0  0  0  0
   37.1830   26.9010   42.8780 O   0  0  0  0  0  0  0  0  0  0  0  0
   39.8030   25.7620   43.6030 Cl  0  0  0  0  0  0  0  0  0  0  0  0
   38.6350   25.0890   42.4850 C   0  0  0  0  0  0  0  0  0  0  0  0
   37.4170   25.7060   42.2060 C   0  0  0  0  0  0  0  0  0  0  0  0
   36.5480   25.1280   41.3230 C   0  0  0  0  0  0  0  0  0  0  0  0
   35.6100   25.6280   41.1260 H   0  0  0  0  0  0  0  0  0  0  0  0
   36.8010   23.9400   40.6690 C   0  0  0  0  0  3  0  0  0  0  0  0
   38.0150   23.3030   40.9310 C   0  0  0  0  0  0  0  0  0  0  0  0
   38.4400   21.7860   40.1520 Cl  0  0  0  0  0  0  0  0  0  0  0  0
   38.8780   23.9010   41.8250 C   0  0  0  0  0  0  0  0  0  0  0  0
   39.8260   23.3810   42.0150 H   0  0  0  0  0  0  0  0  0  0  0  0
  1  3  1  0  0  0  0
  1 16  1  0  0  0  0
  2  1  2  0  0  0  0
  3  4  1  0  0  0  0
  5 10  1  0  0  0  0
  5  3  1  0  0  0  0
  6 13  1  0  0  0  0
  6  5  2  0  0  0  0
  7  8  2  0  0  0  0
  7  6  1  0  0  0  0
  8  9  1  0  0  0  0
  9 12  1  0  0  0  0
  9 10  2  0  0  0  0
 11  7  1  0  0  0  0
 13 15  1  0  0  0  0
 14 13  1  0  0  0  0
 18 17  1  0  0  0  0
 19 18  1  0  0  0  0
 19 16  1  0  0  0  0
 20 19  2  0  0  0  0
 21 20  1  0  0  0  0
 22 23  2  0  0  0  0
 22 20  1  0  0  0  0
 23 25  1  0  0  0  0
 24 23  1  0  0  0  0
 25 26  1  0  0  0  0
 25 18  2  0  0  0  0
M  END
>  <minimizedAffinity>
-5.51012611

$$$$

 OpenBabel03252501363D

 26 27  0  0  0  0  0  0  0  0999 V2000
   37.8020   31.0250   41.0340 C   0  0  0  0  0  0  0  0  0  0  0  0
   39.0500   30.8950   41.2640 O   0  0  0  0  0  0  0  0  0  0  0  0
   37.5250   32.0020   40.0300 N   0  0  0  0  0  0  0  0  0  0  0  0
   36.5620   32.1970   39.7400 H   0  0  0  0  0  0  0  0  0  0  0  0
   38.7840   32.5740   39.5790 C   0  0  0  0  0  0  0  0  0  0  0  0
   39.4320   33.6130   40.2000 C   0  0  0  0  0  0  0  0  0  0  0  0
   40.6270   34.0200   39.6190 C   0  0  0  0  0  0  0  0  0  0  0  0
   41.0520   33.3800   38.5120 N   0  0  0  0  0  0  0  0  0  0  0  0
   40.3800   32.3630   37.9360 C   0  0  0  0  0  0  0  0  0  0  0  0
   39.2090   31.9400   38.4780 N   0  0  0  0  0  0  0  0  0  0  0  0
   41.1430   34.8330   40.1000 H   0  0  0  0  0  0  0  0  0  0  0  0
   40.7860   31.8970   37.0460 H   0  0  0  0  0  0  0  0  0  0  0  0
   38.8380   34.1610   41.3530 N   0  0  0  0  0  0  0  0  0  0  0  0
   38.0550   34.8450   41.4640 H   0  0  0  0  0  0  0  0  0  0  0  0
   39.2570   33.8200   42.2440 H   0  0  0  0  0  0  0  0  0  0  0  0
   36.7820   30.3070   41.6770 O   0  0  0  0  0  0  0  0  0  0  0  0
   35.9220   28.7980   39.2960 Cl  0  0  0  0  0  0  0  0  0  0  0  0
   36.5610   28.1380   40.7880 C   0  0  0  0  0  0  0  0  0  0  0  0
   36.9420   28.9380   41.8630 C   0  0  0  0  0  0  0  0  0  0  0  0
   37.4340   28.3610   43.0000 C   0  0  0  0  0  0  0  0  0  0  0  0
   37.7220   29.0050   43.8180 H   0  0  0  0  0  0  0  0  0  0  0  0
   37.5850   26.9980   43.1620 C   0  0  0  0  0  3  0  0  0  0  0  0
   37.2100   26.1760   42.0980 C   0  0  0  0  0  0  0  0  0  0  0  0
   37.3570   24.4270   42.1970 Cl  0  0  0  0  0  0  0  0  0  0  0  0
   36.7160   26.7770   40.9600 C   0  0  0  0  0  0  0  0  0  0  0  0
   36.4280   26.1090   40.1380 H   0  0  0  0  0  0  0  0  0  0  0  0
  1  2  2  0  0  0  0
  1 16  1  0  0  0  0
  3  1  1  0  0  0  0
  4  3  1  0  0  0  0
  5  3  1  0  0  0  0
  5  6  1  0  0  0  0
  6 13  1  0  0  0  0
  7 11  1  0  0  0  0
  7  6  2  0  0  0  0
  8  7  1  0  0  0  0
  9 10  1  0  0  0  0
  9  8  2  0  0  0  0
 10  5  2  0  0  0  0
 12  9  1  0  0  0  0
 13 14  1  0  0  0  0
 13 15  1  0  0  0  0
 16 19  1  0  0  0  0
 17 18  1  0  0  0  0
 18 25  2  0  0  0  0
 18 19  1  0  0  0  0
 19 20  2  0  0  0  0
 20 22  1  0  0  0  0
 20 21  1  0  0  0  0
 23 24  1  0  0  0  0
 23 22  2  0  0  0  0
 25 23  1  0  0  0  0
 26 25  1  0  0  0  0
M  END
>  <minimizedAffinity>
-5.4100914

$$$$

 OpenBabel03252501363D

 26 27  0  0  0  0  0  0  0  0999 V2000
   39.2810   31.9550   40.1480 C   0  0  0  0  0  0  0  0  0  0  0  0
   40.2070   31.1050   39.9290 O   0  0  0  0  0  0  0  0  0  0  0  0
   39.5600   33.2340   39.5790 N   0  0  0  0  0  0  0  0  0  0  0  0
   38.8920   34.0050   39.6700 H   0  0  0  0  0  0  0  0  0  0  0  0
   40.8570   33.1780   38.9230 C   0  0  0  0  0  0  0  0  0  0  0  0
   41.0590   32.7530   37.6330 C   0  0  0  0  0  0  0  0  0  0  0  0
   42.3730   32.7740   37.1840 C   0  0  0  0  0  0  0  0  0  0  0  0
   43.3330   33.1980   38.0280 N   0  0  0  0  0  0  0  0  0  0  0  0
   43.0880   33.6070   39.2900 C   0  0  0  0  0  0  0  0  0  0  0  0
   41.8140   33.6000   39.7610 N   0  0  0  0  0  0  0  0  0  0  0  0
   42.5410   32.4420   36.1730 H   0  0  0  0  0  0  0  0  0  0  0  0
   43.9120   33.9350   39.9100 H   0  0  0  0  0  0  0  0  0  0  0  0
   39.9320   32.3440   36.8940 N   0  0  0  0  0  0  0  0  0  0  0  0
   39.3980   31.4460   36.8950 H   0  0  0  0  0  0  0  0  0  0  0  0
   39.5770   33.0690   36.2350 H   0  0  0  0  0  0  0  0  0  0  0  0
   38.1020   31.6980   40.8640 O   0  0  0  0  0  0  0  0  0  0  0  0
   36.3040   30.2210   39.0550 Cl  0  0  0  0  0  0  0  0  0  0  0  0
   37.0260   29.6300   40.5380 C   0  0  0  0  0  0  0  0  0  0  0  0
   37.8670   30.4080   41.3290 C   0  0  0  0  0  0  0  0  0  0  0  0
   38.3990   29.8870   42.4750 C   0  0  0  0  0  0  0  0  0  0  0  0
   39.0490   30.5140   43.0690 H   0  0  0  0  0  0  0  0  0  0  0  0
   38.1530   28.6030   42.9160 C   0  0  0  0  0  3  0  0  0  0  0  0
   37.3130   27.8020   42.1400 C   0  0  0  0  0  0  0  0  0  0  0  0
   36.9300   26.1530   42.6090 Cl  0  0  0  0  0  0  0  0  0  0  0  0
   36.7870   28.3460   40.9880 C   0  0  0  0  0  0  0  0  0  0  0  0
   36.1280   27.6980   40.3950 H   0  0  0  0  0  0  0  0  0  0  0  0
  1 16  1  0  0  0  0
  2  1  2  0  0  0  0
  3  4  1  0  0  0  0
  3  1  1  0  0  0  0
  5  3  1  0  0  0  0
  5 10  1  0  0  0  0
  6  5  2  0  0  0  0
  7  6  1  0  0  0  0
  7  8  2  0  0  0  0
  8  9  1  0  0  0  0
  9 10  2  0  0  0  0
  9 12  1  0  0  0  0
 11  7  1  0  0  0  0
 13 14  1  0  0  0  0
 13  6  1  0  0  0  0
 15 13  1  0  0  0  0
 16 19  1  0  0  0  0
 17 18  1  0  0  0  0
 18 25  2  0  0  0  0
 18 19  1  0  0  0  0
 19 20  2  0  0  0  0
 20 22  1  0  0  0  0
 20 21  1  0  0  0  0
 23 24  1  0  0  0  0
 23 22  2  0  0  0  0
 25 23  1  0  0  0  0
 26 25  1  0  0  0  0
M  END
>  <minimizedAffinity>
-5.15521097

$$$$

 OpenBabel03252501363D

 26 27  0  0  0  0  0  0  0  0999 V2000
   37.3550   30.3280   40.8510 C   0  0  0  0  0  0  0  0  0  0  0  0
   38.2480   30.7430   41.6620 O   0  0  0  0  0  0  0  0  0  0  0  0
   37.5050   30.8720   39.5390 N   0  0  0  0  0  0  0  0  0  0  0  0
   36.8610   30.6120   38.7870 H   0  0  0  0  0  0  0  0  0  0  0  0
   38.6500   31.7690   39.5370 C   0  0  0  0  0  0  0  0  0  0  0  0
   38.5980   33.0980   39.8810 C   0  0  0  0  0  0  0  0  0  0  0  0
   39.8000   33.7910   39.8190 C   0  0  0  0  0  0  0  0  0  0  0  0
   40.9050   33.1240   39.4330 N   0  0  0  0  0  0  0  0  0  0  0  0
   40.9090   31.8160   39.1040 C   0  0  0  0  0  0  0  0  0  0  0  0
   39.7510   31.1090   39.1540 N   0  0  0  0  0  0  0  0  0  0  0  0
   39.7680   34.8330   40.0870 H   0  0  0  0  0  0  0  0  0  0  0  0
   41.8390   31.3480   38.8030 H   0  0  0  0  0  0  0  0  0  0  0  0
   37.3500   33.6270   40.2610 N   0  0  0  0  0  0  0  0  0  0  0  0
   36.5350   33.9480   39.6900 H   0  0  0  0  0  0  0  0  0  0  0  0
   37.2260   33.7100   41.2930 H   0  0  0  0  0  0  0  0  0  0  0  0
   36.3210   29.4350   41.1740 O   0  0  0  0  0  0  0  0  0  0  0  0
   37.2140   28.1570   43.6750 Cl  0  0  0  0  0  0  0  0  0  0  0  0
   36.9590   27.3790   42.1270 C   0  0  0  0  0  0  0  0  0  0  0  0
   36.5340   28.0720   40.9960 C   0  0  0  0  0  0  0  0  0  0  0  0
   36.3530   27.4050   39.8170 C   0  0  0  0  0  0  0  0  0  0  0  0
   36.0220   27.9680   38.9560 H   0  0  0  0  0  0  0  0  0  0  0  0
   36.5690   26.0510   39.6640 C   0  0  0  0  0  3  0  0  0  0  0  0
   36.9960   25.3340   40.7830 C   0  0  0  0  0  0  0  0  0  0  0  0
   37.3020   23.6050   40.7020 Cl  0  0  0  0  0  0  0  0  0  0  0  0
   37.1720   26.0240   41.9640 C   0  0  0  0  0  0  0  0  0  0  0  0
   37.5080   25.4390   42.8290 H   0  0  0  0  0  0  0  0  0  0  0  0
  1 16  1  0  0  0  0
  1  2  2  0  0  0  0
  3  1  1  0  0  0  0
  4  3  1  0  0  0  0
  5  3  1  0  0  0  0
  5  6  1  0  0  0  0
  6 13  1  0  0  0  0
  7  6  2  0  0  0  0
  7 11  1  0  0  0  0
  8  7  1  0  0  0  0
  9 10  1  0  0  0  0
  9  8  2  0  0  0  0
 10  5  2  0  0  0  0
 12  9  1  0  0  0  0
 13 15  1  0  0  0  0
 14 13  1  0  0  0  0
 18 17  1  0  0  0  0
 19 16  1  0  0  0  0
 19 18  2  0  0  0  0
 20 19  1  0  0  0  0
 21 20  1  0  0  0  0
 22 20  2  0  0  0  0
 22 23  1  0  0  0  0
 23 25  2  0  0  0  0
 24 23  1  0  0  0  0
 25 18  1  0  0  0  0
 25 26  1  0  0  0  0
M  END
>  <minimizedAffinity>
-5.09634018

$$$$

 OpenBabel03252501363D

 26 27  0  0  0  0  0  0  0  0999 V2000
   39.5430   31.9140   38.1230 C   0  0  0  0  0  0  0  0  0  0  0  0
   40.4040   31.7160   39.0440 O   0  0  0  0  0  0  0  0  0  0  0  0
   40.1290   32.3970   36.9140 N   0  0  0  0  0  0  0  0  0  0  0  0
   39.5510   32.5860   36.0910 H   0  0  0  0  0  0  0  0  0  0  0  0
   41.5630   32.5340   37.1150 C   0  0  0  0  0  0  0  0  0  0  0  0
   42.4770   31.5300   36.9080 C   0  0  0  0  0  0  0  0  0  0  0  0
   43.8050   31.8550   37.1540 C   0  0  0  0  0  0  0  0  0  0  0  0
   44.0930   33.1040   37.5680 N   0  0  0  0  0  0  0  0  0  0  0  0
   43.1610   34.0590   37.7580 C   0  0  0  0  0  0  0  0  0  0  0  0
   41.8530   33.7750   37.5270 N   0  0  0  0  0  0  0  0  0  0  0  0
   44.5280   31.0730   36.9940 H   0  0  0  0  0  0  0  0  0  0  0  0
   43.4690   35.0420   38.0920 H   0  0  0  0  0  0  0  0  0  0  0  0
   41.9910   30.2820   36.4720 N   0  0  0  0  0  0  0  0  0  0  0  0
   41.5440   29.4960   36.9960 H   0  0  0  0  0  0  0  0  0  0  0  0
   42.1020   30.1240   35.4480 H   0  0  0  0  0  0  0  0  0  0  0  0
   38.1630   31.6950   38.2480 O   0  0  0  0  0  0  0  0  0  0  0  0
   38.3340   28.8790   37.3960 Cl  0  0  0  0  0  0  0  0  0  0  0  0
   37.7500   29.4810   38.9330 C   0  0  0  0  0  0  0  0  0  0  0  0
   37.7070   30.8380   39.2440 C   0  0  0  0  0  0  0  0  0  0  0  0
   37.2400   31.2430   40.4630 C   0  0  0  0  0  0  0  0  0  0  0  0
   37.2190   32.3020   40.6770 H   0  0  0  0  0  0  0  0  0  0  0  0
   36.7940   30.3740   41.4380 C   0  0  0  0  0  3  0  0  0  0  0  0
   36.8260   29.0080   41.1500 C   0  0  0  0  0  0  0  0  0  0  0  0
   36.2810   27.8130   42.3170 Cl  0  0  0  0  0  0  0  0  0  0  0  0
   37.3010   28.6200   39.9150 C   0  0  0  0  0  0  0  0  0  0  0  0
   37.3170   27.5410   39.7130 H   0  0  0  0  0  0  0  0  0  0  0  0
  1 16  1  0  0  0  0
  1  2  2  0  0  0  0
  3  5  1  0  0  0  0
  3  1  1  0  0  0  0
  4  3  1  0  0  0  0
  5 10  1  0  0  0  0
  6  5  2  0  0  0  0
  6  7  1  0  0  0  0
  7  8  2  0  0  0  0
  8  9  1  0  0  0  0
  9 12  1  0  0  0  0
 10  9  2  0  0  0  0
 11  7  1  0  0  0  0
 13  6  1  0  0  0  0
 13 14  1  0  0  0  0
 15 13  1  0  0  0  0
 16 19  1  0  0  0  0
 17 18  1  0  0  0  0
 18 19  2  0  0  0  0
 18 25  1  0  0  0  0
 19 20  1  0  0  0  0
 20 21  1  0  0  0  0
 20 22  2  0  0  0  0
 23 22  1  0  0  0  0
 23 24  1  0  0  0  0
 25 23  2  0  0  0  0
 26 25  1  0  0  0  0
M  END
>  <minimizedAffinity>
-5.0845027

$$$$

 OpenBabel03252501363D

 26 27  0  0  0  0  0  0  0  0999 V2000
   38.7660   30.5870   39.7510 C   0  0  0  0  0  0  0  0  0  0  0  0
   39.6670   29.7960   39.3130 O   0  0  0  0  0  0  0  0  0  0  0  0
   39.0940   31.9620   39.5500 N   0  0  0  0  0  0  0  0  0  0  0  0
   38.4510   32.7020   39.8450 H   0  0  0  0  0  0  0  0  0  0  0  0
   40.3970   32.0400   38.9080 C   0  0  0  0  0  0  0  0  0  0  0  0
   40.5900   32.1880   37.5560 C   0  0  0  0  0  0  0  0  0  0  0  0
   41.9110   32.2440   37.1320 C   0  0  0  0  0  0  0  0  0  0  0  0
   42.8860   32.1500   38.0580 N   0  0  0  0  0  0  0  0  0  0  0  0
   42.6490   32.0060   39.3770 C   0  0  0  0  0  0  0  0  0  0  0  0
   41.3680   31.9470   39.8250 N   0  0  0  0  0  0  0  0  0  0  0  0
   42.0720   32.3600   36.0740 H   0  0  0  0  0  0  0  0  0  0  0  0
   43.4860   31.9380   40.0620 H   0  0  0  0  0  0  0  0  0  0  0  0
   39.4480   32.2690   36.7370 N   0  0  0  0  0  0  0  0  0  0  0  0
   38.8140   31.5260   36.3630 H   0  0  0  0  0  0  0  0  0  0  0  0
   39.1990   33.2430   36.4590 H   0  0  0  0  0  0  0  0  0  0  0  0
   37.5710   30.1880   40.3680 O   0  0  0  0  0  0  0  0  0  0  0  0
   38.4500   29.5680   43.1120 Cl  0  0  0  0  0  0  0  0  0  0  0  0
   37.7750   28.4510   41.9440 C   0  0  0  0  0  0  0  0  0  0  0  0
   37.3870   28.8410   40.6650 C   0  0  0  0  0  0  0  0  0  0  0  0
   36.8670   27.9190   39.8000 C   0  0  0  0  0  0  0  0  0  0  0  0
   36.5740   28.2510   38.8130 H   0  0  0  0  0  0  0  0  0  0  0  0
   36.6930   26.5870   40.1160 C   0  0  0  0  0  3  0  0  0  0  0  0
   37.0740   26.1710   41.3930 C   0  0  0  0  0  0  0  0  0  0  0  0
   36.8980   24.4990   41.9020 Cl  0  0  0  0  0  0  0  0  0  0  0  0
   37.5970   27.1160   42.2510 C   0  0  0  0  0  0  0  0  0  0  0  0
   37.8890   26.7640   43.2490 H   0  0  0  0  0  0  0  0  0  0  0  0
  1 16  1  0  0  0  0
  2  1  2  0  0  0  0
  3  1  1  0  0  0  0
  3  4  1  0  0  0  0
  5  3  1  0  0  0  0
  5 10  1  0  0  0  0
  6  5  2  0  0  0  0
  7  6  1  0  0  0  0
  7  8  2  0  0  0  0
  8  9  1  0  0  0  0
  9 10  2  0  0  0  0
  9 12  1  0  0  0  0
 11  7  1  0  0  0  0
 13  6  1  0  0  0  0
 14 13  1  0  0  0  0
 15 13  1  0  0  0  0
 16 19  1  0  0  0  0
 18 25  1  0  0  0  0
 18 17  1  0  0  0  0
 19 18  2  0  0  0  0
 20 22  2  0  0  0  0
 20 19  1  0  0  0  0
 21 20  1  0  0  0  0
 22 23  1  0  0  0  0
 23 24  1  0  0  0  0
 23 25  2  0  0  0  0
 25 26  1  0  0  0  0
M  END
>  <minimizedAffinity>
-4.91346741

$$$$

 OpenBabel03252501363D

 26 27  0  0  0  0  0  0  0  0999 V2000
   38.8950   31.9760   39.9920 C   0  0  0  0  0  0  0  0  0  0  0  0
   39.9690   31.2900   40.0690 O   0  0  0  0  0  0  0  0  0  0  0  0
   39.0930   33.2420   39.3630 N   0  0  0  0  0  0  0  0  0  0  0  0
   38.3100   33.8870   39.2260 H   0  0  0  0  0  0  0  0  0  0  0  0
   40.4980   33.3710   39.0100 C   0  0  0  0  0  0  0  0  0  0  0  0
   41.0440   32.9480   37.8240 C   0  0  0  0  0  0  0  0  0  0  0  0
   42.4090   33.1610   37.6710 C   0  0  0  0  0  0  0  0  0  0  0  0
   43.0810   33.7540   38.6770 N   0  0  0  0  0  0  0  0  0  0  0  0
   42.5020   34.1540   39.8260 C   0  0  0  0  0  0  0  0  0  0  0  0
   41.1700   33.9610   40.0080 N   0  0  0  0  0  0  0  0  0  0  0  0
   42.8460   32.8330   36.7430 H   0  0  0  0  0  0  0  0  0  0  0  0
   43.1090   34.6240   40.5900 H   0  0  0  0  0  0  0  0  0  0  0  0
   40.1850   32.3470   36.8840 N   0  0  0  0  0  0  0  0  0  0  0  0
   39.8010   31.3770   36.8240 H   0  0  0  0  0  0  0  0  0  0  0  0
   39.8840   32.9890   36.1200 H   0  0  0  0  0  0  0  0  0  0  0  0
   37.6390   31.5650   40.4630 O   0  0  0  0  0  0  0  0  0  0  0  0
   37.1450   29.2550   42.2260 Cl  0  0  0  0  0  0  0  0  0  0  0  0
   36.6910   29.4110   40.5420 C   0  0  0  0  0  0  0  0  0  0  0  0
   36.9700   30.5490   39.7880 C   0  0  0  0  0  0  0  0  0  0  0  0
   36.5890   30.6070   38.4770 C   0  0  0  0  0  0  0  0  0  0  0  0
   36.8180   31.5030   37.9160 H   0  0  0  0  0  0  0  0  0  0  0  0
   35.9250   29.5860   37.8280 C   0  0  0  0  0  3  0  0  0  0  0  0
   35.6330   28.4350   38.5620 C   0  0  0  0  0  0  0  0  0  0  0  0
   34.7930   27.0740   37.8360 Cl  0  0  0  0  0  0  0  0  0  0  0  0
   36.0260   28.3960   39.8830 C   0  0  0  0  0  0  0  0  0  0  0  0
   35.7860   27.4800   40.4390 H   0  0  0  0  0  0  0  0  0  0  0  0
  1  2  2  0  0  0  0
  1 16  1  0  0  0  0
  3  1  1  0  0  0  0
  4  3  1  0  0  0  0
  5  3  1  0  0  0  0
  5 10  1  0  0  0  0
  6  5  2  0  0  0  0
  7  6  1  0  0  0  0
  7  8  2  0  0  0  0
  8  9  1  0  0  0  0
  9 10  2  0  0  0  0
  9 12  1  0  0  0  0
 11  7  1  0  0  0  0
 13  6  1  0  0  0  0
 14 13  1  0  0  0  0
 15 13  1  0  0  0  0
 18 17  1  0  0  0  0
 19 16  1  0  0  0  0
 19 18  2  0  0  0  0
 20 19  1  0  0  0  0
 21 20  1  0  0  0  0
 22 20  2  0  0  0  0
 22 23  1  0  0  0  0
 23 25  2  0  0  0  0
 24 23  1  0  0  0  0
 25 26  1  0  0  0  0
 25 18  1  0  0  0  0
M  END
>  <minimizedAffinity>
-4.90166092

$$$$

 OpenBabel03252501363D

 26 27  0  0  0  0  0  0  0  0999 V2000
   39.7670   30.6840   42.0410 C   0  0  0  0  0  0  0  0  0  0  0  0
   40.5490   30.1550   41.1830 O   0  0  0  0  0  0  0  0  0  0  0  0
   39.7280   32.1080   41.9470 N   0  0  0  0  0  0  0  0  0  0  0  0
   39.1300   32.6580   42.5710 H   0  0  0  0  0  0  0  0  0  0  0  0
   40.6290   32.5290   40.8860 C   0  0  0  0  0  0  0  0  0  0  0  0
   41.9520   32.8460   41.0700 C   0  0  0  0  0  0  0  0  0  0  0  0
   42.6520   33.2250   39.9300 C   0  0  0  0  0  0  0  0  0  0  0  0
   41.9940   33.2530   38.7550 N   0  0  0  0  0  0  0  0  0  0  0  0
   40.6920   32.9320   38.6220 C   0  0  0  0  0  0  0  0  0  0  0  0
   39.9790   32.5570   39.7150 N   0  0  0  0  0  0  0  0  0  0  0  0
   43.6900   33.4760   40.0650 H   0  0  0  0  0  0  0  0  0  0  0  0
   40.2320   32.9770   37.6420 H   0  0  0  0  0  0  0  0  0  0  0  0
   42.4720   32.7590   42.3750 N   0  0  0  0  0  0  0  0  0  0  0  0
   42.4080   33.4150   43.1870 H   0  0  0  0  0  0  0  0  0  0  0  0
   43.0130   31.8870   42.5550 H   0  0  0  0  0  0  0  0  0  0  0  0
   39.0120   29.9780   42.9900 O   0  0  0  0  0  0  0  0  0  0  0  0
   40.7700   27.7130   43.6710 Cl  0  0  0  0  0  0  0  0  0  0  0  0
   39.1970   27.6320   42.9050 C   0  0  0  0  0  0  0  0  0  0  0  0
   38.4380   28.7660   42.6220 C   0  0  0  0  0  0  0  0  0  0  0  0
   37.2170   28.6350   42.0220 C   0  0  0  0  0  0  0  0  0  0  0  0
   36.6500   29.5310   41.8140 H   0  0  0  0  0  0  0  0  0  0  0  0
   36.6670   27.4200   41.6660 C   0  0  0  0  0  3  0  0  0  0  0  0
   37.4090   26.2690   41.9390 C   0  0  0  0  0  0  0  0  0  0  0  0
   36.8050   24.6710   41.5270 Cl  0  0  0  0  0  0  0  0  0  0  0  0
   38.6380   26.4220   42.5450 C   0  0  0  0  0  0  0  0  0  0  0  0
   39.2020   25.5030   42.7490 H   0  0  0  0  0  0  0  0  0  0  0  0
  1 16  1  0  0  0  0
  2  1  2  0  0  0  0
  3  1  1  0  0  0  0
  3  4  1  0  0  0  0
  5  6  1  0  0  0  0
  5  3  1  0  0  0  0
  6 13  1  0  0  0  0
  7 11  1  0  0  0  0
  7  6  2  0  0  0  0
  8  7  1  0  0  0  0
  9  8  2  0  0  0  0
  9 10  1  0  0  0  0
 10  5  2  0  0  0  0
 12  9  1  0  0  0  0
 13 15  1  0  0  0  0
 13 14  1  0  0  0  0
 18 17  1  0  0  0  0
 19 18  1  0  0  0  0
 19 16  1  0  0  0  0
 20 19  2  0  0  0  0
 21 20  1  0  0  0  0
 22 23  2  0  0  0  0
 22 20  1  0  0  0  0
 23 25  1  0  0  0  0
 24 23  1  0  0  0  0
 25 26  1  0  0  0  0
 25 18  2  0  0  0  0
M  END
>  <minimizedAffinity>
-4.88191938

$$$$

 OpenBabel03252501363D

 26 27  0  0  0  0  0  0  0  0999 V2000
   40.5260   31.7510   41.2830 C   0  0  0  0  0  0  0  0  0  0  0  0
   41.3560   31.1590   40.5150 O   0  0  0  0  0  0  0  0  0  0  0  0
   40.6560   33.1730   41.2450 N   0  0  0  0  0  0  0  0  0  0  0  0
   40.0420   33.7700   41.8050 H   0  0  0  0  0  0  0  0  0  0  0  0
   41.7350   33.5160   40.3310 C   0  0  0  0  0  0  0  0  0  0  0  0
   41.5960   33.6230   38.9690 C   0  0  0  0  0  0  0  0  0  0  0  0
   42.7440   33.9630   38.2650 C   0  0  0  0  0  0  0  0  0  0  0  0
   43.8850   34.1580   38.9550 N   0  0  0  0  0  0  0  0  0  0  0  0
   43.9740   34.0410   40.2950 C   0  0  0  0  0  0  0  0  0  0  0  0
   42.8700   33.7110   41.0140 N   0  0  0  0  0  0  0  0  0  0  0  0
   42.6450   34.0500   37.1960 H   0  0  0  0  0  0  0  0  0  0  0  0
   44.9270   34.2140   40.7800 H   0  0  0  0  0  0  0  0  0  0  0  0
   40.3220   33.3840   38.4200 N   0  0  0  0  0  0  0  0  0  0  0  0
   39.8240   32.4910   38.2000 H   0  0  0  0  0  0  0  0  0  0  0  0
   39.7910   34.2530   38.1960 H   0  0  0  0  0  0  0  0  0  0  0  0
   39.5750   31.1110   42.0920 O   0  0  0  0  0  0  0  0  0  0  0  0
   38.5690   28.6330   43.3310 Cl  0  0  0  0  0  0  0  0  0  0  0  0
   37.8120   29.5510   42.0460 C   0  0  0  0  0  0  0  0  0  0  0  0
   38.3690   30.7160   41.5240 C   0  0  0  0  0  0  0  0  0  0  0  0
   37.7270   31.3860   40.5200 C   0  0  0  0  0  0  0  0  0  0  0  0
   38.1810   32.2880   40.1340 H   0  0  0  0  0  0  0  0  0  0  0  0
   36.5280   30.9760   39.9720 C   0  0  0  0  0  3  0  0  0  0  0  0
   35.9510   29.8110   40.4780 C   0  0  0  0  0  0  0  0  0  0  0  0
   34.4280   29.1970   39.8530 Cl  0  0  0  0  0  0  0  0  0  0  0  0
   36.6140   29.1490   41.4910 C   0  0  0  0  0  0  0  0  0  0  0  0
   36.1390   28.2350   41.8720 H   0  0  0  0  0  0  0  0  0  0  0  0
  1 16  1  0  0  0  0
  2  1  2  0  0  0  0
  3  1  1  0  0  0  0
  3  4  1  0  0  0  0
  5 10  1  0  0  0  0
  5  3  1  0  0  0  0
  6  5  2  0  0  0  0
  7  8  2  0  0  0  0
  7  6  1  0  0  0  0
  8  9  1  0  0  0  0
  9 12  1  0  0  0  0
  9 10  2  0  0  0  0
 11  7  1  0  0  0  0
 13  6  1  0  0  0  0
 14 13  1  0  0  0  0
 15 13  1  0  0  0  0
 18 17  1  0  0  0  0
 19 18  1  0  0  0  0
 19 16  1  0  0  0  0
 20 19  2  0  0  0  0
 21 20  1  0  0  0  0
 22 23  2  0  0  0  0
 22 20  1  0  0  0  0
 23 25  1  0  0  0  0
 24 23  1  0  0  0  0
 25 26  1  0  0  0  0
 25 18  2  0  0  0  0
M  END
>  <minimizedAffinity>
-4.83335018

$$$$
