
 OpenBabel03252506523D

 32 35  0  0  0  0  0  0  0  0999 V2000
   47.1150   31.2910   45.1030 C   0  0  0  0  0  0  0  0  0  0  0  0
   46.8580   32.6480   45.1190 C   0  0  0  0  0  0  0  0  0  0  0  0
   46.3110   33.3060   46.2140 C   0  0  0  0  0  0  0  0  0  0  0  0
   46.0050   32.5520   47.3570 C   0  0  0  0  0  0  0  0  0  0  0  0
   45.4740   32.8410   48.5830 N   0  0  0  0  0  0  0  0  0  0  0  0
   45.4100   31.6860   49.2960 C   0  0  0  0  0  0  0  0  0  0  0  0
   45.8970   30.7080   48.5080 N   0  0  0  0  0  0  0  0  0  0  0  0
   46.2690   31.2060   47.3150 C   0  0  0  0  0  0  0  0  0  0  0  0
   46.8080   30.5490   46.2420 C   0  0  0  0  0  0  0  0  0  0  0  0
   47.5440   30.8360   44.2110 H   0  0  0  0  0  0  0  0  0  0  0  0
   46.1130   34.3530   46.2260 H   0  0  0  0  0  0  0  0  0  0  0  0
   45.1830   33.8020   48.8760 H   0  0  0  0  0  0  0  0  0  0  0  0
   45.0250   31.6860   50.2870 H   0  0  0  0  0  0  0  0  0  0  0  0
   49.4060   29.6410   47.4370 Cl  0  0  0  0  0  0  0  0  0  0  0  0
   48.2500   28.5290   46.7060 C   0  0  0  0  0  0  0  0  0  0  0  0
   47.0890   29.1170   46.1960 C   0  0  0  0  0  0  0  0  0  0  0  0
   46.1670   28.2560   45.6180 C   0  0  0  0  0  0  0  0  0  0  0  0
   45.2530   28.6800   45.2110 H   0  0  0  0  0  0  0  0  0  0  0  0
   46.3300   26.8860   45.5210 C   0  0  0  0  0  3  0  0  0  0  0  0
   47.4830   26.3650   46.0350 C   0  0  0  0  0  0  0  0  0  0  0  0
   47.7580   24.6480   45.9500 Cl  0  0  0  0  0  0  0  0  0  0  0  0
   48.4270   27.1650   46.6180 C   0  0  0  0  0  0  0  0  0  0  0  0
   49.3570   26.7890   47.0380 H   0  0  0  0  0  0  0  0  0  0  0  0
   46.6060   35.1590   42.4370 C   0  0  0  0  0  0  0  0  0  0  0  0
   47.8050   34.9420   41.7210 C   0  0  0  0  0  0  0  0  0  0  0  0
   48.6920   33.9340   42.1660 C   0  0  0  0  0  0  0  0  0  0  0  0
   48.3230   33.2250   43.2770 N   0  0  0  0  0  0  0  0  0  0  0  0
   47.1670   33.4560   43.9410 C   0  0  0  0  0  0  0  0  0  0  0  0
   46.3370   34.4070   43.5180 N   0  0  0  0  0  0  0  0  0  0  0  0
   45.9710   35.9370   42.0540 H   0  0  0  0  0  0  0  0  0  0  0  0
   48.1220   35.4850   40.8410 H   0  0  0  0  0  0  0  0  0  0  0  0
   49.6170   33.6960   41.6940 H   0  0  0  0  0  0  0  0  0  0  0  0
  1  2  2  0  0  0  0
  1  9  1  0  0  0  0
  2  3  1  0  0  0  0
  3 11  1  0  0  0  0
  3  4  2  0  0  0  0
  4  5  1  0  0  0  0
  5 12  1  0  0  0  0
  5  6  1  0  0  0  0
  6 13  1  0  0  0  0
  7  6  2  0  0  0  0
  8  4  1  0  0  0  0
  8  7  1  0  0  0  0
  9  8  2  0  0  0  0
 10  1  1  0  0  0  0
 15 14  1  0  0  0  0
 16  9  1  0  0  0  0
 16 15  2  0  0  0  0
 17 16  1  0  0  0  0
 18 17  1  0  0  0  0
 19 17  2  0  0  0  0
 19 20  1  0  0  0  0
 20 22  2  0  0  0  0
 21 20  1  0  0  0  0
 22 15  1  0  0  0  0
 22 23  1  0  0  0  0
 24 29  1  0  0  0  0
 25 26  1  0  0  0  0
 25 24  2  0  0  0  0
 26 27  2  0  0  0  0
 27 28  1  0  0  0  0
 28  2  1  0  0  0  0
 29 28  2  0  0  0  0
 30 24  1  0  0  0  0
 31 25  1  0  0  0  0
 32 26  1  0  0  0  0
M  END
>  <minimizedAffinity>
-5.35061121

>  <minimizedRMSD>
0.369559497

$$$$
