REMARK  Name = 
REMARK  4 active torsions:
REMARK  status: ('A' for Active; 'I' for Inactive)
REMARK    1  A    between atoms: C_2  and  N_7
REMARK    2  A    between atoms: C_3  and  C_14
REMARK    3  A    between atoms: C_20  and  O_22
REMARK    4  A    between atoms: O_22  and  C_40
REMARK                            x       y       z     vdW  Elec       q    Type
REMARK                         _______ _______ _______ _____ _____    ______ ____
ROOT
ATOM      1  C   UNL     1      46.418  31.985  45.476  0.00  0.00    +0.000 A 
ATOM      2  C   UNL     1      46.749  32.735  44.332  0.00  0.00    +0.000 A 
ATOM      3  C   UNL     1      47.728  32.117  43.591  0.00  0.00    +0.000 A 
ATOM      4  C   UNL     1      48.328  30.932  43.893  0.00  0.00    +0.000 A 
ATOM      5  C   UNL     1      47.945  30.256  45.049  0.00  0.00    +0.000 A 
ATOM      6  C   UNL     1      46.976  30.791  45.848  0.00  0.00    +0.000 A 
ATOM      7  O   UNL     1      48.735  29.118  45.070  0.00  0.00    +0.000 OA
ATOM      8  C   UNL     1      49.556  29.070  43.914  0.00  0.00    +0.000 C 
ATOM      9  O   UNL     1      49.311  30.266  43.182  0.00  0.00    +0.000 OA
ATOM     10  H   UNL     1      45.665  32.194  46.268  0.00  0.00    +0.000 HD
ATOM     11  H   UNL     1      47.987  32.657  42.734  0.00  0.00    +0.000 HD
ATOM     12  H   UNL     1      46.762  30.186  46.701  0.00  0.00    +0.000 HD
ATOM     13  H   UNL     1      50.633  29.030  44.170  0.00  0.00    +0.000 HD
ENDROOT
BRANCH   2  16
ATOM     14  C   UNL     1      45.137  36.011  43.494  0.00  0.00    +0.000 A 
ATOM     15  C   UNL     1      45.920  34.881  43.255  0.00  0.00    +0.000 A 
ATOM     16  C   UNL     1      46.062  33.950  44.240  0.00  0.00    +0.000 A 
ATOM     17  N   UNL     1      45.419  34.186  45.427  0.00  0.00    +0.000 NA
ATOM     18  C   UNL     1      44.668  35.276  45.651  0.00  0.00    +0.000 A 
ATOM     19  N   UNL     1      44.535  36.165  44.698  0.00  0.00    +0.000 NA
ATOM     20  H   UNL     1      45.019  36.754  42.716  0.00  0.00    +0.000 HD
ATOM     21  H   UNL     1      44.141  35.512  46.565  0.00  0.00    +0.000 HD
BRANCH  15  22
ATOM     22  N   UNL     1      46.539  34.783  42.010  0.00  0.00    +0.000 N 
ATOM     23  C   UNL     1      47.863  35.268  41.788  0.00  0.00    +0.000 C 
ATOM     24  C   UNL     1      48.442  34.928  40.444  0.00  0.00    +0.000 C 
ATOM     25  N   UNL     1      48.146  33.645  39.977  0.00  0.00    +0.000 NA
ATOM     26  C   UNL     1      46.855  33.200  40.164  0.00  0.00    +0.000 C 
ATOM     27  C   UNL     1      45.976  34.225  40.848  0.00  0.00    +0.000 C 
ATOM     28  H   UNL     1      48.601  34.974  42.585  0.00  0.00    +0.000 HD
ATOM     29  H   UNL     1      47.810  36.379  41.843  0.00  0.00    +0.000 HD
ATOM     30  H   UNL     1      49.553  35.073  40.508  0.00  0.00    +0.000 HD
ATOM     31  H   UNL     1      48.107  35.692  39.713  0.00  0.00    +0.000 HD
ATOM     32  H   UNL     1      48.856  32.956  40.349  0.00  0.00    +0.000 HD
ATOM     33  H   UNL     1      46.355  32.998  39.172  0.00  0.00    +0.000 HD
ATOM     34  H   UNL     1      46.708  32.247  40.739  0.00  0.00    +0.000 HD
ATOM     35  H   UNL     1      45.852  35.044  40.081  0.00  0.00    +0.000 HD
ATOM     36  H   UNL     1      44.952  33.825  41.005  0.00  0.00    +0.000 HD
ENDBRANCH  15  22
ENDBRANCH   2  16
BRANCH   8  37
ATOM     37  O   UNL     1      49.123  27.970  43.166  0.00  0.00    +0.000 OA
BRANCH  37  40
ATOM     38 CL   UNL     1      51.651  27.852  44.594  0.00  0.00    +0.000 Cl
ATOM     39  C   UNL     1      51.075  26.751  43.360  0.00  0.00    +0.000 A 
ATOM     40  C   UNL     1      49.836  26.893  42.729  0.00  0.00    +0.000 A 
ATOM     41  C   UNL     1      49.395  26.017  41.758  0.00  0.00    +0.000 A 
ATOM     42  H   UNL     1      48.440  26.161  41.300  0.00  0.00    +0.000 HD
ATOM     43  C   UNL     1      50.236  24.992  41.440  0.00  0.00    +0.000 A 
ATOM     44  C   UNL     1      51.458  24.817  42.034  0.00  0.00    +0.000 A 
ATOM     45 CL   UNL     1      52.524  23.485  41.605  0.00  0.00    +0.000 Cl
ATOM     46  C   UNL     1      51.895  25.681  42.993  0.00  0.00    +0.000 A 
ATOM     47  H   UNL     1      52.867  25.569  43.489  0.00  0.00    +0.000 HD
ENDBRANCH  37  40
ENDBRANCH   8  37
TORSDOF 4
