
 OpenBabel03252508463D

 46 48  0  0  0  0  0  0  0  0999 V2000
   42.6810   31.4400   42.5760 N   0  0  0  0  0  0  0  0  0  0  0  0
   42.9540   31.7140   43.5580 H   0  0  0  0  0  0  0  0  0  0  0  0
   43.0010   32.4800   41.6500 C   0  0  0  0  0  0  0  0  0  0  0  0
   43.5150   32.0410   40.7730 H   0  0  0  0  0  0  0  0  0  0  0  0
   42.0830   32.9790   41.2490 H   0  0  0  0  0  0  0  0  0  0  0  0
   43.6640   34.8880   41.8980 C   0  0  0  0  0  0  0  0  0  0  0  0
   43.8920   33.5410   42.2060 C   0  0  0  0  0  0  0  0  0  0  0  0
   44.9530   33.2310   43.0300 C   0  0  0  0  0  0  0  0  0  0  0  0
   45.7580   34.2120   43.5290 C   0  0  0  0  0  0  0  0  0  0  0  0
   45.5520   35.5440   43.2390 C   0  0  0  0  0  0  0  0  0  0  0  0
   44.4770   35.8260   42.4080 C   0  0  0  0  0  0  0  0  0  0  0  0
   45.0840   32.1750   43.2350 H   0  0  0  0  0  0  0  0  0  0  0  0
   46.5690   33.8860   44.1660 H   0  0  0  0  0  0  0  0  0  0  0  0
   46.2090   36.2910   43.6540 H   0  0  0  0  0  0  0  0  0  0  0  0
   44.2810   36.8610   42.1570 H   0  0  0  0  0  0  0  0  0  0  0  0
   40.2620   35.7870   40.5330 C   0  0  0  0  0  0  0  0  0  0  0  0
   41.2790   35.5480   41.4800 C   0  0  0  0  0  0  0  0  0  0  0  0
   42.5370   35.1630   41.0270 C   0  0  0  0  0  0  0  0  0  0  0  0
   42.7000   35.0420   39.6760 N   0  0  0  0  0  0  0  0  0  0  0  0
   41.7070   35.2780   38.7840 C   0  0  0  0  0  0  0  0  0  0  0  0
   40.4990   35.6470   39.2270 N   0  0  0  0  0  0  0  0  0  0  0  0
   39.3510   36.0710   41.0170 H   0  0  0  0  0  0  0  0  0  0  0  0
   41.1860   35.6310   42.5350 H   0  0  0  0  0  0  0  0  0  0  0  0
   41.8230   35.1840   37.7260 H   0  0  0  0  0  0  0  0  0  0  0  0
   40.9970   31.0950   42.6260 S   0  0  0  0  0  0  0  0  0  0  0  0
   40.1840   32.3550   42.4390 O   0  0  0  0  0  0  0  0  0  0  0  0
   40.0700   32.8070   41.5540 H   0  0  0  0  0  0  0  0  0  0  0  0
   40.6210   30.3980   43.8780 O   0  0  0  0  0  0  0  0  0  0  0  0
   41.1350   30.2640   44.7080 H   0  0  0  0  0  0  0  0  0  0  0  0
   40.6870   30.0600   41.3350 O   0  0  0  0  0  0  0  0  0  0  0  0
   39.8240   29.0740   41.7420 C   0  0  0  0  0  0  0  0  0  0  0  0
   38.9940   29.0400   41.0060 H   0  0  0  0  0  0  0  0  0  0  0  0
   39.3670   29.2070   42.7310 H   0  0  0  0  0  0  0  0  0  0  0  0
   40.5530   27.7180   41.6970 C   0  0  0  0  0  0  0  0  0  0  0  0
   41.2260   27.7180   42.5550 H   0  0  0  0  0  0  0  0  0  0  0  0
   41.1490   27.7150   40.7890 H   0  0  0  0  0  0  0  0  0  0  0  0
   41.2990   25.1280   43.1620 Cl  0  0  0  0  0  0  0  0  0  0  0  0
   39.7720   25.3990   42.3500 C   0  0  0  0  0  0  0  0  0  0  0  0
   39.5630   26.6140   41.7360 C   0  0  0  0  0  0  0  0  0  0  0  0
   38.3460   26.8460   41.0860 C   0  0  0  0  0  0  0  0  0  0  0  0
   38.1610   27.7960   40.5990 H   0  0  0  0  0  0  0  0  0  0  0  0
   37.3540   25.8880   41.0430 C   0  0  0  0  0  3  0  0  0  0  0  0
   37.6030   24.6920   41.6660 C   0  0  0  0  0  0  0  0  0  0  0  0
   36.3190   23.4810   41.5970 Cl  0  0  0  0  0  0  0  0  0  0  0  0
   38.7940   24.4100   42.3260 C   0  0  0  0  0  0  0  0  0  0  0  0
   38.9500   23.4370   42.8140 H   0  0  0  0  0  0  0  0  0  0  0  0
  1 25  1  0  0  0  0
  1  2  1  0  0  0  0
  3  7  1  0  0  0  0
  3  1  1  0  0  0  0
  4  3  1  0  0  0  0
  5  3  1  0  0  0  0
  6  7  2  0  0  0  0
  6 11  1  0  0  0  0
  7  8  1  0  0  0  0
  8 12  1  0  0  0  0
  8  9  2  0  0  0  0
  9 13  1  0  0  0  0
 10  9  1  0  0  0  0
 10 14  1  0  0  0  0
 11 10  2  0  0  0  0
 15 11  1  0  0  0  0
 16 22  1  0  0  0  0
 16 17  1  0  0  0  0
 17 23  1  0  0  0  0
 18 17  2  0  0  0  0
 18  6  1  0  0  0  0
 19 18  1  0  0  0  0
 20 21  1  0  0  0  0
 20 19  2  0  0  0  0
 21 16  2  0  0  0  0
 24 20  1  0  0  0  0
 25 28  1  0  0  0  0
 26 25  1  0  0  0  0
 27 26  1  0  0  0  0
 28 29  1  0  0  0  0
 30 31  1  0  0  0  0
 30 25  1  0  0  0  0
 31 33  1  0  0  0  0
 32 31  1  0  0  0  0
 34 39  1  0  0  0  0
 34 31  1  0  0  0  0
 34 35  1  0  0  0  0
 36 34  1  0  0  0  0
 38 37  1  0  0  0  0
 39 38  2  0  0  0  0
 40 39  1  0  0  0  0
 41 40  1  0  0  0  0
 42 40  2  0  0  0  0
 42 43  1  0  0  0  0
 43 45  2  0  0  0  0
 44 43  1  0  0  0  0
 45 38  1  0  0  0  0
 45 46  1  0  0  0  0
M  END
>  <minimizedAffinity>
-5.27728701

>  <minimizedRMSD>
0.693119287

$$$$
