
 OpenBabel03242523103D

 47 51  0  0  1  0  0  0  0  0999 V2000
   46.6020   32.6430   46.5860 C   0  0  0  0  0  0  0  0  0  0  0  0
   46.5670   32.6790   45.1800 C   0  0  0  0  0  0  0  0  0  0  0  0
   47.1040   31.5380   44.6340 C   0  0  0  0  0  0  0  0  0  0  0  0
   47.6180   30.4860   45.3300 C   0  0  0  0  0  0  0  0  0  0  0  0
   47.6190   30.5330   46.7220 C   0  0  0  0  0  0  0  0  0  0  0  0
   47.1020   31.6260   47.3560 C   0  0  0  0  0  0  0  0  0  0  0  0
   48.2070   29.3420   47.1150 O   0  0  0  0  0  0  0  0  0  0  0  0
   48.5150   28.5490   45.9790 C   0  0  2  0  0  0  0  0  0  0  0  0
   48.1650   29.3160   44.8320 O   0  0  0  0  0  0  0  0  0  0  0  0
   46.2380   33.3920   47.3240 H   0  0  0  0  0  0  0  0  0  0  0  0
   47.0850   31.5430   43.5880 H   0  0  0  0  0  0  0  0  0  0  0  0
   47.1530   31.5510   48.4190 H   0  0  0  0  0  0  0  0  0  0  0  0
   49.5940   28.3060   45.9220 H   0  0  0  0  0  0  0  0  0  0  0  0
   45.5740   35.7600   43.2940 C   0  0  0  0  0  0  0  0  0  0  0  0
   46.2700   34.5700   43.5100 C   0  0  0  0  0  0  0  0  0  0  0  0
   46.0570   33.8740   44.6620 C   0  0  0  0  0  0  0  0  0  0  0  0
   45.1580   34.3960   45.5560 N   0  0  0  0  0  0  0  0  0  0  0  0
   44.4920   35.5420   45.3430 C   0  0  0  0  0  0  0  0  0  0  0  0
   44.7020   36.2040   44.2320 N   0  0  0  0  0  0  0  0  0  0  0  0
   45.7380   36.3170   42.3810 H   0  0  0  0  0  0  0  0  0  0  0  0
   43.7760   35.9980   46.0110 H   0  0  0  0  0  0  0  0  0  0  0  0
   47.1750   34.1710   42.5280 N   0  0  0  0  0  0  0  0  0  0  0  0
   48.5810   34.3660   42.6760 C   0  0  0  0  0  0  0  0  0  0  0  0
   49.4230   33.7240   41.6100 C   0  0  0  0  0  0  0  0  0  0  0  0
   48.9950   32.4600   41.1960 N   0  0  0  0  0  0  0  0  0  0  0  0
   47.6380   32.2930   41.0210 C   0  0  0  0  0  0  0  0  0  0  0  0
   46.8510   33.5530   41.3060 C   0  0  0  0  0  0  0  0  0  0  0  0
   48.9840   34.0680   43.6840 H   0  0  0  0  0  0  0  0  0  0  0  0
   48.7610   35.4630   42.6090 H   0  0  0  0  0  0  0  0  0  0  0  0
   50.4760   33.6720   41.9960 H   0  0  0  0  0  0  0  0  0  0  0  0
   49.4820   34.4150   40.7440 H   0  0  0  0  0  0  0  0  0  0  0  0
   49.4030   31.7190   41.8290 H   0  0  0  0  0  0  0  0  0  0  0  0
   47.4030   32.0350   39.9470 H   0  0  0  0  0  0  0  0  0  0  0  0
   47.1310   31.4820   41.6090 H   0  0  0  0  0  0  0  0  0  0  0  0
   47.1290   34.2540   40.4660 H   0  0  0  0  0  0  0  0  0  0  0  0
   45.7620   33.3760   41.1800 H   0  0  0  0  0  0  0  0  0  0  0  0
   47.6940   27.4180   46.0510 O   0  0  0  0  0  0  0  0  0  0  0  0
   48.5000   25.3560   47.9320 Cl  0  0  0  0  0  0  0  0  0  0  0  0
   46.9530   26.1740   47.8490 C   0  0  0  0  0  0  0  0  0  0  0  0
   46.6610   27.1580   46.9010 C   0  0  0  0  0  0  0  0  0  0  0  0
   45.4380   27.7950   46.8480 C   0  0  0  0  0  0  0  0  0  0  0  0
   45.2550   28.5430   46.1070 H   0  0  0  0  0  0  0  0  0  0  0  0
   44.5150   27.4120   47.7750 C   0  0  0  0  0  0  0  0  0  0  0  0
   44.7600   26.4510   48.7210 C   0  0  0  0  0  0  0  0  0  0  0  0
   43.5510   25.9770   49.9080 Cl  0  0  0  0  0  0  0  0  0  0  0  0
   45.9680   25.8220   48.7760 C   0  0  0  0  0  0  0  0  0  0  0  0
   46.1970   25.0500   49.5190 H   0  0  0  0  0  0  0  0  0  0  0  0
  1 10  1  0  0  0  0
  1  6  1  0  0  0  0
  2  1  2  0  0  0  0
  3  2  1  0  0  0  0
  3  4  2  0  0  0  0
  4  5  1  0  0  0  0
  5  7  1  0  0  0  0
  5  6  2  0  0  0  0
  6 12  1  0  0  0  0
  8 13  1  6  0  0  0
  8 37  1  0  0  0  0
  8  7  1  0  0  0  0
  9  4  1  0  0  0  0
  9  8  1  0  0  0  0
 11  3  1  0  0  0  0
 14 15  2  0  0  0  0
 14 19  1  0  0  0  0
 15 16  1  0  0  0  0
 16  2  1  0  0  0  0
 16 17  2  0  0  0  0
 18 17  1  0  0  0  0
 18 21  1  0  0  0  0
 19 18  2  0  0  0  0
 20 14  1  0  0  0  0
 22 23  1  0  0  0  0
 22 15  1  0  0  0  0
 23 28  1  0  0  0  0
 24 30  1  0  0  0  0
 24 23  1  0  0  0  0
 25 24  1  0  0  0  0
 25 32  1  0  0  0  0
 26 25  1  0  0  0  0
 26 27  1  0  0  0  0
 26 34  1  0  0  0  0
 27 22  1  0  0  0  0
 29 23  1  0  0  0  0
 31 24  1  0  0  0  0
 33 26  1  0  0  0  0
 35 27  1  0  0  0  0
 36 27  1  0  0  0  0
 37 40  1  0  0  0  0
 39 38  1  0  0  0  0
 39 46  1  0  0  0  0
 40 39  2  0  0  0  0
 41 40  1  0  0  0  0
 41 43  2  0  0  0  0
 42 41  1  0  0  0  0
 43 44  1  0  0  0  0
 44 46  2  0  0  0  0
 44 45  1  0  0  0  0
 46 47  1  0  0  0  0
M  END
>  <minimizedAffinity>
-5.7860446

>  <minimizedRMSD>
4.57383347

$$$$
