
 OpenBabel03252502203D

 34 36  0  0  1  0  0  0  0  0999 V2000
   46.7560   34.5510   42.3090 N   0  0  0  0  0  0  0  0  0  0  0  0
   48.2160   34.6110   42.3140 C   0  0  0  0  0  0  0  0  0  0  0  0
   48.5700   35.3680   41.0140 C   0  0  0  0  0  0  0  0  0  0  0  0
   48.1770   34.5590   39.8180 C   0  0  0  0  0  0  0  0  0  0  0  0
   46.8930   33.8370   39.9630 C   0  0  0  0  0  0  0  0  0  0  0  0
   46.0430   34.2580   41.1070 C   0  0  1  0  0  0  0  0  0  0  0  0
   48.6010   35.2480   43.1170 H   0  0  0  0  0  0  0  0  0  0  0  0
   48.6020   33.5860   42.3050 H   0  0  0  0  0  0  0  0  0  0  0  0
   47.9620   36.2970   41.0330 H   0  0  0  0  0  0  0  0  0  0  0  0
   49.6320   35.6240   40.9880 H   0  0  0  0  0  0  0  0  0  0  0  0
   49.0550   33.9170   39.5660 H   0  0  0  0  0  0  0  0  0  0  0  0
   48.0890   35.2590   38.9390 H   0  0  0  0  0  0  0  0  0  0  0  0
   47.1370   32.7400   39.9950 H   0  0  0  0  0  0  0  0  0  0  0  0
   46.2380   33.9170   39.0470 H   0  0  0  0  0  0  0  0  0  0  0  0
   45.6230   35.2670   40.7830 H   0  0  0  0  0  0  0  0  0  0  0  0
   43.2280   35.4250   40.6380 Cl  0  0  0  0  0  0  0  0  0  0  0  0
   43.5640   33.7530   41.0450 C   0  0  0  0  0  0  0  0  0  0  0  0
   44.8750   33.3750   41.2420 C   0  0  0  0  0  0  0  0  0  0  0  0
   44.9740   32.0190   41.5780 C   0  0  0  0  0  0  0  0  0  0  0  0
   45.9810   31.6120   41.7580 H   0  0  0  0  0  0  0  0  0  0  0  0
   43.9480   31.1410   41.7060 C   0  0  0  0  0  0  0  0  0  0  0  0
   42.6760   31.6080   41.4900 C   0  0  0  0  0  0  0  0  0  0  0  0
   41.3430   30.4870   41.6520 Cl  0  0  0  0  0  0  0  0  0  0  0  0
   42.4680   32.9240   41.1560 C   0  0  0  0  0  0  0  0  0  0  0  0
   41.4630   33.2810   40.9880 H   0  0  0  0  0  0  0  0  0  0  0  0
   44.4720   36.0200   44.8660 C   0  0  0  0  0  0  0  0  0  0  0  0
   45.1600   35.8850   43.6570 C   0  0  0  0  0  0  0  0  0  0  0  0
   46.0120   34.7860   43.4870 C   0  0  0  0  0  0  0  0  0  0  0  0
   46.0970   33.9290   44.5330 N   0  0  0  0  0  0  0  0  0  0  0  0
   45.4320   34.0640   45.6960 C   0  0  0  0  0  0  0  0  0  0  0  0
   44.6180   35.1180   45.8540 N   0  0  0  0  0  0  0  0  0  0  0  0
   43.8380   36.8710   44.9490 H   0  0  0  0  0  0  0  0  0  0  0  0
   45.0890   36.5670   42.8340 H   0  0  0  0  0  0  0  0  0  0  0  0
   45.5680   33.3180   46.4780 H   0  0  0  0  0  0  0  0  0  0  0  0
  1  2  1  0  0  0  0
  1 28  1  0  0  0  0
  2  7  1  0  0  0  0
  3  9  1  0  0  0  0
  3  2  1  0  0  0  0
  4  5  1  0  0  0  0
  4  3  1  0  0  0  0
  5 13  1  0  0  0  0
  5  6  1  0  0  0  0
  6 15  1  6  0  0  0
  6 18  1  0  0  0  0
  6  1  1  0  0  0  0
  8  2  1  0  0  0  0
 10  3  1  0  0  0  0
 11  4  1  0  0  0  0
 12  4  1  0  0  0  0
 14  5  1  0  0  0  0
 16 17  1  0  0  0  0
 17 24  2  0  0  0  0
 17 18  1  0  0  0  0
 18 19  2  0  0  0  0
 19 21  1  0  0  0  0
 19 20  1  0  0  0  0
 22 23  1  0  0  0  0
 22 21  2  0  0  0  0
 24 22  1  0  0  0  0
 25 24  1  0  0  0  0
 26 32  1  0  0  0  0
 26 31  1  0  0  0  0
 27 26  2  0  0  0  0
 28 27  1  0  0  0  0
 28 29  2  0  0  0  0
 29 30  1  0  0  0  0
 30 31  2  0  0  0  0
 30 34  1  0  0  0  0
 33 27  1  0  0  0  0
M  END
>  <minimizedAffinity>
-5.70877981

>  <minimizedRMSD>
0.960909605

$$$$
