
 OpenBabel03242523133D

 47 51  0  0  1  0  0  0  0  0999 V2000
   38.3860   31.9200   38.2210 C   0  0  0  0  0  0  0  0  0  0  0  0
   38.7590   32.4070   39.4880 C   0  0  0  0  0  0  0  0  0  0  0  0
   37.9920   31.8540   40.4860 C   0  0  0  0  0  0  0  0  0  0  0  0
   36.9880   30.9510   40.3110 C   0  0  0  0  0  0  0  0  0  0  0  0
   36.6790   30.5250   39.0220 C   0  0  0  0  0  0  0  0  0  0  0  0
   37.3900   31.0160   37.9650 C   0  0  0  0  0  0  0  0  0  0  0  0
   35.6290   29.6360   39.1870 O   0  0  0  0  0  0  0  0  0  0  0  0
   35.3320   29.4780   40.5650 C   0  0  2  0  0  0  0  0  0  0  0  0
   36.1920   30.3610   41.2770 O   0  0  0  0  0  0  0  0  0  0  0  0
   38.8100   32.1520   37.2190 H   0  0  0  0  0  0  0  0  0  0  0  0
   38.2560   32.2010   41.4360 H   0  0  0  0  0  0  0  0  0  0  0  0
   37.0680   30.6180   37.0290 H   0  0  0  0  0  0  0  0  0  0  0  0
   34.2830   29.7460   40.7980 H   0  0  0  0  0  0  0  0  0  0  0  0
   41.8130   34.5410   39.0910 C   0  0  0  0  0  0  0  0  0  0  0  0
   41.0560   33.3730   38.9910 C   0  0  0  0  0  0  0  0  0  0  0  0
   39.7700   33.3740   39.4410 C   0  0  0  0  0  0  0  0  0  0  0  0
   39.2910   34.5400   39.9770 N   0  0  0  0  0  0  0  0  0  0  0  0
   40.0250   35.6610   40.0720 C   0  0  0  0  0  0  0  0  0  0  0  0
   41.2600   35.6520   39.6340 N   0  0  0  0  0  0  0  0  0  0  0  0
   42.8340   34.5480   38.7340 H   0  0  0  0  0  0  0  0  0  0  0  0
   39.6990   36.6050   40.4840 H   0  0  0  0  0  0  0  0  0  0  0  0
   41.6790   32.2500   38.4490 N   0  0  0  0  0  0  0  0  0  0  0  0
   41.8270   32.0790   37.0390 C   0  0  0  0  0  0  0  0  0  0  0  0
   42.6720   30.9060   36.6320 C   0  0  0  0  0  0  0  0  0  0  0  0
   43.8020   30.6850   37.4230 N   0  0  0  0  0  0  0  0  0  0  0  0
   43.6410   30.8170   38.7850 C   0  0  0  0  0  0  0  0  0  0  0  0
   42.2220   31.1740   39.1740 C   0  0  0  0  0  0  0  0  0  0  0  0
   42.1950   32.9950   36.5000 H   0  0  0  0  0  0  0  0  0  0  0  0
   40.8070   31.8970   36.6310 H   0  0  0  0  0  0  0  0  0  0  0  0
   42.9700   31.0600   35.5610 H   0  0  0  0  0  0  0  0  0  0  0  0
   42.0320   30.0010   36.6120 H   0  0  0  0  0  0  0  0  0  0  0  0
   44.6090   31.2670   37.0650 H   0  0  0  0  0  0  0  0  0  0  0  0
   43.8530   29.8400   39.3090 H   0  0  0  0  0  0  0  0  0  0  0  0
   44.2940   31.5570   39.3200 H   0  0  0  0  0  0  0  0  0  0  0  0
   41.6250   30.2460   38.9380 H   0  0  0  0  0  0  0  0  0  0  0  0
   42.1330   31.2980   40.2740 H   0  0  0  0  0  0  0  0  0  0  0  0
   35.6520   28.1550   40.8900 O   0  0  0  0  0  0  0  0  0  0  0  0
   37.7680   27.0430   39.2390 Cl  0  0  0  0  0  0  0  0  0  0  0  0
   37.7170   27.1260   40.9880 C   0  0  0  0  0  0  0  0  0  0  0  0
   36.6480   27.6840   41.6940 C   0  0  0  0  0  0  0  0  0  0  0  0
   36.6210   27.7430   43.0720 C   0  0  0  0  0  0  0  0  0  0  0  0
   35.7830   28.1790   43.5740 H   0  0  0  0  0  0  0  0  0  0  0  0
   37.7010   27.2240   43.7220 C   0  0  0  0  0  3  0  0  0  0  0  0
   38.7690   26.6680   43.0680 C   0  0  0  0  0  0  0  0  0  0  0  0
   40.1520   26.0050   43.9310 Cl  0  0  0  0  0  0  0  0  0  0  0  0
   38.7980   26.6090   41.7070 C   0  0  0  0  0  0  0  0  0  0  0  0
   39.6370   26.1710   41.1540 H   0  0  0  0  0  0  0  0  0  0  0  0
  1  2  1  0  0  0  0
  2  3  2  0  0  0  0
  3 11  1  0  0  0  0
  4  3  1  0  0  0  0
  4  9  1  0  0  0  0
  5  7  1  0  0  0  0
  5  4  2  0  0  0  0
  6  1  2  0  0  0  0
  6  5  1  0  0  0  0
  7  8  1  0  0  0  0
  8 13  1  1  0  0  0
  8 37  1  0  0  0  0
  8  9  1  0  0  0  0
 10  1  1  0  0  0  0
 12  6  1  0  0  0  0
 14 19  1  0  0  0  0
 15 14  2  0  0  0  0
 15 16  1  0  0  0  0
 16  2  1  0  0  0  0
 16 17  2  0  0  0  0
 17 18  1  0  0  0  0
 18 21  1  0  0  0  0
 19 18  2  0  0  0  0
 20 14  1  0  0  0  0
 22 15  1  0  0  0  0
 22 27  1  0  0  0  0
 23 22  1  0  0  0  0
 24 23  1  0  0  0  0
 24 25  1  0  0  0  0
 25 26  1  0  0  0  0
 26 27  1  0  0  0  0
 26 33  1  0  0  0  0
 26 34  1  0  0  0  0
 27 36  1  0  0  0  0
 28 23  1  0  0  0  0
 29 23  1  0  0  0  0
 30 24  1  0  0  0  0
 31 24  1  0  0  0  0
 32 25  1  0  0  0  0
 35 27  1  0  0  0  0
 37 40  1  0  0  0  0
 38 39  1  0  0  0  0
 39 40  2  0  0  0  0
 39 46  1  0  0  0  0
 40 41  1  0  0  0  0
 41 42  1  0  0  0  0
 41 43  2  0  0  0  0
 44 43  1  0  0  0  0
 44 45  1  0  0  0  0
 46 44  2  0  0  0  0
 47 46  1  0  0  0  0
M  END
>  <minimizedAffinity>
-6.87303257

$$$$

 OpenBabel03242523133D

 47 51  0  0  1  0  0  0  0  0999 V2000
   39.1490   31.7470   37.6500 C   0  0  0  0  0  0  0  0  0  0  0  0
   40.1910   31.2630   38.4620 C   0  0  0  0  0  0  0  0  0  0  0  0
   39.7210   30.8260   39.6770 C   0  0  0  0  0  0  0  0  0  0  0  0
   38.4210   30.8440   40.0820 C   0  0  0  0  0  0  0  0  0  0  0  0
   37.4510   31.3460   39.2180 C   0  0  0  0  0  0  0  0  0  0  0  0
   37.8220   31.8010   37.9850 C   0  0  0  0  0  0  0  0  0  0  0  0
   36.2610   31.2360   39.9200 O   0  0  0  0  0  0  0  0  0  0  0  0
   36.4910   30.6260   41.1800 C   0  0  2  0  0  0  0  0  0  0  0  0
   37.8950   30.4140   41.2880 O   0  0  0  0  0  0  0  0  0  0  0  0
   39.1870   32.1550   36.6150 H   0  0  0  0  0  0  0  0  0  0  0  0
   40.4800   30.4590   40.2960 H   0  0  0  0  0  0  0  0  0  0  0  0
   36.9970   32.1570   37.4090 H   0  0  0  0  0  0  0  0  0  0  0  0
   36.1690   31.2730   42.0200 H   0  0  0  0  0  0  0  0  0  0  0  0
   43.6580   32.0930   37.3090 C   0  0  0  0  0  0  0  0  0  0  0  0
   42.4990   32.2510   38.0700 C   0  0  0  0  0  0  0  0  0  0  0  0
   41.4590   31.3900   37.8830 C   0  0  0  0  0  0  0  0  0  0  0  0
   41.6150   30.4080   36.9410 N   0  0  0  0  0  0  0  0  0  0  0  0
   42.7330   30.2620   36.2110 C   0  0  0  0  0  0  0  0  0  0  0  0
   43.7290   31.0920   36.3990 N   0  0  0  0  0  0  0  0  0  0  0  0
   44.4880   32.7720   37.4530 H   0  0  0  0  0  0  0  0  0  0  0  0
   42.9090   29.5080   35.4570 H   0  0  0  0  0  0  0  0  0  0  0  0
   42.4660   33.3110   38.9730 N   0  0  0  0  0  0  0  0  0  0  0  0
   41.5040   34.3600   38.8680 C   0  0  0  0  0  0  0  0  0  0  0  0
   41.4960   35.3270   40.0170 C   0  0  0  0  0  0  0  0  0  0  0  0
   41.6770   34.7530   41.2780 N   0  0  0  0  0  0  0  0  0  0  0  0
   42.6340   33.7660   41.3770 C   0  0  0  0  0  0  0  0  0  0  0  0
   43.3360   33.4970   40.0630 C   0  0  0  0  0  0  0  0  0  0  0  0
   40.4520   34.0040   38.6870 H   0  0  0  0  0  0  0  0  0  0  0  0
   41.7670   34.9460   37.9580 H   0  0  0  0  0  0  0  0  0  0  0  0
   40.5250   35.8890   39.9800 H   0  0  0  0  0  0  0  0  0  0  0  0
   42.2680   36.1020   39.8310 H   0  0  0  0  0  0  0  0  0  0  0  0
   40.7460   34.4360   41.6640 H   0  0  0  0  0  0  0  0  0  0  0  0
   43.4530   34.0750   42.0910 H   0  0  0  0  0  0  0  0  0  0  0  0
   42.3110   32.7600   41.7570 H   0  0  0  0  0  0  0  0  0  0  0  0
   43.9500   34.4260   39.8780 H   0  0  0  0  0  0  0  0  0  0  0  0
   44.0810   32.6810   40.1740 H   0  0  0  0  0  0  0  0  0  0  0  0
   35.8350   29.3910   41.1490 O   0  0  0  0  0  0  0  0  0  0  0  0
   36.2490   27.9690   38.6490 Cl  0  0  0  0  0  0  0  0  0  0  0  0
   36.5610   27.3830   40.2700 C   0  0  0  0  0  0  0  0  0  0  0  0
   36.3280   28.1490   41.4160 C   0  0  0  0  0  0  0  0  0  0  0  0
   36.5790   27.6740   42.6870 C   0  0  0  0  0  0  0  0  0  0  0  0
   36.3870   28.2920   43.5370 H   0  0  0  0  0  0  0  0  0  0  0  0
   37.0720   26.4060   42.7730 C   0  0  0  0  0  3  0  0  0  0  0  0
   37.3140   25.6220   41.6760 C   0  0  0  0  0  0  0  0  0  0  0  0
   37.9510   23.9880   41.8150 Cl  0  0  0  0  0  0  0  0  0  0  0  0
   37.0670   26.0890   40.4190 C   0  0  0  0  0  0  0  0  0  0  0  0
   37.2500   25.4890   39.5210 H   0  0  0  0  0  0  0  0  0  0  0  0
  1  6  2  0  0  0  0
  1  2  1  0  0  0  0
  2  3  2  0  0  0  0
  3  4  1  0  0  0  0
  3 11  1  0  0  0  0
  4  9  1  0  0  0  0
  5  7  1  0  0  0  0
  5  4  2  0  0  0  0
  6  5  1  0  0  0  0
  7  8  1  0  0  0  0
  8  9  1  0  0  0  0
  8 13  1  1  0  0  0
 10  1  1  0  0  0  0
 12  6  1  0  0  0  0
 14 20  1  0  0  0  0
 14 15  1  0  0  0  0
 15 22  1  0  0  0  0
 16 15  2  0  0  0  0
 16  2  1  0  0  0  0
 17 16  1  0  0  0  0
 18 19  1  0  0  0  0
 18 17  2  0  0  0  0
 19 14  2  0  0  0  0
 21 18  1  0  0  0  0
 22 27  1  0  0  0  0
 23 22  1  0  0  0  0
 23 24  1  0  0  0  0
 24 25  1  0  0  0  0
 25 26  1  0  0  0  0
 25 32  1  0  0  0  0
 26 34  1  0  0  0  0
 26 33  1  0  0  0  0
 27 36  1  0  0  0  0
 27 26  1  0  0  0  0
 28 23  1  0  0  0  0
 29 23  1  0  0  0  0
 30 24  1  0  0  0  0
 31 24  1  0  0  0  0
 35 27  1  0  0  0  0
 37  8  1  0  0  0  0
 37 40  1  0  0  0  0
 38 39  1  0  0  0  0
 39 46  2  0  0  0  0
 39 40  1  0  0  0  0
 40 41  2  0  0  0  0
 41 43  1  0  0  0  0
 41 42  1  0  0  0  0
 44 45  1  0  0  0  0
 44 43  2  0  0  0  0
 46 44  1  0  0  0  0
 47 46  1  0  0  0  0
M  END
>  <minimizedAffinity>
-6.86657858

$$$$

 OpenBabel03242523133D

 47 51  0  0  1  0  0  0  0  0999 V2000
   37.9640   31.2840   39.9500 C   0  0  0  0  0  0  0  0  0  0  0  0
   38.9980   31.7610   40.7770 C   0  0  0  0  0  0  0  0  0  0  0  0
   39.1410   30.9850   41.9030 C   0  0  0  0  0  0  0  0  0  0  0  0
   38.3960   29.8890   42.2150 C   0  0  0  0  0  0  0  0  0  0  0  0
   37.3870   29.4870   41.3440 C   0  0  0  0  0  0  0  0  0  0  0  0
   37.1710   30.1940   40.1960 C   0  0  0  0  0  0  0  0  0  0  0  0
   36.8240   28.3730   41.9450 O   0  0  0  0  0  0  0  0  0  0  0  0
   37.5140   28.0630   43.1460 C   0  0  2  0  0  0  0  0  0  0  0  0
   38.5010   29.0720   43.3280 O   0  0  0  0  0  0  0  0  0  0  0  0
   37.6030   31.6690   38.9710 H   0  0  0  0  0  0  0  0  0  0  0  0
   39.9070   31.3210   42.5300 H   0  0  0  0  0  0  0  0  0  0  0  0
   36.3780   29.7930   39.6050 H   0  0  0  0  0  0  0  0  0  0  0  0
   36.8410   28.0690   44.0260 H   0  0  0  0  0  0  0  0  0  0  0  0
   40.9750   34.5120   39.1780 C   0  0  0  0  0  0  0  0  0  0  0  0
   40.6230   33.1880   39.4440 C   0  0  0  0  0  0  0  0  0  0  0  0
   39.5970   32.9330   40.3050 C   0  0  0  0  0  0  0  0  0  0  0  0
   38.9660   34.0110   40.8690 N   0  0  0  0  0  0  0  0  0  0  0  0
   39.3110   35.2820   40.6100 C   0  0  0  0  0  0  0  0  0  0  0  0
   40.2960   35.5190   39.7790 N   0  0  0  0  0  0  0  0  0  0  0  0
   41.7870   34.7220   38.4950 H   0  0  0  0  0  0  0  0  0  0  0  0
   38.8490   36.1670   41.0260 H   0  0  0  0  0  0  0  0  0  0  0  0
   41.3690   32.1900   38.8210 N   0  0  0  0  0  0  0  0  0  0  0  0
   41.0890   31.7630   37.4880 C   0  0  0  0  0  0  0  0  0  0  0  0
   42.0930   30.8070   36.9080 C   0  0  0  0  0  0  0  0  0  0  0  0
   43.4260   31.0810   37.2240 N   0  0  0  0  0  0  0  0  0  0  0  0
   43.6900   31.4580   38.5230 C   0  0  0  0  0  0  0  0  0  0  0  0
   42.4480   31.4880   39.3880 C   0  0  0  0  0  0  0  0  0  0  0  0
   40.9280   32.6050   36.7590 H   0  0  0  0  0  0  0  0  0  0  0  0
   40.1150   31.2240   37.5220 H   0  0  0  0  0  0  0  0  0  0  0  0
   41.9490   30.7990   35.7950 H   0  0  0  0  0  0  0  0  0  0  0  0
   41.8250   29.7790   37.2270 H   0  0  0  0  0  0  0  0  0  0  0  0
   43.8240   31.7700   36.5270 H   0  0  0  0  0  0  0  0  0  0  0  0
   44.3780   30.7140   39.0220 H   0  0  0  0  0  0  0  0  0  0  0  0
   44.1960   32.4460   38.6890 H   0  0  0  0  0  0  0  0  0  0  0  0
   42.1550   30.4030   39.4940 H   0  0  0  0  0  0  0  0  0  0  0  0
   42.6930   31.8190   40.4190 H   0  0  0  0  0  0  0  0  0  0  0  0
   38.1410   26.8310   42.9360 O   0  0  0  0  0  0  0  0  0  0  0  0
   40.0200   27.0160   40.7270 Cl  0  0  0  0  0  0  0  0  0  0  0  0
   38.7070   25.8720   40.9130 C   0  0  0  0  0  0  0  0  0  0  0  0
   37.8530   25.8640   42.0190 C   0  0  0  0  0  0  0  0  0  0  0  0
   36.8220   24.9560   42.1530 C   0  0  0  0  0  0  0  0  0  0  0  0
   36.1910   24.9840   43.0150 H   0  0  0  0  0  0  0  0  0  0  0  0
   36.6730   24.0560   41.1400 C   0  0  0  0  0  3  0  0  0  0  0  0
   37.4880   24.0290   40.0380 C   0  0  0  0  0  0  0  0  0  0  0  0
   37.2750   22.8550   38.7450 Cl  0  0  0  0  0  0  0  0  0  0  0  0
   38.5070   24.9250   39.9050 C   0  0  0  0  0  0  0  0  0  0  0  0
   39.1770   24.9310   39.0370 H   0  0  0  0  0  0  0  0  0  0  0  0
  1  6  2  0  0  0  0
  1  2  1  0  0  0  0
  2  3  2  0  0  0  0
  3  4  1  0  0  0  0
  3 11  1  0  0  0  0
  4  9  1  0  0  0  0
  5  7  1  0  0  0  0
  5  4  2  0  0  0  0
  6  5  1  0  0  0  0
  7  8  1  0  0  0  0
  8  9  1  0  0  0  0
  8 13  1  1  0  0  0
 10  1  1  0  0  0  0
 12  6  1  0  0  0  0
 14 15  2  0  0  0  0
 14 19  1  0  0  0  0
 15 16  1  0  0  0  0
 16  2  1  0  0  0  0
 16 17  2  0  0  0  0
 18 17  1  0  0  0  0
 18 21  1  0  0  0  0
 19 18  2  0  0  0  0
 20 14  1  0  0  0  0
 22 27  1  0  0  0  0
 22 15  1  0  0  0  0
 23 29  1  0  0  0  0
 23 22  1  0  0  0  0
 24 25  1  0  0  0  0
 24 31  1  0  0  0  0
 24 23  1  0  0  0  0
 25 26  1  0  0  0  0
 26 34  1  0  0  0  0
 26 33  1  0  0  0  0
 26 27  1  0  0  0  0
 27 35  1  0  0  0  0
 27 36  1  0  0  0  0
 28 23  1  0  0  0  0
 30 24  1  0  0  0  0
 32 25  1  0  0  0  0
 37  8  1  0  0  0  0
 38 39  1  0  0  0  0
 39 40  1  0  0  0  0
 40 41  2  0  0  0  0
 40 37  1  0  0  0  0
 41 42  1  0  0  0  0
 43 41  1  0  0  0  0
 44 43  2  0  0  0  0
 45 44  1  0  0  0  0
 46 44  1  0  0  0  0
 46 39  2  0  0  0  0
 47 46  1  0  0  0  0
M  END
>  <minimizedAffinity>
-6.56278038

$$$$

 OpenBabel03242523133D

 47 51  0  0  1  0  0  0  0  0999 V2000
   37.8590   31.5200   39.4420 C   0  0  0  0  0  0  0  0  0  0  0  0
   38.7450   31.9540   40.4460 C   0  0  0  0  0  0  0  0  0  0  0  0
   38.6540   31.1680   41.5700 C   0  0  0  0  0  0  0  0  0  0  0  0
   37.8240   30.1000   41.7320 C   0  0  0  0  0  0  0  0  0  0  0  0
   36.9740   29.7410   40.6880 C   0  0  0  0  0  0  0  0  0  0  0  0
   36.9960   30.4610   39.5290 C   0  0  0  0  0  0  0  0  0  0  0  0
   36.2720   28.6460   41.1660 O   0  0  0  0  0  0  0  0  0  0  0  0
   36.7220   28.3060   42.4680 C   0  0  2  0  0  0  0  0  0  0  0  0
   37.6970   29.2750   42.8360 O   0  0  0  0  0  0  0  0  0  0  0  0
   37.6960   31.9240   38.4180 H   0  0  0  0  0  0  0  0  0  0  0  0
   39.3060   31.4710   42.3290 H   0  0  0  0  0  0  0  0  0  0  0  0
   36.3070   30.0930   38.8000 H   0  0  0  0  0  0  0  0  0  0  0  0
   35.9020   28.3330   43.2120 H   0  0  0  0  0  0  0  0  0  0  0  0
   41.0560   34.6370   39.2240 C   0  0  0  0  0  0  0  0  0  0  0  0
   40.6000   33.3280   39.3880 C   0  0  0  0  0  0  0  0  0  0  0  0
   39.4620   33.1040   40.1030 C   0  0  0  0  0  0  0  0  0  0  0  0
   38.8250   34.1970   40.6300 N   0  0  0  0  0  0  0  0  0  0  0  0
   39.2680   35.4540   40.4700 C   0  0  0  0  0  0  0  0  0  0  0  0
   40.3620   35.6600   39.7790 N   0  0  0  0  0  0  0  0  0  0  0  0
   41.9580   34.8220   38.6570 H   0  0  0  0  0  0  0  0  0  0  0  0
   38.8070   36.3490   40.8620 H   0  0  0  0  0  0  0  0  0  0  0  0
   41.3640   32.3090   38.8200 N   0  0  0  0  0  0  0  0  0  0  0  0
   41.1800   31.8970   37.4660 C   0  0  0  0  0  0  0  0  0  0  0  0
   42.1980   30.9130   36.9630 C   0  0  0  0  0  0  0  0  0  0  0  0
   43.5090   31.1440   37.3870 N   0  0  0  0  0  0  0  0  0  0  0  0
   43.6780   31.5060   38.7060 C   0  0  0  0  0  0  0  0  0  0  0  0
   42.3720   31.5720   39.4680 C   0  0  0  0  0  0  0  0  0  0  0  0
   41.1050   32.7470   36.7320 H   0  0  0  0  0  0  0  0  0  0  0  0
   40.1910   31.3890   37.4180 H   0  0  0  0  0  0  0  0  0  0  0  0
   42.1450   30.9150   35.8420 H   0  0  0  0  0  0  0  0  0  0  0  0
   41.8730   29.8920   37.2510 H   0  0  0  0  0  0  0  0  0  0  0  0
   43.9830   31.8230   36.7300 H   0  0  0  0  0  0  0  0  0  0  0  0
   44.3000   30.7400   39.2540 H   0  0  0  0  0  0  0  0  0  0  0  0
   44.1990   32.4780   38.9190 H   0  0  0  0  0  0  0  0  0  0  0  0
   42.0370   30.4960   39.5420 H   0  0  0  0  0  0  0  0  0  0  0  0
   42.5420   31.8900   40.5180 H   0  0  0  0  0  0  0  0  0  0  0  0
   37.3310   27.0510   42.3610 O   0  0  0  0  0  0  0  0  0  0  0  0
   38.6440   26.6060   39.8070 Cl  0  0  0  0  0  0  0  0  0  0  0  0
   39.3500   26.4690   41.4040 C   0  0  0  0  0  0  0  0  0  0  0  0
   38.6310   26.7050   42.5790 C   0  0  0  0  0  0  0  0  0  0  0  0
   39.2010   26.5940   43.8310 C   0  0  0  0  0  0  0  0  0  0  0  0
   38.6170   26.7830   44.7050 H   0  0  0  0  0  0  0  0  0  0  0  0
   40.5170   26.2370   43.8670 C   0  0  0  0  0  3  0  0  0  0  0  0
   41.2570   25.9960   42.7400 C   0  0  0  0  0  0  0  0  0  0  0  0
   42.9540   25.5380   42.8150 Cl  0  0  0  0  0  0  0  0  0  0  0  0
   40.6960   26.1060   41.5030 C   0  0  0  0  0  0  0  0  0  0  0  0
   41.2600   25.9210   40.5810 H   0  0  0  0  0  0  0  0  0  0  0  0
  1  6  2  0  0  0  0
  1  2  1  0  0  0  0
  2  3  2  0  0  0  0
  3  4  1  0  0  0  0
  3 11  1  0  0  0  0
  4  9  1  0  0  0  0
  5  7  1  0  0  0  0
  5  4  2  0  0  0  0
  6  5  1  0  0  0  0
  7  8  1  0  0  0  0
  8  9  1  0  0  0  0
  8 13  1  1  0  0  0
 10  1  1  0  0  0  0
 12  6  1  0  0  0  0
 14 15  2  0  0  0  0
 14 19  1  0  0  0  0
 15 16  1  0  0  0  0
 16  2  1  0  0  0  0
 16 17  2  0  0  0  0
 18 17  1  0  0  0  0
 18 21  1  0  0  0  0
 19 18  2  0  0  0  0
 20 14  1  0  0  0  0
 22 15  1  0  0  0  0
 22 27  1  0  0  0  0
 23 22  1  0  0  0  0
 24 31  1  0  0  0  0
 24 25  1  0  0  0  0
 24 23  1  0  0  0  0
 25 26  1  0  0  0  0
 26 34  1  0  0  0  0
 26 33  1  0  0  0  0
 26 27  1  0  0  0  0
 27 35  1  0  0  0  0
 27 36  1  0  0  0  0
 28 23  1  0  0  0  0
 29 23  1  0  0  0  0
 30 24  1  0  0  0  0
 32 25  1  0  0  0  0
 37  8  1  0  0  0  0
 37 40  1  0  0  0  0
 38 39  1  0  0  0  0
 39 46  2  0  0  0  0
 39 40  1  0  0  0  0
 40 41  2  0  0  0  0
 41 43  1  0  0  0  0
 41 42  1  0  0  0  0
 44 45  1  0  0  0  0
 44 43  2  0  0  0  0
 46 44  1  0  0  0  0
 47 46  1  0  0  0  0
M  END
>  <minimizedAffinity>
-6.55558205

$$$$

 OpenBabel03242523133D

 47 51  0  0  1  0  0  0  0  0999 V2000
   38.1460   31.9970   38.4360 C   0  0  0  0  0  0  0  0  0  0  0  0
   38.7140   32.3210   39.6820 C   0  0  0  0  0  0  0  0  0  0  0  0
   38.1280   31.6100   40.7030 C   0  0  0  0  0  0  0  0  0  0  0  0
   37.1210   30.7030   40.5670 C   0  0  0  0  0  0  0  0  0  0  0  0
   36.6110   30.4450   39.2960 C   0  0  0  0  0  0  0  0  0  0  0  0
   37.1330   31.1010   38.2190 C   0  0  0  0  0  0  0  0  0  0  0  0
   35.6140   29.5050   39.5010 O   0  0  0  0  0  0  0  0  0  0  0  0
   35.5490   29.1510   40.8730 C   0  0  2  0  0  0  0  0  0  0  0  0
   36.5010   29.9600   41.5560 O   0  0  0  0  0  0  0  0  0  0  0  0
   38.3970   32.3770   37.4210 H   0  0  0  0  0  0  0  0  0  0  0  0
   38.5380   31.8340   41.6380 H   0  0  0  0  0  0  0  0  0  0  0  0
   36.6690   30.8220   37.2990 H   0  0  0  0  0  0  0  0  0  0  0  0
   34.5480   29.3470   41.3060 H   0  0  0  0  0  0  0  0  0  0  0  0
   41.7030   34.5400   39.2600 C   0  0  0  0  0  0  0  0  0  0  0  0
   40.9930   33.3390   39.2090 C   0  0  0  0  0  0  0  0  0  0  0  0
   39.6900   33.3200   39.6100 C   0  0  0  0  0  0  0  0  0  0  0  0
   39.1500   34.5000   40.0510 N   0  0  0  0  0  0  0  0  0  0  0  0
   39.8390   35.6510   40.0990 C   0  0  0  0  0  0  0  0  0  0  0  0
   41.0890   35.6610   39.7090 N   0  0  0  0  0  0  0  0  0  0  0  0
   42.7370   34.5630   38.9420 H   0  0  0  0  0  0  0  0  0  0  0  0
   39.4630   36.6060   40.4370 H   0  0  0  0  0  0  0  0  0  0  0  0
   41.6770   32.2090   38.7650 N   0  0  0  0  0  0  0  0  0  0  0  0
   42.5060   31.4410   39.6370 C   0  0  0  0  0  0  0  0  0  0  0  0
   43.0280   30.1620   39.0460 C   0  0  0  0  0  0  0  0  0  0  0  0
   42.1190   29.4620   38.2480 N   0  0  0  0  0  0  0  0  0  0  0  0
   41.3490   30.2100   37.3830 C   0  0  0  0  0  0  0  0  0  0  0  0
   41.6560   31.6900   37.4580 C   0  0  0  0  0  0  0  0  0  0  0  0
   42.0390   31.2140   40.6350 H   0  0  0  0  0  0  0  0  0  0  0  0
   43.3930   32.0710   39.8730 H   0  0  0  0  0  0  0  0  0  0  0  0
   43.3800   29.5170   39.8940 H   0  0  0  0  0  0  0  0  0  0  0  0
   43.9500   30.3900   38.4730 H   0  0  0  0  0  0  0  0  0  0  0  0
   41.5270   28.8280   38.8510 H   0  0  0  0  0  0  0  0  0  0  0  0
   41.5560   29.9200   36.3120 H   0  0  0  0  0  0  0  0  0  0  0  0
   40.2330   30.1300   37.4740 H   0  0  0  0  0  0  0  0  0  0  0  0
   42.6920   31.7840   37.0180 H   0  0  0  0  0  0  0  0  0  0  0  0
   41.0020   32.2640   36.7680 H   0  0  0  0  0  0  0  0  0  0  0  0
   35.9350   27.8090   40.9550 O   0  0  0  0  0  0  0  0  0  0  0  0
   36.2440   27.2660   43.7930 Cl  0  0  0  0  0  0  0  0  0  0  0  0
   37.4170   26.9870   42.5230 C   0  0  0  0  0  0  0  0  0  0  0  0
   37.1730   27.2820   41.1800 C   0  0  0  0  0  0  0  0  0  0  0  0
   38.1070   27.0560   40.1900 C   0  0  0  0  0  0  0  0  0  0  0  0
   37.8800   27.2970   39.1730 H   0  0  0  0  0  0  0  0  0  0  0  0
   39.2960   26.5240   40.5900 C   0  0  0  0  0  3  0  0  0  0  0  0
   39.5770   26.2200   41.8960 C   0  0  0  0  0  0  0  0  0  0  0  0
   41.1200   25.5310   42.3860 Cl  0  0  0  0  0  0  0  0  0  0  0  0
   38.6550   26.4420   42.8750 C   0  0  0  0  0  0  0  0  0  0  0  0
   38.8470   26.2090   43.9290 H   0  0  0  0  0  0  0  0  0  0  0  0
  1  2  1  0  0  0  0
  2  3  2  0  0  0  0
  3 11  1  0  0  0  0
  4  3  1  0  0  0  0
  4  9  1  0  0  0  0
  5  7  1  0  0  0  0
  5  4  2  0  0  0  0
  6  1  2  0  0  0  0
  6  5  1  0  0  0  0
  7  8  1  0  0  0  0
  8 37  1  0  0  0  0
  8 13  1  1  0  0  0
  8  9  1  0  0  0  0
 10  1  1  0  0  0  0
 12  6  1  0  0  0  0
 14 19  1  0  0  0  0
 15 14  2  0  0  0  0
 15 16  1  0  0  0  0
 16  2  1  0  0  0  0
 16 17  2  0  0  0  0
 17 18  1  0  0  0  0
 18 21  1  0  0  0  0
 19 18  2  0  0  0  0
 20 14  1  0  0  0  0
 22 15  1  0  0  0  0
 22 23  1  0  0  0  0
 23 29  1  0  0  0  0
 23 28  1  0  0  0  0
 24 23  1  0  0  0  0
 24 30  1  0  0  0  0
 25 32  1  0  0  0  0
 25 24  1  0  0  0  0
 26 27  1  0  0  0  0
 26 34  1  0  0  0  0
 26 25  1  0  0  0  0
 27 22  1  0  0  0  0
 31 24  1  0  0  0  0
 33 26  1  0  0  0  0
 35 27  1  0  0  0  0
 36 27  1  0  0  0  0
 37 40  1  0  0  0  0
 39 46  1  0  0  0  0
 39 38  1  0  0  0  0
 40 39  2  0  0  0  0
 41 43  2  0  0  0  0
 41 40  1  0  0  0  0
 42 41  1  0  0  0  0
 43 44  1  0  0  0  0
 44 45  1  0  0  0  0
 44 46  2  0  0  0  0
 46 47  1  0  0  0  0
M  END
>  <minimizedAffinity>
-6.49287462

$$$$

 OpenBabel03242523133D

 47 51  0  0  1  0  0  0  0  0999 V2000
   37.3580   32.3720   40.1910 C   0  0  0  0  0  0  0  0  0  0  0  0
   38.7350   32.0920   40.2810 C   0  0  0  0  0  0  0  0  0  0  0  0
   38.9600   30.8110   40.7240 C   0  0  0  0  0  0  0  0  0  0  0  0
   38.0020   29.8990   41.0490 C   0  0  0  0  0  0  0  0  0  0  0  0
   36.6610   30.2600   40.9370 C   0  0  0  0  0  0  0  0  0  0  0  0
   36.3380   31.5120   40.5010 C   0  0  0  0  0  0  0  0  0  0  0  0
   35.9590   29.1370   41.3440 O   0  0  0  0  0  0  0  0  0  0  0  0
   36.8570   28.0820   41.6510 C   0  0  2  0  0  0  0  0  0  0  0  0
   38.1740   28.6000   41.4940 O   0  0  0  0  0  0  0  0  0  0  0  0
   36.8430   33.3000   39.8580 H   0  0  0  0  0  0  0  0  0  0  0  0
   39.9780   30.5820   40.7950 H   0  0  0  0  0  0  0  0  0  0  0  0
   35.2840   31.6750   40.4510 H   0  0  0  0  0  0  0  0  0  0  0  0
   36.7420   27.7290   42.6950 H   0  0  0  0  0  0  0  0  0  0  0  0
   41.2870   34.5850   39.1370 C   0  0  0  0  0  0  0  0  0  0  0  0
   40.7260   33.3160   39.2860 C   0  0  0  0  0  0  0  0  0  0  0  0
   39.5500   33.1830   39.9620 C   0  0  0  0  0  0  0  0  0  0  0  0
   38.9820   34.3240   40.4670 N   0  0  0  0  0  0  0  0  0  0  0  0
   39.5270   35.5420   40.3210 C   0  0  0  0  0  0  0  0  0  0  0  0
   40.6560   35.6610   39.6680 N   0  0  0  0  0  0  0  0  0  0  0  0
   42.2200   34.6980   38.6010 H   0  0  0  0  0  0  0  0  0  0  0  0
   39.1240   36.4710   40.6980 H   0  0  0  0  0  0  0  0  0  0  0  0
   41.4270   32.2400   38.7440 N   0  0  0  0  0  0  0  0  0  0  0  0
   42.5000   31.6120   39.4450 C   0  0  0  0  0  0  0  0  0  0  0  0
   43.0300   30.3630   38.8000 C   0  0  0  0  0  0  0  0  0  0  0  0
   42.0610   29.5280   38.2370 N   0  0  0  0  0  0  0  0  0  0  0  0
   41.0490   30.1420   37.5310 C   0  0  0  0  0  0  0  0  0  0  0  0
   41.1940   31.6480   37.4890 C   0  0  0  0  0  0  0  0  0  0  0  0
   42.2790   31.3950   40.5270 H   0  0  0  0  0  0  0  0  0  0  0  0
   43.3400   32.3430   39.4660 H   0  0  0  0  0  0  0  0  0  0  0  0
   43.6210   29.8070   39.5740 H   0  0  0  0  0  0  0  0  0  0  0  0
   43.7810   30.6520   38.0360 H   0  0  0  0  0  0  0  0  0  0  0  0
   41.6830   28.8710   38.9730 H   0  0  0  0  0  0  0  0  0  0  0  0
   41.0600   29.8150   36.4510 H   0  0  0  0  0  0  0  0  0  0  0  0
   39.9920   29.9520   37.8600 H   0  0  0  0  0  0  0  0  0  0  0  0
   42.0990   31.8240   36.8370 H   0  0  0  0  0  0  0  0  0  0  0  0
   40.3500   32.1110   36.9360 H   0  0  0  0  0  0  0  0  0  0  0  0
   36.6340   27.0810   40.7000 O   0  0  0  0  0  0  0  0  0  0  0  0
   36.4950   26.0080   38.0040 Cl  0  0  0  0  0  0  0  0  0  0  0  0
   36.9970   25.1690   39.4570 C   0  0  0  0  0  0  0  0  0  0  0  0
   37.0300   25.7770   40.7150 C   0  0  0  0  0  0  0  0  0  0  0  0
   37.4280   25.1040   41.8520 C   0  0  0  0  0  0  0  0  0  0  0  0
   37.4390   25.6050   42.7960 H   0  0  0  0  0  0  0  0  0  0  0  0
   37.7930   23.8010   41.6880 C   0  0  0  0  0  3  0  0  0  0  0  0
   37.7740   23.1670   40.4730 C   0  0  0  0  0  0  0  0  0  0  0  0
   38.2510   21.4830   40.2880 Cl  0  0  0  0  0  0  0  0  0  0  0  0
   37.3810   23.8300   39.3490 C   0  0  0  0  0  0  0  0  0  0  0  0
   37.3560   23.3540   38.3620 H   0  0  0  0  0  0  0  0  0  0  0  0
  1  2  2  0  0  0  0
  1  6  1  0  0  0  0
  2  3  1  0  0  0  0
  3 11  1  0  0  0  0
  3  4  2  0  0  0  0
  4  9  1  0  0  0  0
  5  4  1  0  0  0  0
  5  7  1  0  0  0  0
  6  5  2  0  0  0  0
  7  8  1  0  0  0  0
  8 13  1  1  0  0  0
  9  8  1  0  0  0  0
 10  1  1  0  0  0  0
 12  6  1  0  0  0  0
 14 15  2  0  0  0  0
 14 19  1  0  0  0  0
 15 16  1  0  0  0  0
 16  2  1  0  0  0  0
 16 17  2  0  0  0  0
 18 17  1  0  0  0  0
 18 21  1  0  0  0  0
 19 18  2  0  0  0  0
 20 14  1  0  0  0  0
 22 15  1  0  0  0  0
 22 23  1  0  0  0  0
 23 29  1  0  0  0  0
 23 28  1  0  0  0  0
 24 23  1  0  0  0  0
 24 30  1  0  0  0  0
 25 24  1  0  0  0  0
 25 32  1  0  0  0  0
 26 34  1  0  0  0  0
 26 25  1  0  0  0  0
 27 26  1  0  0  0  0
 27 22  1  0  0  0  0
 31 24  1  0  0  0  0
 33 26  1  0  0  0  0
 35 27  1  0  0  0  0
 36 27  1  0  0  0  0
 37 40  1  0  0  0  0
 37  8  1  0  0  0  0
 38 39  1  0  0  0  0
 39 40  1  0  0  0  0
 40 41  2  0  0  0  0
 41 42  1  0  0  0  0
 43 41  1  0  0  0  0
 44 43  2  0  0  0  0
 45 44  1  0  0  0  0
 46 39  2  0  0  0  0
 46 44  1  0  0  0  0
 47 46  1  0  0  0  0
M  END
>  <minimizedAffinity>
-6.48000669

$$$$

 OpenBabel03242523133D

 47 51  0  0  1  0  0  0  0  0999 V2000
   39.1910   30.7180   37.5010 C   0  0  0  0  0  0  0  0  0  0  0  0
   40.2880   30.2240   38.2320 C   0  0  0  0  0  0  0  0  0  0  0  0
   39.9530   29.9870   39.5440 C   0  0  0  0  0  0  0  0  0  0  0  0
   38.7290   30.1930   40.1040 C   0  0  0  0  0  0  0  0  0  0  0  0
   37.6980   30.6900   39.3100 C   0  0  0  0  0  0  0  0  0  0  0  0
   37.9340   30.9530   37.9920 C   0  0  0  0  0  0  0  0  0  0  0  0
   36.6130   30.7930   40.1660 O   0  0  0  0  0  0  0  0  0  0  0  0
   36.9590   30.3160   41.4560 C   0  0  2  0  0  0  0  0  0  0  0  0
   38.3390   29.9680   41.4120 O   0  0  0  0  0  0  0  0  0  0  0  0
   39.1210   30.9940   36.4260 H   0  0  0  0  0  0  0  0  0  0  0  0
   40.7540   29.6170   40.1040 H   0  0  0  0  0  0  0  0  0  0  0  0
   37.0730   31.3250   37.4830 H   0  0  0  0  0  0  0  0  0  0  0  0
   36.8170   31.0880   42.2370 H   0  0  0  0  0  0  0  0  0  0  0  0
   43.5880   30.5730   36.4930 C   0  0  0  0  0  0  0  0  0  0  0  0
   42.5460   30.9650   37.3350 C   0  0  0  0  0  0  0  0  0  0  0  0
   41.4680   30.1450   37.4850 C   0  0  0  0  0  0  0  0  0  0  0  0
   41.4710   28.9670   36.7860 N   0  0  0  0  0  0  0  0  0  0  0  0
   42.4760   28.5960   35.9760 C   0  0  0  0  0  0  0  0  0  0  0  0
   43.5100   29.3890   35.8390 N   0  0  0  0  0  0  0  0  0  0  0  0
   44.4470   31.2190   36.3700 H   0  0  0  0  0  0  0  0  0  0  0  0
   42.5300   27.6820   35.4020 H   0  0  0  0  0  0  0  0  0  0  0  0
   42.6630   32.2040   37.9640 N   0  0  0  0  0  0  0  0  0  0  0  0
   43.6520   32.4500   38.9630 C   0  0  0  0  0  0  0  0  0  0  0  0
   43.7540   33.8800   39.4110 C   0  0  0  0  0  0  0  0  0  0  0  0
   43.6220   34.8310   38.3950 N   0  0  0  0  0  0  0  0  0  0  0  0
   42.6400   34.6030   37.4560 C   0  0  0  0  0  0  0  0  0  0  0  0
   41.8600   33.3330   37.7220 C   0  0  0  0  0  0  0  0  0  0  0  0
   44.6810   32.0800   38.6940 H   0  0  0  0  0  0  0  0  0  0  0  0
   43.3590   31.8540   39.8570 H   0  0  0  0  0  0  0  0  0  0  0  0
   44.7400   34.0020   39.9330 H   0  0  0  0  0  0  0  0  0  0  0  0
   42.9990   34.0550   40.2040 H   0  0  0  0  0  0  0  0  0  0  0  0
   44.5620   35.0070   37.9450 H   0  0  0  0  0  0  0  0  0  0  0  0
   41.8720   35.4300   37.4730 H   0  0  0  0  0  0  0  0  0  0  0  0
   42.9500   34.5440   36.3780 H   0  0  0  0  0  0  0  0  0  0  0  0
   41.2680   33.5590   38.6560 H   0  0  0  0  0  0  0  0  0  0  0  0
   41.0950   33.1670   36.9340 H   0  0  0  0  0  0  0  0  0  0  0  0
   36.1950   29.1640   41.6710 O   0  0  0  0  0  0  0  0  0  0  0  0
   36.9030   27.8870   44.1830 Cl  0  0  0  0  0  0  0  0  0  0  0  0
   36.8780   27.1580   42.5900 C   0  0  0  0  0  0  0  0  0  0  0  0
   36.5210   27.8600   41.4360 C   0  0  0  0  0  0  0  0  0  0  0  0
   36.5040   27.2740   40.1870 C   0  0  0  0  0  0  0  0  0  0  0  0
   36.2250   27.8460   39.3290 H   0  0  0  0  0  0  0  0  0  0  0  0
   36.8590   25.9580   40.1320 C   0  0  0  0  0  3  0  0  0  0  0  0
   37.2160   25.2330   41.2390 C   0  0  0  0  0  0  0  0  0  0  0  0
   37.6680   23.5360   41.1390 Cl  0  0  0  0  0  0  0  0  0  0  0  0
   37.2320   25.8120   42.4730 C   0  0  0  0  0  0  0  0  0  0  0  0
   37.5120   25.2600   43.3780 H   0  0  0  0  0  0  0  0  0  0  0  0
  1  6  2  0  0  0  0
  1  2  1  0  0  0  0
  2  3  2  0  0  0  0
  3 11  1  0  0  0  0
  3  4  1  0  0  0  0
  4  9  1  0  0  0  0
  5  4  2  0  0  0  0
  5  7  1  0  0  0  0
  6  5  1  0  0  0  0
  7  8  1  0  0  0  0
  8 37  1  0  0  0  0
  8 13  1  1  0  0  0
  9  8  1  0  0  0  0
 10  1  1  0  0  0  0
 12  6  1  0  0  0  0
 14 15  1  0  0  0  0
 15 16  2  0  0  0  0
 15 22  1  0  0  0  0
 16  2  1  0  0  0  0
 17 16  1  0  0  0  0
 18 17  2  0  0  0  0
 19 18  1  0  0  0  0
 19 14  2  0  0  0  0
 20 14  1  0  0  0  0
 21 18  1  0  0  0  0
 22 23  1  0  0  0  0
 23 24  1  0  0  0  0
 23 29  1  0  0  0  0
 24 30  1  0  0  0  0
 24 31  1  0  0  0  0
 25 24  1  0  0  0  0
 26 33  1  0  0  0  0
 26 27  1  0  0  0  0
 26 25  1  0  0  0  0
 27 22  1  0  0  0  0
 27 35  1  0  0  0  0
 28 23  1  0  0  0  0
 32 25  1  0  0  0  0
 34 26  1  0  0  0  0
 36 27  1  0  0  0  0
 39 38  1  0  0  0  0
 40 37  1  0  0  0  0
 40 39  2  0  0  0  0
 41 40  1  0  0  0  0
 42 41  1  0  0  0  0
 43 41  2  0  0  0  0
 43 44  1  0  0  0  0
 44 46  2  0  0  0  0
 45 44  1  0  0  0  0
 46 39  1  0  0  0  0
 46 47  1  0  0  0  0
M  END
>  <minimizedAffinity>
-6.45545435

$$$$

 OpenBabel03242523133D

 47 51  0  0  1  0  0  0  0  0999 V2000
   37.6880   31.8520   38.8670 C   0  0  0  0  0  0  0  0  0  0  0  0
   38.7390   31.9130   39.8010 C   0  0  0  0  0  0  0  0  0  0  0  0
   38.7530   30.8060   40.6160 C   0  0  0  0  0  0  0  0  0  0  0  0
   37.8780   29.7640   40.5600 C   0  0  0  0  0  0  0  0  0  0  0  0
   36.8620   29.7850   39.6080 C   0  0  0  0  0  0  0  0  0  0  0  0
   36.7700   30.8430   38.7500 C   0  0  0  0  0  0  0  0  0  0  0  0
   36.1560   28.6110   39.8190 O   0  0  0  0  0  0  0  0  0  0  0  0
   36.7630   27.8540   40.8540 C   0  0  2  0  0  0  0  0  0  0  0  0
   37.8510   28.6280   41.3500 O   0  0  0  0  0  0  0  0  0  0  0  0
   37.4090   32.5710   38.0650 H   0  0  0  0  0  0  0  0  0  0  0  0
   39.5290   30.8310   41.3170 H   0  0  0  0  0  0  0  0  0  0  0  0
   35.9580   30.7490   38.0630 H   0  0  0  0  0  0  0  0  0  0  0  0
   36.0630   27.6570   41.6900 H   0  0  0  0  0  0  0  0  0  0  0  0
   41.1580   34.7290   39.3020 C   0  0  0  0  0  0  0  0  0  0  0  0
   40.6980   33.4160   39.2030 C   0  0  0  0  0  0  0  0  0  0  0  0
   39.4830   33.0960   39.7310 C   0  0  0  0  0  0  0  0  0  0  0  0
   38.7770   34.1000   40.3420 N   0  0  0  0  0  0  0  0  0  0  0  0
   39.2270   35.3610   40.4350 C   0  0  0  0  0  0  0  0  0  0  0  0
   40.3950   35.6610   39.9220 N   0  0  0  0  0  0  0  0  0  0  0  0
   42.1220   34.9910   38.8840 H   0  0  0  0  0  0  0  0  0  0  0  0
   38.7140   36.1890   40.9040 H   0  0  0  0  0  0  0  0  0  0  0  0
   41.5330   32.4900   38.5800 N   0  0  0  0  0  0  0  0  0  0  0  0
   41.2800   32.0210   37.2560 C   0  0  0  0  0  0  0  0  0  0  0  0
   42.3670   31.1650   36.6720 C   0  0  0  0  0  0  0  0  0  0  0  0
   43.6700   31.5760   36.9650 N   0  0  0  0  0  0  0  0  0  0  0  0
   43.9120   31.9930   38.2560 C   0  0  0  0  0  0  0  0  0  0  0  0
   42.6850   31.9080   39.1380 C   0  0  0  0  0  0  0  0  0  0  0  0
   41.0250   32.8340   36.5200 H   0  0  0  0  0  0  0  0  0  0  0  0
   40.3660   31.3880   37.3100 H   0  0  0  0  0  0  0  0  0  0  0  0
   42.2100   31.1300   35.5610 H   0  0  0  0  0  0  0  0  0  0  0  0
   42.2080   30.1190   37.0050 H   0  0  0  0  0  0  0  0  0  0  0  0
   43.9870   32.2930   36.2560 H   0  0  0  0  0  0  0  0  0  0  0  0
   44.6780   31.3290   38.7530 H   0  0  0  0  0  0  0  0  0  0  0  0
   44.3170   33.0290   38.4040 H   0  0  0  0  0  0  0  0  0  0  0  0
   42.5040   30.8010   39.2600 H   0  0  0  0  0  0  0  0  0  0  0  0
   42.9090   32.2740   40.1630 H   0  0  0  0  0  0  0  0  0  0  0  0
   37.2550   26.6890   40.2570 O   0  0  0  0  0  0  0  0  0  0  0  0
   37.1230   24.4890   42.1500 Cl  0  0  0  0  0  0  0  0  0  0  0  0
   36.4500   24.5430   40.5340 C   0  0  0  0  0  0  0  0  0  0  0  0
   36.5670   25.6540   39.6950 C   0  0  0  0  0  0  0  0  0  0  0  0
   36.0310   25.6830   38.4240 C   0  0  0  0  0  0  0  0  0  0  0  0
   36.1430   26.5540   37.8140 H   0  0  0  0  0  0  0  0  0  0  0  0
   35.3730   24.5600   38.0190 C   0  0  0  0  0  3  0  0  0  0  0  0
   35.2360   23.4480   38.8090 C   0  0  0  0  0  0  0  0  0  0  0  0
   34.3800   22.0120   38.2620 Cl  0  0  0  0  0  0  0  0  0  0  0  0
   35.7640   23.4190   40.0650 C   0  0  0  0  0  0  0  0  0  0  0  0
   35.6720   22.5470   40.7230 H   0  0  0  0  0  0  0  0  0  0  0  0
  1  2  1  0  0  0  0
  2  3  2  0  0  0  0
  3 11  1  0  0  0  0
  4  3  1  0  0  0  0
  4  9  1  0  0  0  0
  5  7  1  0  0  0  0
  5  4  2  0  0  0  0
  6  1  2  0  0  0  0
  6  5  1  0  0  0  0
  7  8  1  0  0  0  0
  8  9  1  0  0  0  0
  8 13  1  1  0  0  0
 10  1  1  0  0  0  0
 12  6  1  0  0  0  0
 14 19  1  0  0  0  0
 15 14  2  0  0  0  0
 15 16  1  0  0  0  0
 16  2  1  0  0  0  0
 16 17  2  0  0  0  0
 17 18  1  0  0  0  0
 18 21  1  0  0  0  0
 19 18  2  0  0  0  0
 20 14  1  0  0  0  0
 22 27  1  0  0  0  0
 22 15  1  0  0  0  0
 23 29  1  0  0  0  0
 23 22  1  0  0  0  0
 24 25  1  0  0  0  0
 24 31  1  0  0  0  0
 24 23  1  0  0  0  0
 25 26  1  0  0  0  0
 26 34  1  0  0  0  0
 26 33  1  0  0  0  0
 26 27  1  0  0  0  0
 27 35  1  0  0  0  0
 27 36  1  0  0  0  0
 28 23  1  0  0  0  0
 30 24  1  0  0  0  0
 32 25  1  0  0  0  0
 37  8  1  0  0  0  0
 39 38  1  0  0  0  0
 40 37  1  0  0  0  0
 40 39  2  0  0  0  0
 41 40  1  0  0  0  0
 42 41  1  0  0  0  0
 43 41  2  0  0  0  0
 43 44  1  0  0  0  0
 44 46  2  0  0  0  0
 45 44  1  0  0  0  0
 46 39  1  0  0  0  0
 46 47  1  0  0  0  0
M  END
>  <minimizedAffinity>
-6.40175772

$$$$

 OpenBabel03242523133D

 47 51  0  0  1  0  0  0  0  0999 V2000
   39.8510   30.4420   42.2680 C   0  0  0  0  0  0  0  0  0  0  0  0
   41.2520   30.3110   42.2220 C   0  0  0  0  0  0  0  0  0  0  0  0
   41.6550   29.0640   42.6390 C   0  0  0  0  0  0  0  0  0  0  0  0
   40.8350   28.0580   43.0520 C   0  0  0  0  0  0  0  0  0  0  0  0
   39.4590   28.2730   43.0720 C   0  0  0  0  0  0  0  0  0  0  0  0
   38.9630   29.4810   42.6730 C   0  0  0  0  0  0  0  0  0  0  0  0
   38.9240   27.0850   43.5420 O   0  0  0  0  0  0  0  0  0  0  0  0
   39.9550   26.1340   43.7580 C   0  0  2  0  0  0  0  0  0  0  0  0
   41.1870   26.7880   43.4750 O   0  0  0  0  0  0  0  0  0  0  0  0
   39.2100   31.3070   41.9890 H   0  0  0  0  0  0  0  0  0  0  0  0
   42.6930   28.9450   42.6100 H   0  0  0  0  0  0  0  0  0  0  0  0
   37.8980   29.5290   42.7260 H   0  0  0  0  0  0  0  0  0  0  0  0
   39.9800   25.7790   44.8070 H   0  0  0  0  0  0  0  0  0  0  0  0
   42.6920   33.3790   40.6270 C   0  0  0  0  0  0  0  0  0  0  0  0
   41.8950   32.2360   40.6950 C   0  0  0  0  0  0  0  0  0  0  0  0
   41.9110   31.4800   41.8290 C   0  0  0  0  0  0  0  0  0  0  0  0
   42.7260   31.8940   42.8500 N   0  0  0  0  0  0  0  0  0  0  0  0
   43.4920   32.9950   42.7780 C   0  0  0  0  0  0  0  0  0  0  0  0
   43.4680   33.7170   41.6850 N   0  0  0  0  0  0  0  0  0  0  0  0
   42.6830   33.9850   39.7300 H   0  0  0  0  0  0  0  0  0  0  0  0
   44.1510   33.3660   43.5500 H   0  0  0  0  0  0  0  0  0  0  0  0
   41.1350   31.9180   39.5700 N   0  0  0  0  0  0  0  0  0  0  0  0
   39.8270   32.4530   39.3710 C   0  0  0  0  0  0  0  0  0  0  0  0
   39.2190   32.1500   38.0300 C   0  0  0  0  0  0  0  0  0  0  0  0
   40.1040   32.2080   36.9500 N   0  0  0  0  0  0  0  0  0  0  0  0
   41.3520   31.6560   37.1420 C   0  0  0  0  0  0  0  0  0  0  0  0
   41.5240   31.0630   38.5240 C   0  0  0  0  0  0  0  0  0  0  0  0
   39.7470   33.5590   39.5620 H   0  0  0  0  0  0  0  0  0  0  0  0
   39.1690   31.9820   40.1350 H   0  0  0  0  0  0  0  0  0  0  0  0
   38.3680   32.8640   37.8760 H   0  0  0  0  0  0  0  0  0  0  0  0
   38.7360   31.1530   38.0810 H   0  0  0  0  0  0  0  0  0  0  0  0
   40.1640   33.1990   36.5900 H   0  0  0  0  0  0  0  0  0  0  0  0
   41.5220   30.7970   36.4290 H   0  0  0  0  0  0  0  0  0  0  0  0
   42.2460   32.3170   36.9850 H   0  0  0  0  0  0  0  0  0  0  0  0
   40.8460   30.1600   38.5270 H   0  0  0  0  0  0  0  0  0  0  0  0
   42.5480   30.6500   38.6520 H   0  0  0  0  0  0  0  0  0  0  0  0
   39.7480   25.1080   42.8310 O   0  0  0  0  0  0  0  0  0  0  0  0
   40.6020   25.9970   40.1990 Cl  0  0  0  0  0  0  0  0  0  0  0  0
   39.0390   25.3440   40.6460 C   0  0  0  0  0  0  0  0  0  0  0  0
   38.7240   24.9420   41.9460 C   0  0  0  0  0  0  0  0  0  0  0  0
   37.4880   24.4280   42.2830 C   0  0  0  0  0  0  0  0  0  0  0  0
   37.2880   24.1320   43.2900 H   0  0  0  0  0  0  0  0  0  0  0  0
   36.5770   24.3300   41.2740 C   0  0  0  0  0  3  0  0  0  0  0  0
   36.8450   24.7130   39.9860 C   0  0  0  0  0  0  0  0  0  0  0  0
   35.6510   24.5750   38.7010 Cl  0  0  0  0  0  0  0  0  0  0  0  0
   38.0650   25.2200   39.6510 C   0  0  0  0  0  0  0  0  0  0  0  0
   38.3130   25.5350   38.6310 H   0  0  0  0  0  0  0  0  0  0  0  0
  1  6  1  0  0  0  0
  2  1  2  0  0  0  0
  2  3  1  0  0  0  0
  3  4  2  0  0  0  0
  4  5  1  0  0  0  0
  4  9  1  0  0  0  0
  5  7  1  0  0  0  0
  6 12  1  0  0  0  0
  6  5  2  0  0  0  0
  7  8  1  0  0  0  0
  8 13  1  1  0  0  0
  9  8  1  0  0  0  0
 10  1  1  0  0  0  0
 11  3  1  0  0  0  0
 14 15  2  0  0  0  0
 14 19  1  0  0  0  0
 15 16  1  0  0  0  0
 16  2  1  0  0  0  0
 16 17  2  0  0  0  0
 18 17  1  0  0  0  0
 18 21  1  0  0  0  0
 19 18  2  0  0  0  0
 20 14  1  0  0  0  0
 22 15  1  0  0  0  0
 23 28  1  0  0  0  0
 23 22  1  0  0  0  0
 23 29  1  0  0  0  0
 24 31  1  0  0  0  0
 24 23  1  0  0  0  0
 25 26  1  0  0  0  0
 25 24  1  0  0  0  0
 26 27  1  0  0  0  0
 27 35  1  0  0  0  0
 27 36  1  0  0  0  0
 27 22  1  0  0  0  0
 30 24  1  0  0  0  0
 32 25  1  0  0  0  0
 33 26  1  0  0  0  0
 34 26  1  0  0  0  0
 37  8  1  0  0  0  0
 38 39  1  0  0  0  0
 39 40  1  0  0  0  0
 40 41  2  0  0  0  0
 40 37  1  0  0  0  0
 41 42  1  0  0  0  0
 43 41  1  0  0  0  0
 44 43  2  0  0  0  0
 45 44  1  0  0  0  0
 46 44  1  0  0  0  0
 46 39  2  0  0  0  0
 47 46  1  0  0  0  0
M  END
>  <minimizedAffinity>
-6.3757515

$$$$
