
 OpenBabel03252500513D

 36 38  0  0  0  0  0  0  0  0999 V2000
   45.0740   34.8960   42.1420 C   0  0  0  0  0  0  0  0  0  0  0  0
   45.8950   34.7550   41.2140 O   0  0  0  0  0  0  0  0  0  0  0  0
   44.9930   34.8770   44.5930 C   0  0  0  0  0  0  0  0  0  0  0  0
   45.3550   34.2560   43.4230 C   0  0  0  0  0  0  0  0  0  0  0  0
   45.9940   33.0040   43.4400 C   0  0  0  0  0  0  0  0  0  0  0  0
   46.2420   32.4260   44.6600 N   0  0  0  0  0  0  0  0  0  0  0  0
   45.8780   33.0540   45.7920 C   0  0  0  0  0  0  0  0  0  0  0  0
   45.2630   34.2590   45.7540 N   0  0  0  0  0  0  0  0  0  0  0  0
   44.5080   35.8250   44.5950 H   0  0  0  0  0  0  0  0  0  0  0  0
   46.2810   32.5130   42.5210 H   0  0  0  0  0  0  0  0  0  0  0  0
   46.1430   32.4350   47.0800 C   0  0  0  0  0  0  0  0  0  0  0  0
   47.3890   32.1230   47.5090 C   0  0  0  0  0  0  0  0  0  0  0  0
   47.6600   31.5420   48.7120 C   0  0  0  0  0  0  0  0  0  0  0  0
   46.5890   31.2730   49.5080 N   0  0  0  0  0  0  0  0  0  0  0  0
   45.3650   31.5770   49.0930 C   0  0  0  0  0  0  0  0  0  0  0  0
   45.0850   32.1490   47.9090 N   0  0  0  0  0  0  0  0  0  0  0  0
   48.1860   32.3740   46.8050 H   0  0  0  0  0  0  0  0  0  0  0  0
   48.6890   31.3220   48.9840 H   0  0  0  0  0  0  0  0  0  0  0  0
   44.4700   31.3860   49.6860 H   0  0  0  0  0  0  0  0  0  0  0  0
   44.0370   35.6700   41.6990 O   0  0  0  0  0  0  0  0  0  0  0  0
   43.1870   35.2890   40.6840 C   0  0  0  0  0  0  0  0  0  0  0  0
   43.2880   34.2980   40.2490 H   0  0  0  0  0  0  0  0  0  0  0  0
   43.4400   35.9820   39.8210 H   0  0  0  0  0  0  0  0  0  0  0  0
   41.7270   35.6220   40.9630 C   0  0  0  0  0  0  0  0  0  0  0  0
   41.4900   35.1600   41.9460 H   0  0  0  0  0  0  0  0  0  0  0  0
   41.6120   36.7250   41.1070 H   0  0  0  0  0  0  0  0  0  0  0  0
   39.7390   33.7320   42.0390 Cl  0  0  0  0  0  0  0  0  0  0  0  0
   39.8590   34.2160   40.3660 C   0  0  0  0  0  0  0  0  0  0  0  0
   40.8220   35.1130   39.9200 C   0  0  0  0  0  0  0  0  0  0  0  0
   40.8590   35.4530   38.5800 C   0  0  0  0  0  0  0  0  0  0  0  0
   41.6060   36.1410   38.2720 H   0  0  0  0  0  0  0  0  0  0  0  0
   39.9370   34.8850   37.7370 C   0  0  0  0  0  3  0  0  0  0  0  0
   38.9480   33.9780   38.1260 C   0  0  0  0  0  0  0  0  0  0  0  0
   37.8060   33.2950   36.9920 Cl  0  0  0  0  0  0  0  0  0  0  0  0
   38.9490   33.6680   39.4770 C   0  0  0  0  0  0  0  0  0  0  0  0
   38.1920   32.9600   39.8420 H   0  0  0  0  0  0  0  0  0  0  0  0
  1  4  1  0  0  0  0
  2  1  2  0  0  0  0
  3  9  1  0  0  0  0
  3  8  1  0  0  0  0
  4  5  1  0  0  0  0
  4  3  2  0  0  0  0
  5  6  2  0  0  0  0
  6  7  1  0  0  0  0
  7 11  1  0  0  0  0
  8  7  2  0  0  0  0
 10  5  1  0  0  0  0
 11 12  2  0  0  0  0
 11 16  1  0  0  0  0
 12 13  1  0  0  0  0
 13 18  1  0  0  0  0
 13 14  2  0  0  0  0
 15 14  1  0  0  0  0
 15 19  1  0  0  0  0
 16 15  2  0  0  0  0
 17 12  1  0  0  0  0
 20  1  1  0  0  0  0
 21 24  1  0  0  0  0
 21 20  1  0  0  0  0
 22 21  1  0  0  0  0
 23 21  1  0  0  0  0
 24 26  1  0  0  0  0
 24 25  1  0  0  0  0
 28 27  1  0  0  0  0
 29 28  1  0  0  0  0
 29 24  1  0  0  0  0
 30 29  2  0  0  0  0
 31 30  1  0  0  0  0
 32 33  2  0  0  0  0
 32 30  1  0  0  0  0
 33 35  1  0  0  0  0
 34 33  1  0  0  0  0
 35 36  1  0  0  0  0
 35 28  2  0  0  0  0
M  END
>  <minimizedAffinity>
-6.59512854

>  <minimizedRMSD>
0.98551923

$$$$
