
 OpenBabel03242515413D

 37 40  0  0  0  0  0  0  0  0999 V2000
   33.5470   28.9780   36.3660 C   0  0  0  0  0  0  0  0  0  0  0  0
   33.9850   28.9300   37.6780 C   0  0  0  0  0  0  0  0  0  0  0  0
   35.3380   29.1710   37.9150 C   0  0  0  0  0  0  0  0  0  0  0  0
   36.1370   29.4360   36.8440 N   0  0  0  0  0  0  0  0  0  0  0  0
   35.6830   29.4740   35.5920 C   0  0  0  0  0  0  0  0  0  0  0  0
   34.4000   29.2450   35.3830 N   0  0  0  0  0  0  0  0  0  0  0  0
   33.2990   28.7150   38.4730 H   0  0  0  0  0  0  0  0  0  0  0  0
   36.1680   26.4830   38.8330 Cl  0  0  0  0  0  0  0  0  0  0  0  0
   36.3160   27.9590   39.7870 C   0  0  0  0  0  0  0  0  0  0  0  0
   35.8920   29.1440   39.2410 C   0  0  0  0  0  0  0  0  0  0  0  0
   36.0470   30.2390   40.0620 C   0  0  0  0  0  0  0  0  0  0  0  0
   35.7360   31.2070   39.7010 H   0  0  0  0  0  0  0  0  0  0  0  0
   36.5940   30.1520   41.3470 C   0  0  0  0  0  3  0  0  0  0  0  0
   37.0000   28.9120   41.8250 C   0  0  0  0  0  0  0  0  0  0  0  0
   37.6740   28.8630   43.4350 Cl  0  0  0  0  0  0  0  0  0  0  0  0
   36.8590   27.7880   41.0300 C   0  0  0  0  0  0  0  0  0  0  0  0
   37.1790   26.8260   41.4150 H   0  0  0  0  0  0  0  0  0  0  0  0
   31.7860   28.6600   36.0980 S   0  0  0  0  0  0  0  0  0  0  0  0
   30.9620   31.1690   35.5400 C   0  0  0  0  0  0  0  0  0  0  0  0
   31.0990   29.8890   34.9950 C   0  0  0  0  0  0  0  0  0  0  0  0
   30.7200   29.6280   33.6910 C   0  0  0  0  0  0  0  0  0  0  0  0
   30.1920   30.6130   32.8760 C   0  0  0  0  0  0  0  0  0  0  0  0
   30.0550   31.9030   33.4300 C   0  0  0  0  0  0  0  0  0  0  0  0
   30.4330   32.1770   34.7390 C   0  0  0  0  0  0  0  0  0  0  0  0
   29.5010   32.7200   32.4130 O   0  0  0  0  0  0  0  0  0  0  0  0
   28.9810   31.8370   31.4510 C   0  0  0  0  0  0  0  0  0  0  0  0
   29.7380   30.6410   31.5680 O   0  0  0  0  0  0  0  0  0  0  0  0
   31.2430   31.4130   36.5470 H   0  0  0  0  0  0  0  0  0  0  0  0
   30.8500   28.6200   33.3260 H   0  0  0  0  0  0  0  0  0  0  0  0
   30.3290   33.1530   35.1610 H   0  0  0  0  0  0  0  0  0  0  0  0
   28.9700   32.2420   30.4320 H   0  0  0  0  0  0  0  0  0  0  0  0
   27.9450   31.5680   31.7890 H   0  0  0  0  0  0  0  0  0  0  0  0
   36.4670   29.7380   34.5000 O   0  0  0  0  0  0  0  0  0  0  0  0
   36.3770   30.9730   33.8550 C   0  0  0  0  0  0  0  0  0  0  0  0
   35.0900   31.3080   33.5290 F   0  0  0  0  0  0  0  0  0  0  0  0
   36.9740   31.8940   34.7300 F   0  0  0  0  0  0  0  0  0  0  0  0
   37.0980   30.8780   32.6750 F   0  0  0  0  0  0  0  0  0  0  0  0
  1  2  1  0  0  0  0
  2  3  2  0  0  0  0
  2  7  1  0  0  0  0
  3 10  1  0  0  0  0
  4  3  1  0  0  0  0
  5  4  2  0  0  0  0
  6  5  1  0  0  0  0
  6  1  2  0  0  0  0
  8  9  1  0  0  0  0
  9 16  1  0  0  0  0
 10  9  2  0  0  0  0
 10 11  1  0  0  0  0
 11 13  2  0  0  0  0
 12 11  1  0  0  0  0
 13 14  1  0  0  0  0
 14 15  1  0  0  0  0
 16 17  1  0  0  0  0
 16 14  2  0  0  0  0
 18  1  1  0  0  0  0
 19 28  1  0  0  0  0
 20 19  1  0  0  0  0
 20 18  1  0  0  0  0
 21 20  2  0  0  0  0
 22 23  2  0  0  0  0
 22 21  1  0  0  0  0
 23 24  1  0  0  0  0
 24 30  1  0  0  0  0
 24 19  2  0  0  0  0
 25 23  1  0  0  0  0
 26 27  1  0  0  0  0
 26 32  1  0  0  0  0
 26 25  1  0  0  0  0
 27 22  1  0  0  0  0
 29 21  1  0  0  0  0
 31 26  1  0  0  0  0
 33  5  1  0  0  0  0
 34 33  1  0  0  0  0
 34 36  1  0  0  0  0
 35 34  1  0  0  0  0
 37 34  1  0  0  0  0
M  END
>  <minimizedAffinity>
-6.4710207

$$$$

 OpenBabel03242515413D

 37 40  0  0  0  0  0  0  0  0999 V2000
   36.5720   28.9540   41.6840 C   0  0  0  0  0  0  0  0  0  0  0  0
   35.8940   28.5090   40.5620 C   0  0  0  0  0  0  0  0  0  0  0  0
   35.7930   29.3840   39.4820 C   0  0  0  0  0  0  0  0  0  0  0  0
   36.3660   30.6150   39.6000 N   0  0  0  0  0  0  0  0  0  0  0  0
   37.0120   31.0120   40.6940 C   0  0  0  0  0  0  0  0  0  0  0  0
   37.1000   30.1730   41.7100 N   0  0  0  0  0  0  0  0  0  0  0  0
   35.4670   27.5260   40.5400 H   0  0  0  0  0  0  0  0  0  0  0  0
   37.5830   28.8430   37.1890 Cl  0  0  0  0  0  0  0  0  0  0  0  0
   35.8240   28.7400   37.1330 C   0  0  0  0  0  0  0  0  0  0  0  0
   35.1090   29.0180   38.2720 C   0  0  0  0  0  0  0  0  0  0  0  0
   33.7430   28.9120   38.1290 C   0  0  0  0  0  0  0  0  0  0  0  0
   33.1140   29.1150   38.9820 H   0  0  0  0  0  0  0  0  0  0  0  0
   33.1330   28.5500   36.9230 C   0  0  0  0  0  3  0  0  0  0  0  0
   33.9300   28.2840   35.8160 C   0  0  0  0  0  0  0  0  0  0  0  0
   33.1140   27.8380   34.3380 Cl  0  0  0  0  0  0  0  0  0  0  0  0
   35.3070   28.3810   35.9200 C   0  0  0  0  0  0  0  0  0  0  0  0
   35.9170   28.1730   35.0480 H   0  0  0  0  0  0  0  0  0  0  0  0
   36.6830   27.7920   43.0670 S   0  0  0  0  0  0  0  0  0  0  0  0
   38.1330   25.5870   42.5050 C   0  0  0  0  0  0  0  0  0  0  0  0
   38.2260   26.8930   42.9950 C   0  0  0  0  0  0  0  0  0  0  0  0
   39.4440   27.4190   43.3860 C   0  0  0  0  0  0  0  0  0  0  0  0
   40.6120   26.6810   43.3130 C   0  0  0  0  0  0  0  0  0  0  0  0
   40.5130   25.3640   42.8180 C   0  0  0  0  0  0  0  0  0  0  0  0
   39.2950   24.8250   42.4210 C   0  0  0  0  0  0  0  0  0  0  0  0
   41.8240   24.8280   42.8390 O   0  0  0  0  0  0  0  0  0  0  0  0
   42.5710   25.6710   43.6800 C   0  0  0  0  0  0  0  0  0  0  0  0
   41.9360   26.9400   43.6240 O   0  0  0  0  0  0  0  0  0  0  0  0
   37.2070   25.1400   42.1910 H   0  0  0  0  0  0  0  0  0  0  0  0
   39.4530   28.4320   43.7570 H   0  0  0  0  0  0  0  0  0  0  0  0
   39.2170   23.8270   42.0470 H   0  0  0  0  0  0  0  0  0  0  0  0
   43.6400   25.7130   43.4360 H   0  0  0  0  0  0  0  0  0  0  0  0
   42.4110   25.3030   44.7280 H   0  0  0  0  0  0  0  0  0  0  0  0
   37.5950   32.2430   40.8360 O   0  0  0  0  0  0  0  0  0  0  0  0
   38.0570   32.9340   39.7140 C   0  0  0  0  0  0  0  0  0  0  0  0
   38.6080   32.1080   38.7720 F   0  0  0  0  0  0  0  0  0  0  0  0
   36.9460   33.6440   39.2320 F   0  0  0  0  0  0  0  0  0  0  0  0
   39.0480   33.8040   40.1410 F   0  0  0  0  0  0  0  0  0  0  0  0
  1  6  1  0  0  0  0
  1 18  1  0  0  0  0
  2  1  2  0  0  0  0
  3  4  2  0  0  0  0
  3  2  1  0  0  0  0
  4  5  1  0  0  0  0
  5 33  1  0  0  0  0
  5  6  2  0  0  0  0
  7  2  1  0  0  0  0
  9  8  1  0  0  0  0
  9 10  1  0  0  0  0
 10  3  1  0  0  0  0
 11 10  2  0  0  0  0
 11 12  1  0  0  0  0
 13 11  1  0  0  0  0
 14 16  1  0  0  0  0
 14 13  2  0  0  0  0
 15 14  1  0  0  0  0
 16  9  2  0  0  0  0
 17 16  1  0  0  0  0
 19 20  1  0  0  0  0
 20 18  1  0  0  0  0
 20 21  2  0  0  0  0
 21 29  1  0  0  0  0
 22 21  1  0  0  0  0
 22 27  1  0  0  0  0
 23 25  1  0  0  0  0
 23 22  2  0  0  0  0
 24 19  2  0  0  0  0
 24 23  1  0  0  0  0
 25 26  1  0  0  0  0
 26 32  1  0  0  0  0
 27 26  1  0  0  0  0
 28 19  1  0  0  0  0
 30 24  1  0  0  0  0
 31 26  1  0  0  0  0
 34 37  1  0  0  0  0
 34 33  1  0  0  0  0
 35 34  1  0  0  0  0
 36 34  1  0  0  0  0
M  END
>  <minimizedAffinity>
-6.27659988

$$$$

 OpenBabel03242515413D

 37 40  0  0  0  0  0  0  0  0999 V2000
   35.6190   28.4080   37.4250 C   0  0  0  0  0  0  0  0  0  0  0  0
   36.1630   27.4720   38.2880 C   0  0  0  0  0  0  0  0  0  0  0  0
   37.1730   27.9010   39.1480 C   0  0  0  0  0  0  0  0  0  0  0  0
   37.5580   29.2060   39.0830 N   0  0  0  0  0  0  0  0  0  0  0  0
   37.0140   30.0810   38.2390 C   0  0  0  0  0  0  0  0  0  0  0  0
   36.0570   29.6620   37.4310 N   0  0  0  0  0  0  0  0  0  0  0  0
   35.8110   26.4600   38.2840 H   0  0  0  0  0  0  0  0  0  0  0  0
   36.2260   28.1900   41.9360 Cl  0  0  0  0  0  0  0  0  0  0  0  0
   37.4530   27.0390   41.4090 C   0  0  0  0  0  0  0  0  0  0  0  0
   37.8020   27.0070   40.0820 C   0  0  0  0  0  0  0  0  0  0  0  0
   38.7680   26.0770   39.7680 C   0  0  0  0  0  0  0  0  0  0  0  0
   39.0950   25.9930   38.7430 H   0  0  0  0  0  0  0  0  0  0  0  0
   39.3460   25.2320   40.7220 C   0  0  0  0  0  3  0  0  0  0  0  0
   38.9350   25.3280   42.0460 C   0  0  0  0  0  0  0  0  0  0  0  0
   39.6900   24.2500   43.1930 Cl  0  0  0  0  0  0  0  0  0  0  0  0
   37.9670   26.2510   42.4010 C   0  0  0  0  0  0  0  0  0  0  0  0
   37.6560   26.3170   43.4370 H   0  0  0  0  0  0  0  0  0  0  0  0
   34.3120   27.8160   36.3230 S   0  0  0  0  0  0  0  0  0  0  0  0
   32.7160   29.5850   35.0560 C   0  0  0  0  0  0  0  0  0  0  0  0
   32.9560   28.9810   36.2930 C   0  0  0  0  0  0  0  0  0  0  0  0
   32.1780   29.2860   37.3950 C   0  0  0  0  0  0  0  0  0  0  0  0
   31.1380   30.1960   37.3220 C   0  0  0  0  0  0  0  0  0  0  0  0
   30.9000   30.8030   36.0710 C   0  0  0  0  0  0  0  0  0  0  0  0
   31.6750   30.5040   34.9570 C   0  0  0  0  0  0  0  0  0  0  0  0
   29.8010   31.6800   36.2530 O   0  0  0  0  0  0  0  0  0  0  0  0
   29.6750   31.8550   37.6420 C   0  0  0  0  0  0  0  0  0  0  0  0
   30.2180   30.6840   38.2340 O   0  0  0  0  0  0  0  0  0  0  0  0
   33.2960   29.3760   34.1760 H   0  0  0  0  0  0  0  0  0  0  0  0
   32.4110   28.7880   38.3240 H   0  0  0  0  0  0  0  0  0  0  0  0
   31.4960   30.9630   34.0080 H   0  0  0  0  0  0  0  0  0  0  0  0
   28.6520   32.0710   37.9740 H   0  0  0  0  0  0  0  0  0  0  0  0
   30.3750   32.6850   37.9250 H   0  0  0  0  0  0  0  0  0  0  0  0
   37.3830   31.3970   38.1560 O   0  0  0  0  0  0  0  0  0  0  0  0
   37.3200   32.2170   39.2840 C   0  0  0  0  0  0  0  0  0  0  0  0
   36.4300   31.7630   40.2200 F   0  0  0  0  0  0  0  0  0  0  0  0
   38.6350   32.2800   39.7710 F   0  0  0  0  0  0  0  0  0  0  0  0
   36.8910   33.4670   38.8670 F   0  0  0  0  0  0  0  0  0  0  0  0
  1  6  2  0  0  0  0
  1  2  1  0  0  0  0
  2  3  2  0  0  0  0
  3 10  1  0  0  0  0
  4  3  1  0  0  0  0
  5  4  2  0  0  0  0
  6  5  1  0  0  0  0
  7  2  1  0  0  0  0
  9  8  1  0  0  0  0
  9 16  1  0  0  0  0
 10  9  2  0  0  0  0
 11 10  1  0  0  0  0
 11 13  2  0  0  0  0
 12 11  1  0  0  0  0
 13 14  1  0  0  0  0
 14 16  2  0  0  0  0
 14 15  1  0  0  0  0
 16 17  1  0  0  0  0
 18  1  1  0  0  0  0
 19 20  1  0  0  0  0
 20 18  1  0  0  0  0
 20 21  2  0  0  0  0
 21 29  1  0  0  0  0
 22 21  1  0  0  0  0
 22 27  1  0  0  0  0
 23 25  1  0  0  0  0
 23 22  2  0  0  0  0
 24 19  2  0  0  0  0
 24 23  1  0  0  0  0
 25 26  1  0  0  0  0
 26 32  1  0  0  0  0
 26 31  1  0  0  0  0
 26 27  1  0  0  0  0
 28 19  1  0  0  0  0
 30 24  1  0  0  0  0
 33  5  1  0  0  0  0
 33 34  1  0  0  0  0
 34 36  1  0  0  0  0
 34 35  1  0  0  0  0
 37 34  1  0  0  0  0
M  END
>  <minimizedAffinity>
-5.96983576

$$$$

 OpenBabel03242515413D

 37 40  0  0  0  0  0  0  0  0999 V2000
   37.9870   29.0220   41.1200 C   0  0  0  0  0  0  0  0  0  0  0  0
   37.0950   29.3810   40.1240 C   0  0  0  0  0  0  0  0  0  0  0  0
   36.4660   28.3540   39.4220 C   0  0  0  0  0  0  0  0  0  0  0  0
   36.7700   27.0690   39.7610 N   0  0  0  0  0  0  0  0  0  0  0  0
   37.6340   26.7580   40.7250 C   0  0  0  0  0  0  0  0  0  0  0  0
   38.2220   27.7410   41.3820 N   0  0  0  0  0  0  0  0  0  0  0  0
   36.9040   30.4140   39.9120 H   0  0  0  0  0  0  0  0  0  0  0  0
   37.6750   28.5630   36.7300 Cl  0  0  0  0  0  0  0  0  0  0  0  0
   35.9540   28.7420   37.0730 C   0  0  0  0  0  0  0  0  0  0  0  0
   35.5240   28.6210   38.3710 C   0  0  0  0  0  0  0  0  0  0  0  0
   34.1660   28.7770   38.5380 C   0  0  0  0  0  0  0  0  0  0  0  0
   33.7520   28.6960   39.5320 H   0  0  0  0  0  0  0  0  0  0  0  0
   33.2950   29.0370   37.4740 C   0  0  0  0  0  3  0  0  0  0  0  0
   33.8130   29.1440   36.1890 C   0  0  0  0  0  0  0  0  0  0  0  0
   32.6810   29.4700   34.9000 Cl  0  0  0  0  0  0  0  0  0  0  0  0
   35.1730   28.9940   35.9810 C   0  0  0  0  0  0  0  0  0  0  0  0
   35.5650   29.0810   34.9730 H   0  0  0  0  0  0  0  0  0  0  0  0
   38.7840   30.3820   42.0090 S   0  0  0  0  0  0  0  0  0  0  0  0
   39.1210   32.8050   40.8710 C   0  0  0  0  0  0  0  0  0  0  0  0
   39.5860   31.4870   40.8550 C   0  0  0  0  0  0  0  0  0  0  0  0
   40.5990   31.1020   39.9950 C   0  0  0  0  0  0  0  0  0  0  0  0
   41.1880   31.9950   39.1190 C   0  0  0  0  0  0  0  0  0  0  0  0
   40.7160   33.3240   39.1380 C   0  0  0  0  0  0  0  0  0  0  0  0
   39.7000   33.7230   39.9990 C   0  0  0  0  0  0  0  0  0  0  0  0
   41.4680   34.0320   38.1670 O   0  0  0  0  0  0  0  0  0  0  0  0
   42.0680   33.0520   37.3580 C   0  0  0  0  0  0  0  0  0  0  0  0
   42.1930   31.8950   38.1710 O   0  0  0  0  0  0  0  0  0  0  0  0
   38.3380   33.1460   41.5220 H   0  0  0  0  0  0  0  0  0  0  0  0
   40.9150   30.0700   40.0290 H   0  0  0  0  0  0  0  0  0  0  0  0
   39.3390   34.7290   40.0140 H   0  0  0  0  0  0  0  0  0  0  0  0
   43.0180   33.3660   36.9070 H   0  0  0  0  0  0  0  0  0  0  0  0
   41.3170   32.7830   36.5690 H   0  0  0  0  0  0  0  0  0  0  0  0
   37.9550   25.4760   41.0820 O   0  0  0  0  0  0  0  0  0  0  0  0
   37.1320   24.7640   41.9570 C   0  0  0  0  0  0  0  0  0  0  0  0
   36.1730   24.0340   41.3060 F   0  0  0  0  0  0  0  0  0  0  0  0
   37.9990   23.9660   42.7180 F   0  0  0  0  0  0  0  0  0  0  0  0
   36.4820   25.6880   42.7600 F   0  0  0  0  0  0  0  0  0  0  0  0
  1  6  1  0  0  0  0
  1 18  1  0  0  0  0
  2  1  2  0  0  0  0
  3  4  2  0  0  0  0
  3  2  1  0  0  0  0
  4  5  1  0  0  0  0
  5 33  1  0  0  0  0
  5  6  2  0  0  0  0
  7  2  1  0  0  0  0
  8  9  1  0  0  0  0
  9 10  1  0  0  0  0
 10 11  2  0  0  0  0
 10  3  1  0  0  0  0
 11 12  1  0  0  0  0
 13 11  1  0  0  0  0
 14 13  2  0  0  0  0
 15 14  1  0  0  0  0
 16 14  1  0  0  0  0
 16  9  2  0  0  0  0
 17 16  1  0  0  0  0
 19 28  1  0  0  0  0
 20 19  1  0  0  0  0
 20 18  1  0  0  0  0
 21 29  1  0  0  0  0
 21 20  2  0  0  0  0
 22 23  2  0  0  0  0
 22 21  1  0  0  0  0
 23 24  1  0  0  0  0
 24 30  1  0  0  0  0
 24 19  2  0  0  0  0
 25 23  1  0  0  0  0
 26 25  1  0  0  0  0
 26 27  1  0  0  0  0
 27 22  1  0  0  0  0
 31 26  1  0  0  0  0
 32 26  1  0  0  0  0
 33 34  1  0  0  0  0
 34 36  1  0  0  0  0
 34 37  1  0  0  0  0
 35 34  1  0  0  0  0
M  END
>  <minimizedAffinity>
-5.94108725

$$$$

 OpenBabel03242515413D

 37 40  0  0  0  0  0  0  0  0999 V2000
   34.3370   28.9430   36.4420 C   0  0  0  0  0  0  0  0  0  0  0  0
   35.1170   28.8770   37.5840 C   0  0  0  0  0  0  0  0  0  0  0  0
   36.4600   29.2340   37.4670 C   0  0  0  0  0  0  0  0  0  0  0  0
   36.9150   29.6220   36.2430 N   0  0  0  0  0  0  0  0  0  0  0  0
   36.1370   29.6740   35.1630 C   0  0  0  0  0  0  0  0  0  0  0  0
   34.8670   29.3330   35.2880 N   0  0  0  0  0  0  0  0  0  0  0  0
   34.6910   28.5620   38.5150 H   0  0  0  0  0  0  0  0  0  0  0  0
   37.0030   31.8820   38.6700 Cl  0  0  0  0  0  0  0  0  0  0  0  0
   37.6880   30.3620   39.2430 C   0  0  0  0  0  0  0  0  0  0  0  0
   37.3530   29.2000   38.5930 C   0  0  0  0  0  0  0  0  0  0  0  0
   37.9380   28.0660   39.1120 C   0  0  0  0  0  0  0  0  0  0  0  0
   37.7220   27.1140   38.6530 H   0  0  0  0  0  0  0  0  0  0  0  0
   38.8020   28.0950   40.2120 C   0  0  0  0  0  3  0  0  0  0  0  0
   39.0890   29.3140   40.8140 C   0  0  0  0  0  0  0  0  0  0  0  0
   40.1730   29.2900   42.1830 Cl  0  0  0  0  0  0  0  0  0  0  0  0
   38.5210   30.4760   40.3210 C   0  0  0  0  0  0  0  0  0  0  0  0
   38.7530   31.4210   40.7990 H   0  0  0  0  0  0  0  0  0  0  0  0
   32.6010   28.4720   36.6310 S   0  0  0  0  0  0  0  0  0  0  0  0
   30.8650   30.4560   37.2090 C   0  0  0  0  0  0  0  0  0  0  0  0
   31.5380   29.8290   36.1560 C   0  0  0  0  0  0  0  0  0  0  0  0
   31.3700   30.2560   34.8520 C   0  0  0  0  0  0  0  0  0  0  0  0
   30.5350   31.3120   34.5340 C   0  0  0  0  0  0  0  0  0  0  0  0
   29.8580   31.9420   35.6000 C   0  0  0  0  0  0  0  0  0  0  0  0
   30.0190   31.5220   36.9140 C   0  0  0  0  0  0  0  0  0  0  0  0
   29.0790   32.9770   35.0240 O   0  0  0  0  0  0  0  0  0  0  0  0
   29.0140   32.6910   33.6500 C   0  0  0  0  0  0  0  0  0  0  0  0
   30.1820   31.9400   33.3510 O   0  0  0  0  0  0  0  0  0  0  0  0
   30.9670   30.1550   38.2350 H   0  0  0  0  0  0  0  0  0  0  0  0
   31.9160   29.7330   34.0820 H   0  0  0  0  0  0  0  0  0  0  0  0
   29.5070   31.9970   37.7230 H   0  0  0  0  0  0  0  0  0  0  0  0
   28.8970   33.5770   33.0140 H   0  0  0  0  0  0  0  0  0  0  0  0
   28.1580   31.9790   33.5100 H   0  0  0  0  0  0  0  0  0  0  0  0
   36.5700   30.0600   33.9230 O   0  0  0  0  0  0  0  0  0  0  0  0
   36.5230   31.4050   33.5510 C   0  0  0  0  0  0  0  0  0  0  0  0
   36.9670   32.2440   34.5380 F   0  0  0  0  0  0  0  0  0  0  0  0
   37.2890   31.4930   32.3780 F   0  0  0  0  0  0  0  0  0  0  0  0
   35.1970   31.7190   33.2970 F   0  0  0  0  0  0  0  0  0  0  0  0
  1 18  1  0  0  0  0
  1  2  1  0  0  0  0
  2  7  1  0  0  0  0
  3  2  2  0  0  0  0
  3 10  1  0  0  0  0
  4  3  1  0  0  0  0
  5  6  1  0  0  0  0
  5  4  2  0  0  0  0
  6  1  2  0  0  0  0
  8  9  1  0  0  0  0
  9 16  1  0  0  0  0
 10 11  1  0  0  0  0
 10  9  2  0  0  0  0
 11 13  2  0  0  0  0
 12 11  1  0  0  0  0
 13 14  1  0  0  0  0
 14 15  1  0  0  0  0
 16 17  1  0  0  0  0
 16 14  2  0  0  0  0
 19 28  1  0  0  0  0
 20 18  1  0  0  0  0
 20 19  2  0  0  0  0
 21 20  1  0  0  0  0
 22 21  2  0  0  0  0
 22 23  1  0  0  0  0
 23 24  2  0  0  0  0
 24 19  1  0  0  0  0
 24 30  1  0  0  0  0
 25 23  1  0  0  0  0
 26 25  1  0  0  0  0
 27 26  1  0  0  0  0
 27 22  1  0  0  0  0
 29 21  1  0  0  0  0
 31 26  1  0  0  0  0
 32 26  1  0  0  0  0
 33  5  1  0  0  0  0
 34 33  1  0  0  0  0
 34 35  1  0  0  0  0
 36 34  1  0  0  0  0
 37 34  1  0  0  0  0
M  END
>  <minimizedAffinity>
-5.94048023

$$$$

 OpenBabel03242515413D

 37 40  0  0  0  0  0  0  0  0999 V2000
   37.9950   31.5320   39.8450 C   0  0  0  0  0  0  0  0  0  0  0  0
   37.1220   31.1940   38.8270 C   0  0  0  0  0  0  0  0  0  0  0  0
   36.7170   29.8620   38.7410 C   0  0  0  0  0  0  0  0  0  0  0  0
   37.2070   28.9850   39.6620 N   0  0  0  0  0  0  0  0  0  0  0  0
   38.0480   29.3440   40.6300 C   0  0  0  0  0  0  0  0  0  0  0  0
   38.4220   30.6080   40.7000 N   0  0  0  0  0  0  0  0  0  0  0  0
   36.7770   31.9380   38.1370 H   0  0  0  0  0  0  0  0  0  0  0  0
   34.0010   29.2200   39.7220 Cl  0  0  0  0  0  0  0  0  0  0  0  0
   34.5200   29.0780   38.0420 C   0  0  0  0  0  0  0  0  0  0  0  0
   35.8130   29.4090   37.7210 C   0  0  0  0  0  0  0  0  0  0  0  0
   36.1240   29.2650   36.3870 C   0  0  0  0  0  0  0  0  0  0  0  0
   37.1230   29.5060   36.0570 H   0  0  0  0  0  0  0  0  0  0  0  0
   35.2000   28.8190   35.4360 C   0  0  0  0  0  3  0  0  0  0  0  0
   33.9090   28.5040   35.8450 C   0  0  0  0  0  0  0  0  0  0  0  0
   32.7980   27.9520   34.6170 Cl  0  0  0  0  0  0  0  0  0  0  0  0
   33.5580   28.6360   37.1780 C   0  0  0  0  0  0  0  0  0  0  0  0
   32.5490   28.3860   37.4840 H   0  0  0  0  0  0  0  0  0  0  0  0
   38.4990   33.2690   39.9250 S   0  0  0  0  0  0  0  0  0  0  0  0
   40.9890   34.0130   40.6500 C   0  0  0  0  0  0  0  0  0  0  0  0
   40.2550   33.4160   39.6220 C   0  0  0  0  0  0  0  0  0  0  0  0
   40.8770   32.9810   38.4650 C   0  0  0  0  0  0  0  0  0  0  0  0
   42.2400   33.1190   38.2770 C   0  0  0  0  0  0  0  0  0  0  0  0
   42.9770   33.7210   39.3180 C   0  0  0  0  0  0  0  0  0  0  0  0
   42.3640   34.1610   40.4850 C   0  0  0  0  0  0  0  0  0  0  0  0
   44.3290   33.7450   38.8910 O   0  0  0  0  0  0  0  0  0  0  0  0
   44.2980   33.5220   37.5040 C   0  0  0  0  0  0  0  0  0  0  0  0
   43.1100   32.7860   37.2520 O   0  0  0  0  0  0  0  0  0  0  0  0
   40.5460   34.3640   41.5640 H   0  0  0  0  0  0  0  0  0  0  0  0
   40.2570   32.5290   37.7060 H   0  0  0  0  0  0  0  0  0  0  0  0
   42.9200   34.6190   41.2740 H   0  0  0  0  0  0  0  0  0  0  0  0
   45.1990   33.0360   37.1090 H   0  0  0  0  0  0  0  0  0  0  0  0
   44.1360   34.5230   37.0220 H   0  0  0  0  0  0  0  0  0  0  0  0
   38.5520   28.4810   41.5660 O   0  0  0  0  0  0  0  0  0  0  0  0
   38.0170   28.4530   42.8550 C   0  0  0  0  0  0  0  0  0  0  0  0
   38.3730   29.5440   43.6020 F   0  0  0  0  0  0  0  0  0  0  0  0
   36.6290   28.3440   42.6790 F   0  0  0  0  0  0  0  0  0  0  0  0
   38.5210   27.3280   43.4900 F   0  0  0  0  0  0  0  0  0  0  0  0
  1 18  1  0  0  0  0
  1  6  1  0  0  0  0
  2  1  2  0  0  0  0
  3  2  1  0  0  0  0
  3  4  2  0  0  0  0
  4  5  1  0  0  0  0
  5  6  2  0  0  0  0
  5 33  1  0  0  0  0
  7  2  1  0  0  0  0
  9  8  1  0  0  0  0
 10  9  1  0  0  0  0
 10  3  1  0  0  0  0
 11 10  2  0  0  0  0
 12 11  1  0  0  0  0
 13 14  2  0  0  0  0
 13 11  1  0  0  0  0
 14 16  1  0  0  0  0
 15 14  1  0  0  0  0
 16 17  1  0  0  0  0
 16  9  2  0  0  0  0
 19 28  1  0  0  0  0
 20 18  1  0  0  0  0
 20 19  2  0  0  0  0
 21 20  1  0  0  0  0
 22 21  2  0  0  0  0
 22 23  1  0  0  0  0
 23 24  2  0  0  0  0
 24 19  1  0  0  0  0
 24 30  1  0  0  0  0
 25 23  1  0  0  0  0
 26 25  1  0  0  0  0
 27 26  1  0  0  0  0
 27 22  1  0  0  0  0
 29 21  1  0  0  0  0
 31 26  1  0  0  0  0
 32 26  1  0  0  0  0
 33 34  1  0  0  0  0
 34 37  1  0  0  0  0
 34 35  1  0  0  0  0
 36 34  1  0  0  0  0
M  END
>  <minimizedAffinity>
-5.89768362

$$$$

 OpenBabel03242515413D

 37 40  0  0  0  0  0  0  0  0999 V2000
   38.5670   29.0230   41.5650 C   0  0  0  0  0  0  0  0  0  0  0  0
   37.5700   28.6740   40.6700 C   0  0  0  0  0  0  0  0  0  0  0  0
   36.9590   29.7020   39.9540 C   0  0  0  0  0  0  0  0  0  0  0  0
   37.3800   30.9780   40.1810 N   0  0  0  0  0  0  0  0  0  0  0  0
   38.3420   31.2800   41.0510 C   0  0  0  0  0  0  0  0  0  0  0  0
   38.9130   30.2970   41.7220 N   0  0  0  0  0  0  0  0  0  0  0  0
   37.2900   27.6470   40.5430 H   0  0  0  0  0  0  0  0  0  0  0  0
   37.8390   29.7940   37.1310 Cl  0  0  0  0  0  0  0  0  0  0  0  0
   36.1900   29.4570   37.6560 C   0  0  0  0  0  0  0  0  0  0  0  0
   35.9150   29.4440   39.0010 C   0  0  0  0  0  0  0  0  0  0  0  0
   34.6010   29.1730   39.3120 C   0  0  0  0  0  0  0  0  0  0  0  0
   34.3080   29.1460   40.3500 H   0  0  0  0  0  0  0  0  0  0  0  0
   33.6260   28.9290   38.3390 C   0  0  0  0  0  3  0  0  0  0  0  0
   33.9880   28.9600   36.9980 C   0  0  0  0  0  0  0  0  0  0  0  0
   32.7300   28.6490   35.8270 Cl  0  0  0  0  0  0  0  0  0  0  0  0
   35.2990   29.2300   36.6450 C   0  0  0  0  0  0  0  0  0  0  0  0
   35.5680   29.2520   35.5950 H   0  0  0  0  0  0  0  0  0  0  0  0
   39.3370   27.6630   42.4770 S   0  0  0  0  0  0  0  0  0  0  0  0
   37.5630   25.6300   42.4800 C   0  0  0  0  0  0  0  0  0  0  0  0
   38.7330   26.0940   41.8710 C   0  0  0  0  0  0  0  0  0  0  0  0
   39.3510   25.3630   40.8730 C   0  0  0  0  0  0  0  0  0  0  0  0
   38.8450   24.1520   40.4380 C   0  0  0  0  0  0  0  0  0  0  0  0
   37.6640   23.6870   41.0550 C   0  0  0  0  0  0  0  0  0  0  0  0
   37.0330   24.4130   42.0580 C   0  0  0  0  0  0  0  0  0  0  0  0
   37.3530   22.4470   40.4430 O   0  0  0  0  0  0  0  0  0  0  0  0
   38.5250   22.0390   39.7840 C   0  0  0  0  0  0  0  0  0  0  0  0
   39.2400   23.2290   39.4840 O   0  0  0  0  0  0  0  0  0  0  0  0
   37.0520   26.1650   43.2580 H   0  0  0  0  0  0  0  0  0  0  0  0
   40.2520   25.7730   40.4410 H   0  0  0  0  0  0  0  0  0  0  0  0
   36.1400   24.0630   42.5280 H   0  0  0  0  0  0  0  0  0  0  0  0
   38.3460   21.4100   38.9030 H   0  0  0  0  0  0  0  0  0  0  0  0
   39.1490   21.4990   40.5440 H   0  0  0  0  0  0  0  0  0  0  0  0
   38.7820   32.5530   41.2960 O   0  0  0  0  0  0  0  0  0  0  0  0
   39.1850   33.3720   40.2390 C   0  0  0  0  0  0  0  0  0  0  0  0
   39.6430   32.6620   39.1620 F   0  0  0  0  0  0  0  0  0  0  0  0
   38.0650   34.1610   39.9330 F   0  0  0  0  0  0  0  0  0  0  0  0
   40.2290   34.1590   40.6980 F   0  0  0  0  0  0  0  0  0  0  0  0
  1  6  1  0  0  0  0
  1 18  1  0  0  0  0
  2  1  2  0  0  0  0
  3  4  2  0  0  0  0
  3  2  1  0  0  0  0
  4  5  1  0  0  0  0
  5 33  1  0  0  0  0
  5  6  2  0  0  0  0
  7  2  1  0  0  0  0
  8  9  1  0  0  0  0
  9 10  1  0  0  0  0
 10 11  2  0  0  0  0
 10  3  1  0  0  0  0
 11 12  1  0  0  0  0
 13 11  1  0  0  0  0
 14 13  2  0  0  0  0
 15 14  1  0  0  0  0
 16 14  1  0  0  0  0
 16  9  2  0  0  0  0
 17 16  1  0  0  0  0
 19 28  1  0  0  0  0
 20 18  1  0  0  0  0
 20 19  2  0  0  0  0
 21 20  1  0  0  0  0
 22 21  2  0  0  0  0
 22 23  1  0  0  0  0
 23 24  2  0  0  0  0
 24 19  1  0  0  0  0
 24 30  1  0  0  0  0
 25 23  1  0  0  0  0
 26 25  1  0  0  0  0
 26 32  1  0  0  0  0
 27 26  1  0  0  0  0
 27 22  1  0  0  0  0
 29 21  1  0  0  0  0
 31 26  1  0  0  0  0
 34 37  1  0  0  0  0
 34 33  1  0  0  0  0
 35 34  1  0  0  0  0
 36 34  1  0  0  0  0
M  END
>  <minimizedAffinity>
-5.86924314

$$$$

 OpenBabel03242515413D

 37 40  0  0  0  0  0  0  0  0999 V2000
   36.5880   28.5460   38.4960 C   0  0  0  0  0  0  0  0  0  0  0  0
   37.6120   29.4700   38.3810 C   0  0  0  0  0  0  0  0  0  0  0  0
   38.1500   29.9850   39.5590 C   0  0  0  0  0  0  0  0  0  0  0  0
   37.6360   29.5460   40.7420 N   0  0  0  0  0  0  0  0  0  0  0  0
   36.6480   28.6560   40.8180 C   0  0  0  0  0  0  0  0  0  0  0  0
   36.1480   28.1760   39.6940 N   0  0  0  0  0  0  0  0  0  0  0  0
   37.9670   29.7690   37.4150 H   0  0  0  0  0  0  0  0  0  0  0  0
   37.2460   32.8000   39.6540 Cl  0  0  0  0  0  0  0  0  0  0  0  0
   38.9330   32.2910   39.5880 C   0  0  0  0  0  0  0  0  0  0  0  0
   39.2160   30.9490   39.5470 C   0  0  0  0  0  0  0  0  0  0  0  0
   40.5600   30.6500   39.4960 C   0  0  0  0  0  0  0  0  0  0  0  0
   40.8610   29.6150   39.4620 H   0  0  0  0  0  0  0  0  0  0  0  0
   41.5550   31.6340   39.4870 C   0  0  0  0  0  3  0  0  0  0  0  0
   41.1830   32.9720   39.5300 C   0  0  0  0  0  0  0  0  0  0  0  0
   42.4660   34.1550   39.5160 Cl  0  0  0  0  0  0  0  0  0  0  0  0
   39.8420   33.3110   39.5820 C   0  0  0  0  0  0  0  0  0  0  0  0
   39.5640   34.3590   39.6150 H   0  0  0  0  0  0  0  0  0  0  0  0
   35.9130   27.9010   36.9460 S   0  0  0  0  0  0  0  0  0  0  0  0
   34.0340   28.8730   35.2710 C   0  0  0  0  0  0  0  0  0  0  0  0
   34.3140   28.6300   36.6180 C   0  0  0  0  0  0  0  0  0  0  0  0
   33.3930   28.9430   37.6020 C   0  0  0  0  0  0  0  0  0  0  0  0
   32.1670   29.5080   37.2980 C   0  0  0  0  0  0  0  0  0  0  0  0
   31.8900   29.7510   35.9370 C   0  0  0  0  0  0  0  0  0  0  0  0
   32.8060   29.4400   34.9400 C   0  0  0  0  0  0  0  0  0  0  0  0
   30.5930   30.3220   35.8880 O   0  0  0  0  0  0  0  0  0  0  0  0
   30.3100   30.7460   37.1970 C   0  0  0  0  0  0  0  0  0  0  0  0
   31.0800   29.9140   38.0530 O   0  0  0  0  0  0  0  0  0  0  0  0
   34.7200   28.6450   34.4760 H   0  0  0  0  0  0  0  0  0  0  0  0
   33.6660   28.7330   38.6250 H   0  0  0  0  0  0  0  0  0  0  0  0
   32.5980   29.6250   33.9080 H   0  0  0  0  0  0  0  0  0  0  0  0
   29.2410   30.7480   37.4450 H   0  0  0  0  0  0  0  0  0  0  0  0
   30.7500   31.7730   37.3040 H   0  0  0  0  0  0  0  0  0  0  0  0
   36.1150   28.2000   41.9940 O   0  0  0  0  0  0  0  0  0  0  0  0
   36.8800   27.4060   42.8500 C   0  0  0  0  0  0  0  0  0  0  0  0
   36.1140   26.6310   43.6790 F   0  0  0  0  0  0  0  0  0  0  0  0
   37.7090   26.6460   42.0100 F   0  0  0  0  0  0  0  0  0  0  0  0
   37.6310   28.2560   43.6460 F   0  0  0  0  0  0  0  0  0  0  0  0
  1  6  1  0  0  0  0
  2  1  2  0  0  0  0
  2  3  1  0  0  0  0
  3  4  2  0  0  0  0
  4  5  1  0  0  0  0
  5 33  1  0  0  0  0
  6  5  2  0  0  0  0
  7  2  1  0  0  0  0
  9  8  1  0  0  0  0
 10  3  1  0  0  0  0
 10  9  2  0  0  0  0
 11 10  1  0  0  0  0
 12 11  1  0  0  0  0
 13 11  2  0  0  0  0
 13 14  1  0  0  0  0
 14 16  2  0  0  0  0
 15 14  1  0  0  0  0
 16  9  1  0  0  0  0
 16 17  1  0  0  0  0
 18  1  1  0  0  0  0
 19 20  1  0  0  0  0
 20 18  1  0  0  0  0
 20 21  2  0  0  0  0
 21 29  1  0  0  0  0
 22 21  1  0  0  0  0
 22 27  1  0  0  0  0
 23 22  2  0  0  0  0
 24 19  2  0  0  0  0
 24 23  1  0  0  0  0
 25 23  1  0  0  0  0
 25 26  1  0  0  0  0
 26 32  1  0  0  0  0
 26 31  1  0  0  0  0
 26 27  1  0  0  0  0
 28 19  1  0  0  0  0
 30 24  1  0  0  0  0
 33 34  1  0  0  0  0
 34 37  1  0  0  0  0
 34 35  1  0  0  0  0
 36 34  1  0  0  0  0
M  END
>  <minimizedAffinity>
-5.77001572

$$$$

 OpenBabel03242515413D

 37 40  0  0  0  0  0  0  0  0999 V2000
   35.5710   26.4750   37.9150 C   0  0  0  0  0  0  0  0  0  0  0  0
   36.2440   27.5450   38.4790 C   0  0  0  0  0  0  0  0  0  0  0  0
   35.6450   28.8010   38.3920 C   0  0  0  0  0  0  0  0  0  0  0  0
   34.4410   28.8920   37.7600 N   0  0  0  0  0  0  0  0  0  0  0  0
   33.8200   27.8420   37.2280 C   0  0  0  0  0  0  0  0  0  0  0  0
   34.3980   26.6590   37.3170 N   0  0  0  0  0  0  0  0  0  0  0  0
   37.1900   27.3980   38.9610 H   0  0  0  0  0  0  0  0  0  0  0  0
   37.1380   30.4310   36.4260 Cl  0  0  0  0  0  0  0  0  0  0  0  0
   36.9860   30.8180   38.1400 C   0  0  0  0  0  0  0  0  0  0  0  0
   36.2630   29.9740   38.9450 C   0  0  0  0  0  0  0  0  0  0  0  0
   36.2020   30.3590   40.2670 C   0  0  0  0  0  0  0  0  0  0  0  0
   35.6500   29.7450   40.9620 H   0  0  0  0  0  0  0  0  0  0  0  0
   36.8250   31.5150   40.7490 C   0  0  0  0  0  3  0  0  0  0  0  0
   37.5390   32.3160   39.8660 C   0  0  0  0  0  0  0  0  0  0  0  0
   38.2960   33.7460   40.5230 Cl  0  0  0  0  0  0  0  0  0  0  0  0
   37.6230   31.9620   38.5300 C   0  0  0  0  0  0  0  0  0  0  0  0
   38.1840   32.5950   37.8520 H   0  0  0  0  0  0  0  0  0  0  0  0
   36.3790   24.8610   38.0450 S   0  0  0  0  0  0  0  0  0  0  0  0
   36.5130   24.4670   40.7120 C   0  0  0  0  0  0  0  0  0  0  0  0
   37.2860   24.7480   39.5820 C   0  0  0  0  0  0  0  0  0  0  0  0
   38.6550   24.9180   39.6830 C   0  0  0  0  0  0  0  0  0  0  0  0
   39.3130   24.8210   40.8960 C   0  0  0  0  0  0  0  0  0  0  0  0
   38.5280   24.5380   42.0340 C   0  0  0  0  0  0  0  0  0  0  0  0
   37.1520   24.3640   41.9440 C   0  0  0  0  0  0  0  0  0  0  0  0
   39.4200   24.4890   43.1340 O   0  0  0  0  0  0  0  0  0  0  0  0
   40.6030   25.1080   42.6970 C   0  0  0  0  0  0  0  0  0  0  0  0
   40.6350   24.9400   41.2870 O   0  0  0  0  0  0  0  0  0  0  0  0
   35.4480   24.3280   40.6770 H   0  0  0  0  0  0  0  0  0  0  0  0
   39.1990   25.1330   38.7750 H   0  0  0  0  0  0  0  0  0  0  0  0
   36.5550   24.1510   42.8050 H   0  0  0  0  0  0  0  0  0  0  0  0
   41.5100   24.7410   43.1960 H   0  0  0  0  0  0  0  0  0  0  0  0
   40.4700   26.2090   42.8640 H   0  0  0  0  0  0  0  0  0  0  0  0
   32.6100   27.9100   36.5890 O   0  0  0  0  0  0  0  0  0  0  0  0
   32.4490   28.7390   35.4780 C   0  0  0  0  0  0  0  0  0  0  0  0
   32.1950   30.0400   35.8200 F   0  0  0  0  0  0  0  0  0  0  0  0
   33.6280   28.5950   34.7310 F   0  0  0  0  0  0  0  0  0  0  0  0
   31.3560   28.2710   34.7660 F   0  0  0  0  0  0  0  0  0  0  0  0
  1 18  1  0  0  0  0
  1  2  1  0  0  0  0
  2  7  1  0  0  0  0
  3  2  2  0  0  0  0
  3 10  1  0  0  0  0
  4  3  1  0  0  0  0
  5  6  1  0  0  0  0
  5  4  2  0  0  0  0
  6  1  2  0  0  0  0
  8  9  1  0  0  0  0
  9 16  2  0  0  0  0
  9 10  1  0  0  0  0
 10 11  2  0  0  0  0
 11 13  1  0  0  0  0
 11 12  1  0  0  0  0
 14 15  1  0  0  0  0
 14 13  2  0  0  0  0
 16 14  1  0  0  0  0
 17 16  1  0  0  0  0
 18 20  1  0  0  0  0
 19 24  1  0  0  0  0
 20 21  1  0  0  0  0
 20 19  2  0  0  0  0
 21 22  2  0  0  0  0
 22 27  1  0  0  0  0
 22 23  1  0  0  0  0
 23 25  1  0  0  0  0
 24 23  2  0  0  0  0
 24 30  1  0  0  0  0
 26 32  1  0  0  0  0
 26 25  1  0  0  0  0
 26 31  1  0  0  0  0
 27 26  1  0  0  0  0
 28 19  1  0  0  0  0
 29 21  1  0  0  0  0
 33  5  1  0  0  0  0
 34 35  1  0  0  0  0
 34 33  1  0  0  0  0
 36 34  1  0  0  0  0
 37 34  1  0  0  0  0
M  END
>  <minimizedAffinity>
-5.60667419

$$$$
