
     RDKit          3D

 48 52  0  0  0  0  0  0  0  0999 V2000
   45.1369   36.0114   43.4938 C   0  0  0  0  0  0  0  0  0  0  0  0
   45.9196   34.8809   43.2545 C   0  0  0  0  0  0  0  0  0  0  0  0
   46.0623   33.9495   44.2396 C   0  0  0  0  0  0  0  0  0  0  0  0
   45.4187   34.1861   45.4267 N   0  0  0  0  0  0  0  0  0  0  0  0
   44.6679   35.2758   45.6509 C   0  0  0  0  0  0  0  0  0  0  0  0
   44.5349   36.1646   44.6981 N   0  0  0  0  0  0  0  0  0  0  0  0
   46.5389   34.7831   42.0096 N   0  0  0  0  0  0  0  0  0  0  0  0
   47.8632   35.2681   41.7879 C   0  0  0  0  0  0  0  0  0  0  0  0
   48.4423   34.9285   40.4437 C   0  0  0  0  0  0  0  0  0  0  0  0
   48.1462   33.6450   39.9770 N   0  0  0  0  0  0  0  0  0  0  0  0
   46.8553   33.1995   40.1638 C   0  0  0  0  0  0  0  0  0  0  0  0
   45.9764   34.2251   40.8477 C   0  0  0  0  0  0  0  0  0  0  0  0
   46.4178   31.9850   45.4763 C   0  0  0  0  0  0  0  0  0  0  0  0
   46.7495   32.7354   44.3316 C   0  0  0  0  0  0  0  0  0  0  0  0
   47.7279   32.1167   43.5907 C   0  0  0  0  0  0  0  0  0  0  0  0
   48.3280   30.9317   43.8934 C   0  0  0  0  0  0  0  0  0  0  0  0
   47.9450   30.2560   45.0486 C   0  0  0  0  0  0  0  0  0  0  0  0
   46.9759   30.7907   45.8476 C   0  0  0  0  0  0  0  0  0  0  0  0
   48.7346   29.1184   45.0701 O   0  0  0  0  0  0  0  0  0  0  0  0
   49.5555   29.0701   43.9140 C   0  0  2  0  0  0  0  0  0  0  0  0
   49.3112   30.2656   43.1820 O   0  0  0  0  0  0  0  0  0  0  0  0
   49.1232   27.9699   43.1664 O   0  0  0  0  0  0  0  0  0  0  0  0
   45.0186   36.7542   42.7158 H   0  0  0  0  0  0  0  0  0  0  0  0
   44.1408   35.5116   46.5647 H   0  0  0  0  0  0  0  0  0  0  0  0
   48.6006   34.9736   42.5853 H   0  0  0  0  0  0  0  0  0  0  0  0
   47.8105   36.3792   41.8431 H   0  0  0  0  0  0  0  0  0  0  0  0
   49.5528   35.0731   40.5076 H   0  0  0  0  0  0  0  0  0  0  0  0
   48.1069   35.6924   39.7126 H   0  0  0  0  0  0  0  0  0  0  0  0
   48.8562   32.9555   40.3485 H   0  0  0  0  0  0  0  0  0  0  0  0
   46.3546   32.9979   39.1720 H   0  0  0  0  0  0  0  0  0  0  0  0
   46.7083   32.2468   40.7385 H   0  0  0  0  0  0  0  0  0  0  0  0
   45.8519   35.0438   40.0812 H   0  0  0  0  0  0  0  0  0  0  0  0
   44.9521   33.8247   41.0052 H   0  0  0  0  0  0  0  0  0  0  0  0
   45.6651   32.1936   46.2683 H   0  0  0  0  0  0  0  0  0  0  0  0
   47.9868   32.6572   42.7340 H   0  0  0  0  0  0  0  0  0  0  0  0
   46.7623   30.1857   46.7009 H   0  0  0  0  0  0  0  0  0  0  0  0
   50.6326   29.0299   44.1699 H   0  0  0  0  0  0  0  0  0  0  0  0
   51.2803   27.4278   45.0355 Cl  0  0  0  0  0  0  0  0  0  0  0  0
   50.9020   26.5523   43.5667 C   0  0  0  0  0  0  0  0  0  0  0  0
   49.8360   26.8934   42.7292 C   0  0  0  0  0  0  0  0  0  0  0  0
   49.5493   26.1940   41.5740 C   0  0  0  0  0  0  0  0  0  0  0  0
   48.7246   26.4873   40.9606 H   0  0  0  0  0  0  0  0  0  0  0  0
   50.3656   25.1411   41.2848 C   0  0  0  0  0  0  0  0  0  0  0  0
   51.4205   24.7739   42.0789 C   0  0  0  0  0  0  0  0  0  0  0  0
   52.4588   23.4104   41.6825 Cl  0  0  0  0  0  0  0  0  0  0  0  0
   51.7050   25.4632   43.2197 C   0  0  0  0  0  0  0  0  0  0  0  0
   52.5413   25.1959   43.8770 H   0  0  0  0  0  0  0  0  0  0  0  0
   50.1652   24.5699   40.3806 H   0  0  0  0  0  0  0  0  0  0  0  0
  1  6  2  0
  2  1  1  0
  2  3  2  0
  3 14  1  0
  3  4  1  0
  4  5  2  0
  6  5  1  0
  7  2  1  0
  8  7  1  0
  9  8  1  0
 10 11  1  0
 10  9  1  0
 11 12  1  0
 12  7  1  0
 13 18  2  0
 14 13  1  0
 15 16  1  0
 15 14  2  0
 16 17  2  0
 17 19  1  0
 17 18  1  0
 20 19  1  0
 21 16  1  0
 21 20  1  0
 22 20  1  0
  1 23  1  0
  5 24  1  0
  8 25  1  0
  8 26  1  0
  9 27  1  0
  9 28  1  0
 10 29  1  0
 11 30  1  0
 11 31  1  0
 12 32  1  0
 12 33  1  0
 13 34  1  0
 15 35  1  0
 18 36  1  0
 20 37  1  1
 38 39  1  0
 39 40  2  0
 40 41  1  0
 41 42  1  0
 41 43  2  0
 43 44  1  0
 44 45  1  0
 44 46  2  0
 46 47  1  0
 46 39  1  0
 43 48  1  0
 22 40  1  0
M  ISO  8  23  14  24  14  25  13  26  13  27  13  28  13  29   5  30  13
M  ISO  8  31  13  32  13  33  13  34  14  35  14  36  14  37  13  42  16
M  ISO  1  47  15
M  END
>  <DihAtoms>  (1) 
19,21,39,38

>  <DihDeg>  (1) 
179.99775535776058

$$$$
