
     RDKit          3D

 38 41  0  0  0  0  0  0  0  0999 V2000
   39.9679   34.8834   40.2275 C   0  0  0  0  0  0  0  0  0  0  0  0
   40.9814   34.3959   41.0580 C   0  0  0  0  0  0  0  0  0  0  0  0
   40.9127   33.1196   41.5875 C   0  0  0  0  0  0  0  0  0  0  0  0
   39.8484   32.2784   41.3205 C   0  0  0  0  0  0  0  0  0  0  0  0
   38.8282   32.7741   40.4822 C   0  0  0  0  0  0  0  0  0  0  0  0
   38.8856   34.0541   39.9444 C   0  0  0  0  0  0  0  0  0  0  0  0
   37.8665   31.7386   40.3642 O   0  0  0  0  0  0  0  0  0  0  0  0
   38.1398   30.8397   41.4086 C   0  0  0  0  0  0  0  0  0  0  0  0
   39.5217   30.9866   41.7010 O   0  0  0  0  0  0  0  0  0  0  0  0
   42.3279   35.5308   41.3641 S   0  0  0  0  0  0  0  0  0  0  0  0
   43.9069   34.7555   40.9406 C   0  0  0  0  0  0  0  0  0  0  0  0
   43.8712   33.7983   39.9423 C   0  0  0  0  0  0  0  0  0  0  0  0
   45.0736   33.1842   39.5953 C   0  0  0  0  0  0  0  0  0  0  0  0
   46.2008   33.5648   40.2589 N   0  0  0  0  0  0  0  0  0  0  0  0
   46.2008   34.4907   41.2162 C   0  0  0  0  0  0  0  0  0  0  0  0
   45.0551   35.0643   41.5349 N   0  0  0  0  0  0  0  0  0  0  0  0
   47.3196   34.8899   41.8970 O   0  0  0  0  0  0  0  0  0  0  0  0
   48.5325   35.0502   41.2226 C   0  0  0  0  0  0  0  0  0  0  0  0
   49.3609   33.9690   41.3591 F   0  0  0  0  0  0  0  0  0  0  0  0
   48.1843   35.3035   39.8866 F   0  0  0  0  0  0  0  0  0  0  0  0
   49.1752   36.1453   41.7795 F   0  0  0  0  0  0  0  0  0  0  0  0
   39.9824   35.8671   39.7962 H   0  0  0  0  0  0  0  0  0  0  0  0
   41.7255   32.8000   42.2216 H   0  0  0  0  0  0  0  0  0  0  0  0
   38.1140   34.4319   39.3090 H   0  0  0  0  0  0  0  0  0  0  0  0
   37.8533   29.8035   41.1929 H   0  0  0  0  0  0  0  0  0  0  0  0
   37.6011   31.2275   42.3140 H   0  0  0  0  0  0  0  0  0  0  0  0
   42.9459   33.5478   39.4617 H   0  0  0  0  0  0  0  0  0  0  0  0
   44.6894   30.4208   40.5796 Cl  0  0  0  0  0  0  0  0  0  0  0  0
   44.9816   30.8533   38.8948 C   0  0  0  0  0  0  0  0  0  0  0  0
   45.1433   32.1775   38.5711 C   0  0  0  0  0  0  0  0  0  0  0  0
   45.3664   32.4155   37.2328 C   0  0  0  0  0  0  0  0  0  0  0  0
   45.5030   33.4328   36.9019 H   0  0  0  0  0  0  0  0  0  0  0  0
   45.4238   31.3926   36.2809 C   0  0  0  0  0  0  0  0  0  0  0  0
   45.2496   30.0763   36.6917 C   0  0  0  0  0  0  0  0  0  0  0  0
   45.3314   28.8412   35.4601 Cl  0  0  0  0  0  0  0  0  0  0  0  0
   45.0233   29.7977   38.0284 C   0  0  0  0  0  0  0  0  0  0  0  0
   44.8888   28.7659   38.3364 H   0  0  0  0  0  0  0  0  0  0  0  0
   45.6024   31.6322   35.2369 H   0  0  0  0  0  0  0  0  0  0  0  0
  1  2  2  0
  2 10  1  0
  2  3  1  0
  4  3  2  0
  4  9  1  0
  5  4  1  0
  6  1  1  0
  6  5  2  0
  7  5  1  0
  7  8  1  0
  8  9  1  0
 11 10  1  0
 11 16  1  0
 12 11  2  0
 13 12  1  0
 13 14  2  0
 14 15  1  0
 15 16  2  0
 15 17  1  0
 18 19  1  0
 18 21  1  0
 18 17  1  0
 20 18  1  0
  1 22  1  0
  3 23  1  0
  6 24  1  0
  8 25  1  0
  8 26  1  0
 12 27  1  0
 28 29  1  0
 29 30  2  0
 30 31  1  0
 31 32  1  0
 31 33  2  0
 33 34  1  0
 34 35  1  0
 34 36  2  0
 36 37  1  0
 36 29  1  0
 33 38  1  0
 13 30  1  0
M  ISO  8  22  14  23  14  24  14  25  13  26  13  27  14  32  16  37  15
M  END
>  <DihAtoms>  (1) 
11,12,29,28

>  <DihDeg>  (1) 
-179.99659092139123

$$$$
