REMARK  Name = 
REMARK  4 active torsions:
REMARK  status: ('A' for Active; 'I' for Inactive)
REMARK    1  A    between atoms: C_12  and  C_13
REMARK    2  A    between atoms: C_13  and  C_14
REMARK    3  A    between atoms: C_15  and  C_16
REMARK    4  A    between atoms: C_16  and  C_36
REMARK                            x       y       z     vdW  Elec       q    Type
REMARK                         _______ _______ _______ _____ _____    ______ ____
ROOT
ATOM      1  C   UNL     1      44.998  34.641  44.934  0.00  0.00    +0.000 A 
ATOM      2  C   UNL     1      45.896  34.602  43.843  0.00  0.00    +0.000 A 
ATOM      3  C   UNL     1      47.007  33.755  43.953  0.00  0.00    +0.000 A 
ATOM      4  N   UNL     1      47.165  33.023  45.084  0.00  0.00    +0.000 NA
ATOM      5  C   UNL     1      46.293  33.081  46.106  0.00  0.00    +0.000 A 
ATOM      6  N   UNL     1      45.222  33.895  46.006  0.00  0.00    +0.000 NA
ATOM      7  N   UNL     1      46.525  32.293  47.247  0.00  0.00    +0.000 N 
ATOM      8  C   UNL     1      47.743  32.441  47.979  0.00  0.00    +0.000 C 
ATOM      9  C   UNL     1      48.004  31.312  48.930  0.00  0.00    +0.000 C 
ATOM     10  N   UNL     1      46.867  30.662  49.488  0.00  0.00    +0.000 NA
ATOM     11  C   UNL     1      45.626  31.279  49.148  0.00  0.00    +0.000 C 
ATOM     12  C   UNL     1      45.499  31.332  47.659  0.00  0.00    +0.000 C 
ATOM     13  H   UNL     1      44.105  35.248  44.983  0.00  0.00    +0.000 HD
ATOM     14  H   UNL     1      45.663  35.226  43.002  0.00  0.00    +0.000 HD
ATOM     15  H   UNL     1      47.682  33.727  43.126  0.00  0.00    +0.000 HD
ATOM     16  H   UNL     1      47.765  33.399  48.552  0.00  0.00    +0.000 HD
ATOM     17  H   UNL     1      48.614  32.487  47.272  0.00  0.00    +0.000 HD
ATOM     18  H   UNL     1      48.585  30.518  48.380  0.00  0.00    +0.000 HD
ATOM     19  H   UNL     1      48.681  31.654  49.742  0.00  0.00    +0.000 HD
ATOM     20  H   UNL     1      46.803  29.646  49.276  0.00  0.00    +0.000 HD
ATOM     21  H   UNL     1      45.478  32.279  49.556  0.00  0.00    +0.000 HD
ATOM     22  H   UNL     1      44.813  30.610  49.527  0.00  0.00    +0.000 HD
ATOM     23  H   UNL     1      44.522  31.752  47.343  0.00  0.00    +0.000 HD
ENDROOT
BRANCH  12  24
ATOM     24  C   UNL     1      45.688  30.002  47.014  0.00  0.00    +0.000 C 
ATOM     25  H   UNL     1      46.720  29.663  47.102  0.00  0.00    +0.000 HD
ATOM     26  H   UNL     1      45.391  30.045  45.947  0.00  0.00    +0.000 HD
BRANCH  24  27
ATOM     27  C   UNL     1      44.847  29.005  47.758  0.00  0.00    +0.000 C 
ATOM     28  C   UNL     1      45.160  27.712  47.790  0.00  0.00    +0.000 C 
BRANCH  28  29
ATOM     29  C   UNL     1      44.364  26.675  48.510  0.00  0.00    +0.000 C 
ATOM     30  H   UNL     1      43.537  27.126  49.101  0.00  0.00    +0.000 HD
ATOM     31  H   UNL     1      45.041  26.200  49.247  0.00  0.00    +0.000 HD
BRANCH  29  34
ATOM     32 CL   UNL     1      45.034  26.930  45.584  0.00  0.00    +0.000 Cl
ATOM     33  C   UNL     1      44.104  25.601  46.230  0.00  0.00    +0.000 A 
ATOM     34  C   UNL     1      43.877  25.620  47.593  0.00  0.00    +0.000 A 
ATOM     35  C   UNL     1      43.128  24.546  48.096  0.00  0.00    +0.000 A 
ATOM     36  H   UNL     1      42.950  24.566  49.181  0.00  0.00    +0.000 HD
ATOM     37  C   UNL     1      42.618  23.507  47.368  0.00  0.00    +0.000 A 
ATOM     38  C   UNL     1      42.880  23.544  46.005  0.00  0.00    +0.000 A 
ATOM     39 CL   UNL     1      42.267  22.262  45.011  0.00  0.00    +0.000 Cl
ATOM     40  C   UNL     1      43.609  24.572  45.450  0.00  0.00    +0.000 A 
ATOM     41  H   UNL     1      43.823  24.619  44.392  0.00  0.00    +0.000 HD
ENDBRANCH  29  34
ENDBRANCH  28  29
ENDBRANCH  24  27
ENDBRANCH  12  24
TORSDOF 4
