
 OpenBabel03252506523D

 32 35  0  0  0  0  0  0  0  0999 V2000
   47.1780   31.3650   45.1310 C   0  0  0  0  0  0  0  0  0  0  0  0
   46.8490   32.7070   45.1340 C   0  0  0  0  0  0  0  0  0  0  0  0
   46.2610   33.3440   46.2200 C   0  0  0  0  0  0  0  0  0  0  0  0
   45.9900   32.5850   47.3670 C   0  0  0  0  0  0  0  0  0  0  0  0
   45.4370   32.8560   48.5880 N   0  0  0  0  0  0  0  0  0  0  0  0
   45.4310   31.7060   49.3110 C   0  0  0  0  0  0  0  0  0  0  0  0
   45.9740   30.7480   48.5350 N   0  0  0  0  0  0  0  0  0  0  0  0
   46.3250   31.2540   47.3400 C   0  0  0  0  0  0  0  0  0  0  0  0
   46.9050   30.6180   46.2750 C   0  0  0  0  0  0  0  0  0  0  0  0
   47.6370   30.9260   44.2460 H   0  0  0  0  0  0  0  0  0  0  0  0
   46.0080   34.3790   46.2210 H   0  0  0  0  0  0  0  0  0  0  0  0
   45.0930   33.8020   48.8700 H   0  0  0  0  0  0  0  0  0  0  0  0
   45.0400   31.6940   50.3000 H   0  0  0  0  0  0  0  0  0  0  0  0
   44.7210   28.6850   45.5720 Cl  0  0  0  0  0  0  0  0  0  0  0  0
   46.3680   28.1740   45.9360 C   0  0  0  0  0  0  0  0  0  0  0  0
   47.2630   29.2030   46.2440 C   0  0  0  0  0  0  0  0  0  0  0  0
   48.5640   28.8200   46.5330 C   0  0  0  0  0  0  0  0  0  0  0  0
   49.2860   29.5940   46.7770 H   0  0  0  0  0  0  0  0  0  0  0  0
   49.0110   27.5100   46.5340 C   0  0  0  0  0  3  0  0  0  0  0  0
   48.0960   26.5460   46.2270 C   0  0  0  0  0  0  0  0  0  0  0  0
   48.5850   24.8750   46.2070 Cl  0  0  0  0  0  0  0  0  0  0  0  0
   46.7990   26.8650   45.9320 C   0  0  0  0  0  0  0  0  0  0  0  0
   46.0390   26.1260   45.6830 H   0  0  0  0  0  0  0  0  0  0  0  0
   46.4910   35.1970   42.4440 C   0  0  0  0  0  0  0  0  0  0  0  0
   47.6910   35.0170   41.7190 C   0  0  0  0  0  0  0  0  0  0  0  0
   48.6140   34.0400   42.1600 C   0  0  0  0  0  0  0  0  0  0  0  0
   48.2780   33.3240   43.2760 N   0  0  0  0  0  0  0  0  0  0  0  0
   47.1210   33.5200   43.9500 C   0  0  0  0  0  0  0  0  0  0  0  0
   46.2570   34.4410   43.5300 N   0  0  0  0  0  0  0  0  0  0  0  0
   45.8280   35.9520   42.0630 H   0  0  0  0  0  0  0  0  0  0  0  0
   47.9820   35.5670   40.8340 H   0  0  0  0  0  0  0  0  0  0  0  0
   49.5430   33.8310   41.6810 H   0  0  0  0  0  0  0  0  0  0  0  0
  1  2  2  0  0  0  0
  1  9  1  0  0  0  0
  2  3  1  0  0  0  0
  3 11  1  0  0  0  0
  3  4  2  0  0  0  0
  4  5  1  0  0  0  0
  5 12  1  0  0  0  0
  5  6  1  0  0  0  0
  6 13  1  0  0  0  0
  7  6  2  0  0  0  0
  8  4  1  0  0  0  0
  8  7  1  0  0  0  0
  9  8  2  0  0  0  0
 10  1  1  0  0  0  0
 14 15  1  0  0  0  0
 15 16  1  0  0  0  0
 16  9  1  0  0  0  0
 16 17  2  0  0  0  0
 17 19  1  0  0  0  0
 17 18  1  0  0  0  0
 20 19  2  0  0  0  0
 21 20  1  0  0  0  0
 22 15  2  0  0  0  0
 22 20  1  0  0  0  0
 23 22  1  0  0  0  0
 24 29  1  0  0  0  0
 25 26  1  0  0  0  0
 25 24  2  0  0  0  0
 26 27  2  0  0  0  0
 27 28  1  0  0  0  0
 28  2  1  0  0  0  0
 29 28  2  0  0  0  0
 30 24  1  0  0  0  0
 31 25  1  0  0  0  0
 32 26  1  0  0  0  0
M  END
>  <minimizedAffinity>
-5.39162922

>  <minimizedRMSD>
0.301701844

$$$$
