
 OpenBabel03252508463D

 46 48  0  0  0  0  0  0  0  0999 V2000
   42.6800   31.4420   42.5770 N   0  0  0  0  0  0  0  0  0  0  0  0
   42.9510   31.7180   43.5590 H   0  0  0  0  0  0  0  0  0  0  0  0
   43.0010   32.4810   41.6500 C   0  0  0  0  0  0  0  0  0  0  0  0
   43.5150   32.0410   40.7740 H   0  0  0  0  0  0  0  0  0  0  0  0
   42.0830   32.9800   41.2490 H   0  0  0  0  0  0  0  0  0  0  0  0
   43.6640   34.8890   41.8970 C   0  0  0  0  0  0  0  0  0  0  0  0
   43.8920   33.5430   42.2050 C   0  0  0  0  0  0  0  0  0  0  0  0
   44.9540   33.2320   43.0290 C   0  0  0  0  0  0  0  0  0  0  0  0
   45.7580   34.2150   43.5280 C   0  0  0  0  0  0  0  0  0  0  0  0
   45.5530   35.5460   43.2370 C   0  0  0  0  0  0  0  0  0  0  0  0
   44.4770   35.8270   42.4060 C   0  0  0  0  0  0  0  0  0  0  0  0
   45.0840   32.1770   43.2350 H   0  0  0  0  0  0  0  0  0  0  0  0
   46.5700   33.8880   44.1640 H   0  0  0  0  0  0  0  0  0  0  0  0
   46.2100   36.2930   43.6510 H   0  0  0  0  0  0  0  0  0  0  0  0
   44.2820   36.8630   42.1550 H   0  0  0  0  0  0  0  0  0  0  0  0
   40.2620   35.7870   40.5330 C   0  0  0  0  0  0  0  0  0  0  0  0
   41.2790   35.5480   41.4800 C   0  0  0  0  0  0  0  0  0  0  0  0
   42.5360   35.1640   41.0260 C   0  0  0  0  0  0  0  0  0  0  0  0
   42.6990   35.0430   39.6750 N   0  0  0  0  0  0  0  0  0  0  0  0
   41.7060   35.2780   38.7830 C   0  0  0  0  0  0  0  0  0  0  0  0
   40.4980   35.6470   39.2270 N   0  0  0  0  0  0  0  0  0  0  0  0
   39.3510   36.0710   41.0170 H   0  0  0  0  0  0  0  0  0  0  0  0
   41.1860   35.6310   42.5350 H   0  0  0  0  0  0  0  0  0  0  0  0
   41.8210   35.1840   37.7250 H   0  0  0  0  0  0  0  0  0  0  0  0
   40.9970   31.0950   42.6250 S   0  0  0  0  0  0  0  0  0  0  0  0
   40.1820   32.3550   42.4380 O   0  0  0  0  0  0  0  0  0  0  0  0
   40.0690   32.8080   41.5530 H   0  0  0  0  0  0  0  0  0  0  0  0
   40.6190   30.3990   43.8770 O   0  0  0  0  0  0  0  0  0  0  0  0
   41.1330   30.2650   44.7080 H   0  0  0  0  0  0  0  0  0  0  0  0
   40.6890   30.0610   41.3340 O   0  0  0  0  0  0  0  0  0  0  0  0
   39.8250   29.0750   41.7390 C   0  0  0  0  0  0  0  0  0  0  0  0
   38.9970   29.0410   41.0000 H   0  0  0  0  0  0  0  0  0  0  0  0
   39.3650   29.2090   42.7260 H   0  0  0  0  0  0  0  0  0  0  0  0
   40.5540   27.7190   41.6970 C   0  0  0  0  0  0  0  0  0  0  0  0
   41.2250   27.7200   42.5570 H   0  0  0  0  0  0  0  0  0  0  0  0
   41.1520   27.7150   40.7900 H   0  0  0  0  0  0  0  0  0  0  0  0
   41.3000   25.1280   43.1620 Cl  0  0  0  0  0  0  0  0  0  0  0  0
   39.7730   25.4000   42.3490 C   0  0  0  0  0  0  0  0  0  0  0  0
   39.5640   26.6150   41.7360 C   0  0  0  0  0  0  0  0  0  0  0  0
   38.3470   26.8480   41.0850 C   0  0  0  0  0  0  0  0  0  0  0  0
   38.1610   27.7980   40.6000 H   0  0  0  0  0  0  0  0  0  0  0  0
   37.3550   25.8890   41.0430 C   0  0  0  0  0  3  0  0  0  0  0  0
   37.6040   24.6930   41.6650 C   0  0  0  0  0  0  0  0  0  0  0  0
   36.3190   23.4820   41.5950 Cl  0  0  0  0  0  0  0  0  0  0  0  0
   38.7940   24.4110   42.3260 C   0  0  0  0  0  0  0  0  0  0  0  0
   38.9510   23.4380   42.8140 H   0  0  0  0  0  0  0  0  0  0  0  0
  1 25  1  0  0  0  0
  1  2  1  0  0  0  0
  3  7  1  0  0  0  0
  3  1  1  0  0  0  0
  4  3  1  0  0  0  0
  5  3  1  0  0  0  0
  6  7  2  0  0  0  0
  6 11  1  0  0  0  0
  7  8  1  0  0  0  0
  8 12  1  0  0  0  0
  8  9  2  0  0  0  0
  9 13  1  0  0  0  0
 10  9  1  0  0  0  0
 10 14  1  0  0  0  0
 11 10  2  0  0  0  0
 15 11  1  0  0  0  0
 16 22  1  0  0  0  0
 16 17  1  0  0  0  0
 17 23  1  0  0  0  0
 18 17  2  0  0  0  0
 18  6  1  0  0  0  0
 19 18  1  0  0  0  0
 20 21  1  0  0  0  0
 20 19  2  0  0  0  0
 21 16  2  0  0  0  0
 24 20  1  0  0  0  0
 25 28  1  0  0  0  0
 26 25  1  0  0  0  0
 27 26  1  0  0  0  0
 28 29  1  0  0  0  0
 30 31  1  0  0  0  0
 30 25  1  0  0  0  0
 31 33  1  0  0  0  0
 32 31  1  0  0  0  0
 34 39  1  0  0  0  0
 34 31  1  0  0  0  0
 34 35  1  0  0  0  0
 36 34  1  0  0  0  0
 38 37  1  0  0  0  0
 39 38  2  0  0  0  0
 40 39  1  0  0  0  0
 41 40  1  0  0  0  0
 42 40  2  0  0  0  0
 42 43  1  0  0  0  0
 43 45  2  0  0  0  0
 44 43  1  0  0  0  0
 45 38  1  0  0  0  0
 45 46  1  0  0  0  0
M  END
>  <minimizedAffinity>
-5.27731514

>  <minimizedRMSD>
0.766841054

$$$$
