
     RDKit          3D

 29 31  0  0  0  0  0  0  0  0999 V2000
   45.3393   36.0517   43.1814 C   0  0  0  0  0  0  0  0  0  0  0  0
   46.1125   34.8676   43.0568 C   0  0  0  0  0  0  0  0  0  0  0  0
   46.1003   34.0590   44.1837 C   0  0  0  0  0  0  0  0  0  0  0  0
   45.4152   34.3761   45.2913 N   0  0  0  0  0  0  0  0  0  0  0  0
   44.6869   35.5303   45.3564 C   0  0  0  0  0  0  0  0  0  0  0  0
   44.6625   36.3554   44.2882 N   0  0  0  0  0  0  0  0  0  0  0  0
   46.8146   32.8658   44.1465 C   0  0  0  0  0  0  0  0  0  0  0  0
   47.7604   32.3298   43.3354 C   0  0  0  0  0  0  0  0  0  0  0  0
   48.2998   31.1305   43.4871 C   0  0  0  0  0  0  0  0  0  0  0  0
   47.8464   30.4048   44.5562 C   0  0  0  0  0  0  0  0  0  0  0  0
   46.6153   31.5416   45.3140 S   0  0  0  0  0  0  0  0  0  0  0  0
   46.7938   34.6148   41.8437 C   0  0  0  0  0  0  0  0  0  0  0  0
   47.8820   35.3486   41.7492 O   0  0  0  0  0  0  0  0  0  0  0  0
   45.3096   36.7305   42.3243 H   0  0  0  0  0  0  0  0  0  0  0  0
   44.1555   35.7344   46.2724 H   0  0  0  0  0  0  0  0  0  0  0  0
   48.2432   32.7818   42.4850 H   0  0  0  0  0  0  0  0  0  0  0  0
   49.0198   30.5035   43.0181 H   0  0  0  0  0  0  0  0  0  0  0  0
   47.9464   29.4789   45.0689 H   0  0  0  0  0  0  0  0  0  0  0  0
   48.0648   35.7706   39.4881 Cl  0  0  0  0  0  0  0  0  0  0  0  0
   47.0908   34.2838   39.5666 C   0  0  0  0  0  0  0  0  0  0  0  0
   46.4820   33.7042   40.7003 C   0  0  0  0  0  0  0  0  0  0  0  0
   45.7859   32.5507   40.4717 C   0  0  0  0  0  0  0  0  0  0  0  0
   45.3479   32.2048   41.3915 H   0  0  0  0  0  0  0  0  0  0  0  0
   45.6706   31.9723   39.2355 C   0  0  0  0  0  0  0  0  0  0  0  0
   46.2671   32.5432   38.1346 C   0  0  0  0  0  0  0  0  0  0  0  0
   46.0297   31.6877   36.6259 Cl  0  0  0  0  0  0  0  0  0  0  0  0
   46.9843   33.7074   38.2911 C   0  0  0  0  0  0  0  0  0  0  0  0
   47.4136   34.0801   37.3785 H   0  0  0  0  0  0  0  0  0  0  0  0
   45.0764   31.0702   39.2993 H   0  0  0  0  0  0  0  0  0  0  0  0
  1  6  2  0
  2  1  1  0
  2  3  2  0
  3  4  1  0
  4  5  2  0
  6  5  1  0
  7  3  1  0
  7 11  1  0
  8  9  1  0
  8  7  2  0
  9 10  2  0
 10 11  1  0
 12  2  1  0
 13 12  2  0
  1 14  1  0
  5 15  1  0
  8 16  1  0
  9 17  1  0
 10 18  1  0
 19 20  1  0
 20 21  2  0
 21 22  1  0
 22 23  1  0
 22 24  2  0
 24 25  1  0
 25 26  1  0
 25 27  2  0
 27 28  1  0
 27 20  1  0
 24 29  1  0
 12 21  1  0
M  ISO  7  14  14  15  14  16  14  17  14  18  14  23  16  28  15
M  END
>  <DihAtoms>  (1) 
1,11,20,19

>  <DihDeg>  (1) 
138.1783314393

$$$$
