
     RDKit          3D

 30 32  0  0  0  0  0  0  0  0999 V2000
   45.5322   34.1285   44.3986 C   0  0  0  0  0  0  0  0  0  0  0  0
   46.4901   33.5927   43.5369 C   0  0  0  0  0  0  0  0  0  0  0  0
   47.3760   32.6798   44.0594 C   0  0  0  0  0  0  0  0  0  0  0  0
   47.2785   32.3468   45.3705 N   0  0  0  0  0  0  0  0  0  0  0  0
   46.3439   32.8820   46.1696 C   0  0  0  0  0  0  0  0  0  0  0  0
   45.4558   33.7848   45.6842 N   0  0  0  0  0  0  0  0  0  0  0  0
   46.4052   32.3900   47.5861 C   0  0  0  0  0  0  0  0  0  0  0  0
   45.3755   32.9042   48.3519 F   0  0  0  0  0  0  0  0  0  0  0  0
   47.6123   32.7732   48.1736 F   0  0  0  0  0  0  0  0  0  0  0  0
   46.3941   30.9996   47.5818 F   0  0  0  0  0  0  0  0  0  0  0  0
   44.5813   35.1510   43.8715 C   0  0  1  0  0  0  0  0  0  0  0  0
   44.9004   36.6000   44.3234 C   0  0  0  0  0  0  0  0  0  0  0  0
   44.9728   36.1844   42.9205 C   0  0  1  0  0  0  0  0  0  0  0  0
   46.6360   33.7888   42.5090 H   0  0  0  0  0  0  0  0  0  0  0  0
   48.1601   32.2043   43.4719 H   0  0  0  0  0  0  0  0  0  0  0  0
   43.5320   34.8390   44.0184 H   0  0  0  0  0  0  0  0  0  0  0  0
   43.9754   37.1257   44.7078 H   0  0  0  0  0  0  0  0  0  0  0  0
   45.6989   36.6587   45.0528 H   0  0  0  0  0  0  0  0  0  0  0  0
   44.0516   36.5946   42.3360 H   0  0  0  0  0  0  0  0  0  0  0  0
   45.3421   34.2125   40.4761 Cl  0  0  0  0  0  0  0  0  0  0  0  0
   46.4782   35.4430   40.9682 C   0  0  0  0  0  0  0  0  0  0  0  0
   46.1327   36.2070   42.0547 C   0  0  0  0  0  0  0  0  0  0  0  0
   47.1334   37.1529   42.3447 C   0  0  0  0  0  0  0  0  0  0  0  0
   47.0029   37.8377   43.1864 H   0  0  0  0  0  0  0  0  0  0  0  0
   48.3042   37.2946   41.6341 C   0  0  0  0  0  0  0  0  0  0  0  0
   48.5668   36.4801   40.5538 C   0  0  0  0  0  0  0  0  0  0  0  0
   50.0505   36.6943   39.6907 Cl  0  0  0  0  0  0  0  0  0  0  0  0
   47.6225   35.5337   40.2215 C   0  0  0  0  0  0  0  0  0  0  0  0
   47.8119   34.8926   39.3841 H   0  0  0  0  0  0  0  0  0  0  0  0
   49.0270   38.0422   41.9138 H   0  0  0  0  0  0  0  0  0  0  0  0
  1  6  2  0
  2  3  2  0
  2  1  1  0
  3  4  1  0
  4  5  2  0
  5  7  1  0
  6  5  1  0
  7  9  1  0
  7  8  1  0
 10  7  1  0
 11 12  1  0
 11  1  1  0
 13 11  1  0
 13 12  1  0
  2 14  1  0
  3 15  1  0
 11 16  1  6
 12 17  1  0
 12 18  1  0
 13 19  1  6
 20 21  1  0
 21 22  2  0
 22 23  1  0
 23 24  1  0
 23 25  2  0
 25 26  1  0
 26 27  1  0
 26 28  2  0
 28 29  1  0
 28 21  1  0
 25 30  1  0
 13 22  1  0
M  ISO  8  14  14  15  14  16  13  17  13  18  13  19  13  24  16  29  15
M  END
>  <DihAtoms>  (1) 
10,12,21,20

>  <DihDeg>  (1) 
-82.15852100489948

$$$$
