
 OpenBabel03242520083D

 50 54  0  0  1  0  0  0  0  0999 V2000
   35.0690   29.6940   40.0170 N   0  0  0  0  0  0  0  0  0  0  0  0
   35.9180   30.2430   40.9870 C   0  0  1  0  0  0  0  0  0  0  0  0
   36.6000   29.1210   41.7160 C   0  0  0  0  0  0  0  0  0  0  0  0
   37.4320   28.4820   40.7260 N   0  0  0  0  0  0  0  0  0  0  0  0
   36.6650   27.8110   39.7000 C   0  0  0  0  0  0  0  0  0  0  0  0
   35.4560   28.5780   39.2450 C   0  0  2  0  0  0  0  0  0  0  0  0
   34.0930   29.6410   40.4220 H   0  0  0  0  0  0  0  0  0  0  0  0
   35.3640   30.8240   41.7190 H   0  0  0  0  0  0  0  0  0  0  0  0
   35.8480   28.4280   42.1600 H   0  0  0  0  0  0  0  0  0  0  0  0
   37.2590   29.4610   42.5410 H   0  0  0  0  0  0  0  0  0  0  0  0
   38.0960   27.7700   41.1230 H   0  0  0  0  0  0  0  0  0  0  0  0
   37.3970   27.6080   38.8720 H   0  0  0  0  0  0  0  0  0  0  0  0
   36.4430   26.8000   40.1050 H   0  0  0  0  0  0  0  0  0  0  0  0
   34.6090   27.8430   39.3270 H   0  0  0  0  0  0  0  0  0  0  0  0
   38.8620   32.1010   40.3110 C   0  0  0  0  0  0  0  0  0  0  0  0
   38.1150   32.4310   39.1880 C   0  0  0  0  0  0  0  0  0  0  0  0
   36.9150   31.7840   39.2850 C   0  0  0  0  0  0  0  0  0  0  0  0
   36.9400   31.0830   40.4360 N   0  0  0  0  0  0  0  0  0  0  0  0
   38.1170   31.2860   41.0380 N   0  0  0  0  0  0  0  0  0  0  0  0
   38.3930   33.0810   38.3570 H   0  0  0  0  0  0  0  0  0  0  0  0
   36.0650   31.7970   38.5930 H   0  0  0  0  0  0  0  0  0  0  0  0
   41.9100   34.1500   40.4090 C   0  0  0  0  0  0  0  0  0  0  0  0
   42.7650   33.4120   41.2250 C   0  0  0  0  0  0  0  0  0  0  0  0
   42.2810   32.2150   41.7310 C   0  0  0  0  0  0  0  0  0  0  0  0
   41.0170   31.8390   41.4060 N   0  0  0  0  0  0  0  0  0  0  0  0
   40.2130   32.5740   40.6150 C   0  0  0  0  0  0  0  0  0  0  0  0
   40.6510   33.7390   40.1070 N   0  0  0  0  0  0  0  0  0  0  0  0
   42.2830   35.0850   40.0110 H   0  0  0  0  0  0  0  0  0  0  0  0
   43.7670   33.7390   41.4660 H   0  0  0  0  0  0  0  0  0  0  0  0
   42.9120   31.6300   42.3600 H   0  0  0  0  0  0  0  0  0  0  0  0
   35.6770   28.9150   37.7850 C   0  0  1  0  0  0  0  0  0  0  0  0
   35.4350   27.7520   36.8130 C   0  0  0  0  0  0  0  0  0  0  0  0
   34.5870   28.9620   36.8100 C   0  0  1  0  0  0  0  0  0  0  0  0
   36.6080   29.4890   37.5000 H   0  0  0  0  0  0  0  0  0  0  0  0
   34.9140   26.8440   37.2370 H   0  0  0  0  0  0  0  0  0  0  0  0
   36.1580   27.5500   36.0120 H   0  0  0  0  0  0  0  0  0  0  0  0
   34.6980   29.6070   35.9200 H   0  0  0  0  0  0  0  0  0  0  0  0
   33.1350   28.8980   37.2850 C   0  0  0  0  0  0  0  0  0  0  0  0
   33.0280   29.3000   38.3130 H   0  0  0  0  0  0  0  0  0  0  0  0
   32.8100   27.8460   37.1860 H   0  0  0  0  0  0  0  0  0  0  0  0
   30.6420   30.1060   38.6000 Cl  0  0  0  0  0  0  0  0  0  0  0  0
   31.1100   30.3230   36.9060 C   0  0  0  0  0  0  0  0  0  0  0  0
   32.2650   29.7220   36.4190 C   0  0  0  0  0  0  0  0  0  0  0  0
   32.5970   29.9200   35.0720 C   0  0  0  0  0  0  0  0  0  0  0  0
   33.4780   29.4860   34.6240 H   0  0  0  0  0  0  0  0  0  0  0  0
   31.7320   30.7050   34.3420 C   0  0  0  0  0  3  0  0  0  0  0  0
   30.5800   31.3170   34.7850 C   0  0  0  0  0  0  0  0  0  0  0  0
   29.6320   32.2740   33.6700 Cl  0  0  0  0  0  0  0  0  0  0  0  0
   30.2560   31.1140   36.1310 C   0  0  0  0  0  0  0  0  0  0  0  0
   29.3740   31.5780   36.4910 H   0  0  0  0  0  0  0  0  0  0  0  0
  1  7  1  0  0  0  0
  1  2  1  0  0  0  0
  2  3  1  0  0  0  0
  2  8  1  1  0  0  0
  3  9  1  0  0  0  0
  3 10  1  0  0  0  0
  4 11  1  0  0  0  0
  4  3  1  0  0  0  0
  5 13  1  0  0  0  0
  5  4  1  0  0  0  0
  6 14  1  1  0  0  0
  6  5  1  0  0  0  0
  6  1  1  0  0  0  0
 12  5  1  0  0  0  0
 15 26  1  0  0  0  0
 15 19  2  0  0  0  0
 16 17  2  0  0  0  0
 16 15  1  0  0  0  0
 17 18  1  0  0  0  0
 18  2  1  0  0  0  0
 18 19  1  0  0  0  0
 20 16  1  0  0  0  0
 21 17  1  0  0  0  0
 22 23  1  0  0  0  0
 23 29  1  0  0  0  0
 23 24  2  0  0  0  0
 24 30  1  0  0  0  0
 25 24  1  0  0  0  0
 26 25  2  0  0  0  0
 27 22  2  0  0  0  0
 27 26  1  0  0  0  0
 28 22  1  0  0  0  0
 31 34  1  6  0  0  0
 31  6  1  0  0  0  0
 32 35  1  0  0  0  0
 32 31  1  0  0  0  0
 33 37  1  6  0  0  0
 33 32  1  0  0  0  0
 33 38  1  0  0  0  0
 33 31  1  0  0  0  0
 36 32  1  0  0  0  0
 38 39  1  0  0  0  0
 40 38  1  0  0  0  0
 42 41  1  0  0  0  0
 43 42  1  0  0  0  0
 43 38  1  0  0  0  0
 44 43  2  0  0  0  0
 45 44  1  0  0  0  0
 46 47  2  0  0  0  0
 46 44  1  0  0  0  0
 47 49  1  0  0  0  0
 48 47  1  0  0  0  0
 49 50  1  0  0  0  0
 49 42  2  0  0  0  0
M  END
>  <minimizedAffinity>
-6.16974878

$$$$

 OpenBabel03242520083D

 50 54  0  0  1  0  0  0  0  0999 V2000
   39.0410   26.2860   41.0790 N   0  0  0  0  0  0  0  0  0  0  0  0
   39.2840   25.5010   39.9450 C   0  0  1  0  0  0  0  0  0  0  0  0
   39.4930   24.0800   40.3820 C   0  0  0  0  0  0  0  0  0  0  0  0
   38.2250   23.6650   40.9290 N   0  0  0  0  0  0  0  0  0  0  0  0
   37.8920   24.3590   42.1550 C   0  0  0  0  0  0  0  0  0  0  0  0
   38.2310   25.8220   42.1370 C   0  0  2  0  0  0  0  0  0  0  0  0
   39.9540   26.7310   41.3770 H   0  0  0  0  0  0  0  0  0  0  0  0
   40.1810   25.8220   39.4220 H   0  0  0  0  0  0  0  0  0  0  0  0
   40.3240   24.0160   41.1220 H   0  0  0  0  0  0  0  0  0  0  0  0
   39.7420   23.3890   39.5500 H   0  0  0  0  0  0  0  0  0  0  0  0
   38.1660   22.6370   41.1380 H   0  0  0  0  0  0  0  0  0  0  0  0
   36.7980   24.1600   42.3170 H   0  0  0  0  0  0  0  0  0  0  0  0
   38.3840   23.7820   42.9680 H   0  0  0  0  0  0  0  0  0  0  0  0
   38.8330   25.9820   43.0740 H   0  0  0  0  0  0  0  0  0  0  0  0
   36.4160   26.2430   37.9960 C   0  0  0  0  0  0  0  0  0  0  0  0
   36.7790   25.0320   37.4240 C   0  0  0  0  0  0  0  0  0  0  0  0
   37.8980   24.5870   38.0710 C   0  0  0  0  0  0  0  0  0  0  0  0
   38.2000   25.5090   39.0070 N   0  0  0  0  0  0  0  0  0  0  0  0
   37.2980   26.4960   38.9470 N   0  0  0  0  0  0  0  0  0  0  0  0
   36.2930   24.4950   36.6080 H   0  0  0  0  0  0  0  0  0  0  0  0
   38.4760   23.6720   37.9030 H   0  0  0  0  0  0  0  0  0  0  0  0
   33.8360   28.8600   37.9810 C   0  0  0  0  0  0  0  0  0  0  0  0
   33.1110   28.5870   36.8220 C   0  0  0  0  0  0  0  0  0  0  0  0
   33.5190   27.5030   36.0600 C   0  0  0  0  0  0  0  0  0  0  0  0
   34.5900   26.7810   36.4830 N   0  0  0  0  0  0  0  0  0  0  0  0
   35.2720   27.0690   37.6070 C   0  0  0  0  0  0  0  0  0  0  0  0
   34.9020   28.1130   38.3690 N   0  0  0  0  0  0  0  0  0  0  0  0
   33.5210   29.7040   38.5800 H   0  0  0  0  0  0  0  0  0  0  0  0
   32.2630   29.1810   36.5120 H   0  0  0  0  0  0  0  0  0  0  0  0
   32.9840   27.2710   35.1680 H   0  0  0  0  0  0  0  0  0  0  0  0
   36.9230   26.5750   42.2560 C   0  0  1  0  0  0  0  0  0  0  0  0
   36.5690   27.0310   43.6790 C   0  0  0  0  0  0  0  0  0  0  0  0
   36.8550   27.9950   42.5970 C   0  0  1  0  0  0  0  0  0  0  0  0
   36.0120   26.1570   41.7320 H   0  0  0  0  0  0  0  0  0  0  0  0
   37.3960   26.9650   44.4460 H   0  0  0  0  0  0  0  0  0  0  0  0
   35.5540   26.8790   44.0650 H   0  0  0  0  0  0  0  0  0  0  0  0
   35.9840   28.5830   42.2540 H   0  0  0  0  0  0  0  0  0  0  0  0
   38.1310   28.8370   42.6170 C   0  0  0  0  0  0  0  0  0  0  0  0
   38.9790   28.2970   42.1480 H   0  0  0  0  0  0  0  0  0  0  0  0
   38.3160   29.1160   43.6710 H   0  0  0  0  0  0  0  0  0  0  0  0
   40.5120   30.7690   42.5520 Cl  0  0  0  0  0  0  0  0  0  0  0  0
   38.9590   31.0340   41.7430 C   0  0  0  0  0  0  0  0  0  0  0  0
   37.9480   30.0850   41.8470 C   0  0  0  0  0  0  0  0  0  0  0  0
   36.7360   30.3360   41.1910 C   0  0  0  0  0  0  0  0  0  0  0  0
   35.9060   29.6460   41.2260 H   0  0  0  0  0  0  0  0  0  0  0  0
   36.6560   31.5210   40.4920 C   0  0  0  0  0  3  0  0  0  0  0  0
   37.6310   32.4850   40.3660 C   0  0  0  0  0  0  0  0  0  0  0  0
   37.3030   33.9200   39.4220 Cl  0  0  0  0  0  0  0  0  0  0  0  0
   38.8390   32.2260   41.0240 C   0  0  0  0  0  0  0  0  0  0  0  0
   39.6020   32.9570   40.9370 H   0  0  0  0  0  0  0  0  0  0  0  0
  1  7  1  0  0  0  0
  1  6  1  0  0  0  0
  2  8  1  6  0  0  0
  2  3  1  0  0  0  0
  2  1  1  0  0  0  0
  3  4  1  0  0  0  0
  3  9  1  0  0  0  0
  4 11  1  0  0  0  0
  4  5  1  0  0  0  0
  5 12  1  0  0  0  0
  5 13  1  0  0  0  0
  6  5  1  0  0  0  0
  6 31  1  0  0  0  0
  6 14  1  1  0  0  0
 10  3  1  0  0  0  0
 15 19  2  0  0  0  0
 16 15  1  0  0  0  0
 16 17  2  0  0  0  0
 17 18  1  0  0  0  0
 18  2  1  0  0  0  0
 19 18  1  0  0  0  0
 20 16  1  0  0  0  0
 21 17  1  0  0  0  0
 22 27  1  0  0  0  0
 22 28  1  0  0  0  0
 23 22  2  0  0  0  0
 24 25  2  0  0  0  0
 24 23  1  0  0  0  0
 25 26  1  0  0  0  0
 26 15  1  0  0  0  0
 26 27  2  0  0  0  0
 29 23  1  0  0  0  0
 30 24  1  0  0  0  0
 31 34  1  6  0  0  0
 31 33  1  0  0  0  0
 31 32  1  0  0  0  0
 32 36  1  0  0  0  0
 32 35  1  0  0  0  0
 33 37  1  6  0  0  0
 33 38  1  0  0  0  0
 33 32  1  0  0  0  0
 38 40  1  0  0  0  0
 39 38  1  0  0  0  0
 42 43  1  0  0  0  0
 42 41  1  0  0  0  0
 43 38  1  0  0  0  0
 44 45  1  0  0  0  0
 44 43  2  0  0  0  0
 46 44  1  0  0  0  0
 47 46  2  0  0  0  0
 47 49  1  0  0  0  0
 48 47  1  0  0  0  0
 49 42  2  0  0  0  0
 50 49  1  0  0  0  0
M  END
>  <minimizedAffinity>
-5.88829947

$$$$

 OpenBabel03242520083D

 50 54  0  0  1  0  0  0  0  0999 V2000
   39.1210   28.2550   41.3950 N   0  0  0  0  0  0  0  0  0  0  0  0
   39.3020   27.1100   42.1820 C   0  0  1  0  0  0  0  0  0  0  0  0
   38.8970   27.4300   43.5920 C   0  0  0  0  0  0  0  0  0  0  0  0
   37.4800   27.6880   43.5260 N   0  0  0  0  0  0  0  0  0  0  0  0
   37.1660   28.8960   42.7940 C   0  0  0  0  0  0  0  0  0  0  0  0
   37.9970   29.0920   41.5580 C   0  0  2  0  0  0  0  0  0  0  0  0
   40.0490   28.7600   41.3260 H   0  0  0  0  0  0  0  0  0  0  0  0
   40.3430   26.7980   42.1990 H   0  0  0  0  0  0  0  0  0  0  0  0
   39.4770   28.3000   43.9780 H   0  0  0  0  0  0  0  0  0  0  0  0
   39.0530   26.5910   44.3010 H   0  0  0  0  0  0  0  0  0  0  0  0
   37.0180   27.7750   44.4660 H   0  0  0  0  0  0  0  0  0  0  0  0
   36.0650   28.8320   42.5800 H   0  0  0  0  0  0  0  0  0  0  0  0
   37.2390   29.7220   43.5340 H   0  0  0  0  0  0  0  0  0  0  0  0
   38.4060   30.1350   41.6570 H   0  0  0  0  0  0  0  0  0  0  0  0
   37.0770   24.8920   40.5380 C   0  0  0  0  0  0  0  0  0  0  0  0
   37.5710   24.0420   41.5180 C   0  0  0  0  0  0  0  0  0  0  0  0
   38.4680   24.7510   42.2670 C   0  0  0  0  0  0  0  0  0  0  0  0
   38.5130   25.9950   41.7490 N   0  0  0  0  0  0  0  0  0  0  0  0
   37.6700   26.0600   40.7110 N   0  0  0  0  0  0  0  0  0  0  0  0
   37.3190   22.9950   41.6970 H   0  0  0  0  0  0  0  0  0  0  0  0
   39.0610   24.4240   43.1280 H   0  0  0  0  0  0  0  0  0  0  0  0
   34.5020   23.0910   38.6320 C   0  0  0  0  0  0  0  0  0  0  0  0
   34.2390   23.9460   37.5630 C   0  0  0  0  0  0  0  0  0  0  0  0
   34.9540   25.1330   37.5120 C   0  0  0  0  0  0  0  0  0  0  0  0
   35.8560   25.3900   38.4950 N   0  0  0  0  0  0  0  0  0  0  0  0
   36.0890   24.5430   39.5160 C   0  0  0  0  0  0  0  0  0  0  0  0
   35.4130   23.3840   39.5960 N   0  0  0  0  0  0  0  0  0  0  0  0
   33.9480   22.1620   38.6770 H   0  0  0  0  0  0  0  0  0  0  0  0
   33.5140   23.7140   36.7960 H   0  0  0  0  0  0  0  0  0  0  0  0
   34.7730   25.8080   36.7070 H   0  0  0  0  0  0  0  0  0  0  0  0
   37.0470   29.0450   40.3810 C   0  0  1  0  0  0  0  0  0  0  0  0
   35.6290   29.5550   40.6770 C   0  0  0  0  0  0  0  0  0  0  0  0
   36.5290   30.2490   39.7320 C   0  0  1  0  0  0  0  0  0  0  0  0
   37.0110   28.1030   39.7550 H   0  0  0  0  0  0  0  0  0  0  0  0
   35.4910   30.1120   41.6490 H   0  0  0  0  0  0  0  0  0  0  0  0
   34.7600   28.9830   40.3320 H   0  0  0  0  0  0  0  0  0  0  0  0
   36.2250   30.1930   38.6710 H   0  0  0  0  0  0  0  0  0  0  0  0
   37.1210   31.6160   40.0790 C   0  0  0  0  0  0  0  0  0  0  0  0
   37.3770   31.6850   41.1560 H   0  0  0  0  0  0  0  0  0  0  0  0
   36.3880   32.3760   39.7510 H   0  0  0  0  0  0  0  0  0  0  0  0
   38.8120   34.0190   40.9560 Cl  0  0  0  0  0  0  0  0  0  0  0  0
   39.2240   32.9050   39.6430 C   0  0  0  0  0  0  0  0  0  0  0  0
   38.3750   31.8480   39.3320 C   0  0  0  0  0  0  0  0  0  0  0  0
   38.7400   30.9920   38.2860 C   0  0  0  0  0  0  0  0  0  0  0  0
   38.1320   30.1510   37.9870 H   0  0  0  0  0  0  0  0  0  0  0  0
   39.9280   31.2810   37.6490 C   0  0  0  0  0  3  0  0  0  0  0  0
   40.7950   32.3140   37.9260 C   0  0  0  0  0  0  0  0  0  0  0  0
   42.2550   32.4870   36.9780 Cl  0  0  0  0  0  0  0  0  0  0  0  0
   40.4230   33.1650   38.9720 C   0  0  0  0  0  0  0  0  0  0  0  0
   41.0790   33.9660   39.2000 H   0  0  0  0  0  0  0  0  0  0  0  0
  1  6  1  0  0  0  0
  1  2  1  0  0  0  0
  2  8  1  6  0  0  0
  2  3  1  0  0  0  0
  3  9  1  0  0  0  0
  3 10  1  0  0  0  0
  4  3  1  0  0  0  0
  4 11  1  0  0  0  0
  5  4  1  0  0  0  0
  5 13  1  0  0  0  0
  6 14  1  1  0  0  0
  6  5  1  0  0  0  0
  7  1  1  0  0  0  0
 12  5  1  0  0  0  0
 15 19  2  0  0  0  0
 15 16  1  0  0  0  0
 16 20  1  0  0  0  0
 16 17  2  0  0  0  0
 17 21  1  0  0  0  0
 18  2  1  0  0  0  0
 18 17  1  0  0  0  0
 19 18  1  0  0  0  0
 22 28  1  0  0  0  0
 22 27  1  0  0  0  0
 23 22  2  0  0  0  0
 24 23  1  0  0  0  0
 24 25  2  0  0  0  0
 25 26  1  0  0  0  0
 26 27  2  0  0  0  0
 26 15  1  0  0  0  0
 29 23  1  0  0  0  0
 30 24  1  0  0  0  0
 31 34  1  6  0  0  0
 31 32  1  0  0  0  0
 31  6  1  0  0  0  0
 32 35  1  0  0  0  0
 33 37  1  6  0  0  0
 33 38  1  0  0  0  0
 33 31  1  0  0  0  0
 33 32  1  0  0  0  0
 36 32  1  0  0  0  0
 38 39  1  0  0  0  0
 40 38  1  0  0  0  0
 42 41  1  0  0  0  0
 43 42  1  0  0  0  0
 43 38  1  0  0  0  0
 44 43  2  0  0  0  0
 45 44  1  0  0  0  0
 46 47  2  0  0  0  0
 46 44  1  0  0  0  0
 47 49  1  0  0  0  0
 48 47  1  0  0  0  0
 49 50  1  0  0  0  0
 49 42  2  0  0  0  0
M  END
>  <minimizedAffinity>
-5.82111597

$$$$

 OpenBabel03242520083D

 50 54  0  0  1  0  0  0  0  0999 V2000
   40.2900   32.0580   38.9690 N   0  0  0  0  0  0  0  0  0  0  0  0
   41.4250   31.5910   39.6430 C   0  0  1  0  0  0  0  0  0  0  0  0
   42.1630   32.7690   40.2110 C   0  0  0  0  0  0  0  0  0  0  0  0
   41.2730   33.3280   41.1990 N   0  0  0  0  0  0  0  0  0  0  0  0
   40.0860   33.9130   40.6150 C   0  0  0  0  0  0  0  0  0  0  0  0
   39.5040   33.1090   39.4870 C   0  0  2  0  0  0  0  0  0  0  0  0
   40.5260   32.1420   37.9400 H   0  0  0  0  0  0  0  0  0  0  0  0
   42.1010   31.0690   38.9720 H   0  0  0  0  0  0  0  0  0  0  0  0
   42.4230   33.4940   39.4050 H   0  0  0  0  0  0  0  0  0  0  0  0
   43.1080   32.4980   40.7250 H   0  0  0  0  0  0  0  0  0  0  0  0
   41.7140   34.0710   41.7980 H   0  0  0  0  0  0  0  0  0  0  0  0
   39.3740   34.0510   41.4730 H   0  0  0  0  0  0  0  0  0  0  0  0
   40.3680   34.9530   40.3430 H   0  0  0  0  0  0  0  0  0  0  0  0
   39.3900   33.8470   38.6470 H   0  0  0  0  0  0  0  0  0  0  0  0
   39.9350   29.3270   41.9300 C   0  0  0  0  0  0  0  0  0  0  0  0
   41.1600   29.5160   42.5540 C   0  0  0  0  0  0  0  0  0  0  0  0
   41.8850   30.3860   41.7890 C   0  0  0  0  0  0  0  0  0  0  0  0
   41.1150   30.7110   40.7310 N   0  0  0  0  0  0  0  0  0  0  0  0
   39.9470   30.0660   40.8340 N   0  0  0  0  0  0  0  0  0  0  0  0
   41.5220   29.0740   43.4840 H   0  0  0  0  0  0  0  0  0  0  0  0
   42.8950   30.7760   41.9540 H   0  0  0  0  0  0  0  0  0  0  0  0
   36.9280   28.1410   43.6790 C   0  0  0  0  0  0  0  0  0  0  0  0
   36.8270   26.8120   43.2730 C   0  0  0  0  0  0  0  0  0  0  0  0
   37.7970   26.3390   42.4020 C   0  0  0  0  0  0  0  0  0  0  0  0
   38.7760   27.1910   42.0000 N   0  0  0  0  0  0  0  0  0  0  0  0
   38.8480   28.4720   42.4090 C   0  0  0  0  0  0  0  0  0  0  0  0
   37.9240   28.9610   43.2540 N   0  0  0  0  0  0  0  0  0  0  0  0
   36.1750   28.5150   44.3590 H   0  0  0  0  0  0  0  0  0  0  0  0
   36.0340   26.1580   43.6110 H   0  0  0  0  0  0  0  0  0  0  0  0
   37.7440   25.3260   42.0740 H   0  0  0  0  0  0  0  0  0  0  0  0
   38.1310   32.6570   39.9370 C   0  0  1  0  0  0  0  0  0  0  0  0
   36.9640   33.2260   39.1160 C   0  0  0  0  0  0  0  0  0  0  0  0
   37.2810   31.7830   39.1290 C   0  0  1  0  0  0  0  0  0  0  0  0
   37.8910   32.6800   41.0420 H   0  0  0  0  0  0  0  0  0  0  0  0
   37.2370   33.7330   38.1440 H   0  0  0  0  0  0  0  0  0  0  0  0
   36.0820   33.6290   39.6280 H   0  0  0  0  0  0  0  0  0  0  0  0
   36.5360   31.1460   39.6390 H   0  0  0  0  0  0  0  0  0  0  0  0
   37.8530   31.0980   37.8870 C   0  0  0  0  0  0  0  0  0  0  0  0
   38.7530   30.4990   38.1340 H   0  0  0  0  0  0  0  0  0  0  0  0
   38.0440   31.8920   37.1410 H   0  0  0  0  0  0  0  0  0  0  0  0
   36.5250   29.1300   39.8270 Cl  0  0  0  0  0  0  0  0  0  0  0  0
   36.2010   29.2260   38.0890 C   0  0  0  0  0  0  0  0  0  0  0  0
   36.8690   30.1620   37.3050 C   0  0  0  0  0  0  0  0  0  0  0  0
   36.5820   30.2030   35.9350 C   0  0  0  0  0  0  0  0  0  0  0  0
   37.0600   30.9010   35.2640 H   0  0  0  0  0  0  0  0  0  0  0  0
   35.6480   29.2960   35.4810 C   0  0  0  0  0  3  0  0  0  0  0  0
   34.9660   28.3570   36.2220 C   0  0  0  0  0  0  0  0  0  0  0  0
   33.8190   27.3030   35.4260 Cl  0  0  0  0  0  0  0  0  0  0  0  0
   35.2590   28.3220   37.5900 C   0  0  0  0  0  0  0  0  0  0  0  0
   34.7430   27.6050   38.1760 H   0  0  0  0  0  0  0  0  0  0  0  0
  1  6  1  0  0  0  0
  1  2  1  0  0  0  0
  2  8  1  6  0  0  0
  2  3  1  0  0  0  0
  2 18  1  0  0  0  0
  3 10  1  0  0  0  0
  3  4  1  0  0  0  0
  4 11  1  0  0  0  0
  5  4  1  0  0  0  0
  5 12  1  0  0  0  0
  6 14  1  6  0  0  0
  6 31  1  0  0  0  0
  6  5  1  0  0  0  0
  7  1  1  0  0  0  0
  9  3  1  0  0  0  0
 13  5  1  0  0  0  0
 15 26  1  0  0  0  0
 15 16  1  0  0  0  0
 16 20  1  0  0  0  0
 17 21  1  0  0  0  0
 17 16  2  0  0  0  0
 18 19  1  0  0  0  0
 18 17  1  0  0  0  0
 19 15  2  0  0  0  0
 22 28  1  0  0  0  0
 23 29  1  0  0  0  0
 23 22  1  0  0  0  0
 24 23  2  0  0  0  0
 25 24  1  0  0  0  0
 25 26  2  0  0  0  0
 26 27  1  0  0  0  0
 27 22  2  0  0  0  0
 30 24  1  0  0  0  0
 31 34  1  1  0  0  0
 32 33  1  0  0  0  0
 32 36  1  0  0  0  0
 32 31  1  0  0  0  0
 33 37  1  1  0  0  0
 33 31  1  0  0  0  0
 35 32  1  0  0  0  0
 38 39  1  0  0  0  0
 38 33  1  0  0  0  0
 40 38  1  0  0  0  0
 42 41  1  0  0  0  0
 43 38  1  0  0  0  0
 43 42  2  0  0  0  0
 44 43  1  0  0  0  0
 45 44  1  0  0  0  0
 46 44  2  0  0  0  0
 46 47  1  0  0  0  0
 47 49  2  0  0  0  0
 48 47  1  0  0  0  0
 49 42  1  0  0  0  0
 49 50  1  0  0  0  0
M  END
>  <minimizedAffinity>
-5.72038126

$$$$

 OpenBabel03242520083D

 50 54  0  0  1  0  0  0  0  0999 V2000
   37.8990   31.6960   41.0960 N   0  0  0  0  0  0  0  0  0  0  0  0
   37.1550   31.8070   39.9150 C   0  0  1  0  0  0  0  0  0  0  0  0
   37.3200   33.1980   39.3730 C   0  0  0  0  0  0  0  0  0  0  0  0
   38.7130   33.2990   39.0160 N   0  0  0  0  0  0  0  0  0  0  0  0
   39.5880   33.2700   40.1680 C   0  0  0  0  0  0  0  0  0  0  0  0
   39.1790   32.2770   41.2180 C   0  0  2  0  0  0  0  0  0  0  0  0
   37.2500   31.8680   41.9150 H   0  0  0  0  0  0  0  0  0  0  0  0
   36.0950   31.6450   40.0940 H   0  0  0  0  0  0  0  0  0  0  0  0
   37.0130   33.9530   40.1340 H   0  0  0  0  0  0  0  0  0  0  0  0
   36.7230   33.3940   38.4590 H   0  0  0  0  0  0  0  0  0  0  0  0
   38.9520   34.1670   38.4750 H   0  0  0  0  0  0  0  0  0  0  0  0
   40.6140   33.0760   39.7520 H   0  0  0  0  0  0  0  0  0  0  0  0
   39.6480   34.3200   40.5250 H   0  0  0  0  0  0  0  0  0  0  0  0
   39.1530   32.8720   42.1720 H   0  0  0  0  0  0  0  0  0  0  0  0
   38.5410   29.1440   38.0270 C   0  0  0  0  0  0  0  0  0  0  0  0
   37.9410   29.8660   37.0050 C   0  0  0  0  0  0  0  0  0  0  0  0
   37.3410   30.9580   37.5670 C   0  0  0  0  0  0  0  0  0  0  0  0
   37.5750   30.8940   38.8930 N   0  0  0  0  0  0  0  0  0  0  0  0
   38.2980   29.7980   39.1500 N   0  0  0  0  0  0  0  0  0  0  0  0
   37.9240   29.6420   35.9370 H   0  0  0  0  0  0  0  0  0  0  0  0
   36.7700   31.7590   37.0830 H   0  0  0  0  0  0  0  0  0  0  0  0
   40.2990   26.2820   36.5370 C   0  0  0  0  0  0  0  0  0  0  0  0
   40.7230   25.5550   37.6480 C   0  0  0  0  0  0  0  0  0  0  0  0
   40.3970   26.0590   38.8970 C   0  0  0  0  0  0  0  0  0  0  0  0
   39.6930   27.2190   38.9640 N   0  0  0  0  0  0  0  0  0  0  0  0
   39.2970   27.9010   37.8720 C   0  0  0  0  0  0  0  0  0  0  0  0
   39.5960   27.4390   36.6460 N   0  0  0  0  0  0  0  0  0  0  0  0
   40.5500   25.8930   35.5590 H   0  0  0  0  0  0  0  0  0  0  0  0
   41.2830   24.6340   37.5620 H   0  0  0  0  0  0  0  0  0  0  0  0
   40.7100   25.5240   39.7650 H   0  0  0  0  0  0  0  0  0  0  0  0
   40.2900   31.2520   41.3060 C   0  0  1  0  0  0  0  0  0  0  0  0
   40.9460   31.1300   42.6890 C   0  0  0  0  0  0  0  0  0  0  0  0
   40.1720   30.0220   42.0900 C   0  0  1  0  0  0  0  0  0  0  0  0
   41.0710   31.2330   40.4890 H   0  0  0  0  0  0  0  0  0  0  0  0
   40.4090   31.6360   43.5440 H   0  0  0  0  0  0  0  0  0  0  0  0
   42.0380   31.0920   42.7730 H   0  0  0  0  0  0  0  0  0  0  0  0
   40.7710   29.1420   41.7930 H   0  0  0  0  0  0  0  0  0  0  0  0
   38.8170   29.6140   42.6700 C   0  0  0  0  0  0  0  0  0  0  0  0
   37.9850   30.1520   42.1710 H   0  0  0  0  0  0  0  0  0  0  0  0
   38.8670   29.7930   43.7600 H   0  0  0  0  0  0  0  0  0  0  0  0
   36.0660   28.8400   41.5600 Cl  0  0  0  0  0  0  0  0  0  0  0  0
   37.3630   27.7020   41.9590 C   0  0  0  0  0  0  0  0  0  0  0  0
   38.5720   28.1720   42.4610 C   0  0  0  0  0  0  0  0  0  0  0  0
   39.5700   27.2370   42.7640 C   0  0  0  0  0  0  0  0  0  0  0  0
   40.5340   27.5260   43.1570 H   0  0  0  0  0  0  0  0  0  0  0  0
   39.2560   25.9150   42.5330 C   0  0  0  0  0  3  0  0  0  0  0  0
   38.0740   25.4100   42.0380 C   0  0  0  0  0  0  0  0  0  0  0  0
   37.8990   23.6830   41.8270 Cl  0  0  0  0  0  0  0  0  0  0  0  0
   37.0820   26.3510   41.7380 C   0  0  0  0  0  0  0  0  0  0  0  0
   36.1660   25.9810   41.3560 H   0  0  0  0  0  0  0  0  0  0  0  0
  1  6  1  0  0  0  0
  1  7  1  0  0  0  0
  2  8  1  1  0  0  0
  2  1  1  0  0  0  0
  3  2  1  0  0  0  0
  3  9  1  0  0  0  0
  4  3  1  0  0  0  0
  4  5  1  0  0  0  0
  5 13  1  0  0  0  0
  5  6  1  0  0  0  0
  6 31  1  0  0  0  0
  6 14  1  1  0  0  0
 10  3  1  0  0  0  0
 11  4  1  0  0  0  0
 12  5  1  0  0  0  0
 15 19  2  0  0  0  0
 16 17  2  0  0  0  0
 16 15  1  0  0  0  0
 17 18  1  0  0  0  0
 18 19  1  0  0  0  0
 18  2  1  0  0  0  0
 20 16  1  0  0  0  0
 21 17  1  0  0  0  0
 22 27  2  0  0  0  0
 22 23  1  0  0  0  0
 23 24  2  0  0  0  0
 24 25  1  0  0  0  0
 24 30  1  0  0  0  0
 26 15  1  0  0  0  0
 26 25  2  0  0  0  0
 27 26  1  0  0  0  0
 28 22  1  0  0  0  0
 29 23  1  0  0  0  0
 31 34  1  6  0  0  0
 31 33  1  0  0  0  0
 31 32  1  0  0  0  0
 32 36  1  0  0  0  0
 32 35  1  0  0  0  0
 33 37  1  6  0  0  0
 33 38  1  0  0  0  0
 33 32  1  0  0  0  0
 38 40  1  0  0  0  0
 39 38  1  0  0  0  0
 41 42  1  0  0  0  0
 42 43  1  0  0  0  0
 43 38  1  0  0  0  0
 43 44  2  0  0  0  0
 44 45  1  0  0  0  0
 46 44  1  0  0  0  0
 47 46  2  0  0  0  0
 48 47  1  0  0  0  0
 49 42  2  0  0  0  0
 49 47  1  0  0  0  0
 50 49  1  0  0  0  0
M  END
>  <minimizedAffinity>
-5.71608591

$$$$

 OpenBabel03242520083D

 50 54  0  0  1  0  0  0  0  0999 V2000
   36.7700   27.7010   39.7790 N   0  0  0  0  0  0  0  0  0  0  0  0
   37.1580   28.5660   38.7490 C   0  0  1  0  0  0  0  0  0  0  0  0
   36.1590   29.6840   38.6610 C   0  0  0  0  0  0  0  0  0  0  0  0
   36.2920   30.4060   39.9020 N   0  0  0  0  0  0  0  0  0  0  0  0
   35.8510   29.6360   41.0450 C   0  0  0  0  0  0  0  0  0  0  0  0
   36.2560   28.1910   40.9990 C   0  0  2  0  0  0  0  0  0  0  0  0
   36.2240   26.9010   39.3530 H   0  0  0  0  0  0  0  0  0  0  0  0
   37.1730   28.0600   37.7870 H   0  0  0  0  0  0  0  0  0  0  0  0
   35.1320   29.2800   38.5050 H   0  0  0  0  0  0  0  0  0  0  0  0
   36.3590   30.3970   37.8340 H   0  0  0  0  0  0  0  0  0  0  0  0
   35.7650   31.3140   39.9260 H   0  0  0  0  0  0  0  0  0  0  0  0
   36.2570   30.1810   41.9400 H   0  0  0  0  0  0  0  0  0  0  0  0
   34.7540   29.8060   41.1140 H   0  0  0  0  0  0  0  0  0  0  0  0
   35.3000   27.6250   41.1750 H   0  0  0  0  0  0  0  0  0  0  0  0
   40.0190   30.6590   38.8390 C   0  0  0  0  0  0  0  0  0  0  0  0
   40.5060   29.5690   39.5470 C   0  0  0  0  0  0  0  0  0  0  0  0
   39.5070   28.6380   39.6110 C   0  0  0  0  0  0  0  0  0  0  0  0
   38.4470   29.1560   38.9590 N   0  0  0  0  0  0  0  0  0  0  0  0
   38.7740   30.3710   38.5020 N   0  0  0  0  0  0  0  0  0  0  0  0
   41.4940   29.4350   39.9890 H   0  0  0  0  0  0  0  0  0  0  0  0
   39.5120   27.6510   40.0860 H   0  0  0  0  0  0  0  0  0  0  0  0
   41.3010   34.1000   38.9870 C   0  0  0  0  0  0  0  0  0  0  0  0
   42.1770   34.1610   37.9050 C   0  0  0  0  0  0  0  0  0  0  0  0
   42.3150   33.0160   37.1370 C   0  0  0  0  0  0  0  0  0  0  0  0
   41.5970   31.9140   37.4800 N   0  0  0  0  0  0  0  0  0  0  0  0
   40.7580   31.8850   38.5330 C   0  0  0  0  0  0  0  0  0  0  0  0
   40.6010   32.9790   39.2980 N   0  0  0  0  0  0  0  0  0  0  0  0
   41.1890   34.9910   39.5910 H   0  0  0  0  0  0  0  0  0  0  0  0
   42.7360   35.0530   37.6570 H   0  0  0  0  0  0  0  0  0  0  0  0
   42.9800   33.0320   36.3030 H   0  0  0  0  0  0  0  0  0  0  0  0
   37.1880   27.9610   42.1700 C   0  0  1  0  0  0  0  0  0  0  0  0
   36.4950   27.5330   43.4710 C   0  0  0  0  0  0  0  0  0  0  0  0
   37.4220   26.6380   42.7480 C   0  0  1  0  0  0  0  0  0  0  0  0
   37.9910   28.7310   42.3780 H   0  0  0  0  0  0  0  0  0  0  0  0
   35.4140   27.2190   43.3820 H   0  0  0  0  0  0  0  0  0  0  0  0
   36.7720   28.0090   44.4200 H   0  0  0  0  0  0  0  0  0  0  0  0
   38.3810   26.4450   43.2640 H   0  0  0  0  0  0  0  0  0  0  0  0
   36.9040   25.3900   42.0330 C   0  0  0  0  0  0  0  0  0  0  0  0
   35.9960   25.6140   41.4370 H   0  0  0  0  0  0  0  0  0  0  0  0
   36.7440   24.6180   42.8080 H   0  0  0  0  0  0  0  0  0  0  0  0
   35.8690   23.5870   39.7790 Cl  0  0  0  0  0  0  0  0  0  0  0  0
   37.5610   24.0500   40.0210 C   0  0  0  0  0  0  0  0  0  0  0  0
   37.9130   24.8740   41.0840 C   0  0  0  0  0  0  0  0  0  0  0  0
   39.2630   25.2160   41.2380 C   0  0  0  0  0  0  0  0  0  0  0  0
   39.6120   25.8500   42.0380 H   0  0  0  0  0  0  0  0  0  0  0  0
   40.1330   24.6940   40.3040 C   0  0  0  0  0  3  0  0  0  0  0  0
   39.8250   23.8760   39.2400 C   0  0  0  0  0  0  0  0  0  0  0  0
   41.1030   23.3310   38.1780 Cl  0  0  0  0  0  0  0  0  0  0  0  0
   38.4750   23.5400   39.0930 C   0  0  0  0  0  0  0  0  0  0  0  0
   38.2190   22.9120   38.2790 H   0  0  0  0  0  0  0  0  0  0  0  0
  1  6  1  0  0  0  0
  2  8  1  6  0  0  0
  2 18  1  0  0  0  0
  2  1  1  0  0  0  0
  3  2  1  0  0  0  0
  3  4  1  0  0  0  0
  4 11  1  0  0  0  0
  4  5  1  0  0  0  0
  5 13  1  0  0  0  0
  5 12  1  0  0  0  0
  6  5  1  0  0  0  0
  6 14  1  1  0  0  0
  6 31  1  0  0  0  0
  7  1  1  0  0  0  0
  9  3  1  0  0  0  0
 10  3  1  0  0  0  0
 15 16  1  0  0  0  0
 16 17  2  0  0  0  0
 16 20  1  0  0  0  0
 17 21  1  0  0  0  0
 18 17  1  0  0  0  0
 19 15  2  0  0  0  0
 19 18  1  0  0  0  0
 22 27  1  0  0  0  0
 22 28  1  0  0  0  0
 23 22  2  0  0  0  0
 24 25  2  0  0  0  0
 24 23  1  0  0  0  0
 25 26  1  0  0  0  0
 26 15  1  0  0  0  0
 26 27  2  0  0  0  0
 29 23  1  0  0  0  0
 30 24  1  0  0  0  0
 31 34  1  1  0  0  0
 31 33  1  0  0  0  0
 31 32  1  0  0  0  0
 32 36  1  0  0  0  0
 33 37  1  1  0  0  0
 33 32  1  0  0  0  0
 35 32  1  0  0  0  0
 38 33  1  0  0  0  0
 38 40  1  0  0  0  0
 39 38  1  0  0  0  0
 41 42  1  0  0  0  0
 42 43  1  0  0  0  0
 43 44  2  0  0  0  0
 43 38  1  0  0  0  0
 44 45  1  0  0  0  0
 46 44  1  0  0  0  0
 47 46  2  0  0  0  0
 48 47  1  0  0  0  0
 49 47  1  0  0  0  0
 49 42  2  0  0  0  0
 50 49  1  0  0  0  0
M  END
>  <minimizedAffinity>
-5.70772076

$$$$

 OpenBabel03242520083D

 50 54  0  0  1  0  0  0  0  0999 V2000
   38.6460   31.8920   41.2530 N   0  0  0  0  0  0  0  0  0  0  0  0
   37.5060   31.7440   40.4530 C   0  0  1  0  0  0  0  0  0  0  0  0
   37.2970   33.0140   39.6780 C   0  0  0  0  0  0  0  0  0  0  0  0
   38.4350   33.1060   38.7960 N   0  0  0  0  0  0  0  0  0  0  0  0
   39.6740   33.3330   39.5050 C   0  0  0  0  0  0  0  0  0  0  0  0
   39.8040   32.5410   40.7750 C   0  0  2  0  0  0  0  0  0  0  0  0
   38.3350   32.1870   42.2220 H   0  0  0  0  0  0  0  0  0  0  0  0
   36.6160   31.5730   41.0530 H   0  0  0  0  0  0  0  0  0  0  0  0
   37.2150   33.8850   40.3680 H   0  0  0  0  0  0  0  0  0  0  0  0
   36.3840   33.0070   39.0490 H   0  0  0  0  0  0  0  0  0  0  0  0
   38.3540   33.8660   38.0750 H   0  0  0  0  0  0  0  0  0  0  0  0
   40.4850   33.1090   38.7600 H   0  0  0  0  0  0  0  0  0  0  0  0
   39.7440   34.4340   39.6410 H   0  0  0  0  0  0  0  0  0  0  0  0
   40.0700   33.3040   41.5570 H   0  0  0  0  0  0  0  0  0  0  0  0
   37.2310   29.5570   37.6750 C   0  0  0  0  0  0  0  0  0  0  0  0
   38.1300   28.8370   38.4500 C   0  0  0  0  0  0  0  0  0  0  0  0
   38.3560   29.5520   39.5920 C   0  0  0  0  0  0  0  0  0  0  0  0
   37.6130   30.6740   39.5060 N   0  0  0  0  0  0  0  0  0  0  0  0
   36.9440   30.6580   38.3470 N   0  0  0  0  0  0  0  0  0  0  0  0
   38.5950   27.8750   38.2300 H   0  0  0  0  0  0  0  0  0  0  0  0
   39.0040   29.3100   40.4430 H   0  0  0  0  0  0  0  0  0  0  0  0
   36.0700   29.6670   34.1900 C   0  0  0  0  0  0  0  0  0  0  0  0
   35.7290   28.3420   33.9250 C   0  0  0  0  0  0  0  0  0  0  0  0
   35.9020   27.4260   34.9520 C   0  0  0  0  0  0  0  0  0  0  0  0
   36.3890   27.8690   36.1400 N   0  0  0  0  0  0  0  0  0  0  0  0
   36.7110   29.1570   36.3670 C   0  0  0  0  0  0  0  0  0  0  0  0
   36.5550   30.0710   35.3930 N   0  0  0  0  0  0  0  0  0  0  0  0
   35.9360   30.3870   33.3930 H   0  0  0  0  0  0  0  0  0  0  0  0
   35.3430   28.0200   32.9680 H   0  0  0  0  0  0  0  0  0  0  0  0
   35.6500   26.4050   34.7780 H   0  0  0  0  0  0  0  0  0  0  0  0
   40.9750   31.6000   40.5850 C   0  0  1  0  0  0  0  0  0  0  0  0
   42.1290   31.7990   41.5780 C   0  0  0  0  0  0  0  0  0  0  0  0
   41.3220   30.5620   41.5550 C   0  0  1  0  0  0  0  0  0  0  0  0
   41.3710   31.4380   39.5380 H   0  0  0  0  0  0  0  0  0  0  0  0
   41.9120   32.4550   42.4710 H   0  0  0  0  0  0  0  0  0  0  0  0
   43.1630   31.8210   41.2150 H   0  0  0  0  0  0  0  0  0  0  0  0
   41.8580   29.6620   41.2020 H   0  0  0  0  0  0  0  0  0  0  0  0
   40.3610   30.2350   42.6990 C   0  0  0  0  0  0  0  0  0  0  0  0
   39.3510   30.6530   42.5110 H   0  0  0  0  0  0  0  0  0  0  0  0
   40.8280   30.6110   43.6280 H   0  0  0  0  0  0  0  0  0  0  0  0
   37.4990   29.2210   43.1340 Cl  0  0  0  0  0  0  0  0  0  0  0  0
   38.9420   28.1980   43.0360 C   0  0  0  0  0  0  0  0  0  0  0  0
   40.1930   28.7730   42.8390 C   0  0  0  0  0  0  0  0  0  0  0  0
   41.3060   27.9260   42.7690 C   0  0  0  0  0  0  0  0  0  0  0  0
   42.3080   28.2990   42.6180 H   0  0  0  0  0  0  0  0  0  0  0  0
   41.0550   26.5780   42.9050 C   0  0  0  0  0  3  0  0  0  0  0  0
   39.8350   25.9700   43.1010 C   0  0  0  0  0  0  0  0  0  0  0  0
   39.7560   24.2290   43.2470 Cl  0  0  0  0  0  0  0  0  0  0  0  0
   38.7280   26.8230   43.1700 C   0  0  0  0  0  0  0  0  0  0  0  0
   37.7800   26.3730   43.3200 H   0  0  0  0  0  0  0  0  0  0  0  0
  1  7  1  0  0  0  0
  2  8  1  1  0  0  0
  2  1  1  0  0  0  0
  3  9  1  0  0  0  0
  3  2  1  0  0  0  0
  4  5  1  0  0  0  0
  4  3  1  0  0  0  0
  5 13  1  0  0  0  0
  5  6  1  0  0  0  0
  6  1  1  0  0  0  0
  6 14  1  1  0  0  0
 10  3  1  0  0  0  0
 11  4  1  0  0  0  0
 12  5  1  0  0  0  0
 15 19  2  0  0  0  0
 15 16  1  0  0  0  0
 16 17  2  0  0  0  0
 17 21  1  0  0  0  0
 18 17  1  0  0  0  0
 18  2  1  0  0  0  0
 19 18  1  0  0  0  0
 20 16  1  0  0  0  0
 22 27  1  0  0  0  0
 23 22  2  0  0  0  0
 23 24  1  0  0  0  0
 24 25  2  0  0  0  0
 25 26  1  0  0  0  0
 26 15  1  0  0  0  0
 27 26  2  0  0  0  0
 28 22  1  0  0  0  0
 29 23  1  0  0  0  0
 30 24  1  0  0  0  0
 31 34  1  6  0  0  0
 31  6  1  0  0  0  0
 31 33  1  0  0  0  0
 31 32  1  0  0  0  0
 32 35  1  0  0  0  0
 33 37  1  6  0  0  0
 33 32  1  0  0  0  0
 33 38  1  0  0  0  0
 36 32  1  0  0  0  0
 38 43  1  0  0  0  0
 38 40  1  0  0  0  0
 39 38  1  0  0  0  0
 42 41  1  0  0  0  0
 42 49  1  0  0  0  0
 43 42  2  0  0  0  0
 44 43  1  0  0  0  0
 44 46  2  0  0  0  0
 45 44  1  0  0  0  0
 46 47  1  0  0  0  0
 47 49  2  0  0  0  0
 47 48  1  0  0  0  0
 49 50  1  0  0  0  0
M  END
>  <minimizedAffinity>
-5.70199347

$$$$

 OpenBabel03242520083D

 50 54  0  0  1  0  0  0  0  0999 V2000
   37.5260   29.9300   39.8210 N   0  0  0  0  0  0  0  0  0  0  0  0
   38.0720   30.4220   38.6290 C   0  0  1  0  0  0  0  0  0  0  0  0
   38.1960   31.9140   38.7390 C   0  0  0  0  0  0  0  0  0  0  0  0
   39.1670   32.1340   39.7820 N   0  0  0  0  0  0  0  0  0  0  0  0
   38.6880   31.7300   41.0850 C   0  0  0  0  0  0  0  0  0  0  0  0
   37.9120   30.4440   41.0770 C   0  0  2  0  0  0  0  0  0  0  0  0
   36.4810   29.8180   39.6860 H   0  0  0  0  0  0  0  0  0  0  0  0
   37.4330   30.2040   37.7770 H   0  0  0  0  0  0  0  0  0  0  0  0
   37.2060   32.3730   38.9670 H   0  0  0  0  0  0  0  0  0  0  0  0
   38.5770   32.3990   37.8170 H   0  0  0  0  0  0  0  0  0  0  0  0
   39.4790   33.1340   39.8700 H   0  0  0  0  0  0  0  0  0  0  0  0
   39.6040   31.6900   41.7350 H   0  0  0  0  0  0  0  0  0  0  0  0
   38.1270   32.6040   41.4820 H   0  0  0  0  0  0  0  0  0  0  0  0
   36.9550   30.6900   41.6130 H   0  0  0  0  0  0  0  0  0  0  0  0
   41.4230   29.8870   37.5990 C   0  0  0  0  0  0  0  0  0  0  0  0
   41.1540   28.6490   38.1680 C   0  0  0  0  0  0  0  0  0  0  0  0
   39.8680   28.6780   38.6300 C   0  0  0  0  0  0  0  0  0  0  0  0
   39.3770   29.9000   38.3470 N   0  0  0  0  0  0  0  0  0  0  0  0
   40.3260   30.6130   37.7270 N   0  0  0  0  0  0  0  0  0  0  0  0
   41.8150   27.7850   38.2530 H   0  0  0  0  0  0  0  0  0  0  0  0
   39.2990   27.8910   39.1380 H   0  0  0  0  0  0  0  0  0  0  0  0
   44.2090   30.2080   35.2240 C   0  0  0  0  0  0  0  0  0  0  0  0
   45.0730   31.0950   35.8640 C   0  0  0  0  0  0  0  0  0  0  0  0
   44.6860   31.5710   37.1070 C   0  0  0  0  0  0  0  0  0  0  0  0
   43.5000   31.1500   37.6210 N   0  0  0  0  0  0  0  0  0  0  0  0
   42.6850   30.2920   36.9790 C   0  0  0  0  0  0  0  0  0  0  0  0
   43.0310   29.8110   35.7720 N   0  0  0  0  0  0  0  0  0  0  0  0
   44.5070   29.8320   34.2540 H   0  0  0  0  0  0  0  0  0  0  0  0
   46.0110   31.4110   35.4290 H   0  0  0  0  0  0  0  0  0  0  0  0
   45.3260   32.2520   37.6200 H   0  0  0  0  0  0  0  0  0  0  0  0
   38.7020   29.4520   41.9060 C   0  0  1  0  0  0  0  0  0  0  0  0
   38.1430   29.2010   43.3140 C   0  0  0  0  0  0  0  0  0  0  0  0
   38.1760   28.1410   42.2850 C   0  0  1  0  0  0  0  0  0  0  0  0
   39.8280   29.5500   41.9330 H   0  0  0  0  0  0  0  0  0  0  0  0
   37.1040   29.5930   43.5170 H   0  0  0  0  0  0  0  0  0  0  0  0
   38.8210   29.1910   44.1760 H   0  0  0  0  0  0  0  0  0  0  0  0
   38.8880   27.3200   42.4840 H   0  0  0  0  0  0  0  0  0  0  0  0
   36.8820   27.6270   41.6530 C   0  0  0  0  0  0  0  0  0  0  0  0
   36.6180   28.2040   40.7440 H   0  0  0  0  0  0  0  0  0  0  0  0
   36.1040   27.6620   42.4380 H   0  0  0  0  0  0  0  0  0  0  0  0
   36.0560   26.9690   38.7740 Cl  0  0  0  0  0  0  0  0  0  0  0  0
   36.6910   25.8030   39.9460 C   0  0  0  0  0  0  0  0  0  0  0  0
   37.0300   26.2190   41.2290 C   0  0  0  0  0  0  0  0  0  0  0  0
   37.5280   25.2630   42.1240 C   0  0  0  0  0  0  0  0  0  0  0  0
   37.8130   25.5110   43.1360 H   0  0  0  0  0  0  0  0  0  0  0  0
   37.6380   23.9770   41.6420 C   0  0  0  0  0  3  0  0  0  0  0  0
   37.3140   23.5250   40.3820 C   0  0  0  0  0  0  0  0  0  0  0  0
   37.5370   21.8360   39.9900 Cl  0  0  0  0  0  0  0  0  0  0  0  0
   36.8170   24.4860   39.4940 C   0  0  0  0  0  0  0  0  0  0  0  0
   36.5620   24.1580   38.5190 H   0  0  0  0  0  0  0  0  0  0  0  0
  1  6  1  0  0  0  0
  2  8  1  6  0  0  0
  2  3  1  0  0  0  0
  2  1  1  0  0  0  0
  3  9  1  0  0  0  0
  3  4  1  0  0  0  0
  4 11  1  0  0  0  0
  4  5  1  0  0  0  0
  5 13  1  0  0  0  0
  5 12  1  0  0  0  0
  6  5  1  0  0  0  0
  6 14  1  1  0  0  0
  6 31  1  0  0  0  0
  7  1  1  0  0  0  0
 10  3  1  0  0  0  0
 15 19  2  0  0  0  0
 15 16  1  0  0  0  0
 16 20  1  0  0  0  0
 16 17  2  0  0  0  0
 17 21  1  0  0  0  0
 18  2  1  0  0  0  0
 18 17  1  0  0  0  0
 19 18  1  0  0  0  0
 22 27  2  0  0  0  0
 22 23  1  0  0  0  0
 23 24  2  0  0  0  0
 24 30  1  0  0  0  0
 24 25  1  0  0  0  0
 26 15  1  0  0  0  0
 26 25  2  0  0  0  0
 27 26  1  0  0  0  0
 28 22  1  0  0  0  0
 29 23  1  0  0  0  0
 31 34  1  6  0  0  0
 31 33  1  0  0  0  0
 31 32  1  0  0  0  0
 32 35  1  0  0  0  0
 32 36  1  0  0  0  0
 33 37  1  1  0  0  0
 33 32  1  0  0  0  0
 38 33  1  0  0  0  0
 38 40  1  0  0  0  0
 39 38  1  0  0  0  0
 41 42  1  0  0  0  0
 42 43  1  0  0  0  0
 43 38  1  0  0  0  0
 43 44  2  0  0  0  0
 44 45  1  0  0  0  0
 46 44  1  0  0  0  0
 47 46  2  0  0  0  0
 48 47  1  0  0  0  0
 49 42  2  0  0  0  0
 49 47  1  0  0  0  0
 50 49  1  0  0  0  0
M  END
>  <minimizedAffinity>
-5.69640017

$$$$

 OpenBabel03242520083D

 50 54  0  0  1  0  0  0  0  0999 V2000
   38.1130   30.4970   41.0690 N   0  0  0  0  0  0  0  0  0  0  0  0
   38.3290   31.5880   40.2170 C   0  0  1  0  0  0  0  0  0  0  0  0
   38.8420   32.7390   41.0330 C   0  0  0  0  0  0  0  0  0  0  0  0
   40.1300   32.3100   41.5190 N   0  0  0  0  0  0  0  0  0  0  0  0
   40.0350   31.2260   42.4720 C   0  0  0  0  0  0  0  0  0  0  0  0
   39.0130   30.1860   42.1110 C   0  0  2  0  0  0  0  0  0  0  0  0
   37.0910   30.4880   41.3440 H   0  0  0  0  0  0  0  0  0  0  0  0
   37.4080   31.9070   39.7370 H   0  0  0  0  0  0  0  0  0  0  0  0
   38.1310   32.9840   41.8550 H   0  0  0  0  0  0  0  0  0  0  0  0
   38.9960   33.6680   40.4460 H   0  0  0  0  0  0  0  0  0  0  0  0
   40.6870   33.0720   41.9810 H   0  0  0  0  0  0  0  0  0  0  0  0
   41.0770   30.8130   42.5520 H   0  0  0  0  0  0  0  0  0  0  0  0
   39.8710   31.7100   43.4590 H   0  0  0  0  0  0  0  0  0  0  0  0
   38.3830   30.0790   43.0360 H   0  0  0  0  0  0  0  0  0  0  0  0
   40.5830   30.1380   37.8950 C   0  0  0  0  0  0  0  0  0  0  0  0
   40.7600   31.4790   37.5840 C   0  0  0  0  0  0  0  0  0  0  0  0
   39.9450   32.2050   38.4070 C   0  0  0  0  0  0  0  0  0  0  0  0
   39.2940   31.3220   39.1910 N   0  0  0  0  0  0  0  0  0  0  0  0
   39.6910   30.0860   38.8690 N   0  0  0  0  0  0  0  0  0  0  0  0
   41.4160   31.9200   36.8320 H   0  0  0  0  0  0  0  0  0  0  0  0
   39.8070   33.2910   38.4610 H   0  0  0  0  0  0  0  0  0  0  0  0
   43.0740   28.1150   36.1030 C   0  0  0  0  0  0  0  0  0  0  0  0
   42.4940   26.8490   36.0720 C   0  0  0  0  0  0  0  0  0  0  0  0
   41.2500   26.7070   36.6680 C   0  0  0  0  0  0  0  0  0  0  0  0
   40.6780   27.7980   37.2420 N   0  0  0  0  0  0  0  0  0  0  0  0
   41.2640   29.0100   37.2560 C   0  0  0  0  0  0  0  0  0  0  0  0
   42.4690   29.1820   36.6870 N   0  0  0  0  0  0  0  0  0  0  0  0
   44.0440   28.2330   35.6380 H   0  0  0  0  0  0  0  0  0  0  0  0
   42.9750   25.9990   35.6080 H   0  0  0  0  0  0  0  0  0  0  0  0
   40.7830   25.7480   36.6610 H   0  0  0  0  0  0  0  0  0  0  0  0
   39.7690   28.8950   41.8750 C   0  0  1  0  0  0  0  0  0  0  0  0
   39.9280   28.0070   43.1170 C   0  0  0  0  0  0  0  0  0  0  0  0
   39.1310   27.5810   41.9480 C   0  0  1  0  0  0  0  0  0  0  0  0
   40.7330   28.9350   41.2860 H   0  0  0  0  0  0  0  0  0  0  0  0
   39.2940   28.2780   44.0120 H   0  0  0  0  0  0  0  0  0  0  0  0
   40.9020   27.5590   43.3470 H   0  0  0  0  0  0  0  0  0  0  0  0
   39.5660   26.7470   41.3670 H   0  0  0  0  0  0  0  0  0  0  0  0
   37.6090   27.4750   42.0370 C   0  0  0  0  0  0  0  0  0  0  0  0
   37.1150   28.3580   41.5830 H   0  0  0  0  0  0  0  0  0  0  0  0
   37.3580   27.3290   43.1040 H   0  0  0  0  0  0  0  0  0  0  0  0
   36.8240   27.9260   39.1070 Cl  0  0  0  0  0  0  0  0  0  0  0  0
   36.7410   26.3760   39.9600 C   0  0  0  0  0  0  0  0  0  0  0  0
   37.1220   26.2930   41.2950 C   0  0  0  0  0  0  0  0  0  0  0  0
   37.0400   25.0470   41.9300 C   0  0  0  0  0  0  0  0  0  0  0  0
   37.3180   24.9050   42.9630 H   0  0  0  0  0  0  0  0  0  0  0  0
   36.5810   24.0000   41.1600 C   0  0  0  0  0  3  0  0  0  0  0  0
   36.1940   24.0410   39.8390 C   0  0  0  0  0  0  0  0  0  0  0  0
   35.6400   22.5760   39.0610 Cl  0  0  0  0  0  0  0  0  0  0  0  0
   36.2790   25.2890   39.2110 C   0  0  0  0  0  0  0  0  0  0  0  0
   35.9870   25.3390   38.1940 H   0  0  0  0  0  0  0  0  0  0  0  0
  1  7  1  0  0  0  0
  1  6  1  0  0  0  0
  2  8  1  6  0  0  0
  2  3  1  0  0  0  0
  2  1  1  0  0  0  0
  3  4  1  0  0  0  0
  3  9  1  0  0  0  0
  4 11  1  0  0  0  0
  4  5  1  0  0  0  0
  5 12  1  0  0  0  0
  5 13  1  0  0  0  0
  6  5  1  0  0  0  0
  6 14  1  1  0  0  0
 10  3  1  0  0  0  0
 15 19  2  0  0  0  0
 16 15  1  0  0  0  0
 16 17  2  0  0  0  0
 17 21  1  0  0  0  0
 17 18  1  0  0  0  0
 18  2  1  0  0  0  0
 19 18  1  0  0  0  0
 20 16  1  0  0  0  0
 22 27  1  0  0  0  0
 23 22  2  0  0  0  0
 23 24  1  0  0  0  0
 24 25  2  0  0  0  0
 25 26  1  0  0  0  0
 26 15  1  0  0  0  0
 27 26  2  0  0  0  0
 28 22  1  0  0  0  0
 29 23  1  0  0  0  0
 30 24  1  0  0  0  0
 31 34  1  6  0  0  0
 31 33  1  0  0  0  0
 31  6  1  0  0  0  0
 31 32  1  0  0  0  0
 32 36  1  0  0  0  0
 32 35  1  0  0  0  0
 33 37  1  6  0  0  0
 33 38  1  0  0  0  0
 33 32  1  0  0  0  0
 38 40  1  0  0  0  0
 39 38  1  0  0  0  0
 41 42  1  0  0  0  0
 42 43  1  0  0  0  0
 43 44  2  0  0  0  0
 43 38  1  0  0  0  0
 44 45  1  0  0  0  0
 46 44  1  0  0  0  0
 47 46  2  0  0  0  0
 48 47  1  0  0  0  0
 49 47  1  0  0  0  0
 49 42  2  0  0  0  0
 50 49  1  0  0  0  0
M  END
>  <minimizedAffinity>
-5.66628551

$$$$
