
 OpenBabel03252508463D

 46 48  0  0  0  0  0  0  0  0999 V2000
   42.6910   31.4430   42.5970 N   0  0  0  0  0  0  0  0  0  0  0  0
   42.9470   31.7430   43.5760 H   0  0  0  0  0  0  0  0  0  0  0  0
   42.9880   32.4750   41.6550 C   0  0  0  0  0  0  0  0  0  0  0  0
   43.5040   32.0320   40.7810 H   0  0  0  0  0  0  0  0  0  0  0  0
   42.0600   32.9540   41.2540 H   0  0  0  0  0  0  0  0  0  0  0  0
   43.6100   34.8970   41.8720 C   0  0  0  0  0  0  0  0  0  0  0  0
   43.8670   33.5570   42.1900 C   0  0  0  0  0  0  0  0  0  0  0  0
   44.9430   33.2740   43.0040 C   0  0  0  0  0  0  0  0  0  0  0  0
   45.7350   34.2750   43.4840 C   0  0  0  0  0  0  0  0  0  0  0  0
   45.5020   35.6000   43.1840 C   0  0  0  0  0  0  0  0  0  0  0  0
   44.4120   35.8540   42.3640 C   0  0  0  0  0  0  0  0  0  0  0  0
   45.0950   32.2230   43.2180 H   0  0  0  0  0  0  0  0  0  0  0  0
   46.5600   33.9700   44.1140 H   0  0  0  0  0  0  0  0  0  0  0  0
   46.1500   36.3630   43.5840 H   0  0  0  0  0  0  0  0  0  0  0  0
   44.1940   36.8830   42.1050 H   0  0  0  0  0  0  0  0  0  0  0  0
   40.1730   35.7060   40.5410 C   0  0  0  0  0  0  0  0  0  0  0  0
   41.2040   35.4920   41.4780 C   0  0  0  0  0  0  0  0  0  0  0  0
   42.4680   35.1430   41.0120 C   0  0  0  0  0  0  0  0  0  0  0  0
   42.6210   35.0290   39.6590 N   0  0  0  0  0  0  0  0  0  0  0  0
   41.6140   35.2400   38.7770 C   0  0  0  0  0  0  0  0  0  0  0  0
   40.4010   35.5750   39.2320 N   0  0  0  0  0  0  0  0  0  0  0  0
   39.2590   35.9640   41.0340 H   0  0  0  0  0  0  0  0  0  0  0  0
   41.1190   35.5710   42.5340 H   0  0  0  0  0  0  0  0  0  0  0  0
   41.7230   35.1510   37.7180 H   0  0  0  0  0  0  0  0  0  0  0  0
   41.0170   31.0490   42.6400 S   0  0  0  0  0  0  0  0  0  0  0  0
   40.1690   32.2820   42.4340 O   0  0  0  0  0  0  0  0  0  0  0  0
   40.0480   32.7220   41.5430 H   0  0  0  0  0  0  0  0  0  0  0  0
   40.6530   30.3550   43.8960 O   0  0  0  0  0  0  0  0  0  0  0  0
   41.1650   30.2450   44.7320 H   0  0  0  0  0  0  0  0  0  0  0  0
   40.7470   29.9920   41.3580 O   0  0  0  0  0  0  0  0  0  0  0  0
   39.9510   28.9590   41.7830 C   0  0  0  0  0  0  0  0  0  0  0  0
   39.1060   28.8800   41.0670 H   0  0  0  0  0  0  0  0  0  0  0  0
   39.5110   29.0650   42.7830 H   0  0  0  0  0  0  0  0  0  0  0  0
   40.7520   27.6460   41.7170 C   0  0  0  0  0  0  0  0  0  0  0  0
   41.5180   27.7300   42.4900 H   0  0  0  0  0  0  0  0  0  0  0  0
   41.2410   27.6270   40.7470 H   0  0  0  0  0  0  0  0  0  0  0  0
   41.6630   25.3730   43.5670 Cl  0  0  0  0  0  0  0  0  0  0  0  0
   40.1320   25.4040   42.7180 C   0  0  0  0  0  0  0  0  0  0  0  0
   39.8440   26.4910   41.9240 C   0  0  0  0  0  0  0  0  0  0  0  0
   38.6230   26.5320   41.2420 C   0  0  0  0  0  0  0  0  0  0  0  0
   38.3760   27.3790   40.6150 H   0  0  0  0  0  0  0  0  0  0  0  0
   37.7020   25.5090   41.3460 C   0  0  0  0  0  3  0  0  0  0  0  0
   38.0280   24.4440   42.1470 C   0  0  0  0  0  0  0  0  0  0  0  0
   36.8360   23.1470   42.2610 Cl  0  0  0  0  0  0  0  0  0  0  0  0
   39.2260   24.3540   42.8450 C   0  0  0  0  0  0  0  0  0  0  0  0
   39.4460   23.4820   43.4790 H   0  0  0  0  0  0  0  0  0  0  0  0
  1 25  1  0  0  0  0
  1  2  1  0  0  0  0
  3  7  1  0  0  0  0
  3  1  1  0  0  0  0
  4  3  1  0  0  0  0
  5  3  1  0  0  0  0
  6  7  2  0  0  0  0
  6 11  1  0  0  0  0
  7  8  1  0  0  0  0
  8 12  1  0  0  0  0
  8  9  2  0  0  0  0
  9 13  1  0  0  0  0
 10  9  1  0  0  0  0
 10 14  1  0  0  0  0
 11 10  2  0  0  0  0
 15 11  1  0  0  0  0
 16 22  1  0  0  0  0
 16 17  1  0  0  0  0
 17 23  1  0  0  0  0
 18 17  2  0  0  0  0
 18  6  1  0  0  0  0
 19 18  1  0  0  0  0
 20 21  1  0  0  0  0
 20 19  2  0  0  0  0
 21 16  2  0  0  0  0
 24 20  1  0  0  0  0
 25 28  1  0  0  0  0
 26 25  1  0  0  0  0
 27 26  1  0  0  0  0
 28 29  1  0  0  0  0
 30 31  1  0  0  0  0
 30 25  1  0  0  0  0
 31 33  1  0  0  0  0
 32 31  1  0  0  0  0
 34 31  1  0  0  0  0
 34 39  1  0  0  0  0
 34 35  1  0  0  0  0
 36 34  1  0  0  0  0
 38 45  1  0  0  0  0
 38 37  1  0  0  0  0
 39 38  2  0  0  0  0
 40 42  2  0  0  0  0
 40 39  1  0  0  0  0
 41 40  1  0  0  0  0
 42 43  1  0  0  0  0
 43 44  1  0  0  0  0
 43 45  2  0  0  0  0
 45 46  1  0  0  0  0
M  END
>  <minimizedAffinity>
-5.29694176

>  <minimizedRMSD>
0.412139326

$$$$
