
 OpenBabel03252506053D

 44 48  0  0  0  0  0  0  0  0999 V2000
   44.7870   35.9860   43.2640 Cl  0  0  0  0  0  0  0  0  0  0  0  0
   45.5350   34.7470   44.2190 C   0  0  0  0  0  0  0  0  0  0  0  0
   46.6290   34.0560   43.7270 C   0  0  0  0  0  0  0  0  0  0  0  0
   47.1450   33.0890   44.5730 C   0  0  0  0  0  0  0  0  0  0  0  0
   46.6640   32.7820   45.8220 C   0  0  0  0  0  0  0  0  0  0  0  0
   45.5800   33.4900   46.2740 C   0  0  0  0  0  0  0  0  0  0  0  0
   44.9860   33.0790   47.8690 Cl  0  0  0  0  0  0  0  0  0  0  0  0
   45.0210   34.4600   45.4870 C   0  0  0  0  0  0  0  0  0  0  0  0
   48.0110   32.5510   44.1680 H   0  0  0  0  0  0  0  0  0  0  0  0
   44.1660   35.0110   45.8540 H   0  0  0  0  0  0  0  0  0  0  0  0
   47.3520   31.7290   46.5550 C   0  0  0  0  0  0  0  0  0  0  0  0
   47.4620   30.4320   46.0780 C   0  0  0  0  0  0  0  0  0  0  0  0
   48.1070   29.4130   46.7480 C   0  0  0  0  0  0  0  0  0  0  0  0
   48.6840   29.6790   47.9690 C   0  0  0  0  0  0  0  0  0  0  0  0
   49.3080   28.6780   48.6090 N   0  0  0  0  0  0  0  0  0  0  0  0
   49.9040   28.8550   49.8180 C   0  0  0  0  0  0  0  0  0  0  0  0
   49.8350   30.1240   50.3580 C   0  0  0  0  0  0  0  0  0  0  0  0
   49.1970   31.1480   49.7050 C   0  0  0  0  0  0  0  0  0  0  0  0
   48.5970   30.9470   48.4740 C   0  0  0  0  0  0  0  0  0  0  0  0
   47.9470   31.9560   47.7890 C   0  0  0  0  0  0  0  0  0  0  0  0
   47.0080   30.2020   45.1070 H   0  0  0  0  0  0  0  0  0  0  0  0
   48.1610   28.4130   46.3230 H   0  0  0  0  0  0  0  0  0  0  0  0
   50.3870   28.0030   50.2750 H   0  0  0  0  0  0  0  0  0  0  0  0
   50.3110   30.2740   51.3290 H   0  0  0  0  0  0  0  0  0  0  0  0
   49.1630   32.1220   50.1540 H   0  0  0  0  0  0  0  0  0  0  0  0
   47.9010   32.9380   48.2220 H   0  0  0  0  0  0  0  0  0  0  0  0
   48.7640   35.4290   41.1220 C   0  0  0  0  0  0  0  0  0  0  0  0
   48.2630   34.8420   39.9510 C   0  0  0  0  0  0  0  0  0  0  0  0
   47.1710   33.9580   40.0630 C   0  0  0  0  0  0  0  0  0  0  0  0
   46.7030   33.7570   41.3100 N   0  0  0  0  0  0  0  0  0  0  0  0
   47.1930   34.3260   42.4150 C   0  0  0  0  0  0  0  0  0  0  0  0
   48.2270   35.1660   42.3320 N   0  0  0  0  0  0  0  0  0  0  0  0
   49.5950   36.0970   41.0020 H   0  0  0  0  0  0  0  0  0  0  0  0
   48.6900   35.0540   39.0030 H   0  0  0  0  0  0  0  0  0  0  0  0
   48.5500   34.6160   37.5490 Cl  0  0  0  0  0  0  0  0  0  0  0  0
   47.1550   33.5410   37.6740 C   0  0  0  0  0  0  0  0  0  0  0  0
   46.5840   33.3020   38.9050 C   0  0  0  0  0  0  0  0  0  0  0  0
   45.5080   32.4660   38.9500 C   0  0  0  0  0  0  0  0  0  0  0  0
   45.0340   32.2530   39.8970 H   0  0  0  0  0  0  0  0  0  0  0  0
   45.0210   31.8840   37.7730 C   0  0  0  0  0  3  0  0  0  0  0  0
   45.6160   32.1470   36.5650 C   0  0  0  0  0  0  0  0  0  0  0  0
   44.9960   31.4100   35.0920 Cl  0  0  0  0  0  0  0  0  0  0  0  0
   46.7050   32.9890   36.5020 C   0  0  0  0  0  0  0  0  0  0  0  0
   47.1690   33.1930   35.5530 H   0  0  0  0  0  0  0  0  0  0  0  0
  1  2  1  0  0  0  0
  2  8  1  0  0  0  0
  3  2  2  0  0  0  0
  3  4  1  0  0  0  0
  4  5  2  0  0  0  0
  5  6  1  0  0  0  0
  5 11  1  0  0  0  0
  6  7  1  0  0  0  0
  8 10  1  0  0  0  0
  8  6  2  0  0  0  0
  9  4  1  0  0  0  0
 11 20  1  0  0  0  0
 12 11  2  0  0  0  0
 12 13  1  0  0  0  0
 13 14  2  0  0  0  0
 14 19  1  0  0  0  0
 14 15  1  0  0  0  0
 15 16  2  0  0  0  0
 16 23  1  0  0  0  0
 16 17  1  0  0  0  0
 17 24  1  0  0  0  0
 18 25  1  0  0  0  0
 18 17  2  0  0  0  0
 19 18  1  0  0  0  0
 20 26  1  0  0  0  0
 20 19  2  0  0  0  0
 21 12  1  0  0  0  0
 22 13  1  0  0  0  0
 27 32  1  0  0  0  0
 28 29  1  0  0  0  0
 28 27  2  0  0  0  0
 29 30  2  0  0  0  0
 30 31  1  0  0  0  0
 31  3  1  0  0  0  0
 32 31  2  0  0  0  0
 33 27  1  0  0  0  0
 34 28  1  0  0  0  0
 35 36  1  0  0  0  0
 36 37  1  0  0  0  0
 37 38  2  0  0  0  0
 37 29  1  0  0  0  0
 38 39  1  0  0  0  0
 40 38  1  0  0  0  0
 41 40  2  0  0  0  0
 42 41  1  0  0  0  0
 43 41  1  0  0  0  0
 43 36  2  0  0  0  0
 44 43  1  0  0  0  0
M  END
>  <minimizedAffinity>
-7.79431295

>  <minimizedRMSD>
0.353509188

$$$$
