
 OpenBabel03252509113D

 32 35  0  0  0  0  0  0  0  0999 V2000
   45.1390   29.9710   42.7750 C   0  0  0  0  0  0  0  0  0  0  0  0
   44.4330   29.3070   41.7970 C   0  0  0  0  0  0  0  0  0  0  0  0
   43.4250   28.4170   42.1110 C   0  0  0  0  0  0  0  0  0  0  0  0
   43.0780   28.1510   43.4280 C   0  0  0  0  0  0  0  0  0  0  0  0
   42.1790   27.3670   44.0780 N   0  0  0  0  0  0  0  0  0  0  0  0
   42.3400   27.5540   45.4170 C   0  0  0  0  0  0  0  0  0  0  0  0
   43.3450   28.4600   45.5820 N   0  0  0  0  0  0  0  0  0  0  0  0
   43.8060   28.8320   44.3720 C   0  0  0  0  0  0  0  0  0  0  0  0
   44.8190   29.7290   44.1110 C   0  0  0  0  0  0  0  0  0  0  0  0
   45.9380   30.6780   42.5590 H   0  0  0  0  0  0  0  0  0  0  0  0
   41.5050   26.7480   43.5680 H   0  0  0  0  0  0  0  0  0  0  0  0
   41.7070   27.0120   46.1200 H   0  0  0  0  0  0  0  0  0  0  0  0
   45.3630   30.2410   44.9010 H   0  0  0  0  0  0  0  0  0  0  0  0
   44.5280   25.7050   41.2410 Cl  0  0  0  0  0  0  0  0  0  0  0  0
   43.0730   26.4490   40.6150 C   0  0  0  0  0  0  0  0  0  0  0  0
   42.6570   27.6950   41.0850 C   0  0  0  0  0  0  0  0  0  0  0  0
   41.4920   28.2250   40.5450 C   0  0  0  0  0  0  0  0  0  0  0  0
   41.1230   29.2000   40.8770 H   0  0  0  0  0  0  0  0  0  0  0  0
   40.7470   27.5730   39.5770 C   0  0  0  0  0  3  0  0  0  0  0  0
   41.1710   26.3430   39.1250 C   0  0  0  0  0  0  0  0  0  0  0  0
   40.1840   25.5690   37.9010 Cl  0  0  0  0  0  0  0  0  0  0  0  0
   42.3240   25.8070   39.6530 C   0  0  0  0  0  0  0  0  0  0  0  0
   42.6170   24.8400   39.2680 H   0  0  0  0  0  0  0  0  0  0  0  0
   45.9500   28.9690   38.4630 C   0  0  0  0  0  0  0  0  0  0  0  0
   45.2980   29.9770   37.7390 C   0  0  0  0  0  0  0  0  0  0  0  0
   44.3460   30.7630   38.3990 C   0  0  0  0  0  0  0  0  0  0  0  0
   44.1000   30.5030   39.7240 N   0  0  0  0  0  0  0  0  0  0  0  0
   44.7390   29.5310   40.3940 C   0  0  0  0  0  0  0  0  0  0  0  0
   45.6530   28.7730   39.7690 N   0  0  0  0  0  0  0  0  0  0  0  0
   46.6810   28.3780   37.9240 H   0  0  0  0  0  0  0  0  0  0  0  0
   45.4710   30.2000   36.7030 H   0  0  0  0  0  0  0  0  0  0  0  0
   43.8010   31.5610   37.9080 H   0  0  0  0  0  0  0  0  0  0  0  0
  1  9  1  0  0  0  0
  2  3  1  0  0  0  0
  2  1  2  0  0  0  0
  3  4  2  0  0  0  0
  4  5  1  0  0  0  0
  4  8  1  0  0  0  0
  5  6  1  0  0  0  0
  6  7  2  0  0  0  0
  6 12  1  0  0  0  0
  8  7  1  0  0  0  0
  9  8  2  0  0  0  0
  9 13  1  0  0  0  0
 10  1  1  0  0  0  0
 11  5  1  0  0  0  0
 15 16  1  0  0  0  0
 15 14  1  0  0  0  0
 16  3  1  0  0  0  0
 17 18  1  0  0  0  0
 17 16  2  0  0  0  0
 19 17  1  0  0  0  0
 20 19  2  0  0  0  0
 20 22  1  0  0  0  0
 21 20  1  0  0  0  0
 22 15  2  0  0  0  0
 23 22  1  0  0  0  0
 24 29  1  0  0  0  0
 25 26  1  0  0  0  0
 25 24  2  0  0  0  0
 26 27  2  0  0  0  0
 27 28  1  0  0  0  0
 28  2  1  0  0  0  0
 29 28  2  0  0  0  0
 30 24  1  0  0  0  0
 31 25  1  0  0  0  0
 32 26  1  0  0  0  0
M  END
>  <minimizedAffinity>
-1.24072611

>  <minimizedRMSD>
8.73536587

$$$$
