
 OpenBabel03252509113D

 32 35  0  0  0  0  0  0  0  0999 V2000
   43.8390   34.5720   40.5260 C   0  0  0  0  0  0  0  0  0  0  0  0
   44.8360   33.9090   41.2060 C   0  0  0  0  0  0  0  0  0  0  0  0
   44.5720   32.7850   41.9630 C   0  0  0  0  0  0  0  0  0  0  0  0
   43.2870   32.2720   42.0740 C   0  0  0  0  0  0  0  0  0  0  0  0
   42.6860   31.2300   42.7060 N   0  0  0  0  0  0  0  0  0  0  0  0
   41.3570   31.2650   42.4130 C   0  0  0  0  0  0  0  0  0  0  0  0
   41.1480   32.3370   41.5970 N   0  0  0  0  0  0  0  0  0  0  0  0
   42.3220   32.9620   41.3820 C   0  0  0  0  0  0  0  0  0  0  0  0
   42.5340   34.0860   40.6140 C   0  0  0  0  0  0  0  0  0  0  0  0
   44.0160   35.4590   39.9220 H   0  0  0  0  0  0  0  0  0  0  0  0
   43.2200   30.5540   43.3010 H   0  0  0  0  0  0  0  0  0  0  0  0
   40.6910   30.5060   42.8270 H   0  0  0  0  0  0  0  0  0  0  0  0
   41.7290   34.5920   40.0860 H   0  0  0  0  0  0  0  0  0  0  0  0
   45.1850   33.7730   44.7880 Cl  0  0  0  0  0  0  0  0  0  0  0  0
   45.9780   32.4280   43.9960 C   0  0  0  0  0  0  0  0  0  0  0  0
   45.6190   32.0610   42.6980 C   0  0  0  0  0  0  0  0  0  0  0  0
   46.2900   30.9840   42.1310 C   0  0  0  0  0  0  0  0  0  0  0  0
   46.0470   30.6540   41.1170 H   0  0  0  0  0  0  0  0  0  0  0  0
   47.2790   30.2800   42.7950 C   0  0  0  0  0  3  0  0  0  0  0  0
   47.6220   30.6570   44.0750 C   0  0  0  0  0  0  0  0  0  0  0  0
   48.8820   29.7260   44.8610 Cl  0  0  0  0  0  0  0  0  0  0  0  0
   46.9640   31.7210   44.6480 C   0  0  0  0  0  0  0  0  0  0  0  0
   47.2670   31.9810   45.6530 H   0  0  0  0  0  0  0  0  0  0  0  0
   47.9860   35.5920   42.0840 C   0  0  0  0  0  0  0  0  0  0  0  0
   48.8050   35.2750   40.9900 C   0  0  0  0  0  0  0  0  0  0  0  0
   48.2700   34.4890   39.9640 C   0  0  0  0  0  0  0  0  0  0  0  0
   46.9690   34.0680   40.0820 N   0  0  0  0  0  0  0  0  0  0  0  0
   46.2080   34.3870   41.1400 C   0  0  0  0  0  0  0  0  0  0  0  0
   46.7120   35.1400   42.1300 N   0  0  0  0  0  0  0  0  0  0  0  0
   48.4290   36.2030   42.8620 H   0  0  0  0  0  0  0  0  0  0  0  0
   49.8250   35.5910   40.8750 H   0  0  0  0  0  0  0  0  0  0  0  0
   48.8400   34.2030   39.0870 H   0  0  0  0  0  0  0  0  0  0  0  0
  1  9  2  0  0  0  0
  1  2  1  0  0  0  0
  2  3  2  0  0  0  0
  3  4  1  0  0  0  0
  3 16  1  0  0  0  0
  4  5  1  0  0  0  0
  5 11  1  0  0  0  0
  6  5  1  0  0  0  0
  6 12  1  0  0  0  0
  7  6  2  0  0  0  0
  8  7  1  0  0  0  0
  8  4  2  0  0  0  0
  9  8  1  0  0  0  0
 10  1  1  0  0  0  0
 13  9  1  0  0  0  0
 15 22  1  0  0  0  0
 15 14  1  0  0  0  0
 16 15  2  0  0  0  0
 17 16  1  0  0  0  0
 17 19  2  0  0  0  0
 18 17  1  0  0  0  0
 19 20  1  0  0  0  0
 20 22  2  0  0  0  0
 20 21  1  0  0  0  0
 22 23  1  0  0  0  0
 24 29  1  0  0  0  0
 24 30  1  0  0  0  0
 25 24  2  0  0  0  0
 26 27  2  0  0  0  0
 26 25  1  0  0  0  0
 27 28  1  0  0  0  0
 28  2  1  0  0  0  0
 28 29  2  0  0  0  0
 31 25  1  0  0  0  0
 32 26  1  0  0  0  0
M  END
>  <minimizedAffinity>
-5.10230064

>  <minimizedRMSD>
5.83485794

$$$$
