
 OpenBabel03242516003D

 29 31  0  0  0  0  0  0  0  0999 V2000
   44.7250   33.2230   41.1580 Cl  0  0  0  0  0  0  0  0  0  0  0  0
   46.2880   34.0000   40.9860 C   0  0  0  0  0  0  0  0  0  0  0  0
   46.8060   34.7560   41.9830 C   0  0  0  0  0  0  0  0  0  0  0  0
   48.0440   35.3220   41.7430 C   0  0  0  0  0  0  0  0  0  0  0  0
   48.7250   35.1430   40.5800 C   0  0  0  0  0  0  0  0  0  0  0  0
   48.1880   34.3740   39.5800 C   0  0  0  0  0  0  0  0  0  0  0  0
   46.9480   33.7980   39.8000 C   0  0  0  0  0  0  0  0  0  0  0  0
   48.4910   35.9350   42.5190 H   0  0  0  0  0  0  0  0  0  0  0  0
   49.6950   35.6010   40.4220 H   0  0  0  0  0  0  0  0  0  0  0  0
   48.7490   34.2450   38.6600 H   0  0  0  0  0  0  0  0  0  0  0  0
   48.1200   34.6250   37.2360 Cl  0  0  0  0  0  0  0  0  0  0  0  0
   46.9440   33.3330   37.4620 C   0  0  0  0  0  0  0  0  0  0  0  0
   46.4300   32.9910   38.7000 C   0  0  0  0  0  0  0  0  0  0  0  0
   45.5140   31.9660   38.7840 C   0  0  0  0  0  0  0  0  0  0  0  0
   45.1480   31.7460   39.7770 H   0  0  0  0  0  0  0  0  0  0  0  0
   45.1050   31.2800   37.6620 C   0  0  0  0  0  0  0  0  0  0  0  0
   45.6410   31.6480   36.4350 C   0  0  0  0  0  0  0  0  0  0  0  0
   45.1560   30.8030   34.9570 Cl  0  0  0  0  0  0  0  0  0  0  0  0
   46.5720   32.6770   36.2840 C   0  0  0  0  0  0  0  0  0  0  0  0
   46.9640   32.9330   35.3220 H   0  0  0  0  0  0  0  0  0  0  0  0
   44.4760   36.1260   44.6350 C   0  0  0  0  0  0  0  0  0  0  0  0
   45.1930   35.9850   43.4400 C   0  0  0  0  0  0  0  0  0  0  0  0
   46.0530   34.9250   43.2100 C   0  0  0  0  0  0  0  0  0  0  0  0
   46.1480   34.0320   44.2320 N   0  0  0  0  0  0  0  0  0  0  0  0
   45.4640   34.1620   45.3780 C   0  0  0  0  0  0  0  0  0  0  0  0
   44.6310   35.1960   45.5890 N   0  0  0  0  0  0  0  0  0  0  0  0
   43.8120   36.9760   44.7680 H   0  0  0  0  0  0  0  0  0  0  0  0
   45.1030   36.7070   42.6370 H   0  0  0  0  0  0  0  0  0  0  0  0
   45.6230   33.3790   46.1290 H   0  0  0  0  0  0  0  0  0  0  0  0
  2  1  1  0  0  0  0
  2  3  1  0  0  0  0
  3 23  1  0  0  0  0
  4  3  2  0  0  0  0
  4  8  1  0  0  0  0
  5  4  1  0  0  0  0
  6  7  1  0  0  0  0
  6  5  2  0  0  0  0
  7  2  2  0  0  0  0
  9  5  1  0  0  0  0
 10  6  1  0  0  0  0
 11 12  1  0  0  0  0
 12 13  1  0  0  0  0
 13 14  2  0  0  0  0
 13  7  1  0  0  0  0
 14 15  1  0  0  0  0
 16 14  1  0  0  0  0
 17 16  2  0  0  0  0
 18 17  1  0  0  0  0
 19 17  1  0  0  0  0
 19 12  2  0  0  0  0
 20 19  1  0  0  0  0
 21 27  1  0  0  0  0
 21 26  1  0  0  0  0
 22 21  2  0  0  0  0
 23 22  1  0  0  0  0
 23 24  2  0  0  0  0
 24 25  1  0  0  0  0
 25 26  2  0  0  0  0
 25 29  1  0  0  0  0
 28 22  1  0  0  0  0
M  END
>  <minimizedAffinity>
-6.2263608

>  <minimizedRMSD>
0.152522489

$$$$
