
 OpenBabel03242516253D

 44 48  0  0  0  0  0  0  0  0999 V2000
   49.7930   30.2040   49.3740 C   0  0  0  0  0  0  0  0  0  0  0  0
   50.0380   31.3470   50.0670 N   0  0  0  0  0  0  0  0  0  0  0  0
   50.6670   31.3650   51.2480 C   0  0  0  0  0  0  0  0  0  0  0  0
   51.0690   30.1910   51.7580 N   0  0  0  0  0  0  0  0  0  0  0  0
   50.8700   29.0070   51.1390 C   0  0  0  0  0  0  0  0  0  0  0  0
   51.2870   27.8010   51.6650 C   0  0  0  0  0  0  0  0  0  0  0  0
   51.0610   26.6240   50.9950 C   0  0  0  0  0  0  0  0  0  0  0  0
   50.4040   26.6030   49.7580 C   0  0  0  0  0  0  0  0  0  0  0  0
   50.0070   27.8320   49.2770 C   0  0  0  0  0  0  0  0  0  0  0  0
   50.2220   29.0170   49.9310 C   0  0  0  0  0  0  0  0  0  0  0  0
   50.8330   32.3080   51.7540 H   0  0  0  0  0  0  0  0  0  0  0  0
   51.7910   27.8630   52.6220 H   0  0  0  0  0  0  0  0  0  0  0  0
   51.4410   25.7540   51.5210 H   0  0  0  0  0  0  0  0  0  0  0  0
   50.2870   25.6320   49.3360 H   0  0  0  0  0  0  0  0  0  0  0  0
   51.5680   28.0640   46.6580 Cl  0  0  0  0  0  0  0  0  0  0  0  0
   49.8550   27.7100   46.6890 C   0  0  0  0  0  0  0  0  0  0  0  0
   49.3460   27.6480   47.9940 C   0  0  0  0  0  0  0  0  0  0  0  0
   47.9770   27.3800   48.1510 C   0  0  0  0  0  0  0  0  0  0  0  0
   47.4580   27.3050   49.1100 H   0  0  0  0  0  0  0  0  0  0  0  0
   47.1430   27.1830   47.0750 C   0  0  0  0  0  0  0  0  0  0  0  0
   47.6770   27.2510   45.8090 C   0  0  0  0  0  0  0  0  0  0  0  0
   46.6810   27.0120   44.3870 Cl  0  0  0  0  0  0  0  0  0  0  0  0
   49.0070   27.5100   45.6310 C   0  0  0  0  0  0  0  0  0  0  0  0
   49.4910   27.5790   44.6720 H   0  0  0  0  0  0  0  0  0  0  0  0
   48.9540   30.1500   47.8150 S   0  0  0  0  0  0  0  0  0  0  0  0
   46.0460   32.7550   46.8630 C   0  0  0  0  0  0  0  0  0  0  0  0
   47.1940   31.9820   46.8610 C   0  0  0  0  0  0  0  0  0  0  0  0
   47.4680   31.1060   47.8790 C   0  0  0  0  0  0  0  0  0  0  0  0
   46.5840   30.9810   48.9400 C   0  0  0  0  0  0  0  0  0  0  0  0
   45.4480   31.7230   48.9790 C   0  0  0  0  0  0  0  0  0  0  0  0
   45.1990   32.5960   47.9390 C   0  0  0  0  0  0  0  0  0  0  0  0
   47.8530   32.1130   46.0130 H   0  0  0  0  0  0  0  0  0  0  0  0
   46.7480   30.3130   49.7710 H   0  0  0  0  0  0  0  0  0  0  0  0
   44.7090   31.6830   49.7710 H   0  0  0  0  0  0  0  0  0  0  0  0
   44.2900   33.2000   47.9510 H   0  0  0  0  0  0  0  0  0  0  0  0
   44.5330   35.5460   45.0460 C   0  0  0  0  0  0  0  0  0  0  0  0
   45.1740   35.5000   43.7860 C   0  0  0  0  0  0  0  0  0  0  0  0
   46.1270   34.5070   43.5620 C   0  0  0  0  0  0  0  0  0  0  0  0
   46.4160   33.6120   44.5550 N   0  0  0  0  0  0  0  0  0  0  0  0
   45.7730   33.6910   45.7600 C   0  0  0  0  0  0  0  0  0  0  0  0
   44.8390   34.6520   45.9990 N   0  0  0  0  0  0  0  0  0  0  0  0
   43.7860   36.3040   45.2600 H   0  0  0  0  0  0  0  0  0  0  0  0
   44.9140   36.2290   43.0300 H   0  0  0  0  0  0  0  0  0  0  0  0
   46.6350   34.4400   42.6150 H   0  0  0  0  0  0  0  0  0  0  0  0
  1 10  2  0  0  0  0
  1  2  1  0  0  0  0
  2  3  2  0  0  0  0
  3 11  1  0  0  0  0
  3  4  1  0  0  0  0
  5  6  1  0  0  0  0
  5  4  2  0  0  0  0
  6 12  1  0  0  0  0
  7 13  1  0  0  0  0
  7  6  2  0  0  0  0
  8  7  1  0  0  0  0
  9  8  2  0  0  0  0
  9 10  1  0  0  0  0
 10  5  1  0  0  0  0
 14  8  1  0  0  0  0
 15 16  1  0  0  0  0
 16 17  1  0  0  0  0
 17 18  2  0  0  0  0
 17  9  1  0  0  0  0
 18 19  1  0  0  0  0
 20 18  1  0  0  0  0
 21 20  2  0  0  0  0
 22 21  1  0  0  0  0
 23 21  1  0  0  0  0
 23 16  2  0  0  0  0
 24 23  1  0  0  0  0
 25 28  1  0  0  0  0
 25  1  1  0  0  0  0
 26 31  1  0  0  0  0
 27 26  2  0  0  0  0
 27 28  1  0  0  0  0
 28 29  2  0  0  0  0
 29 30  1  0  0  0  0
 29 33  1  0  0  0  0
 30 34  1  0  0  0  0
 31 35  1  0  0  0  0
 31 30  2  0  0  0  0
 32 27  1  0  0  0  0
 36 42  1  0  0  0  0
 36 41  1  0  0  0  0
 37 36  2  0  0  0  0
 38 37  1  0  0  0  0
 38 39  2  0  0  0  0
 39 40  1  0  0  0  0
 40 41  2  0  0  0  0
 40 26  1  0  0  0  0
 43 37  1  0  0  0  0
 44 38  1  0  0  0  0
M  END
>  <minimizedAffinity>
-6.39481497

>  <minimizedRMSD>
0.813055813

$$$$
