
 OpenBabel03242523203D

 38 41  0  0  0  0  0  0  0  0999 V2000
   44.1960   32.1040   42.6400 Cl  0  0  0  0  0  0  0  0  0  0  0  0
   44.4070   33.8560   42.6120 C   0  0  0  0  0  0  0  0  0  0  0  0
   45.1860   34.3870   43.6600 C   0  0  0  0  0  0  0  0  0  0  0  0
   45.2870   35.7630   43.5380 C   0  0  0  0  0  0  0  0  0  0  0  0
   44.7740   36.5860   42.6130 C   0  0  0  0  0  0  0  0  0  0  0  0
   44.0330   35.9910   41.6330 C   0  0  0  0  0  0  0  0  0  0  0  0
   43.8410   34.6560   41.6150 C   0  0  0  0  0  0  0  0  0  0  0  0
   45.8430   36.3450   44.3050 H   0  0  0  0  0  0  0  0  0  0  0  0
   44.8880   37.6570   42.5670 H   0  0  0  0  0  0  0  0  0  0  0  0
   43.5450   36.4960   40.8100 H   0  0  0  0  0  0  0  0  0  0  0  0
   40.9610   35.0810   42.0040 Cl  0  0  0  0  0  0  0  0  0  0  0  0
   41.6980   34.0620   40.7640 C   0  0  0  0  0  0  0  0  0  0  0  0
   43.0580   33.8880   40.6130 C   0  0  0  0  0  0  0  0  0  0  0  0
   43.5720   33.0790   39.6230 C   0  0  0  0  0  0  0  0  0  0  0  0
   44.6530   33.0120   39.5950 H   0  0  0  0  0  0  0  0  0  0  0  0
   42.6810   32.4400   38.7770 C   0  0  0  0  0  3  0  0  0  0  0  0
   41.3120   32.6230   38.9370 C   0  0  0  0  0  0  0  0  0  0  0  0
   40.2490   31.7810   37.8270 Cl  0  0  0  0  0  0  0  0  0  0  0  0
   40.7890   33.4390   39.9350 C   0  0  0  0  0  0  0  0  0  0  0  0
   39.7130   33.5480   40.0180 H   0  0  0  0  0  0  0  0  0  0  0  0
   45.8460   33.6240   44.7570 C   0  0  0  0  0  0  0  0  0  0  0  0
   45.2080   34.0670   45.6800 O   0  0  0  0  0  0  0  0  0  0  0  0
   46.8850   32.7650   44.1710 C   0  0  0  0  0  0  0  0  0  0  0  0
   47.8430   33.1440   43.3150 C   0  0  0  0  0  0  0  0  0  0  0  0
   48.6330   32.1160   42.8380 C   0  0  0  0  0  0  0  0  0  0  0  0
   48.3720   30.8070   43.2790 N   0  0  0  0  0  0  0  0  0  0  0  0
   47.4110   30.5140   44.1260 C   0  0  0  0  0  0  0  0  0  0  0  0
   46.6010   31.5160   44.6210 N   0  0  0  0  0  0  0  0  0  0  0  0
   49.4500   32.2410   42.1390 H   0  0  0  0  0  0  0  0  0  0  0  0
   47.3290   29.4610   44.3790 H   0  0  0  0  0  0  0  0  0  0  0  0
   48.1790   34.4810   42.9630 C   0  0  0  0  0  0  0  0  0  0  0  0
   49.2830   34.9440   42.3190 C   0  0  0  0  0  0  0  0  0  0  0  0
   48.0740   34.8600   41.4270 C   0  0  0  0  0  0  0  0  0  0  0  0
   47.7670   35.2340   43.6590 H   0  0  0  0  0  0  0  0  0  0  0  0
   49.7400   35.9600   42.3300 H   0  0  0  0  0  0  0  0  0  0  0  0
   50.0930   34.2210   42.0030 H   0  0  0  0  0  0  0  0  0  0  0  0
   47.4090   35.7260   41.2840 H   0  0  0  0  0  0  0  0  0  0  0  0
   47.9420   33.9720   40.7840 H   0  0  0  0  0  0  0  0  0  0  0  0
  2  1  1  0  0  0  0
  2  3  1  0  0  0  0
  3 21  1  0  0  0  0
  4  3  2  0  0  0  0
  4  8  1  0  0  0  0
  5  4  1  0  0  0  0
  6  5  2  0  0  0  0
  7  6  1  0  0  0  0
  7  2  2  0  0  0  0
  9  5  1  0  0  0  0
 10  6  1  0  0  0  0
 12 11  1  0  0  0  0
 13 12  1  0  0  0  0
 13  7  1  0  0  0  0
 14 13  2  0  0  0  0
 15 14  1  0  0  0  0
 16 17  2  0  0  0  0
 16 14  1  0  0  0  0
 17 19  1  0  0  0  0
 18 17  1  0  0  0  0
 19 20  1  0  0  0  0
 19 12  2  0  0  0  0
 21 22  2  0  0  0  0
 23 28  1  0  0  0  0
 23 21  1  0  0  0  0
 24 23  2  0  0  0  0
 25 26  2  0  0  0  0
 25 24  1  0  0  0  0
 26 27  1  0  0  0  0
 27 30  1  0  0  0  0
 27 28  2  0  0  0  0
 29 25  1  0  0  0  0
 31 24  1  0  0  0  0
 31 34  1  0  0  0  0
 32 35  1  0  0  0  0
 32 31  1  0  0  0  0
 33 32  1  0  0  0  0
 33 31  1  0  0  0  0
 36 32  1  0  0  0  0
 37 33  1  0  0  0  0
 38 33  1  0  0  0  0
M  END
>  <minimizedAffinity>
-5.65734768

>  <minimizedRMSD>
0.857246101

$$$$
