
     RDKit          3D

 29 31  0  0  0  0  0  0  0  0999 V2000
   46.0695   34.7605   43.3865 C   0  0  0  0  0  0  0  0  0  0  0  0
   45.1713   35.7801   43.7908 C   0  0  0  0  0  0  0  0  0  0  0  0
   44.5739   35.6534   45.0486 C   0  0  0  0  0  0  0  0  0  0  0  0
   44.8877   34.5696   45.8018 N   0  0  0  0  0  0  0  0  0  0  0  0
   45.7604   33.6207   45.3567 C   0  0  0  0  0  0  0  0  0  0  0  0
   46.3583   33.6900   44.1679 N   0  0  0  0  0  0  0  0  0  0  0  0
   46.6562   34.9523   42.0929 C   0  0  0  0  0  0  0  0  0  0  0  0
   47.8238   35.4054   41.8837 O   0  0  0  0  0  0  0  0  0  0  0  0
   46.0761   32.4605   46.2474 C   0  0  1  0  0  0  0  0  0  0  0  0
   46.9822   32.6377   47.4226 C   0  0  0  0  0  0  0  0  0  0  0  0
   45.5238   32.5979   47.6330 C   0  0  2  0  0  0  0  0  0  0  0  0
   44.9547   36.6147   43.1649 H   0  0  0  0  0  0  0  0  0  0  0  0
   43.8941   36.4044   45.3798 H   0  0  0  0  0  0  0  0  0  0  0  0
   46.2845   34.7755   41.0820 H   0  0  0  0  0  0  0  0  0  0  0  0
   46.0043   31.4853   45.7616 H   0  0  0  0  0  0  0  0  0  0  0  0
   47.5329   33.6235   47.3863 H   0  0  0  0  0  0  0  0  0  0  0  0
   47.6792   31.8085   47.5579 H   0  0  0  0  0  0  0  0  0  0  0  0
   45.0808   33.6026   47.9279 H   0  0  0  0  0  0  0  0  0  0  0  0
   46.9581   29.8530   48.0335 Cl  0  0  0  0  0  0  0  0  0  0  0  0
   45.3310   30.1860   48.5824 C   0  0  0  0  0  0  0  0  0  0  0  0
   44.9066   31.4612   48.3101 C   0  0  0  0  0  0  0  0  0  0  0  0
   43.6131   31.7923   48.7375 C   0  0  0  0  0  0  0  0  0  0  0  0
   43.0976   32.7587   48.6133 H   0  0  0  0  0  0  0  0  0  0  0  0
   42.8019   30.8665   49.4057 C   0  0  0  0  0  0  0  0  0  0  0  0
   43.2658   29.5954   49.6592 C   0  0  0  0  0  0  0  0  0  0  0  0
   42.3596   28.3448   50.4818 Cl  0  0  0  0  0  0  0  0  0  0  0  0
   44.5262   29.2807   49.2403 C   0  0  0  0  0  0  0  0  0  0  0  0
   45.0396   28.3153   49.3652 H   0  0  0  0  0  0  0  0  0  0  0  0
   41.8051   31.0889   49.7466 H   0  0  0  0  0  0  0  0  0  0  0  0
  1  2  2  0
  1  6  1  0
  2  3  1  0
  3  4  2  0
  5  4  1  0
  5  9  1  0
  6  5  2  0
  7  1  1  0
  8  7  2  0
  9 10  1  0
  9 11  1  0
 10 11  1  0
  2 12  1  0
  3 13  1  0
  7 14  1  0
  9 15  1  6
 10 16  1  0
 10 17  1  0
 11 18  1  6
 19 20  1  0
 20 21  2  0
 21 22  1  0
 22 23  1  0
 22 24  2  0
 24 25  1  0
 25 26  1  0
 25 27  2  0
 27 28  1  0
 27 20  1  0
 24 29  1  0
 11 21  1  0
M  ISO  8  12  14  13  14  14   6  15  13  16  13  17  13  18  13  23  16
M  ISO  1  28  15
M  END
>  <DihAtoms>  (1) 
8,10,20,19

>  <DihDeg>  (1) 
98.96961055965471

$$$$
