
 OpenBabel03252508263D

 42 46  0  0  1  0  0  0  0  0999 V2000
   47.1090   32.0570   45.6120 C   0  0  1  0  0  0  0  0  0  0  0  0
   46.7670   32.6890   46.8960 C   0  0  0  0  0  0  0  0  0  0  0  0
   45.7830   31.7370   46.1030 C   0  0  2  0  0  0  0  0  0  0  0  0
   48.0620   31.4520   45.8260 H   0  0  0  0  0  0  0  0  0  0  0  0
   46.9830   32.2480   47.8820 H   0  0  0  0  0  0  0  0  0  0  0  0
   46.4940   33.7540   46.9700 H   0  0  0  0  0  0  0  0  0  0  0  0
   44.8880   32.4230   45.9810 H   0  0  0  0  0  0  0  0  0  0  0  0
   45.3880   30.4550   46.6920 C   0  0  0  0  0  0  0  0  0  0  0  0
   45.3740   30.1230   48.0120 C   0  0  0  0  0  0  0  0  0  0  0  0
   45.1160   28.8610   48.5300 C   0  0  0  0  0  0  0  0  0  0  0  0
   44.8470   27.8470   47.5910 C   0  0  0  0  0  0  0  0  0  0  0  0
   44.8510   28.1580   46.2300 C   0  0  0  0  0  0  0  0  0  0  0  0
   44.5240   27.1420   45.3480 C   0  0  0  0  0  0  0  0  0  0  0  0
   44.4540   27.4280   43.9960 C   0  0  0  0  0  0  0  0  0  0  0  0
   44.7020   28.7040   43.5290 C   0  0  0  0  0  0  0  0  0  0  0  0
   45.0230   29.6730   44.4480 C   0  0  0  0  0  0  0  0  0  0  0  0
   45.1160   29.4400   45.8060 C   0  0  0  0  0  0  0  0  0  0  0  0
   45.5870   30.9310   48.6990 H   0  0  0  0  0  0  0  0  0  0  0  0
   45.1220   28.6760   49.5840 H   0  0  0  0  0  0  0  0  0  0  0  0
   44.6550   26.8880   48.0130 H   0  0  0  0  0  0  0  0  0  0  0  0
   44.3330   26.1510   45.7510 H   0  0  0  0  0  0  0  0  0  0  0  0
   44.1890   26.5430   43.3940 H   0  0  0  0  0  0  0  0  0  0  0  0
   44.5950   28.7210   42.4630 H   0  0  0  0  0  0  0  0  0  0  0  0
   45.0780   30.5520   43.8710 H   0  0  0  0  0  0  0  0  0  0  0  0
   46.6140   34.6900   43.0790 C   0  0  0  0  0  0  0  0  0  0  0  0
   47.5250   34.2940   42.0400 C   0  0  0  0  0  0  0  0  0  0  0  0
   48.2800   33.1310   42.2540 C   0  0  0  0  0  0  0  0  0  0  0  0
   48.1150   32.4640   43.3990 N   0  0  0  0  0  0  0  0  0  0  0  0
   47.2470   32.8620   44.3670 C   0  0  0  0  0  0  0  0  0  0  0  0
   46.5120   33.9540   44.2050 N   0  0  0  0  0  0  0  0  0  0  0  0
   46.0280   35.5780   42.9290 H   0  0  0  0  0  0  0  0  0  0  0  0
   47.6210   34.8760   41.1620 H   0  0  0  0  0  0  0  0  0  0  0  0
   47.5470   32.1250   39.3490 Cl  0  0  0  0  0  0  0  0  0  0  0  0
   49.1270   32.1120   40.0760 C   0  0  0  0  0  0  0  0  0  0  0  0
   49.2490   32.5880   41.3560 C   0  0  0  0  0  0  0  0  0  0  0  0
   50.5600   32.4730   41.7950 C   0  0  0  0  0  0  0  0  0  0  0  0
   50.8820   32.7980   42.7990 H   0  0  0  0  0  0  0  0  0  0  0  0
   51.6070   31.9590   41.0630 C   0  0  0  0  0  3  0  0  0  0  0  0
   51.3820   31.5070   39.7840 C   0  0  0  0  0  0  0  0  0  0  0  0
   52.7030   30.8530   38.8460 Cl  0  0  0  0  0  0  0  0  0  0  0  0
   50.1040   31.5880   39.2830 C   0  0  0  0  0  0  0  0  0  0  0  0
   49.9470   31.2330   38.2880 H   0  0  0  0  0  0  0  0  0  0  0  0
  1  4  1  1  0  0  0
  1  3  1  0  0  0  0
  1  2  1  0  0  0  0
  2  6  1  0  0  0  0
  2  5  1  0  0  0  0
  3  7  1  6  0  0  0
  3  8  1  0  0  0  0
  3  2  1  0  0  0  0
  8  9  1  0  0  0  0
  9 10  2  0  0  0  0
  9 18  1  0  0  0  0
 10 19  1  0  0  0  0
 11 20  1  0  0  0  0
 11 10  1  0  0  0  0
 12 11  2  0  0  0  0
 13 21  1  0  0  0  0
 13 12  1  0  0  0  0
 14 13  2  0  0  0  0
 15 14  1  0  0  0  0
 15 16  2  0  0  0  0
 16 17  1  0  0  0  0
 17 12  1  0  0  0  0
 17  8  2  0  0  0  0
 22 14  1  0  0  0  0
 23 15  1  0  0  0  0
 24 16  1  0  0  0  0
 25 30  1  0  0  0  0
 26 27  1  0  0  0  0
 26 25  2  0  0  0  0
 27 28  2  0  0  0  0
 28 29  1  0  0  0  0
 29  1  1  0  0  0  0
 30 29  2  0  0  0  0
 31 25  1  0  0  0  0
 32 26  1  0  0  0  0
 33 34  1  0  0  0  0
 34 35  1  0  0  0  0
 35 36  2  0  0  0  0
 35 27  1  0  0  0  0
 36 37  1  0  0  0  0
 38 36  1  0  0  0  0
 39 38  2  0  0  0  0
 40 39  1  0  0  0  0
 41 39  1  0  0  0  0
 41 34  2  0  0  0  0
 42 41  1  0  0  0  0
M  END
>  <minimizedAffinity>
-5.05344296

>  <minimizedRMSD>
2.79013658

$$$$
