
 OpenBabel03252500363D

 47 50  0  0  1  0  0  0  0  0999 V2000
   45.9600   34.4950   44.2290 C   0  0  1  0  0  0  0  0  0  0  0  0
   45.0000   34.5980   45.2400 C   0  0  0  0  0  0  0  0  0  0  0  0
   46.1280   33.7060   45.5590 C   0  0  1  0  0  0  0  0  0  0  0  0
   46.7090   35.3190   44.0700 H   0  0  0  0  0  0  0  0  0  0  0  0
   44.8730   35.5170   45.8290 H   0  0  0  0  0  0  0  0  0  0  0  0
   44.0120   34.0690   45.1130 H   0  0  0  0  0  0  0  0  0  0  0  0
   47.0400   34.0380   46.0790 H   0  0  0  0  0  0  0  0  0  0  0  0
   44.5700   33.5530   42.3850 C   0  0  0  0  0  0  0  0  0  0  0  0
   45.8640   33.6750   42.9830 C   0  0  0  0  0  0  0  0  0  0  0  0
   46.9310   33.0570   42.4160 C   0  0  0  0  0  0  0  0  0  0  0  0
   46.7020   32.3330   41.2750 N   0  0  0  0  0  0  0  0  0  0  0  0
   45.4770   32.2230   40.7160 C   0  0  0  0  0  0  0  0  0  0  0  0
   44.3670   32.8330   41.2580 N   0  0  0  0  0  0  0  0  0  0  0  0
   43.7320   34.0610   42.8630 H   0  0  0  0  0  0  0  0  0  0  0  0
   47.9140   33.1400   42.8570 H   0  0  0  0  0  0  0  0  0  0  0  0
   46.7510   33.4040   38.2460 Cl  0  0  0  0  0  0  0  0  0  0  0  0
   45.8890   31.8700   38.3080 C   0  0  0  0  0  0  0  0  0  0  0  0
   45.3440   31.4260   39.4970 C   0  0  0  0  0  0  0  0  0  0  0  0
   44.6650   30.2390   39.5930 C   0  0  0  0  0  0  0  0  0  0  0  0
   44.2150   29.8330   40.4930 H   0  0  0  0  0  0  0  0  0  0  0  0
   44.5190   29.4540   38.4530 C   0  0  0  0  0  3  0  0  0  0  0  0
   45.0750   29.9230   37.2710 C   0  0  0  0  0  0  0  0  0  0  0  0
   44.8960   28.9460   35.8440 Cl  0  0  0  0  0  0  0  0  0  0  0  0
   45.7640   31.1180   37.1520 C   0  0  0  0  0  0  0  0  0  0  0  0
   46.1840   31.4580   36.2300 H   0  0  0  0  0  0  0  0  0  0  0  0
   45.9430   32.2340   45.5560 C   0  0  0  0  0  0  0  0  0  0  0  0
   45.0280   31.9780   44.9600 H   0  0  0  0  0  0  0  0  0  0  0  0
   46.8240   31.6850   45.1580 H   0  0  0  0  0  0  0  0  0  0  0  0
   45.7550   31.8300   46.9040 N   0  0  0  0  0  0  0  0  0  0  0  0
   46.3710   32.5840   47.9100 C   0  0  0  0  0  0  0  0  0  0  0  0
   47.7760   32.0360   48.2380 C   0  0  0  0  0  0  0  0  0  0  0  0
   47.5620   30.6970   48.8870 C   0  0  0  0  0  0  0  0  0  0  0  0
   46.8790   29.8340   47.8500 C   0  0  0  0  0  0  0  0  0  0  0  0
   45.6770   30.4660   47.2080 C   0  0  2  0  0  0  0  0  0  0  0  0
   45.7950   32.3500   48.8590 H   0  0  0  0  0  0  0  0  0  0  0  0
   46.3380   33.6700   47.8680 H   0  0  0  0  0  0  0  0  0  0  0  0
   48.2520   32.7050   48.9840 H   0  0  0  0  0  0  0  0  0  0  0  0
   48.3940   31.9740   47.3220 H   0  0  0  0  0  0  0  0  0  0  0  0
   46.8590   30.8550   49.7330 H   0  0  0  0  0  0  0  0  0  0  0  0
   48.4800   30.1850   49.1790 H   0  0  0  0  0  0  0  0  0  0  0  0
   46.5560   28.8680   48.3110 H   0  0  0  0  0  0  0  0  0  0  0  0
   47.6020   29.5810   47.0500 H   0  0  0  0  0  0  0  0  0  0  0  0
   44.8250   30.3080   47.9040 H   0  0  0  0  0  0  0  0  0  0  0  0
   45.3520   29.6240   45.9840 C   0  0  0  0  0  0  0  0  0  0  0  0
   45.1850   28.5900   46.2960 H   0  0  0  0  0  0  0  0  0  0  0  0
   44.4230   30.0390   45.4970 H   0  0  0  0  0  0  0  0  0  0  0  0
   46.2050   29.6330   45.2660 H   0  0  0  0  0  0  0  0  0  0  0  0
  1  4  1  6  0  0  0
  1  2  1  0  0  0  0
  1  3  1  0  0  0  0
  2  3  1  0  0  0  0
  2  5  1  0  0  0  0
  3  7  1  1  0  0  0
  6  2  1  0  0  0  0
  8 14  1  0  0  0  0
  8  9  1  0  0  0  0
  9  1  1  0  0  0  0
 10 15  1  0  0  0  0
 10  9  2  0  0  0  0
 11 10  1  0  0  0  0
 12 13  1  0  0  0  0
 12 11  2  0  0  0  0
 13  8  2  0  0  0  0
 16 17  1  0  0  0  0
 17 18  1  0  0  0  0
 18 19  2  0  0  0  0
 18 12  1  0  0  0  0
 19 20  1  0  0  0  0
 21 19  1  0  0  0  0
 22 21  2  0  0  0  0
 23 22  1  0  0  0  0
 24 22  1  0  0  0  0
 24 17  2  0  0  0  0
 25 24  1  0  0  0  0
 26  3  1  0  0  0  0
 26 29  1  0  0  0  0
 27 26  1  0  0  0  0
 28 26  1  0  0  0  0
 29 34  1  0  0  0  0
 29 30  1  0  0  0  0
 30 31  1  0  0  0  0
 30 35  1  0  0  0  0
 31 32  1  0  0  0  0
 31 37  1  0  0  0  0
 32 40  1  0  0  0  0
 32 39  1  0  0  0  0
 33 41  1  0  0  0  0
 33 32  1  0  0  0  0
 34 33  1  0  0  0  0
 34 43  1  1  0  0  0
 36 30  1  0  0  0  0
 38 31  1  0  0  0  0
 42 33  1  0  0  0  0
 44 45  1  0  0  0  0
 44 34  1  0  0  0  0
 46 44  1  0  0  0  0
 47 44  1  0  0  0  0
M  END
>  <minimizedAffinity>
-4.13173485

>  <minimizedRMSD>
0.312806547

$$$$
