
 OpenBabel03242516583D

 29 31  0  0  0  0  0  0  0  0999 V2000
   37.4730   29.5290   41.5160 C   0  0  0  0  0  0  0  0  0  0  0  0
   38.2190   29.5720   42.6790 C   0  0  0  0  0  0  0  0  0  0  0  0
   38.0150   28.6470   43.6790 C   0  0  0  0  0  0  0  0  0  0  0  0
   37.0530   27.6880   43.4820 C   0  0  0  0  0  0  0  0  0  0  0  0
   36.2750   27.5970   42.3350 C   0  0  0  0  0  0  0  0  0  0  0  0
   36.5260   28.5670   41.3450 C   0  0  0  0  0  0  0  0  0  0  0  0
   38.9850   30.3350   42.8370 H   0  0  0  0  0  0  0  0  0  0  0  0
   38.6160   28.7160   44.5690 H   0  0  0  0  0  0  0  0  0  0  0  0
   36.9270   26.9740   44.3050 H   0  0  0  0  0  0  0  0  0  0  0  0
   35.5260   26.8270   42.2150 H   0  0  0  0  0  0  0  0  0  0  0  0
   37.6480   26.6190   39.3470 Cl  0  0  0  0  0  0  0  0  0  0  0  0
   36.1870   27.5820   39.1820 C   0  0  0  0  0  0  0  0  0  0  0  0
   35.7200   28.4750   40.1530 C   0  0  0  0  0  0  0  0  0  0  0  0
   34.5550   29.1370   39.8380 C   0  0  0  0  0  0  0  0  0  0  0  0
   34.2070   29.8210   40.5980 H   0  0  0  0  0  0  0  0  0  0  0  0
   33.8510   28.9790   38.6690 C   0  0  0  0  0  3  0  0  0  0  0  0
   34.3450   28.0840   37.7280 C   0  0  0  0  0  0  0  0  0  0  0  0
   33.4060   27.9170   36.2450 Cl  0  0  0  0  0  0  0  0  0  0  0  0
   35.5200   27.3870   37.9950 C   0  0  0  0  0  0  0  0  0  0  0  0
   35.8180   26.7200   37.2050 H   0  0  0  0  0  0  0  0  0  0  0  0
   37.4830   32.6980   39.4410 C   0  0  0  0  0  0  0  0  0  0  0  0
   37.1290   31.7820   40.4490 C   0  0  0  0  0  0  0  0  0  0  0  0
   37.7620   30.5440   40.5220 C   0  0  0  0  0  0  0  0  0  0  0  0
   38.6980   30.3160   39.5830 N   0  0  0  0  0  0  0  0  0  0  0  0
   39.0550   31.1690   38.6090 C   0  0  0  0  0  0  0  0  0  0  0  0
   38.4430   32.3710   38.5370 N   0  0  0  0  0  0  0  0  0  0  0  0
   36.9840   33.6610   39.3910 H   0  0  0  0  0  0  0  0  0  0  0  0
   36.3710   32.0050   41.1860 H   0  0  0  0  0  0  0  0  0  0  0  0
   39.8260   30.8390   37.9280 H   0  0  0  0  0  0  0  0  0  0  0  0
  1  2  1  0  0  0  0
  2  7  1  0  0  0  0
  2  3  2  0  0  0  0
  3  8  1  0  0  0  0
  4  3  1  0  0  0  0
  4  9  1  0  0  0  0
  5  4  2  0  0  0  0
  6  1  2  0  0  0  0
  6  5  1  0  0  0  0
 10  5  1  0  0  0  0
 12 11  1  0  0  0  0
 12 13  1  0  0  0  0
 13  6  1  0  0  0  0
 14 13  2  0  0  0  0
 14 15  1  0  0  0  0
 16 14  1  0  0  0  0
 17 19  1  0  0  0  0
 17 16  2  0  0  0  0
 18 17  1  0  0  0  0
 19 12  2  0  0  0  0
 20 19  1  0  0  0  0
 21 22  1  0  0  0  0
 22 23  2  0  0  0  0
 22 28  1  0  0  0  0
 23  1  1  0  0  0  0
 24 23  1  0  0  0  0
 25 24  2  0  0  0  0
 26 25  1  0  0  0  0
 26 21  2  0  0  0  0
 27 21  1  0  0  0  0
 29 25  1  0  0  0  0
M  END
>  <minimizedAffinity>
-5.58972168

$$$$

 OpenBabel03242516583D

 29 31  0  0  0  0  0  0  0  0999 V2000
   37.6470   29.4420   41.5480 C   0  0  0  0  0  0  0  0  0  0  0  0
   37.6650   29.3060   42.9230 C   0  0  0  0  0  0  0  0  0  0  0  0
   37.3110   28.1130   43.5160 C   0  0  0  0  0  0  0  0  0  0  0  0
   36.9450   27.0730   42.6990 C   0  0  0  0  0  0  0  0  0  0  0  0
   36.9100   27.1530   41.3130 C   0  0  0  0  0  0  0  0  0  0  0  0
   37.2810   28.3940   40.7600 C   0  0  0  0  0  0  0  0  0  0  0  0
   37.9560   30.1330   43.5740 H   0  0  0  0  0  0  0  0  0  0  0  0
   37.3380   28.0490   44.5900 H   0  0  0  0  0  0  0  0  0  0  0  0
   36.6730   26.1450   43.2160 H   0  0  0  0  0  0  0  0  0  0  0  0
   36.6150   26.3110   40.7020 H   0  0  0  0  0  0  0  0  0  0  0  0
   34.5650   29.1670   39.7250 Cl  0  0  0  0  0  0  0  0  0  0  0  0
   36.0070   28.8380   38.7740 C   0  0  0  0  0  0  0  0  0  0  0  0
   37.2440   28.4800   39.3210 C   0  0  0  0  0  0  0  0  0  0  0  0
   38.2550   28.2640   38.4110 C   0  0  0  0  0  0  0  0  0  0  0  0
   39.2030   27.9900   38.8500 H   0  0  0  0  0  0  0  0  0  0  0  0
   38.1240   28.3740   37.0490 C   0  0  0  0  0  3  0  0  0  0  0  0
   36.8800   28.7310   36.5410 C   0  0  0  0  0  0  0  0  0  0  0  0
   36.7630   28.8590   34.7870 Cl  0  0  0  0  0  0  0  0  0  0  0  0
   35.8230   28.9620   37.4180 C   0  0  0  0  0  0  0  0  0  0  0  0
   34.9040   29.2330   36.9260 H   0  0  0  0  0  0  0  0  0  0  0  0
   37.6260   32.9450   40.1090 C   0  0  0  0  0  0  0  0  0  0  0  0
   37.1450   31.7230   40.6120 C   0  0  0  0  0  0  0  0  0  0  0  0
   38.0360   30.7340   41.0180 C   0  0  0  0  0  0  0  0  0  0  0  0
   39.3400   31.0410   40.8900 N   0  0  0  0  0  0  0  0  0  0  0  0
   39.8290   32.1980   40.4140 C   0  0  0  0  0  0  0  0  0  0  0  0
   38.9660   33.1590   40.0190 N   0  0  0  0  0  0  0  0  0  0  0  0
   36.9250   33.7110   39.7940 H   0  0  0  0  0  0  0  0  0  0  0  0
   36.0880   31.5160   40.6990 H   0  0  0  0  0  0  0  0  0  0  0  0
   40.9050   32.2950   40.3720 H   0  0  0  0  0  0  0  0  0  0  0  0
  1  2  1  0  0  0  0
  2  3  2  0  0  0  0
  2  7  1  0  0  0  0
  3  8  1  0  0  0  0
  4  9  1  0  0  0  0
  4  3  1  0  0  0  0
  5  4  2  0  0  0  0
  6  5  1  0  0  0  0
  6  1  2  0  0  0  0
 10  5  1  0  0  0  0
 12 13  1  0  0  0  0
 12 11  1  0  0  0  0
 13  6  1  0  0  0  0
 14 15  1  0  0  0  0
 14 13  2  0  0  0  0
 16 14  1  0  0  0  0
 17 16  2  0  0  0  0
 17 19  1  0  0  0  0
 18 17  1  0  0  0  0
 19 12  2  0  0  0  0
 20 19  1  0  0  0  0
 21 22  1  0  0  0  0
 22 28  1  0  0  0  0
 22 23  2  0  0  0  0
 23  1  1  0  0  0  0
 24 23  1  0  0  0  0
 25 24  2  0  0  0  0
 26 21  2  0  0  0  0
 26 25  1  0  0  0  0
 27 21  1  0  0  0  0
 29 25  1  0  0  0  0
M  END
>  <minimizedAffinity>
-5.41382074

$$$$

 OpenBabel03242516583D

 29 31  0  0  0  0  0  0  0  0999 V2000
   38.4340   31.5680   40.8210 C   0  0  0  0  0  0  0  0  0  0  0  0
   39.2020   32.6290   41.2600 C   0  0  0  0  0  0  0  0  0  0  0  0
   38.9400   33.9120   40.8310 C   0  0  0  0  0  0  0  0  0  0  0  0
   37.8970   34.0970   39.9580 C   0  0  0  0  0  0  0  0  0  0  0  0
   37.0930   33.0680   39.4840 C   0  0  0  0  0  0  0  0  0  0  0  0
   37.4050   31.7780   39.9560 C   0  0  0  0  0  0  0  0  0  0  0  0
   40.0330   32.4830   41.9550 H   0  0  0  0  0  0  0  0  0  0  0  0
   39.5620   34.7110   41.1960 H   0  0  0  0  0  0  0  0  0  0  0  0
   37.7260   35.1340   39.6450 H   0  0  0  0  0  0  0  0  0  0  0  0
   36.2790   33.2530   38.7960 H   0  0  0  0  0  0  0  0  0  0  0  0
   38.1250   30.9570   37.1540 Cl  0  0  0  0  0  0  0  0  0  0  0  0
   36.8570   30.2770   38.1640 C   0  0  0  0  0  0  0  0  0  0  0  0
   36.5720   30.7090   39.4650 C   0  0  0  0  0  0  0  0  0  0  0  0
   35.5410   30.0500   40.0960 C   0  0  0  0  0  0  0  0  0  0  0  0
   35.3350   30.3930   41.0990 H   0  0  0  0  0  0  0  0  0  0  0  0
   34.8020   29.0320   39.5430 C   0  0  0  0  0  3  0  0  0  0  0  0
   35.1130   28.6310   38.2490 C   0  0  0  0  0  0  0  0  0  0  0  0
   34.1360   27.3220   37.5850 Cl  0  0  0  0  0  0  0  0  0  0  0  0
   36.1480   29.2630   37.5650 C   0  0  0  0  0  0  0  0  0  0  0  0
   36.3090   28.8800   36.5730 H   0  0  0  0  0  0  0  0  0  0  0  0
   38.7300   28.4390   42.9350 C   0  0  0  0  0  0  0  0  0  0  0  0
   38.3250   29.7240   42.5300 C   0  0  0  0  0  0  0  0  0  0  0  0
   38.7870   30.2570   41.3300 C   0  0  0  0  0  0  0  0  0  0  0  0
   39.6180   29.4660   40.6270 N   0  0  0  0  0  0  0  0  0  0  0  0
   40.0220   28.2370   40.9880 C   0  0  0  0  0  0  0  0  0  0  0  0
   39.5760   27.7190   42.1520 N   0  0  0  0  0  0  0  0  0  0  0  0
   38.3670   28.0310   43.8730 H   0  0  0  0  0  0  0  0  0  0  0  0
   37.6560   30.3280   43.1250 H   0  0  0  0  0  0  0  0  0  0  0  0
   40.6940   27.7250   40.3130 H   0  0  0  0  0  0  0  0  0  0  0  0
  1  2  1  0  0  0  0
  1 23  1  0  0  0  0
  2  7  1  0  0  0  0
  3  8  1  0  0  0  0
  3  2  2  0  0  0  0
  4  3  1  0  0  0  0
  5  6  1  0  0  0  0
  5  4  2  0  0  0  0
  6  1  2  0  0  0  0
  9  4  1  0  0  0  0
 10  5  1  0  0  0  0
 11 12  1  0  0  0  0
 12 13  1  0  0  0  0
 13  6  1  0  0  0  0
 13 14  2  0  0  0  0
 14 15  1  0  0  0  0
 16 14  1  0  0  0  0
 17 16  2  0  0  0  0
 18 17  1  0  0  0  0
 19 12  2  0  0  0  0
 19 17  1  0  0  0  0
 20 19  1  0  0  0  0
 21 27  1  0  0  0  0
 22 21  1  0  0  0  0
 22 28  1  0  0  0  0
 23 22  2  0  0  0  0
 24 25  2  0  0  0  0
 24 23  1  0  0  0  0
 25 26  1  0  0  0  0
 26 21  2  0  0  0  0
 29 25  1  0  0  0  0
M  END
>  <minimizedAffinity>
-5.35857201

$$$$

 OpenBabel03242516583D

 29 31  0  0  0  0  0  0  0  0999 V2000
   37.4260   31.6970   39.9650 C   0  0  0  0  0  0  0  0  0  0  0  0
   37.1720   32.9520   39.4450 C   0  0  0  0  0  0  0  0  0  0  0  0
   37.9360   34.0350   39.8190 C   0  0  0  0  0  0  0  0  0  0  0  0
   38.9510   33.8260   40.7190 C   0  0  0  0  0  0  0  0  0  0  0  0
   39.2520   32.5880   41.2720 C   0  0  0  0  0  0  0  0  0  0  0  0
   38.4390   31.5160   40.8550 C   0  0  0  0  0  0  0  0  0  0  0  0
   36.3640   33.1190   38.7300 H   0  0  0  0  0  0  0  0  0  0  0  0
   37.7050   34.9950   39.3920 H   0  0  0  0  0  0  0  0  0  0  0  0
   39.5320   34.7170   40.9850 H   0  0  0  0  0  0  0  0  0  0  0  0
   40.0600   32.4620   41.9790 H   0  0  0  0  0  0  0  0  0  0  0  0
   40.3290   29.9200   39.1430 Cl  0  0  0  0  0  0  0  0  0  0  0  0
   39.6260   29.4360   40.6810 C   0  0  0  0  0  0  0  0  0  0  0  0
   38.7490   30.2300   41.4290 C   0  0  0  0  0  0  0  0  0  0  0  0
   38.3070   29.6750   42.6080 C   0  0  0  0  0  0  0  0  0  0  0  0
   37.6320   30.3000   43.1740 H   0  0  0  0  0  0  0  0  0  0  0  0
   38.6630   28.4330   43.0770 C   0  0  0  0  0  3  0  0  0  0  0  0
   39.5360   27.6740   42.3070 C   0  0  0  0  0  0  0  0  0  0  0  0
   39.9620   26.0880   42.9510 Cl  0  0  0  0  0  0  0  0  0  0  0  0
   40.0140   28.1870   41.1040 C   0  0  0  0  0  0  0  0  0  0  0  0
   40.6830   27.5230   40.5850 H   0  0  0  0  0  0  0  0  0  0  0  0
   35.7790   28.9670   37.9200 C   0  0  0  0  0  0  0  0  0  0  0  0
   36.6640   30.0050   38.2650 C   0  0  0  0  0  0  0  0  0  0  0  0
   36.5680   30.6200   39.5100 C   0  0  0  0  0  0  0  0  0  0  0  0
   35.5970   30.1520   40.3150 N   0  0  0  0  0  0  0  0  0  0  0  0
   34.7380   29.1640   40.0120 C   0  0  0  0  0  0  0  0  0  0  0  0
   34.8290   28.5660   38.8050 N   0  0  0  0  0  0  0  0  0  0  0  0
   35.8600   28.4930   36.9470 H   0  0  0  0  0  0  0  0  0  0  0  0
   37.4320   30.3520   37.5900 H   0  0  0  0  0  0  0  0  0  0  0  0
   34.0100   28.9000   40.7670 H   0  0  0  0  0  0  0  0  0  0  0  0
  1  6  1  0  0  0  0
  2  3  1  0  0  0  0
  2  1  2  0  0  0  0
  3  4  2  0  0  0  0
  4  9  1  0  0  0  0
  4  5  1  0  0  0  0
  5 10  1  0  0  0  0
  6  5  2  0  0  0  0
  6 13  1  0  0  0  0
  7  2  1  0  0  0  0
  8  3  1  0  0  0  0
 11 12  1  0  0  0  0
 12 19  2  0  0  0  0
 12 13  1  0  0  0  0
 13 14  2  0  0  0  0
 14 16  1  0  0  0  0
 14 15  1  0  0  0  0
 17 18  1  0  0  0  0
 17 16  2  0  0  0  0
 19 17  1  0  0  0  0
 20 19  1  0  0  0  0
 21 22  2  0  0  0  0
 21 26  1  0  0  0  0
 22 23  1  0  0  0  0
 23  1  1  0  0  0  0
 23 24  2  0  0  0  0
 25 24  1  0  0  0  0
 25 29  1  0  0  0  0
 26 25  2  0  0  0  0
 27 21  1  0  0  0  0
 28 22  1  0  0  0  0
M  END
>  <minimizedAffinity>
-5.29904842

$$$$

 OpenBabel03242516583D

 29 31  0  0  0  0  0  0  0  0999 V2000
   37.0920   26.5380   40.1970 C   0  0  0  0  0  0  0  0  0  0  0  0
   36.9100   25.1890   39.9630 C   0  0  0  0  0  0  0  0  0  0  0  0
   36.1490   24.7560   38.9000 C   0  0  0  0  0  0  0  0  0  0  0  0
   35.5820   25.7050   38.0860 C   0  0  0  0  0  0  0  0  0  0  0  0
   35.7310   27.0740   38.2740 C   0  0  0  0  0  0  0  0  0  0  0  0
   36.5200   27.4590   39.3760 C   0  0  0  0  0  0  0  0  0  0  0  0
   37.3610   24.4320   40.6090 H   0  0  0  0  0  0  0  0  0  0  0  0
   36.0310   23.6960   38.7530 H   0  0  0  0  0  0  0  0  0  0  0  0
   34.9860   25.3140   37.2540 H   0  0  0  0  0  0  0  0  0  0  0  0
   35.2680   27.7920   37.6120 H   0  0  0  0  0  0  0  0  0  0  0  0
   38.6950   28.6250   37.6560 Cl  0  0  0  0  0  0  0  0  0  0  0  0
   37.6730   29.4850   38.7990 C   0  0  0  0  0  0  0  0  0  0  0  0
   36.6760   28.8790   39.5730 C   0  0  0  0  0  0  0  0  0  0  0  0
   35.9810   29.7230   40.4100 C   0  0  0  0  0  0  0  0  0  0  0  0
   35.2140   29.2400   40.9980 H   0  0  0  0  0  0  0  0  0  0  0  0
   36.2010   31.0730   40.5270 C   0  0  0  0  0  3  0  0  0  0  0  0
   37.2000   31.6400   39.7430 C   0  0  0  0  0  0  0  0  0  0  0  0
   37.4440   33.3760   39.9300 Cl  0  0  0  0  0  0  0  0  0  0  0  0
   37.9340   30.8320   38.8780 C   0  0  0  0  0  0  0  0  0  0  0  0
   38.6810   31.3660   38.3170 H   0  0  0  0  0  0  0  0  0  0  0  0
   38.3130   27.3920   43.6790 C   0  0  0  0  0  0  0  0  0  0  0  0
   37.4330   27.0420   42.6390 C   0  0  0  0  0  0  0  0  0  0  0  0
   37.9110   26.8950   41.3400 C   0  0  0  0  0  0  0  0  0  0  0  0
   39.2290   27.1090   41.1790 N   0  0  0  0  0  0  0  0  0  0  0  0
   40.0920   27.4450   42.1520 C   0  0  0  0  0  0  0  0  0  0  0  0
   39.6310   27.5890   43.4130 N   0  0  0  0  0  0  0  0  0  0  0  0
   37.9320   27.5060   44.6900 H   0  0  0  0  0  0  0  0  0  0  0  0
   36.3800   26.8780   42.8100 H   0  0  0  0  0  0  0  0  0  0  0  0
   41.1240   27.5840   41.8640 H   0  0  0  0  0  0  0  0  0  0  0  0
  1 23  1  0  0  0  0
  2  1  1  0  0  0  0
  2  7  1  0  0  0  0
  3  2  2  0  0  0  0
  4  5  2  0  0  0  0
  4  3  1  0  0  0  0
  5  6  1  0  0  0  0
  6 13  1  0  0  0  0
  6  1  2  0  0  0  0
  8  3  1  0  0  0  0
  9  4  1  0  0  0  0
 10  5  1  0  0  0  0
 11 12  1  0  0  0  0
 12 19  2  0  0  0  0
 12 13  1  0  0  0  0
 13 14  2  0  0  0  0
 14 16  1  0  0  0  0
 14 15  1  0  0  0  0
 17 18  1  0  0  0  0
 17 16  2  0  0  0  0
 19 17  1  0  0  0  0
 20 19  1  0  0  0  0
 21 27  1  0  0  0  0
 22 28  1  0  0  0  0
 22 21  2  0  0  0  0
 23 22  1  0  0  0  0
 24 23  2  0  0  0  0
 24 25  1  0  0  0  0
 25 26  2  0  0  0  0
 26 21  1  0  0  0  0
 29 25  1  0  0  0  0
M  END
>  <minimizedAffinity>
-5.09627485

$$$$

 OpenBabel03242516583D

 29 31  0  0  0  0  0  0  0  0999 V2000
   36.7650   26.2040   39.9120 C   0  0  0  0  0  0  0  0  0  0  0  0
   36.7290   24.8410   40.1400 C   0  0  0  0  0  0  0  0  0  0  0  0
   36.8610   24.3390   41.4160 C   0  0  0  0  0  0  0  0  0  0  0  0
   37.0290   25.2310   42.4450 C   0  0  0  0  0  0  0  0  0  0  0  0
   37.0730   26.6090   42.2740 C   0  0  0  0  0  0  0  0  0  0  0  0
   36.9320   27.0680   40.9500 C   0  0  0  0  0  0  0  0  0  0  0  0
   36.5950   24.1300   39.3220 H   0  0  0  0  0  0  0  0  0  0  0  0
   36.8280   23.2710   41.5510 H   0  0  0  0  0  0  0  0  0  0  0  0
   37.1300   24.7840   43.4410 H   0  0  0  0  0  0  0  0  0  0  0  0
   37.2080   27.2820   43.1100 H   0  0  0  0  0  0  0  0  0  0  0  0
   39.7160   28.0680   40.4050 Cl  0  0  0  0  0  0  0  0  0  0  0  0
   38.2470   29.0280   40.5110 C   0  0  0  0  0  0  0  0  0  0  0  0
   36.9780   28.4980   40.7700 C   0  0  0  0  0  0  0  0  0  0  0  0
   35.9510   29.4130   40.8130 C   0  0  0  0  0  0  0  0  0  0  0  0
   34.9780   28.9880   41.0120 H   0  0  0  0  0  0  0  0  0  0  0  0
   36.0930   30.7660   40.6240 C   0  0  0  0  0  3  0  0  0  0  0  0
   37.3680   31.2570   40.3690 C   0  0  0  0  0  0  0  0  0  0  0  0
   37.4990   32.9990   40.1340 Cl  0  0  0  0  0  0  0  0  0  0  0  0
   38.4440   30.3740   40.3140 C   0  0  0  0  0  0  0  0  0  0  0  0
   39.3870   30.8520   40.1120 H   0  0  0  0  0  0  0  0  0  0  0  0
   35.3680   27.3890   36.5970 C   0  0  0  0  0  0  0  0  0  0  0  0
   35.4050   26.9840   37.9440 C   0  0  0  0  0  0  0  0  0  0  0  0
   36.6160   26.6360   38.5360 C   0  0  0  0  0  0  0  0  0  0  0  0
   37.6960   26.7200   37.7390 N   0  0  0  0  0  0  0  0  0  0  0  0
   37.6920   27.1030   36.4520 C   0  0  0  0  0  0  0  0  0  0  0  0
   36.5180   27.4400   35.8750 N   0  0  0  0  0  0  0  0  0  0  0  0
   34.4200   27.6580   36.1420 H   0  0  0  0  0  0  0  0  0  0  0  0
   34.5130   26.9300   38.5510 H   0  0  0  0  0  0  0  0  0  0  0  0
   38.6450   27.1190   35.9430 H   0  0  0  0  0  0  0  0  0  0  0  0
  1  2  2  0  0  0  0
  1  6  1  0  0  0  0
  2  3  1  0  0  0  0
  3  8  1  0  0  0  0
  3  4  2  0  0  0  0
  4  9  1  0  0  0  0
  5  4  1  0  0  0  0
  5 10  1  0  0  0  0
  6  5  2  0  0  0  0
  7  2  1  0  0  0  0
 11 12  1  0  0  0  0
 12 13  1  0  0  0  0
 13 14  2  0  0  0  0
 13  6  1  0  0  0  0
 14 15  1  0  0  0  0
 16 14  1  0  0  0  0
 17 16  2  0  0  0  0
 18 17  1  0  0  0  0
 19 17  1  0  0  0  0
 19 12  2  0  0  0  0
 20 19  1  0  0  0  0
 21 22  1  0  0  0  0
 22 23  2  0  0  0  0
 22 28  1  0  0  0  0
 23  1  1  0  0  0  0
 24 23  1  0  0  0  0
 25 24  2  0  0  0  0
 26 25  1  0  0  0  0
 26 21  2  0  0  0  0
 27 21  1  0  0  0  0
 29 25  1  0  0  0  0
M  END
>  <minimizedAffinity>
-5.0298624

$$$$

 OpenBabel03242516583D

 29 31  0  0  0  0  0  0  0  0999 V2000
   37.8840   27.3450   40.6400 C   0  0  0  0  0  0  0  0  0  0  0  0
   37.6580   26.0280   40.9960 C   0  0  0  0  0  0  0  0  0  0  0  0
   37.1110   25.7160   42.2210 C   0  0  0  0  0  0  0  0  0  0  0  0
   36.7990   26.7490   43.0690 C   0  0  0  0  0  0  0  0  0  0  0  0
   37.0040   28.0890   42.7630 C   0  0  0  0  0  0  0  0  0  0  0  0
   37.5660   28.3510   41.4980 C   0  0  0  0  0  0  0  0  0  0  0  0
   37.9060   25.2050   40.3220 H   0  0  0  0  0  0  0  0  0  0  0  0
   36.9520   24.6790   42.4600 H   0  0  0  0  0  0  0  0  0  0  0  0
   36.3650   26.4520   44.0310 H   0  0  0  0  0  0  0  0  0  0  0  0
   36.7460   28.8770   43.4580 H   0  0  0  0  0  0  0  0  0  0  0  0
   35.1840   29.5990   40.1510 Cl  0  0  0  0  0  0  0  0  0  0  0  0
   36.7060   30.3830   40.5510 C   0  0  0  0  0  0  0  0  0  0  0  0
   37.7800   29.7410   41.1790 C   0  0  0  0  0  0  0  0  0  0  0  0
   38.8870   30.5250   41.4090 C   0  0  0  0  0  0  0  0  0  0  0  0
   39.7060   30.0150   41.8960 H   0  0  0  0  0  0  0  0  0  0  0  0
   38.9970   31.8510   41.0690 C   0  0  0  0  0  3  0  0  0  0  0  0
   37.9120   32.4550   40.4460 C   0  0  0  0  0  0  0  0  0  0  0  0
   38.1020   34.1580   40.0300 Cl  0  0  0  0  0  0  0  0  0  0  0  0
   36.7650   31.7080   40.1900 C   0  0  0  0  0  0  0  0  0  0  0  0
   35.9830   32.2670   39.7060 H   0  0  0  0  0  0  0  0  0  0  0  0
   38.3890   27.9410   36.9340 C   0  0  0  0  0  0  0  0  0  0  0  0
   37.7290   27.7250   38.1570 C   0  0  0  0  0  0  0  0  0  0  0  0
   38.4630   27.5730   39.3300 C   0  0  0  0  0  0  0  0  0  0  0  0
   39.7990   27.6470   39.1920 N   0  0  0  0  0  0  0  0  0  0  0  0
   40.4570   27.8520   38.0390 C   0  0  0  0  0  0  0  0  0  0  0  0
   39.7470   28.0000   36.8990 N   0  0  0  0  0  0  0  0  0  0  0  0
   37.8100   28.0580   36.0230 H   0  0  0  0  0  0  0  0  0  0  0  0
   36.6530   27.6720   38.2260 H   0  0  0  0  0  0  0  0  0  0  0  0
   41.5360   27.8870   38.0900 H   0  0  0  0  0  0  0  0  0  0  0  0
  1  2  2  0  0  0  0
  1  6  1  0  0  0  0
  2  3  1  0  0  0  0
  3  8  1  0  0  0  0
  3  4  2  0  0  0  0
  4  9  1  0  0  0  0
  5  4  1  0  0  0  0
  5 10  1  0  0  0  0
  6  5  2  0  0  0  0
  7  2  1  0  0  0  0
 11 12  1  0  0  0  0
 12 13  1  0  0  0  0
 13 14  2  0  0  0  0
 13  6  1  0  0  0  0
 14 15  1  0  0  0  0
 16 14  1  0  0  0  0
 17 16  2  0  0  0  0
 18 17  1  0  0  0  0
 19 17  1  0  0  0  0
 19 12  2  0  0  0  0
 20 19  1  0  0  0  0
 21 22  1  0  0  0  0
 22 28  1  0  0  0  0
 22 23  2  0  0  0  0
 23  1  1  0  0  0  0
 24 23  1  0  0  0  0
 25 29  1  0  0  0  0
 25 24  2  0  0  0  0
 26 21  2  0  0  0  0
 26 25  1  0  0  0  0
 27 21  1  0  0  0  0
M  END
>  <minimizedAffinity>
-5.01018

$$$$

 OpenBabel03242516583D

 29 31  0  0  0  0  0  0  0  0999 V2000
   37.6370   27.3880   40.6810 C   0  0  0  0  0  0  0  0  0  0  0  0
   37.4440   26.0750   41.0660 C   0  0  0  0  0  0  0  0  0  0  0  0
   37.0050   25.7720   42.3370 C   0  0  0  0  0  0  0  0  0  0  0  0
   36.7670   26.8120   43.2000 C   0  0  0  0  0  0  0  0  0  0  0  0
   36.9430   28.1500   42.8670 C   0  0  0  0  0  0  0  0  0  0  0  0
   37.3930   28.4010   41.5560 C   0  0  0  0  0  0  0  0  0  0  0  0
   37.6320   25.2460   40.3800 H   0  0  0  0  0  0  0  0  0  0  0  0
   36.8680   24.7370   42.5970 H   0  0  0  0  0  0  0  0  0  0  0  0
   36.4190   26.5230   44.1980 H   0  0  0  0  0  0  0  0  0  0  0  0
   36.7460   28.9430   43.5740 H   0  0  0  0  0  0  0  0  0  0  0  0
   40.1110   29.4280   42.3330 Cl  0  0  0  0  0  0  0  0  0  0  0  0
   38.8250   30.3280   41.5410 C   0  0  0  0  0  0  0  0  0  0  0  0
   37.5780   29.7880   41.2080 C   0  0  0  0  0  0  0  0  0  0  0  0
   36.7030   30.6540   40.5910 C   0  0  0  0  0  0  0  0  0  0  0  0
   35.7460   30.2210   40.3380 H   0  0  0  0  0  0  0  0  0  0  0  0
   36.9730   31.9680   40.2950 C   0  0  0  0  0  3  0  0  0  0  0  0
   38.2220   32.4700   40.6420 C   0  0  0  0  0  0  0  0  0  0  0  0
   38.5190   34.1610   40.2420 Cl  0  0  0  0  0  0  0  0  0  0  0  0
   39.1450   31.6370   41.2680 C   0  0  0  0  0  0  0  0  0  0  0  0
   40.0800   32.1190   41.4940 H   0  0  0  0  0  0  0  0  0  0  0  0
   39.7810   27.8920   37.6000 C   0  0  0  0  0  0  0  0  0  0  0  0
   39.4370   27.6750   38.9470 C   0  0  0  0  0  0  0  0  0  0  0  0
   38.0990   27.6050   39.3240 C   0  0  0  0  0  0  0  0  0  0  0  0
   37.2080   27.7570   38.3280 N   0  0  0  0  0  0  0  0  0  0  0  0
   37.5050   27.9650   37.0350 C   0  0  0  0  0  0  0  0  0  0  0  0
   38.8030   28.0340   36.6670 N   0  0  0  0  0  0  0  0  0  0  0  0
   40.8270   27.9460   37.3140 H   0  0  0  0  0  0  0  0  0  0  0  0
   40.1850   27.5580   39.7170 H   0  0  0  0  0  0  0  0  0  0  0  0
   36.6740   28.0680   36.3520 H   0  0  0  0  0  0  0  0  0  0  0  0
  1  2  2  0  0  0  0
  1  6  1  0  0  0  0
  2  3  1  0  0  0  0
  3  8  1  0  0  0  0
  3  4  2  0  0  0  0
  4  9  1  0  0  0  0
  5  4  1  0  0  0  0
  5 10  1  0  0  0  0
  6  5  2  0  0  0  0
  7  2  1  0  0  0  0
 12 11  1  0  0  0  0
 13 12  2  0  0  0  0
 13  6  1  0  0  0  0
 14 13  1  0  0  0  0
 15 14  1  0  0  0  0
 16 14  2  0  0  0  0
 16 17  1  0  0  0  0
 17 19  2  0  0  0  0
 18 17  1  0  0  0  0
 19 20  1  0  0  0  0
 19 12  1  0  0  0  0
 21 22  1  0  0  0  0
 22 23  2  0  0  0  0
 22 28  1  0  0  0  0
 23  1  1  0  0  0  0
 24 23  1  0  0  0  0
 25 24  2  0  0  0  0
 26 25  1  0  0  0  0
 26 21  2  0  0  0  0
 27 21  1  0  0  0  0
 29 25  1  0  0  0  0
M  END
>  <minimizedAffinity>
-5.00187731

$$$$

 OpenBabel03242516583D

 29 31  0  0  0  0  0  0  0  0999 V2000
   36.9350   26.0780   39.9860 C   0  0  0  0  0  0  0  0  0  0  0  0
   36.2770   24.9100   39.6480 C   0  0  0  0  0  0  0  0  0  0  0  0
   36.5070   23.7470   40.3490 C   0  0  0  0  0  0  0  0  0  0  0  0
   37.4040   23.7870   41.3870 C   0  0  0  0  0  0  0  0  0  0  0  0
   38.0930   24.9320   41.7700 C   0  0  0  0  0  0  0  0  0  0  0  0
   37.8190   26.0920   41.0200 C   0  0  0  0  0  0  0  0  0  0  0  0
   35.5630   24.8770   38.8220 H   0  0  0  0  0  0  0  0  0  0  0  0
   35.9750   22.8590   40.0530 H   0  0  0  0  0  0  0  0  0  0  0  0
   37.5540   22.8380   41.9150 H   0  0  0  0  0  0  0  0  0  0  0  0
   38.7930   24.9250   42.5940 H   0  0  0  0  0  0  0  0  0  0  0  0
   36.4730   27.5380   43.2880 Cl  0  0  0  0  0  0  0  0  0  0  0  0
   37.9580   28.0010   42.4700 C   0  0  0  0  0  0  0  0  0  0  0  0
   38.5320   27.2810   41.4150 C   0  0  0  0  0  0  0  0  0  0  0  0
   39.6990   27.8060   40.9060 C   0  0  0  0  0  0  0  0  0  0  0  0
   40.1300   27.2370   40.0940 H   0  0  0  0  0  0  0  0  0  0  0  0
   40.3090   28.9510   41.3550 C   0  0  0  0  0  3  0  0  0  0  0  0
   39.7100   29.6400   42.4030 C   0  0  0  0  0  0  0  0  0  0  0  0
   40.5320   31.1040   42.9420 Cl  0  0  0  0  0  0  0  0  0  0  0  0
   38.5290   29.1530   42.9560 C   0  0  0  0  0  0  0  0  0  0  0  0
   38.1460   29.7570   43.7600 H   0  0  0  0  0  0  0  0  0  0  0  0
   35.4410   29.3050   38.6810 C   0  0  0  0  0  0  0  0  0  0  0  0
   35.6660   28.2020   39.5250 C   0  0  0  0  0  0  0  0  0  0  0  0
   36.6250   27.2510   39.1910 C   0  0  0  0  0  0  0  0  0  0  0  0
   37.2860   27.4730   38.0400 N   0  0  0  0  0  0  0  0  0  0  0  0
   37.0930   28.5150   37.2150 C   0  0  0  0  0  0  0  0  0  0  0  0
   36.1630   29.4400   37.5380 N   0  0  0  0  0  0  0  0  0  0  0  0
   34.6910   30.0430   38.9480 H   0  0  0  0  0  0  0  0  0  0  0  0
   35.1130   28.0600   40.4420 H   0  0  0  0  0  0  0  0  0  0  0  0
   37.7050   28.5550   36.3250 H   0  0  0  0  0  0  0  0  0  0  0  0
  1  6  1  0  0  0  0
  2  1  2  0  0  0  0
  2  3  1  0  0  0  0
  3  4  2  0  0  0  0
  4  5  1  0  0  0  0
  4  9  1  0  0  0  0
  5 10  1  0  0  0  0
  6 13  1  0  0  0  0
  6  5  2  0  0  0  0
  7  2  1  0  0  0  0
  8  3  1  0  0  0  0
 12 19  1  0  0  0  0
 12 11  1  0  0  0  0
 13 12  2  0  0  0  0
 14 16  2  0  0  0  0
 14 13  1  0  0  0  0
 15 14  1  0  0  0  0
 16 17  1  0  0  0  0
 17 18  1  0  0  0  0
 17 19  2  0  0  0  0
 19 20  1  0  0  0  0
 21 27  1  0  0  0  0
 21 22  1  0  0  0  0
 22 28  1  0  0  0  0
 23 22  2  0  0  0  0
 23  1  1  0  0  0  0
 24 23  1  0  0  0  0
 25 26  1  0  0  0  0
 25 24  2  0  0  0  0
 26 21  2  0  0  0  0
 29 25  1  0  0  0  0
M  END
>  <minimizedAffinity>
-5.00064421

$$$$
