
     RDKit          3D

 39 42  0  0  0  0  0  0  0  0999 V2000
   47.5337   32.8429   43.9079 C   0  0  0  0  0  0  0  0  0  0  0  0
   48.3723   33.3851   43.0144 C   0  0  0  0  0  0  0  0  0  0  0  0
   49.2355   32.4913   42.4126 C   0  0  0  0  0  0  0  0  0  0  0  0
   49.1644   31.1356   42.7810 N   0  0  0  0  0  0  0  0  0  0  0  0
   48.3131   30.6787   43.6724 C   0  0  0  0  0  0  0  0  0  0  0  0
   47.4345   31.5435   44.2914 N   0  0  0  0  0  0  0  0  0  0  0  0
   48.5222   34.7722   42.7316 C   0  0  0  0  0  0  0  0  0  0  0  0
   49.5213   35.4051   42.0623 C   0  0  0  0  0  0  0  0  0  0  0  0
   48.2785   35.2223   41.2314 C   0  0  0  0  0  0  0  0  0  0  0  0
   46.4522   33.5328   44.6242 C   0  0  0  0  0  0  0  0  0  0  0  0
   45.8807   33.8982   45.6220 O   0  0  0  0  0  0  0  0  0  0  0  0
   44.6813   31.6648   42.9251 Cl  0  0  0  0  0  0  0  0  0  0  0  0
   44.6505   33.4219   42.7605 C   0  0  0  0  0  0  0  0  0  0  0  0
   45.5205   34.1228   43.6209 C   0  0  0  0  0  0  0  0  0  0  0  0
   45.4171   35.4882   43.4064 C   0  0  0  0  0  0  0  0  0  0  0  0
   44.6500   36.1678   42.5428 C   0  0  0  0  0  0  0  0  0  0  0  0
   43.8376   35.4132   41.7465 C   0  0  0  0  0  0  0  0  0  0  0  0
   43.8226   34.0674   41.8383 C   0  0  0  0  0  0  0  0  0  0  0  0
   49.9747   32.7546   41.6678 H   0  0  0  0  0  0  0  0  0  0  0  0
   48.3744   29.6096   43.8566 H   0  0  0  0  0  0  0  0  0  0  0  0
   48.0643   35.4263   43.4965 H   0  0  0  0  0  0  0  0  0  0  0  0
   49.8506   36.4667   42.1139 H   0  0  0  0  0  0  0  0  0  0  0  0
   50.3924   34.8075   41.6573 H   0  0  0  0  0  0  0  0  0  0  0  0
   47.5067   36.0050   41.1790 H   0  0  0  0  0  0  0  0  0  0  0  0
   48.2172   34.3626   40.5398 H   0  0  0  0  0  0  0  0  0  0  0  0
   46.0127   36.1904   44.0274 H   0  0  0  0  0  0  0  0  0  0  0  0
   44.6121   37.2381   42.4170 H   0  0  0  0  0  0  0  0  0  0  0  0
   43.1549   35.7891   40.9965 H   0  0  0  0  0  0  0  0  0  0  0  0
   42.6890   35.4391   39.5028 Cl  0  0  0  0  0  0  0  0  0  0  0  0
   42.4386   33.7441   39.9288 C   0  0  0  0  0  0  0  0  0  0  0  0
   42.9899   33.1352   41.0371 C   0  0  0  0  0  0  0  0  0  0  0  0
   42.7555   31.8047   41.3150 C   0  0  0  0  0  0  0  0  0  0  0  0
   43.2366   31.4283   42.2093 H   0  0  0  0  0  0  0  0  0  0  0  0
   41.9470   31.0916   40.4463 C   0  0  0  0  0  0  0  0  0  0  0  0
   41.3966   31.7154   39.3325 C   0  0  0  0  0  0  0  0  0  0  0  0
   40.3843   30.7452   38.2816 Cl  0  0  0  0  0  0  0  0  0  0  0  0
   41.6296   33.0572   39.0472 C   0  0  0  0  0  0  0  0  0  0  0  0
   41.1767   33.4963   38.1654 H   0  0  0  0  0  0  0  0  0  0  0  0
   41.7898   30.0572   40.6997 H   0  0  0  0  0  0  0  0  0  0  0  0
  1  6  1  0
  1 10  1  0
  2  1  2  0
  3  4  2  0
  3  2  1  0
  4  5  1  0
  5  6  2  0
  7  2  1  0
  8  7  1  0
  9  8  1  0
  9  7  1  0
 10 11  2  0
 13 12  1  0
 13 14  2  0
 14 10  1  0
 15 14  1  0
 16 15  2  0
 17 18  2  0
 17 16  1  0
 18 13  1  0
  3 19  1  0
  5 20  1  0
  7 21  1  0
  8 22  1  0
  8 23  1  0
  9 24  1  0
  9 25  1  0
 15 26  1  0
 16 27  1  0
 17 28  1  0
 29 30  1  0
 30 31  2  0
 31 32  1  0
 32 33  1  0
 32 34  2  0
 34 35  1  0
 35 36  1  0
 35 37  2  0
 37 38  1  0
 37 30  1  0
 34 39  1  0
 18 31  1  0
M  ISO  8  19  14  20  14  21  13  22  13  23  13  24  13  25  13  26  14
M  ISO  4  27  14  28  14  33  16  38  15
M  END
>  <DihAtoms>  (1) 
16,17,30,29

>  <DihDeg>  (1) 
-90.0008950839155

$$$$
