
     RDKit          3D

 26 27  0  0  0  0  0  0  0  0999 V2000
   45.1891   35.2118   44.0534 C   0  0  0  0  0  0  0  0  0  0  0  0
   46.2315   34.5817   43.3735 C   0  0  0  0  0  0  0  0  0  0  0  0
   46.9090   33.5710   44.0589 C   0  0  0  0  0  0  0  0  0  0  0  0
   46.5141   33.2694   45.3294 N   0  0  0  0  0  0  0  0  0  0  0  0
   45.5063   33.9016   45.9436 C   0  0  0  0  0  0  0  0  0  0  0  0
   44.8384   34.8790   45.3036 N   0  0  0  0  0  0  0  0  0  0  0  0
   46.5520   34.9952   42.0251 C   0  0  0  0  0  0  0  0  0  0  0  0
   48.0556   35.1762   41.9183 C   0  0  0  0  0  0  0  0  0  0  0  0
   44.6082   36.0162   43.5826 H   0  0  0  0  0  0  0  0  0  0  0  0
   47.7053   33.0907   43.5375 H   0  0  0  0  0  0  0  0  0  0  0  0
   46.2874   34.1877   41.2945 H   0  0  0  0  0  0  0  0  0  0  0  0
   46.0877   35.9510   41.7853 H   0  0  0  0  0  0  0  0  0  0  0  0
   48.5645   34.2185   41.7105 H   0  0  0  0  0  0  0  0  0  0  0  0
   48.2344   35.8915   41.0988 H   0  0  0  0  0  0  0  0  0  0  0  0
   48.4354   35.6286   42.8592 H   0  0  0  0  0  0  0  0  0  0  0  0
   44.6321   30.9996   46.3131 Cl  0  0  0  0  0  0  0  0  0  0  0  0
   44.7241   32.2333   47.5725 C   0  0  0  0  0  0  0  0  0  0  0  0
   45.1343   33.5290   47.3065 C   0  0  0  0  0  0  0  0  0  0  0  0
   45.1986   34.4781   48.3078 C   0  0  0  0  0  0  0  0  0  0  0  0
   45.5229   35.5079   48.1050 H   0  0  0  0  0  0  0  0  0  0  0  0
   44.8430   34.1155   49.6020 C   0  0  0  0  0  0  0  0  0  0  0  0
   44.4402   32.8164   49.8259 C   0  0  0  0  0  0  0  0  0  0  0  0
   43.9988   32.3916   51.4666 Cl  0  0  0  0  0  0  0  0  0  0  0  0
   44.3660   31.8487   48.8483 C   0  0  0  0  0  0  0  0  0  0  0  0
   44.0473   30.8389   49.0505 H   0  0  0  0  0  0  0  0  0  0  0  0
   44.8847   34.8418   50.4062 H   0  0  0  0  0  0  0  0  0  0  0  0
  1  6  2  0
  2  1  1  0
  2  3  2  0
  3  4  1  0
  4  5  2  0
  6  5  1  0
  7  2  1  0
  8  7  1  0
  1  9  1  0
  3 10  1  0
  7 11  1  0
  7 12  1  0
  8 13  1  0
  8 14  1  0
  8 15  1  0
 16 17  1  0
 17 18  2  0
 18 19  1  0
 19 20  1  0
 19 21  2  0
 21 22  1  0
 22 23  1  0
 22 24  2  0
 24 25  1  0
 24 17  1  0
 21 26  1  0
  5 18  1  0
M  ISO  8   9  14  10  14  11   8  12   8  13   8  14   8  15   8  20  16
M  ISO  1  25  15
M  END
>  <DihAtoms>  (1) 
3,4,17,16

>  <DihDeg>  (1) 
179.99986051598486

$$$$
