
 OpenBabel03242515043D

 40 42  0  0  0  0  0  0  0  0999 V2000
   45.0120   34.8630   42.4200 C   0  0  0  0  0  0  0  0  0  0  0  0
   46.2100   34.3940   41.8770 C   0  0  0  0  0  0  0  0  0  0  0  0
   47.1650   33.8180   42.7290 C   0  0  0  0  0  0  0  0  0  0  0  0
   46.8560   33.7550   44.0460 N   0  0  0  0  0  0  0  0  0  0  0  0
   45.6990   34.2110   44.5560 C   0  0  0  0  0  0  0  0  0  0  0  0
   44.8130   34.7490   43.7400 N   0  0  0  0  0  0  0  0  0  0  0  0
   46.3960   34.4700   40.8370 H   0  0  0  0  0  0  0  0  0  0  0  0
   46.9450   31.5110   40.7920 Cl  0  0  0  0  0  0  0  0  0  0  0  0
   48.4270   32.2540   41.3520 C   0  0  0  0  0  0  0  0  0  0  0  0
   48.4360   33.3060   42.2400 C   0  0  0  0  0  0  0  0  0  0  0  0
   49.6620   33.8130   42.6110 C   0  0  0  0  0  0  0  0  0  0  0  0
   49.7240   34.6220   43.2920 H   0  0  0  0  0  0  0  0  0  0  0  0
   50.8170   33.2550   42.0870 C   0  0  0  0  0  0  0  0  0  0  0  0
   50.8160   32.1870   41.1860 C   0  0  0  0  0  0  0  0  0  0  0  0
   52.3630   31.6070   40.6250 Cl  0  0  0  0  0  0  0  0  0  0  0  0
   49.5770   31.6970   40.8290 C   0  0  0  0  0  0  0  0  0  0  0  0
   49.5860   30.8730   40.1310 H   0  0  0  0  0  0  0  0  0  0  0  0
   45.5150   34.0720   45.9800 C   0  0  0  0  0  0  0  0  0  0  0  0
   44.4930   34.6040   46.4930 O   0  0  0  0  0  0  0  0  0  0  0  0
   46.4930   33.3450   46.7290 N   0  0  0  0  0  0  0  0  0  0  0  0
   47.0280   33.8060   47.5010 H   0  0  0  0  0  0  0  0  0  0  0  0
   46.6140   32.3640   46.4430 H   0  0  0  0  0  0  0  0  0  0  0  0
   43.8500   35.5810   41.2830 S   0  0  0  0  0  0  0  0  0  0  0  0
   42.1810   34.9330   41.4840 C   0  0  0  0  0  0  0  0  0  0  0  0
   42.1430   33.9640   40.9130 H   0  0  0  0  0  0  0  0  0  0  0  0
   41.9900   34.6400   42.5520 H   0  0  0  0  0  0  0  0  0  0  0  0
   41.1100   35.8140   40.9600 C   0  0  0  0  0  0  0  0  0  0  0  0
   41.5730   36.7160   40.4660 H   0  0  0  0  0  0  0  0  0  0  0  0
   40.4350   36.2470   41.7250 H   0  0  0  0  0  0  0  0  0  0  0  0
   42.0350   36.0790   38.0790 Cl  0  0  0  0  0  0  0  0  0  0  0  0
   40.6260   35.2030   38.5740 C   0  0  0  0  0  0  0  0  0  0  0  0
   40.2930   35.1460   39.9340 C   0  0  0  0  0  0  0  0  0  0  0  0
   39.1590   34.4320   40.2500 C   0  0  0  0  0  0  0  0  0  0  0  0
   38.3210   33.7660   39.3610 C   0  0  0  0  0  0  0  0  0  0  0  0
   38.6770   33.8400   38.0270 C   0  0  0  0  0  0  0  0  0  0  0  0
   37.6880   33.0360   36.8160 Cl  0  0  0  0  0  0  0  0  0  0  0  0
   39.7970   34.5400   37.6590 C   0  0  0  0  0  0  0  0  0  0  0  0
   38.9100   34.3940   41.3100 H   0  0  0  0  0  0  0  0  0  0  0  0
   37.4550   33.2340   39.7140 H   0  0  0  0  0  0  0  0  0  0  0  0
   40.0940   34.6110   36.6130 H   0  0  0  0  0  0  0  0  0  0  0  0
  1  6  1  0  0  0  0
  2  1  2  0  0  0  0
  2  3  1  0  0  0  0
  3  4  2  0  0  0  0
  4  5  1  0  0  0  0
  5 18  1  0  0  0  0
  6  5  2  0  0  0  0
  7  2  1  0  0  0  0
  8  9  1  0  0  0  0
  9 10  1  0  0  0  0
 10 11  2  0  0  0  0
 10  3  1  0  0  0  0
 11 12  1  0  0  0  0
 13 11  1  0  0  0  0
 14 13  2  0  0  0  0
 15 14  1  0  0  0  0
 16 14  1  0  0  0  0
 16  9  2  0  0  0  0
 17 16  1  0  0  0  0
 18 19  2  0  0  0  0
 18 20  1  0  0  0  0
 20 21  1  0  0  0  0
 22 20  1  0  0  0  0
 23 24  1  0  0  0  0
 23  1  1  0  0  0  0
 24 26  1  0  0  0  0
 25 24  1  0  0  0  0
 27 24  1  0  0  0  0
 27 29  1  0  0  0  0
 28 27  1  0  0  0  0
 30 31  1  0  0  0  0
 31 32  1  0  0  0  0
 32 33  2  0  0  0  0
 32 27  1  0  0  0  0
 33 38  1  0  0  0  0
 34 39  1  0  0  0  0
 34 33  1  0  0  0  0
 35 34  2  0  0  0  0
 36 35  1  0  0  0  0
 37 35  1  0  0  0  0
 37 31  2  0  0  0  0
 40 37  1  0  0  0  0
M  END
>  <minimizedAffinity>
-7.3588829

>  <minimizedRMSD>
1.10757124

$$$$
