
 OpenBabel03252507583D

 28 30  0  0  1  0  0  0  0  0999 V2000
   46.3130   32.4960   45.5280 C   0  0  1  0  0  0  0  0  0  0  0  0
   46.9530   32.7680   46.8510 C   0  0  0  0  0  0  0  0  0  0  0  0
   45.5980   32.1900   46.8090 C   0  0  2  0  0  0  0  0  0  0  0  0
   46.6580   31.6560   44.9220 H   0  0  0  0  0  0  0  0  0  0  0  0
   47.1050   33.8730   47.0270 H   0  0  0  0  0  0  0  0  0  0  0  0
   47.8870   32.2200   46.9980 H   0  0  0  0  0  0  0  0  0  0  0  0
   44.7870   32.9120   47.1470 H   0  0  0  0  0  0  0  0  0  0  0  0
   45.1900   31.3490   49.7890 Cl  0  0  0  0  0  0  0  0  0  0  0  0
   45.1840   30.2200   48.4540 C   0  0  0  0  0  0  0  0  0  0  0  0
   45.3710   30.8110   47.2290 C   0  0  0  0  0  0  0  0  0  0  0  0
   45.3630   29.9570   46.1180 C   0  0  0  0  0  0  0  0  0  0  0  0
   45.4950   30.2390   45.0600 H   0  0  0  0  0  0  0  0  0  0  0  0
   45.1760   28.5750   46.2550 C   0  0  0  0  0  3  0  0  0  0  0  0
   44.9930   28.0220   47.5010 C   0  0  0  0  0  0  0  0  0  0  0  0
   44.7490   26.3180   47.8130 Cl  0  0  0  0  0  0  0  0  0  0  0  0
   45.0000   28.8600   48.5790 C   0  0  0  0  0  0  0  0  0  0  0  0
   44.8690   28.5760   49.6340 H   0  0  0  0  0  0  0  0  0  0  0  0
   45.1550   34.5700   42.7290 C   0  0  0  0  0  0  0  0  0  0  0  0
   44.5810   35.6940   43.3740 C   0  0  0  0  0  0  0  0  0  0  0  0
   44.5980   35.7160   44.7720 C   0  0  0  0  0  0  0  0  0  0  0  0
   45.1580   34.6670   45.4230 N   0  0  0  0  0  0  0  0  0  0  0  0
   45.6940   33.6120   44.7470 C   0  0  0  0  0  0  0  0  0  0  0  0
   45.7060   33.5370   43.4160 N   0  0  0  0  0  0  0  0  0  0  0  0
   44.1530   36.4970   42.8190 H   0  0  0  0  0  0  0  0  0  0  0  0
   44.1730   36.5490   45.2840 H   0  0  0  0  0  0  0  0  0  0  0  0
   45.1170   34.6100   41.2970 C   0  0  0  0  0  0  0  0  0  0  0  0
   46.0620   34.2390   40.5340 O   0  0  0  0  0  0  0  0  0  0  0  0
   44.3530   34.9350   40.5890 H   0  0  0  0  0  0  0  0  0  0  0  0
  1  4  1  6  0  0  0
  1  3  1  0  0  0  0
  1  2  1  0  0  0  0
  2  6  1  0  0  0  0
  2  5  1  0  0  0  0
  3  2  1  0  0  0  0
  3  7  1  1  0  0  0
  3 10  1  0  0  0  0
  9 16  1  0  0  0  0
  9  8  1  0  0  0  0
 10  9  2  0  0  0  0
 11 13  2  0  0  0  0
 11 10  1  0  0  0  0
 12 11  1  0  0  0  0
 13 14  1  0  0  0  0
 14 15  1  0  0  0  0
 14 16  2  0  0  0  0
 16 17  1  0  0  0  0
 18 19  2  0  0  0  0
 18 23  1  0  0  0  0
 19 20  1  0  0  0  0
 20 25  1  0  0  0  0
 20 21  2  0  0  0  0
 22 21  1  0  0  0  0
 22  1  1  0  0  0  0
 23 22  2  0  0  0  0
 24 19  1  0  0  0  0
 26 18  1  0  0  0  0
 27 26  2  0  0  0  0
 28 26  1  0  0  0  0
M  END
>  <minimizedAffinity>
-4.99349928

>  <minimizedRMSD>
1.9066031

$$$$
