REMARK  Name = 
REMARK  3 active torsions:
REMARK  status: ('A' for Active; 'I' for Inactive)
REMARK    1  A    between atoms: C_2  and  C_7
REMARK    2  A    between atoms: C_5  and  C_18
REMARK    3  A    between atoms: C_7  and  C_8
REMARK                            x       y       z     vdW  Elec       q    Type
REMARK                         _______ _______ _______ _____ _____    ______ ____
ROOT
ATOM      1  C   UNL     1      45.189  35.212  44.053  0.00  0.00    +0.000 A 
ATOM      2  C   UNL     1      46.231  34.582  43.373  0.00  0.00    +0.000 A 
ATOM      3  C   UNL     1      46.909  33.571  44.059  0.00  0.00    +0.000 A 
ATOM      4  N   UNL     1      46.514  33.269  45.329  0.00  0.00    +0.000 NA
ATOM      5  C   UNL     1      45.506  33.902  45.944  0.00  0.00    +0.000 A 
ATOM      6  N   UNL     1      44.838  34.879  45.304  0.00  0.00    +0.000 NA
ATOM      7  H   UNL     1      44.608  36.016  43.583  0.00  0.00    +0.000 HD
ATOM      8  H   UNL     1      47.705  33.091  43.538  0.00  0.00    +0.000 HD
ENDROOT
BRANCH   5  11
ATOM      9 CL   UNL     1      45.020  36.236  47.851  0.00  0.00    +0.000 Cl
ATOM     10  C   UNL     1      44.893  34.520  48.244  0.00  0.00    +0.000 A 
ATOM     11  C   UNL     1      45.134  33.529  47.306  0.00  0.00    +0.000 A 
ATOM     12  C   UNL     1      45.029  32.192  47.637  0.00  0.00    +0.000 A 
ATOM     13  H   UNL     1      45.219  31.400  46.899  0.00  0.00    +0.000 HD
ATOM     14  C   UNL     1      44.675  31.846  48.935  0.00  0.00    +0.000 A 
ATOM     15  C   UNL     1      44.443  32.861  49.839  0.00  0.00    +0.000 A 
ATOM     16 CL   UNL     1      43.999  32.392  51.467  0.00  0.00    +0.000 Cl
ATOM     17  C   UNL     1      44.540  34.202  49.539  0.00  0.00    +0.000 A 
ATOM     18  H   UNL     1      44.354  34.977  50.265  0.00  0.00    +0.000 HD
ENDBRANCH   5  11
BRANCH   2  19
ATOM     19  C   UNL     1      46.552  34.995  42.025  0.00  0.00    +0.000 C 
ATOM     20  H   UNL     1      46.287  34.188  41.294  0.00  0.00    +0.000 HD
ATOM     21  H   UNL     1      46.088  35.951  41.785  0.00  0.00    +0.000 HD
BRANCH  19  22
ATOM     22  C   UNL     1      48.056  35.176  41.918  0.00  0.00    +0.000 C 
ATOM     23  H   UNL     1      48.565  34.218  41.711  0.00  0.00    +0.000 HD
ATOM     24  H   UNL     1      48.234  35.892  41.099  0.00  0.00    +0.000 HD
ATOM     25  H   UNL     1      48.435  35.629  42.859  0.00  0.00    +0.000 HD
ENDBRANCH  19  22
ENDBRANCH   2  19
TORSDOF 3
