REMARK  Name = 
REMARK  2 active torsions:
REMARK  status: ('A' for Active; 'I' for Inactive)
REMARK    1  A    between atoms: C_5  and  C_7
REMARK    2  A    between atoms: C_10  and  C_19
REMARK                            x       y       z     vdW  Elec       q    Type
REMARK                         _______ _______ _______ _____ _____    ______ ____
ROOT
ATOM      1  C   UNL     1      45.864  32.929  46.704  0.00  0.00    +0.000 A 
ATOM      2  C   UNL     1      45.138  32.786  47.918  0.00  0.00    +0.000 A 
ATOM      3  C   UNL     1      45.512  31.829  48.796  0.00  0.00    +0.000 A 
ATOM      4  C   UNL     1      46.608  31.002  48.484  0.00  0.00    +0.000 A 
ATOM      5  S   UNL     1      47.111  31.641  46.855  0.00  0.00    +0.000 S 
ATOM      6  H   UNL     1      44.297  33.480  48.072  0.00  0.00    +0.000 HD
ATOM      7  H   UNL     1      44.965  31.723  49.708  0.00  0.00    +0.000 HD
ENDROOT
BRANCH   4  10
ATOM      8 CL   UNL     1      47.360  28.497  46.870  0.00  0.00    +0.000 Cl
ATOM      9  C   UNL     1      47.690  28.757  48.567  0.00  0.00    +0.000 A 
ATOM     10  C   UNL     1      47.267  29.955  49.099  0.00  0.00    +0.000 A 
ATOM     11  C   UNL     1      47.594  30.030  50.458  0.00  0.00    +0.000 A 
ATOM     12  H   UNL     1      47.338  30.913  51.063  0.00  0.00    +0.000 HD
ATOM     13  C   UNL     1      48.244  29.052  51.165  0.00  0.00    +0.000 A 
ATOM     14  C   UNL     1      48.617  27.898  50.520  0.00  0.00    +0.000 A 
ATOM     15 CL   UNL     1      49.443  26.655  51.417  0.00  0.00    +0.000 Cl
ATOM     16  C   UNL     1      48.339  27.732  49.185  0.00  0.00    +0.000 A 
ATOM     17  H   UNL     1      48.637  26.827  48.702  0.00  0.00    +0.000 HD
ENDBRANCH   4  10
BRANCH   1  22
ATOM     18  C   UNL     1      44.573  35.785  44.721  0.00  0.00    +0.000 A 
ATOM     19  C   UNL     1      45.275  35.577  43.507  0.00  0.00    +0.000 A 
ATOM     20  C   UNL     1      46.150  34.479  43.423  0.00  0.00    +0.000 A 
ATOM     21  N   UNL     1      46.274  33.667  44.530  0.00  0.00    +0.000 NA
ATOM     22  C   UNL     1      45.578  33.916  45.662  0.00  0.00    +0.000 A 
ATOM     23  N   UNL     1      44.727  34.969  45.767  0.00  0.00    +0.000 NA
ATOM     24  H   UNL     1      43.904  36.621  44.792  0.00  0.00    +0.000 HD
ATOM     25  H   UNL     1      45.167  36.220  42.652  0.00  0.00    +0.000 HD
ATOM     26  H   UNL     1      46.724  34.245  42.538  0.00  0.00    +0.000 HD
ENDBRANCH   1  22
TORSDOF 2
