REMARK  Name = 
REMARK  3 active torsions:
REMARK  status: ('A' for Active; 'I' for Inactive)
REMARK    1  A    between atoms: C_1  and  C_5
REMARK    2  A    between atoms: C_3  and  N_10
REMARK    3  A    between atoms: C_15  and  C_34
REMARK                            x       y       z     vdW  Elec       q    Type
REMARK                         _______ _______ _______ _____ _____    ______ ____
ROOT
ATOM      1  N   UNL     1      49.315  33.202  41.479  0.00  0.00    +0.000 NA
ATOM      2  C   UNL     1      50.651  33.122  42.006  0.00  0.00    +0.000 C 
ATOM      3  C   UNL     1      51.341  31.821  41.810  0.00  0.00    +0.000 C 
ATOM      4  C   UNL     1      50.611  30.733  42.565  0.00  0.00    +0.000 C 
ATOM      5  C   UNL     1      49.150  30.990  42.547  0.00  0.00    +0.000 C 
ATOM      6  C   UNL     1      48.728  31.876  41.427  0.00  0.00    +0.000 C 
ATOM      7  H   UNL     1      50.637  33.317  43.109  0.00  0.00    +0.000 HD
ATOM      8  H   UNL     1      51.273  33.972  41.604  0.00  0.00    +0.000 HD
ATOM      9  H   UNL     1      52.335  31.929  42.345  0.00  0.00    +0.000 HD
ATOM     10  H   UNL     1      51.598  31.521  40.803  0.00  0.00    +0.000 HD
ATOM     11  H   UNL     1      50.826  29.775  42.022  0.00  0.00    +0.000 HD
ATOM     12  H   UNL     1      51.031  30.572  43.589  0.00  0.00    +0.000 HD
ATOM     13  H   UNL     1      48.892  31.535  43.492  0.00  0.00    +0.000 HD
ATOM     14  H   UNL     1      48.522  30.090  42.561  0.00  0.00    +0.000 HD
ATOM     15  H   UNL     1      47.638  32.103  41.682  0.00  0.00    +0.000 HD
ENDROOT
BRANCH   6  18
ATOM     16 CL   UNL     1      48.821  33.529  38.736  0.00  0.00    +0.000 Cl
ATOM     17  C   UNL     1      48.733  31.806  38.813  0.00  0.00    +0.000 A 
ATOM     18  C   UNL     1      48.667  31.291  40.090  0.00  0.00    +0.000 A 
ATOM     19  C   UNL     1      48.553  29.896  40.179  0.00  0.00    +0.000 A 
ATOM     20  H   UNL     1      48.482  29.248  41.064  0.00  0.00    +0.000 HD
ATOM     21  C   UNL     1      48.514  29.112  39.019  0.00  0.00    +0.000 A 
ATOM     22  C   UNL     1      48.586  29.683  37.765  0.00  0.00    +0.000 A 
ATOM     23 CL   UNL     1      48.542  28.741  36.288  0.00  0.00    +0.000 Cl
ATOM     24  C   UNL     1      48.697  31.051  37.684  0.00  0.00    +0.000 A 
ATOM     25  H   UNL     1      48.758  31.575  36.739  0.00  0.00    +0.000 HD
ENDBRANCH   6  18
BRANCH   1  28
ATOM     26  C   UNL     1      47.181  34.560  42.013  0.00  0.00    +0.000 C 
ATOM     27  C   UNL     1      48.282  35.437  41.677  0.00  0.00    +0.000 C 
ATOM     28  C   UNL     1      48.604  34.122  42.324  0.00  0.00    +0.000 C 
ATOM     29  H   UNL     1      46.716  33.848  41.268  0.00  0.00    +0.000 HD
ATOM     30  H   UNL     1      48.470  35.568  40.581  0.00  0.00    +0.000 HD
ATOM     31  H   UNL     1      48.385  36.386  42.232  0.00  0.00    +0.000 HD
ATOM     32  H   UNL     1      48.891  34.159  43.389  0.00  0.00    +0.000 HD
BRANCH  26  34
ATOM     33  C   UNL     1      45.520  36.040  43.182  0.00  0.00    +0.000 A 
ATOM     34  C   UNL     1      46.280  34.838  43.151  0.00  0.00    +0.000 A 
ATOM     35  C   UNL     1      46.141  33.962  44.211  0.00  0.00    +0.000 A 
ATOM     36  N   UNL     1      45.288  34.301  45.219  0.00  0.00    +0.000 NA
ATOM     37  C   UNL     1      44.575  35.443  45.233  0.00  0.00    +0.000 A 
ATOM     38  N   UNL     1      44.681  36.332  44.211  0.00  0.00    +0.000 NA
ATOM     39  H   UNL     1      45.672  36.694  42.317  0.00  0.00    +0.000 HD
ATOM     40  H   UNL     1      46.697  33.033  44.236  0.00  0.00    +0.000 HD
ATOM     41  H   UNL     1      43.903  35.687  46.047  0.00  0.00    +0.000 HD
ENDBRANCH  26  34
ENDBRANCH   1  28
TORSDOF 3
