
     RDKit          3D

 34 36  0  0  0  0  0  0  0  0999 V2000
   44.6416   35.1284   44.2150 C   0  0  0  0  0  0  0  0  0  0  0  0
   44.7635   34.0832   43.2779 C   0  0  0  0  0  0  0  0  0  0  0  0
   45.3302   32.8903   43.6936 C   0  0  0  0  0  0  0  0  0  0  0  0
   45.7428   32.7753   44.9767 N   0  0  0  0  0  0  0  0  0  0  0  0
   45.6185   33.7919   45.8685 C   0  0  0  0  0  0  0  0  0  0  0  0
   45.0688   34.9590   45.4787 N   0  0  0  0  0  0  0  0  0  0  0  0
   44.2762   34.3795   41.9729 N   0  0  0  0  0  0  0  0  0  0  0  0
   44.4270   33.3915   40.9676 C   0  0  1  0  0  0  0  0  0  0  0  0
   43.8033   33.7209   39.6599 C   0  0  0  0  0  0  0  0  0  0  0  0
   42.6250   34.4651   39.6764 N   0  0  0  0  0  0  0  0  0  0  0  0
   42.3466   35.2739   40.7825 C   0  0  0  0  0  0  0  0  0  0  0  0
   43.6355   35.5811   41.5283 C   0  0  0  0  0  0  0  0  0  0  0  0
   44.2342   36.1185   44.0842 H   0  0  0  0  0  0  0  0  0  0  0  0
   45.4084   32.1076   42.9600 H   0  0  0  0  0  0  0  0  0  0  0  0
   45.9973   33.5371   46.8525 H   0  0  0  0  0  0  0  0  0  0  0  0
   43.9798   32.4394   41.3334 H   0  0  0  0  0  0  0  0  0  0  0  0
   44.5641   34.2791   39.0385 H   0  0  0  0  0  0  0  0  0  0  0  0
   43.6466   32.7705   39.0816 H   0  0  0  0  0  0  0  0  0  0  0  0
   41.8394   34.1506   39.1078 H   0  0  0  0  0  0  0  0  0  0  0  0
   41.7013   34.6867   41.4938 H   0  0  0  0  0  0  0  0  0  0  0  0
   41.8114   36.2106   40.6059 H   0  0  0  0  0  0  0  0  0  0  0  0
   44.3307   36.1316   40.8294 H   0  0  0  0  0  0  0  0  0  0  0  0
   43.3612   36.3038   42.2977 H   0  0  0  0  0  0  0  0  0  0  0  0
   45.8383   34.8865   38.7374 Cl  0  0  0  0  0  0  0  0  0  0  0  0
   46.6704   33.6744   39.6930 C   0  0  0  0  0  0  0  0  0  0  0  0
   45.8732   33.0906   40.6705 C   0  0  0  0  0  0  0  0  0  0  0  0
   46.4683   32.1148   41.4719 C   0  0  0  0  0  0  0  0  0  0  0  0
   46.0050   31.5613   42.2719 H   0  0  0  0  0  0  0  0  0  0  0  0
   47.7906   31.7465   41.3007 C   0  0  0  0  0  0  0  0  0  0  0  0
   48.5630   32.3394   40.3242 C   0  0  0  0  0  0  0  0  0  0  0  0
   50.2419   31.9696   40.0005 Cl  0  0  0  0  0  0  0  0  0  0  0  0
   47.9679   33.2988   39.5403 C   0  0  0  0  0  0  0  0  0  0  0  0
   48.4496   33.8548   38.7295 H   0  0  0  0  0  0  0  0  0  0  0  0
   48.3047   30.9976   41.8910 H   0  0  0  0  0  0  0  0  0  0  0  0
  1  6  2  0
  2  3  2  0
  2  1  1  0
  3  4  1  0
  4  5  2  0
  6  5  1  0
  7  2  1  0
  8  7  1  0
  9 10  1  0
  9  8  1  0
 10 11  1  0
 11 12  1  0
 12  7  1  0
  1 13  1  0
  3 14  1  0
  5 15  1  0
  8 16  1  1
  9 17  1  0
  9 18  1  0
 10 19  1  0
 11 20  1  0
 11 21  1  0
 12 22  1  0
 12 23  1  0
 24 25  1  0
 25 26  2  0
 26 27  1  0
 27 28  1  0
 27 29  2  0
 29 30  1  0
 30 31  1  0
 30 32  2  0
 32 33  1  0
 32 25  1  0
 29 34  1  0
  8 26  1  0
M  ISO  8  13  14  14  14  15  14  16  13  17  13  18  13  19   5  20  13
M  ISO  5  21  13  22  13  23  13  28  16  33  15
M  END
>  <DihAtoms>  (1) 
6,7,25,24

>  <DihDeg>  (1) 
147.17111694740112

$$$$
