
 OpenBabel03252502473D

 46 49  0  0  1  0  0  0  0  0999 V2000
   48.3940   35.5270   41.8490 C   0  0  0  0  0  0  0  0  0  0  0  0
   48.4670   35.8510   42.9120 H   0  0  0  0  0  0  0  0  0  0  0  0
   48.5400   36.4720   41.2670 H   0  0  0  0  0  0  0  0  0  0  0  0
   49.4350   34.4990   41.5490 C   0  0  1  0  0  0  0  0  0  0  0  0
   50.5110   34.2660   42.5700 C   0  0  0  0  0  0  0  0  0  0  0  0
   49.4210   33.2750   42.3350 C   0  0  2  0  0  0  0  0  0  0  0  0
   49.7890   34.5190   40.5230 H   0  0  0  0  0  0  0  0  0  0  0  0
   51.5580   34.0760   42.2720 H   0  0  0  0  0  0  0  0  0  0  0  0
   50.4620   34.9170   43.4860 H   0  0  0  0  0  0  0  0  0  0  0  0
   48.7970   33.0840   43.2050 H   0  0  0  0  0  0  0  0  0  0  0  0
   49.8720   32.1020   41.5960 N   0  0  0  0  0  0  0  0  0  0  0  0
   49.5610   32.1280   40.2180 C   0  0  0  0  0  0  0  0  0  0  0  0
   50.1060   30.8330   39.6420 C   0  0  0  0  0  0  0  0  0  0  0  0
   49.4790   29.6940   40.2130 N   0  0  0  0  0  0  0  0  0  0  0  0
   48.9670   29.8990   41.5550 C   0  0  0  0  0  0  0  0  0  0  0  0
   49.8720   30.8880   42.2880 C   0  0  0  0  0  0  0  0  0  0  0  0
   49.9660   32.9970   39.7040 H   0  0  0  0  0  0  0  0  0  0  0  0
   48.4630   32.0900   40.0890 H   0  0  0  0  0  0  0  0  0  0  0  0
   51.2100   30.8720   39.7330 H   0  0  0  0  0  0  0  0  0  0  0  0
   49.8860   30.8840   38.5510 H   0  0  0  0  0  0  0  0  0  0  0  0
   50.1070   28.8590   40.1560 H   0  0  0  0  0  0  0  0  0  0  0  0
   49.0620   28.8980   42.0610 H   0  0  0  0  0  0  0  0  0  0  0  0
   47.9400   30.2660   41.4950 H   0  0  0  0  0  0  0  0  0  0  0  0
   49.6310   30.9630   43.3450 H   0  0  0  0  0  0  0  0  0  0  0  0
   50.8990   30.4280   42.2000 H   0  0  0  0  0  0  0  0  0  0  0  0
   47.0610   34.8930   41.5900 C   0  0  0  0  0  0  0  0  0  0  0  0
   47.0530   33.9180   41.1310 H   0  0  0  0  0  0  0  0  0  0  0  0
   46.5260   35.5610   40.8530 H   0  0  0  0  0  0  0  0  0  0  0  0
   44.6220   36.1840   44.1320 C   0  0  0  0  0  0  0  0  0  0  0  0
   45.3950   36.0950   42.9450 C   0  0  0  0  0  0  0  0  0  0  0  0
   46.2270   35.0180   42.8300 C   0  0  0  0  0  0  0  0  0  0  0  0
   46.2800   34.0990   43.8270 N   0  0  0  0  0  0  0  0  0  0  0  0
   45.5590   34.1950   44.9210 C   0  0  0  0  0  0  0  0  0  0  0  0
   44.7230   35.2370   45.0840 N   0  0  0  0  0  0  0  0  0  0  0  0
   43.9710   37.0240   44.2270 H   0  0  0  0  0  0  0  0  0  0  0  0
   45.3530   36.8220   42.1570 H   0  0  0  0  0  0  0  0  0  0  0  0
   46.7780   31.4980   44.2200 Cl  0  0  0  0  0  0  0  0  0  0  0  0
   46.1560   31.9450   45.7860 C   0  0  0  0  0  0  0  0  0  0  0  0
   45.6240   33.2010   45.9880 C   0  0  0  0  0  0  0  0  0  0  0  0
   45.1580   33.4600   47.2600 C   0  0  0  0  0  0  0  0  0  0  0  0
   44.7250   34.4390   47.4830 H   0  0  0  0  0  0  0  0  0  0  0  0
   45.1920   32.5620   48.3120 C   0  0  0  0  0  3  0  0  0  0  0  0
   45.7370   31.3240   48.0380 C   0  0  0  0  0  0  0  0  0  0  0  0
   45.7750   30.1890   49.3860 Cl  0  0  0  0  0  0  0  0  0  0  0  0
   46.2340   30.9780   46.7780 C   0  0  0  0  0  0  0  0  0  0  0  0
   46.6350   29.9980   46.6670 H   0  0  0  0  0  0  0  0  0  0  0  0
  1  2  1  0  0  0  0
  3  1  1  0  0  0  0
  4  7  1  6  0  0  0
  4  1  1  0  0  0  0
  4  6  1  0  0  0  0
  4  5  1  0  0  0  0
  5  9  1  0  0  0  0
  6  5  1  0  0  0  0
  6 10  1  1  0  0  0
  8  5  1  0  0  0  0
 11 16  1  0  0  0  0
 11  6  1  0  0  0  0
 12 11  1  0  0  0  0
 13 19  1  0  0  0  0
 13 14  1  0  0  0  0
 13 12  1  0  0  0  0
 14 15  1  0  0  0  0
 15 22  1  0  0  0  0
 15 16  1  0  0  0  0
 16 24  1  0  0  0  0
 17 12  1  0  0  0  0
 18 12  1  0  0  0  0
 20 13  1  0  0  0  0
 21 14  1  0  0  0  0
 23 15  1  0  0  0  0
 25 16  1  0  0  0  0
 26  1  1  0  0  0  0
 26 31  1  0  0  0  0
 27 26  1  0  0  0  0
 28 26  1  0  0  0  0
 29 35  1  0  0  0  0
 29 34  1  0  0  0  0
 30 29  2  0  0  0  0
 31 30  1  0  0  0  0
 31 32  2  0  0  0  0
 32 33  1  0  0  0  0
 33 34  2  0  0  0  0
 33 39  1  0  0  0  0
 36 30  1  0  0  0  0
 37 38  1  0  0  0  0
 38 39  2  0  0  0  0
 38 45  1  0  0  0  0
 39 40  1  0  0  0  0
 40 41  1  0  0  0  0
 40 42  2  0  0  0  0
 43 42  1  0  0  0  0
 43 44  1  0  0  0  0
 45 43  2  0  0  0  0
 46 45  1  0  0  0  0
M  END
>  <minimizedAffinity>
-5.48086023

>  <minimizedRMSD>
0.936457515

$$$$
