
 OpenBabel03252508263D

 42 46  0  0  1  0  0  0  0  0999 V2000
   46.4980   32.4980   45.6540 C   0  0  1  0  0  0  0  0  0  0  0  0
   46.9610   32.7780   47.0220 C   0  0  0  0  0  0  0  0  0  0  0  0
   45.5680   32.1030   46.6930 C   0  0  2  0  0  0  0  0  0  0  0  0
   47.3130   31.8280   45.1990 H   0  0  0  0  0  0  0  0  0  0  0  0
   47.5670   32.0840   47.6270 H   0  0  0  0  0  0  0  0  0  0  0  0
   46.9450   33.7930   47.4510 H   0  0  0  0  0  0  0  0  0  0  0  0
   44.8630   32.8250   47.2110 H   0  0  0  0  0  0  0  0  0  0  0  0
   45.3160   30.7240   47.1190 C   0  0  0  0  0  0  0  0  0  0  0  0
   45.1960   30.2620   48.3940 C   0  0  0  0  0  0  0  0  0  0  0  0
   45.0830   28.9300   48.7690 C   0  0  0  0  0  0  0  0  0  0  0  0
   45.0950   27.9870   47.7240 C   0  0  0  0  0  0  0  0  0  0  0  0
   45.2140   28.4300   46.4050 C   0  0  0  0  0  0  0  0  0  0  0  0
   45.1630   27.4710   45.4090 C   0  0  0  0  0  0  0  0  0  0  0  0
   45.2120   27.8770   44.0870 C   0  0  0  0  0  0  0  0  0  0  0  0
   45.3070   29.2160   43.7620 C   0  0  0  0  0  0  0  0  0  0  0  0
   45.3550   30.1260   44.7900 C   0  0  0  0  0  0  0  0  0  0  0  0
   45.3190   29.7740   46.1260 C   0  0  0  0  0  0  0  0  0  0  0  0
   45.1910   31.0200   49.1660 H   0  0  0  0  0  0  0  0  0  0  0  0
   44.9910   28.6440   49.7960 H   0  0  0  0  0  0  0  0  0  0  0  0
   45.0100   26.9730   48.0380 H   0  0  0  0  0  0  0  0  0  0  0  0
   45.0860   26.4270   45.7010 H   0  0  0  0  0  0  0  0  0  0  0  0
   45.1680   27.0280   43.3860 H   0  0  0  0  0  0  0  0  0  0  0  0
   45.3280   29.3240   42.6960 H   0  0  0  0  0  0  0  0  0  0  0  0
   45.3380   31.0560   44.2980 H   0  0  0  0  0  0  0  0  0  0  0  0
   44.9510   35.5650   44.3120 C   0  0  0  0  0  0  0  0  0  0  0  0
   45.4440   35.5940   42.9630 C   0  0  0  0  0  0  0  0  0  0  0  0
   46.2970   34.5530   42.5650 C   0  0  0  0  0  0  0  0  0  0  0  0
   46.6020   33.6020   43.4530 N   0  0  0  0  0  0  0  0  0  0  0  0
   46.1230   33.6000   44.7260 C   0  0  0  0  0  0  0  0  0  0  0  0
   45.3130   34.5650   45.1420 N   0  0  0  0  0  0  0  0  0  0  0  0
   44.2980   36.3560   44.6310 H   0  0  0  0  0  0  0  0  0  0  0  0
   45.1780   36.3850   42.3130 H   0  0  0  0  0  0  0  0  0  0  0  0
   49.0370   35.9350   41.8140 Cl  0  0  0  0  0  0  0  0  0  0  0  0
   48.0740   34.9250   40.7760 C   0  0  0  0  0  0  0  0  0  0  0  0
   46.9040   34.4150   41.2800 C   0  0  0  0  0  0  0  0  0  0  0  0
   46.2450   33.6650   40.3170 C   0  0  0  0  0  0  0  0  0  0  0  0
   45.2820   33.1630   40.5110 H   0  0  0  0  0  0  0  0  0  0  0  0
   46.6870   33.4500   39.0310 C   0  0  0  0  0  0  0  0  0  0  0  0
   47.8760   34.0040   38.6210 C   0  0  0  0  0  0  0  0  0  0  0  0
   48.4470   33.7360   36.9910 Cl  0  0  0  0  0  0  0  0  0  0  0  0
   48.5840   34.7620   39.5240 C   0  0  0  0  0  0  0  0  0  0  0  0
   49.5060   35.1850   39.1870 H   0  0  0  0  0  0  0  0  0  0  0  0
  1  4  1  6  0  0  0
  1  3  1  0  0  0  0
  1  2  1  0  0  0  0
  2  6  1  0  0  0  0
  2  5  1  0  0  0  0
  3  2  1  0  0  0  0
  3  8  1  0  0  0  0
  3  7  1  1  0  0  0
  8  9  1  0  0  0  0
  9 10  2  0  0  0  0
  9 18  1  0  0  0  0
 10 19  1  0  0  0  0
 11 20  1  0  0  0  0
 11 10  1  0  0  0  0
 12 11  2  0  0  0  0
 13 21  1  0  0  0  0
 13 12  1  0  0  0  0
 14 13  2  0  0  0  0
 15 14  1  0  0  0  0
 15 16  2  0  0  0  0
 16 17  1  0  0  0  0
 17 12  1  0  0  0  0
 17  8  2  0  0  0  0
 22 14  1  0  0  0  0
 23 15  1  0  0  0  0
 24 16  1  0  0  0  0
 25 31  1  0  0  0  0
 25 30  1  0  0  0  0
 26 25  2  0  0  0  0
 27 26  1  0  0  0  0
 27 28  2  0  0  0  0
 28 29  1  0  0  0  0
 29 30  2  0  0  0  0
 29  1  1  0  0  0  0
 32 26  1  0  0  0  0
 34 35  1  0  0  0  0
 34 33  1  0  0  0  0
 35 27  1  0  0  0  0
 36 37  1  0  0  0  0
 36 35  2  0  0  0  0
 38 36  1  0  0  0  0
 39 38  2  0  0  0  0
 39 41  1  0  0  0  0
 40 39  1  0  0  0  0
 41 34  2  0  0  0  0
 42 41  1  0  0  0  0
M  END
>  <minimizedAffinity>
-6.38387442

>  <minimizedRMSD>
0.717481911

$$$$
