
 OpenBabel03242513323D

 38 41  0  0  0  0  0  0  0  0999 V2000
   38.6780   32.0210   40.9480 C   0  0  0  0  0  0  0  0  0  0  0  0
   38.4410   32.9960   39.9990 C   0  0  0  0  0  0  0  0  0  0  0  0
   37.3990   32.7790   39.1430 C   0  0  0  0  0  0  0  0  0  0  0  0
   36.6060   31.6400   39.2120 C   0  0  0  0  0  0  0  0  0  0  0  0
   36.8680   30.6830   40.1720 C   0  0  0  0  0  0  0  0  0  0  0  0
   37.9220   30.8640   41.0640 C   0  0  0  0  0  0  0  0  0  0  0  0
   37.2090   33.5430   38.3950 H   0  0  0  0  0  0  0  0  0  0  0  0
   35.8040   31.5750   38.4790 H   0  0  0  0  0  0  0  0  0  0  0  0
   36.2440   29.8070   40.2110 H   0  0  0  0  0  0  0  0  0  0  0  0
   39.7190   36.5280   40.1710 C   0  0  0  0  0  0  0  0  0  0  0  0
   38.8480   35.4280   40.2160 C   0  0  0  0  0  0  0  0  0  0  0  0
   39.2910   34.1560   39.9670 C   0  0  0  0  0  0  0  0  0  0  0  0
   40.6210   34.0660   39.6810 N   0  0  0  0  0  0  0  0  0  0  0  0
   41.4610   35.1040   39.6350 C   0  0  0  0  0  0  0  0  0  0  0  0
   41.0020   36.3440   39.8840 N   0  0  0  0  0  0  0  0  0  0  0  0
   39.3770   37.5340   40.3670 H   0  0  0  0  0  0  0  0  0  0  0  0
   37.8040   35.6090   40.4540 H   0  0  0  0  0  0  0  0  0  0  0  0
   42.4840   34.8010   39.3860 H   0  0  0  0  0  0  0  0  0  0  0  0
   39.7240   32.1870   41.8430 O   0  0  0  0  0  0  0  0  0  0  0  0
   39.5500   31.9290   42.8130 H   0  0  0  0  0  0  0  0  0  0  0  0
   38.2130   29.9390   42.0290 O   0  0  0  0  0  0  0  0  0  0  0  0
   37.8400   28.6320   42.0200 C   0  0  0  0  0  0  0  0  0  0  0  0
   37.1130   27.8920   42.9270 C   0  0  0  0  0  0  0  0  0  0  0  0
   36.8810   26.5830   42.6660 C   0  0  0  0  0  0  0  0  0  0  0  0
   37.4130   26.0650   41.4610 C   0  0  0  0  0  0  0  0  0  0  0  0
   38.2460   27.4770   40.7130 S   0  0  0  0  0  0  0  0  0  0  0  0
   36.7610   28.3820   43.7980 H   0  0  0  0  0  0  0  0  0  0  0  0
   36.3280   25.8980   43.2930 H   0  0  0  0  0  0  0  0  0  0  0  0
   39.6100   24.2830   42.4250 Cl  0  0  0  0  0  0  0  0  0  0  0  0
   38.3380   23.8560   41.3000 C   0  0  0  0  0  0  0  0  0  0  0  0
   37.3490   24.7190   40.8900 C   0  0  0  0  0  0  0  0  0  0  0  0
   36.3280   24.4900   40.0310 C   0  0  0  0  0  0  0  0  0  0  0  0
   35.5850   25.2240   39.7570 H   0  0  0  0  0  0  0  0  0  0  0  0
   36.2700   23.2010   39.4870 C   0  0  0  0  0  3  0  0  0  0  0  0
   37.2380   22.2580   39.8500 C   0  0  0  0  0  0  0  0  0  0  0  0
   37.1850   20.6260   39.1770 Cl  0  0  0  0  0  0  0  0  0  0  0  0
   38.2610   22.5730   40.7440 C   0  0  0  0  0  0  0  0  0  0  0  0
   39.0170   21.8570   41.0360 H   0  0  0  0  0  0  0  0  0  0  0  0
  1  6  1  0  0  0  0
  1 19  1  0  0  0  0
  2  1  2  0  0  0  0
  3  4  2  0  0  0  0
  3  2  1  0  0  0  0
  4  5  1  0  0  0  0
  5  9  1  0  0  0  0
  5  6  2  0  0  0  0
  6 21  1  0  0  0  0
  7  3  1  0  0  0  0
  8  4  1  0  0  0  0
 10 11  1  0  0  0  0
 10 16  1  0  0  0  0
 11 17  1  0  0  0  0
 12  2  1  0  0  0  0
 12 11  2  0  0  0  0
 13 12  1  0  0  0  0
 14 13  2  0  0  0  0
 14 15  1  0  0  0  0
 15 10  2  0  0  0  0
 18 14  1  0  0  0  0
 19 20  1  0  0  0  0
 22 21  1  0  0  0  0
 22 23  2  0  0  0  0
 23 27  1  0  0  0  0
 24 23  1  0  0  0  0
 24 28  1  0  0  0  0
 25 24  2  0  0  0  0
 26 25  1  0  0  0  0
 26 22  1  0  0  0  0
 30 29  1  0  0  0  0
 31 30  1  0  0  0  0
 31 25  1  0  0  0  0
 32 31  2  0  0  0  0
 33 32  1  0  0  0  0
 34 35  2  0  0  0  0
 34 32  1  0  0  0  0
 35 37  1  0  0  0  0
 36 35  1  0  0  0  0
 37 38  1  0  0  0  0
 37 30  2  0  0  0  0
M  END
>  <minimizedAffinity>
-7.06260061

$$$$

 OpenBabel03242513323D

 38 41  0  0  0  0  0  0  0  0999 V2000
   39.3450   33.1880   40.1680 C   0  0  0  0  0  0  0  0  0  0  0  0
   40.5850   33.6270   39.7480 C   0  0  0  0  0  0  0  0  0  0  0  0
   41.0080   33.1930   38.5240 C   0  0  0  0  0  0  0  0  0  0  0  0
   40.2400   32.3520   37.7280 C   0  0  0  0  0  0  0  0  0  0  0  0
   39.0040   31.9290   38.1750 C   0  0  0  0  0  0  0  0  0  0  0  0
   38.5350   32.3480   39.4180 C   0  0  0  0  0  0  0  0  0  0  0  0
   41.9830   33.5350   38.1890 H   0  0  0  0  0  0  0  0  0  0  0  0
   40.6790   32.0710   36.7720 H   0  0  0  0  0  0  0  0  0  0  0  0
   38.4220   31.2780   37.5460 H   0  0  0  0  0  0  0  0  0  0  0  0
   43.2460   35.0370   41.9980 C   0  0  0  0  0  0  0  0  0  0  0  0
   42.5470   34.1510   41.1640 C   0  0  0  0  0  0  0  0  0  0  0  0
   41.3430   34.4950   40.6080 C   0  0  0  0  0  0  0  0  0  0  0  0
   40.9050   35.7450   40.9350 N   0  0  0  0  0  0  0  0  0  0  0  0
   41.5610   36.5970   41.7270 C   0  0  0  0  0  0  0  0  0  0  0  0
   42.7420   36.2360   42.2610 N   0  0  0  0  0  0  0  0  0  0  0  0
   44.1970   34.7730   42.4400 H   0  0  0  0  0  0  0  0  0  0  0  0
   42.9840   33.1780   40.9670 H   0  0  0  0  0  0  0  0  0  0  0  0
   41.0250   37.5440   41.8540 H   0  0  0  0  0  0  0  0  0  0  0  0
   38.8640   33.5960   41.4020 O   0  0  0  0  0  0  0  0  0  0  0  0
   37.8800   33.8510   41.4560 H   0  0  0  0  0  0  0  0  0  0  0  0
   37.3160   31.9510   39.8960 O   0  0  0  0  0  0  0  0  0  0  0  0
   36.9100   30.6670   40.0780 C   0  0  0  0  0  0  0  0  0  0  0  0
   35.6810   30.1460   40.4200 C   0  0  0  0  0  0  0  0  0  0  0  0
   35.5510   28.8020   40.5360 C   0  0  0  0  0  0  0  0  0  0  0  0
   36.7060   28.0210   40.2930 C   0  0  0  0  0  0  0  0  0  0  0  0
   37.9760   29.2390   39.8980 S   0  0  0  0  0  0  0  0  0  0  0  0
   34.8820   30.8230   40.5790 H   0  0  0  0  0  0  0  0  0  0  0  0
   34.6460   28.2710   40.7970 H   0  0  0  0  0  0  0  0  0  0  0  0
   37.2440   26.9960   43.0470 Cl  0  0  0  0  0  0  0  0  0  0  0  0
   37.1560   26.0460   41.5790 C   0  0  0  0  0  0  0  0  0  0  0  0
   36.9050   26.5720   40.3330 C   0  0  0  0  0  0  0  0  0  0  0  0
   36.8180   25.9300   39.1460 C   0  0  0  0  0  0  0  0  0  0  0  0
   36.6160   26.4170   38.2030 H   0  0  0  0  0  0  0  0  0  0  0  0
   37.0090   24.5430   39.1890 C   0  0  0  0  0  3  0  0  0  0  0  0
   37.2700   23.9250   40.4170 C   0  0  0  0  0  0  0  0  0  0  0  0
   37.5140   22.1770   40.4960 Cl  0  0  0  0  0  0  0  0  0  0  0  0
   37.3440   24.6590   41.6010 C   0  0  0  0  0  0  0  0  0  0  0  0
   37.5450   24.1970   42.5580 H   0  0  0  0  0  0  0  0  0  0  0  0
  1 19  1  0  0  0  0
  2  1  1  0  0  0  0
  2 12  1  0  0  0  0
  3  2  2  0  0  0  0
  4  5  2  0  0  0  0
  4  3  1  0  0  0  0
  5  6  1  0  0  0  0
  6 21  1  0  0  0  0
  6  1  2  0  0  0  0
  7  3  1  0  0  0  0
  8  4  1  0  0  0  0
  9  5  1  0  0  0  0
 10 15  1  0  0  0  0
 10 16  1  0  0  0  0
 11 10  2  0  0  0  0
 12 13  2  0  0  0  0
 12 11  1  0  0  0  0
 13 14  1  0  0  0  0
 14 18  1  0  0  0  0
 14 15  2  0  0  0  0
 17 11  1  0  0  0  0
 19 20  1  0  0  0  0
 21 22  1  0  0  0  0
 22 23  2  0  0  0  0
 23 24  1  0  0  0  0
 23 27  1  0  0  0  0
 24 28  1  0  0  0  0
 25 31  1  0  0  0  0
 25 24  2  0  0  0  0
 26 22  1  0  0  0  0
 26 25  1  0  0  0  0
 30 37  1  0  0  0  0
 30 29  1  0  0  0  0
 31 30  2  0  0  0  0
 32 34  2  0  0  0  0
 32 31  1  0  0  0  0
 33 32  1  0  0  0  0
 34 35  1  0  0  0  0
 35 36  1  0  0  0  0
 35 37  2  0  0  0  0
 37 38  1  0  0  0  0
M  END
>  <minimizedAffinity>
-6.89571857

$$$$

 OpenBabel03242513323D

 38 41  0  0  0  0  0  0  0  0999 V2000
   41.2630   34.0970   40.2370 C   0  0  0  0  0  0  0  0  0  0  0  0
   42.6300   34.2440   40.3620 C   0  0  0  0  0  0  0  0  0  0  0  0
   43.3930   33.8100   39.3150 C   0  0  0  0  0  0  0  0  0  0  0  0
   42.8350   33.2480   38.1740 C   0  0  0  0  0  0  0  0  0  0  0  0
   41.4640   33.1130   38.0780 C   0  0  0  0  0  0  0  0  0  0  0  0
   40.6500   33.5430   39.1230 C   0  0  0  0  0  0  0  0  0  0  0  0
   44.4690   33.9240   39.4090 H   0  0  0  0  0  0  0  0  0  0  0  0
   43.5400   32.9380   37.4040 H   0  0  0  0  0  0  0  0  0  0  0  0
   41.0490   32.6750   37.1870 H   0  0  0  0  0  0  0  0  0  0  0  0
   44.6570   34.8940   43.4610 C   0  0  0  0  0  0  0  0  0  0  0  0
   44.1780   34.2790   42.2940 C   0  0  0  0  0  0  0  0  0  0  0  0
   43.1590   34.8320   41.5640 C   0  0  0  0  0  0  0  0  0  0  0  0
   42.6710   36.0020   42.0670 N   0  0  0  0  0  0  0  0  0  0  0  0
   43.1180   36.5970   43.1760 C   0  0  0  0  0  0  0  0  0  0  0  0
   44.1210   36.0350   43.8770 N   0  0  0  0  0  0  0  0  0  0  0  0
   45.4610   34.4640   44.0430 H   0  0  0  0  0  0  0  0  0  0  0  0
   44.6360   33.3470   41.9790 H   0  0  0  0  0  0  0  0  0  0  0  0
   42.5830   37.5270   43.3950 H   0  0  0  0  0  0  0  0  0  0  0  0
   40.4390   34.5200   41.2690 O   0  0  0  0  0  0  0  0  0  0  0  0
   39.5830   35.0070   41.0100 H   0  0  0  0  0  0  0  0  0  0  0  0
   39.2880   33.4270   39.0670 O   0  0  0  0  0  0  0  0  0  0  0  0
   38.5550   32.3870   39.5460 C   0  0  0  0  0  0  0  0  0  0  0  0
   37.2500   32.3240   39.9810 C   0  0  0  0  0  0  0  0  0  0  0  0
   36.7620   31.1370   40.4160 C   0  0  0  0  0  0  0  0  0  0  0  0
   37.6450   30.0320   40.3900 C   0  0  0  0  0  0  0  0  0  0  0  0
   39.1780   30.7180   39.7350 S   0  0  0  0  0  0  0  0  0  0  0  0
   36.6750   33.2140   39.9580 H   0  0  0  0  0  0  0  0  0  0  0  0
   35.7610   30.9560   40.7810 H   0  0  0  0  0  0  0  0  0  0  0  0
   38.4750   29.4820   43.2070 Cl  0  0  0  0  0  0  0  0  0  0  0  0
   37.8070   28.3280   42.0720 C   0  0  0  0  0  0  0  0  0  0  0  0
   37.4420   28.6370   40.7820 C   0  0  0  0  0  0  0  0  0  0  0  0
   36.9210   27.8250   39.8330 C   0  0  0  0  0  0  0  0  0  0  0  0
   36.6570   28.1450   38.8350 H   0  0  0  0  0  0  0  0  0  0  0  0
   36.7280   26.4910   40.2130 C   0  0  0  0  0  3  0  0  0  0  0  0
   37.0730   26.0900   41.5080 C   0  0  0  0  0  0  0  0  0  0  0  0
   36.8380   24.4130   42.0100 Cl  0  0  0  0  0  0  0  0  0  0  0  0
   37.6060   26.9890   42.4310 C   0  0  0  0  0  0  0  0  0  0  0  0
   37.8780   26.6970   43.4360 H   0  0  0  0  0  0  0  0  0  0  0  0
  1  2  1  0  0  0  0
  1 19  1  0  0  0  0
  2 12  1  0  0  0  0
  3  7  1  0  0  0  0
  3  2  2  0  0  0  0
  4  3  1  0  0  0  0
  5  4  2  0  0  0  0
  5  6  1  0  0  0  0
  6  1  2  0  0  0  0
  8  4  1  0  0  0  0
  9  5  1  0  0  0  0
 10 15  1  0  0  0  0
 10 16  1  0  0  0  0
 11 10  2  0  0  0  0
 12 13  2  0  0  0  0
 12 11  1  0  0  0  0
 13 14  1  0  0  0  0
 14 18  1  0  0  0  0
 14 15  2  0  0  0  0
 17 11  1  0  0  0  0
 20 19  1  0  0  0  0
 21  6  1  0  0  0  0
 21 22  1  0  0  0  0
 22 26  1  0  0  0  0
 22 23  2  0  0  0  0
 23 24  1  0  0  0  0
 24 28  1  0  0  0  0
 25 24  2  0  0  0  0
 25 31  1  0  0  0  0
 26 25  1  0  0  0  0
 27 23  1  0  0  0  0
 30 37  1  0  0  0  0
 30 29  1  0  0  0  0
 31 30  2  0  0  0  0
 32 34  2  0  0  0  0
 32 31  1  0  0  0  0
 33 32  1  0  0  0  0
 34 35  1  0  0  0  0
 35 36  1  0  0  0  0
 35 37  2  0  0  0  0
 37 38  1  0  0  0  0
M  END
>  <minimizedAffinity>
-6.80644989

$$$$

 OpenBabel03242513323D

 38 41  0  0  0  0  0  0  0  0999 V2000
   40.6500   31.9580   41.6080 C   0  0  0  0  0  0  0  0  0  0  0  0
   41.0220   32.8070   40.5840 C   0  0  0  0  0  0  0  0  0  0  0  0
   40.0790   33.0710   39.6320 C   0  0  0  0  0  0  0  0  0  0  0  0
   38.8040   32.5210   39.6780 C   0  0  0  0  0  0  0  0  0  0  0  0
   38.4610   31.6750   40.7130 C   0  0  0  0  0  0  0  0  0  0  0  0
   39.3930   31.3790   41.7050 C   0  0  0  0  0  0  0  0  0  0  0  0
   40.3670   33.7380   38.8250 H   0  0  0  0  0  0  0  0  0  0  0  0
   38.1360   32.8020   38.8640 H   0  0  0  0  0  0  0  0  0  0  0  0
   37.4700   31.2570   40.7330 H   0  0  0  0  0  0  0  0  0  0  0  0
   44.5680   33.6400   39.6520 C   0  0  0  0  0  0  0  0  0  0  0  0
   43.2790   33.0840   39.6070 C   0  0  0  0  0  0  0  0  0  0  0  0
   42.3540   33.3500   40.5810 C   0  0  0  0  0  0  0  0  0  0  0  0
   42.7930   34.1820   41.5680 N   0  0  0  0  0  0  0  0  0  0  0  0
   44.0160   34.7180   41.6220 C   0  0  0  0  0  0  0  0  0  0  0  0
   44.9080   34.4420   40.6530 N   0  0  0  0  0  0  0  0  0  0  0  0
   45.3030   33.4360   38.8860 H   0  0  0  0  0  0  0  0  0  0  0  0
   43.0300   32.4320   38.7760 H   0  0  0  0  0  0  0  0  0  0  0  0
   44.1530   35.3560   42.5020 H   0  0  0  0  0  0  0  0  0  0  0  0
   41.5660   31.6540   42.6030 O   0  0  0  0  0  0  0  0  0  0  0  0
   41.2210   31.6280   43.5600 H   0  0  0  0  0  0  0  0  0  0  0  0
   39.0920   30.5450   42.7480 O   0  0  0  0  0  0  0  0  0  0  0  0
   38.5370   29.3090   42.6460 C   0  0  0  0  0  0  0  0  0  0  0  0
   37.6050   28.6670   43.4310 C   0  0  0  0  0  0  0  0  0  0  0  0
   37.2200   27.4130   43.0960 C   0  0  0  0  0  0  0  0  0  0  0  0
   37.8160   26.8440   41.9450 C   0  0  0  0  0  0  0  0  0  0  0  0
   38.9310   28.1320   41.3540 S   0  0  0  0  0  0  0  0  0  0  0  0
   37.2220   29.1870   44.2710 H   0  0  0  0  0  0  0  0  0  0  0  0
   36.5000   26.8050   43.6260 H   0  0  0  0  0  0  0  0  0  0  0  0
   39.5720   24.7310   43.1190 Cl  0  0  0  0  0  0  0  0  0  0  0  0
   38.4130   24.5230   41.8230 C   0  0  0  0  0  0  0  0  0  0  0  0
   37.6280   25.5340   41.3200 C   0  0  0  0  0  0  0  0  0  0  0  0
   36.7090   25.4780   40.3280 C   0  0  0  0  0  0  0  0  0  0  0  0
   36.1280   26.3230   39.9860 H   0  0  0  0  0  0  0  0  0  0  0  0
   36.5330   24.2230   39.7330 C   0  0  0  0  0  3  0  0  0  0  0  0
   37.2910   23.1370   40.1840 C   0  0  0  0  0  0  0  0  0  0  0  0
   37.0860   21.5440   39.4490 Cl  0  0  0  0  0  0  0  0  0  0  0  0
   38.2210   23.2760   41.2140 C   0  0  0  0  0  0  0  0  0  0  0  0
   38.8150   22.4480   41.5760 H   0  0  0  0  0  0  0  0  0  0  0  0
  1  6  1  0  0  0  0
  1 19  1  0  0  0  0
  2  1  2  0  0  0  0
  3  4  2  0  0  0  0
  3  2  1  0  0  0  0
  4  5  1  0  0  0  0
  5  9  1  0  0  0  0
  5  6  2  0  0  0  0
  6 21  1  0  0  0  0
  7  3  1  0  0  0  0
  8  4  1  0  0  0  0
 10 15  1  0  0  0  0
 11 10  2  0  0  0  0
 11 12  1  0  0  0  0
 12  2  1  0  0  0  0
 12 13  2  0  0  0  0
 13 14  1  0  0  0  0
 14 18  1  0  0  0  0
 15 14  2  0  0  0  0
 16 10  1  0  0  0  0
 17 11  1  0  0  0  0
 19 20  1  0  0  0  0
 22 21  1  0  0  0  0
 22 23  2  0  0  0  0
 23 27  1  0  0  0  0
 24 23  1  0  0  0  0
 24 28  1  0  0  0  0
 25 24  2  0  0  0  0
 26 25  1  0  0  0  0
 26 22  1  0  0  0  0
 30 29  1  0  0  0  0
 31 30  1  0  0  0  0
 31 25  1  0  0  0  0
 32 31  2  0  0  0  0
 33 32  1  0  0  0  0
 34 35  2  0  0  0  0
 34 32  1  0  0  0  0
 35 37  1  0  0  0  0
 36 35  1  0  0  0  0
 37 38  1  0  0  0  0
 37 30  2  0  0  0  0
M  END
>  <minimizedAffinity>
-6.11228752

$$$$

 OpenBabel03242513323D

 38 41  0  0  0  0  0  0  0  0999 V2000
   40.8960   31.8120   41.4500 C   0  0  0  0  0  0  0  0  0  0  0  0
   41.3540   32.6820   40.4800 C   0  0  0  0  0  0  0  0  0  0  0  0
   42.4080   32.2570   39.7210 C   0  0  0  0  0  0  0  0  0  0  0  0
   42.9990   31.0130   39.9040 C   0  0  0  0  0  0  0  0  0  0  0  0
   42.5190   30.1650   40.8820 C   0  0  0  0  0  0  0  0  0  0  0  0
   41.4470   30.5590   41.6780 C   0  0  0  0  0  0  0  0  0  0  0  0
   42.7720   32.9380   38.9580 H   0  0  0  0  0  0  0  0  0  0  0  0
   43.8320   30.7820   39.2410 H   0  0  0  0  0  0  0  0  0  0  0  0
   42.9900   29.2050   41.0100 H   0  0  0  0  0  0  0  0  0  0  0  0
   40.7060   36.3700   40.1340 C   0  0  0  0  0  0  0  0  0  0  0  0
   41.3850   35.1500   40.2800 C   0  0  0  0  0  0  0  0  0  0  0  0
   40.7090   33.9590   40.3310 C   0  0  0  0  0  0  0  0  0  0  0  0
   39.3540   34.0720   40.2290 N   0  0  0  0  0  0  0  0  0  0  0  0
   38.6960   35.2270   40.0900 C   0  0  0  0  0  0  0  0  0  0  0  0
   39.3820   36.3840   40.0420 N   0  0  0  0  0  0  0  0  0  0  0  0
   41.2330   37.3130   40.0930 H   0  0  0  0  0  0  0  0  0  0  0  0
   42.4680   35.1690   40.3530 H   0  0  0  0  0  0  0  0  0  0  0  0
   37.6120   35.0830   40.0270 H   0  0  0  0  0  0  0  0  0  0  0  0
   39.8290   32.1910   42.2500 O   0  0  0  0  0  0  0  0  0  0  0  0
   39.1240   31.4840   42.4490 H   0  0  0  0  0  0  0  0  0  0  0  0
   40.9430   29.7480   42.6570 O   0  0  0  0  0  0  0  0  0  0  0  0
   39.9610   28.8210   42.4990 C   0  0  0  0  0  0  0  0  0  0  0  0
   38.7680   28.6420   43.1640 C   0  0  0  0  0  0  0  0  0  0  0  0
   37.9620   27.6180   42.7970 C   0  0  0  0  0  0  0  0  0  0  0  0
   38.4130   26.7940   41.7390 C   0  0  0  0  0  0  0  0  0  0  0  0
   40.0040   27.5080   41.2820 S   0  0  0  0  0  0  0  0  0  0  0  0
   38.5280   29.3200   43.9430 H   0  0  0  0  0  0  0  0  0  0  0  0
   37.0060   27.3720   43.2370 H   0  0  0  0  0  0  0  0  0  0  0  0
   39.4210   24.2080   42.8460 Cl  0  0  0  0  0  0  0  0  0  0  0  0
   38.2250   24.4060   41.5830 C   0  0  0  0  0  0  0  0  0  0  0  0
   37.7970   25.6250   41.1090 C   0  0  0  0  0  0  0  0  0  0  0  0
   36.8860   25.8840   40.1430 C   0  0  0  0  0  0  0  0  0  0  0  0
   36.6000   26.8760   39.8250 H   0  0  0  0  0  0  0  0  0  0  0  0
   36.2990   24.7620   39.5440 C   0  0  0  0  0  3  0  0  0  0  0  0
   36.6770   23.4830   39.9660 C   0  0  0  0  0  0  0  0  0  0  0  0
   35.9510   22.0540   39.2250 Cl  0  0  0  0  0  0  0  0  0  0  0  0
   37.6270   23.2980   40.9700 C   0  0  0  0  0  0  0  0  0  0  0  0
   37.9300   22.3170   41.3090 H   0  0  0  0  0  0  0  0  0  0  0  0
  1  6  1  0  0  0  0
  1 19  1  0  0  0  0
  2  1  2  0  0  0  0
  3  4  2  0  0  0  0
  3  2  1  0  0  0  0
  4  5  1  0  0  0  0
  5  9  1  0  0  0  0
  5  6  2  0  0  0  0
  6 21  1  0  0  0  0
  7  3  1  0  0  0  0
  8  4  1  0  0  0  0
 10 11  1  0  0  0  0
 11 12  2  0  0  0  0
 11 17  1  0  0  0  0
 12  2  1  0  0  0  0
 13 12  1  0  0  0  0
 14 13  2  0  0  0  0
 15 14  1  0  0  0  0
 15 10  2  0  0  0  0
 16 10  1  0  0  0  0
 18 14  1  0  0  0  0
 19 20  1  0  0  0  0
 22 21  1  0  0  0  0
 22 23  2  0  0  0  0
 23 27  1  0  0  0  0
 24 23  1  0  0  0  0
 24 28  1  0  0  0  0
 25 24  2  0  0  0  0
 26 25  1  0  0  0  0
 26 22  1  0  0  0  0
 30 29  1  0  0  0  0
 31 30  1  0  0  0  0
 31 25  1  0  0  0  0
 32 31  2  0  0  0  0
 33 32  1  0  0  0  0
 34 35  2  0  0  0  0
 34 32  1  0  0  0  0
 35 37  1  0  0  0  0
 36 35  1  0  0  0  0
 37 38  1  0  0  0  0
 37 30  2  0  0  0  0
M  END
>  <minimizedAffinity>
-6.10656881

$$$$

 OpenBabel03242513323D

 38 41  0  0  0  0  0  0  0  0999 V2000
   38.8900   26.5770   42.8550 C   0  0  0  0  0  0  0  0  0  0  0  0
   39.7780   25.5380   43.0470 C   0  0  0  0  0  0  0  0  0  0  0  0
   39.3160   24.2790   42.7840 C   0  0  0  0  0  0  0  0  0  0  0  0
   38.0200   24.0410   42.3430 C   0  0  0  0  0  0  0  0  0  0  0  0
   37.1550   25.1020   42.1610 C   0  0  0  0  0  0  0  0  0  0  0  0
   37.5850   26.4010   42.4180 C   0  0  0  0  0  0  0  0  0  0  0  0
   40.0110   23.4580   42.9340 H   0  0  0  0  0  0  0  0  0  0  0  0
   37.7630   22.9980   42.1660 H   0  0  0  0  0  0  0  0  0  0  0  0
   36.1550   24.8990   41.8190 H   0  0  0  0  0  0  0  0  0  0  0  0
   43.5180   25.6500   43.4160 C   0  0  0  0  0  0  0  0  0  0  0  0
   42.2420   25.3280   42.9280 C   0  0  0  0  0  0  0  0  0  0  0  0
   41.1090   25.8350   43.5060 C   0  0  0  0  0  0  0  0  0  0  0  0
   41.3350   26.6590   44.5690 N   0  0  0  0  0  0  0  0  0  0  0  0
   42.5430   26.9740   45.0430 C   0  0  0  0  0  0  0  0  0  0  0  0
   43.6430   26.4630   44.4570 N   0  0  0  0  0  0  0  0  0  0  0  0
   44.4170   25.2540   42.9640 H   0  0  0  0  0  0  0  0  0  0  0  0
   42.1710   24.6610   42.0750 H   0  0  0  0  0  0  0  0  0  0  0  0
   42.4910   27.6510   45.9030 H   0  0  0  0  0  0  0  0  0  0  0  0
   39.3030   27.8770   43.1070 O   0  0  0  0  0  0  0  0  0  0  0  0
   39.0130   28.5930   42.4440 H   0  0  0  0  0  0  0  0  0  0  0  0
   36.7590   27.4780   42.2490 O   0  0  0  0  0  0  0  0  0  0  0  0
   36.3780   28.0130   41.0590 C   0  0  0  0  0  0  0  0  0  0  0  0
   35.3900   28.9210   40.7500 C   0  0  0  0  0  0  0  0  0  0  0  0
   35.2210   29.2890   39.4570 C   0  0  0  0  0  0  0  0  0  0  0  0
   36.0880   28.7030   38.5040 C   0  0  0  0  0  0  0  0  0  0  0  0
   37.1420   27.6200   39.4880 S   0  0  0  0  0  0  0  0  0  0  0  0
   34.7970   29.2990   41.5430 H   0  0  0  0  0  0  0  0  0  0  0  0
   34.4870   29.9900   39.0850 H   0  0  0  0  0  0  0  0  0  0  0  0
   33.4140   29.0360   37.2140 Cl  0  0  0  0  0  0  0  0  0  0  0  0
   34.9690   29.0370   36.4080 C   0  0  0  0  0  0  0  0  0  0  0  0
   36.1730   28.8780   37.0540 C   0  0  0  0  0  0  0  0  0  0  0  0
   37.4200   28.8630   36.5280 C   0  0  0  0  0  0  0  0  0  0  0  0
   38.3230   28.7330   37.1050 H   0  0  0  0  0  0  0  0  0  0  0  0
   37.4950   29.0320   35.1400 C   0  0  0  0  0  3  0  0  0  0  0  0
   36.3180   29.2000   34.4040 C   0  0  0  0  0  0  0  0  0  0  0  0
   36.3890   29.4140   32.6520 Cl  0  0  0  0  0  0  0  0  0  0  0  0
   35.0670   29.2030   35.0210 C   0  0  0  0  0  0  0  0  0  0  0  0
   34.1470   29.3320   34.4680 H   0  0  0  0  0  0  0  0  0  0  0  0
  1  2  1  0  0  0  0
  1 19  1  0  0  0  0
  2 12  1  0  0  0  0
  3  7  1  0  0  0  0
  3  2  2  0  0  0  0
  4  3  1  0  0  0  0
  5  4  2  0  0  0  0
  5  6  1  0  0  0  0
  6  1  2  0  0  0  0
  8  4  1  0  0  0  0
  9  5  1  0  0  0  0
 10 15  1  0  0  0  0
 11 10  2  0  0  0  0
 11 12  1  0  0  0  0
 12 13  2  0  0  0  0
 13 14  1  0  0  0  0
 14 18  1  0  0  0  0
 15 14  2  0  0  0  0
 16 10  1  0  0  0  0
 17 11  1  0  0  0  0
 20 19  1  0  0  0  0
 21  6  1  0  0  0  0
 22 21  1  0  0  0  0
 23 22  2  0  0  0  0
 23 27  1  0  0  0  0
 24 23  1  0  0  0  0
 25 24  2  0  0  0  0
 25 26  1  0  0  0  0
 26 22  1  0  0  0  0
 28 24  1  0  0  0  0
 30 31  1  0  0  0  0
 30 29  1  0  0  0  0
 31 25  1  0  0  0  0
 32 31  2  0  0  0  0
 32 33  1  0  0  0  0
 34 32  1  0  0  0  0
 35 37  1  0  0  0  0
 35 34  2  0  0  0  0
 36 35  1  0  0  0  0
 37 30  2  0  0  0  0
 38 37  1  0  0  0  0
M  END
>  <minimizedAffinity>
-6.00854301

$$$$

 OpenBabel03242513323D

 38 41  0  0  0  0  0  0  0  0999 V2000
   38.0160   32.2940   40.6480 C   0  0  0  0  0  0  0  0  0  0  0  0
   39.3110   32.6910   40.9170 C   0  0  0  0  0  0  0  0  0  0  0  0
   40.0940   31.8070   41.6040 C   0  0  0  0  0  0  0  0  0  0  0  0
   39.6250   30.5660   42.0170 C   0  0  0  0  0  0  0  0  0  0  0  0
   38.3250   30.1980   41.7340 C   0  0  0  0  0  0  0  0  0  0  0  0
   37.4930   31.0700   41.0360 C   0  0  0  0  0  0  0  0  0  0  0  0
   41.1130   32.1140   41.8180 H   0  0  0  0  0  0  0  0  0  0  0  0
   40.3380   29.9450   42.5570 H   0  0  0  0  0  0  0  0  0  0  0  0
   37.9780   29.2330   42.0620 H   0  0  0  0  0  0  0  0  0  0  0  0
   41.2590   35.4740   39.3050 C   0  0  0  0  0  0  0  0  0  0  0  0
   40.8750   34.1870   39.7160 C   0  0  0  0  0  0  0  0  0  0  0  0
   39.7490   33.9860   40.4690 C   0  0  0  0  0  0  0  0  0  0  0  0
   39.0580   35.1220   40.7700 N   0  0  0  0  0  0  0  0  0  0  0  0
   39.4120   36.3510   40.3850 C   0  0  0  0  0  0  0  0  0  0  0  0
   40.5230   36.5240   39.6450 N   0  0  0  0  0  0  0  0  0  0  0  0
   42.1460   35.6410   38.7100 H   0  0  0  0  0  0  0  0  0  0  0  0
   41.4970   33.3470   39.4230 H   0  0  0  0  0  0  0  0  0  0  0  0
   38.7120   37.1170   40.7390 H   0  0  0  0  0  0  0  0  0  0  0  0
   37.1750   33.1510   39.9550 O   0  0  0  0  0  0  0  0  0  0  0  0
   36.5760   32.7380   39.2420 H   0  0  0  0  0  0  0  0  0  0  0  0
   36.1990   30.7420   40.7370 O   0  0  0  0  0  0  0  0  0  0  0  0
   35.7770   30.1010   39.6150 C   0  0  0  0  0  0  0  0  0  0  0  0
   36.2950   30.0720   38.3390 C   0  0  0  0  0  0  0  0  0  0  0  0
   35.6640   29.3370   37.3930 C   0  0  0  0  0  0  0  0  0  0  0  0
   34.4980   28.6410   37.7920 C   0  0  0  0  0  0  0  0  0  0  0  0
   34.3230   29.0560   39.5380 S   0  0  0  0  0  0  0  0  0  0  0  0
   37.1750   30.6310   38.1480 H   0  0  0  0  0  0  0  0  0  0  0  0
   35.9670   29.2330   36.3600 H   0  0  0  0  0  0  0  0  0  0  0  0
   35.3040   25.7660   37.8710 Cl  0  0  0  0  0  0  0  0  0  0  0  0
   33.9200   26.4380   37.0370 C   0  0  0  0  0  0  0  0  0  0  0  0
   33.5950   27.7750   37.0340 C   0  0  0  0  0  0  0  0  0  0  0  0
   32.5550   28.3910   36.4250 C   0  0  0  0  0  0  0  0  0  0  0  0
   32.3660   29.4540   36.4700 H   0  0  0  0  0  0  0  0  0  0  0  0
   31.6940   27.5580   35.7010 C   0  0  0  0  0  3  0  0  0  0  0  0
   31.9510   26.1830   35.6510 C   0  0  0  0  0  0  0  0  0  0  0  0
   30.8790   25.1120   34.7440 Cl  0  0  0  0  0  0  0  0  0  0  0  0
   33.0470   25.6230   36.3070 C   0  0  0  0  0  0  0  0  0  0  0  0
   33.2600   24.5630   36.2790 H   0  0  0  0  0  0  0  0  0  0  0  0
  1  2  2  0  0  0  0
  1  6  1  0  0  0  0
  2  3  1  0  0  0  0
  3  7  1  0  0  0  0
  3  4  2  0  0  0  0
  4  8  1  0  0  0  0
  5  4  1  0  0  0  0
  5  9  1  0  0  0  0
  6  5  2  0  0  0  0
 10 15  2  0  0  0  0
 10 11  1  0  0  0  0
 11 12  2  0  0  0  0
 12 13  1  0  0  0  0
 12  2  1  0  0  0  0
 14 18  1  0  0  0  0
 14 13  2  0  0  0  0
 15 14  1  0  0  0  0
 16 10  1  0  0  0  0
 17 11  1  0  0  0  0
 19  1  1  0  0  0  0
 20 19  1  0  0  0  0
 21  6  1  0  0  0  0
 22 21  1  0  0  0  0
 23 22  2  0  0  0  0
 24 25  2  0  0  0  0
 24 23  1  0  0  0  0
 25 26  1  0  0  0  0
 26 22  1  0  0  0  0
 27 23  1  0  0  0  0
 28 24  1  0  0  0  0
 30 29  1  0  0  0  0
 31 30  1  0  0  0  0
 31 25  1  0  0  0  0
 32 33  1  0  0  0  0
 32 31  2  0  0  0  0
 34 32  1  0  0  0  0
 35 34  2  0  0  0  0
 35 37  1  0  0  0  0
 36 35  1  0  0  0  0
 37 30  2  0  0  0  0
 38 37  1  0  0  0  0
M  END
>  <minimizedAffinity>
-5.92259359

$$$$

 OpenBabel03242513323D

 38 41  0  0  0  0  0  0  0  0999 V2000
   36.5840   28.9010   36.3640 C   0  0  0  0  0  0  0  0  0  0  0  0
   35.9190   27.7010   36.5220 C   0  0  0  0  0  0  0  0  0  0  0  0
   35.2950   27.4970   37.7200 C   0  0  0  0  0  0  0  0  0  0  0  0
   35.3190   28.4410   38.7390 C   0  0  0  0  0  0  0  0  0  0  0  0
   35.9940   29.6310   38.5520 C   0  0  0  0  0  0  0  0  0  0  0  0
   36.6430   29.8790   37.3460 C   0  0  0  0  0  0  0  0  0  0  0  0
   34.7700   26.5560   37.8490 H   0  0  0  0  0  0  0  0  0  0  0  0
   34.7870   28.1700   39.6500 H   0  0  0  0  0  0  0  0  0  0  0  0
   36.0030   30.3510   39.3520 H   0  0  0  0  0  0  0  0  0  0  0  0
   36.5750   24.6790   34.3830 C   0  0  0  0  0  0  0  0  0  0  0  0
   36.6030   25.5670   35.4700 C   0  0  0  0  0  0  0  0  0  0  0  0
   35.9230   26.7560   35.4370 C   0  0  0  0  0  0  0  0  0  0  0  0
   35.2370   26.9850   34.2810 N   0  0  0  0  0  0  0  0  0  0  0  0
   35.2030   26.1490   33.2400 C   0  0  0  0  0  0  0  0  0  0  0  0
   35.8790   24.9860   33.2950 N   0  0  0  0  0  0  0  0  0  0  0  0
   37.1080   23.7390   34.4010 H   0  0  0  0  0  0  0  0  0  0  0  0
   37.1810   25.2890   36.3450 H   0  0  0  0  0  0  0  0  0  0  0  0
   34.5910   26.5340   32.4170 H   0  0  0  0  0  0  0  0  0  0  0  0
   37.2360   29.1620   35.1690 O   0  0  0  0  0  0  0  0  0  0  0  0
   37.1500   30.1030   34.7890 H   0  0  0  0  0  0  0  0  0  0  0  0
   37.3220   31.0460   37.1210 O   0  0  0  0  0  0  0  0  0  0  0  0
   37.8810   31.8390   38.0730 C   0  0  0  0  0  0  0  0  0  0  0  0
   37.3100   32.5830   39.0820 C   0  0  0  0  0  0  0  0  0  0  0  0
   38.1150   33.2960   39.9050 C   0  0  0  0  0  0  0  0  0  0  0  0
   39.5080   33.2230   39.6620 C   0  0  0  0  0  0  0  0  0  0  0  0
   39.6420   32.1210   38.2420 S   0  0  0  0  0  0  0  0  0  0  0  0
   36.2550   32.5650   39.1750 H   0  0  0  0  0  0  0  0  0  0  0  0
   37.7930   33.9160   40.7310 H   0  0  0  0  0  0  0  0  0  0  0  0
   39.1970   36.1840   39.9130 Cl  0  0  0  0  0  0  0  0  0  0  0  0
   40.5400   35.2240   40.4940 C   0  0  0  0  0  0  0  0  0  0  0  0
   40.6320   33.8590   40.3500 C   0  0  0  0  0  0  0  0  0  0  0  0
   41.6200   33.0300   40.7600 C   0  0  0  0  0  0  0  0  0  0  0  0
   41.6200   31.9600   40.6100 H   0  0  0  0  0  0  0  0  0  0  0  0
   42.6940   33.6430   41.4190 C   0  0  0  0  0  3  0  0  0  0  0  0
   42.6820   35.0290   41.6070 C   0  0  0  0  0  0  0  0  0  0  0  0
   44.0240   35.8240   42.4350 Cl  0  0  0  0  0  0  0  0  0  0  0  0
   41.6230   35.8170   41.1540 C   0  0  0  0  0  0  0  0  0  0  0  0
   41.5980   36.8890   41.2920 H   0  0  0  0  0  0  0  0  0  0  0  0
  1  2  2  0  0  0  0
  1  6  1  0  0  0  0
  2  3  1  0  0  0  0
  3  7  1  0  0  0  0
  3  4  2  0  0  0  0
  4  8  1  0  0  0  0
  5  4  1  0  0  0  0
  5  9  1  0  0  0  0
  6  5  2  0  0  0  0
 10 16  1  0  0  0  0
 10 11  1  0  0  0  0
 11 17  1  0  0  0  0
 12 11  2  0  0  0  0
 12  2  1  0  0  0  0
 13 12  1  0  0  0  0
 14 15  1  0  0  0  0
 14 13  2  0  0  0  0
 15 10  2  0  0  0  0
 18 14  1  0  0  0  0
 19  1  1  0  0  0  0
 20 19  1  0  0  0  0
 21  6  1  0  0  0  0
 21 22  1  0  0  0  0
 22 26  1  0  0  0  0
 22 23  2  0  0  0  0
 23 27  1  0  0  0  0
 23 24  1  0  0  0  0
 24 28  1  0  0  0  0
 25 24  2  0  0  0  0
 25 31  1  0  0  0  0
 26 25  1  0  0  0  0
 29 30  1  0  0  0  0
 30 37  1  0  0  0  0
 31 30  2  0  0  0  0
 31 32  1  0  0  0  0
 32 34  2  0  0  0  0
 33 32  1  0  0  0  0
 34 35  1  0  0  0  0
 35 36  1  0  0  0  0
 37 38  1  0  0  0  0
 37 35  2  0  0  0  0
M  END
>  <minimizedAffinity>
-5.88946104

$$$$

 OpenBabel03242513323D

 38 41  0  0  0  0  0  0  0  0999 V2000
   39.6760   32.2160   40.5180 C   0  0  0  0  0  0  0  0  0  0  0  0
   40.8340   32.7370   39.9750 C   0  0  0  0  0  0  0  0  0  0  0  0
   40.9480   32.6920   38.6140 C   0  0  0  0  0  0  0  0  0  0  0  0
   39.9570   32.1530   37.8040 C   0  0  0  0  0  0  0  0  0  0  0  0
   38.8110   31.6390   38.3760 C   0  0  0  0  0  0  0  0  0  0  0  0
   38.6540   31.6640   39.7600 C   0  0  0  0  0  0  0  0  0  0  0  0
   41.8570   33.1010   38.1820 H   0  0  0  0  0  0  0  0  0  0  0  0
   40.1570   32.1710   36.7330 H   0  0  0  0  0  0  0  0  0  0  0  0
   38.0530   31.2250   37.7330 H   0  0  0  0  0  0  0  0  0  0  0  0
   43.1300   35.0960   41.7920 C   0  0  0  0  0  0  0  0  0  0  0  0
   42.1470   34.6150   40.9130 C   0  0  0  0  0  0  0  0  0  0  0  0
   41.8310   33.2830   40.8560 C   0  0  0  0  0  0  0  0  0  0  0  0
   42.5440   32.4940   41.7110 N   0  0  0  0  0  0  0  0  0  0  0  0
   43.4820   32.9400   42.5520 C   0  0  0  0  0  0  0  0  0  0  0  0
   43.7740   34.2530   42.5900 N   0  0  0  0  0  0  0  0  0  0  0  0
   43.3840   36.1450   41.8430 H   0  0  0  0  0  0  0  0  0  0  0  0
   41.6370   35.3270   40.2730 H   0  0  0  0  0  0  0  0  0  0  0  0
   43.9260   32.1330   43.1450 H   0  0  0  0  0  0  0  0  0  0  0  0
   39.5060   32.2340   41.8940 O   0  0  0  0  0  0  0  0  0  0  0  0
   38.5830   32.4810   42.2440 H   0  0  0  0  0  0  0  0  0  0  0  0
   37.5340   31.1650   40.3650 O   0  0  0  0  0  0  0  0  0  0  0  0
   37.3260   29.8670   40.7130 C   0  0  0  0  0  0  0  0  0  0  0  0
   36.5930   29.3110   41.7380 C   0  0  0  0  0  0  0  0  0  0  0  0
   36.5560   27.9620   41.8580 C   0  0  0  0  0  0  0  0  0  0  0  0
   37.2860   27.2120   40.9050 C   0  0  0  0  0  0  0  0  0  0  0  0
   38.0220   28.4670   39.8400 S   0  0  0  0  0  0  0  0  0  0  0  0
   36.0830   29.9660   42.3960 H   0  0  0  0  0  0  0  0  0  0  0  0
   36.0200   27.4050   42.6140 H   0  0  0  0  0  0  0  0  0  0  0  0
   39.4810   26.1090   42.6040 Cl  0  0  0  0  0  0  0  0  0  0  0  0
   38.4520   25.2050   41.5130 C   0  0  0  0  0  0  0  0  0  0  0  0
   37.4540   25.7670   40.7520 C   0  0  0  0  0  0  0  0  0  0  0  0
   36.6090   25.1610   39.8850 C   0  0  0  0  0  0  0  0  0  0  0  0
   35.8450   25.6740   39.3190 H   0  0  0  0  0  0  0  0  0  0  0  0
   36.7740   23.7780   39.7420 C   0  0  0  0  0  3  0  0  0  0  0  0
   37.7670   23.1260   40.4800 C   0  0  0  0  0  0  0  0  0  0  0  0
   37.9930   21.3810   40.3160 Cl  0  0  0  0  0  0  0  0  0  0  0  0
   38.6000   23.8220   41.3560 C   0  0  0  0  0  0  0  0  0  0  0  0
   39.3720   23.3340   41.9340 H   0  0  0  0  0  0  0  0  0  0  0  0
  1 19  1  0  0  0  0
  2  1  1  0  0  0  0
  2 12  1  0  0  0  0
  3  2  2  0  0  0  0
  4  5  2  0  0  0  0
  4  3  1  0  0  0  0
  5  6  1  0  0  0  0
  6 21  1  0  0  0  0
  6  1  2  0  0  0  0
  7  3  1  0  0  0  0
  8  4  1  0  0  0  0
  9  5  1  0  0  0  0
 10 16  1  0  0  0  0
 10 15  1  0  0  0  0
 11 10  2  0  0  0  0
 12 11  1  0  0  0  0
 12 13  2  0  0  0  0
 13 14  1  0  0  0  0
 14 15  2  0  0  0  0
 14 18  1  0  0  0  0
 17 11  1  0  0  0  0
 19 20  1  0  0  0  0
 21 22  1  0  0  0  0
 22 23  2  0  0  0  0
 23 24  1  0  0  0  0
 23 27  1  0  0  0  0
 24 28  1  0  0  0  0
 25 24  2  0  0  0  0
 26 22  1  0  0  0  0
 26 25  1  0  0  0  0
 30 29  1  0  0  0  0
 31 25  1  0  0  0  0
 31 30  2  0  0  0  0
 32 31  1  0  0  0  0
 33 32  1  0  0  0  0
 34 32  2  0  0  0  0
 34 35  1  0  0  0  0
 35 37  2  0  0  0  0
 36 35  1  0  0  0  0
 37 30  1  0  0  0  0
 37 38  1  0  0  0  0
M  END
>  <minimizedAffinity>
-5.88674307

$$$$
