
 OpenBabel03252500143D

 39 42  0  0  0  0  0  0  0  0999 V2000
   45.6100   32.4920   40.1590 Cl  0  0  0  0  0  0  0  0  0  0  0  0
   46.9080   33.6070   39.9480 C   0  0  0  0  0  0  0  0  0  0  0  0
   47.4350   34.2880   41.0190 C   0  0  0  0  0  0  0  0  0  0  0  0
   48.4810   35.1950   40.8860 C   0  0  0  0  0  0  0  0  0  0  0  0
   48.9680   35.3770   39.6020 C   0  0  0  0  0  0  0  0  0  0  0  0
   48.4390   34.6930   38.5280 C   0  0  0  0  0  0  0  0  0  0  0  0
   47.4190   33.8160   38.6910 C   0  0  0  0  0  0  0  0  0  0  0  0
   48.9100   35.7380   41.7010 H   0  0  0  0  0  0  0  0  0  0  0  0
   49.7830   36.0610   39.3850 H   0  0  0  0  0  0  0  0  0  0  0  0
   48.8180   34.8300   37.5080 H   0  0  0  0  0  0  0  0  0  0  0  0
   46.7100   32.7390   44.2790 C   0  0  0  0  0  0  0  0  0  0  0  0
   45.8060   33.6650   44.8650 C   0  0  0  0  0  0  0  0  0  0  0  0
   45.4660   34.8000   44.1280 C   0  0  0  0  0  0  0  0  0  0  0  0
   46.0170   34.9560   42.8920 N   0  0  0  0  0  0  0  0  0  0  0  0
   46.8770   34.0540   42.3600 C   0  0  0  0  0  0  0  0  0  0  0  0
   47.2080   32.9650   43.0580 N   0  0  0  0  0  0  0  0  0  0  0  0
   46.9550   31.8660   44.8800 H   0  0  0  0  0  0  0  0  0  0  0  0
   45.3670   33.5400   45.8520 H   0  0  0  0  0  0  0  0  0  0  0  0
   44.5240   35.8490   44.6380 C   0  0  0  0  0  0  0  0  0  0  0  0
   45.0260   37.1020   44.3930 F   0  0  0  0  0  0  0  0  0  0  0  0
   43.3090   35.7020   43.9870 F   0  0  0  0  0  0  0  0  0  0  0  0
   44.3770   35.6220   45.9810 F   0  0  0  0  0  0  0  0  0  0  0  0
   46.8530   33.0870   37.5550 C   0  0  0  0  0  0  0  0  0  0  0  0
   45.5650   33.2990   37.0560 C   0  0  0  0  0  0  0  0  0  0  0  0
   45.3760   32.4390   35.9900 C   0  0  0  0  0  0  0  0  0  0  0  0
   46.5650   31.7430   35.8960 C   0  0  0  0  0  0  0  0  0  0  0  0
   47.4060   32.1540   36.8330 O   0  0  0  0  0  0  0  0  0  0  0  0
   44.7920   33.9960   37.3890 H   0  0  0  0  0  0  0  0  0  0  0  0
   44.5070   32.3060   35.3450 H   0  0  0  0  0  0  0  0  0  0  0  0
   48.2930   32.6880   33.6050 Cl  0  0  0  0  0  0  0  0  0  0  0  0
   47.6940   31.0540   33.8440 C   0  0  0  0  0  0  0  0  0  0  0  0
   46.9040   30.6940   34.9210 C   0  0  0  0  0  0  0  0  0  0  0  0
   46.4330   29.4090   35.1090 C   0  0  0  0  0  0  0  0  0  0  0  0
   45.8200   29.1210   35.9400 H   0  0  0  0  0  0  0  0  0  0  0  0
   46.7720   28.4560   34.1770 C   0  0  0  0  0  0  0  0  0  0  0  0
   47.5570   28.8180   33.1060 C   0  0  0  0  0  0  0  0  0  0  0  0
   47.9730   27.5950   31.9410 Cl  0  0  0  0  0  0  0  0  0  0  0  0
   48.0490   30.1030   32.8880 C   0  0  0  0  0  0  0  0  0  0  0  0
   48.6580   30.3040   32.0250 H   0  0  0  0  0  0  0  0  0  0  0  0
  2  1  1  0  0  0  0
  2  3  1  0  0  0  0
  3 15  1  0  0  0  0
  4  3  2  0  0  0  0
  4  8  1  0  0  0  0
  5  4  1  0  0  0  0
  6  7  1  0  0  0  0
  6  5  2  0  0  0  0
  7  2  2  0  0  0  0
  9  5  1  0  0  0  0
 10  6  1  0  0  0  0
 11 12  1  0  0  0  0
 11 17  1  0  0  0  0
 12 18  1  0  0  0  0
 13 19  1  0  0  0  0
 13 12  2  0  0  0  0
 14 13  1  0  0  0  0
 15 14  2  0  0  0  0
 15 16  1  0  0  0  0
 16 11  2  0  0  0  0
 19 22  1  0  0  0  0
 20 19  1  0  0  0  0
 21 19  1  0  0  0  0
 23  7  1  0  0  0  0
 24 28  1  0  0  0  0
 24 23  2  0  0  0  0
 25 24  1  0  0  0  0
 26 25  2  0  0  0  0
 26 27  1  0  0  0  0
 27 23  1  0  0  0  0
 29 25  1  0  0  0  0
 30 31  1  0  0  0  0
 31 32  1  0  0  0  0
 32 33  2  0  0  0  0
 32 26  1  0  0  0  0
 33 34  1  0  0  0  0
 35 33  1  0  0  0  0
 36 35  2  0  0  0  0
 37 36  1  0  0  0  0
 38 36  1  0  0  0  0
 38 31  2  0  0  0  0
 39 38  1  0  0  0  0
M  END
>  <minimizedAffinity>
-6.18456221

>  <minimizedRMSD>
1.66678441

$$$$
