
 OpenBabel03252506443D

 41 44  0  0  1  0  0  0  0  0999 V2000
   36.9530   29.6610   40.5570 N   0  0  1  0  0  0  0  0  0  0  0  0
   37.1560   31.0450   40.8920 C   0  0  0  0  0  0  0  0  0  0  0  0
   36.9500   32.0100   39.7820 C   0  0  0  0  0  0  0  0  0  0  0  0
   37.9720   31.7690   38.6940 C   0  0  0  0  0  0  0  0  0  0  0  0
   38.2700   30.3200   38.5840 C   0  0  0  0  0  0  0  0  0  0  0  0
   37.1890   29.4590   39.1400 C   0  0  2  0  0  0  0  0  0  0  0  0
   38.2030   31.1970   41.2620 H   0  0  0  0  0  0  0  0  0  0  0  0
   36.5270   31.3190   41.7860 H   0  0  0  0  0  0  0  0  0  0  0  0
   37.2200   33.0230   40.2160 H   0  0  0  0  0  0  0  0  0  0  0  0
   35.9500   32.1340   39.3870 H   0  0  0  0  0  0  0  0  0  0  0  0
   37.5040   32.1250   37.7390 H   0  0  0  0  0  0  0  0  0  0  0  0
   38.8790   32.4110   38.8150 H   0  0  0  0  0  0  0  0  0  0  0  0
   39.1820   30.1160   39.2030 H   0  0  0  0  0  0  0  0  0  0  0  0
   38.5310   29.9770   37.5750 H   0  0  0  0  0  0  0  0  0  0  0  0
   37.6660   28.4220   39.1370 H   0  0  0  0  0  0  0  0  0  0  0  0
   37.1290   29.2780   35.9860 Cl  0  0  0  0  0  0  0  0  0  0  0  0
   35.7300   29.1540   36.9920 C   0  0  0  0  0  0  0  0  0  0  0  0
   35.9780   29.2960   38.3400 C   0  0  0  0  0  0  0  0  0  0  0  0
   34.8520   29.2410   39.1750 C   0  0  0  0  0  0  0  0  0  0  0  0
   34.7790   29.3280   40.2680 H   0  0  0  0  0  0  0  0  0  0  0  0
   33.5750   29.0500   38.6330 C   0  0  0  0  0  3  0  0  0  0  0  0
   33.3860   28.9120   37.2730 C   0  0  0  0  0  0  0  0  0  0  0  0
   31.8080   28.6710   36.5510 Cl  0  0  0  0  0  0  0  0  0  0  0  0
   34.4940   28.9670   36.4590 C   0  0  0  0  0  0  0  0  0  0  0  0
   34.4310   28.8680   35.3830 H   0  0  0  0  0  0  0  0  0  0  0  0
   37.3050   27.9000   42.4180 C   0  0  1  0  0  0  0  0  0  0  0  0
   37.6990   29.2170   42.8700 C   0  0  0  0  0  0  0  0  0  0  0  0
   37.8340   28.9080   41.4080 C   0  0  2  0  0  0  0  0  0  0  0  0
   36.2350   27.6330   42.1670 H   0  0  0  0  0  0  0  0  0  0  0  0
   36.8600   29.8740   43.2150 H   0  0  0  0  0  0  0  0  0  0  0  0
   38.5880   29.3050   43.5190 H   0  0  0  0  0  0  0  0  0  0  0  0
   38.8570   28.7210   41.0410 H   0  0  0  0  0  0  0  0  0  0  0  0
   37.7570   25.4440   42.1410 C   0  0  0  0  0  0  0  0  0  0  0  0
   38.1260   26.7020   42.6920 C   0  0  0  0  0  0  0  0  0  0  0  0
   39.2610   26.7520   43.4790 C   0  0  0  0  0  0  0  0  0  0  0  0
   39.9560   25.5970   43.6800 N   0  0  0  0  0  0  0  0  0  0  0  0
   39.5940   24.4130   43.1500 C   0  0  0  0  0  0  0  0  0  0  0  0
   38.4860   24.3190   42.3700 N   0  0  0  0  0  0  0  0  0  0  0  0
   36.8500   25.4660   41.5280 H   0  0  0  0  0  0  0  0  0  0  0  0
   39.5850   27.6850   43.9220 H   0  0  0  0  0  0  0  0  0  0  0  0
   40.1670   23.5100   43.3250 H   0  0  0  0  0  0  0  0  0  0  0  0
  1  2  1  6  0  0  0
  1 28  1  0  0  0  0
  2  7  1  0  0  0  0
  2  8  1  0  0  0  0
  3  9  1  0  0  0  0
  3  2  1  0  0  0  0
  4 12  1  0  0  0  0
  4  3  1  0  0  0  0
  5  4  1  0  0  0  0
  5  6  1  0  0  0  0
  5 13  1  0  0  0  0
  6 15  1  6  0  0  0
  6  1  1  0  0  0  0
 10  3  1  0  0  0  0
 11  4  1  0  0  0  0
 14  5  1  0  0  0  0
 16 17  1  0  0  0  0
 17 18  1  0  0  0  0
 18  6  1  0  0  0  0
 18 19  2  0  0  0  0
 19 20  1  0  0  0  0
 21 19  1  0  0  0  0
 22 21  2  0  0  0  0
 23 22  1  0  0  0  0
 24 17  2  0  0  0  0
 24 22  1  0  0  0  0
 25 24  1  0  0  0  0
 26 29  1  6  0  0  0
 26 34  1  0  0  0  0
 26 27  1  0  0  0  0
 27 30  1  0  0  0  0
 27 31  1  0  0  0  0
 28 32  1  6  0  0  0
 28 26  1  0  0  0  0
 28 27  1  0  0  0  0
 33 38  2  0  0  0  0
 33 34  1  0  0  0  0
 34 35  2  0  0  0  0
 35 36  1  0  0  0  0
 35 40  1  0  0  0  0
 37 41  1  0  0  0  0
 37 36  2  0  0  0  0
 38 37  1  0  0  0  0
 39 33  1  0  0  0  0
M  END
>  <minimizedAffinity>
-5.86729288

$$$$

 OpenBabel03252506443D

 41 44  0  0  1  0  0  0  0  0999 V2000
   40.1640   32.3440   40.0360 N   0  0  1  0  0  0  0  0  0  0  0  0
   39.6710   33.6790   40.2460 C   0  0  0  0  0  0  0  0  0  0  0  0
   38.2480   33.7800   40.6620 C   0  0  0  0  0  0  0  0  0  0  0  0
   37.3530   33.2540   39.5620 C   0  0  0  0  0  0  0  0  0  0  0  0
   38.0100   32.1220   38.8650 C   0  0  0  0  0  0  0  0  0  0  0  0
   39.0640   31.4650   39.6860 C   0  0  2  0  0  0  0  0  0  0  0  0
   39.7750   34.2750   39.3030 H   0  0  0  0  0  0  0  0  0  0  0  0
   40.3410   34.2260   40.9690 H   0  0  0  0  0  0  0  0  0  0  0  0
   38.0310   34.8920   40.7070 H   0  0  0  0  0  0  0  0  0  0  0  0
   37.9680   33.4010   41.6360 H   0  0  0  0  0  0  0  0  0  0  0  0
   36.4190   32.8890   40.0650 H   0  0  0  0  0  0  0  0  0  0  0  0
   37.0010   34.0660   38.8780 H   0  0  0  0  0  0  0  0  0  0  0  0
   38.5290   32.5380   37.9620 H   0  0  0  0  0  0  0  0  0  0  0  0
   37.3240   31.3620   38.4690 H   0  0  0  0  0  0  0  0  0  0  0  0
   39.5670   30.7640   38.9370 H   0  0  0  0  0  0  0  0  0  0  0  0
   40.5340   31.1550   42.4650 Cl  0  0  0  0  0  0  0  0  0  0  0  0
   39.0780   30.3270   42.0400 C   0  0  0  0  0  0  0  0  0  0  0  0
   38.6270   30.5800   40.7630 C   0  0  0  0  0  0  0  0  0  0  0  0
   37.4690   29.8880   40.3770 C   0  0  0  0  0  0  0  0  0  0  0  0
   36.9160   29.9100   39.4290 H   0  0  0  0  0  0  0  0  0  0  0  0
   36.8420   29.0040   41.2660 C   0  0  0  0  0  3  0  0  0  0  0  0
   37.3390   28.7910   42.5350 C   0  0  0  0  0  0  0  0  0  0  0  0
   36.5890   27.6970   43.6800 Cl  0  0  0  0  0  0  0  0  0  0  0  0
   38.4750   29.4730   42.9070 C   0  0  0  0  0  0  0  0  0  0  0  0
   38.9270   29.3600   43.8830 H   0  0  0  0  0  0  0  0  0  0  0  0
   42.4560   31.6230   39.0820 C   0  0  1  0  0  0  0  0  0  0  0  0
   42.4820   33.0080   39.5010 C   0  0  0  0  0  0  0  0  0  0  0  0
   41.1770   32.4440   39.0220 C   0  0  2  0  0  0  0  0  0  0  0  0
   42.3260   30.7660   39.8080 H   0  0  0  0  0  0  0  0  0  0  0  0
   42.6370   33.1710   40.5980 H   0  0  0  0  0  0  0  0  0  0  0  0
   43.0500   33.7310   38.8900 H   0  0  0  0  0  0  0  0  0  0  0  0
   40.8550   32.7490   38.0110 H   0  0  0  0  0  0  0  0  0  0  0  0
   42.3610   30.2590   36.9730 C   0  0  0  0  0  0  0  0  0  0  0  0
   43.0540   31.1820   37.8050 C   0  0  0  0  0  0  0  0  0  0  0  0
   44.2860   31.6360   37.3740 C   0  0  0  0  0  0  0  0  0  0  0  0
   44.7620   31.1740   36.1820 N   0  0  0  0  0  0  0  0  0  0  0  0
   44.0920   30.3010   35.4060 C   0  0  0  0  0  0  0  0  0  0  0  0
   42.8780   29.8290   35.7920 N   0  0  0  0  0  0  0  0  0  0  0  0
   41.3920   29.9350   37.3670 H   0  0  0  0  0  0  0  0  0  0  0  0
   44.8550   32.3390   37.9690 H   0  0  0  0  0  0  0  0  0  0  0  0
   44.4940   29.9510   34.4630 H   0  0  0  0  0  0  0  0  0  0  0  0
  1  2  1  6  0  0  0
  2  3  1  0  0  0  0
  2  8  1  0  0  0  0
  3  9  1  0  0  0  0
  3 10  1  0  0  0  0
  4 11  1  0  0  0  0
  4  3  1  0  0  0  0
  5  4  1  0  0  0  0
  5  6  1  0  0  0  0
  6 15  1  6  0  0  0
  6  1  1  0  0  0  0
  6 18  1  0  0  0  0
  7  2  1  0  0  0  0
 12  4  1  0  0  0  0
 13  5  1  0  0  0  0
 14  5  1  0  0  0  0
 17 16  1  0  0  0  0
 17 24  1  0  0  0  0
 18 17  2  0  0  0  0
 19 18  1  0  0  0  0
 19 21  2  0  0  0  0
 20 19  1  0  0  0  0
 21 22  1  0  0  0  0
 22 24  2  0  0  0  0
 22 23  1  0  0  0  0
 24 25  1  0  0  0  0
 26 27  1  0  0  0  0
 26 29  1  1  0  0  0
 27 30  1  0  0  0  0
 28 32  1  6  0  0  0
 28 26  1  0  0  0  0
 28 27  1  0  0  0  0
 28  1  1  0  0  0  0
 31 27  1  0  0  0  0
 33 39  1  0  0  0  0
 33 34  1  0  0  0  0
 34 26  1  0  0  0  0
 35 34  2  0  0  0  0
 35 40  1  0  0  0  0
 36 35  1  0  0  0  0
 37 38  1  0  0  0  0
 37 36  2  0  0  0  0
 38 33  2  0  0  0  0
 41 37  1  0  0  0  0
M  END
>  <minimizedAffinity>
-5.55298376

$$$$

 OpenBabel03252506443D

 41 44  0  0  1  0  0  0  0  0999 V2000
   38.1500   30.7430   40.5640 N   0  0  1  0  0  0  0  0  0  0  0  0
   36.7580   31.0940   40.6500 C   0  0  0  0  0  0  0  0  0  0  0  0
   35.8100   29.9510   40.6930 C   0  0  0  0  0  0  0  0  0  0  0  0
   35.8860   29.1710   39.3990 C   0  0  0  0  0  0  0  0  0  0  0  0
   37.2770   29.1700   38.8840 C   0  0  0  0  0  0  0  0  0  0  0  0
   38.2900   29.4400   39.9410 C   0  0  2  0  0  0  0  0  0  0  0  0
   36.4690   31.7200   39.7680 H   0  0  0  0  0  0  0  0  0  0  0  0
   36.5910   31.7880   41.5230 H   0  0  0  0  0  0  0  0  0  0  0  0
   34.7780   30.4210   40.6890 H   0  0  0  0  0  0  0  0  0  0  0  0
   35.8190   29.3070   41.5620 H   0  0  0  0  0  0  0  0  0  0  0  0
   35.5800   28.1200   39.6470 H   0  0  0  0  0  0  0  0  0  0  0  0
   35.1260   29.5130   38.6530 H   0  0  0  0  0  0  0  0  0  0  0  0
   37.3640   30.0080   38.1450 H   0  0  0  0  0  0  0  0  0  0  0  0
   37.5610   28.2700   38.3230 H   0  0  0  0  0  0  0  0  0  0  0  0
   39.2510   29.5800   39.3400 H   0  0  0  0  0  0  0  0  0  0  0  0
   38.8510   29.8170   43.0280 Cl  0  0  0  0  0  0  0  0  0  0  0  0
   38.8350   28.2870   42.2240 C   0  0  0  0  0  0  0  0  0  0  0  0
   38.6050   28.3550   40.8670 C   0  0  0  0  0  0  0  0  0  0  0  0
   38.6290   27.1300   40.1840 C   0  0  0  0  0  0  0  0  0  0  0  0
   38.4800   26.9140   39.1170 H   0  0  0  0  0  0  0  0  0  0  0  0
   38.8740   25.9370   40.8760 C   0  0  0  0  0  3  0  0  0  0  0  0
   39.0980   25.9290   42.2370 C   0  0  0  0  0  0  0  0  0  0  0  0
   39.4080   24.4620   43.1430 Cl  0  0  0  0  0  0  0  0  0  0  0  0
   39.0730   27.1340   42.9010 C   0  0  0  0  0  0  0  0  0  0  0  0
   39.2390   27.2130   43.9670 H   0  0  0  0  0  0  0  0  0  0  0  0
   39.9710   32.5720   40.4160 C   0  0  1  0  0  0  0  0  0  0  0  0
   38.6500   33.1600   40.4730 C   0  0  0  0  0  0  0  0  0  0  0  0
   38.7890   31.8070   39.8400 C   0  0  2  0  0  0  0  0  0  0  0  0
   40.4200   31.9910   41.2750 H   0  0  0  0  0  0  0  0  0  0  0  0
   38.2080   33.2410   41.4990 H   0  0  0  0  0  0  0  0  0  0  0  0
   38.4480   34.0580   39.8630 H   0  0  0  0  0  0  0  0  0  0  0  0
   38.7340   31.7760   38.7380 H   0  0  0  0  0  0  0  0  0  0  0  0
   42.1720   33.6990   39.9700 C   0  0  0  0  0  0  0  0  0  0  0  0
   41.0020   33.0590   39.4760 C   0  0  0  0  0  0  0  0  0  0  0  0
   40.8760   32.9180   38.1070 C   0  0  0  0  0  0  0  0  0  0  0  0
   41.8770   33.3990   37.3150 N   0  0  0  0  0  0  0  0  0  0  0  0
   42.9790   34.0020   37.7990 C   0  0  0  0  0  0  0  0  0  0  0  0
   43.1430   34.1610   39.1380 N   0  0  0  0  0  0  0  0  0  0  0  0
   42.2160   33.7830   41.0610 H   0  0  0  0  0  0  0  0  0  0  0  0
   40.0050   32.4380   37.6790 H   0  0  0  0  0  0  0  0  0  0  0  0
   43.7590   34.3740   37.1460 H   0  0  0  0  0  0  0  0  0  0  0  0
  1  2  1  6  0  0  0
  2  3  1  0  0  0  0
  2  8  1  0  0  0  0
  3 10  1  0  0  0  0
  4 11  1  0  0  0  0
  4  3  1  0  0  0  0
  5  4  1  0  0  0  0
  5  6  1  0  0  0  0
  6 15  1  6  0  0  0
  6  1  1  0  0  0  0
  6 18  1  0  0  0  0
  7  2  1  0  0  0  0
  9  3  1  0  0  0  0
 12  4  1  0  0  0  0
 13  5  1  0  0  0  0
 14  5  1  0  0  0  0
 17 24  1  0  0  0  0
 17 16  1  0  0  0  0
 18 17  2  0  0  0  0
 19 18  1  0  0  0  0
 19 21  2  0  0  0  0
 20 19  1  0  0  0  0
 21 22  1  0  0  0  0
 22 24  2  0  0  0  0
 22 23  1  0  0  0  0
 24 25  1  0  0  0  0
 26 27  1  0  0  0  0
 26 29  1  1  0  0  0
 27 30  1  0  0  0  0
 28 32  1  6  0  0  0
 28 26  1  0  0  0  0
 28 27  1  0  0  0  0
 28  1  1  0  0  0  0
 31 27  1  0  0  0  0
 33 39  1  0  0  0  0
 34 33  1  0  0  0  0
 34 26  1  0  0  0  0
 35 34  2  0  0  0  0
 36 37  2  0  0  0  0
 36 35  1  0  0  0  0
 37 38  1  0  0  0  0
 38 33  2  0  0  0  0
 40 35  1  0  0  0  0
 41 37  1  0  0  0  0
M  END
>  <minimizedAffinity>
-5.39358521

$$$$

 OpenBabel03252506443D

 41 44  0  0  1  0  0  0  0  0999 V2000
   39.7040   32.4370   40.3070 N   0  0  1  0  0  0  0  0  0  0  0  0
   38.7790   33.4950   40.0000 C   0  0  0  0  0  0  0  0  0  0  0  0
   37.3590   33.0830   39.8540 C   0  0  0  0  0  0  0  0  0  0  0  0
   37.2140   32.1500   38.6720 C   0  0  0  0  0  0  0  0  0  0  0  0
   38.4180   31.2940   38.5460 C   0  0  0  0  0  0  0  0  0  0  0  0
   39.1840   31.1740   39.8180 C   0  0  2  0  0  0  0  0  0  0  0  0
   39.0720   33.9900   39.0390 H   0  0  0  0  0  0  0  0  0  0  0  0
   38.8810   34.3250   40.7570 H   0  0  0  0  0  0  0  0  0  0  0  0
   36.8070   34.0250   39.5490 H   0  0  0  0  0  0  0  0  0  0  0  0
   36.8340   32.7230   40.7290 H   0  0  0  0  0  0  0  0  0  0  0  0
   36.3210   31.5060   38.8890 H   0  0  0  0  0  0  0  0  0  0  0  0
   36.9430   32.6940   37.7330 H   0  0  0  0  0  0  0  0  0  0  0  0
   39.1060   31.7860   37.8110 H   0  0  0  0  0  0  0  0  0  0  0  0
   38.2340   30.2940   38.1320 H   0  0  0  0  0  0  0  0  0  0  0  0
   40.1430   30.6500   39.4860 H   0  0  0  0  0  0  0  0  0  0  0  0
   40.1290   31.1550   42.8320 Cl  0  0  0  0  0  0  0  0  0  0  0  0
   38.8660   30.1560   42.2050 C   0  0  0  0  0  0  0  0  0  0  0  0
   38.6400   30.2990   40.8530 C   0  0  0  0  0  0  0  0  0  0  0  0
   37.6480   29.4690   40.3100 C   0  0  0  0  0  0  0  0  0  0  0  0
   37.2840   29.3870   39.2770 H   0  0  0  0  0  0  0  0  0  0  0  0
   36.9540   28.5660   41.1270 C   0  0  0  0  0  3  0  0  0  0  0  0
   37.2220   28.4670   42.4760 C   0  0  0  0  0  0  0  0  0  0  0  0
   36.3800   27.3540   43.5350 Cl  0  0  0  0  0  0  0  0  0  0  0  0
   38.1960   29.2840   43.0020 C   0  0  0  0  0  0  0  0  0  0  0  0
   38.4660   29.2670   44.0500 H   0  0  0  0  0  0  0  0  0  0  0  0
   42.2170   32.9900   40.5570 C   0  0  1  0  0  0  0  0  0  0  0  0
   41.4670   34.1610   40.1570 C   0  0  0  0  0  0  0  0  0  0  0  0
   40.9590   32.8180   39.7190 C   0  0  2  0  0  0  0  0  0  0  0  0
   42.0790   32.4880   41.5610 H   0  0  0  0  0  0  0  0  0  0  0  0
   40.9440   34.6990   40.9880 H   0  0  0  0  0  0  0  0  0  0  0  0
   41.9290   34.8580   39.4360 H   0  0  0  0  0  0  0  0  0  0  0  0
   41.1250   32.5550   38.6610 H   0  0  0  0  0  0  0  0  0  0  0  0
   44.0360   31.3260   40.0690 C   0  0  0  0  0  0  0  0  0  0  0  0
   43.5120   32.6420   39.9370 C   0  0  0  0  0  0  0  0  0  0  0  0
   44.2550   33.5600   39.2190 C   0  0  0  0  0  0  0  0  0  0  0  0
   45.4400   33.1520   38.6820 N   0  0  0  0  0  0  0  0  0  0  0  0
   45.9220   31.9020   38.8160 C   0  0  0  0  0  0  0  0  0  0  0  0
   45.2240   30.9670   39.5140 N   0  0  0  0  0  0  0  0  0  0  0  0
   43.4050   30.6440   40.6480 H   0  0  0  0  0  0  0  0  0  0  0  0
   43.9010   34.5750   39.0880 H   0  0  0  0  0  0  0  0  0  0  0  0
   46.8670   31.6040   38.3780 H   0  0  0  0  0  0  0  0  0  0  0  0
  1  2  1  6  0  0  0
  2  8  1  0  0  0  0
  3  2  1  0  0  0  0
  3 10  1  0  0  0  0
  4 11  1  0  0  0  0
  4  3  1  0  0  0  0
  5  4  1  0  0  0  0
  5  6  1  0  0  0  0
  6 15  1  6  0  0  0
  6  1  1  0  0  0  0
  6 18  1  0  0  0  0
  7  2  1  0  0  0  0
  9  3  1  0  0  0  0
 12  4  1  0  0  0  0
 13  5  1  0  0  0  0
 14  5  1  0  0  0  0
 17 16  1  0  0  0  0
 17 24  1  0  0  0  0
 18 17  2  0  0  0  0
 19 18  1  0  0  0  0
 19 21  2  0  0  0  0
 20 19  1  0  0  0  0
 21 22  1  0  0  0  0
 22 24  2  0  0  0  0
 22 23  1  0  0  0  0
 24 25  1  0  0  0  0
 26 29  1  1  0  0  0
 27 26  1  0  0  0  0
 27 30  1  0  0  0  0
 28 32  1  6  0  0  0
 28 27  1  0  0  0  0
 28  1  1  0  0  0  0
 28 26  1  0  0  0  0
 31 27  1  0  0  0  0
 33 39  1  0  0  0  0
 34 33  1  0  0  0  0
 34 26  1  0  0  0  0
 35 34  2  0  0  0  0
 36 37  2  0  0  0  0
 36 35  1  0  0  0  0
 37 38  1  0  0  0  0
 38 33  2  0  0  0  0
 40 35  1  0  0  0  0
 41 37  1  0  0  0  0
M  END
>  <minimizedAffinity>
-5.38176012

$$$$

 OpenBabel03252506443D

 41 44  0  0  1  0  0  0  0  0999 V2000
   38.2080   28.7210   41.3270 N   0  0  1  0  0  0  0  0  0  0  0  0
   37.5360   29.4190   42.3900 C   0  0  0  0  0  0  0  0  0  0  0  0
   37.4440   28.6860   43.6800 C   0  0  0  0  0  0  0  0  0  0  0  0
   36.6050   27.4400   43.5050 C   0  0  0  0  0  0  0  0  0  0  0  0
   36.8200   26.8640   42.1550 C   0  0  0  0  0  0  0  0  0  0  0  0
   38.1070   27.2890   41.5380 C   0  0  2  0  0  0  0  0  0  0  0  0
   36.4870   29.6620   42.0820 H   0  0  0  0  0  0  0  0  0  0  0  0
   38.0010   30.4350   42.5360 H   0  0  0  0  0  0  0  0  0  0  0  0
   36.8300   29.3570   44.3580 H   0  0  0  0  0  0  0  0  0  0  0  0
   38.3560   28.4940   44.2290 H   0  0  0  0  0  0  0  0  0  0  0  0
   36.9600   26.7110   44.2800 H   0  0  0  0  0  0  0  0  0  0  0  0
   35.5300   27.6140   43.7580 H   0  0  0  0  0  0  0  0  0  0  0  0
   36.0090   27.2560   41.4880 H   0  0  0  0  0  0  0  0  0  0  0  0
   36.7280   25.7720   42.0980 H   0  0  0  0  0  0  0  0  0  0  0  0
   38.0100   26.9100   40.4650 H   0  0  0  0  0  0  0  0  0  0  0  0
   38.3600   24.2500   42.3620 Cl  0  0  0  0  0  0  0  0  0  0  0  0
   39.6700   25.3760   42.3950 C   0  0  0  0  0  0  0  0  0  0  0  0
   39.3310   26.6600   42.0290 C   0  0  0  0  0  0  0  0  0  0  0  0
   40.3670   27.6040   42.0870 C   0  0  0  0  0  0  0  0  0  0  0  0
   40.3590   28.6770   41.8530 H   0  0  0  0  0  0  0  0  0  0  0  0
   41.6520   27.2210   42.4950 C   0  0  0  0  0  3  0  0  0  0  0  0
   41.9340   25.9190   42.8490 C   0  0  0  0  0  0  0  0  0  0  0  0
   43.5250   25.3950   43.3650 Cl  0  0  0  0  0  0  0  0  0  0  0  0
   40.9130   24.9980   42.7900 C   0  0  0  0  0  0  0  0  0  0  0  0
   41.0520   23.9570   43.0520 H   0  0  0  0  0  0  0  0  0  0  0  0
   38.4390   29.5890   38.9030 C   0  0  1  0  0  0  0  0  0  0  0  0
   37.8850   30.6090   39.7670 C   0  0  0  0  0  0  0  0  0  0  0  0
   37.6040   29.1740   40.1040 C   0  0  2  0  0  0  0  0  0  0  0  0
   39.4940   29.1970   39.0160 H   0  0  0  0  0  0  0  0  0  0  0  0
   38.6340   31.1770   40.3750 H   0  0  0  0  0  0  0  0  0  0  0  0
   37.0940   31.2660   39.3630 H   0  0  0  0  0  0  0  0  0  0  0  0
   36.5880   28.8090   39.8730 H   0  0  0  0  0  0  0  0  0  0  0  0
   38.1840   28.0990   36.8950 C   0  0  0  0  0  0  0  0  0  0  0  0
   37.8920   29.3240   37.5560 C   0  0  0  0  0  0  0  0  0  0  0  0
   37.0900   30.2360   36.8940 C   0  0  0  0  0  0  0  0  0  0  0  0
   36.6310   29.9080   35.6540 N   0  0  0  0  0  0  0  0  0  0  0  0
   36.9160   28.7430   35.0420 C   0  0  0  0  0  0  0  0  0  0  0  0
   37.7000   27.8180   35.6560 N   0  0  0  0  0  0  0  0  0  0  0  0
   38.8230   27.4180   37.4670 H   0  0  0  0  0  0  0  0  0  0  0  0
   36.8380   31.1840   37.3530 H   0  0  0  0  0  0  0  0  0  0  0  0
   36.5360   28.5080   34.0550 H   0  0  0  0  0  0  0  0  0  0  0  0
  1  6  1  0  0  0  0
  1  2  1  1  0  0  0
  2  8  1  0  0  0  0
  2  3  1  0  0  0  0
  3 10  1  0  0  0  0
  3  9  1  0  0  0  0
  4  3  1  0  0  0  0
  4 12  1  0  0  0  0
  4 11  1  0  0  0  0
  5  4  1  0  0  0  0
  6 15  1  6  0  0  0
  6 18  1  0  0  0  0
  6  5  1  0  0  0  0
  7  2  1  0  0  0  0
 13  5  1  0  0  0  0
 14  5  1  0  0  0  0
 16 17  1  0  0  0  0
 17 24  1  0  0  0  0
 18 19  1  0  0  0  0
 18 17  2  0  0  0  0
 19 21  2  0  0  0  0
 20 19  1  0  0  0  0
 21 22  1  0  0  0  0
 22 23  1  0  0  0  0
 24 22  2  0  0  0  0
 24 25  1  0  0  0  0
 26 29  1  1  0  0  0
 26 27  1  0  0  0  0
 26 28  1  0  0  0  0
 27 28  1  0  0  0  0
 27 30  1  0  0  0  0
 28 32  1  6  0  0  0
 28  1  1  0  0  0  0
 31 27  1  0  0  0  0
 33 39  1  0  0  0  0
 33 34  1  0  0  0  0
 34 26  1  0  0  0  0
 35 40  1  0  0  0  0
 35 34  2  0  0  0  0
 36 35  1  0  0  0  0
 37 36  2  0  0  0  0
 37 38  1  0  0  0  0
 38 33  2  0  0  0  0
 41 37  1  0  0  0  0
M  END
>  <minimizedAffinity>
-5.37031078

$$$$

 OpenBabel03252506443D

 41 44  0  0  1  0  0  0  0  0999 V2000
   37.5510   26.9770   41.4000 N   0  0  1  0  0  0  0  0  0  0  0  0
   37.6830   26.8350   42.8250 C   0  0  0  0  0  0  0  0  0  0  0  0
   38.2890   27.9920   43.5320 C   0  0  0  0  0  0  0  0  0  0  0  0
   39.7180   28.1830   43.0750 C   0  0  0  0  0  0  0  0  0  0  0  0
   39.8460   27.8370   41.6380 C   0  0  0  0  0  0  0  0  0  0  0  0
   38.5520   27.9050   40.9050 C   0  0  2  0  0  0  0  0  0  0  0  0
   38.3190   25.9430   43.0610 H   0  0  0  0  0  0  0  0  0  0  0  0
   36.6860   26.5650   43.2760 H   0  0  0  0  0  0  0  0  0  0  0  0
   38.3710   27.6680   44.6150 H   0  0  0  0  0  0  0  0  0  0  0  0
   37.7390   28.9230   43.5610 H   0  0  0  0  0  0  0  0  0  0  0  0
   39.9510   29.2710   43.2170 H   0  0  0  0  0  0  0  0  0  0  0  0
   40.4490   27.6540   43.7360 H   0  0  0  0  0  0  0  0  0  0  0  0
   40.1850   26.7700   41.5770 H   0  0  0  0  0  0  0  0  0  0  0  0
   40.6090   28.4060   41.0920 H   0  0  0  0  0  0  0  0  0  0  0  0
   38.8100   27.4390   39.8950 H   0  0  0  0  0  0  0  0  0  0  0  0
   35.4920   28.6910   40.8770 Cl  0  0  0  0  0  0  0  0  0  0  0  0
   36.7790   29.7900   40.5330 C   0  0  0  0  0  0  0  0  0  0  0  0
   38.0370   29.2290   40.5660 C   0  0  0  0  0  0  0  0  0  0  0  0
   39.0970   30.0910   40.2490 C   0  0  0  0  0  0  0  0  0  0  0  0
   40.1770   29.8950   40.2020 H   0  0  0  0  0  0  0  0  0  0  0  0
   38.8490   31.4320   39.9260 C   0  0  0  0  0  3  0  0  0  0  0  0
   37.5660   31.9400   39.9100 C   0  0  0  0  0  0  0  0  0  0  0  0
   37.2080   33.6090   39.5130 Cl  0  0  0  0  0  0  0  0  0  0  0  0
   36.5310   31.0890   40.2220 C   0  0  0  0  0  0  0  0  0  0  0  0
   35.4970   31.4100   40.2310 H   0  0  0  0  0  0  0  0  0  0  0  0
   36.4570   24.9170   40.2850 C   0  0  1  0  0  0  0  0  0  0  0  0
   36.9200   24.5990   41.6190 C   0  0  0  0  0  0  0  0  0  0  0  0
   37.6620   25.6530   40.8510 C   0  0  2  0  0  0  0  0  0  0  0  0
   35.6200   25.6500   40.0860 H   0  0  0  0  0  0  0  0  0  0  0  0
   36.2330   24.9080   42.4480 H   0  0  0  0  0  0  0  0  0  0  0  0
   37.3640   23.6040   41.7980 H   0  0  0  0  0  0  0  0  0  0  0  0
   38.6400   25.3560   40.4350 H   0  0  0  0  0  0  0  0  0  0  0  0
   36.5700   24.4900   37.8110 C   0  0  0  0  0  0  0  0  0  0  0  0
   36.6800   24.0050   39.1440 C   0  0  0  0  0  0  0  0  0  0  0  0
   36.9950   22.6710   39.3180 C   0  0  0  0  0  0  0  0  0  0  0  0
   37.1810   21.9020   38.2080 N   0  0  0  0  0  0  0  0  0  0  0  0
   37.0740   22.3770   36.9520 C   0  0  0  0  0  0  0  0  0  0  0  0
   36.7670   23.6830   36.7350 N   0  0  0  0  0  0  0  0  0  0  0  0
   36.3180   25.5530   37.7360 H   0  0  0  0  0  0  0  0  0  0  0  0
   37.0900   22.2510   40.3120 H   0  0  0  0  0  0  0  0  0  0  0  0
   37.2290   21.7440   36.0870 H   0  0  0  0  0  0  0  0  0  0  0  0
  1  2  1  1  0  0  0
  2  7  1  0  0  0  0
  2  8  1  0  0  0  0
  2  3  1  0  0  0  0
  3 10  1  0  0  0  0
  3  9  1  0  0  0  0
  4 11  1  0  0  0  0
  4  3  1  0  0  0  0
  4 12  1  0  0  0  0
  5  4  1  0  0  0  0
  6 15  1  6  0  0  0
  6  1  1  0  0  0  0
  6  5  1  0  0  0  0
 13  5  1  0  0  0  0
 14  5  1  0  0  0  0
 17 18  1  0  0  0  0
 17 16  1  0  0  0  0
 18  6  1  0  0  0  0
 19 18  2  0  0  0  0
 20 19  1  0  0  0  0
 21 19  1  0  0  0  0
 22 21  2  0  0  0  0
 22 24  1  0  0  0  0
 23 22  1  0  0  0  0
 24 25  1  0  0  0  0
 24 17  2  0  0  0  0
 26 29  1  6  0  0  0
 26 28  1  0  0  0  0
 26 27  1  0  0  0  0
 27 31  1  0  0  0  0
 27 30  1  0  0  0  0
 28 32  1  6  0  0  0
 28  1  1  0  0  0  0
 28 27  1  0  0  0  0
 33 34  1  0  0  0  0
 34 35  2  0  0  0  0
 34 26  1  0  0  0  0
 35 40  1  0  0  0  0
 36 35  1  0  0  0  0
 37 36  2  0  0  0  0
 38 37  1  0  0  0  0
 38 33  2  0  0  0  0
 39 33  1  0  0  0  0
 41 37  1  0  0  0  0
M  END
>  <minimizedAffinity>
-5.18632555

$$$$

 OpenBabel03252506443D

 41 44  0  0  1  0  0  0  0  0999 V2000
   38.9830   28.3530   41.6120 N   0  0  1  0  0  0  0  0  0  0  0  0
   38.8130   28.4910   43.0340 C   0  0  0  0  0  0  0  0  0  0  0  0
   37.9540   27.4660   43.6800 C   0  0  0  0  0  0  0  0  0  0  0  0
   36.5400   27.5740   43.1550 C   0  0  0  0  0  0  0  0  0  0  0  0
   36.5540   27.9670   41.7240 C   0  0  0  0  0  0  0  0  0  0  0  0
   37.8430   27.6550   41.0470 C   0  0  2  0  0  0  0  0  0  0  0  0
   38.3570   29.4880   43.2670 H   0  0  0  0  0  0  0  0  0  0  0  0
   39.8200   28.5470   43.5370 H   0  0  0  0  0  0  0  0  0  0  0  0
   37.8850   27.7790   44.7670 H   0  0  0  0  0  0  0  0  0  0  0  0
   38.3050   26.4430   43.7060 H   0  0  0  0  0  0  0  0  0  0  0  0
   36.0880   26.5520   43.2550 H   0  0  0  0  0  0  0  0  0  0  0  0
   35.8970   28.2260   43.7980 H   0  0  0  0  0  0  0  0  0  0  0  0
   36.4380   29.0810   41.6790 H   0  0  0  0  0  0  0  0  0  0  0  0
   35.7210   27.5730   41.1280 H   0  0  0  0  0  0  0  0  0  0  0  0
   37.7340   28.1830   40.0400 H   0  0  0  0  0  0  0  0  0  0  0  0
   40.7160   26.4010   40.6500 Cl  0  0  0  0  0  0  0  0  0  0  0  0
   39.2420   25.5100   40.5170 C   0  0  0  0  0  0  0  0  0  0  0  0
   38.1000   26.2610   40.6930 C   0  0  0  0  0  0  0  0  0  0  0  0
   36.8880   25.5700   40.5490 C   0  0  0  0  0  0  0  0  0  0  0  0
   35.8540   25.9320   40.6360 H   0  0  0  0  0  0  0  0  0  0  0  0
   36.8830   24.2020   40.2460 C   0  0  0  0  0  3  0  0  0  0  0  0
   38.0590   23.5000   40.0820 C   0  0  0  0  0  0  0  0  0  0  0  0
   38.1010   21.7900   39.7040 Cl  0  0  0  0  0  0  0  0  0  0  0  0
   39.2440   24.1840   40.2250 C   0  0  0  0  0  0  0  0  0  0  0  0
   40.2080   23.7060   40.1110 H   0  0  0  0  0  0  0  0  0  0  0  0
   40.5460   30.3080   40.9650 C   0  0  1  0  0  0  0  0  0  0  0  0
   39.7130   30.6640   42.0940 C   0  0  0  0  0  0  0  0  0  0  0  0
   39.1660   29.6830   41.0980 C   0  0  2  0  0  0  0  0  0  0  0  0
   41.3370   29.5020   41.0180 H   0  0  0  0  0  0  0  0  0  0  0  0
   40.0720   30.2920   43.0870 H   0  0  0  0  0  0  0  0  0  0  0  0
   39.3220   31.6940   42.1530 H   0  0  0  0  0  0  0  0  0  0  0  0
   38.4000   30.0690   40.4030 H   0  0  0  0  0  0  0  0  0  0  0  0
   41.1660   30.7380   38.5680 C   0  0  0  0  0  0  0  0  0  0  0  0
   40.7770   31.2390   39.8410 C   0  0  0  0  0  0  0  0  0  0  0  0
   40.6280   32.6070   39.9750 C   0  0  0  0  0  0  0  0  0  0  0  0
   40.8640   33.3900   38.8840 N   0  0  0  0  0  0  0  0  0  0  0  0
   41.2310   32.8990   37.6860 C   0  0  0  0  0  0  0  0  0  0  0  0
   41.3880   31.5610   37.5100 N   0  0  0  0  0  0  0  0  0  0  0  0
   41.2680   29.6480   38.5230 H   0  0  0  0  0  0  0  0  0  0  0  0
   40.3340   33.0400   40.9230 H   0  0  0  0  0  0  0  0  0  0  0  0
   41.4110   33.5450   36.8350 H   0  0  0  0  0  0  0  0  0  0  0  0
  1  2  1  1  0  0  0
  2  7  1  0  0  0  0
  2  8  1  0  0  0  0
  2  3  1  0  0  0  0
  3 10  1  0  0  0  0
  3  9  1  0  0  0  0
  4 11  1  0  0  0  0
  4  3  1  0  0  0  0
  4 12  1  0  0  0  0
  5  4  1  0  0  0  0
  6 15  1  6  0  0  0
  6  1  1  0  0  0  0
  6  5  1  0  0  0  0
 13  5  1  0  0  0  0
 14  5  1  0  0  0  0
 17 16  1  0  0  0  0
 17 18  1  0  0  0  0
 18  6  1  0  0  0  0
 19 20  1  0  0  0  0
 19 18  2  0  0  0  0
 21 19  1  0  0  0  0
 22 24  1  0  0  0  0
 22 21  2  0  0  0  0
 23 22  1  0  0  0  0
 24 17  2  0  0  0  0
 25 24  1  0  0  0  0
 26 29  1  1  0  0  0
 26 28  1  0  0  0  0
 26 27  1  0  0  0  0
 27 31  1  0  0  0  0
 27 30  1  0  0  0  0
 28 32  1  6  0  0  0
 28  1  1  0  0  0  0
 28 27  1  0  0  0  0
 33 34  1  0  0  0  0
 34 35  2  0  0  0  0
 34 26  1  0  0  0  0
 35 40  1  0  0  0  0
 36 35  1  0  0  0  0
 37 36  2  0  0  0  0
 38 37  1  0  0  0  0
 38 33  2  0  0  0  0
 39 33  1  0  0  0  0
 41 37  1  0  0  0  0
M  END
>  <minimizedAffinity>
-5.17488623

$$$$

 OpenBabel03252506443D

 41 44  0  0  1  0  0  0  0  0999 V2000
   39.4450   28.8920   41.8300 N   0  0  1  0  0  0  0  0  0  0  0  0
   39.6550   27.7020   42.6110 C   0  0  0  0  0  0  0  0  0  0  0  0
   38.4500   26.8650   42.8430 C   0  0  0  0  0  0  0  0  0  0  0  0
   37.4380   27.6360   43.6610 C   0  0  0  0  0  0  0  0  0  0  0  0
   37.4810   29.0750   43.3040 C   0  0  0  0  0  0  0  0  0  0  0  0
   38.0650   29.3240   41.9570 C   0  0  2  0  0  0  0  0  0  0  0  0
   40.0570   27.9760   43.6200 H   0  0  0  0  0  0  0  0  0  0  0  0
   40.4890   27.0910   42.1610 H   0  0  0  0  0  0  0  0  0  0  0  0
   38.7970   26.0280   43.5240 H   0  0  0  0  0  0  0  0  0  0  0  0
   37.9990   26.3670   41.9960 H   0  0  0  0  0  0  0  0  0  0  0  0
   36.4330   27.2170   43.3940 H   0  0  0  0  0  0  0  0  0  0  0  0
   37.5400   27.4370   44.7570 H   0  0  0  0  0  0  0  0  0  0  0  0
   38.1580   29.5850   44.0380 H   0  0  0  0  0  0  0  0  0  0  0  0
   36.5230   29.6020   43.3930 H   0  0  0  0  0  0  0  0  0  0  0  0
   38.1830   30.4600   41.9390 H   0  0  0  0  0  0  0  0  0  0  0  0
   39.1030   28.0090   39.2780 Cl  0  0  0  0  0  0  0  0  0  0  0  0
   37.4560   28.4400   39.5720 C   0  0  0  0  0  0  0  0  0  0  0  0
   37.2290   29.0350   40.7950 C   0  0  0  0  0  0  0  0  0  0  0  0
   35.9070   29.4330   41.0420 C   0  0  0  0  0  0  0  0  0  0  0  0
   35.4700   29.9230   41.9230 H   0  0  0  0  0  0  0  0  0  0  0  0
   34.9110   29.2200   40.0800 C   0  0  0  0  0  3  0  0  0  0  0  0
   35.1970   28.6190   38.8720 C   0  0  0  0  0  0  0  0  0  0  0  0
   33.9840   28.3320   37.6400 Cl  0  0  0  0  0  0  0  0  0  0  0  0
   36.4950   28.2300   38.6360 C   0  0  0  0  0  0  0  0  0  0  0  0
   36.8010   27.7530   37.7140 H   0  0  0  0  0  0  0  0  0  0  0  0
   41.6470   30.2040   41.4950 C   0  0  1  0  0  0  0  0  0  0  0  0
   41.7560   29.2850   42.6070 C   0  0  0  0  0  0  0  0  0  0  0  0
   40.4030   29.8550   42.2980 C   0  0  2  0  0  0  0  0  0  0  0  0
   41.5200   29.8590   40.4260 H   0  0  0  0  0  0  0  0  0  0  0  0
   41.9790   28.2230   42.3290 H   0  0  0  0  0  0  0  0  0  0  0  0
   42.3200   29.6060   43.5000 H   0  0  0  0  0  0  0  0  0  0  0  0
   40.0390   30.6450   42.9780 H   0  0  0  0  0  0  0  0  0  0  0  0
   43.1550   31.9300   42.5260 C   0  0  0  0  0  0  0  0  0  0  0  0
   42.1540   31.5900   41.5740 C   0  0  0  0  0  0  0  0  0  0  0  0
   41.6860   32.5930   40.7460 C   0  0  0  0  0  0  0  0  0  0  0  0
   42.2100   33.8430   40.8910 N   0  0  0  0  0  0  0  0  0  0  0  0
   43.1580   34.1490   41.7960 C   0  0  0  0  0  0  0  0  0  0  0  0
   43.6460   33.1930   42.6300 N   0  0  0  0  0  0  0  0  0  0  0  0
   43.4850   31.0950   43.1530 H   0  0  0  0  0  0  0  0  0  0  0  0
   40.9240   32.3870   40.0050 H   0  0  0  0  0  0  0  0  0  0  0  0
   43.5580   35.1520   41.8890 H   0  0  0  0  0  0  0  0  0  0  0  0
  1  6  1  0  0  0  0
  1 28  1  0  0  0  0
  1  2  1  1  0  0  0
  2  3  1  0  0  0  0
  2  7  1  0  0  0  0
  3  9  1  0  0  0  0
  3  4  1  0  0  0  0
  4 12  1  0  0  0  0
  5 14  1  0  0  0  0
  5  4  1  0  0  0  0
  5 13  1  0  0  0  0
  6 15  1  6  0  0  0
  6  5  1  0  0  0  0
  8  2  1  0  0  0  0
 10  3  1  0  0  0  0
 11  4  1  0  0  0  0
 16 17  1  0  0  0  0
 17 18  1  0  0  0  0
 18 19  2  0  0  0  0
 18  6  1  0  0  0  0
 19 20  1  0  0  0  0
 21 19  1  0  0  0  0
 22 21  2  0  0  0  0
 23 22  1  0  0  0  0
 24 22  1  0  0  0  0
 24 17  2  0  0  0  0
 25 24  1  0  0  0  0
 26 29  1  6  0  0  0
 26 34  1  0  0  0  0
 26 28  1  0  0  0  0
 26 27  1  0  0  0  0
 27 31  1  0  0  0  0
 28 27  1  0  0  0  0
 28 32  1  1  0  0  0
 30 27  1  0  0  0  0
 33 38  1  0  0  0  0
 33 39  1  0  0  0  0
 34 33  2  0  0  0  0
 35 36  2  0  0  0  0
 35 34  1  0  0  0  0
 36 37  1  0  0  0  0
 37 41  1  0  0  0  0
 37 38  2  0  0  0  0
 40 35  1  0  0  0  0
M  END
>  <minimizedAffinity>
-5.16094923

$$$$

 OpenBabel03252506443D

 41 44  0  0  1  0  0  0  0  0999 V2000
   37.1010   28.5490   41.1390 N   0  0  1  0  0  0  0  0  0  0  0  0
   36.3330   27.9370   42.1900 C   0  0  0  0  0  0  0  0  0  0  0  0
   37.1220   27.2580   43.2500 C   0  0  0  0  0  0  0  0  0  0  0  0
   37.8800   26.0910   42.6580 C   0  0  0  0  0  0  0  0  0  0  0  0
   38.3150   26.4110   41.2760 C   0  0  0  0  0  0  0  0  0  0  0  0
   38.3800   27.8750   41.0100 C   0  0  2  0  0  0  0  0  0  0  0  0
   35.6430   27.1670   41.7580 H   0  0  0  0  0  0  0  0  0  0  0  0
   35.6250   28.6930   42.6360 H   0  0  0  0  0  0  0  0  0  0  0  0
   36.3520   26.7870   43.9360 H   0  0  0  0  0  0  0  0  0  0  0  0
   37.7400   27.8630   43.8990 H   0  0  0  0  0  0  0  0  0  0  0  0
   38.7840   25.9420   43.3060 H   0  0  0  0  0  0  0  0  0  0  0  0
   37.3150   25.1300   42.7450 H   0  0  0  0  0  0  0  0  0  0  0  0
   37.5420   25.9990   40.5760 H   0  0  0  0  0  0  0  0  0  0  0  0
   39.2550   25.9380   40.9670 H   0  0  0  0  0  0  0  0  0  0  0  0
   38.5440   27.9190   39.8810 H   0  0  0  0  0  0  0  0  0  0  0  0
   41.3090   26.7250   41.2870 Cl  0  0  0  0  0  0  0  0  0  0  0  0
   40.8510   28.3290   41.7350 C   0  0  0  0  0  0  0  0  0  0  0  0
   39.5130   28.6120   41.5650 C   0  0  0  0  0  0  0  0  0  0  0  0
   39.1060   29.8940   41.9600 C   0  0  0  0  0  0  0  0  0  0  0  0
   38.1120   30.3600   41.9310 H   0  0  0  0  0  0  0  0  0  0  0  0
   40.0340   30.8010   42.4890 C   0  0  0  0  0  3  0  0  0  0  0  0
   41.3640   30.4630   42.6360 C   0  0  0  0  0  0  0  0  0  0  0  0
   42.5590   31.5630   43.2920 Cl  0  0  0  0  0  0  0  0  0  0  0  0
   41.7560   29.2030   42.2460 C   0  0  0  0  0  0  0  0  0  0  0  0
   42.7790   28.8610   42.3300 H   0  0  0  0  0  0  0  0  0  0  0  0
   35.9500   29.7290   39.1480 C   0  0  1  0  0  0  0  0  0  0  0  0
   34.9710   29.1970   40.0700 C   0  0  0  0  0  0  0  0  0  0  0  0
   36.2870   28.4850   39.9560 C   0  0  2  0  0  0  0  0  0  0  0  0
   36.6580   30.5670   39.4220 H   0  0  0  0  0  0  0  0  0  0  0  0
   34.7680   29.8320   40.9700 H   0  0  0  0  0  0  0  0  0  0  0  0
   34.0460   28.7550   39.6570 H   0  0  0  0  0  0  0  0  0  0  0  0
   36.2820   27.5360   39.3930 H   0  0  0  0  0  0  0  0  0  0  0  0
   34.5970   29.0720   37.1350 C   0  0  0  0  0  0  0  0  0  0  0  0
   35.8050   29.5830   37.6840 C   0  0  0  0  0  0  0  0  0  0  0  0
   36.8160   29.9270   36.8060 C   0  0  0  0  0  0  0  0  0  0  0  0
   36.5960   29.7560   35.4720 N   0  0  0  0  0  0  0  0  0  0  0  0
   35.4450   29.2720   34.9670 C   0  0  0  0  0  0  0  0  0  0  0  0
   34.4250   28.9220   35.7940 N   0  0  0  0  0  0  0  0  0  0  0  0
   33.8340   28.8170   37.8770 H   0  0  0  0  0  0  0  0  0  0  0  0
   37.7560   30.3200   37.1740 H   0  0  0  0  0  0  0  0  0  0  0  0
   35.2960   29.1480   33.9010 H   0  0  0  0  0  0  0  0  0  0  0  0
  1  2  1  1  0  0  0
  2  8  1  0  0  0  0
  2  3  1  0  0  0  0
  3 10  1  0  0  0  0
  3  9  1  0  0  0  0
  4 12  1  0  0  0  0
  4  3  1  0  0  0  0
  4 11  1  0  0  0  0
  5  4  1  0  0  0  0
  6 15  1  6  0  0  0
  6  1  1  0  0  0  0
  6  5  1  0  0  0  0
  6 18  1  0  0  0  0
  7  2  1  0  0  0  0
 13  5  1  0  0  0  0
 14  5  1  0  0  0  0
 16 17  1  0  0  0  0
 17 24  1  0  0  0  0
 18 17  2  0  0  0  0
 18 19  1  0  0  0  0
 19 21  2  0  0  0  0
 20 19  1  0  0  0  0
 21 22  1  0  0  0  0
 22 23  1  0  0  0  0
 24 25  1  0  0  0  0
 24 22  2  0  0  0  0
 26 29  1  1  0  0  0
 26 28  1  0  0  0  0
 26 27  1  0  0  0  0
 27 30  1  0  0  0  0
 28 32  1  6  0  0  0
 28 27  1  0  0  0  0
 28  1  1  0  0  0  0
 31 27  1  0  0  0  0
 33 34  1  0  0  0  0
 33 39  1  0  0  0  0
 34 26  1  0  0  0  0
 35 40  1  0  0  0  0
 35 34  2  0  0  0  0
 36 35  1  0  0  0  0
 37 36  2  0  0  0  0
 37 38  1  0  0  0  0
 38 33  2  0  0  0  0
 41 37  1  0  0  0  0
M  END
>  <minimizedAffinity>
-5.15368557

$$$$
