
 OpenBabel03242513143D

 31 33  0  0  0  0  0  0  0  0999 V2000
   44.6030   30.6320   47.2780 Cl  0  0  0  0  0  0  0  0  0  0  0  0
   45.9080   30.1270   46.1810 C   0  0  0  0  0  0  0  0  0  0  0  0
   46.8740   31.0040   45.8410 C   0  0  0  0  0  0  0  0  0  0  0  0
   47.8640   30.5530   45.0100 C   0  0  0  0  0  0  0  0  0  0  0  0
   47.8710   29.2600   44.5410 C   0  0  0  0  0  0  0  0  0  0  0  0
   46.8560   28.3570   44.9020 C   0  0  0  0  0  0  0  0  0  0  0  0
   45.8760   28.8260   45.7340 C   0  0  0  0  0  0  0  0  0  0  0  0
   48.7160   31.0750   44.6390 H   0  0  0  0  0  0  0  0  0  0  0  0
   48.6110   28.8060   43.8760 H   0  0  0  0  0  0  0  0  0  0  0  0
   46.7920   27.3290   44.5750 H   0  0  0  0  0  0  0  0  0  0  0  0
   43.5390   29.0550   43.9500 Cl  0  0  0  0  0  0  0  0  0  0  0  0
   43.6670   28.0030   45.3350 C   0  0  0  0  0  0  0  0  0  0  0  0
   44.7850   27.9250   46.1490 C   0  0  0  0  0  0  0  0  0  0  0  0
   44.8110   27.0660   47.2300 C   0  0  0  0  0  0  0  0  0  0  0  0
   45.7190   27.0870   47.7850 H   0  0  0  0  0  0  0  0  0  0  0  0
   43.7230   26.2740   47.5150 C   0  0  0  0  0  0  0  0  0  0  0  0
   42.6100   26.3570   46.6980 C   0  0  0  0  0  0  0  0  0  0  0  0
   41.2370   25.3490   47.0660 Cl  0  0  0  0  0  0  0  0  0  0  0  0
   42.5490   27.2140   45.5980 C   0  0  0  0  0  0  0  0  0  0  0  0
   41.6460   27.2300   44.9980 H   0  0  0  0  0  0  0  0  0  0  0  0
   46.8330   32.3630   46.3370 C   0  0  0  0  0  0  0  0  0  0  0  0
   47.3960   32.5690   47.4530 O   0  0  0  0  0  0  0  0  0  0  0  0
   44.6310   35.1440   45.5860 C   0  0  0  0  0  0  0  0  0  0  0  0
   44.9280   35.5050   44.2740 C   0  0  0  0  0  0  0  0  0  0  0  0
   45.9230   34.7440   43.6580 C   0  0  0  0  0  0  0  0  0  0  0  0
   46.5190   33.7330   44.3550 N   0  0  0  0  0  0  0  0  0  0  0  0
   46.1920   33.4310   45.6160 C   0  0  0  0  0  0  0  0  0  0  0  0
   45.2430   34.1480   46.2190 N   0  0  0  0  0  0  0  0  0  0  0  0
   43.8610   35.6930   46.1360 H   0  0  0  0  0  0  0  0  0  0  0  0
   44.4090   36.3160   43.8030 H   0  0  0  0  0  0  0  0  0  0  0  0
   46.1900   34.9910   42.6290 H   0  0  0  0  0  0  0  0  0  0  0  0
  2  1  1  0  0  0  0
  3  2  1  0  0  0  0
  3 21  1  0  0  0  0
  4  3  2  0  0  0  0
  5  6  2  0  0  0  0
  5  4  1  0  0  0  0
  6  7  1  0  0  0  0
  7 13  1  0  0  0  0
  7  2  2  0  0  0  0
  8  4  1  0  0  0  0
  9  5  1  0  0  0  0
 10  6  1  0  0  0  0
 11 12  1  0  0  0  0
 12 19  2  0  0  0  0
 12 13  1  0  0  0  0
 13 14  2  0  0  0  0
 14 16  1  0  0  0  0
 14 15  1  0  0  0  0
 17 18  1  0  0  0  0
 17 16  2  0  0  0  0
 19 17  1  0  0  0  0
 20 19  1  0  0  0  0
 21 22  2  0  0  0  0
 23 29  1  0  0  0  0
 23 28  1  0  0  0  0
 24 23  2  0  0  0  0
 25 24  1  0  0  0  0
 25 26  2  0  0  0  0
 26 27  1  0  0  0  0
 27 28  2  0  0  0  0
 27 21  1  0  0  0  0
 30 24  1  0  0  0  0
 31 25  1  0  0  0  0
M  END
>  <minimizedAffinity>
-4.71763897

>  <minimizedRMSD>
2.76162243

$$$$
