
 OpenBabel03252508333D

 33 35  0  0  1  0  0  0  0  0999 V2000
   44.4960   34.1220   42.2940 N   0  0  0  0  0  0  0  0  0  0  0  0
   44.4540   33.3660   41.0960 C   0  0  1  0  0  0  0  0  0  0  0  0
   43.7740   34.0290   39.9530 C   0  0  0  0  0  0  0  0  0  0  0  0
   42.6950   34.8630   40.2400 N   0  0  0  0  0  0  0  0  0  0  0  0
   42.5980   35.4360   41.5120 C   0  0  0  0  0  0  0  0  0  0  0  0
   43.9670   35.4470   42.1730 C   0  0  0  0  0  0  0  0  0  0  0  0
   43.9290   32.4040   41.2980 H   0  0  0  0  0  0  0  0  0  0  0  0
   44.5450   34.6320   39.3880 H   0  0  0  0  0  0  0  0  0  0  0  0
   43.4650   33.2460   39.2090 H   0  0  0  0  0  0  0  0  0  0  0  0
   41.8370   34.7570   39.7010 H   0  0  0  0  0  0  0  0  0  0  0  0
   41.9450   34.7740   42.1480 H   0  0  0  0  0  0  0  0  0  0  0  0
   42.1620   36.4360   41.5880 H   0  0  0  0  0  0  0  0  0  0  0  0
   44.6660   36.0670   41.5380 H   0  0  0  0  0  0  0  0  0  0  0  0
   43.8380   36.0090   43.1000 H   0  0  0  0  0  0  0  0  0  0  0  0
   45.0900   30.4690   40.4560 Cl  0  0  0  0  0  0  0  0  0  0  0  0
   46.2910   31.7320   40.2610 C   0  0  0  0  0  0  0  0  0  0  0  0
   45.8280   32.9980   40.6000 C   0  0  0  0  0  0  0  0  0  0  0  0
   46.7310   34.0550   40.4700 C   0  0  0  0  0  0  0  0  0  0  0  0
   46.5460   35.0950   40.6860 H   0  0  0  0  0  0  0  0  0  0  0  0
   48.0240   33.8520   40.0250 C   0  0  0  0  0  3  0  0  0  0  0  0
   48.4610   32.5870   39.6940 C   0  0  0  0  0  0  0  0  0  0  0  0
   50.0650   32.1890   39.1200 Cl  0  0  0  0  0  0  0  0  0  0  0  0
   47.5660   31.5520   39.8250 C   0  0  0  0  0  0  0  0  0  0  0  0
   47.7640   30.4980   39.6030 H   0  0  0  0  0  0  0  0  0  0  0  0
   45.4310   34.3890   44.4790 C   0  0  0  0  0  0  0  0  0  0  0  0
   45.0450   33.5030   43.4540 C   0  0  0  0  0  0  0  0  0  0  0  0
   45.2250   32.1460   43.6560 C   0  0  0  0  0  0  0  0  0  0  0  0
   45.7630   31.7250   44.8230 N   0  0  0  0  0  0  0  0  0  0  0  0
   46.1300   32.5920   45.8020 C   0  0  0  0  0  0  0  0  0  0  0  0
   45.9610   33.9160   45.6210 N   0  0  0  0  0  0  0  0  0  0  0  0
   45.3720   35.4660   44.5090 H   0  0  0  0  0  0  0  0  0  0  0  0
   44.9180   31.4920   42.8590 H   0  0  0  0  0  0  0  0  0  0  0  0
   46.5440   32.0920   46.6720 H   0  0  0  0  0  0  0  0  0  0  0  0
  1 26  1  0  0  0  0
  2  7  1  1  0  0  0
  2  1  1  0  0  0  0
  3  4  1  0  0  0  0
  3  2  1  0  0  0  0
  4  5  1  0  0  0  0
  5 12  1  0  0  0  0
  5 11  1  0  0  0  0
  5  6  1  0  0  0  0
  6  1  1  0  0  0  0
  6 14  1  0  0  0  0
  8  3  1  0  0  0  0
  9  3  1  0  0  0  0
 10  4  1  0  0  0  0
 13  6  1  0  0  0  0
 16 15  1  0  0  0  0
 16 17  1  0  0  0  0
 17  2  1  0  0  0  0
 18 17  2  0  0  0  0
 18 19  1  0  0  0  0
 20 18  1  0  0  0  0
 21 23  1  0  0  0  0
 21 20  2  0  0  0  0
 22 21  1  0  0  0  0
 23 16  2  0  0  0  0
 24 23  1  0  0  0  0
 25 31  1  0  0  0  0
 25 30  1  0  0  0  0
 26 27  1  0  0  0  0
 26 25  2  0  0  0  0
 27 28  2  0  0  0  0
 28 29  1  0  0  0  0
 29 33  1  0  0  0  0
 30 29  2  0  0  0  0
 32 27  1  0  0  0  0
M  END
>  <minimizedAffinity>
-4.06669474

>  <minimizedRMSD>
1.28809464

$$$$
