
 OpenBabel03242523203D

 38 41  0  0  0  0  0  0  0  0999 V2000
   44.5100   31.8150   42.8880 Cl  0  0  0  0  0  0  0  0  0  0  0  0
   44.5820   33.5760   42.7960 C   0  0  0  0  0  0  0  0  0  0  0  0
   45.4500   34.1940   43.7190 C   0  0  0  0  0  0  0  0  0  0  0  0
   45.4300   35.5700   43.5560 C   0  0  0  0  0  0  0  0  0  0  0  0
   44.7380   36.3240   42.6920 C   0  0  0  0  0  0  0  0  0  0  0  0
   43.9210   35.6470   41.8320 C   0  0  0  0  0  0  0  0  0  0  0  0
   43.8300   34.3020   41.8670 C   0  0  0  0  0  0  0  0  0  0  0  0
   46.0360   36.2130   44.2300 H   0  0  0  0  0  0  0  0  0  0  0  0
   44.7630   37.3990   42.6090 H   0  0  0  0  0  0  0  0  0  0  0  0
   43.2920   36.0900   41.0710 H   0  0  0  0  0  0  0  0  0  0  0  0
   45.3370   33.4150   39.5090 Cl  0  0  0  0  0  0  0  0  0  0  0  0
   43.6580   33.0120   39.8750 C   0  0  0  0  0  0  0  0  0  0  0  0
   42.9830   33.4490   40.9950 C   0  0  0  0  0  0  0  0  0  0  0  0
   41.6690   33.1000   41.2230 C   0  0  0  0  0  0  0  0  0  0  0  0
   41.2360   33.4970   42.1340 H   0  0  0  0  0  0  0  0  0  0  0  0
   41.0410   32.2910   40.2920 C   0  0  0  0  0  3  0  0  0  0  0  0
   41.7290   31.8560   39.1660 C   0  0  0  0  0  0  0  0  0  0  0  0
   40.8640   30.8360   38.0340 Cl  0  0  0  0  0  0  0  0  0  0  0  0
   43.0550   32.2060   38.9310 C   0  0  0  0  0  0  0  0  0  0  0  0
   43.5480   31.8400   38.0370 H   0  0  0  0  0  0  0  0  0  0  0  0
   46.3050   33.5140   44.7330 C   0  0  0  0  0  0  0  0  0  0  0  0
   45.7260   33.8900   45.7230 O   0  0  0  0  0  0  0  0  0  0  0  0
   47.3620   32.7720   44.0330 C   0  0  0  0  0  0  0  0  0  0  0  0
   48.2100   33.2620   43.1190 C   0  0  0  0  0  0  0  0  0  0  0  0
   49.0440   32.3260   42.5400 C   0  0  0  0  0  0  0  0  0  0  0  0
   48.9350   30.9850   42.9490 N   0  0  0  0  0  0  0  0  0  0  0  0
   48.0760   30.5800   43.8570 C   0  0  0  0  0  0  0  0  0  0  0  0
   47.2260   31.4880   44.4550 N   0  0  0  0  0  0  0  0  0  0  0  0
   49.7860   32.5460   41.7840 H   0  0  0  0  0  0  0  0  0  0  0  0
   48.1070   29.5150   44.0740 H   0  0  0  0  0  0  0  0  0  0  0  0
   48.3990   34.6350   42.7950 C   0  0  0  0  0  0  0  0  0  0  0  0
   49.4210   35.2210   42.1160 C   0  0  0  0  0  0  0  0  0  0  0  0
   48.1820   35.0440   41.2780 C   0  0  0  0  0  0  0  0  0  0  0  0
   47.9510   35.3250   43.5330 H   0  0  0  0  0  0  0  0  0  0  0  0
   49.7770   36.2750   42.1380 H   0  0  0  0  0  0  0  0  0  0  0  0
   50.2800   34.5880   41.7390 H   0  0  0  0  0  0  0  0  0  0  0  0
   47.4320   35.8440   41.1930 H   0  0  0  0  0  0  0  0  0  0  0  0
   48.1050   34.1650   40.6140 H   0  0  0  0  0  0  0  0  0  0  0  0
  2  1  1  0  0  0  0
  2  3  1  0  0  0  0
  3 21  1  0  0  0  0
  4  3  2  0  0  0  0
  4  8  1  0  0  0  0
  5  4  1  0  0  0  0
  6  7  1  0  0  0  0
  6  5  2  0  0  0  0
  7  2  2  0  0  0  0
  9  5  1  0  0  0  0
 10  6  1  0  0  0  0
 11 12  1  0  0  0  0
 12 13  1  0  0  0  0
 13 14  2  0  0  0  0
 13  7  1  0  0  0  0
 14 15  1  0  0  0  0
 16 14  1  0  0  0  0
 17 16  2  0  0  0  0
 18 17  1  0  0  0  0
 19 17  1  0  0  0  0
 19 12  2  0  0  0  0
 20 19  1  0  0  0  0
 21 22  2  0  0  0  0
 23 28  1  0  0  0  0
 23 21  1  0  0  0  0
 24 23  2  0  0  0  0
 25 26  2  0  0  0  0
 25 24  1  0  0  0  0
 26 27  1  0  0  0  0
 27 30  1  0  0  0  0
 27 28  2  0  0  0  0
 29 25  1  0  0  0  0
 31 24  1  0  0  0  0
 31 34  1  0  0  0  0
 32 35  1  0  0  0  0
 32 31  1  0  0  0  0
 33 32  1  0  0  0  0
 33 31  1  0  0  0  0
 36 32  1  0  0  0  0
 37 33  1  0  0  0  0
 38 33  1  0  0  0  0
M  END
>  <minimizedAffinity>
-5.74307442

>  <minimizedRMSD>
0.931873024

$$$$
