
 OpenBabel03252502443D

 32 34  0  0  1  0  0  0  0  0999 V2000
   48.9000   34.7830   41.5000 C   0  0  1  0  0  0  0  0  0  0  0  0
   49.9700   34.5620   42.5120 C   0  0  0  0  0  0  0  0  0  0  0  0
   49.1370   33.4350   42.0040 C   0  0  2  0  0  0  0  0  0  0  0  0
   49.1700   35.0740   40.4480 H   0  0  0  0  0  0  0  0  0  0  0  0
   49.9020   34.9460   43.5510 H   0  0  0  0  0  0  0  0  0  0  0  0
   50.9790   34.7820   42.1090 H   0  0  0  0  0  0  0  0  0  0  0  0
   48.5180   32.7440   42.5340 H   0  0  0  0  0  0  0  0  0  0  0  0
   47.8940   32.5670   39.2620 Cl  0  0  0  0  0  0  0  0  0  0  0  0
   49.4840   32.1190   39.8350 C   0  0  0  0  0  0  0  0  0  0  0  0
   49.9190   32.5860   41.0530 C   0  0  0  0  0  0  0  0  0  0  0  0
   51.1640   32.2930   41.5650 C   0  0  0  0  0  0  0  0  0  0  0  0
   51.5820   32.6170   42.5040 H   0  0  0  0  0  0  0  0  0  0  0  0
   52.0510   31.4900   40.8450 C   0  0  0  0  0  3  0  0  0  0  0  0
   51.6240   31.0090   39.6090 C   0  0  0  0  0  0  0  0  0  0  0  0
   52.5760   29.9820   38.5380 Cl  0  0  0  0  0  0  0  0  0  0  0  0
   50.3660   31.3260   39.1310 C   0  0  0  0  0  0  0  0  0  0  0  0
   49.9860   30.9690   38.1610 H   0  0  0  0  0  0  0  0  0  0  0  0
   47.6520   35.4780   41.9560 C   0  0  0  0  0  0  0  0  0  0  0  0
   47.3420   36.2970   41.3090 H   0  0  0  0  0  0  0  0  0  0  0  0
   47.9230   35.8750   42.9850 H   0  0  0  0  0  0  0  0  0  0  0  0
   46.6040   34.3840   42.1230 C   0  0  0  0  0  0  0  0  0  0  0  0
   45.9670   34.2260   41.2660 H   0  0  0  0  0  0  0  0  0  0  0  0
   47.1650   33.4640   42.4770 H   0  0  0  0  0  0  0  0  0  0  0  0
   44.4760   35.9340   44.8040 C   0  0  0  0  0  0  0  0  0  0  0  0
   45.1000   35.7190   43.5440 C   0  0  0  0  0  0  0  0  0  0  0  0
   45.8960   34.6130   43.4150 C   0  0  0  0  0  0  0  0  0  0  0  0
   46.0500   33.7780   44.4800 N   0  0  0  0  0  0  0  0  0  0  0  0
   45.4640   33.9910   45.6450 C   0  0  0  0  0  0  0  0  0  0  0  0
   44.6790   35.0590   45.8170 N   0  0  0  0  0  0  0  0  0  0  0  0
   43.8310   36.7770   45.0080 H   0  0  0  0  0  0  0  0  0  0  0  0
   44.8360   36.4840   42.8390 H   0  0  0  0  0  0  0  0  0  0  0  0
   45.6910   33.2360   46.3800 H   0  0  0  0  0  0  0  0  0  0  0  0
  1  4  1  6  0  0  0
  1 18  1  0  0  0  0
  1  3  1  0  0  0  0
  1  2  1  0  0  0  0
  2  5  1  0  0  0  0
  3  2  1  0  0  0  0
  3  7  1  1  0  0  0
  6  2  1  0  0  0  0
  8  9  1  0  0  0  0
  9 10  1  0  0  0  0
 10 11  2  0  0  0  0
 10  3  1  0  0  0  0
 11 12  1  0  0  0  0
 13 11  1  0  0  0  0
 14 13  2  0  0  0  0
 15 14  1  0  0  0  0
 16 14  1  0  0  0  0
 16  9  2  0  0  0  0
 17 16  1  0  0  0  0
 18 21  1  0  0  0  0
 18 20  1  0  0  0  0
 19 18  1  0  0  0  0
 21 23  1  0  0  0  0
 21 26  1  0  0  0  0
 22 21  1  0  0  0  0
 24 30  1  0  0  0  0
 24 29  1  0  0  0  0
 25 24  2  0  0  0  0
 26 25  1  0  0  0  0
 26 27  2  0  0  0  0
 27 28  1  0  0  0  0
 28 29  2  0  0  0  0
 28 32  1  0  0  0  0
 31 25  1  0  0  0  0
M  END
>  <minimizedAffinity>
-5.08976841

>  <minimizedRMSD>
1.44392705

$$$$
