
 OpenBabel03252506423D

 41 44  0  0  1  0  0  0  0  0999 V2000
   49.2930   33.2670   41.3500 N   0  0  1  0  0  0  0  0  0  0  0  0
   50.5940   33.0370   41.9160 C   0  0  0  0  0  0  0  0  0  0  0  0
   51.2020   31.7150   41.6130 C   0  0  0  0  0  0  0  0  0  0  0  0
   50.3660   30.6130   42.2210 C   0  0  0  0  0  0  0  0  0  0  0  0
   48.9280   30.9760   42.1740 C   0  0  0  0  0  0  0  0  0  0  0  0
   48.6190   31.9990   41.1370 C   0  0  2  0  0  0  0  0  0  0  0  0
   50.5430   33.1190   43.0320 H   0  0  0  0  0  0  0  0  0  0  0  0
   51.2910   33.8760   41.6300 H   0  0  0  0  0  0  0  0  0  0  0  0
   52.1760   31.6960   42.1940 H   0  0  0  0  0  0  0  0  0  0  0  0
   51.4840   31.5010   40.5900 H   0  0  0  0  0  0  0  0  0  0  0  0
   50.5390   29.7010   41.5900 H   0  0  0  0  0  0  0  0  0  0  0  0
   50.7260   30.3190   43.2380 H   0  0  0  0  0  0  0  0  0  0  0  0
   48.6650   31.4390   43.1600 H   0  0  0  0  0  0  0  0  0  0  0  0
   48.2400   30.1270   42.0700 H   0  0  0  0  0  0  0  0  0  0  0  0
   47.5370   32.2770   41.3720 H   0  0  0  0  0  0  0  0  0  0  0  0
   47.7230   29.1230   40.1860 Cl  0  0  0  0  0  0  0  0  0  0  0  0
   48.1910   30.3950   39.1170 C   0  0  0  0  0  0  0  0  0  0  0  0
   48.5800   31.5580   39.7450 C   0  0  0  0  0  0  0  0  0  0  0  0
   49.0040   32.5950   38.9000 C   0  0  0  0  0  0  0  0  0  0  0  0
   49.3610   33.6050   39.1440 H   0  0  0  0  0  0  0  0  0  0  0  0
   49.0160   32.4170   37.5100 C   0  0  0  0  0  3  0  0  0  0  0  0
   48.6130   31.2290   36.9370 C   0  0  0  0  0  0  0  0  0  0  0  0
   48.6100   30.9620   35.2050 Cl  0  0  0  0  0  0  0  0  0  0  0  0
   48.1980   30.2160   37.7690 C   0  0  0  0  0  0  0  0  0  0  0  0
   47.8680   29.2550   37.3990 H   0  0  0  0  0  0  0  0  0  0  0  0
   47.2090   34.6670   41.9670 C   0  0  1  0  0  0  0  0  0  0  0  0
   48.3500   35.5200   41.7150 C   0  0  0  0  0  0  0  0  0  0  0  0
   48.6080   34.1450   42.2580 C   0  0  2  0  0  0  0  0  0  0  0  0
   46.7260   34.0370   41.1630 H   0  0  0  0  0  0  0  0  0  0  0  0
   48.5590   35.7300   40.6350 H   0  0  0  0  0  0  0  0  0  0  0  0
   48.4840   36.4170   42.3450 H   0  0  0  0  0  0  0  0  0  0  0  0
   48.8810   34.0850   43.3250 H   0  0  0  0  0  0  0  0  0  0  0  0
   45.5030   36.0650   43.1710 C   0  0  0  0  0  0  0  0  0  0  0  0
   46.3040   34.8910   43.1140 C   0  0  0  0  0  0  0  0  0  0  0  0
   46.2000   33.9900   44.1570 C   0  0  0  0  0  0  0  0  0  0  0  0
   45.3410   34.2800   45.1750 N   0  0  0  0  0  0  0  0  0  0  0  0
   44.5880   35.3950   45.2140 C   0  0  0  0  0  0  0  0  0  0  0  0
   44.6590   36.3070   44.2090 N   0  0  0  0  0  0  0  0  0  0  0  0
   45.6280   36.7400   42.3190 H   0  0  0  0  0  0  0  0  0  0  0  0
   46.7890   33.0810   44.1620 H   0  0  0  0  0  0  0  0  0  0  0  0
   43.9120   35.6000   46.0350 H   0  0  0  0  0  0  0  0  0  0  0  0
  1  2  1  1  0  0  0
  1 28  1  0  0  0  0
  2  7  1  0  0  0  0
  3  2  1  0  0  0  0
  3  9  1  0  0  0  0
  3  4  1  0  0  0  0
  4 12  1  0  0  0  0
  5  4  1  0  0  0  0
  5 13  1  0  0  0  0
  6  1  1  0  0  0  0
  6 15  1  1  0  0  0
  6  5  1  0  0  0  0
  8  2  1  0  0  0  0
 10  3  1  0  0  0  0
 11  4  1  0  0  0  0
 14  5  1  0  0  0  0
 17 18  1  0  0  0  0
 17 16  1  0  0  0  0
 18  6  1  0  0  0  0
 19 20  1  0  0  0  0
 19 18  2  0  0  0  0
 21 19  1  0  0  0  0
 22 21  2  0  0  0  0
 22 24  1  0  0  0  0
 23 22  1  0  0  0  0
 24 17  2  0  0  0  0
 25 24  1  0  0  0  0
 26 29  1  6  0  0  0
 26 28  1  0  0  0  0
 26 34  1  0  0  0  0
 27 26  1  0  0  0  0
 27 28  1  0  0  0  0
 27 31  1  0  0  0  0
 28 32  1  1  0  0  0
 30 27  1  0  0  0  0
 33 38  1  0  0  0  0
 34 33  2  0  0  0  0
 34 35  1  0  0  0  0
 35 40  1  0  0  0  0
 35 36  2  0  0  0  0
 36 37  1  0  0  0  0
 37 41  1  0  0  0  0
 38 37  2  0  0  0  0
 39 33  1  0  0  0  0
M  END
>  <minimizedAffinity>
-5.03146696

>  <minimizedRMSD>
0.567172945

$$$$
