
 OpenBabel03252508253D

 42 46  0  0  1  0  0  0  0  0999 V2000
   46.2060   32.1620   46.2970 C   0  0  1  0  0  0  0  0  0  0  0  0
   46.2140   32.2220   47.7670 C   0  0  0  0  0  0  0  0  0  0  0  0
   45.1480   31.4020   46.9340 C   0  0  2  0  0  0  0  0  0  0  0  0
   47.2420   31.7530   46.0130 H   0  0  0  0  0  0  0  0  0  0  0  0
   46.7790   31.5310   48.4140 H   0  0  0  0  0  0  0  0  0  0  0  0
   45.8560   33.1060   48.3190 H   0  0  0  0  0  0  0  0  0  0  0  0
   44.1870   31.8660   47.3170 H   0  0  0  0  0  0  0  0  0  0  0  0
   45.1110   29.9420   47.0490 C   0  0  0  0  0  0  0  0  0  0  0  0
   45.1700   29.2020   48.1900 C   0  0  0  0  0  0  0  0  0  0  0  0
   45.2590   27.8180   48.2570 C   0  0  0  0  0  0  0  0  0  0  0  0
   45.2890   27.1360   47.0260 C   0  0  0  0  0  0  0  0  0  0  0  0
   45.2270   27.8680   45.8380 C   0  0  0  0  0  0  0  0  0  0  0  0
   45.2020   27.1510   44.6550 C   0  0  0  0  0  0  0  0  0  0  0  0
   45.0760   27.8370   43.4600 C   0  0  0  0  0  0  0  0  0  0  0  0
   44.9720   29.2140   43.4440 C   0  0  0  0  0  0  0  0  0  0  0  0
   45.0040   29.8760   44.6470 C   0  0  0  0  0  0  0  0  0  0  0  0
   45.1370   29.2410   45.8660 C   0  0  0  0  0  0  0  0  0  0  0  0
   45.1440   29.7650   49.1130 H   0  0  0  0  0  0  0  0  0  0  0  0
   45.3010   27.3040   49.1950 H   0  0  0  0  0  0  0  0  0  0  0  0
   45.3610   26.0760   47.1040 H   0  0  0  0  0  0  0  0  0  0  0  0
   45.2840   26.0680   44.7050 H   0  0  0  0  0  0  0  0  0  0  0  0
   45.0710   27.1630   42.5880 H   0  0  0  0  0  0  0  0  0  0  0  0
   44.8790   29.5540   42.4320 H   0  0  0  0  0  0  0  0  0  0  0  0
   44.8250   30.8790   44.3830 H   0  0  0  0  0  0  0  0  0  0  0  0
   44.7460   35.3870   45.2660 C   0  0  0  0  0  0  0  0  0  0  0  0
   45.2070   35.5150   43.9110 C   0  0  0  0  0  0  0  0  0  0  0  0
   46.0100   34.4820   43.4020 C   0  0  0  0  0  0  0  0  0  0  0  0
   46.2990   33.4480   44.1970 N   0  0  0  0  0  0  0  0  0  0  0  0
   45.8510   33.3530   45.4770 C   0  0  0  0  0  0  0  0  0  0  0  0
   45.0890   34.3060   45.9970 N   0  0  0  0  0  0  0  0  0  0  0  0
   44.1310   36.1700   45.6690 H   0  0  0  0  0  0  0  0  0  0  0  0
   44.9560   36.3680   43.3390 H   0  0  0  0  0  0  0  0  0  0  0  0
   44.7360   32.8130   41.0400 Cl  0  0  0  0  0  0  0  0  0  0  0  0
   46.1770   33.7830   40.9570 C   0  0  0  0  0  0  0  0  0  0  0  0
   46.5800   34.4350   42.0940 C   0  0  0  0  0  0  0  0  0  0  0  0
   47.7590   35.1300   41.8660 C   0  0  0  0  0  0  0  0  0  0  0  0
   48.2600   35.7250   42.6480 H   0  0  0  0  0  0  0  0  0  0  0  0
   48.4430   35.1730   40.6720 C   0  0  0  0  0  3  0  0  0  0  0  0
   47.9550   34.4860   39.5870 C   0  0  0  0  0  0  0  0  0  0  0  0
   48.8160   34.5360   38.0650 Cl  0  0  0  0  0  0  0  0  0  0  0  0
   46.7900   33.7730   39.7400 C   0  0  0  0  0  0  0  0  0  0  0  0
   46.4260   33.2450   38.8860 H   0  0  0  0  0  0  0  0  0  0  0  0
  1  4  1  6  0  0  0
  1  3  1  0  0  0  0
  1  2  1  0  0  0  0
  2  6  1  0  0  0  0
  2  5  1  0  0  0  0
  3  8  1  0  0  0  0
  3  7  1  6  0  0  0
  3  2  1  0  0  0  0
  8  9  1  0  0  0  0
  9 10  2  0  0  0  0
  9 18  1  0  0  0  0
 10 19  1  0  0  0  0
 11 20  1  0  0  0  0
 11 10  1  0  0  0  0
 12 17  1  0  0  0  0
 12 11  2  0  0  0  0
 13 21  1  0  0  0  0
 13 12  1  0  0  0  0
 14 13  2  0  0  0  0
 15 14  1  0  0  0  0
 15 16  2  0  0  0  0
 16 17  1  0  0  0  0
 17  8  2  0  0  0  0
 22 14  1  0  0  0  0
 23 15  1  0  0  0  0
 24 16  1  0  0  0  0
 25 31  1  0  0  0  0
 25 30  1  0  0  0  0
 26 25  2  0  0  0  0
 27 26  1  0  0  0  0
 27 28  2  0  0  0  0
 28 29  1  0  0  0  0
 29 30  2  0  0  0  0
 29  1  1  0  0  0  0
 32 26  1  0  0  0  0
 34 33  1  0  0  0  0
 34 35  1  0  0  0  0
 35 27  1  0  0  0  0
 36 35  2  0  0  0  0
 36 37  1  0  0  0  0
 38 36  1  0  0  0  0
 39 41  1  0  0  0  0
 39 38  2  0  0  0  0
 40 39  1  0  0  0  0
 41 34  2  0  0  0  0
 42 41  1  0  0  0  0
M  END
>  <minimizedAffinity>
-5.9173584

>  <minimizedRMSD>
0.993729949

$$$$
