
 OpenBabel03242523543D

 46 49  0  0  1  0  0  0  0  0999 V2000
   42.8140   34.5190   38.7390 C   0  0  1  0  0  0  0  0  0  0  0  0
   42.9660   35.1750   40.1020 C   0  0  1  0  0  0  0  0  0  0  0  0
   41.6740   35.4010   40.6260 O   0  0  0  0  0  0  0  0  0  0  0  0
   40.7470   35.7490   39.6410 C   0  0  0  0  0  0  0  0  0  0  0  0
   40.4350   34.5890   38.7150 C   0  0  2  0  0  0  0  0  0  0  0  0
   41.6440   33.5990   38.8450 C   0  0  1  0  0  0  0  0  0  0  0  0
   43.7530   34.0060   38.4420 H   0  0  0  0  0  0  0  0  0  0  0  0
   43.5540   36.1000   40.0770 H   0  0  0  0  0  0  0  0  0  0  0  0
   41.0520   36.6540   39.0790 H   0  0  0  0  0  0  0  0  0  0  0  0
   39.8230   35.9810   40.1860 H   0  0  0  0  0  0  0  0  0  0  0  0
   39.5080   34.0470   38.9850 H   0  0  0  0  0  0  0  0  0  0  0  0
   41.4300   33.3370   39.9320 H   0  0  0  0  0  0  0  0  0  0  0  0
   42.6000   35.4840   37.7420 O   0  0  0  0  0  0  0  0  0  0  0  0
   43.2340   36.2360   37.8540 H   0  0  0  0  0  0  0  0  0  0  0  0
   40.4540   35.0160   37.3990 O   0  0  0  0  0  0  0  0  0  0  0  0
   39.6140   35.4910   37.2040 H   0  0  0  0  0  0  0  0  0  0  0  0
   43.4930   34.1780   40.9360 O   0  0  0  0  0  0  0  0  0  0  0  0
   44.5950   34.3100   41.6830 C   0  0  0  0  0  0  0  0  0  0  0  0
   45.8600   34.4320   41.0880 C   0  0  0  0  0  0  0  0  0  0  0  0
   46.9710   34.5670   41.9010 C   0  0  0  0  0  0  0  0  0  0  0  0
   46.8030   34.5790   43.2730 N   0  0  0  0  0  0  0  0  0  0  0  0
   45.5680   34.4590   43.8150 C   0  0  0  0  0  0  0  0  0  0  0  0
   44.4740   34.3250   43.0210 N   0  0  0  0  0  0  0  0  0  0  0  0
   45.9990   34.4230   40.0060 H   0  0  0  0  0  0  0  0  0  0  0  0
   45.4830   34.4720   44.8910 H   0  0  0  0  0  0  0  0  0  0  0  0
   48.3520   34.6790   41.3340 C   0  0  0  0  0  0  0  0  0  0  0  0
   49.0610   36.0180   41.5220 C   0  0  0  0  0  0  0  0  0  0  0  0
   49.4960   34.7000   42.1900 C   0  0  0  0  0  0  0  0  0  0  0  0
   48.4270   34.2410   40.3040 H   0  0  0  0  0  0  0  0  0  0  0  0
   49.7240   36.3020   40.6820 H   0  0  0  0  0  0  0  0  0  0  0  0
   48.5620   36.7820   42.1330 H   0  0  0  0  0  0  0  0  0  0  0  0
   50.4860   34.2970   41.9430 H   0  0  0  0  0  0  0  0  0  0  0  0
   49.3200   34.7190   43.2970 H   0  0  0  0  0  0  0  0  0  0  0  0
   41.5050   32.6600   37.8940 O   0  0  0  0  0  0  0  0  0  0  0  0
   40.8750   31.4820   37.8910 C   0  0  0  0  0  0  0  0  0  0  0  0
   39.6090   31.3840   37.4920 O   0  0  0  0  0  0  0  0  0  0  0  0
   42.3050   29.8200   35.8030 Cl  0  0  0  0  0  0  0  0  0  0  0  0
   41.9850   29.2240   37.4310 C   0  0  0  0  0  0  0  0  0  0  0  0
   41.3190   30.0880   38.2710 C   0  0  0  0  0  0  0  0  0  0  0  0
   41.1080   29.5510   39.5140 C   0  0  0  0  0  0  0  0  0  0  0  0
   40.5930   30.1210   40.2850 H   0  0  0  0  0  0  0  0  0  0  0  0
   41.5120   28.3050   39.8740 C   0  0  0  0  0  3  0  0  0  0  0  0
   42.1670   27.5100   38.9840 C   0  0  0  0  0  0  0  0  0  0  0  0
   42.6830   25.9160   39.4480 Cl  0  0  0  0  0  0  0  0  0  0  0  0
   42.4280   27.9560   37.7080 C   0  0  0  0  0  0  0  0  0  0  0  0
   42.9360   27.3720   36.9740 H   0  0  0  0  0  0  0  0  0  0  0  0
  1  7  1  6  0  0  0
  1  6  1  0  0  0  0
  1  2  1  0  0  0  0
  2  8  1  6  0  0  0
  2  3  1  0  0  0  0
  2 17  1  0  0  0  0
  4 10  1  0  0  0  0
  4  3  1  0  0  0  0
  5  6  1  0  0  0  0
  5 11  1  1  0  0  0
  5  4  1  0  0  0  0
  6 12  1  1  0  0  0
  9  4  1  0  0  0  0
 13 14  1  0  0  0  0
 13  1  1  0  0  0  0
 15  5  1  0  0  0  0
 16 15  1  0  0  0  0
 17 18  1  0  0  0  0
 18 23  1  0  0  0  0
 19 18  2  0  0  0  0
 19 20  1  0  0  0  0
 20 21  2  0  0  0  0
 21 22  1  0  0  0  0
 22 25  1  0  0  0  0
 23 22  2  0  0  0  0
 24 19  1  0  0  0  0
 26 27  1  0  0  0  0
 26 20  1  0  0  0  0
 26 28  1  0  0  0  0
 27 31  1  0  0  0  0
 27 28  1  0  0  0  0
 28 33  1  0  0  0  0
 29 26  1  0  0  0  0
 30 27  1  0  0  0  0
 32 28  1  0  0  0  0
 34  6  1  0  0  0  0
 35 34  1  0  0  0  0
 35 39  1  0  0  0  0
 36 35  2  0  0  0  0
 37 38  1  0  0  0  0
 38 45  2  0  0  0  0
 38 39  1  0  0  0  0
 39 40  2  0  0  0  0
 40 42  1  0  0  0  0
 40 41  1  0  0  0  0
 43 44  1  0  0  0  0
 43 42  2  0  0  0  0
 45 43  1  0  0  0  0
 46 45  1  0  0  0  0
M  END
>  <minimizedAffinity>
-5.7575326

>  <minimizedRMSD>
0.107990354

$$$$
