
 OpenBabel03242510063D

 19 20  0  0  0  0  0  0  0  0999 V2000
   44.9660   36.0060   43.2780 Cl  0  0  0  0  0  0  0  0  0  0  0  0
   45.6770   34.6880   44.1570 C   0  0  0  0  0  0  0  0  0  0  0  0
   46.6910   33.9540   43.6090 C   0  0  0  0  0  0  0  0  0  0  0  0
   47.1850   32.9300   44.3900 C   0  0  0  0  0  0  0  0  0  0  0  0
   47.9970   32.3360   43.9630 H   0  0  0  0  0  0  0  0  0  0  0  0
   46.7360   32.6040   45.6520 C   0  0  0  0  0  0  0  0  0  0  0  0
   45.7100   33.3690   46.1720 C   0  0  0  0  0  0  0  0  0  0  0  0
   45.1710   32.9210   47.7790 Cl  0  0  0  0  0  0  0  0  0  0  0  0
   45.1800   34.4070   45.4320 C   0  0  0  0  0  0  0  0  0  0  0  0
   44.3870   34.9630   45.8870 H   0  0  0  0  0  0  0  0  0  0  0  0
   48.7600   35.4040   40.9660 C   0  0  0  0  0  0  0  0  0  0  0  0
   48.2670   34.7930   39.8040 C   0  0  0  0  0  0  0  0  0  0  0  0
   47.2080   33.8670   39.9330 C   0  0  0  0  0  0  0  0  0  0  0  0
   46.7340   33.6310   41.1820 N   0  0  0  0  0  0  0  0  0  0  0  0
   47.2250   34.2320   42.2800 C   0  0  0  0  0  0  0  0  0  0  0  0
   48.2430   35.1220   42.1760 N   0  0  0  0  0  0  0  0  0  0  0  0
   49.5710   36.1270   40.9600 H   0  0  0  0  0  0  0  0  0  0  0  0
   48.7050   35.0420   38.8560 H   0  0  0  0  0  0  0  0  0  0  0  0
   46.8160   33.3850   39.0500 H   0  0  0  0  0  0  0  0  0  0  0  0
  1  2  1  0  0  0  0
  2  9  1  0  0  0  0
  3  2  2  0  0  0  0
  3  4  1  0  0  0  0
  4  6  2  0  0  0  0
  5  4  1  0  0  0  0
  6  7  1  0  0  0  0
  7  8  1  0  0  0  0
  9 10  1  0  0  0  0
  9  7  2  0  0  0  0
 11 16  1  0  0  0  0
 12 13  1  0  0  0  0
 12 11  2  0  0  0  0
 13 14  2  0  0  0  0
 14 15  1  0  0  0  0
 15  3  1  0  0  0  0
 16 15  2  0  0  0  0
 17 11  1  0  0  0  0
 18 12  1  0  0  0  0
 19 13  1  0  0  0  0
M  END
>  <minimizedAffinity>
-4.72699022

>  <minimizedRMSD>
3.95936704

$$$$
