
     RDKit          3D

 43 47  0  0  0  0  0  0  0  0999 V2000
   46.3823   32.6657   45.8657 C   0  0  1  0  0  0  0  0  0  0  0  0
   46.9719   32.8359   47.2032 C   0  0  0  0  0  0  0  0  0  0  0  0
   45.5419   32.2067   46.9554 C   0  0  2  0  0  0  0  0  0  0  0  0
   45.3013   30.8038   47.3004 C   0  0  0  0  0  0  0  0  0  0  0  0
   45.1755   30.2696   48.5459 C   0  0  0  0  0  0  0  0  0  0  0  0
   45.0727   28.9175   48.8451 C   0  0  0  0  0  0  0  0  0  0  0  0
   45.1039   28.0347   47.7488 C   0  0  0  0  0  0  0  0  0  0  0  0
   45.2290   28.5529   46.4584 C   0  0  0  0  0  0  0  0  0  0  0  0
   45.1969   27.6507   45.4092 C   0  0  0  0  0  0  0  0  0  0  0  0
   45.2526   28.1315   44.1116 C   0  0  0  0  0  0  0  0  0  0  0  0
   45.3360   29.4874   43.8640 C   0  0  0  0  0  0  0  0  0  0  0  0
   45.3659   30.3383   44.9422 C   0  0  0  0  0  0  0  0  0  0  0  0
   45.3218   29.9111   46.2553 C   0  0  0  0  0  0  0  0  0  0  0  0
   44.6235   35.7356   44.8272 C   0  0  0  0  0  0  0  0  0  0  0  0
   45.1626   35.9724   43.5162 C   0  0  0  0  0  0  0  0  0  0  0  0
   46.1186   35.0617   43.0389 C   0  0  0  0  0  0  0  0  0  0  0  0
   46.4722   34.0383   43.8212 N   0  0  0  0  0  0  0  0  0  0  0  0
   45.9470   33.8389   45.0590 C   0  0  0  0  0  0  0  0  0  0  0  0
   45.0393   34.6743   45.5485 N   0  0  0  0  0  0  0  0  0  0  0  0
   47.1384   32.0198   45.2902 H   0  0  0  0  0  0  0  0  0  0  0  0
   47.6161   32.0911   47.6969 H   0  0  0  0  0  0  0  0  0  0  0  0
   47.0155   33.8168   47.7036 H   0  0  0  0  0  0  0  0  0  0  0  0
   44.9014   32.8984   47.5859 H   0  0  0  0  0  0  0  0  0  0  0  0
   45.1563   30.9834   49.3589 H   0  0  0  0  0  0  0  0  0  0  0  0
   44.9757   28.5734   49.8531 H   0  0  0  0  0  0  0  0  0  0  0  0
   45.0266   27.0043   48.0038 H   0  0  0  0  0  0  0  0  0  0  0  0
   45.1286   26.5909   45.6409 H   0  0  0  0  0  0  0  0  0  0  0  0
   45.2228   27.3224   43.3638 H   0  0  0  0  0  0  0  0  0  0  0  0
   45.3652   29.6549   42.8057 H   0  0  0  0  0  0  0  0  0  0  0  0
   45.3431   31.2938   44.5028 H   0  0  0  0  0  0  0  0  0  0  0  0
   43.8896   36.4236   45.2045 H   0  0  0  0  0  0  0  0  0  0  0  0
   44.8534   36.8115   42.9526 H   0  0  0  0  0  0  0  0  0  0  0  0
   49.2632   35.2308   42.7756 Cl  0  0  0  0  0  0  0  0  0  0  0  0
   48.1185   35.2070   41.4657 C   0  0  0  0  0  0  0  0  0  0  0  0
   46.7853   35.1353   41.7784 C   0  0  0  0  0  0  0  0  0  0  0  0
   46.0134   35.1614   40.6264 C   0  0  0  0  0  0  0  0  0  0  0  0
   44.9111   35.1144   40.6478 H   0  0  0  0  0  0  0  0  0  0  0  0
   46.4981   35.2458   39.3406 C   0  0  0  0  0  0  0  0  0  0  0  0
   47.8549   35.3123   39.1305 C   0  0  0  0  0  0  0  0  0  0  0  0
   48.4813   35.4188   37.5025 Cl  0  0  0  0  0  0  0  0  0  0  0  0
   48.6824   35.2919   40.2284 C   0  0  0  0  0  0  0  0  0  0  0  0
   49.7343   35.3444   40.0466 H   0  0  0  0  0  0  0  0  0  0  0  0
   45.8702   35.2621   38.4838 H   0  0  0  0  0  0  0  0  0  0  0  0
  1  3  1  0
  1  2  1  0
  3  2  1  0
  3  4  1  0
  4  5  2  0
  5  6  1  0
  7  6  2  0
  8  7  1  0
  9  8  2  0
 10  9  1  0
 11 10  2  0
 11 12  1  0
 12 13  2  0
 13  8  1  0
 13  4  1  0
 14 19  2  0
 15 14  1  0
 16 15  2  0
 16 17  1  0
 17 18  2  0
 18 19  1  0
 18  1  1  0
  1 20  1  6
  2 21  1  0
  2 22  1  0
  3 23  1  1
  5 24  1  0
  6 25  1  0
  7 26  1  0
  9 27  1  0
 10 28  1  0
 11 29  1  0
 12 30  1  0
 14 31  1  0
 15 32  1  0
 33 34  1  0
 34 35  2  0
 35 36  1  0
 36 37  1  0
 36 38  2  0
 38 39  1  0
 39 40  1  0
 39 41  2  0
 41 42  1  0
 41 34  1  0
 38 43  1  0
 16 35  1  0
M  ISO  8  20  13  21  13  22  13  23  13  24  14  25  14  26  14  27  14
M  ISO  7  28  14  29  14  30  14  31  14  32  14  37  16  42  15
M  END
>  <DihAtoms>  (1) 
14,15,34,33

>  <DihDeg>  (1) 
-13.30732135761524

$$$$
