
 OpenBabel03242513303D

 38 41  0  0  0  0  0  0  0  0999 V2000
   46.4310   33.5980   41.1850 C   0  0  0  0  0  0  0  0  0  0  0  0
   46.8060   34.6060   42.0510 C   0  0  0  0  0  0  0  0  0  0  0  0
   47.8680   35.3780   41.6720 C   0  0  0  0  0  0  0  0  0  0  0  0
   48.5470   35.1700   40.4770 C   0  0  0  0  0  0  0  0  0  0  0  0
   48.1480   34.1530   39.6320 C   0  0  0  0  0  0  0  0  0  0  0  0
   47.0710   33.3440   39.9810 C   0  0  0  0  0  0  0  0  0  0  0  0
   48.1670   36.1720   42.3490 H   0  0  0  0  0  0  0  0  0  0  0  0
   49.3770   35.8470   40.2790 H   0  0  0  0  0  0  0  0  0  0  0  0
   48.6850   34.0070   38.7110 H   0  0  0  0  0  0  0  0  0  0  0  0
   44.5170   35.9410   44.7180 C   0  0  0  0  0  0  0  0  0  0  0  0
   45.2080   35.8180   43.5020 C   0  0  0  0  0  0  0  0  0  0  0  0
   46.0730   34.7800   43.2760 C   0  0  0  0  0  0  0  0  0  0  0  0
   46.1920   33.9050   44.3150 N   0  0  0  0  0  0  0  0  0  0  0  0
   45.5400   34.0110   45.4760 C   0  0  0  0  0  0  0  0  0  0  0  0
   44.6950   35.0390   45.6750 N   0  0  0  0  0  0  0  0  0  0  0  0
   43.8330   36.7570   44.9040 H   0  0  0  0  0  0  0  0  0  0  0  0
   45.0420   36.5700   42.7380 H   0  0  0  0  0  0  0  0  0  0  0  0
   45.7870   33.1980   46.1680 H   0  0  0  0  0  0  0  0  0  0  0  0
   45.3600   32.7830   41.5180 O   0  0  0  0  0  0  0  0  0  0  0  0
   44.7090   32.5440   40.7730 H   0  0  0  0  0  0  0  0  0  0  0  0
   46.6450   32.3260   39.1710 O   0  0  0  0  0  0  0  0  0  0  0  0
   46.6090   32.3490   37.8130 C   0  0  0  0  0  0  0  0  0  0  0  0
   45.6120   32.7260   36.9400 C   0  0  0  0  0  0  0  0  0  0  0  0
   45.8460   32.6480   35.6080 C   0  0  0  0  0  0  0  0  0  0  0  0
   47.1180   32.1760   35.2050 C   0  0  0  0  0  0  0  0  0  0  0  0
   47.9690   31.8480   36.7600 S   0  0  0  0  0  0  0  0  0  0  0  0
   44.6960   33.0660   37.3500 H   0  0  0  0  0  0  0  0  0  0  0  0
   45.1500   32.9130   34.8240 H   0  0  0  0  0  0  0  0  0  0  0  0
   46.4390   29.5080   34.0460 Cl  0  0  0  0  0  0  0  0  0  0  0  0
   47.4010   30.7590   33.2890 C   0  0  0  0  0  0  0  0  0  0  0  0
   47.6830   31.9740   33.8710 C   0  0  0  0  0  0  0  0  0  0  0  0
   48.4110   33.0010   33.3750 C   0  0  0  0  0  0  0  0  0  0  0  0
   48.5890   33.9300   33.8960 H   0  0  0  0  0  0  0  0  0  0  0  0
   48.9500   32.8020   32.0970 C   0  0  0  0  0  0  0  0  0  0  0  0
   48.7120   31.5940   31.4330 C   0  0  0  0  0  0  0  0  0  0  0  0
   49.3800   31.3210   29.8210 Cl  0  0  0  0  0  0  0  0  0  0  0  0
   47.9490   30.5810   32.0130 C   0  0  0  0  0  0  0  0  0  0  0  0
   47.7550   29.6420   31.5140 H   0  0  0  0  0  0  0  0  0  0  0  0
  1 19  1  0  0  0  0
  1  2  1  0  0  0  0
  2 12  1  0  0  0  0
  3  2  2  0  0  0  0
  3  7  1  0  0  0  0
  4  3  1  0  0  0  0
  5  6  1  0  0  0  0
  5  4  2  0  0  0  0
  6  1  2  0  0  0  0
  8  4  1  0  0  0  0
  9  5  1  0  0  0  0
 10 16  1  0  0  0  0
 10 15  1  0  0  0  0
 11 10  2  0  0  0  0
 12 11  1  0  0  0  0
 12 13  2  0  0  0  0
 13 14  1  0  0  0  0
 14 15  2  0  0  0  0
 14 18  1  0  0  0  0
 17 11  1  0  0  0  0
 20 19  1  0  0  0  0
 21  6  1  0  0  0  0
 22 21  1  0  0  0  0
 23 27  1  0  0  0  0
 23 22  2  0  0  0  0
 24 23  1  0  0  0  0
 25 24  2  0  0  0  0
 25 26  1  0  0  0  0
 26 22  1  0  0  0  0
 28 24  1  0  0  0  0
 30 31  1  0  0  0  0
 30 29  1  0  0  0  0
 31 25  1  0  0  0  0
 32 31  2  0  0  0  0
 32 33  1  0  0  0  0
 34 32  1  0  0  0  0
 35 37  1  0  0  0  0
 35 34  2  0  0  0  0
 36 35  1  0  0  0  0
 37 30  2  0  0  0  0
 38 37  1  0  0  0  0
M  END
>  <minimizedAffinity>
-6.78157425

>  <minimizedRMSD>
0.781491637

$$$$
