
 OpenBabel03252504493D

 25 26  0  0  0  0  0  0  0  0999 V2000
   45.0220   33.4820   43.4900 C   0  0  0  0  0  0  0  0  0  0  0  0
   45.7390   34.5530   42.9560 C   0  0  0  0  0  0  0  0  0  0  0  0
   47.1310   34.4290   42.9350 C   0  0  0  0  0  0  0  0  0  0  0  0
   47.6900   33.2870   43.4280 N   0  0  0  0  0  0  0  0  0  0  0  0
   46.9610   32.2830   43.9320 C   0  0  0  0  0  0  0  0  0  0  0  0
   45.6190   32.3790   43.9640 N   0  0  0  0  0  0  0  0  0  0  0  0
   43.9260   33.5030   43.5430 H   0  0  0  0  0  0  0  0  0  0  0  0
   47.6770   35.2480   42.5270 H   0  0  0  0  0  0  0  0  0  0  0  0
   46.4840   31.6900   46.8880 Cl  0  0  0  0  0  0  0  0  0  0  0  0
   47.4660   30.7360   45.7750 C   0  0  0  0  0  0  0  0  0  0  0  0
   47.6230   31.0860   44.4440 C   0  0  0  0  0  0  0  0  0  0  0  0
   48.3980   30.3240   43.5910 C   0  0  0  0  0  0  0  0  0  0  0  0
   48.5270   30.5950   42.5350 H   0  0  0  0  0  0  0  0  0  0  0  0
   49.0240   29.1870   44.0880 C   0  0  0  0  0  3  0  0  0  0  0  0
   48.8440   28.8720   45.4170 C   0  0  0  0  0  0  0  0  0  0  0  0
   49.6480   27.4340   46.0110 Cl  0  0  0  0  0  0  0  0  0  0  0  0
   48.0790   29.6130   46.2910 C   0  0  0  0  0  0  0  0  0  0  0  0
   47.9530   29.3430   47.3280 H   0  0  0  0  0  0  0  0  0  0  0  0
   45.0260   35.7110   42.4640 C   0  0  0  0  0  0  0  0  0  0  0  0
   45.5030   36.0950   41.5250 H   0  0  0  0  0  0  0  0  0  0  0  0
   43.9650   35.4970   42.3410 H   0  0  0  0  0  0  0  0  0  0  0  0
   45.1540   36.8290   43.4830 C   0  0  0  0  0  0  0  0  0  0  0  0
   46.0940   37.3920   43.3510 H   0  0  0  0  0  0  0  0  0  0  0  0
   44.2840   37.4910   43.3410 H   0  0  0  0  0  0  0  0  0  0  0  0
   45.0930   36.3970   44.5050 H   0  0  0  0  0  0  0  0  0  0  0  0
  1  7  1  0  0  0  0
  1  6  1  0  0  0  0
  2  1  2  0  0  0  0
  3  2  1  0  0  0  0
  3  4  2  0  0  0  0
  4  5  1  0  0  0  0
  5  6  2  0  0  0  0
  5 11  1  0  0  0  0
  8  3  1  0  0  0  0
 10 17  1  0  0  0  0
 10  9  1  0  0  0  0
 11 10  2  0  0  0  0
 12 14  2  0  0  0  0
 12 11  1  0  0  0  0
 13 12  1  0  0  0  0
 14 15  1  0  0  0  0
 15 16  1  0  0  0  0
 15 17  2  0  0  0  0
 17 18  1  0  0  0  0
 19  2  1  0  0  0  0
 19 22  1  0  0  0  0
 20 19  1  0  0  0  0
 21 19  1  0  0  0  0
 22 25  1  0  0  0  0
 23 22  1  0  0  0  0
 24 22  1  0  0  0  0
M  END
>  <minimizedAffinity>
-3.21076584

>  <minimizedRMSD>
4.89306307

$$$$
