
     RDKit          3D

 47 50  0  0  0  0  0  0  0  0999 V2000
   42.8255   34.4856   38.7827 C   0  0  1  0  0  0  0  0  0  0  0  0
   42.9527   35.1657   40.1367 C   0  0  1  0  0  0  0  0  0  0  0  0
   41.6530   35.3795   40.6445 O   0  0  0  0  0  0  0  0  0  0  0  0
   40.7303   35.6982   39.6448 C   0  0  0  0  0  0  0  0  0  0  0  0
   40.4463   34.5185   38.7350 C   0  0  2  0  0  0  0  0  0  0  0  0
   41.6680   33.5495   38.8918 C   0  0  1  0  0  0  0  0  0  0  0  0
   42.6063   35.4325   37.7694 O   0  0  0  0  0  0  0  0  0  0  0  0
   40.4709   34.9262   37.4125 O   0  0  0  0  0  0  0  0  0  0  0  0
   43.4871   34.1901   40.9919 O   0  0  0  0  0  0  0  0  0  0  0  0
   44.5970   34.3396   41.7230 C   0  0  0  0  0  0  0  0  0  0  0  0
   45.8545   34.4485   41.1117 C   0  0  0  0  0  0  0  0  0  0  0  0
   46.9746   34.6029   41.9086 C   0  0  0  0  0  0  0  0  0  0  0  0
   46.8226   34.6456   43.2823 N   0  0  0  0  0  0  0  0  0  0  0  0
   45.5944   34.5370   43.8396 C   0  0  0  0  0  0  0  0  0  0  0  0
   44.4910   34.3851   43.0624 N   0  0  0  0  0  0  0  0  0  0  0  0
   48.3503   34.7027   41.3235 C   0  0  0  0  0  0  0  0  0  0  0  0
   49.0728   36.0364   41.5019 C   0  0  0  0  0  0  0  0  0  0  0  0
   49.5050   34.7138   42.1650 C   0  0  0  0  0  0  0  0  0  0  0  0
   41.5532   32.5943   37.9545 O   0  0  0  0  0  0  0  0  0  0  0  0
   40.9353   31.4099   37.9620 C   0  0  0  0  0  0  0  0  0  0  0  0
   39.6753   31.2945   37.5464 O   0  0  0  0  0  0  0  0  0  0  0  0
   43.7747   33.9843   38.5036 H   0  0  0  0  0  0  0  0  0  0  0  0
   43.5268   36.0986   40.1039 H   0  0  0  0  0  0  0  0  0  0  0  0
   41.0272   36.5991   39.0725 H   0  0  0  0  0  0  0  0  0  0  0  0
   39.7965   35.9242   40.1785 H   0  0  0  0  0  0  0  0  0  0  0  0
   39.5241   33.9673   39.0037 H   0  0  0  0  0  0  0  0  0  0  0  0
   41.4475   33.3024   39.9814 H   0  0  0  0  0  0  0  0  0  0  0  0
   43.2268   36.1964   37.8763 H   0  0  0  0  0  0  0  0  0  0  0  0
   39.6262   35.3841   37.2024 H   0  0  0  0  0  0  0  0  0  0  0  0
   45.9818   34.4158   40.0295 H   0  0  0  0  0  0  0  0  0  0  0  0
   45.5207   34.5750   44.9169 H   0  0  0  0  0  0  0  0  0  0  0  0
   48.4079   34.2642   40.2933 H   0  0  0  0  0  0  0  0  0  0  0  0
   49.7271   36.3139   40.6545 H   0  0  0  0  0  0  0  0  0  0  0  0
   48.5882   36.8040   42.1195 H   0  0  0  0  0  0  0  0  0  0  0  0
   50.4882   34.3028   41.9053 H   0  0  0  0  0  0  0  0  0  0  0  0
   49.3435   34.7348   43.2737 H   0  0  0  0  0  0  0  0  0  0  0  0
   41.1546   29.2895   35.8129 Cl  0  0  0  0  0  0  0  0  0  0  0  0
   41.5398   28.9676   37.5025 C   0  0  0  0  0  0  0  0  0  0  0  0
   41.3860   30.0275   38.3688 C   0  0  0  0  0  0  0  0  0  0  0  0
   41.7044   29.6962   39.6607 C   0  0  0  0  0  0  0  0  0  0  0  0
   41.6315   30.4349   40.4573 H   0  0  0  0  0  0  0  0  0  0  0  0
   42.1240   28.4613   40.0398 C   0  0  0  0  0  0  0  0  0  0  0  0
   42.2506   27.4646   39.1208 C   0  0  0  0  0  0  0  0  0  0  0  0
   42.7878   25.8858   39.6100 Cl  0  0  0  0  0  0  0  0  0  0  0  0
   41.9554   27.6945   37.7959 C   0  0  0  0  0  0  0  0  0  0  0  0
   42.0380   26.9489   37.0380 H   0  0  0  0  0  0  0  0  0  0  0  0
   42.3626   28.2560   41.0773 H   0  0  0  0  0  0  0  0  0  0  0  0
  1  6  1  0
  1  2  1  0
  2  3  1  0
  2  9  1  0
  4  3  1  0
  5  6  1  0
  5  4  1  0
  7  1  1  0
  8  5  1  0
  9 10  1  0
 10 15  1  0
 11 10  2  0
 11 12  1  0
 12 13  2  0
 13 14  1  0
 15 14  2  0
 16 17  1  0
 16 12  1  0
 16 18  1  0
 17 18  1  0
 19 20  1  0
 19  6  1  0
 21 20  2  0
  1 22  1  6
  2 23  1  6
  4 24  1  0
  4 25  1  0
  5 26  1  1
  6 27  1  1
  7 28  1  0
  8 29  1  0
 11 30  1  0
 14 31  1  0
 16 32  1  0
 17 33  1  0
 17 34  1  0
 18 35  1  0
 18 36  1  0
 37 38  1  0
 38 39  2  0
 39 40  1  0
 40 41  1  0
 40 42  2  0
 42 43  1  0
 43 44  1  0
 43 45  2  0
 45 46  1  0
 45 38  1  0
 42 47  1  0
 20 39  1  0
M  ISO  8  22  13  23  13  24  13  25  13  26  13  27  13  28   3  29   3
M  ISO  8  30  14  31  14  32  13  33  13  34  13  35  13  36  13  41  16
M  ISO  1  46  15
M  END
>  <DihAtoms>  (1) 
18,19,38,37

>  <DihDeg>  (1) 
-8.627755230372646

$$$$
