
 OpenBabel03242523563D

 46 49  0  0  1  0  0  0  0  0999 V2000
   36.8860   30.4570   40.5450 C   0  0  1  0  0  0  0  0  0  0  0  0
   36.5990   29.8750   39.1700 C   0  0  1  0  0  0  0  0  0  0  0  0
   37.1850   30.7230   38.2040 O   0  0  0  0  0  0  0  0  0  0  0  0
   37.1160   32.0720   38.5600 C   0  0  0  0  0  0  0  0  0  0  0  0
   38.0080   32.3960   39.7430 C   0  0  2  0  0  0  0  0  0  0  0  0
   38.2600   31.0350   40.4780 C   0  0  1  0  0  0  0  0  0  0  0  0
   36.7700   29.6820   41.3320 H   0  0  0  0  0  0  0  0  0  0  0  0
   35.5320   29.7240   38.9740 H   0  0  0  0  0  0  0  0  0  0  0  0
   36.0730   32.4090   38.7260 H   0  0  0  0  0  0  0  0  0  0  0  0
   37.5180   32.6170   37.6960 H   0  0  0  0  0  0  0  0  0  0  0  0
   38.9870   32.8240   39.4520 H   0  0  0  0  0  0  0  0  0  0  0  0
   38.8510   30.5770   39.6190 H   0  0  0  0  0  0  0  0  0  0  0  0
   35.9450   31.4470   40.8730 O   0  0  0  0  0  0  0  0  0  0  0  0
   35.0310   31.1340   40.6540 H   0  0  0  0  0  0  0  0  0  0  0  0
   37.3200   33.1800   40.6520 O   0  0  0  0  0  0  0  0  0  0  0  0
   37.2970   34.1070   40.3250 H   0  0  0  0  0  0  0  0  0  0  0  0
   37.3710   28.7050   39.0960 O   0  0  0  0  0  0  0  0  0  0  0  0
   36.8740   27.4710   38.9530 C   0  0  0  0  0  0  0  0  0  0  0  0
   36.9980   26.5200   39.9760 C   0  0  0  0  0  0  0  0  0  0  0  0
   36.4690   25.2570   39.7830 C   0  0  0  0  0  0  0  0  0  0  0  0
   35.8340   24.9680   38.5900 N   0  0  0  0  0  0  0  0  0  0  0  0
   35.7330   25.9090   37.6220 C   0  0  0  0  0  0  0  0  0  0  0  0
   36.2510   27.1510   37.8060 N   0  0  0  0  0  0  0  0  0  0  0  0
   37.4970   26.7410   40.9200 H   0  0  0  0  0  0  0  0  0  0  0  0
   35.2290   25.6410   36.7040 H   0  0  0  0  0  0  0  0  0  0  0  0
   36.5840   24.1870   40.8250 C   0  0  0  0  0  0  0  0  0  0  0  0
   37.9970   23.8260   41.2790 C   0  0  0  0  0  0  0  0  0  0  0  0
   36.9420   24.5100   42.1700 C   0  0  0  0  0  0  0  0  0  0  0  0
   35.9140   23.3120   40.6140 H   0  0  0  0  0  0  0  0  0  0  0  0
   38.1320   22.7570   41.5330 H   0  0  0  0  0  0  0  0  0  0  0  0
   38.8300   24.4260   40.8900 H   0  0  0  0  0  0  0  0  0  0  0  0
   36.6000   23.9780   43.0660 H   0  0  0  0  0  0  0  0  0  0  0  0
   37.2180   25.5720   42.3960 H   0  0  0  0  0  0  0  0  0  0  0  0
   38.8760   31.3070   41.6400 O   0  0  0  0  0  0  0  0  0  0  0  0
   39.8180   30.6520   42.3240 C   0  0  0  0  0  0  0  0  0  0  0  0
   40.7260   31.3110   43.0410 O   0  0  0  0  0  0  0  0  0  0  0  0
   37.7210   28.9110   43.6430 Cl  0  0  0  0  0  0  0  0  0  0  0  0
   39.2580   28.2680   43.0660 C   0  0  0  0  0  0  0  0  0  0  0  0
   40.1170   29.1810   42.4930 C   0  0  0  0  0  0  0  0  0  0  0  0
   41.2860   28.6040   42.0720 C   0  0  0  0  0  0  0  0  0  0  0  0
   42.0620   29.2030   41.5980 H   0  0  0  0  0  0  0  0  0  0  0  0
   41.5640   27.2810   42.2050 C   0  0  0  0  0  3  0  0  0  0  0  0
   40.6610   26.4420   42.7830 C   0  0  0  0  0  0  0  0  0  0  0  0
   41.0200   24.7500   42.9520 Cl  0  0  0  0  0  0  0  0  0  0  0  0
   39.4540   26.9240   43.2410 C   0  0  0  0  0  0  0  0  0  0  0  0
   38.7140   26.3090   43.7010 H   0  0  0  0  0  0  0  0  0  0  0  0
  1 13  1  0  0  0  0
  1  7  1  1  0  0  0
  2  8  1  6  0  0  0
  2  1  1  0  0  0  0
  3  4  1  0  0  0  0
  3  2  1  0  0  0  0
  4  9  1  0  0  0  0
  4  5  1  0  0  0  0
  5 11  1  6  0  0  0
  5  6  1  0  0  0  0
  5 15  1  0  0  0  0
  6 12  1  6  0  0  0
  6  1  1  0  0  0  0
  6 34  1  0  0  0  0
 10  4  1  0  0  0  0
 14 13  1  0  0  0  0
 16 15  1  0  0  0  0
 17  2  1  0  0  0  0
 18 17  1  0  0  0  0
 18 19  1  0  0  0  0
 19 24  1  0  0  0  0
 20 19  2  0  0  0  0
 20 26  1  0  0  0  0
 21 20  1  0  0  0  0
 22 23  1  0  0  0  0
 22 21  2  0  0  0  0
 23 18  2  0  0  0  0
 25 22  1  0  0  0  0
 26 27  1  0  0  0  0
 26 28  1  0  0  0  0
 27 30  1  0  0  0  0
 27 28  1  0  0  0  0
 28 33  1  0  0  0  0
 28 32  1  0  0  0  0
 29 26  1  0  0  0  0
 31 27  1  0  0  0  0
 34 35  1  0  0  0  0
 35 39  1  0  0  0  0
 35 36  2  0  0  0  0
 38 45  1  0  0  0  0
 38 37  1  0  0  0  0
 39 38  2  0  0  0  0
 40 42  2  0  0  0  0
 40 39  1  0  0  0  0
 41 40  1  0  0  0  0
 42 43  1  0  0  0  0
 43 44  1  0  0  0  0
 43 45  2  0  0  0  0
 45 46  1  0  0  0  0
M  END
>  <minimizedAffinity>
-6.4005475

$$$$

 OpenBabel03242523563D

 46 49  0  0  1  0  0  0  0  0999 V2000
   38.6740   31.3940   39.9460 C   0  0  1  0  0  0  0  0  0  0  0  0
   39.6140   32.0730   40.9290 C   0  0  1  0  0  0  0  0  0  0  0  0
   39.1690   33.4000   41.1160 O   0  0  0  0  0  0  0  0  0  0  0  0
   38.6480   33.9630   39.9470 C   0  0  0  0  0  0  0  0  0  0  0  0
   37.3370   33.3200   39.5400 C   0  0  2  0  0  0  0  0  0  0  0  0
   37.3090   31.9180   40.2410 C   0  0  1  0  0  0  0  0  0  0  0  0
   38.7500   30.2890   40.0280 H   0  0  0  0  0  0  0  0  0  0  0  0
   40.6650   32.0450   40.6180 H   0  0  0  0  0  0  0  0  0  0  0  0
   39.3830   33.9610   39.1180 H   0  0  0  0  0  0  0  0  0  0  0  0
   38.4270   35.0070   40.2060 H   0  0  0  0  0  0  0  0  0  0  0  0
   36.4460   33.8930   39.8650 H   0  0  0  0  0  0  0  0  0  0  0  0
   37.2560   32.3460   41.2950 H   0  0  0  0  0  0  0  0  0  0  0  0
   39.0430   31.6830   38.6220 O   0  0  0  0  0  0  0  0  0  0  0  0
   40.0220   31.5830   38.5120 H   0  0  0  0  0  0  0  0  0  0  0  0
   37.3450   33.0490   38.1840 O   0  0  0  0  0  0  0  0  0  0  0  0
   37.1730   33.8820   37.6890 H   0  0  0  0  0  0  0  0  0  0  0  0
   39.3610   31.4610   42.1660 O   0  0  0  0  0  0  0  0  0  0  0  0
   39.6550   30.1900   42.4630 C   0  0  0  0  0  0  0  0  0  0  0  0
   38.6490   29.2840   42.8320 C   0  0  0  0  0  0  0  0  0  0  0  0
   39.0010   27.9800   43.1300 C   0  0  0  0  0  0  0  0  0  0  0  0
   40.3290   27.6070   43.0550 N   0  0  0  0  0  0  0  0  0  0  0  0
   41.2750   28.5070   42.6970 C   0  0  0  0  0  0  0  0  0  0  0  0
   40.9360   29.7890   42.4030 N   0  0  0  0  0  0  0  0  0  0  0  0
   37.5990   29.5720   42.8920 H   0  0  0  0  0  0  0  0  0  0  0  0
   42.3020   28.1730   42.6520 H   0  0  0  0  0  0  0  0  0  0  0  0
   37.9810   26.9670   43.5520 C   0  0  0  0  0  0  0  0  0  0  0  0
   36.5410   27.4580   43.6790 C   0  0  0  0  0  0  0  0  0  0  0  0
   37.0300   26.4520   42.6190 C   0  0  0  0  0  0  0  0  0  0  0  0
   38.3420   26.3270   44.4000 H   0  0  0  0  0  0  0  0  0  0  0  0
   35.9650   26.9700   44.4870 H   0  0  0  0  0  0  0  0  0  0  0  0
   36.3220   28.4890   43.3680 H   0  0  0  0  0  0  0  0  0  0  0  0
   36.6050   25.4410   42.6320 H   0  0  0  0  0  0  0  0  0  0  0  0
   37.0150   26.8960   41.5900 H   0  0  0  0  0  0  0  0  0  0  0  0
   36.2620   31.2370   39.7470 O   0  0  0  0  0  0  0  0  0  0  0  0
   35.8570   29.9760   39.9220 C   0  0  0  0  0  0  0  0  0  0  0  0
   35.6150   29.4990   41.1420 O   0  0  0  0  0  0  0  0  0  0  0  0
   38.0030   27.8830   39.5000 Cl  0  0  0  0  0  0  0  0  0  0  0  0
   36.4500   27.8280   38.6670 C   0  0  0  0  0  0  0  0  0  0  0  0
   35.5750   28.8520   38.9530 C   0  0  0  0  0  0  0  0  0  0  0  0
   34.3940   28.7370   38.2670 C   0  0  0  0  0  0  0  0  0  0  0  0
   33.6040   29.4760   38.3930 H   0  0  0  0  0  0  0  0  0  0  0  0
   34.1210   27.7260   37.4030 C   0  0  0  0  0  3  0  0  0  0  0  0
   35.0400   26.7480   37.1740 C   0  0  0  0  0  0  0  0  0  0  0  0
   34.6860   25.4550   36.0670 Cl  0  0  0  0  0  0  0  0  0  0  0  0
   36.2590   26.7720   37.8140 C   0  0  0  0  0  0  0  0  0  0  0  0
   37.0130   26.0310   37.6690 H   0  0  0  0  0  0  0  0  0  0  0  0
  1  7  1  1  0  0  0
  1  6  1  0  0  0  0
  1  2  1  0  0  0  0
  2  8  1  6  0  0  0
  2  3  1  0  0  0  0
  2 17  1  0  0  0  0
  4 10  1  0  0  0  0
  4  3  1  0  0  0  0
  5 11  1  1  0  0  0
  5  4  1  0  0  0  0
  5  6  1  0  0  0  0
  6 12  1  1  0  0  0
  9  4  1  0  0  0  0
 13  1  1  0  0  0  0
 14 13  1  0  0  0  0
 15  5  1  0  0  0  0
 16 15  1  0  0  0  0
 17 18  1  0  0  0  0
 18 19  1  0  0  0  0
 19 24  1  0  0  0  0
 19 20  2  0  0  0  0
 20 26  1  0  0  0  0
 21 20  1  0  0  0  0
 22 21  2  0  0  0  0
 23 18  2  0  0  0  0
 23 22  1  0  0  0  0
 25 22  1  0  0  0  0
 26 27  1  0  0  0  0
 26 29  1  0  0  0  0
 27 30  1  0  0  0  0
 28 32  1  0  0  0  0
 28 26  1  0  0  0  0
 28 27  1  0  0  0  0
 31 27  1  0  0  0  0
 33 28  1  0  0  0  0
 34 35  1  0  0  0  0
 34  6  1  0  0  0  0
 35 36  2  0  0  0  0
 38 39  1  0  0  0  0
 38 37  1  0  0  0  0
 39 35  1  0  0  0  0
 40 41  1  0  0  0  0
 40 39  2  0  0  0  0
 42 40  1  0  0  0  0
 43 42  2  0  0  0  0
 43 45  1  0  0  0  0
 44 43  1  0  0  0  0
 45 38  2  0  0  0  0
 46 45  1  0  0  0  0
M  END
>  <minimizedAffinity>
-6.18724012

$$$$

 OpenBabel03242523563D

 46 49  0  0  1  0  0  0  0  0999 V2000
   40.7750   31.7830   39.9620 C   0  0  1  0  0  0  0  0  0  0  0  0
   41.5790   31.2570   41.1410 C   0  0  1  0  0  0  0  0  0  0  0  0
   42.2050   32.3550   41.7700 O   0  0  0  0  0  0  0  0  0  0  0  0
   42.6160   33.3330   40.8600 C   0  0  0  0  0  0  0  0  0  0  0  0
   41.4420   34.0520   40.2260 C   0  0  2  0  0  0  0  0  0  0  0  0
   40.2110   33.0960   40.3920 C   0  0  1  0  0  0  0  0  0  0  0  0
   40.0010   31.0480   39.6550 H   0  0  0  0  0  0  0  0  0  0  0  0
   42.3080   30.4870   40.8630 H   0  0  0  0  0  0  0  0  0  0  0  0
   43.3140   32.9310   40.0990 H   0  0  0  0  0  0  0  0  0  0  0  0
   43.1580   34.0740   41.4630 H   0  0  0  0  0  0  0  0  0  0  0  0
   41.2020   35.0190   40.7110 H   0  0  0  0  0  0  0  0  0  0  0  0
   40.1880   33.1760   41.5280 H   0  0  0  0  0  0  0  0  0  0  0  0
   41.5920   31.9390   38.8320 O   0  0  0  0  0  0  0  0  0  0  0  0
   42.1680   31.1410   38.7150 H   0  0  0  0  0  0  0  0  0  0  0  0
   41.6360   34.1610   38.8600 O   0  0  0  0  0  0  0  0  0  0  0  0
   42.2710   34.8920   38.6840 H   0  0  0  0  0  0  0  0  0  0  0  0
   40.6250   30.8360   42.0800 O   0  0  0  0  0  0  0  0  0  0  0  0
   40.5460   29.6010   42.5870 C   0  0  0  0  0  0  0  0  0  0  0  0
   39.3140   28.9380   42.6860 C   0  0  0  0  0  0  0  0  0  0  0  0
   39.2820   27.6610   43.2170 C   0  0  0  0  0  0  0  0  0  0  0  0
   40.4620   27.0750   43.6330 N   0  0  0  0  0  0  0  0  0  0  0  0
   41.6350   27.7430   43.5240 C   0  0  0  0  0  0  0  0  0  0  0  0
   41.6730   28.9970   43.0040 N   0  0  0  0  0  0  0  0  0  0  0  0
   38.3790   29.3940   42.3600 H   0  0  0  0  0  0  0  0  0  0  0  0
   42.5340   27.2480   43.8620 H   0  0  0  0  0  0  0  0  0  0  0  0
   37.9980   26.9050   43.3720 C   0  0  0  0  0  0  0  0  0  0  0  0
   36.7490   27.7330   43.6640 C   0  0  0  0  0  0  0  0  0  0  0  0
   36.9930   26.9520   42.3580 C   0  0  0  0  0  0  0  0  0  0  0  0
   38.1180   25.9850   44.0040 H   0  0  0  0  0  0  0  0  0  0  0  0
   36.0160   27.2300   44.3230 H   0  0  0  0  0  0  0  0  0  0  0  0
   36.8440   28.8270   43.6520 H   0  0  0  0  0  0  0  0  0  0  0  0
   36.3020   26.1390   42.1060 H   0  0  0  0  0  0  0  0  0  0  0  0
   37.1600   27.6410   41.4900 H   0  0  0  0  0  0  0  0  0  0  0  0
   39.1990   33.6030   39.6680 O   0  0  0  0  0  0  0  0  0  0  0  0
   37.9200   33.2390   39.5480 C   0  0  0  0  0  0  0  0  0  0  0  0
   36.9540   34.1530   39.4670 O   0  0  0  0  0  0  0  0  0  0  0  0
   37.8260   31.8510   36.8600 Cl  0  0  0  0  0  0  0  0  0  0  0  0
   37.1360   31.1380   38.3170 C   0  0  0  0  0  0  0  0  0  0  0  0
   37.2480   31.8890   39.4670 C   0  0  0  0  0  0  0  0  0  0  0  0
   36.6880   31.2680   40.5530 C   0  0  0  0  0  0  0  0  0  0  0  0
   36.7010   31.7430   41.5320 H   0  0  0  0  0  0  0  0  0  0  0  0
   36.0920   30.0490   40.4980 C   0  0  0  0  0  3  0  0  0  0  0  0
   36.0230   29.3680   39.3220 C   0  0  0  0  0  0  0  0  0  0  0  0
   35.2590   27.8080   39.2560 Cl  0  0  0  0  0  0  0  0  0  0  0  0
   36.5550   29.9060   38.1710 C   0  0  0  0  0  0  0  0  0  0  0  0
   36.5260   29.4140   37.2250 H   0  0  0  0  0  0  0  0  0  0  0  0
  1  7  1  6  0  0  0
  1  6  1  0  0  0  0
  1  2  1  0  0  0  0
  2  8  1  6  0  0  0
  2  3  1  0  0  0  0
  2 17  1  0  0  0  0
  4 10  1  0  0  0  0
  4  3  1  0  0  0  0
  5  6  1  0  0  0  0
  5 11  1  1  0  0  0
  5  4  1  0  0  0  0
  6 12  1  1  0  0  0
  9  4  1  0  0  0  0
 13  1  1  0  0  0  0
 14 13  1  0  0  0  0
 15  5  1  0  0  0  0
 16 15  1  0  0  0  0
 17 18  1  0  0  0  0
 18 19  2  0  0  0  0
 18 23  1  0  0  0  0
 19 20  1  0  0  0  0
 20 26  1  0  0  0  0
 20 21  2  0  0  0  0
 22 21  1  0  0  0  0
 22 25  1  0  0  0  0
 23 22  2  0  0  0  0
 24 19  1  0  0  0  0
 26 27  1  0  0  0  0
 26 29  1  0  0  0  0
 27 30  1  0  0  0  0
 28 26  1  0  0  0  0
 28 27  1  0  0  0  0
 31 27  1  0  0  0  0
 32 28  1  0  0  0  0
 33 28  1  0  0  0  0
 34  6  1  0  0  0  0
 35 34  1  0  0  0  0
 36 35  2  0  0  0  0
 37 38  1  0  0  0  0
 38 39  1  0  0  0  0
 39 35  1  0  0  0  0
 39 40  2  0  0  0  0
 40 41  1  0  0  0  0
 42 40  1  0  0  0  0
 43 42  2  0  0  0  0
 44 43  1  0  0  0  0
 45 38  2  0  0  0  0
 45 43  1  0  0  0  0
 46 45  1  0  0  0  0
M  END
>  <minimizedAffinity>
-6.12504721

$$$$

 OpenBabel03242523563D

 46 49  0  0  1  0  0  0  0  0999 V2000
   38.9040   31.2170   39.8610 C   0  0  1  0  0  0  0  0  0  0  0  0
   39.6450   32.0130   40.9230 C   0  0  1  0  0  0  0  0  0  0  0  0
   38.9060   33.1870   41.1860 O   0  0  0  0  0  0  0  0  0  0  0  0
   38.2940   33.7060   40.0420 C   0  0  0  0  0  0  0  0  0  0  0  0
   37.1720   32.8170   39.5420 C   0  0  2  0  0  0  0  0  0  0  0  0
   37.4500   31.3960   40.1410 C   0  0  1  0  0  0  0  0  0  0  0  0
   39.2280   30.1550   39.8680 H   0  0  0  0  0  0  0  0  0  0  0  0
   40.6800   32.2470   40.6510 H   0  0  0  0  0  0  0  0  0  0  0  0
   39.0270   33.9340   39.2420 H   0  0  0  0  0  0  0  0  0  0  0  0
   37.8360   34.6500   40.3650 H   0  0  0  0  0  0  0  0  0  0  0  0
   36.1680   33.1470   39.8730 H   0  0  0  0  0  0  0  0  0  0  0  0
   37.2800   31.7180   41.2200 H   0  0  0  0  0  0  0  0  0  0  0  0
   39.2240   31.6830   38.5750 O   0  0  0  0  0  0  0  0  0  0  0  0
   40.2020   31.8150   38.4950 H   0  0  0  0  0  0  0  0  0  0  0  0
   37.2690   32.6600   38.1710 O   0  0  0  0  0  0  0  0  0  0  0  0
   36.9220   33.4680   37.7300 H   0  0  0  0  0  0  0  0  0  0  0  0
   39.5130   31.2660   42.1040 O   0  0  0  0  0  0  0  0  0  0  0  0
   40.3940   30.3560   42.5330 C   0  0  0  0  0  0  0  0  0  0  0  0
   40.0350   29.0050   42.6550 C   0  0  0  0  0  0  0  0  0  0  0  0
   40.9800   28.1000   43.1040 C   0  0  0  0  0  0  0  0  0  0  0  0
   42.2480   28.5500   43.4170 N   0  0  0  0  0  0  0  0  0  0  0  0
   42.5620   29.8610   43.2890 C   0  0  0  0  0  0  0  0  0  0  0  0
   41.6380   30.7550   42.8500 N   0  0  0  0  0  0  0  0  0  0  0  0
   39.0360   28.6430   42.4090 H   0  0  0  0  0  0  0  0  0  0  0  0
   43.5640   30.1700   43.5460 H   0  0  0  0  0  0  0  0  0  0  0  0
   40.6580   26.6480   43.2780 C   0  0  0  0  0  0  0  0  0  0  0  0
   41.0190   25.7230   42.1180 C   0  0  0  0  0  0  0  0  0  0  0  0
   41.6930   25.6890   43.5030 C   0  0  0  0  0  0  0  0  0  0  0  0
   39.6370   26.4860   43.7150 H   0  0  0  0  0  0  0  0  0  0  0  0
   40.3160   24.8820   41.9720 H   0  0  0  0  0  0  0  0  0  0  0  0
   41.5710   26.1540   41.2710 H   0  0  0  0  0  0  0  0  0  0  0  0
   41.5980   24.7750   44.1010 H   0  0  0  0  0  0  0  0  0  0  0  0
   42.7550   26.0470   43.4550 H   0  0  0  0  0  0  0  0  0  0  0  0
   36.5960   30.5350   39.5620 O   0  0  0  0  0  0  0  0  0  0  0  0
   35.9260   29.4850   40.0430 C   0  0  0  0  0  0  0  0  0  0  0  0
   34.5940   29.4740   40.0640 O   0  0  0  0  0  0  0  0  0  0  0  0
   36.3920   27.1740   38.1440 Cl  0  0  0  0  0  0  0  0  0  0  0  0
   36.6370   27.0330   39.8850 C   0  0  0  0  0  0  0  0  0  0  0  0
   36.3790   28.1660   40.6240 C   0  0  0  0  0  0  0  0  0  0  0  0
   36.5930   27.9750   41.9640 C   0  0  0  0  0  0  0  0  0  0  0  0
   36.4300   28.7840   42.6740 H   0  0  0  0  0  0  0  0  0  0  0  0
   37.0130   26.8000   42.4990 C   0  0  0  0  0  3  0  0  0  0  0  0
   37.2480   25.7240   41.7000 C   0  0  0  0  0  0  0  0  0  0  0  0
   37.7850   24.2210   42.3880 Cl  0  0  0  0  0  0  0  0  0  0  0  0
   37.0620   25.8120   40.3380 C   0  0  0  0  0  0  0  0  0  0  0  0
   37.2310   24.9990   39.6690 H   0  0  0  0  0  0  0  0  0  0  0  0
  1  7  1  1  0  0  0
  1  6  1  0  0  0  0
  1  2  1  0  0  0  0
  2  8  1  6  0  0  0
  2  3  1  0  0  0  0
  2 17  1  0  0  0  0
  4 10  1  0  0  0  0
  4  3  1  0  0  0  0
  5 11  1  1  0  0  0
  5  4  1  0  0  0  0
  5  6  1  0  0  0  0
  6 12  1  1  0  0  0
  9  4  1  0  0  0  0
 13  1  1  0  0  0  0
 14 13  1  0  0  0  0
 15  5  1  0  0  0  0
 16 15  1  0  0  0  0
 17 18  1  0  0  0  0
 18 19  2  0  0  0  0
 18 23  1  0  0  0  0
 19 20  1  0  0  0  0
 20 26  1  0  0  0  0
 20 21  2  0  0  0  0
 22 21  1  0  0  0  0
 22 25  1  0  0  0  0
 23 22  2  0  0  0  0
 24 19  1  0  0  0  0
 26 28  1  0  0  0  0
 26 29  1  0  0  0  0
 27 26  1  0  0  0  0
 27 28  1  0  0  0  0
 28 32  1  0  0  0  0
 30 27  1  0  0  0  0
 31 27  1  0  0  0  0
 33 28  1  0  0  0  0
 34 35  1  0  0  0  0
 34  6  1  0  0  0  0
 35 36  2  0  0  0  0
 35 39  1  0  0  0  0
 37 38  1  0  0  0  0
 38 45  2  0  0  0  0
 38 39  1  0  0  0  0
 39 40  2  0  0  0  0
 40 42  1  0  0  0  0
 40 41  1  0  0  0  0
 43 44  1  0  0  0  0
 43 42  2  0  0  0  0
 45 43  1  0  0  0  0
 46 45  1  0  0  0  0
M  END
>  <minimizedAffinity>
-6.1105752

$$$$

 OpenBabel03242523563D

 46 49  0  0  1  0  0  0  0  0999 V2000
   39.6720   30.6270   37.9520 C   0  0  1  0  0  0  0  0  0  0  0  0
   40.3390   29.3560   37.4520 C   0  0  1  0  0  0  0  0  0  0  0  0
   41.7130   29.6260   37.2670 O   0  0  0  0  0  0  0  0  0  0  0  0
   41.9490   30.9210   36.8000 C   0  0  0  0  0  0  0  0  0  0  0  0
   41.6320   31.9720   37.8470 C   0  0  2  0  0  0  0  0  0  0  0  0
   40.6540   31.2860   38.8620 C   0  0  1  0  0  0  0  0  0  0  0  0
   38.7020   30.3960   38.4410 H   0  0  0  0  0  0  0  0  0  0  0  0
   39.8850   28.9550   36.5390 H   0  0  0  0  0  0  0  0  0  0  0  0
   41.4290   31.1230   35.8430 H   0  0  0  0  0  0  0  0  0  0  0  0
   43.0310   30.9670   36.6170 H   0  0  0  0  0  0  0  0  0  0  0  0
   42.5240   32.3230   38.4030 H   0  0  0  0  0  0  0  0  0  0  0  0
   41.4240   30.5380   39.2390 H   0  0  0  0  0  0  0  0  0  0  0  0
   39.3420   31.4720   36.8800 O   0  0  0  0  0  0  0  0  0  0  0  0
   38.9170   30.9500   36.1530 H   0  0  0  0  0  0  0  0  0  0  0  0
   40.9050   33.0010   37.2770 O   0  0  0  0  0  0  0  0  0  0  0  0
   41.5150   33.5850   36.7730 H   0  0  0  0  0  0  0  0  0  0  0  0
   40.3180   28.4730   38.5420 O   0  0  0  0  0  0  0  0  0  0  0  0
   39.2500   27.7700   38.9350 C   0  0  0  0  0  0  0  0  0  0  0  0
   39.3280   26.8810   40.0170 C   0  0  0  0  0  0  0  0  0  0  0  0
   38.1970   26.1750   40.3860 C   0  0  0  0  0  0  0  0  0  0  0  0
   37.0240   26.3670   39.6810 N   0  0  0  0  0  0  0  0  0  0  0  0
   36.9830   27.2330   38.6400 C   0  0  0  0  0  0  0  0  0  0  0  0
   38.0900   27.9280   38.2730 N   0  0  0  0  0  0  0  0  0  0  0  0
   40.2500   26.7250   40.5780 H   0  0  0  0  0  0  0  0  0  0  0  0
   36.0460   27.3520   38.1160 H   0  0  0  0  0  0  0  0  0  0  0  0
   38.2160   25.1940   41.5170 C   0  0  0  0  0  0  0  0  0  0  0  0
   36.9090   24.4570   41.8040 C   0  0  0  0  0  0  0  0  0  0  0  0
   38.1880   23.7870   41.2670 C   0  0  0  0  0  0  0  0  0  0  0  0
   38.7450   25.5950   42.4210 H   0  0  0  0  0  0  0  0  0  0  0  0
   36.7380   24.2380   42.8750 H   0  0  0  0  0  0  0  0  0  0  0  0
   36.0680   24.6190   41.1170 H   0  0  0  0  0  0  0  0  0  0  0  0
   38.6680   23.0190   41.8850 H   0  0  0  0  0  0  0  0  0  0  0  0
   38.0630   23.4480   40.2050 H   0  0  0  0  0  0  0  0  0  0  0  0
   40.1910   32.2390   39.6880 O   0  0  0  0  0  0  0  0  0  0  0  0
   39.3070   32.1980   40.6890 C   0  0  0  0  0  0  0  0  0  0  0  0
   38.8500   33.3190   41.2440 O   0  0  0  0  0  0  0  0  0  0  0  0
   36.6200   31.2590   39.6590 Cl  0  0  0  0  0  0  0  0  0  0  0  0
   37.4140   30.5150   41.0460 C   0  0  0  0  0  0  0  0  0  0  0  0
   38.6300   31.0530   41.4040 C   0  0  0  0  0  0  0  0  0  0  0  0
   39.1810   30.4210   42.4890 C   0  0  0  0  0  0  0  0  0  0  0  0
   40.1440   30.7380   42.8860 H   0  0  0  0  0  0  0  0  0  0  0  0
   38.5920   29.3820   43.1350 C   0  0  0  0  0  3  0  0  0  0  0  0
   37.3860   28.9060   42.7170 C   0  0  0  0  0  0  0  0  0  0  0  0
   36.6350   27.5760   43.5460 Cl  0  0  0  0  0  0  0  0  0  0  0  0
   36.7480   29.4730   41.6360 C   0  0  0  0  0  0  0  0  0  0  0  0
   35.8040   29.1380   41.2710 H   0  0  0  0  0  0  0  0  0  0  0  0
  1  7  1  1  0  0  0
  1  6  1  0  0  0  0
  2  8  1  6  0  0  0
  2  1  1  0  0  0  0
  2 17  1  0  0  0  0
  3  2  1  0  0  0  0
  4  3  1  0  0  0  0
  4  5  1  0  0  0  0
  5 11  1  1  0  0  0
  5  6  1  0  0  0  0
  6 12  1  1  0  0  0
  6 34  1  0  0  0  0
  9  4  1  0  0  0  0
 10  4  1  0  0  0  0
 13  1  1  0  0  0  0
 14 13  1  0  0  0  0
 15  5  1  0  0  0  0
 16 15  1  0  0  0  0
 17 18  1  0  0  0  0
 18 19  1  0  0  0  0
 19 20  2  0  0  0  0
 19 24  1  0  0  0  0
 20 26  1  0  0  0  0
 21 20  1  0  0  0  0
 22 21  2  0  0  0  0
 23 22  1  0  0  0  0
 23 18  2  0  0  0  0
 25 22  1  0  0  0  0
 26 27  1  0  0  0  0
 26 29  1  0  0  0  0
 27 30  1  0  0  0  0
 28 26  1  0  0  0  0
 28 27  1  0  0  0  0
 28 32  1  0  0  0  0
 31 27  1  0  0  0  0
 33 28  1  0  0  0  0
 34 35  1  0  0  0  0
 35 36  2  0  0  0  0
 35 39  1  0  0  0  0
 37 38  1  0  0  0  0
 38 39  2  0  0  0  0
 38 45  1  0  0  0  0
 39 40  1  0  0  0  0
 40 41  1  0  0  0  0
 40 42  2  0  0  0  0
 43 42  1  0  0  0  0
 43 44  1  0  0  0  0
 45 43  2  0  0  0  0
 46 45  1  0  0  0  0
M  END
>  <minimizedAffinity>
-6.08986807

$$$$

 OpenBabel03242523563D

 46 49  0  0  1  0  0  0  0  0999 V2000
   38.9520   31.7600   39.0490 C   0  0  1  0  0  0  0  0  0  0  0  0
   40.2380   32.2480   38.4020 C   0  0  1  0  0  0  0  0  0  0  0  0
   40.7050   33.3590   39.1370 O   0  0  0  0  0  0  0  0  0  0  0  0
   39.6670   34.1610   39.6180 C   0  0  0  0  0  0  0  0  0  0  0  0
   38.8660   33.4680   40.7040 C   0  0  2  0  0  0  0  0  0  0  0  0
   39.1310   31.9340   40.5200 C   0  0  1  0  0  0  0  0  0  0  0  0
   38.7340   30.7130   38.7510 H   0  0  0  0  0  0  0  0  0  0  0  0
   40.1270   32.4910   37.3390 H   0  0  0  0  0  0  0  0  0  0  0  0
   39.0170   34.5380   38.8040 H   0  0  0  0  0  0  0  0  0  0  0  0
   40.1630   35.0220   40.0860 H   0  0  0  0  0  0  0  0  0  0  0  0
   39.1720   33.7560   41.7290 H   0  0  0  0  0  0  0  0  0  0  0  0
   40.2350   32.0000   40.7900 H   0  0  0  0  0  0  0  0  0  0  0  0
   37.8510   32.5010   38.5900 O   0  0  0  0  0  0  0  0  0  0  0  0
   37.8950   32.6040   37.6060 H   0  0  0  0  0  0  0  0  0  0  0  0
   37.5130   33.6350   40.4720 O   0  0  0  0  0  0  0  0  0  0  0  0
   37.2480   34.5400   40.7550 H   0  0  0  0  0  0  0  0  0  0  0  0
   41.1880   31.2500   38.6680 O   0  0  0  0  0  0  0  0  0  0  0  0
   41.7570   30.4700   37.7430 C   0  0  0  0  0  0  0  0  0  0  0  0
   42.8800   30.9050   37.0230 C   0  0  0  0  0  0  0  0  0  0  0  0
   43.4340   30.0640   36.0750 C   0  0  0  0  0  0  0  0  0  0  0  0
   42.8680   28.8210   35.8650 N   0  0  0  0  0  0  0  0  0  0  0  0
   41.7830   28.4320   36.5760 C   0  0  0  0  0  0  0  0  0  0  0  0
   41.2340   29.2550   37.5080 N   0  0  0  0  0  0  0  0  0  0  0  0
   43.3320   31.8850   37.1840 H   0  0  0  0  0  0  0  0  0  0  0  0
   41.3720   27.4530   36.3800 H   0  0  0  0  0  0  0  0  0  0  0  0
   44.6190   30.4730   35.2560 C   0  0  0  0  0  0  0  0  0  0  0  0
   45.6660   31.3400   35.9530 C   0  0  0  0  0  0  0  0  0  0  0  0
   45.9040   29.8910   35.4840 C   0  0  0  0  0  0  0  0  0  0  0  0
   44.3290   30.8130   34.2270 H   0  0  0  0  0  0  0  0  0  0  0  0
   46.1540   32.0810   35.2930 H   0  0  0  0  0  0  0  0  0  0  0  0
   45.5380   31.5340   37.0270 H   0  0  0  0  0  0  0  0  0  0  0  0
   46.6700   29.7160   34.7200 H   0  0  0  0  0  0  0  0  0  0  0  0
   46.0120   29.1880   36.3510 H   0  0  0  0  0  0  0  0  0  0  0  0
   38.2850   31.2750   41.3300 O   0  0  0  0  0  0  0  0  0  0  0  0
   37.3210   30.3860   41.0780 C   0  0  0  0  0  0  0  0  0  0  0  0
   36.1800   30.7600   40.5010 O   0  0  0  0  0  0  0  0  0  0  0  0
   37.7680   28.5330   38.7260 Cl  0  0  0  0  0  0  0  0  0  0  0  0
   37.4050   27.9370   40.3450 C   0  0  0  0  0  0  0  0  0  0  0  0
   37.2190   28.8980   41.3140 C   0  0  0  0  0  0  0  0  0  0  0  0
   36.9410   28.3540   42.5410 C   0  0  0  0  0  0  0  0  0  0  0  0
   36.7710   28.9940   43.4060 H   0  0  0  0  0  0  0  0  0  0  0  0
   36.8600   27.0190   42.7720 C   0  0  0  0  0  3  0  0  0  0  0  0
   37.0580   26.1310   41.7590 C   0  0  0  0  0  0  0  0  0  0  0  0
   36.9530   24.4220   42.0590 Cl  0  0  0  0  0  0  0  0  0  0  0  0
   37.3430   26.5750   40.4870 C   0  0  0  0  0  0  0  0  0  0  0  0
   37.5050   25.9220   39.6600 H   0  0  0  0  0  0  0  0  0  0  0  0
  1  7  1  6  0  0  0
  1  6  1  0  0  0  0
  2  8  1  6  0  0  0
  2 17  1  0  0  0  0
  2  1  1  0  0  0  0
  2  3  1  0  0  0  0
  3  4  1  0  0  0  0
  4 10  1  0  0  0  0
  4  5  1  0  0  0  0
  5 11  1  1  0  0  0
  6  5  1  0  0  0  0
  6 12  1  1  0  0  0
  6 34  1  0  0  0  0
  9  4  1  0  0  0  0
 13  1  1  0  0  0  0
 14 13  1  0  0  0  0
 15  5  1  0  0  0  0
 15 16  1  0  0  0  0
 18 17  1  0  0  0  0
 19 24  1  0  0  0  0
 19 18  2  0  0  0  0
 20 19  1  0  0  0  0
 21 20  2  0  0  0  0
 21 22  1  0  0  0  0
 22 23  2  0  0  0  0
 23 18  1  0  0  0  0
 25 22  1  0  0  0  0
 26 28  1  0  0  0  0
 26 27  1  0  0  0  0
 26 20  1  0  0  0  0
 27 31  1  0  0  0  0
 28 27  1  0  0  0  0
 28 33  1  0  0  0  0
 29 26  1  0  0  0  0
 30 27  1  0  0  0  0
 32 28  1  0  0  0  0
 35 39  1  0  0  0  0
 35 34  1  0  0  0  0
 36 35  2  0  0  0  0
 37 38  1  0  0  0  0
 38 45  2  0  0  0  0
 38 39  1  0  0  0  0
 39 40  2  0  0  0  0
 40 42  1  0  0  0  0
 40 41  1  0  0  0  0
 43 44  1  0  0  0  0
 43 42  2  0  0  0  0
 45 43  1  0  0  0  0
 46 45  1  0  0  0  0
M  END
>  <minimizedAffinity>
-6.06511927

$$$$

 OpenBabel03242523563D

 46 49  0  0  1  0  0  0  0  0999 V2000
   40.4290   29.9930   38.2330 C   0  0  1  0  0  0  0  0  0  0  0  0
   41.7790   29.3040   38.1110 C   0  0  1  0  0  0  0  0  0  0  0  0
   42.7320   30.2730   37.7270 O   0  0  0  0  0  0  0  0  0  0  0  0
   42.2080   31.2250   36.8490 C   0  0  0  0  0  0  0  0  0  0  0  0
   41.1980   32.1310   37.5260 C   0  0  2  0  0  0  0  0  0  0  0  0
   40.7000   31.3500   38.7900 C   0  0  1  0  0  0  0  0  0  0  0  0
   39.7350   29.3900   38.8550 H   0  0  0  0  0  0  0  0  0  0  0  0
   41.7740   28.4540   37.4200 H   0  0  0  0  0  0  0  0  0  0  0  0
   41.7970   30.7650   35.9280 H   0  0  0  0  0  0  0  0  0  0  0  0
   43.0630   31.8540   36.5650 H   0  0  0  0  0  0  0  0  0  0  0  0
   41.6250   33.0980   37.8560 H   0  0  0  0  0  0  0  0  0  0  0  0
   41.7090   31.3800   39.3170 H   0  0  0  0  0  0  0  0  0  0  0  0
   39.8010   30.0850   36.9810 O   0  0  0  0  0  0  0  0  0  0  0  0
   39.8680   29.2210   36.5010 H   0  0  0  0  0  0  0  0  0  0  0  0
   40.0810   32.2750   36.7230 O   0  0  0  0  0  0  0  0  0  0  0  0
   40.2820   32.9170   36.0050 H   0  0  0  0  0  0  0  0  0  0  0  0
   42.1480   28.9780   39.4250 O   0  0  0  0  0  0  0  0  0  0  0  0
   42.0220   27.7650   39.9740 C   0  0  0  0  0  0  0  0  0  0  0  0
   40.9300   27.4560   40.7990 C   0  0  0  0  0  0  0  0  0  0  0  0
   40.8420   26.1880   41.3450 C   0  0  0  0  0  0  0  0  0  0  0  0
   41.8290   25.2630   41.0620 N   0  0  0  0  0  0  0  0  0  0  0  0
   42.8700   25.5950   40.2620 C   0  0  0  0  0  0  0  0  0  0  0  0
   42.9620   26.8380   39.7240 N   0  0  0  0  0  0  0  0  0  0  0  0
   40.1470   28.1810   41.0260 H   0  0  0  0  0  0  0  0  0  0  0  0
   43.6200   24.8410   40.0680 H   0  0  0  0  0  0  0  0  0  0  0  0
   39.7150   25.7980   42.2520 C   0  0  0  0  0  0  0  0  0  0  0  0
   39.8490   24.4570   42.9690 C   0  0  0  0  0  0  0  0  0  0  0  0
   39.8740   25.8280   43.6720 C   0  0  0  0  0  0  0  0  0  0  0  0
   38.7100   25.9950   41.7930 H   0  0  0  0  0  0  0  0  0  0  0  0
   38.8900   23.9260   43.1190 H   0  0  0  0  0  0  0  0  0  0  0  0
   40.7910   23.9050   42.8530 H   0  0  0  0  0  0  0  0  0  0  0  0
   39.0820   26.0510   44.3980 H   0  0  0  0  0  0  0  0  0  0  0  0
   40.8910   26.0660   44.0780 H   0  0  0  0  0  0  0  0  0  0  0  0
   39.6600   32.0290   39.3040 O   0  0  0  0  0  0  0  0  0  0  0  0
   39.0370   31.9440   40.4830 C   0  0  0  0  0  0  0  0  0  0  0  0
   38.8770   33.0210   41.2500 O   0  0  0  0  0  0  0  0  0  0  0  0
   36.5370   30.7060   39.3070 Cl  0  0  0  0  0  0  0  0  0  0  0  0
   37.2690   30.1240   40.8010 C   0  0  0  0  0  0  0  0  0  0  0  0
   38.4000   30.7890   41.2190 C   0  0  0  0  0  0  0  0  0  0  0  0
   38.9060   30.2780   42.3850 C   0  0  0  0  0  0  0  0  0  0  0  0
   39.8010   30.7030   42.8360 H   0  0  0  0  0  0  0  0  0  0  0  0
   38.3530   29.2320   43.0510 C   0  0  0  0  0  3  0  0  0  0  0  0
   37.2320   28.6250   42.5720 C   0  0  0  0  0  0  0  0  0  0  0  0
   36.5270   27.2860   43.4270 Cl  0  0  0  0  0  0  0  0  0  0  0  0
   36.6450   29.0640   41.4060 C   0  0  0  0  0  0  0  0  0  0  0  0
   35.7670   28.6240   40.9890 H   0  0  0  0  0  0  0  0  0  0  0  0
  1  6  1  0  0  0  0
  1  7  1  1  0  0  0
  2  8  1  6  0  0  0
  2  1  1  0  0  0  0
  2 17  1  0  0  0  0
  3  2  1  0  0  0  0
  4  5  1  0  0  0  0
  4  3  1  0  0  0  0
  5 11  1  1  0  0  0
  5  6  1  0  0  0  0
  6 34  1  0  0  0  0
  6 12  1  1  0  0  0
  9  4  1  0  0  0  0
 10  4  1  0  0  0  0
 13  1  1  0  0  0  0
 14 13  1  0  0  0  0
 15  5  1  0  0  0  0
 16 15  1  0  0  0  0
 17 18  1  0  0  0  0
 18 19  1  0  0  0  0
 19 24  1  0  0  0  0
 19 20  2  0  0  0  0
 20 26  1  0  0  0  0
 21 20  1  0  0  0  0
 22 21  2  0  0  0  0
 23 18  2  0  0  0  0
 23 22  1  0  0  0  0
 25 22  1  0  0  0  0
 26 27  1  0  0  0  0
 26 28  1  0  0  0  0
 27 30  1  0  0  0  0
 27 28  1  0  0  0  0
 28 33  1  0  0  0  0
 28 32  1  0  0  0  0
 29 26  1  0  0  0  0
 31 27  1  0  0  0  0
 34 35  1  0  0  0  0
 35 39  1  0  0  0  0
 35 36  2  0  0  0  0
 37 38  1  0  0  0  0
 38 39  2  0  0  0  0
 38 45  1  0  0  0  0
 39 40  1  0  0  0  0
 40 41  1  0  0  0  0
 40 42  2  0  0  0  0
 43 42  1  0  0  0  0
 43 44  1  0  0  0  0
 45 43  2  0  0  0  0
 46 45  1  0  0  0  0
M  END
>  <minimizedAffinity>
-6.02858973

$$$$

 OpenBabel03242523563D

 46 49  0  0  1  0  0  0  0  0999 V2000
   37.5950   29.7770   41.6520 C   0  0  1  0  0  0  0  0  0  0  0  0
   38.9550   30.0700   42.2650 C   0  0  1  0  0  0  0  0  0  0  0  0
   39.4270   28.8870   42.8730 O   0  0  0  0  0  0  0  0  0  0  0  0
   38.4030   28.1350   43.4560 C   0  0  0  0  0  0  0  0  0  0  0  0
   37.4800   27.5270   42.4180 C   0  0  2  0  0  0  0  0  0  0  0  0
   37.6670   28.3840   41.1200 C   0  0  1  0  0  0  0  0  0  0  0  0
   37.3400   30.5320   40.8800 H   0  0  0  0  0  0  0  0  0  0  0  0
   38.9420   30.9050   42.9750 H   0  0  0  0  0  0  0  0  0  0  0  0
   37.8430   28.7120   44.2190 H   0  0  0  0  0  0  0  0  0  0  0  0
   38.9110   27.3030   43.9620 H   0  0  0  0  0  0  0  0  0  0  0  0
   37.7210   26.4720   42.1800 H   0  0  0  0  0  0  0  0  0  0  0  0
   38.7490   28.0670   40.9570 H   0  0  0  0  0  0  0  0  0  0  0  0
   36.5790   29.8890   42.6150 O   0  0  0  0  0  0  0  0  0  0  0  0
   36.7070   30.7130   43.1500 H   0  0  0  0  0  0  0  0  0  0  0  0
   36.1610   27.7130   42.7920 O   0  0  0  0  0  0  0  0  0  0  0  0
   35.9290   27.0570   43.4880 H   0  0  0  0  0  0  0  0  0  0  0  0
   39.8200   30.2520   41.1760 O   0  0  0  0  0  0  0  0  0  0  0  0
   40.0200   31.4150   40.5450 C   0  0  0  0  0  0  0  0  0  0  0  0
   40.6990   31.4640   39.3190 C   0  0  0  0  0  0  0  0  0  0  0  0
   40.8820   32.6890   38.7030 C   0  0  0  0  0  0  0  0  0  0  0  0
   40.3900   33.8280   39.3130 N   0  0  0  0  0  0  0  0  0  0  0  0
   39.7400   33.7460   40.4980 C   0  0  0  0  0  0  0  0  0  0  0  0
   39.5580   32.5450   41.1060 N   0  0  0  0  0  0  0  0  0  0  0  0
   41.0890   30.5690   38.8320 H   0  0  0  0  0  0  0  0  0  0  0  0
   39.3720   34.6610   40.9390 H   0  0  0  0  0  0  0  0  0  0  0  0
   41.6170   32.8170   37.4050 C   0  0  0  0  0  0  0  0  0  0  0  0
   42.6430   33.9430   37.3080 C   0  0  0  0  0  0  0  0  0  0  0  0
   42.9920   32.4420   37.3010 C   0  0  0  0  0  0  0  0  0  0  0  0
   40.9370   32.7150   36.5180 H   0  0  0  0  0  0  0  0  0  0  0  0
   42.7240   34.3980   36.3030 H   0  0  0  0  0  0  0  0  0  0  0  0
   42.8480   34.5290   38.2140 H   0  0  0  0  0  0  0  0  0  0  0  0
   43.4750   32.0280   36.4080 H   0  0  0  0  0  0  0  0  0  0  0  0
   43.5210   32.1360   38.2410 H   0  0  0  0  0  0  0  0  0  0  0  0
   36.7230   28.0060   40.2420 O   0  0  0  0  0  0  0  0  0  0  0  0
   35.9300   28.7080   39.4290 C   0  0  0  0  0  0  0  0  0  0  0  0
   34.7990   29.2490   39.8760 O   0  0  0  0  0  0  0  0  0  0  0  0
   34.2960   27.1220   37.4350 Cl  0  0  0  0  0  0  0  0  0  0  0  0
   35.3500   28.4500   36.9510 C   0  0  0  0  0  0  0  0  0  0  0  0
   36.0370   29.0750   37.9670 C   0  0  0  0  0  0  0  0  0  0  0  0
   36.8330   30.0930   37.5100 C   0  0  0  0  0  0  0  0  0  0  0  0
   37.4370   30.6790   38.2010 H   0  0  0  0  0  0  0  0  0  0  0  0
   36.9300   30.4430   36.2020 C   0  0  0  0  0  3  0  0  0  0  0  0
   36.2150   29.7750   35.2550 C   0  0  0  0  0  0  0  0  0  0  0  0
   36.3420   30.2260   33.5810 Cl  0  0  0  0  0  0  0  0  0  0  0  0
   35.3860   28.7350   35.6110 C   0  0  0  0  0  0  0  0  0  0  0  0
   34.8060   28.1800   34.9090 H   0  0  0  0  0  0  0  0  0  0  0  0
  1  7  1  6  0  0  0
  1  2  1  0  0  0  0
  1 13  1  0  0  0  0
  2  3  1  0  0  0  0
  2  8  1  1  0  0  0
  3  4  1  0  0  0  0
  4 10  1  0  0  0  0
  4  9  1  0  0  0  0
  5 11  1  6  0  0  0
  5 15  1  0  0  0  0
  5  4  1  0  0  0  0
  6 12  1  6  0  0  0
  6  1  1  0  0  0  0
  6  5  1  0  0  0  0
 13 14  1  0  0  0  0
 15 16  1  0  0  0  0
 17  2  1  0  0  0  0
 18 23  1  0  0  0  0
 18 17  1  0  0  0  0
 19 18  2  0  0  0  0
 20 21  2  0  0  0  0
 20 19  1  0  0  0  0
 21 22  1  0  0  0  0
 22 25  1  0  0  0  0
 22 23  2  0  0  0  0
 24 19  1  0  0  0  0
 26 20  1  0  0  0  0
 27 26  1  0  0  0  0
 27 31  1  0  0  0  0
 28 27  1  0  0  0  0
 28 26  1  0  0  0  0
 28 33  1  0  0  0  0
 29 26  1  0  0  0  0
 30 27  1  0  0  0  0
 32 28  1  0  0  0  0
 34  6  1  0  0  0  0
 35 36  2  0  0  0  0
 35 34  1  0  0  0  0
 38 37  1  0  0  0  0
 38 39  1  0  0  0  0
 39 35  1  0  0  0  0
 40 39  2  0  0  0  0
 40 41  1  0  0  0  0
 42 40  1  0  0  0  0
 43 45  1  0  0  0  0
 43 42  2  0  0  0  0
 44 43  1  0  0  0  0
 45 38  2  0  0  0  0
 46 45  1  0  0  0  0
M  END
>  <minimizedAffinity>
-5.99154234

$$$$

 OpenBabel03242523563D

 46 49  0  0  1  0  0  0  0  0999 V2000
   37.5790   31.8220   39.9250 C   0  0  1  0  0  0  0  0  0  0  0  0
   37.8630   31.8690   38.4320 C   0  0  1  0  0  0  0  0  0  0  0  0
   39.1310   32.4600   38.2450 O   0  0  0  0  0  0  0  0  0  0  0  0
   39.3930   33.4770   39.1680 C   0  0  0  0  0  0  0  0  0  0  0  0
   39.5780   32.9380   40.5730 C   0  0  2  0  0  0  0  0  0  0  0  0
   38.8830   31.5340   40.5910 C   0  0  1  0  0  0  0  0  0  0  0  0
   36.7910   31.0740   40.1520 H   0  0  0  0  0  0  0  0  0  0  0  0
   37.0900   32.3930   37.8570 H   0  0  0  0  0  0  0  0  0  0  0  0
   38.6310   34.2810   39.1320 H   0  0  0  0  0  0  0  0  0  0  0  0
   40.3560   33.9040   38.8580 H   0  0  0  0  0  0  0  0  0  0  0  0
   40.6410   32.8060   40.8570 H   0  0  0  0  0  0  0  0  0  0  0  0
   39.6160   31.0600   39.8600 H   0  0  0  0  0  0  0  0  0  0  0  0
   37.0530   33.0450   40.3710 O   0  0  0  0  0  0  0  0  0  0  0  0
   36.3490   33.3610   39.7490 H   0  0  0  0  0  0  0  0  0  0  0  0
   38.8650   33.7100   41.4730 O   0  0  0  0  0  0  0  0  0  0  0  0
   39.3630   34.5400   41.6480 H   0  0  0  0  0  0  0  0  0  0  0  0
   38.0590   30.5330   38.0510 O   0  0  0  0  0  0  0  0  0  0  0  0
   37.1400   29.5670   38.1530 C   0  0  0  0  0  0  0  0  0  0  0  0
   37.3690   28.4330   38.9470 C   0  0  0  0  0  0  0  0  0  0  0  0
   36.3890   27.4600   39.0220 C   0  0  0  0  0  0  0  0  0  0  0  0
   35.2140   27.6320   38.3150 N   0  0  0  0  0  0  0  0  0  0  0  0
   35.0260   28.7380   37.5560 C   0  0  0  0  0  0  0  0  0  0  0  0
   35.9850   29.6970   37.4790 N   0  0  0  0  0  0  0  0  0  0  0  0
   38.2940   28.2920   39.5080 H   0  0  0  0  0  0  0  0  0  0  0  0
   34.0930   28.8320   37.0190 H   0  0  0  0  0  0  0  0  0  0  0  0
   36.5760   26.2150   39.8330 C   0  0  0  0  0  0  0  0  0  0  0  0
   36.2390   24.8940   39.1450 C   0  0  0  0  0  0  0  0  0  0  0  0
   37.6590   25.3220   39.5640 C   0  0  0  0  0  0  0  0  0  0  0  0
   36.1800   26.3220   40.8770 H   0  0  0  0  0  0  0  0  0  0  0  0
   35.8150   24.1270   39.8200 H   0  0  0  0  0  0  0  0  0  0  0  0
   35.9700   24.9250   38.0800 H   0  0  0  0  0  0  0  0  0  0  0  0
   38.1830   24.7110   40.3100 H   0  0  0  0  0  0  0  0  0  0  0  0
   38.3050   25.5380   38.6750 H   0  0  0  0  0  0  0  0  0  0  0  0
   38.8480   31.1120   41.8660 O   0  0  0  0  0  0  0  0  0  0  0  0
   39.6580   30.3090   42.5600 C   0  0  0  0  0  0  0  0  0  0  0  0
   40.6780   30.8040   43.2590 O   0  0  0  0  0  0  0  0  0  0  0  0
   37.0160   28.8320   42.6040 Cl  0  0  0  0  0  0  0  0  0  0  0  0
   38.5630   28.0090   42.7960 C   0  0  0  0  0  0  0  0  0  0  0  0
   39.6820   28.8120   42.7620 C   0  0  0  0  0  0  0  0  0  0  0  0
   40.8420   28.0980   42.9180 C   0  0  0  0  0  0  0  0  0  0  0  0
   41.8080   28.6000   42.9110 H   0  0  0  0  0  0  0  0  0  0  0  0
   40.8800   26.7520   43.0870 C   0  0  0  0  0  3  0  0  0  0  0  0
   39.7270   26.0270   43.1080 C   0  0  0  0  0  0  0  0  0  0  0  0
   39.7800   24.3030   43.3250 Cl  0  0  0  0  0  0  0  0  0  0  0  0
   38.5080   26.6500   42.9600 C   0  0  0  0  0  0  0  0  0  0  0  0
   37.5780   26.1280   42.9710 H   0  0  0  0  0  0  0  0  0  0  0  0
  1  7  1  1  0  0  0
  1 13  1  0  0  0  0
  1  6  1  0  0  0  0
  2  8  1  6  0  0  0
  2  1  1  0  0  0  0
  3  2  1  0  0  0  0
  3  4  1  0  0  0  0
  4  5  1  0  0  0  0
  5  6  1  0  0  0  0
  5 11  1  1  0  0  0
  5 15  1  0  0  0  0
  6 12  1  6  0  0  0
  6 34  1  0  0  0  0
  9  4  1  0  0  0  0
 10  4  1  0  0  0  0
 14 13  1  0  0  0  0
 15 16  1  0  0  0  0
 17 18  1  0  0  0  0
 17  2  1  0  0  0  0
 18 19  1  0  0  0  0
 19 20  2  0  0  0  0
 19 24  1  0  0  0  0
 20 26  1  0  0  0  0
 21 20  1  0  0  0  0
 22 21  2  0  0  0  0
 23 22  1  0  0  0  0
 23 18  2  0  0  0  0
 25 22  1  0  0  0  0
 26 29  1  0  0  0  0
 27 28  1  0  0  0  0
 27 30  1  0  0  0  0
 27 26  1  0  0  0  0
 28 26  1  0  0  0  0
 28 32  1  0  0  0  0
 31 27  1  0  0  0  0
 33 28  1  0  0  0  0
 34 35  1  0  0  0  0
 35 39  1  0  0  0  0
 35 36  2  0  0  0  0
 37 38  1  0  0  0  0
 38 45  1  0  0  0  0
 39 38  2  0  0  0  0
 39 40  1  0  0  0  0
 40 42  2  0  0  0  0
 41 40  1  0  0  0  0
 42 43  1  0  0  0  0
 43 44  1  0  0  0  0
 45 46  1  0  0  0  0
 45 43  2  0  0  0  0
M  END
>  <minimizedAffinity>
-5.96270323

$$$$
