
 OpenBabel03252501563D

 22 23  0  0  0  0  0  0  0  0999 V2000
   40.6620   32.6160   39.0540 C   0  0  0  0  0  0  0  0  0  0  0  0
   40.1340   31.5710   39.7970 C   0  0  0  0  0  0  0  0  0  0  0  0
   39.2700   31.8670   40.8470 C   0  0  0  0  0  0  0  0  0  0  0  0
   38.9920   33.1670   41.0810 N   0  0  0  0  0  0  0  0  0  0  0  0
   39.5190   34.1610   40.3410 C   0  0  0  0  0  0  0  0  0  0  0  0
   40.3570   33.9050   39.3210 N   0  0  0  0  0  0  0  0  0  0  0  0
   41.3390   32.4550   38.2200 H   0  0  0  0  0  0  0  0  0  0  0  0
   39.1770   35.1220   40.6960 H   0  0  0  0  0  0  0  0  0  0  0  0
   36.7030   31.1450   39.6860 Cl  0  0  0  0  0  0  0  0  0  0  0  0
   37.4720   30.3700   41.0810 C   0  0  0  0  0  0  0  0  0  0  0  0
   38.7090   30.7550   41.5590 C   0  0  0  0  0  0  0  0  0  0  0  0
   39.2130   30.0730   42.6420 C   0  0  0  0  0  0  0  0  0  0  0  0
   40.1960   30.4050   42.9930 H   0  0  0  0  0  0  0  0  0  0  0  0
   38.4980   29.0380   43.2290 C   0  0  0  0  0  3  0  0  0  0  0  0
   37.2550   28.6680   42.7360 C   0  0  0  0  0  0  0  0  0  0  0  0
   36.3610   27.3410   43.4930 Cl  0  0  0  0  0  0  0  0  0  0  0  0
   36.7430   29.3550   41.6380 C   0  0  0  0  0  0  0  0  0  0  0  0
   35.7840   29.0440   41.2770 H   0  0  0  0  0  0  0  0  0  0  0  0
   40.5440   30.2030   39.3430 C   0  0  0  0  0  0  0  0  0  0  0  0
   40.4280   29.4810   40.1750 H   0  0  0  0  0  0  0  0  0  0  0  0
   39.8820   29.8410   38.5270 H   0  0  0  0  0  0  0  0  0  0  0  0
   41.6000   30.2110   39.0430 H   0  0  0  0  0  0  0  0  0  0  0  0
  1  6  2  0  0  0  0
  1  2  1  0  0  0  0
  2  3  2  0  0  0  0
  3  4  1  0  0  0  0
  3 11  1  0  0  0  0
  5  8  1  0  0  0  0
  5  4  2  0  0  0  0
  6  5  1  0  0  0  0
  7  1  1  0  0  0  0
  9 10  1  0  0  0  0
 10 11  2  0  0  0  0
 10 17  1  0  0  0  0
 11 12  1  0  0  0  0
 12 13  1  0  0  0  0
 12 14  2  0  0  0  0
 15 14  1  0  0  0  0
 15 16  1  0  0  0  0
 17 15  2  0  0  0  0
 18 17  1  0  0  0  0
 19  2  1  0  0  0  0
 19 20  1  0  0  0  0
 21 19  1  0  0  0  0
 22 19  1  0  0  0  0
M  END
>  <minimizedAffinity>
-4.65372181

$$$$

 OpenBabel03252501563D

 22 23  0  0  0  0  0  0  0  0999 V2000
   39.4190   32.1500   41.3500 C   0  0  0  0  0  0  0  0  0  0  0  0
   39.1060   30.8490   41.7130 C   0  0  0  0  0  0  0  0  0  0  0  0
   37.8600   30.3380   41.3640 C   0  0  0  0  0  0  0  0  0  0  0  0
   37.0210   31.1480   40.6830 N   0  0  0  0  0  0  0  0  0  0  0  0
   37.3530   32.4080   40.3430 C   0  0  0  0  0  0  0  0  0  0  0  0
   38.5500   32.9280   40.6660 N   0  0  0  0  0  0  0  0  0  0  0  0
   40.3750   32.6080   41.5870 H   0  0  0  0  0  0  0  0  0  0  0  0
   36.5420   32.8840   39.8120 H   0  0  0  0  0  0  0  0  0  0  0  0
   38.4610   28.6020   39.1090 Cl  0  0  0  0  0  0  0  0  0  0  0  0
   37.8320   28.0880   40.6840 C   0  0  0  0  0  0  0  0  0  0  0  0
   37.5950   28.9730   41.7170 C   0  0  0  0  0  0  0  0  0  0  0  0
   37.1170   28.4590   42.9000 C   0  0  0  0  0  0  0  0  0  0  0  0
   36.9420   29.1900   43.6960 H   0  0  0  0  0  0  0  0  0  0  0  0
   36.8820   27.0980   43.0410 C   0  0  0  0  0  3  0  0  0  0  0  0
   37.1230   26.2240   41.9910 C   0  0  0  0  0  0  0  0  0  0  0  0
   36.8250   24.4910   42.1920 Cl  0  0  0  0  0  0  0  0  0  0  0  0
   37.6100   26.7420   40.7930 C   0  0  0  0  0  0  0  0  0  0  0  0
   37.7910   26.0430   40.0020 H   0  0  0  0  0  0  0  0  0  0  0  0
   40.1970   30.1140   42.4300 C   0  0  0  0  0  0  0  0  0  0  0  0
   39.7650   29.2790   43.0170 H   0  0  0  0  0  0  0  0  0  0  0  0
   40.9040   29.6500   41.7090 H   0  0  0  0  0  0  0  0  0  0  0  0
   40.7070   30.7920   43.1270 H   0  0  0  0  0  0  0  0  0  0  0  0
  1  7  1  0  0  0  0
  1  2  1  0  0  0  0
  2 19  1  0  0  0  0
  3  2  2  0  0  0  0
  3 11  1  0  0  0  0
  4  3  1  0  0  0  0
  5  6  1  0  0  0  0
  5  4  2  0  0  0  0
  6  1  2  0  0  0  0
  8  5  1  0  0  0  0
  9 10  1  0  0  0  0
 10 17  2  0  0  0  0
 10 11  1  0  0  0  0
 11 12  2  0  0  0  0
 12 14  1  0  0  0  0
 12 13  1  0  0  0  0
 15 16  1  0  0  0  0
 15 14  2  0  0  0  0
 17 15  1  0  0  0  0
 18 17  1  0  0  0  0
 19 20  1  0  0  0  0
 19 22  1  0  0  0  0
 21 19  1  0  0  0  0
M  END
>  <minimizedAffinity>
-4.56507874

$$$$

 OpenBabel03252501563D

 22 23  0  0  0  0  0  0  0  0999 V2000
   37.3960   32.2580   40.3500 C   0  0  0  0  0  0  0  0  0  0  0  0
   37.1450   30.9320   40.6710 C   0  0  0  0  0  0  0  0  0  0  0  0
   38.1150   30.2150   41.3630 C   0  0  0  0  0  0  0  0  0  0  0  0
   39.2560   30.8610   41.6860 N   0  0  0  0  0  0  0  0  0  0  0  0
   39.4720   32.1500   41.3630 C   0  0  0  0  0  0  0  0  0  0  0  0
   38.5510   32.8670   40.6950 N   0  0  0  0  0  0  0  0  0  0  0  0
   36.6790   32.8740   39.8150 H   0  0  0  0  0  0  0  0  0  0  0  0
   40.4450   32.4700   41.7060 H   0  0  0  0  0  0  0  0  0  0  0  0
   39.0890   28.4020   39.3080 Cl  0  0  0  0  0  0  0  0  0  0  0  0
   38.2040   27.9420   40.7710 C   0  0  0  0  0  0  0  0  0  0  0  0
   37.7950   28.8620   41.7160 C   0  0  0  0  0  0  0  0  0  0  0  0
   37.1240   28.3880   42.8190 C   0  0  0  0  0  0  0  0  0  0  0  0
   36.8170   29.1460   43.5470 H   0  0  0  0  0  0  0  0  0  0  0  0
   36.8690   27.0320   42.9690 C   0  0  0  0  0  3  0  0  0  0  0  0
   37.2840   26.1220   42.0080 C   0  0  0  0  0  0  0  0  0  0  0  0
   36.9570   24.3960   42.2200 Cl  0  0  0  0  0  0  0  0  0  0  0  0
   37.9660   26.5990   40.8910 C   0  0  0  0  0  0  0  0  0  0  0  0
   38.2790   25.8730   40.1680 H   0  0  0  0  0  0  0  0  0  0  0  0
   35.7980   30.4250   40.2500 C   0  0  0  0  0  0  0  0  0  0  0  0
   35.8210   29.3190   40.1730 H   0  0  0  0  0  0  0  0  0  0  0  0
   35.0270   30.6650   41.0140 H   0  0  0  0  0  0  0  0  0  0  0  0
   35.5400   30.8300   39.2630 H   0  0  0  0  0  0  0  0  0  0  0  0
  1  2  2  0  0  0  0
  1  6  1  0  0  0  0
  2  3  1  0  0  0  0
  3  4  2  0  0  0  0
  3 11  1  0  0  0  0
  5  4  1  0  0  0  0
  5  8  1  0  0  0  0
  6  5  2  0  0  0  0
  7  1  1  0  0  0  0
  9 10  1  0  0  0  0
 10 17  2  0  0  0  0
 10 11  1  0  0  0  0
 11 12  2  0  0  0  0
 12 14  1  0  0  0  0
 12 13  1  0  0  0  0
 15 16  1  0  0  0  0
 15 14  2  0  0  0  0
 17 15  1  0  0  0  0
 18 17  1  0  0  0  0
 19  2  1  0  0  0  0
 19 21  1  0  0  0  0
 20 19  1  0  0  0  0
 22 19  1  0  0  0  0
M  END
>  <minimizedAffinity>
-4.52079725

$$$$

 OpenBabel03252501563D

 22 23  0  0  0  0  0  0  0  0999 V2000
   36.9870   25.2560   42.5000 C   0  0  0  0  0  0  0  0  0  0  0  0
   37.0140   26.6210   42.2560 C   0  0  0  0  0  0  0  0  0  0  0  0
   36.8740   27.0690   40.9470 C   0  0  0  0  0  0  0  0  0  0  0  0
   36.7160   26.1390   39.9820 N   0  0  0  0  0  0  0  0  0  0  0  0
   36.6920   24.8200   40.2490 C   0  0  0  0  0  0  0  0  0  0  0  0
   36.8250   24.3580   41.5040 N   0  0  0  0  0  0  0  0  0  0  0  0
   37.0870   24.8390   43.4980 H   0  0  0  0  0  0  0  0  0  0  0  0
   36.5640   24.2500   39.3390 H   0  0  0  0  0  0  0  0  0  0  0  0
   39.5430   27.9940   40.2530 Cl  0  0  0  0  0  0  0  0  0  0  0  0
   38.1020   29.0080   40.4380 C   0  0  0  0  0  0  0  0  0  0  0  0
   36.8600   28.4900   40.7450 C   0  0  0  0  0  0  0  0  0  0  0  0
   35.8100   29.3720   40.8530 C   0  0  0  0  0  0  0  0  0  0  0  0
   34.8410   28.9250   41.0980 H   0  0  0  0  0  0  0  0  0  0  0  0
   36.0010   30.7330   40.6600 C   0  0  0  0  0  3  0  0  0  0  0  0
   37.2570   31.2360   40.3540 C   0  0  0  0  0  0  0  0  0  0  0  0
   37.4800   32.9740   40.1030 Cl  0  0  0  0  0  0  0  0  0  0  0  0
   38.3220   30.3450   40.2420 C   0  0  0  0  0  0  0  0  0  0  0  0
   39.2780   30.7620   40.0010 H   0  0  0  0  0  0  0  0  0  0  0  0
   37.1610   27.4770   43.4770 C   0  0  0  0  0  0  0  0  0  0  0  0
   37.5650   28.4700   43.1940 H   0  0  0  0  0  0  0  0  0  0  0  0
   36.1730   27.6700   43.9490 H   0  0  0  0  0  0  0  0  0  0  0  0
   37.8670   27.0100   44.1770 H   0  0  0  0  0  0  0  0  0  0  0  0
  1  7  1  0  0  0  0
  2  1  1  0  0  0  0
  2 19  1  0  0  0  0
  3  2  2  0  0  0  0
  4  5  2  0  0  0  0
  4  3  1  0  0  0  0
  5  6  1  0  0  0  0
  6  1  2  0  0  0  0
  8  5  1  0  0  0  0
  9 10  1  0  0  0  0
 10 11  1  0  0  0  0
 11 12  2  0  0  0  0
 11  3  1  0  0  0  0
 12 13  1  0  0  0  0
 14 12  1  0  0  0  0
 15 14  2  0  0  0  0
 16 15  1  0  0  0  0
 17 15  1  0  0  0  0
 17 10  2  0  0  0  0
 18 17  1  0  0  0  0
 19 21  1  0  0  0  0
 19 22  1  0  0  0  0
 20 19  1  0  0  0  0
M  END
>  <minimizedAffinity>
-4.44772625

$$$$

 OpenBabel03252501563D

 22 23  0  0  0  0  0  0  0  0999 V2000
   39.9080   32.4570   40.7650 C   0  0  0  0  0  0  0  0  0  0  0  0
   38.9610   31.5020   40.4230 C   0  0  0  0  0  0  0  0  0  0  0  0
   37.7120   31.9270   39.9810 C   0  0  0  0  0  0  0  0  0  0  0  0
   37.4940   33.2570   39.9110 N   0  0  0  0  0  0  0  0  0  0  0  0
   38.4330   34.1610   40.2490 C   0  0  0  0  0  0  0  0  0  0  0  0
   39.6480   33.7800   40.6780 N   0  0  0  0  0  0  0  0  0  0  0  0
   40.9020   32.1930   41.1130 H   0  0  0  0  0  0  0  0  0  0  0  0
   38.0540   35.1660   40.1280 H   0  0  0  0  0  0  0  0  0  0  0  0
   37.8970   31.4650   37.1160 Cl  0  0  0  0  0  0  0  0  0  0  0  0
   36.7900   30.6520   38.2340 C   0  0  0  0  0  0  0  0  0  0  0  0
   36.7800   30.9080   39.5910 C   0  0  0  0  0  0  0  0  0  0  0  0
   35.8840   30.2080   40.3650 C   0  0  0  0  0  0  0  0  0  0  0  0
   35.9050   30.4380   41.4360 H   0  0  0  0  0  0  0  0  0  0  0  0
   35.0240   29.2800   39.7960 C   0  0  0  0  0  3  0  0  0  0  0  0
   35.0470   29.0370   38.4300 C   0  0  0  0  0  0  0  0  0  0  0  0
   33.9470   27.8440   37.7230 Cl  0  0  0  0  0  0  0  0  0  0  0  0
   35.9540   29.7430   37.6440 C   0  0  0  0  0  0  0  0  0  0  0  0
   35.9520   29.5310   36.5940 H   0  0  0  0  0  0  0  0  0  0  0  0
   39.4260   30.0820   40.5390 C   0  0  0  0  0  0  0  0  0  0  0  0
   38.5520   29.4080   40.6410 H   0  0  0  0  0  0  0  0  0  0  0  0
   39.9570   29.7610   39.6160 H   0  0  0  0  0  0  0  0  0  0  0  0
   40.0510   29.9670   41.4340 H   0  0  0  0  0  0  0  0  0  0  0  0
  1  7  1  0  0  0  0
  2 19  1  0  0  0  0
  2  1  2  0  0  0  0
  3  2  1  0  0  0  0
  4  3  2  0  0  0  0
  4  5  1  0  0  0  0
  5  6  2  0  0  0  0
  6  1  1  0  0  0  0
  8  5  1  0  0  0  0
  9 10  1  0  0  0  0
 10 11  1  0  0  0  0
 11  3  1  0  0  0  0
 11 12  2  0  0  0  0
 12 13  1  0  0  0  0
 14 12  1  0  0  0  0
 15 14  2  0  0  0  0
 16 15  1  0  0  0  0
 17 10  2  0  0  0  0
 17 15  1  0  0  0  0
 18 17  1  0  0  0  0
 19 20  1  0  0  0  0
 19 22  1  0  0  0  0
 21 19  1  0  0  0  0
M  END
>  <minimizedAffinity>
-4.40767145

$$$$

 OpenBabel03252501563D

 22 23  0  0  0  0  0  0  0  0999 V2000
   39.5110   24.4070   42.9280 C   0  0  0  0  0  0  0  0  0  0  0  0
   38.5140   25.0870   42.2460 C   0  0  0  0  0  0  0  0  0  0  0  0
   38.7930   26.3530   41.7400 C   0  0  0  0  0  0  0  0  0  0  0  0
   40.0330   26.8470   41.9440 N   0  0  0  0  0  0  0  0  0  0  0  0
   40.9820   26.1630   42.6090 C   0  0  0  0  0  0  0  0  0  0  0  0
   40.7400   24.9380   43.1090 N   0  0  0  0  0  0  0  0  0  0  0  0
   39.3610   23.4150   43.3440 H   0  0  0  0  0  0  0  0  0  0  0  0
   41.8950   26.7370   42.6670 H   0  0  0  0  0  0  0  0  0  0  0  0
   37.3210   28.1560   43.4830 Cl  0  0  0  0  0  0  0  0  0  0  0  0
   36.9860   27.8560   41.7700 C   0  0  0  0  0  0  0  0  0  0  0  0
   37.7490   27.0010   40.9990 C   0  0  0  0  0  0  0  0  0  0  0  0
   37.4020   26.8550   39.6760 C   0  0  0  0  0  0  0  0  0  0  0  0
   38.0300   26.1700   39.0970 H   0  0  0  0  0  0  0  0  0  0  0  0
   36.3220   27.5440   39.1430 C   0  0  0  0  0  3  0  0  0  0  0  0
   35.5650   28.3960   39.9330 C   0  0  0  0  0  0  0  0  0  0  0  0
   34.1960   29.2720   39.2320 Cl  0  0  0  0  0  0  0  0  0  0  0  0
   35.9150   28.5480   41.2720 C   0  0  0  0  0  0  0  0  0  0  0  0
   35.3150   29.2160   41.8560 H   0  0  0  0  0  0  0  0  0  0  0  0
   37.2240   24.3380   42.1000 C   0  0  0  0  0  0  0  0  0  0  0  0
   36.3940   25.0500   41.9210 H   0  0  0  0  0  0  0  0  0  0  0  0
   37.2520   23.6680   41.2140 H   0  0  0  0  0  0  0  0  0  0  0  0
   37.0070   23.7880   43.0250 H   0  0  0  0  0  0  0  0  0  0  0  0
  1  6  1  0  0  0  0
  1  7  1  0  0  0  0
  2  1  2  0  0  0  0
  3  4  2  0  0  0  0
  3  2  1  0  0  0  0
  4  5  1  0  0  0  0
  5  8  1  0  0  0  0
  5  6  2  0  0  0  0
 10  9  1  0  0  0  0
 11  3  1  0  0  0  0
 11 10  2  0  0  0  0
 12 11  1  0  0  0  0
 13 12  1  0  0  0  0
 14 12  2  0  0  0  0
 14 15  1  0  0  0  0
 15 17  2  0  0  0  0
 16 15  1  0  0  0  0
 17 10  1  0  0  0  0
 17 18  1  0  0  0  0
 19  2  1  0  0  0  0
 19 22  1  0  0  0  0
 20 19  1  0  0  0  0
 21 19  1  0  0  0  0
M  END
>  <minimizedAffinity>
-4.38552284

$$$$

 OpenBabel03252501563D

 22 23  0  0  0  0  0  0  0  0999 V2000
   36.9490   32.3430   39.8650 C   0  0  0  0  0  0  0  0  0  0  0  0
   37.2190   31.1290   40.4790 C   0  0  0  0  0  0  0  0  0  0  0  0
   38.3930   30.9960   41.2130 C   0  0  0  0  0  0  0  0  0  0  0  0
   39.2090   32.0700   41.2850 N   0  0  0  0  0  0  0  0  0  0  0  0
   38.9200   33.2370   40.6800 C   0  0  0  0  0  0  0  0  0  0  0  0
   37.7930   33.3940   39.9640 N   0  0  0  0  0  0  0  0  0  0  0  0
   36.0500   32.5150   39.2810 H   0  0  0  0  0  0  0  0  0  0  0  0
   39.7040   33.9600   40.8560 H   0  0  0  0  0  0  0  0  0  0  0  0
   40.1560   29.3310   39.6070 Cl  0  0  0  0  0  0  0  0  0  0  0  0
   39.4180   28.8810   41.1530 C   0  0  0  0  0  0  0  0  0  0  0  0
   38.6090   29.7400   41.8710 C   0  0  0  0  0  0  0  0  0  0  0  0
   38.0990   29.2860   43.0650 C   0  0  0  0  0  0  0  0  0  0  0  0
   37.4630   29.9940   43.6060 H   0  0  0  0  0  0  0  0  0  0  0  0
   38.3910   28.0090   43.5250 C   0  0  0  0  0  3  0  0  0  0  0  0
   39.2040   27.1600   42.7890 C   0  0  0  0  0  0  0  0  0  0  0  0
   39.5710   25.5380   43.3950 Cl  0  0  0  0  0  0  0  0  0  0  0  0
   39.7230   27.6170   41.5800 C   0  0  0  0  0  0  0  0  0  0  0  0
   40.3510   26.9410   41.0360 H   0  0  0  0  0  0  0  0  0  0  0  0
   36.1600   30.0830   40.3020 C   0  0  0  0  0  0  0  0  0  0  0  0
   36.5960   29.0770   40.4570 H   0  0  0  0  0  0  0  0  0  0  0  0
   35.3610   30.1940   41.0660 H   0  0  0  0  0  0  0  0  0  0  0  0
   35.7600   30.1280   39.2800 H   0  0  0  0  0  0  0  0  0  0  0  0
  1  6  2  0  0  0  0
  1  2  1  0  0  0  0
  2  3  2  0  0  0  0
  3  4  1  0  0  0  0
  3 11  1  0  0  0  0
  5  8  1  0  0  0  0
  5  4  2  0  0  0  0
  6  5  1  0  0  0  0
  7  1  1  0  0  0  0
  9 10  1  0  0  0  0
 10 17  2  0  0  0  0
 10 11  1  0  0  0  0
 11 12  2  0  0  0  0
 12 14  1  0  0  0  0
 12 13  1  0  0  0  0
 15 16  1  0  0  0  0
 15 14  2  0  0  0  0
 17 15  1  0  0  0  0
 18 17  1  0  0  0  0
 19 20  1  0  0  0  0
 19  2  1  0  0  0  0
 19 21  1  0  0  0  0
 22 19  1  0  0  0  0
M  END
>  <minimizedAffinity>
-4.31107473

$$$$

 OpenBabel03252501563D

 22 23  0  0  0  0  0  0  0  0999 V2000
   37.6250   26.2440   41.3660 C   0  0  0  0  0  0  0  0  0  0  0  0
   37.9530   27.5550   41.0510 C   0  0  0  0  0  0  0  0  0  0  0  0
   37.5720   28.5680   41.9240 C   0  0  0  0  0  0  0  0  0  0  0  0
   36.9000   28.2120   43.0400 N   0  0  0  0  0  0  0  0  0  0  0  0
   36.5970   26.9300   43.3210 C   0  0  0  0  0  0  0  0  0  0  0  0
   36.9530   25.9300   42.4950 N   0  0  0  0  0  0  0  0  0  0  0  0
   37.8960   25.4060   40.7310 H   0  0  0  0  0  0  0  0  0  0  0  0
   36.0530   26.8640   44.2520 H   0  0  0  0  0  0  0  0  0  0  0  0
   35.4660   29.8720   40.3990 Cl  0  0  0  0  0  0  0  0  0  0  0  0
   37.0310   30.5790   40.8330 C   0  0  0  0  0  0  0  0  0  0  0  0
   37.9720   29.9030   41.5850 C   0  0  0  0  0  0  0  0  0  0  0  0
   39.1490   30.5570   41.8700 C   0  0  0  0  0  0  0  0  0  0  0  0
   39.8700   29.9900   42.4680 H   0  0  0  0  0  0  0  0  0  0  0  0
   39.3750   31.8480   41.4150 C   0  0  0  0  0  3  0  0  0  0  0  0
   38.4190   32.5110   40.6590 C   0  0  0  0  0  0  0  0  0  0  0  0
   38.7220   34.1610   40.0940 Cl  0  0  0  0  0  0  0  0  0  0  0  0
   37.2260   31.8530   40.3700 C   0  0  0  0  0  0  0  0  0  0  0  0
   36.5050   32.3910   39.7890 H   0  0  0  0  0  0  0  0  0  0  0  0
   38.7340   27.7230   39.7830 C   0  0  0  0  0  0  0  0  0  0  0  0
   38.6140   28.7560   39.4020 H   0  0  0  0  0  0  0  0  0  0  0  0
   39.8220   27.5870   39.9670 H   0  0  0  0  0  0  0  0  0  0  0  0
   38.3570   27.0310   39.0190 H   0  0  0  0  0  0  0  0  0  0  0  0
  1  6  1  0  0  0  0
  2  1  2  0  0  0  0
  2  3  1  0  0  0  0
  3  4  2  0  0  0  0
  4  5  1  0  0  0  0
  5  8  1  0  0  0  0
  6  5  2  0  0  0  0
  7  1  1  0  0  0  0
  9 10  1  0  0  0  0
 10 11  1  0  0  0  0
 11 12  2  0  0  0  0
 11  3  1  0  0  0  0
 12 13  1  0  0  0  0
 14 12  1  0  0  0  0
 15 14  2  0  0  0  0
 16 15  1  0  0  0  0
 17 15  1  0  0  0  0
 17 10  2  0  0  0  0
 18 17  1  0  0  0  0
 19 21  1  0  0  0  0
 19  2  1  0  0  0  0
 20 19  1  0  0  0  0
 22 19  1  0  0  0  0
M  END
>  <minimizedAffinity>
-4.26370811

$$$$

 OpenBabel03252501563D

 22 23  0  0  0  0  0  0  0  0999 V2000
   39.4450   31.6890   39.6310 C   0  0  0  0  0  0  0  0  0  0  0  0
   39.1080   30.3780   39.9310 C   0  0  0  0  0  0  0  0  0  0  0  0
   37.8360   30.1100   40.4250 C   0  0  0  0  0  0  0  0  0  0  0  0
   36.9950   31.1540   40.5840 N   0  0  0  0  0  0  0  0  0  0  0  0
   37.3490   32.4170   40.2830 C   0  0  0  0  0  0  0  0  0  0  0  0
   38.5720   32.7050   39.8030 N   0  0  0  0  0  0  0  0  0  0  0  0
   40.4190   31.9660   39.2380 H   0  0  0  0  0  0  0  0  0  0  0  0
   36.5370   33.0990   40.4890 H   0  0  0  0  0  0  0  0  0  0  0  0
   38.4070   29.4540   43.2010 Cl  0  0  0  0  0  0  0  0  0  0  0  0
   37.7840   28.3400   41.9720 C   0  0  0  0  0  0  0  0  0  0  0  0
   37.5130   28.7350   40.6770 C   0  0  0  0  0  0  0  0  0  0  0  0
   37.0210   27.7850   39.8110 C   0  0  0  0  0  0  0  0  0  0  0  0
   36.8180   28.1350   38.7940 H   0  0  0  0  0  0  0  0  0  0  0  0
   36.8090   26.4800   40.2320 C   0  0  0  0  0  3  0  0  0  0  0  0
   37.0890   26.1010   41.5360 C   0  0  0  0  0  0  0  0  0  0  0  0
   36.8050   24.4330   42.0560 Cl  0  0  0  0  0  0  0  0  0  0  0  0
   37.5860   27.0600   42.4160 C   0  0  0  0  0  0  0  0  0  0  0  0
   37.7890   26.7400   43.4170 H   0  0  0  0  0  0  0  0  0  0  0  0
   40.1790   29.3690   39.6430 C   0  0  0  0  0  0  0  0  0  0  0  0
   40.0090   28.4570   40.2490 H   0  0  0  0  0  0  0  0  0  0  0  0
   40.1420   29.0440   38.5800 H   0  0  0  0  0  0  0  0  0  0  0  0
   41.1600   29.7810   39.9130 H   0  0  0  0  0  0  0  0  0  0  0  0
  1  6  2  0  0  0  0
  1  2  1  0  0  0  0
  2  3  2  0  0  0  0
  3  4  1  0  0  0  0
  3 11  1  0  0  0  0
  5  8  1  0  0  0  0
  5  4  2  0  0  0  0
  6  5  1  0  0  0  0
  7  1  1  0  0  0  0
 10 17  1  0  0  0  0
 10  9  1  0  0  0  0
 11 10  2  0  0  0  0
 12 14  2  0  0  0  0
 12 11  1  0  0  0  0
 13 12  1  0  0  0  0
 14 15  1  0  0  0  0
 15 16  1  0  0  0  0
 15 17  2  0  0  0  0
 17 18  1  0  0  0  0
 19 22  1  0  0  0  0
 19  2  1  0  0  0  0
 19 20  1  0  0  0  0
 21 19  1  0  0  0  0
M  END
>  <minimizedAffinity>
-4.16754675

$$$$
