REMARK  Name = 
REMARK  2 active torsions:
REMARK  status: ('A' for Active; 'I' for Inactive)
REMARK    1  A    between atoms: C_2  and  N_7
REMARK    2  A    between atoms: C_8  and  C_26
REMARK                            x       y       z     vdW  Elec       q    Type
REMARK                         _______ _______ _______ _____ _____    ______ ____
ROOT
ATOM      1  N   UNL     1      44.276  34.380  41.973  0.00  0.00    +0.000 N 
ATOM      2  C   UNL     1      44.427  33.392  40.968  0.00  0.00    +0.000 C 
ATOM      3  C   UNL     1      43.803  33.721  39.660  0.00  0.00    +0.000 C 
ATOM      4  N   UNL     1      42.625  34.465  39.676  0.00  0.00    +0.000 NA
ATOM      5  C   UNL     1      42.347  35.274  40.782  0.00  0.00    +0.000 C 
ATOM      6  C   UNL     1      43.636  35.581  41.528  0.00  0.00    +0.000 C 
ATOM      7  H   UNL     1      43.980  32.439  41.333  0.00  0.00    +0.000 HD
ATOM      8  H   UNL     1      44.564  34.279  39.038  0.00  0.00    +0.000 HD
ATOM      9  H   UNL     1      43.647  32.770  39.082  0.00  0.00    +0.000 HD
ATOM     10  H   UNL     1      41.839  34.151  39.108  0.00  0.00    +0.000 HD
ATOM     11  H   UNL     1      41.701  34.687  41.494  0.00  0.00    +0.000 HD
ATOM     12  H   UNL     1      41.811  36.211  40.606  0.00  0.00    +0.000 HD
ATOM     13  H   UNL     1      44.331  36.132  40.829  0.00  0.00    +0.000 HD
ATOM     14  H   UNL     1      43.361  36.304  42.298  0.00  0.00    +0.000 HD
ENDROOT
BRANCH   2  17
ATOM     15 CL   UNL     1      46.603  34.955  42.389  0.00  0.00    +0.000 Cl
ATOM     16  C   UNL     1      46.991  33.704  41.224  0.00  0.00    +0.000 A 
ATOM     17  C   UNL     1      45.873  33.091  40.670  0.00  0.00    +0.000 A 
ATOM     18  C   UNL     1      46.104  32.083  39.733  0.00  0.00    +0.000 A 
ATOM     19  H   UNL     1      45.363  31.504  39.206  0.00  0.00    +0.000 HD
ATOM     20  C   UNL     1      47.387  31.711  39.372  0.00  0.00    +0.000 A 
ATOM     21  C   UNL     1      48.482  32.334  39.934  0.00  0.00    +0.000 A 
ATOM     22 CL   UNL     1      50.152  31.964  39.570  0.00  0.00    +0.000 Cl
ATOM     23  C   UNL     1      48.244  33.325  40.856  0.00  0.00    +0.000 A 
ATOM     24  H   UNL     1      49.006  33.906  41.386  0.00  0.00    +0.000 HD
ENDBRANCH   2  17
BRANCH   1  26
ATOM     25  C   UNL     1      44.642  35.128  44.215  0.00  0.00    +0.000 A 
ATOM     26  C   UNL     1      44.764  34.083  43.278  0.00  0.00    +0.000 A 
ATOM     27  C   UNL     1      45.330  32.890  43.694  0.00  0.00    +0.000 A 
ATOM     28  N   UNL     1      45.743  32.775  44.977  0.00  0.00    +0.000 NA
ATOM     29  C   UNL     1      45.618  33.792  45.868  0.00  0.00    +0.000 A 
ATOM     30  N   UNL     1      45.069  34.959  45.479  0.00  0.00    +0.000 NA
ATOM     31  H   UNL     1      44.234  36.118  44.084  0.00  0.00    +0.000 HD
ATOM     32  H   UNL     1      45.408  32.108  42.960  0.00  0.00    +0.000 HD
ATOM     33  H   UNL     1      45.997  33.537  46.852  0.00  0.00    +0.000 HD
ENDBRANCH   1  26
TORSDOF 2
