
 OpenBabel03252509163D

 26 28  0  0  0  0  0  0  0  0999 V2000
   46.1130   33.0550   46.0840 C   0  0  0  0  0  0  0  0  0  0  0  0
   45.5980   32.7640   47.3770 C   0  0  0  0  0  0  0  0  0  0  0  0
   46.1270   31.7360   48.0770 C   0  0  0  0  0  0  0  0  0  0  0  0
   47.1710   30.9830   47.5060 C   0  0  0  0  0  0  0  0  0  0  0  0
   47.3890   31.8010   45.8950 S   0  0  0  0  0  0  0  0  0  0  0  0
   44.7820   33.4100   47.7380 H   0  0  0  0  0  0  0  0  0  0  0  0
   45.7390   31.5190   49.0490 H   0  0  0  0  0  0  0  0  0  0  0  0
   49.5210   31.3790   49.4470 Cl  0  0  0  0  0  0  0  0  0  0  0  0
   49.0230   29.8580   48.7410 C   0  0  0  0  0  0  0  0  0  0  0  0
   47.9400   29.9010   47.8920 C   0  0  0  0  0  0  0  0  0  0  0  0
   47.6510   28.6220   47.4010 C   0  0  0  0  0  0  0  0  0  0  0  0
   46.8170   28.4480   46.7040 H   0  0  0  0  0  0  0  0  0  0  0  0
   48.3470   27.4840   47.7180 C   0  0  0  0  0  3  0  0  0  0  0  0
   49.4130   27.5710   48.5790 C   0  0  0  0  0  0  0  0  0  0  0  0
   50.2960   26.1260   48.9820 Cl  0  0  0  0  0  0  0  0  0  0  0  0
   49.7720   28.7840   49.1130 C   0  0  0  0  0  0  0  0  0  0  0  0
   50.6040   28.8310   49.7810 H   0  0  0  0  0  0  0  0  0  0  0  0
   44.4080   36.0090   44.6270 C   0  0  0  0  0  0  0  0  0  0  0  0
   44.9850   36.0110   43.3330 C   0  0  0  0  0  0  0  0  0  0  0  0
   45.9230   35.0100   43.0200 C   0  0  0  0  0  0  0  0  0  0  0  0
   46.2270   34.0840   43.9940 N   0  0  0  0  0  0  0  0  0  0  0  0
   45.6430   34.1330   45.2130 C   0  0  0  0  0  0  0  0  0  0  0  0
   44.7350   35.0880   45.5380 N   0  0  0  0  0  0  0  0  0  0  0  0
   43.6920   36.7690   44.8730 H   0  0  0  0  0  0  0  0  0  0  0  0
   44.7380   36.7410   42.5830 H   0  0  0  0  0  0  0  0  0  0  0  0
   46.4120   34.9350   42.0590 H   0  0  0  0  0  0  0  0  0  0  0  0
  1  2  2  0  0  0  0
  2  6  1  0  0  0  0
  2  3  1  0  0  0  0
  3  7  1  0  0  0  0
  4 10  1  0  0  0  0
  4  3  2  0  0  0  0
  5  1  1  0  0  0  0
  5  4  1  0  0  0  0
  9 16  1  0  0  0  0
  9  8  1  0  0  0  0
 10  9  2  0  0  0  0
 11 13  2  0  0  0  0
 11 10  1  0  0  0  0
 12 11  1  0  0  0  0
 13 14  1  0  0  0  0
 14 15  1  0  0  0  0
 14 16  2  0  0  0  0
 16 17  1  0  0  0  0
 18 24  1  0  0  0  0
 18 23  1  0  0  0  0
 19 18  2  0  0  0  0
 20 19  1  0  0  0  0
 20 21  2  0  0  0  0
 21 22  1  0  0  0  0
 22 23  2  0  0  0  0
 22  1  1  0  0  0  0
 25 19  1  0  0  0  0
 26 20  1  0  0  0  0
M  END
>  <minimizedAffinity>
-4.9286952

>  <minimizedRMSD>
1.25886965

$$$$
