
 OpenBabel03252508503D

 29 31  0  0  0  0  0  0  0  0999 V2000
   45.8210   34.2080   41.0360 C   0  0  0  0  0  0  0  0  0  0  0  0
   46.4550   34.7740   42.1380 C   0  0  0  0  0  0  0  0  0  0  0  0
   47.8140   35.0360   42.0040 C   0  0  0  0  0  0  0  0  0  0  0  0
   48.4330   34.7290   40.8230 N   0  0  0  0  0  0  0  0  0  0  0  0
   47.7870   34.1870   39.7950 C   0  0  0  0  0  0  0  0  0  0  0  0
   46.4690   33.9220   39.8990 N   0  0  0  0  0  0  0  0  0  0  0  0
   48.3470   35.4790   42.8360 H   0  0  0  0  0  0  0  0  0  0  0  0
   48.2680   33.9400   38.8590 H   0  0  0  0  0  0  0  0  0  0  0  0
   45.7000   35.0560   43.3430 C   0  0  0  0  0  0  0  0  0  0  0  0
   45.0680   36.2540   43.5800 C   0  0  0  0  0  0  0  0  0  0  0  0
   44.4900   36.0750   44.8250 C   0  0  0  0  0  0  0  0  0  0  0  0
   44.7570   34.8340   45.3140 N   0  0  0  0  0  0  0  0  0  0  0  0
   45.4860   34.2500   44.3980 N   0  0  0  0  0  0  0  0  0  0  0  0
   45.0280   37.1300   42.9520 H   0  0  0  0  0  0  0  0  0  0  0  0
   43.8930   36.8440   45.3400 H   0  0  0  0  0  0  0  0  0  0  0  0
   44.4170   34.4870   46.2420 H   0  0  0  0  0  0  0  0  0  0  0  0
   44.4680   33.9290   41.1270 O   0  0  0  0  0  0  0  0  0  0  0  0
   43.4360   34.6480   40.5980 C   0  0  0  0  0  0  0  0  0  0  0  0
   43.2900   35.9250   40.6160 O   0  0  0  0  0  0  0  0  0  0  0  0
   40.6890   35.0110   41.8250 Cl  0  0  0  0  0  0  0  0  0  0  0  0
   40.9850   34.1110   40.3540 C   0  0  0  0  0  0  0  0  0  0  0  0
   42.2800   34.0180   39.8950 C   0  0  0  0  0  0  0  0  0  0  0  0
   42.3940   33.2890   38.7350 C   0  0  0  0  0  0  0  0  0  0  0  0
   43.3780   33.1570   38.2920 H   0  0  0  0  0  0  0  0  0  0  0  0
   41.3410   32.6990   38.0770 C   0  0  0  0  0  3  0  0  0  0  0  0
   40.0790   32.8400   38.6000 C   0  0  0  0  0  0  0  0  0  0  0  0
   38.7490   32.0890   37.7560 Cl  0  0  0  0  0  0  0  0  0  0  0  0
   39.8770   33.5550   39.7610 C   0  0  0  0  0  0  0  0  0  0  0  0
   38.8840   33.6660   40.1740 H   0  0  0  0  0  0  0  0  0  0  0  0
  1 17  1  0  0  0  0
  1  2  1  0  0  0  0
  2  9  1  0  0  0  0
  3  2  2  0  0  0  0
  3  7  1  0  0  0  0
  4  3  1  0  0  0  0
  5  6  1  0  0  0  0
  5  4  2  0  0  0  0
  6  1  2  0  0  0  0
  8  5  1  0  0  0  0
  9 10  1  0  0  0  0
  9 13  2  0  0  0  0
 10 11  2  0  0  0  0
 11 12  1  0  0  0  0
 11 15  1  0  0  0  0
 12 16  1  0  0  0  0
 13 12  1  0  0  0  0
 14 10  1  0  0  0  0
 18 19  2  0  0  0  0
 18 17  1  0  0  0  0
 21 20  1  0  0  0  0
 22 21  1  0  0  0  0
 22 18  1  0  0  0  0
 23 22  2  0  0  0  0
 24 23  1  0  0  0  0
 25 26  2  0  0  0  0
 25 23  1  0  0  0  0
 26 28  1  0  0  0  0
 27 26  1  0  0  0  0
 28 29  1  0  0  0  0
 28 21  2  0  0  0  0
M  END
>  <minimizedAffinity>
-5.81047201

>  <minimizedRMSD>
0.944983482

$$$$
