
 OpenBabel03252508493D

 29 31  0  0  0  0  0  0  0  0999 V2000
   45.7670   34.2390   41.0110 C   0  0  0  0  0  0  0  0  0  0  0  0
   46.4220   34.7590   42.1240 C   0  0  0  0  0  0  0  0  0  0  0  0
   47.7890   34.9790   41.9910 C   0  0  0  0  0  0  0  0  0  0  0  0
   48.3940   34.6770   40.8010 N   0  0  0  0  0  0  0  0  0  0  0  0
   47.7280   34.1810   39.7630 C   0  0  0  0  0  0  0  0  0  0  0  0
   46.4020   33.9580   39.8650 N   0  0  0  0  0  0  0  0  0  0  0  0
   48.3380   35.3830   42.8310 H   0  0  0  0  0  0  0  0  0  0  0  0
   48.1980   33.9400   38.8200 H   0  0  0  0  0  0  0  0  0  0  0  0
   45.6800   35.0380   43.3370 C   0  0  0  0  0  0  0  0  0  0  0  0
   45.1340   36.2660   43.6270 C   0  0  0  0  0  0  0  0  0  0  0  0
   44.5350   36.0710   44.8590 C   0  0  0  0  0  0  0  0  0  0  0  0
   44.7080   34.7930   45.2910 N   0  0  0  0  0  0  0  0  0  0  0  0
   45.4010   34.2010   44.3520 N   0  0  0  0  0  0  0  0  0  0  0  0
   45.1610   37.1710   43.0410 H   0  0  0  0  0  0  0  0  0  0  0  0
   43.9900   36.8560   45.4080 H   0  0  0  0  0  0  0  0  0  0  0  0
   44.3360   34.4280   46.2000 H   0  0  0  0  0  0  0  0  0  0  0  0
   44.4060   34.0030   41.1000 O   0  0  0  0  0  0  0  0  0  0  0  0
   43.3930   34.8520   40.7560 C   0  0  0  0  0  0  0  0  0  0  0  0
   43.2900   36.0980   41.0550 O   0  0  0  0  0  0  0  0  0  0  0  0
   41.9320   32.3500   41.6430 Cl  0  0  0  0  0  0  0  0  0  0  0  0
   41.4660   33.3070   40.2540 C   0  0  0  0  0  0  0  0  0  0  0  0
   42.2110   34.4260   39.9520 C   0  0  0  0  0  0  0  0  0  0  0  0
   41.7550   35.1000   38.8430 C   0  0  0  0  0  0  0  0  0  0  0  0
   42.2770   35.9980   38.5230 H   0  0  0  0  0  0  0  0  0  0  0  0
   40.6680   34.7190   38.0910 C   0  0  0  0  0  3  0  0  0  0  0  0
   39.9800   33.5900   38.4590 C   0  0  0  0  0  0  0  0  0  0  0  0
   38.6020   33.1160   37.4970 Cl  0  0  0  0  0  0  0  0  0  0  0  0
   40.3690   32.8550   39.5590 C   0  0  0  0  0  0  0  0  0  0  0  0
   39.8270   31.9670   39.8490 H   0  0  0  0  0  0  0  0  0  0  0  0
  1 17  1  0  0  0  0
  1  2  1  0  0  0  0
  2  9  1  0  0  0  0
  3  2  2  0  0  0  0
  3  7  1  0  0  0  0
  4  3  1  0  0  0  0
  5  6  1  0  0  0  0
  5  4  2  0  0  0  0
  6  1  2  0  0  0  0
  8  5  1  0  0  0  0
  9 10  1  0  0  0  0
  9 13  2  0  0  0  0
 10 11  2  0  0  0  0
 11 12  1  0  0  0  0
 11 15  1  0  0  0  0
 12 16  1  0  0  0  0
 13 12  1  0  0  0  0
 14 10  1  0  0  0  0
 18 19  2  0  0  0  0
 18 17  1  0  0  0  0
 21 20  1  0  0  0  0
 22 21  1  0  0  0  0
 22 18  1  0  0  0  0
 23 22  2  0  0  0  0
 24 23  1  0  0  0  0
 25 26  2  0  0  0  0
 25 23  1  0  0  0  0
 26 28  1  0  0  0  0
 27 26  1  0  0  0  0
 28 29  1  0  0  0  0
 28 21  2  0  0  0  0
M  END
>  <minimizedAffinity>
-5.96286106

>  <minimizedRMSD>
1.22526467

$$$$
