
 OpenBabel03252508503D

 29 31  0  0  0  0  0  0  0  0999 V2000
   45.9600   34.1920   41.0530 C   0  0  0  0  0  0  0  0  0  0  0  0
   46.5410   34.8130   42.1550 C   0  0  0  0  0  0  0  0  0  0  0  0
   47.8810   35.1640   42.0330 C   0  0  0  0  0  0  0  0  0  0  0  0
   48.5340   34.8830   40.8630 N   0  0  0  0  0  0  0  0  0  0  0  0
   47.9380   34.2870   39.8350 C   0  0  0  0  0  0  0  0  0  0  0  0
   46.6400   33.9360   39.9270 N   0  0  0  0  0  0  0  0  0  0  0  0
   48.3720   35.6510   42.8650 H   0  0  0  0  0  0  0  0  0  0  0  0
   48.4470   34.0610   38.9080 H   0  0  0  0  0  0  0  0  0  0  0  0
   45.7530   35.0600   43.3460 C   0  0  0  0  0  0  0  0  0  0  0  0
   45.0780   36.2340   43.5810 C   0  0  0  0  0  0  0  0  0  0  0  0
   44.4820   36.0240   44.8120 C   0  0  0  0  0  0  0  0  0  0  0  0
   44.7800   34.7890   45.2960 N   0  0  0  0  0  0  0  0  0  0  0  0
   45.5450   34.2370   44.3900 N   0  0  0  0  0  0  0  0  0  0  0  0
   45.0220   37.1140   42.9600 H   0  0  0  0  0  0  0  0  0  0  0  0
   43.8500   36.7690   45.3230 H   0  0  0  0  0  0  0  0  0  0  0  0
   44.4320   34.4210   46.2140 H   0  0  0  0  0  0  0  0  0  0  0  0
   44.6280   33.8250   41.1320 O   0  0  0  0  0  0  0  0  0  0  0  0
   43.5500   34.5010   40.6350 C   0  0  0  0  0  0  0  0  0  0  0  0
   43.3670   35.7720   40.6310 O   0  0  0  0  0  0  0  0  0  0  0  0
   43.9690   33.2600   37.9030 Cl  0  0  0  0  0  0  0  0  0  0  0  0
   42.4470   33.2200   38.7650 C   0  0  0  0  0  0  0  0  0  0  0  0
   42.3820   33.8200   40.0030 C   0  0  0  0  0  0  0  0  0  0  0  0
   41.1410   33.7280   40.5880 C   0  0  0  0  0  0  0  0  0  0  0  0
   40.9880   34.1720   41.5690 H   0  0  0  0  0  0  0  0  0  0  0  0
   40.0550   33.1050   40.0190 C   0  0  0  0  0  3  0  0  0  0  0  0
   40.2020   32.5310   38.7810 C   0  0  0  0  0  0  0  0  0  0  0  0
   38.8180   31.7440   38.0670 Cl  0  0  0  0  0  0  0  0  0  0  0  0
   41.4130   32.5780   38.1250 C   0  0  0  0  0  0  0  0  0  0  0  0
   41.5310   32.1260   37.1490 H   0  0  0  0  0  0  0  0  0  0  0  0
  1 17  1  0  0  0  0
  1  2  1  0  0  0  0
  2  9  1  0  0  0  0
  3  2  2  0  0  0  0
  3  7  1  0  0  0  0
  4  3  1  0  0  0  0
  5  6  1  0  0  0  0
  5  4  2  0  0  0  0
  6  1  2  0  0  0  0
  8  5  1  0  0  0  0
  9 10  1  0  0  0  0
  9 13  2  0  0  0  0
 10 11  2  0  0  0  0
 11 12  1  0  0  0  0
 11 15  1  0  0  0  0
 12 16  1  0  0  0  0
 13 12  1  0  0  0  0
 14 10  1  0  0  0  0
 18 17  1  0  0  0  0
 19 18  2  0  0  0  0
 20 21  1  0  0  0  0
 21 22  1  0  0  0  0
 22 23  2  0  0  0  0
 22 18  1  0  0  0  0
 23 24  1  0  0  0  0
 25 23  1  0  0  0  0
 26 25  2  0  0  0  0
 27 26  1  0  0  0  0
 28 21  2  0  0  0  0
 28 26  1  0  0  0  0
 29 28  1  0  0  0  0
M  END
>  <minimizedAffinity>
-5.64024734

>  <minimizedRMSD>
0.833947062

$$$$
