
 OpenBabel03252508503D

 29 31  0  0  0  0  0  0  0  0999 V2000
   45.8310   34.1670   41.0710 C   0  0  0  0  0  0  0  0  0  0  0  0
   46.4610   34.6520   42.2130 C   0  0  0  0  0  0  0  0  0  0  0  0
   47.8260   34.8970   42.1100 C   0  0  0  0  0  0  0  0  0  0  0  0
   48.4540   34.6530   40.9190 N   0  0  0  0  0  0  0  0  0  0  0  0
   47.8110   34.1880   39.8520 C   0  0  0  0  0  0  0  0  0  0  0  0
   46.4880   33.9410   39.9240 N   0  0  0  0  0  0  0  0  0  0  0  0
   48.3560   35.2770   42.9740 H   0  0  0  0  0  0  0  0  0  0  0  0
   48.2990   33.9910   38.9080 H   0  0  0  0  0  0  0  0  0  0  0  0
   45.6960   34.8730   43.4240 C   0  0  0  0  0  0  0  0  0  0  0  0
   45.0870   36.0660   43.7310 C   0  0  0  0  0  0  0  0  0  0  0  0
   44.4890   35.8190   44.9550 C   0  0  0  0  0  0  0  0  0  0  0  0
   44.7240   34.5450   45.3660 N   0  0  0  0  0  0  0  0  0  0  0  0
   45.4530   34.0050   44.4230 N   0  0  0  0  0  0  0  0  0  0  0  0
   45.0720   36.9810   43.1600 H   0  0  0  0  0  0  0  0  0  0  0  0
   43.9010   36.5670   45.5120 H   0  0  0  0  0  0  0  0  0  0  0  0
   44.3650   34.1450   46.2660 H   0  0  0  0  0  0  0  0  0  0  0  0
   44.4720   33.9080   41.1290 O   0  0  0  0  0  0  0  0  0  0  0  0
   43.4590   34.6810   40.6400 C   0  0  0  0  0  0  0  0  0  0  0  0
   43.3480   35.9590   40.7210 O   0  0  0  0  0  0  0  0  0  0  0  0
   40.7170   35.1300   41.8520 Cl  0  0  0  0  0  0  0  0  0  0  0  0
   40.9900   34.2550   40.3610 C   0  0  0  0  0  0  0  0  0  0  0  0
   42.2840   34.1190   39.9110 C   0  0  0  0  0  0  0  0  0  0  0  0
   42.3790   33.4140   38.7330 C   0  0  0  0  0  0  0  0  0  0  0  0
   43.3610   33.2520   38.2960 H   0  0  0  0  0  0  0  0  0  0  0  0
   41.3090   32.8870   38.0510 C   0  0  0  0  0  3  0  0  0  0  0  0
   40.0490   33.0680   38.5670 C   0  0  0  0  0  0  0  0  0  0  0  0
   38.6970   32.3950   37.6930 Cl  0  0  0  0  0  0  0  0  0  0  0  0
   39.8650   33.7620   39.7440 C   0  0  0  0  0  0  0  0  0  0  0  0
   38.8730   33.9050   40.1500 H   0  0  0  0  0  0  0  0  0  0  0  0
  1 17  1  0  0  0  0
  1  2  1  0  0  0  0
  2  9  1  0  0  0  0
  3  2  2  0  0  0  0
  3  7  1  0  0  0  0
  4  3  1  0  0  0  0
  5  6  1  0  0  0  0
  5  4  2  0  0  0  0
  6  1  2  0  0  0  0
  8  5  1  0  0  0  0
  9 10  1  0  0  0  0
  9 13  2  0  0  0  0
 10 11  2  0  0  0  0
 11 12  1  0  0  0  0
 11 15  1  0  0  0  0
 12 16  1  0  0  0  0
 13 12  1  0  0  0  0
 14 10  1  0  0  0  0
 18 19  2  0  0  0  0
 18 17  1  0  0  0  0
 21 20  1  0  0  0  0
 22 21  1  0  0  0  0
 22 18  1  0  0  0  0
 23 22  2  0  0  0  0
 24 23  1  0  0  0  0
 25 26  2  0  0  0  0
 25 23  1  0  0  0  0
 26 28  1  0  0  0  0
 27 26  1  0  0  0  0
 28 29  1  0  0  0  0
 28 21  2  0  0  0  0
M  END
>  <minimizedAffinity>
-5.7794795

>  <minimizedRMSD>
1.06364942

$$$$
