
 OpenBabel03252508503D

 29 31  0  0  0  0  0  0  0  0999 V2000
   45.8160   34.2070   41.0360 C   0  0  0  0  0  0  0  0  0  0  0  0
   46.4520   34.7730   42.1370 C   0  0  0  0  0  0  0  0  0  0  0  0
   47.8110   35.0330   42.0010 C   0  0  0  0  0  0  0  0  0  0  0  0
   48.4280   34.7250   40.8200 N   0  0  0  0  0  0  0  0  0  0  0  0
   47.7800   34.1840   39.7920 C   0  0  0  0  0  0  0  0  0  0  0  0
   46.4630   33.9210   39.8970 N   0  0  0  0  0  0  0  0  0  0  0  0
   48.3450   35.4750   42.8330 H   0  0  0  0  0  0  0  0  0  0  0  0
   48.2610   33.9370   38.8560 H   0  0  0  0  0  0  0  0  0  0  0  0
   45.6980   35.0560   43.3420 C   0  0  0  0  0  0  0  0  0  0  0  0
   45.0670   36.2540   43.5800 C   0  0  0  0  0  0  0  0  0  0  0  0
   44.4910   36.0750   44.8250 C   0  0  0  0  0  0  0  0  0  0  0  0
   44.7570   34.8350   45.3150 N   0  0  0  0  0  0  0  0  0  0  0  0
   45.4850   34.2500   44.3980 N   0  0  0  0  0  0  0  0  0  0  0  0
   45.0270   37.1300   42.9520 H   0  0  0  0  0  0  0  0  0  0  0  0
   43.8950   36.8450   45.3410 H   0  0  0  0  0  0  0  0  0  0  0  0
   44.4170   34.4870   46.2430 H   0  0  0  0  0  0  0  0  0  0  0  0
   44.4630   33.9300   41.1280 O   0  0  0  0  0  0  0  0  0  0  0  0
   43.4310   34.6500   40.5970 C   0  0  0  0  0  0  0  0  0  0  0  0
   43.2850   35.9260   40.6150 O   0  0  0  0  0  0  0  0  0  0  0  0
   40.6850   35.0100   41.8270 Cl  0  0  0  0  0  0  0  0  0  0  0  0
   40.9810   34.1100   40.3540 C   0  0  0  0  0  0  0  0  0  0  0  0
   42.2760   34.0200   39.8940 C   0  0  0  0  0  0  0  0  0  0  0  0
   42.3900   33.2910   38.7330 C   0  0  0  0  0  0  0  0  0  0  0  0
   43.3750   33.1610   38.2900 H   0  0  0  0  0  0  0  0  0  0  0  0
   41.3360   32.7030   38.0740 C   0  0  0  0  0  3  0  0  0  0  0  0
   40.0760   32.8410   38.5980 C   0  0  0  0  0  0  0  0  0  0  0  0
   38.7460   32.0900   37.7550 Cl  0  0  0  0  0  0  0  0  0  0  0  0
   39.8720   33.5550   39.7600 C   0  0  0  0  0  0  0  0  0  0  0  0
   38.8800   33.6650   40.1740 H   0  0  0  0  0  0  0  0  0  0  0  0
  1 17  1  0  0  0  0
  1  2  1  0  0  0  0
  2  9  1  0  0  0  0
  3  2  2  0  0  0  0
  3  7  1  0  0  0  0
  4  3  1  0  0  0  0
  5  6  1  0  0  0  0
  5  4  2  0  0  0  0
  6  1  2  0  0  0  0
  8  5  1  0  0  0  0
  9 10  1  0  0  0  0
  9 13  2  0  0  0  0
 10 11  2  0  0  0  0
 11 12  1  0  0  0  0
 11 15  1  0  0  0  0
 12 16  1  0  0  0  0
 13 12  1  0  0  0  0
 14 10  1  0  0  0  0
 18 19  2  0  0  0  0
 18 17  1  0  0  0  0
 21 20  1  0  0  0  0
 22 21  1  0  0  0  0
 22 18  1  0  0  0  0
 23 22  2  0  0  0  0
 24 23  1  0  0  0  0
 25 26  2  0  0  0  0
 25 23  1  0  0  0  0
 26 28  1  0  0  0  0
 27 26  1  0  0  0  0
 28 29  1  0  0  0  0
 28 21  2  0  0  0  0
M  END
>  <minimizedAffinity>
-5.81094837

>  <minimizedRMSD>
0.910802662

$$$$
