
     RDKit          3D

 30 32  0  0  0  0  0  0  0  0999 V2000
   46.0842   34.1608   41.0133 C   0  0  0  0  0  0  0  0  0  0  0  0
   46.6147   34.8410   42.1047 C   0  0  0  0  0  0  0  0  0  0  0  0
   47.9289   35.2795   41.9819 C   0  0  0  0  0  0  0  0  0  0  0  0
   48.6063   35.0213   40.8213 N   0  0  0  0  0  0  0  0  0  0  0  0
   48.0576   34.3658   39.8021 C   0  0  0  0  0  0  0  0  0  0  0  0
   46.7858   33.9304   39.8951 N   0  0  0  0  0  0  0  0  0  0  0  0
   45.8058   35.0562   43.2882 C   0  0  0  0  0  0  0  0  0  0  0  0
   45.0458   36.1829   43.4942 C   0  0  0  0  0  0  0  0  0  0  0  0
   44.4606   35.9578   44.7279 C   0  0  0  0  0  0  0  0  0  0  0  0
   44.8458   34.7589   45.2413 N   0  0  0  0  0  0  0  0  0  0  0  0
   45.6539   34.2437   44.3503 N   0  0  0  0  0  0  0  0  0  0  0  0
   44.7785   33.7062   41.0928 O   0  0  0  0  0  0  0  0  0  0  0  0
   43.6899   34.1885   40.4250 C   0  0  0  0  0  0  0  0  0  0  0  0
   43.2521   35.3961   40.4248 O   0  0  0  0  0  0  0  0  0  0  0  0
   48.3822   35.8137   42.8074 H   0  0  0  0  0  0  0  0  0  0  0  0
   48.5863   34.1580   38.8823 H   0  0  0  0  0  0  0  0  0  0  0  0
   44.9280   37.0422   42.8526 H   0  0  0  0  0  0  0  0  0  0  0  0
   43.7739   36.6656   45.2194 H   0  0  0  0  0  0  0  0  0  0  0  0
   44.5221   34.3881   46.1661 H   0  0  0  0  0  0  0  0  0  0  0  0
   43.9007   31.1852   40.7717 Cl  0  0  0  0  0  0  0  0  0  0  0  0
   42.8233   31.9586   39.6300 C   0  0  0  0  0  0  0  0  0  0  0  0
   42.8180   33.3346   39.5663 C   0  0  0  0  0  0  0  0  0  0  0  0
   41.9352   33.8325   38.6367 C   0  0  0  0  0  0  0  0  0  0  0  0
   41.8572   34.9095   38.5105 H   0  0  0  0  0  0  0  0  0  0  0  0
   41.1262   33.0599   37.8368 C   0  0  0  0  0  0  0  0  0  0  0  0
   41.1918   31.6948   37.9623 C   0  0  0  0  0  0  0  0  0  0  0  0
   40.1607   30.7231   36.9424 Cl  0  0  0  0  0  0  0  0  0  0  0  0
   42.0501   31.1126   38.8703 C   0  0  0  0  0  0  0  0  0  0  0  0
   42.1026   30.0375   38.9699 H   0  0  0  0  0  0  0  0  0  0  0  0
   40.4531   33.5164   37.1248 H   0  0  0  0  0  0  0  0  0  0  0  0
  1 12  1  0
  1  2  1  0
  2  7  1  0
  3  2  2  0
  4  3  1  0
  5  6  1  0
  5  4  2  0
  6  1  2  0
  7  8  1  0
  7 11  2  0
  8  9  2  0
  9 10  1  0
 11 10  1  0
 13 14  2  0
 13 12  1  0
  3 15  1  0
  5 16  1  0
  8 17  1  0
  9 18  1  0
 10 19  1  0
 20 21  1  0
 21 22  2  0
 22 23  1  0
 23 24  1  0
 23 25  2  0
 25 26  1  0
 26 27  1  0
 26 28  2  0
 28 29  1  0
 28 21  1  0
 25 30  1  0
 13 22  1  0
M  ISO  7  15  14  16  14  17  14  18  14  19   9  24  16  29  15
M  END
>  <DihAtoms>  (1) 
13,12,21,20

>  <DihDeg>  (1) 
-178.21510691250202

$$$$
