
 OpenBabel03252508503D

 29 31  0  0  0  0  0  0  0  0999 V2000
   45.8390   34.1950   41.0350 C   0  0  0  0  0  0  0  0  0  0  0  0
   46.4660   34.7790   42.1320 C   0  0  0  0  0  0  0  0  0  0  0  0
   47.8200   35.0630   41.9930 C   0  0  0  0  0  0  0  0  0  0  0  0
   48.4420   34.7570   40.8130 N   0  0  0  0  0  0  0  0  0  0  0  0
   47.8030   34.1980   39.7900 C   0  0  0  0  0  0  0  0  0  0  0  0
   46.4900   33.9130   39.8980 N   0  0  0  0  0  0  0  0  0  0  0  0
   48.3470   35.5190   42.8210 H   0  0  0  0  0  0  0  0  0  0  0  0
   48.2860   33.9540   38.8540 H   0  0  0  0  0  0  0  0  0  0  0  0
   45.7080   35.0570   43.3360 C   0  0  0  0  0  0  0  0  0  0  0  0
   45.0560   36.2450   43.5660 C   0  0  0  0  0  0  0  0  0  0  0  0
   44.4840   36.0640   44.8140 C   0  0  0  0  0  0  0  0  0  0  0  0
   44.7740   34.8320   45.3110 N   0  0  0  0  0  0  0  0  0  0  0  0
   45.5110   34.2540   44.3980 N   0  0  0  0  0  0  0  0  0  0  0  0
   44.9990   37.1150   42.9330 H   0  0  0  0  0  0  0  0  0  0  0  0
   43.8750   36.8270   45.3250 H   0  0  0  0  0  0  0  0  0  0  0  0
   44.4420   34.4850   46.2420 H   0  0  0  0  0  0  0  0  0  0  0  0
   44.4910   33.8950   41.1300 O   0  0  0  0  0  0  0  0  0  0  0  0
   43.4480   34.5810   40.5780 C   0  0  0  0  0  0  0  0  0  0  0  0
   43.2670   35.8530   40.5810 O   0  0  0  0  0  0  0  0  0  0  0  0
   40.6730   34.8910   41.7560 Cl  0  0  0  0  0  0  0  0  0  0  0  0
   41.0150   33.9780   40.3030 C   0  0  0  0  0  0  0  0  0  0  0  0
   42.3200   33.9130   39.8660 C   0  0  0  0  0  0  0  0  0  0  0  0
   42.4720   33.1710   38.7180 C   0  0  0  0  0  0  0  0  0  0  0  0
   43.4660   33.0590   38.2920 H   0  0  0  0  0  0  0  0  0  0  0  0
   41.4440   32.5470   38.0500 C   0  0  0  0  0  3  0  0  0  0  0  0
   40.1720   32.6620   38.5510 C   0  0  0  0  0  0  0  0  0  0  0  0
   38.8740   31.8660   37.6960 Cl  0  0  0  0  0  0  0  0  0  0  0  0
   39.9310   33.3880   39.6990 C   0  0  0  0  0  0  0  0  0  0  0  0
   38.9290   33.4790   40.0940 H   0  0  0  0  0  0  0  0  0  0  0  0
  1 17  1  0  0  0  0
  1  2  1  0  0  0  0
  2  9  1  0  0  0  0
  3  2  2  0  0  0  0
  3  7  1  0  0  0  0
  4  3  1  0  0  0  0
  5  6  1  0  0  0  0
  5  4  2  0  0  0  0
  6  1  2  0  0  0  0
  8  5  1  0  0  0  0
  9 10  1  0  0  0  0
  9 13  2  0  0  0  0
 10 11  2  0  0  0  0
 11 12  1  0  0  0  0
 11 15  1  0  0  0  0
 12 16  1  0  0  0  0
 13 12  1  0  0  0  0
 14 10  1  0  0  0  0
 18 19  2  0  0  0  0
 18 17  1  0  0  0  0
 21 20  1  0  0  0  0
 22 21  1  0  0  0  0
 22 18  1  0  0  0  0
 23 22  2  0  0  0  0
 24 23  1  0  0  0  0
 25 26  2  0  0  0  0
 25 23  1  0  0  0  0
 26 28  1  0  0  0  0
 27 26  1  0  0  0  0
 28 29  1  0  0  0  0
 28 21  2  0  0  0  0
M  END
>  <minimizedAffinity>
-5.7839756

>  <minimizedRMSD>
0.818803132

$$$$
