
 OpenBabel03252508503D

 29 31  0  0  0  0  0  0  0  0999 V2000
   45.7390   34.1800   41.0840 C   0  0  0  0  0  0  0  0  0  0  0  0
   46.3820   34.7870   42.1590 C   0  0  0  0  0  0  0  0  0  0  0  0
   47.7260   35.0950   41.9820 C   0  0  0  0  0  0  0  0  0  0  0  0
   48.3230   34.7900   40.7890 N   0  0  0  0  0  0  0  0  0  0  0  0
   47.6690   34.2080   39.7880 C   0  0  0  0  0  0  0  0  0  0  0  0
   46.3650   33.8990   39.9330 N   0  0  0  0  0  0  0  0  0  0  0  0
   48.2660   35.5690   42.7920 H   0  0  0  0  0  0  0  0  0  0  0  0
   48.1330   33.9640   38.8430 H   0  0  0  0  0  0  0  0  0  0  0  0
   45.6500   35.0610   43.3790 C   0  0  0  0  0  0  0  0  0  0  0  0
   45.0580   36.2710   43.6540 C   0  0  0  0  0  0  0  0  0  0  0  0
   44.4910   36.0780   44.9010 C   0  0  0  0  0  0  0  0  0  0  0  0
   44.7260   34.8190   45.3570 N   0  0  0  0  0  0  0  0  0  0  0  0
   45.4260   34.2360   44.4170 N   0  0  0  0  0  0  0  0  0  0  0  0
   45.0370   37.1630   43.0480 H   0  0  0  0  0  0  0  0  0  0  0  0
   43.9240   36.8520   45.4430 H   0  0  0  0  0  0  0  0  0  0  0  0
   44.3860   34.4590   46.2800 H   0  0  0  0  0  0  0  0  0  0  0  0
   44.4000   33.8550   41.2170 O   0  0  0  0  0  0  0  0  0  0  0  0
   43.3230   34.6010   40.8330 C   0  0  0  0  0  0  0  0  0  0  0  0
   43.1970   35.8780   40.9080 O   0  0  0  0  0  0  0  0  0  0  0  0
   42.4660   35.5660   38.0910 Cl  0  0  0  0  0  0  0  0  0  0  0  0
   41.5940   34.3620   39.0150 C   0  0  0  0  0  0  0  0  0  0  0  0
   42.0850   34.0060   40.2500 C   0  0  0  0  0  0  0  0  0  0  0  0
   41.3210   33.0540   40.8850 C   0  0  0  0  0  0  0  0  0  0  0  0
   41.6270   32.7060   41.8690 H   0  0  0  0  0  0  0  0  0  0  0  0
   40.1780   32.4970   40.3630 C   0  0  0  0  0  3  0  0  0  0  0  0
   39.7550   32.9060   39.1240 C   0  0  0  0  0  0  0  0  0  0  0  0
   38.3020   32.1930   38.4700 Cl  0  0  0  0  0  0  0  0  0  0  0  0
   40.4620   33.8570   38.4190 C   0  0  0  0  0  0  0  0  0  0  0  0
   40.1300   34.1810   37.4420 H   0  0  0  0  0  0  0  0  0  0  0  0
  1 17  1  0  0  0  0
  1  2  1  0  0  0  0
  2  9  1  0  0  0  0
  3  2  2  0  0  0  0
  3  7  1  0  0  0  0
  4  3  1  0  0  0  0
  5  6  1  0  0  0  0
  5  4  2  0  0  0  0
  6  1  2  0  0  0  0
  8  5  1  0  0  0  0
  9 10  1  0  0  0  0
  9 13  2  0  0  0  0
 10 11  2  0  0  0  0
 11 12  1  0  0  0  0
 11 15  1  0  0  0  0
 12 16  1  0  0  0  0
 13 12  1  0  0  0  0
 14 10  1  0  0  0  0
 18 19  2  0  0  0  0
 18 17  1  0  0  0  0
 20 21  1  0  0  0  0
 21 22  1  0  0  0  0
 22 18  1  0  0  0  0
 22 23  2  0  0  0  0
 23 24  1  0  0  0  0
 25 23  1  0  0  0  0
 26 25  2  0  0  0  0
 27 26  1  0  0  0  0
 28 21  2  0  0  0  0
 28 26  1  0  0  0  0
 29 28  1  0  0  0  0
M  END
>  <minimizedAffinity>
-5.77455139

>  <minimizedRMSD>
1.25086236

$$$$
