
 OpenBabel03252508503D

 29 31  0  0  0  0  0  0  0  0999 V2000
   45.8050   34.2020   41.1770 C   0  0  0  0  0  0  0  0  0  0  0  0
   46.4390   34.6540   42.3310 C   0  0  0  0  0  0  0  0  0  0  0  0
   47.8070   34.8830   42.2360 C   0  0  0  0  0  0  0  0  0  0  0  0
   48.4340   34.6560   41.0410 N   0  0  0  0  0  0  0  0  0  0  0  0
   47.7880   34.2230   39.9630 C   0  0  0  0  0  0  0  0  0  0  0  0
   46.4610   33.9920   40.0280 N   0  0  0  0  0  0  0  0  0  0  0  0
   48.3400   35.2360   43.1100 H   0  0  0  0  0  0  0  0  0  0  0  0
   48.2760   34.0410   39.0160 H   0  0  0  0  0  0  0  0  0  0  0  0
   45.6740   34.8570   43.5450 C   0  0  0  0  0  0  0  0  0  0  0  0
   45.0700   36.0490   43.8720 C   0  0  0  0  0  0  0  0  0  0  0  0
   44.4700   35.7840   45.0900 C   0  0  0  0  0  0  0  0  0  0  0  0
   44.6980   34.5020   45.4810 N   0  0  0  0  0  0  0  0  0  0  0  0
   45.4250   33.9740   44.5290 N   0  0  0  0  0  0  0  0  0  0  0  0
   45.0610   36.9730   43.3170 H   0  0  0  0  0  0  0  0  0  0  0  0
   43.8860   36.5250   45.6600 H   0  0  0  0  0  0  0  0  0  0  0  0
   44.3360   34.0890   46.3730 H   0  0  0  0  0  0  0  0  0  0  0  0
   44.4430   33.9600   41.2270 O   0  0  0  0  0  0  0  0  0  0  0  0
   43.4370   34.7900   40.8220 C   0  0  0  0  0  0  0  0  0  0  0  0
   43.3950   36.0700   40.9340 O   0  0  0  0  0  0  0  0  0  0  0  0
   43.7120   33.4900   38.0990 Cl  0  0  0  0  0  0  0  0  0  0  0  0
   42.1850   33.6920   38.9300 C   0  0  0  0  0  0  0  0  0  0  0  0
   42.1900   34.3000   40.1660 C   0  0  0  0  0  0  0  0  0  0  0  0
   40.9380   34.4050   40.7250 C   0  0  0  0  0  0  0  0  0  0  0  0
   40.8370   34.8710   41.7020 H   0  0  0  0  0  0  0  0  0  0  0  0
   39.7800   33.9590   40.1330 C   0  0  0  0  0  3  0  0  0  0  0  0
   39.8610   33.3650   38.8990 C   0  0  0  0  0  0  0  0  0  0  0  0
   38.3850   32.8020   38.1560 Cl  0  0  0  0  0  0  0  0  0  0  0  0
   41.0780   33.2190   38.2670 C   0  0  0  0  0  0  0  0  0  0  0  0
   41.1430   32.7510   37.2950 H   0  0  0  0  0  0  0  0  0  0  0  0
  1 17  1  0  0  0  0
  1  2  1  0  0  0  0
  2  9  1  0  0  0  0
  3  2  2  0  0  0  0
  3  7  1  0  0  0  0
  4  3  1  0  0  0  0
  5  6  1  0  0  0  0
  5  4  2  0  0  0  0
  6  1  2  0  0  0  0
  8  5  1  0  0  0  0
  9 10  1  0  0  0  0
  9 13  2  0  0  0  0
 10 11  2  0  0  0  0
 11 12  1  0  0  0  0
 11 15  1  0  0  0  0
 12 16  1  0  0  0  0
 13 12  1  0  0  0  0
 14 10  1  0  0  0  0
 18 19  2  0  0  0  0
 18 17  1  0  0  0  0
 20 21  1  0  0  0  0
 21 22  1  0  0  0  0
 22 23  2  0  0  0  0
 22 18  1  0  0  0  0
 23 24  1  0  0  0  0
 25 23  1  0  0  0  0
 26 25  2  0  0  0  0
 27 26  1  0  0  0  0
 28 26  1  0  0  0  0
 28 21  2  0  0  0  0
 29 28  1  0  0  0  0
M  END
>  <minimizedAffinity>
-5.72573948

>  <minimizedRMSD>
1.36873734

$$$$
