
     RDKit          3D

 49 52  0  0  0  0  0  0  0  0999 V2000
   47.5141   34.4804   42.4434 N   0  0  0  0  0  0  0  0  0  0  0  0
   47.5119   34.7311   41.0031 C   0  0  0  0  0  0  0  0  0  0  0  0
   48.1267   33.4603   40.5364 C   0  0  2  0  0  0  0  0  0  0  0  0
   49.3385   33.3689   41.4599 C   0  0  0  0  0  0  0  0  0  0  0  0
   48.7948   33.9135   42.7544 C   0  0  0  0  0  0  0  0  0  0  0  0
   44.6013   35.8505   44.3369 C   0  0  0  0  0  0  0  0  0  0  0  0
   45.5481   35.7204   43.3160 C   0  0  0  0  0  0  0  0  0  0  0  0
   46.5178   34.7146   43.3926 C   0  0  0  0  0  0  0  0  0  0  0  0
   46.4634   33.9115   44.4940 N   0  0  0  0  0  0  0  0  0  0  0  0
   45.5647   34.0261   45.4744 C   0  0  0  0  0  0  0  0  0  0  0  0
   44.6307   35.0005   45.3933 N   0  0  0  0  0  0  0  0  0  0  0  0
   48.6260   33.4950   39.2037 N   0  0  0  0  0  0  0  0  0  0  0  0
   48.8177   32.2697   37.0355 C   0  0  0  0  0  0  0  0  0  0  0  0
   48.0912   33.0253   37.9865 C   0  0  0  0  0  0  0  0  0  0  0  0
   46.7929   33.2648   37.6103 C   0  0  0  0  0  0  0  0  0  0  0  0
   46.1911   32.8471   36.4483 C   0  0  0  0  0  0  0  0  0  0  0  0
   46.9441   32.1119   35.5523 C   0  0  0  0  0  0  0  0  0  0  0  0
   48.2630   31.8377   35.8767 C   0  0  0  0  0  0  0  0  0  0  0  0
   49.4701   31.7135   33.7544 C   0  0  0  0  0  0  0  0  0  0  0  0
   49.2712   32.9704   33.5715 O   0  0  0  0  0  0  0  0  0  0  0  0
   49.0120   31.0751   34.9277 N   0  0  0  0  0  0  0  0  0  0  0  0
   51.3016   31.7240   37.6181 N   0  0  0  0  0  0  0  0  0  0  0  0
   50.2030   31.9755   37.3637 C   0  0  0  0  0  0  0  0  0  0  0  0
   48.1567   35.5679   40.7195 H   0  0  0  0  0  0  0  0  0  0  0  0
   46.4787   34.8422   40.6336 H   0  0  0  0  0  0  0  0  0  0  0  0
   47.5058   32.5641   40.7261 H   0  0  0  0  0  0  0  0  0  0  0  0
   49.7765   32.3754   41.5172 H   0  0  0  0  0  0  0  0  0  0  0  0
   50.0594   34.1526   41.0932 H   0  0  0  0  0  0  0  0  0  0  0  0
   49.4208   34.7341   43.1766 H   0  0  0  0  0  0  0  0  0  0  0  0
   48.7409   33.0671   43.4700 H   0  0  0  0  0  0  0  0  0  0  0  0
   43.8800   36.6471   44.2176 H   0  0  0  0  0  0  0  0  0  0  0  0
   45.6139   36.3434   42.4318 H   0  0  0  0  0  0  0  0  0  0  0  0
   45.5621   33.3638   46.3295 H   0  0  0  0  0  0  0  0  0  0  0  0
   49.5534   33.9283   38.9847 H   0  0  0  0  0  0  0  0  0  0  0  0
   46.2041   33.8433   38.3180 H   0  0  0  0  0  0  0  0  0  0  0  0
   45.1693   33.0556   36.1896 H   0  0  0  0  0  0  0  0  0  0  0  0
   46.5338   31.7548   34.6246 H   0  0  0  0  0  0  0  0  0  0  0  0
   49.2939   30.0627   34.9601 H   0  0  0  0  0  0  0  0  0  0  0  0
   51.9574   30.5107   34.7465 Cl  0  0  0  0  0  0  0  0  0  0  0  0
   51.3796   30.4399   33.0763 C   0  0  0  0  0  0  0  0  0  0  0  0
   50.1853   31.0371   32.6777 C   0  0  0  0  0  0  0  0  0  0  0  0
   49.7529   30.9709   31.3723 C   0  0  0  0  0  0  0  0  0  0  0  0
   48.8188   31.4519   31.1191 H   0  0  0  0  0  0  0  0  0  0  0  0
   50.5610   30.2819   30.4712 C   0  0  0  0  0  0  0  0  0  0  0  0
   51.7430   29.6865   30.8476 C   0  0  0  0  0  0  0  0  0  0  0  0
   52.7288   28.8338   29.6968 Cl  0  0  0  0  0  0  0  0  0  0  0  0
   52.1719   29.7570   32.1620 C   0  0  0  0  0  0  0  0  0  0  0  0
   53.1004   29.2892   32.4565 H   0  0  0  0  0  0  0  0  0  0  0  0
   50.2383   30.2188   29.4410 H   0  0  0  0  0  0  0  0  0  0  0  0
  1  5  1  0
  1  8  1  0
  2  1  1  0
  3  2  1  0
  3  4  1  0
  4  5  1  0
  6 11  2  0
  7  8  2  0
  7  6  1  0
  8  9  1  0
  9 10  2  0
 11 10  1  0
 12  3  1  0
 13 23  1  0
 13 14  2  0
 14 12  1  0
 15 14  1  0
 16 15  2  0
 17 18  2  0
 17 16  1  0
 18 13  1  0
 19 21  1  0
 20 19  2  0
 21 18  1  0
 23 22  3  0
  2 24  1  0
  2 25  1  0
  3 26  1  6
  4 27  1  0
  4 28  1  0
  5 29  1  0
  5 30  1  0
  6 31  1  0
  7 32  1  0
 10 33  1  0
 12 34  1  0
 15 35  1  0
 16 36  1  0
 17 37  1  0
 21 38  1  0
 39 40  1  0
 40 41  2  0
 41 42  1  0
 42 43  1  0
 42 44  2  0
 44 45  1  0
 45 46  1  0
 45 47  2  0
 47 48  1  0
 47 40  1  0
 44 49  1  0
 19 41  1  0
M  ISO  8  24  13  25  13  26  13  27  13  28  13  29  13  30  13  31  14
M  ISO  7  32  14  33  14  35  14  36  14  37  14  43  16  48  15
M  END
>  <DihAtoms>  (1) 
20,18,40,39

>  <DihDeg>  (1) 
60.47306955630951

$$$$
