
 OpenBabel03252503313D

 42 44  0  0  1  0  0  0  0  0999 V2000
   45.4150   34.5410   42.2490 C   0  0  0  0  0  0  0  0  0  0  0  0
   46.5220   35.2420   41.6910 C   0  0  0  0  0  0  0  0  0  0  0  0
   47.7940   34.8630   42.1520 C   0  0  0  0  0  0  0  0  0  0  0  0
   47.8660   33.8780   43.0750 N   0  0  0  0  0  0  0  0  0  0  0  0
   46.7830   33.2460   43.5720 C   0  0  0  0  0  0  0  0  0  0  0  0
   45.5480   33.5860   43.1500 N   0  0  0  0  0  0  0  0  0  0  0  0
   43.8080   34.3580   40.5450 C   0  0  0  0  0  0  0  0  0  0  0  0
   44.7310   33.7320   39.9200 O   0  0  0  0  0  0  0  0  0  0  0  0
   44.0830   34.8710   41.8280 N   0  0  0  0  0  0  0  0  0  0  0  0
   42.5590   34.4890   39.8930 N   0  0  0  0  0  0  0  0  0  0  0  0
   42.4620   34.2310   38.4440 C   0  0  0  0  0  0  0  0  0  0  0  0
   41.3630   35.1590   38.0300 C   0  0  0  0  0  0  0  0  0  0  0  0
   40.8450   35.7860   39.2930 C   0  0  0  0  0  0  0  0  0  0  0  0
   41.2520   34.8190   40.3770 C   0  0  1  0  0  0  0  0  0  0  0  0
   46.2790   36.0010   40.9630 H   0  0  0  0  0  0  0  0  0  0  0  0
   46.9240   32.4570   44.3190 H   0  0  0  0  0  0  0  0  0  0  0  0
   43.3420   35.4070   42.3170 H   0  0  0  0  0  0  0  0  0  0  0  0
   43.4030   34.3810   37.9190 H   0  0  0  0  0  0  0  0  0  0  0  0
   42.0610   33.1910   38.3720 H   0  0  0  0  0  0  0  0  0  0  0  0
   41.8250   35.9030   37.3320 H   0  0  0  0  0  0  0  0  0  0  0  0
   40.5670   34.6710   37.4300 H   0  0  0  0  0  0  0  0  0  0  0  0
   41.6240   36.6110   39.4670 H   0  0  0  0  0  0  0  0  0  0  0  0
   39.9520   36.3180   39.2930 H   0  0  0  0  0  0  0  0  0  0  0  0
   41.2400   35.3920   41.2970 H   0  0  0  0  0  0  0  0  0  0  0  0
   39.8160   33.1060   41.6580 C   0  0  0  0  0  0  0  0  0  0  0  0
   39.8230   34.0000   42.5370 O   0  0  0  0  0  0  0  0  0  0  0  0
   40.4440   33.6110   40.4510 N   0  0  0  0  0  0  0  0  0  0  0  0
   40.3090   33.0610   39.5450 H   0  0  0  0  0  0  0  0  0  0  0  0
   41.6660   30.8940   42.6560 Cl  0  0  0  0  0  0  0  0  0  0  0  0
   40.0520   30.6260   42.0230 C   0  0  0  0  0  0  0  0  0  0  0  0
   39.3250   31.7210   41.6070 C   0  0  0  0  0  0  0  0  0  0  0  0
   38.0460   31.5370   41.1030 C   0  0  0  0  0  0  0  0  0  0  0  0
   37.4550   32.3730   40.7700 H   0  0  0  0  0  0  0  0  0  0  0  0
   37.4640   30.2990   40.9980 C   0  0  0  0  0  0  0  0  0  0  0  0
   38.1930   29.2090   41.4150 C   0  0  0  0  0  0  0  0  0  0  0  0
   37.5530   27.5890   41.3270 Cl  0  0  0  0  0  0  0  0  0  0  0  0
   39.4780   29.3510   41.9260 C   0  0  0  0  0  0  0  0  0  0  0  0
   40.1170   28.5490   42.2740 H   0  0  0  0  0  0  0  0  0  0  0  0
   48.9090   35.6040   41.5590 C   0  0  0  0  0  0  0  0  0  0  0  0
   50.1010   34.9640   41.9170 F   0  0  0  0  0  0  0  0  0  0  0  0
   48.9560   36.8450   42.1930 F   0  0  0  0  0  0  0  0  0  0  0  0
   48.8560   35.6820   40.2060 F   0  0  0  0  0  0  0  0  0  0  0  0
  1  6  1  0  0  0  0
  2  3  1  0  0  0  0
  2  1  2  0  0  0  0
  3  4  2  0  0  0  0
  4  5  1  0  0  0  0
  5 16  1  0  0  0  0
  6  5  2  0  0  0  0
  7  9  1  0  0  0  0
  8  7  2  0  0  0  0
  9  1  1  0  0  0  0
  9 17  1  0  0  0  0
 10 14  1  0  0  0  0
 10  7  1  0  0  0  0
 11 10  1  0  0  0  0
 12 11  1  0  0  0  0
 12 13  1  0  0  0  0
 13 22  1  0  0  0  0
 13 14  1  0  0  0  0
 14 27  1  0  0  0  0
 14 24  1  1  0  0  0
 15  2  1  0  0  0  0
 18 11  1  0  0  0  0
 19 11  1  0  0  0  0
 20 12  1  0  0  0  0
 21 12  1  0  0  0  0
 23 13  1  0  0  0  0
 25 26  2  0  0  0  0
 27 25  1  0  0  0  0
 28 27  1  0  0  0  0
 30 29  1  0  0  0  0
 31 25  1  0  0  0  0
 31 30  2  0  0  0  0
 32 31  1  0  0  0  0
 33 32  1  0  0  0  0
 34 32  2  0  0  0  0
 34 35  1  0  0  0  0
 35 37  2  0  0  0  0
 36 35  1  0  0  0  0
 37 30  1  0  0  0  0
 37 38  1  0  0  0  0
 39 40  1  0  0  0  0
 39  3  1  0  0  0  0
 39 41  1  0  0  0  0
 42 39  1  0  0  0  0
M  END
>  <minimizedAffinity>
-7.42232656

>  <minimizedRMSD>
1.20627987

$$$$
