
 OpenBabel03252503313D

 42 44  0  0  1  0  0  0  0  0999 V2000
   45.2780   33.8180   41.8380 C   0  0  0  0  0  0  0  0  0  0  0  0
   46.3090   34.7310   41.4760 C   0  0  0  0  0  0  0  0  0  0  0  0
   47.6250   34.3280   41.7560 C   0  0  0  0  0  0  0  0  0  0  0  0
   47.8070   33.1210   42.3380 N   0  0  0  0  0  0  0  0  0  0  0  0
   46.7940   32.2920   42.6610 C   0  0  0  0  0  0  0  0  0  0  0  0
   45.5190   32.6500   42.4060 N   0  0  0  0  0  0  0  0  0  0  0  0
   43.5910   34.0310   40.2180 C   0  0  0  0  0  0  0  0  0  0  0  0
   44.5120   33.6890   39.4010 O   0  0  0  0  0  0  0  0  0  0  0  0
   43.9080   34.1590   41.5850 N   0  0  0  0  0  0  0  0  0  0  0  0
   42.3010   34.2570   39.6820 N   0  0  0  0  0  0  0  0  0  0  0  0
   42.1370   34.4350   38.2260 C   0  0  0  0  0  0  0  0  0  0  0  0
   40.9630   35.3600   38.1510 C   0  0  0  0  0  0  0  0  0  0  0  0
   40.4820   35.5450   39.5610 C   0  0  0  0  0  0  0  0  0  0  0  0
   41.0060   34.3320   40.2900 C   0  0  1  0  0  0  0  0  0  0  0  0
   45.9790   35.6520   41.0190 H   0  0  0  0  0  0  0  0  0  0  0  0
   47.0230   31.3290   43.1310 H   0  0  0  0  0  0  0  0  0  0  0  0
   43.1650   34.4690   42.2390 H   0  0  0  0  0  0  0  0  0  0  0  0
   43.0360   34.8030   37.7360 H   0  0  0  0  0  0  0  0  0  0  0  0
   41.7950   33.4370   37.8600 H   0  0  0  0  0  0  0  0  0  0  0  0
   41.3400   36.3100   37.6920 H   0  0  0  0  0  0  0  0  0  0  0  0
   40.1650   35.0160   37.4610 H   0  0  0  0  0  0  0  0  0  0  0  0
   41.2200   36.3360   39.9460 H   0  0  0  0  0  0  0  0  0  0  0  0
   39.5600   35.9850   39.7540 H   0  0  0  0  0  0  0  0  0  0  0  0
   41.0130   34.6040   41.3400 H   0  0  0  0  0  0  0  0  0  0  0  0
   38.8340   32.9610   40.0970 C   0  0  0  0  0  0  0  0  0  0  0  0
   38.3050   34.0970   40.1210 O   0  0  0  0  0  0  0  0  0  0  0  0
   40.2770   33.1000   40.0270 N   0  0  0  0  0  0  0  0  0  0  0  0
   40.8540   32.2410   39.7650 H   0  0  0  0  0  0  0  0  0  0  0  0
   38.7290   31.4210   37.4650 Cl  0  0  0  0  0  0  0  0  0  0  0  0
   38.2080   30.7750   39.0110 C   0  0  0  0  0  0  0  0  0  0  0  0
   38.3130   31.5860   40.1230 C   0  0  0  0  0  0  0  0  0  0  0  0
   37.9090   31.1010   41.3580 C   0  0  0  0  0  0  0  0  0  0  0  0
   37.9790   31.7100   42.2430 H   0  0  0  0  0  0  0  0  0  0  0  0
   37.4040   29.8370   41.5270 C   0  0  0  0  0  3  0  0  0  0  0  0
   37.3030   29.0320   40.4140 C   0  0  0  0  0  0  0  0  0  0  0  0
   36.6750   27.4090   40.5110 Cl  0  0  0  0  0  0  0  0  0  0  0  0
   37.6960   29.4800   39.1580 C   0  0  0  0  0  0  0  0  0  0  0  0
   37.6500   28.9130   38.2380 H   0  0  0  0  0  0  0  0  0  0  0  0
   48.6580   35.2900   41.3720 C   0  0  0  0  0  0  0  0  0  0  0  0
   49.8980   34.7940   41.7880 F   0  0  0  0  0  0  0  0  0  0  0  0
   48.4500   36.4380   42.1360 F   0  0  0  0  0  0  0  0  0  0  0  0
   48.7190   35.5250   40.0380 F   0  0  0  0  0  0  0  0  0  0  0  0
  1  6  1  0  0  0  0
  2  3  1  0  0  0  0
  2  1  2  0  0  0  0
  3  4  2  0  0  0  0
  4  5  1  0  0  0  0
  5 16  1  0  0  0  0
  6  5  2  0  0  0  0
  7  9  1  0  0  0  0
  8  7  2  0  0  0  0
  9  1  1  0  0  0  0
  9 17  1  0  0  0  0
 10  7  1  0  0  0  0
 10 14  1  0  0  0  0
 11 10  1  0  0  0  0
 12 11  1  0  0  0  0
 12 13  1  0  0  0  0
 13 23  1  0  0  0  0
 13 22  1  0  0  0  0
 13 14  1  0  0  0  0
 14 24  1  1  0  0  0
 15  2  1  0  0  0  0
 18 11  1  0  0  0  0
 19 11  1  0  0  0  0
 20 12  1  0  0  0  0
 21 12  1  0  0  0  0
 25 26  2  0  0  0  0
 25 31  1  0  0  0  0
 27 25  1  0  0  0  0
 27 14  1  0  0  0  0
 28 27  1  0  0  0  0
 29 30  1  0  0  0  0
 30 37  2  0  0  0  0
 30 31  1  0  0  0  0
 31 32  2  0  0  0  0
 32 34  1  0  0  0  0
 32 33  1  0  0  0  0
 35 36  1  0  0  0  0
 35 34  2  0  0  0  0
 37 35  1  0  0  0  0
 38 37  1  0  0  0  0
 39  3  1  0  0  0  0
 39 40  1  0  0  0  0
 39 41  1  0  0  0  0
 42 39  1  0  0  0  0
M  END
>  <minimizedAffinity>
-7.29204559

>  <minimizedRMSD>
1.68298769

$$$$
