
 OpenBabel03252502273D

 36 38  0  0  0  0  0  0  0  0999 V2000
   44.9830   34.3830   41.2570 C   0  0  0  0  0  0  0  0  0  0  0  0
   45.4000   35.1570   42.3290 C   0  0  0  0  0  0  0  0  0  0  0  0
   46.7620   35.3800   42.5050 C   0  0  0  0  0  0  0  0  0  0  0  0
   47.6580   34.8400   41.6280 C   0  0  0  0  0  0  0  0  0  0  0  0
   47.2710   34.0670   40.5510 C   0  0  0  0  0  0  0  0  0  0  0  0
   45.8990   33.8600   40.4010 C   0  0  0  0  0  0  0  0  0  0  0  0
   44.7010   35.5900   43.0320 H   0  0  0  0  0  0  0  0  0  0  0  0
   47.0980   35.9770   43.3310 H   0  0  0  0  0  0  0  0  0  0  0  0
   48.7170   35.0320   41.7910 H   0  0  0  0  0  0  0  0  0  0  0  0
   47.9650   33.6260   39.8390 H   0  0  0  0  0  0  0  0  0  0  0  0
   41.2990   34.8420   40.5780 C   0  0  0  0  0  0  0  0  0  0  0  0
   42.6790   35.1390   40.6570 C   0  0  0  0  0  0  0  0  0  0  0  0
   43.5460   34.1920   41.1320 C   0  0  0  0  0  0  0  0  0  0  0  0
   43.0210   32.9990   41.5060 N   0  0  0  0  0  0  0  0  0  0  0  0
   41.7020   32.7150   41.4290 C   0  0  0  0  0  0  0  0  0  0  0  0
   40.8370   33.6350   40.9650 N   0  0  0  0  0  0  0  0  0  0  0  0
   43.0660   36.0930   40.3540 H   0  0  0  0  0  0  0  0  0  0  0  0
   41.3200   31.7440   41.7410 H   0  0  0  0  0  0  0  0  0  0  0  0
   40.3550   35.8530   40.0670 C   0  0  0  0  0  0  0  0  0  0  0  0
   39.1590   35.1970   39.7780 F   0  0  0  0  0  0  0  0  0  0  0  0
   40.8460   36.2910   38.8460 F   0  0  0  0  0  0  0  0  0  0  0  0
   40.1270   36.8790   40.9500 F   0  0  0  0  0  0  0  0  0  0  0  0
   45.2960   31.7210   39.0290 C   0  0  0  0  0  0  0  0  0  0  0  0
   45.7350   30.8000   39.7050 O   0  0  0  0  0  0  0  0  0  0  0  0
   45.3590   33.0960   39.3450 N   0  0  0  0  0  0  0  0  0  0  0  0
   44.9110   33.7850   38.6670 H   0  0  0  0  0  0  0  0  0  0  0  0
   47.2360   31.6070   36.8280 Cl  0  0  0  0  0  0  0  0  0  0  0  0
   45.5210   31.2360   36.7240 C   0  0  0  0  0  0  0  0  0  0  0  0
   44.6530   31.3050   37.7840 C   0  0  0  0  0  0  0  0  0  0  0  0
   43.2980   30.9970   37.6340 C   0  0  0  0  0  0  0  0  0  0  0  0
   42.6930   31.0790   38.5200 H   0  0  0  0  0  0  0  0  0  0  0  0
   42.8240   30.6170   36.3970 C   0  0  0  0  0  3  0  0  0  0  0  0
   43.7100   30.5550   35.3530 C   0  0  0  0  0  0  0  0  0  0  0  0
   43.0830   30.0700   33.7990 Cl  0  0  0  0  0  0  0  0  0  0  0  0
   45.0570   30.8560   35.4810 C   0  0  0  0  0  0  0  0  0  0  0  0
   45.7200   30.7940   34.6300 H   0  0  0  0  0  0  0  0  0  0  0  0
  1  2  1  0  0  0  0
  2  3  2  0  0  0  0
  2  7  1  0  0  0  0
  3  8  1  0  0  0  0
  4  9  1  0  0  0  0
  4  3  1  0  0  0  0
  5  4  2  0  0  0  0
  6  5  1  0  0  0  0
  6  1  2  0  0  0  0
 10  5  1  0  0  0  0
 11 12  2  0  0  0  0
 11 16  1  0  0  0  0
 12 13  1  0  0  0  0
 13  1  1  0  0  0  0
 13 14  2  0  0  0  0
 15 14  1  0  0  0  0
 15 18  1  0  0  0  0
 16 15  2  0  0  0  0
 17 12  1  0  0  0  0
 19 11  1  0  0  0  0
 19 22  1  0  0  0  0
 20 19  1  0  0  0  0
 21 19  1  0  0  0  0
 23 25  1  0  0  0  0
 23 24  2  0  0  0  0
 25  6  1  0  0  0  0
 26 25  1  0  0  0  0
 28 27  1  0  0  0  0
 28 29  1  0  0  0  0
 29 23  1  0  0  0  0
 30 29  2  0  0  0  0
 30 31  1  0  0  0  0
 32 30  1  0  0  0  0
 33 35  1  0  0  0  0
 33 32  2  0  0  0  0
 34 33  1  0  0  0  0
 35 28  2  0  0  0  0
 36 35  1  0  0  0  0
M  END
>  <minimizedAffinity>
-6.030931

>  <minimizedRMSD>
1.15992045

$$$$
