
 OpenBabel03242512053D

 21 22  0  0  0  0  0  0  0  0999 V2000
   35.3370   29.1280   40.1660 C   0  0  0  0  0  0  0  0  0  0  0  0
   34.1220   29.1690   39.8930 O   0  0  0  0  0  0  0  0  0  0  0  0
   36.0190   26.9950   38.2620 Cl  0  0  0  0  0  0  0  0  0  0  0  0
   36.4920   27.0270   39.9330 C   0  0  0  0  0  0  0  0  0  0  0  0
   36.1370   28.0690   40.7900 C   0  0  0  0  0  0  0  0  0  0  0  0
   36.5080   28.1020   42.1180 C   0  0  0  0  0  0  0  0  0  0  0  0
   36.1970   28.9420   42.7220 H   0  0  0  0  0  0  0  0  0  0  0  0
   37.2640   27.0500   42.6060 C   0  0  0  0  0  3  0  0  0  0  0  0
   37.6350   26.0010   41.7900 C   0  0  0  0  0  0  0  0  0  0  0  0
   38.5880   24.6950   42.4510 Cl  0  0  0  0  0  0  0  0  0  0  0  0
   37.2550   25.9810   40.4590 C   0  0  0  0  0  0  0  0  0  0  0  0
   37.5550   25.1470   39.8240 H   0  0  0  0  0  0  0  0  0  0  0  0
   36.5740   30.4670   38.5430 C   0  0  0  0  0  0  0  0  0  0  0  0
   36.1470   30.2570   39.8520 C   0  0  0  0  0  0  0  0  0  0  0  0
   36.5350   31.1790   40.8200 C   0  0  0  0  0  0  0  0  0  0  0  0
   37.3040   32.2280   40.4540 N   0  0  0  0  0  0  0  0  0  0  0  0
   37.7090   32.4070   39.1590 C   0  0  0  0  0  0  0  0  0  0  0  0
   37.3450   31.5290   38.2060 N   0  0  0  0  0  0  0  0  0  0  0  0
   36.2950   29.7750   37.7580 H   0  0  0  0  0  0  0  0  0  0  0  0
   36.2040   31.0170   41.8360 H   0  0  0  0  0  0  0  0  0  0  0  0
   38.3290   33.2850   38.9540 H   0  0  0  0  0  0  0  0  0  0  0  0
  1  5  1  0  0  0  0
  2  1  2  0  0  0  0
  3  4  1  0  0  0  0
  4 11  2  0  0  0  0
  4  5  1  0  0  0  0
  5  6  2  0  0  0  0
  6  8  1  0  0  0  0
  6  7  1  0  0  0  0
  9 10  1  0  0  0  0
  9  8  2  0  0  0  0
 11  9  1  0  0  0  0
 12 11  1  0  0  0  0
 13 14  1  0  0  0  0
 14  1  1  0  0  0  0
 14 15  2  0  0  0  0
 15 20  1  0  0  0  0
 16 15  1  0  0  0  0
 17 16  2  0  0  0  0
 18 13  2  0  0  0  0
 18 17  1  0  0  0  0
 19 13  1  0  0  0  0
 21 17  1  0  0  0  0
M  END
>  <minimizedAffinity>
-4.74542713

$$$$

 OpenBabel03242512053D

 21 22  0  0  0  0  0  0  0  0999 V2000
   36.7690   27.4350   42.5630 C   0  0  0  0  0  0  0  0  0  0  0  0
   36.2130   27.4020   43.6780 O   0  0  0  0  0  0  0  0  0  0  0  0
   38.6010   29.6210   43.2730 Cl  0  0  0  0  0  0  0  0  0  0  0  0
   37.6460   29.5530   41.8250 C   0  0  0  0  0  0  0  0  0  0  0  0
   36.7920   28.4860   41.5420 C   0  0  0  0  0  0  0  0  0  0  0  0
   36.0300   28.4250   40.3930 C   0  0  0  0  0  0  0  0  0  0  0  0
   35.3900   27.5670   40.2420 H   0  0  0  0  0  0  0  0  0  0  0  0
   36.1270   29.4730   39.4950 C   0  0  0  0  0  3  0  0  0  0  0  0
   36.9600   30.5450   39.7390 C   0  0  0  0  0  0  0  0  0  0  0  0
   37.0480   31.8460   38.5750 Cl  0  0  0  0  0  0  0  0  0  0  0  0
   37.7190   30.5940   40.8950 C   0  0  0  0  0  0  0  0  0  0  0  0
   38.3740   31.4470   41.0770 H   0  0  0  0  0  0  0  0  0  0  0  0
   36.9110   25.0530   42.0460 C   0  0  0  0  0  0  0  0  0  0  0  0
   37.5230   26.3010   42.1410 C   0  0  0  0  0  0  0  0  0  0  0  0
   38.8720   26.3930   41.8130 C   0  0  0  0  0  0  0  0  0  0  0  0
   39.5280   25.2780   41.4200 N   0  0  0  0  0  0  0  0  0  0  0  0
   38.8990   24.0660   41.3370 C   0  0  0  0  0  0  0  0  0  0  0  0
   37.5940   23.9530   41.6480 N   0  0  0  0  0  0  0  0  0  0  0  0
   35.8620   24.9370   42.2910 H   0  0  0  0  0  0  0  0  0  0  0  0
   39.3470   27.3610   41.8870 H   0  0  0  0  0  0  0  0  0  0  0  0
   39.5080   23.2170   41.0100 H   0  0  0  0  0  0  0  0  0  0  0  0
  1  2  2  0  0  0  0
  4  3  1  0  0  0  0
  5  4  1  0  0  0  0
  5  1  1  0  0  0  0
  6  5  2  0  0  0  0
  7  6  1  0  0  0  0
  8  9  2  0  0  0  0
  8  6  1  0  0  0  0
  9 11  1  0  0  0  0
 10  9  1  0  0  0  0
 11 12  1  0  0  0  0
 11  4  2  0  0  0  0
 13 14  1  0  0  0  0
 13 19  1  0  0  0  0
 14  1  1  0  0  0  0
 15 20  1  0  0  0  0
 15 14  2  0  0  0  0
 16 15  1  0  0  0  0
 17 16  2  0  0  0  0
 17 18  1  0  0  0  0
 18 13  2  0  0  0  0
 21 17  1  0  0  0  0
M  END
>  <minimizedAffinity>
-4.61019945

$$$$

 OpenBabel03242512053D

 21 22  0  0  0  0  0  0  0  0999 V2000
   37.0020   27.5560   42.8940 C   0  0  0  0  0  0  0  0  0  0  0  0
   36.0450   27.4110   43.6800 O   0  0  0  0  0  0  0  0  0  0  0  0
   37.1160   24.7060   42.1820 Cl  0  0  0  0  0  0  0  0  0  0  0  0
   38.4850   25.6770   42.6230 C   0  0  0  0  0  0  0  0  0  0  0  0
   38.3690   27.0280   42.9520 C   0  0  0  0  0  0  0  0  0  0  0  0
   39.4520   27.8070   43.3040 C   0  0  0  0  0  0  0  0  0  0  0  0
   39.2850   28.8470   43.5470 H   0  0  0  0  0  0  0  0  0  0  0  0
   40.7000   27.2070   43.3270 C   0  0  0  0  0  3  0  0  0  0  0  0
   40.8560   25.8750   43.0080 C   0  0  0  0  0  0  0  0  0  0  0  0
   42.4510   25.1620   43.0520 Cl  0  0  0  0  0  0  0  0  0  0  0  0
   39.7610   25.1050   42.6570 C   0  0  0  0  0  0  0  0  0  0  0  0
   39.8960   24.0530   42.4070 H   0  0  0  0  0  0  0  0  0  0  0  0
   36.8740   29.7400   41.8130 C   0  0  0  0  0  0  0  0  0  0  0  0
   36.8140   28.3510   41.7270 C   0  0  0  0  0  0  0  0  0  0  0  0
   36.5690   27.7850   40.4800 C   0  0  0  0  0  0  0  0  0  0  0  0
   36.4000   28.5970   39.4130 N   0  0  0  0  0  0  0  0  0  0  0  0
   36.4640   29.9590   39.5290 C   0  0  0  0  0  0  0  0  0  0  0  0
   36.7010   30.5300   40.7260 N   0  0  0  0  0  0  0  0  0  0  0  0
   37.0640   30.2230   42.7640 H   0  0  0  0  0  0  0  0  0  0  0  0
   36.5220   26.7070   40.4130 H   0  0  0  0  0  0  0  0  0  0  0  0
   36.3150   30.5390   38.6130 H   0  0  0  0  0  0  0  0  0  0  0  0
  1  5  1  0  0  0  0
  1  2  2  0  0  0  0
  3  4  1  0  0  0  0
  4 11  2  0  0  0  0
  4  5  1  0  0  0  0
  5  6  2  0  0  0  0
  6  8  1  0  0  0  0
  6  7  1  0  0  0  0
  9 10  1  0  0  0  0
  9  8  2  0  0  0  0
 11  9  1  0  0  0  0
 12 11  1  0  0  0  0
 13 19  1  0  0  0  0
 14 13  1  0  0  0  0
 14  1  1  0  0  0  0
 15 14  2  0  0  0  0
 16 17  2  0  0  0  0
 16 15  1  0  0  0  0
 17 18  1  0  0  0  0
 18 13  2  0  0  0  0
 20 15  1  0  0  0  0
 21 17  1  0  0  0  0
M  END
>  <minimizedAffinity>
-4.60128498

$$$$

 OpenBabel03242512053D

 21 22  0  0  0  0  0  0  0  0999 V2000
   37.2290   27.0340   43.0040 C   0  0  0  0  0  0  0  0  0  0  0  0
   36.2510   27.4080   43.6800 O   0  0  0  0  0  0  0  0  0  0  0  0
   37.7880   29.7580   42.0540 Cl  0  0  0  0  0  0  0  0  0  0  0  0
   38.9770   28.6590   42.6810 C   0  0  0  0  0  0  0  0  0  0  0  0
   38.6500   27.3750   43.1180 C   0  0  0  0  0  0  0  0  0  0  0  0
   39.5890   26.4950   43.6170 C   0  0  0  0  0  0  0  0  0  0  0  0
   39.2620   25.5160   43.9360 H   0  0  0  0  0  0  0  0  0  0  0  0
   40.9050   26.9200   43.6800 C   0  0  0  0  0  3  0  0  0  0  0  0
   41.2670   28.1820   43.2580 C   0  0  0  0  0  0  0  0  0  0  0  0
   42.9420   28.6720   43.3560 Cl  0  0  0  0  0  0  0  0  0  0  0  0
   40.3160   29.0540   42.7590 C   0  0  0  0  0  0  0  0  0  0  0  0
   40.6140   30.0490   42.4290 H   0  0  0  0  0  0  0  0  0  0  0  0
   36.9050   26.6050   40.6230 C   0  0  0  0  0  0  0  0  0  0  0  0
   37.0100   26.1260   41.9270 C   0  0  0  0  0  0  0  0  0  0  0  0
   36.8940   24.7540   42.1310 C   0  0  0  0  0  0  0  0  0  0  0  0
   36.6860   23.9500   41.0650 N   0  0  0  0  0  0  0  0  0  0  0  0
   36.5870   24.4500   39.7950 C   0  0  0  0  0  0  0  0  0  0  0  0
   36.6970   25.7730   39.5740 N   0  0  0  0  0  0  0  0  0  0  0  0
   36.9900   27.6650   40.4200 H   0  0  0  0  0  0  0  0  0  0  0  0
   36.9750   24.3840   43.1420 H   0  0  0  0  0  0  0  0  0  0  0  0
   36.4190   23.7240   38.9920 H   0  0  0  0  0  0  0  0  0  0  0  0
  1  5  1  0  0  0  0
  1  2  2  0  0  0  0
  3  4  1  0  0  0  0
  4 11  2  0  0  0  0
  4  5  1  0  0  0  0
  5  6  2  0  0  0  0
  6  8  1  0  0  0  0
  6  7  1  0  0  0  0
  9 10  1  0  0  0  0
  9  8  2  0  0  0  0
 11  9  1  0  0  0  0
 12 11  1  0  0  0  0
 13 14  1  0  0  0  0
 14 15  2  0  0  0  0
 14  1  1  0  0  0  0
 15 20  1  0  0  0  0
 16 15  1  0  0  0  0
 17 16  2  0  0  0  0
 18 17  1  0  0  0  0
 18 13  2  0  0  0  0
 19 13  1  0  0  0  0
 21 17  1  0  0  0  0
M  END
>  <minimizedAffinity>
-4.54554462

$$$$

 OpenBabel03242512053D

 21 22  0  0  0  0  0  0  0  0999 V2000
   37.2470   27.7100   42.9280 C   0  0  0  0  0  0  0  0  0  0  0  0
   36.2770   27.4830   43.6780 O   0  0  0  0  0  0  0  0  0  0  0  0
   35.4970   28.9260   40.9030 Cl  0  0  0  0  0  0  0  0  0  0  0  0
   36.9960   29.6020   41.4590 C   0  0  0  0  0  0  0  0  0  0  0  0
   37.7850   28.9770   42.4250 C   0  0  0  0  0  0  0  0  0  0  0  0
   38.9780   29.5080   42.8720 C   0  0  0  0  0  0  0  0  0  0  0  0
   39.5360   28.9660   43.6230 H   0  0  0  0  0  0  0  0  0  0  0  0
   39.3950   30.7110   42.3300 C   0  0  0  0  0  3  0  0  0  0  0  0
   38.6430   31.3600   41.3730 C   0  0  0  0  0  0  0  0  0  0  0  0
   39.2110   32.8770   40.7180 Cl  0  0  0  0  0  0  0  0  0  0  0  0
   37.4490   30.8160   40.9340 C   0  0  0  0  0  0  0  0  0  0  0  0
   36.8620   31.3380   40.1770 H   0  0  0  0  0  0  0  0  0  0  0  0
   39.0370   26.0730   43.2040 C   0  0  0  0  0  0  0  0  0  0  0  0
   38.0030   26.6060   42.4370 C   0  0  0  0  0  0  0  0  0  0  0  0
   37.7450   26.0280   41.1980 C   0  0  0  0  0  0  0  0  0  0  0  0
   38.5000   24.9830   40.7920 N   0  0  0  0  0  0  0  0  0  0  0  0
   39.5090   24.4810   41.5680 C   0  0  0  0  0  0  0  0  0  0  0  0
   39.7770   25.0240   42.7710 N   0  0  0  0  0  0  0  0  0  0  0  0
   39.2710   26.4920   44.1740 H   0  0  0  0  0  0  0  0  0  0  0  0
   36.9430   26.4410   40.6030 H   0  0  0  0  0  0  0  0  0  0  0  0
   40.0690   23.6340   41.1600 H   0  0  0  0  0  0  0  0  0  0  0  0
  1  2  2  0  0  0  0
  3  4  1  0  0  0  0
  4  5  1  0  0  0  0
  5  6  2  0  0  0  0
  5  1  1  0  0  0  0
  6  7  1  0  0  0  0
  8  6  1  0  0  0  0
  9  8  2  0  0  0  0
 10  9  1  0  0  0  0
 11  9  1  0  0  0  0
 11  4  2  0  0  0  0
 12 11  1  0  0  0  0
 13 19  1  0  0  0  0
 14  1  1  0  0  0  0
 14 13  2  0  0  0  0
 15 14  1  0  0  0  0
 16 15  2  0  0  0  0
 16 17  1  0  0  0  0
 17 18  2  0  0  0  0
 18 13  1  0  0  0  0
 20 15  1  0  0  0  0
 21 17  1  0  0  0  0
M  END
>  <minimizedAffinity>
-4.41252136

$$$$

 OpenBabel03242512053D

 21 22  0  0  0  0  0  0  0  0999 V2000
   37.2300   30.4650   41.1990 C   0  0  0  0  0  0  0  0  0  0  0  0
   36.0690   30.9050   41.3060 O   0  0  0  0  0  0  0  0  0  0  0  0
   36.0970   27.9850   40.1020 Cl  0  0  0  0  0  0  0  0  0  0  0  0
   37.3540   28.0620   41.2960 C   0  0  0  0  0  0  0  0  0  0  0  0
   37.8530   29.2720   41.7790 C   0  0  0  0  0  0  0  0  0  0  0  0
   38.8530   29.3410   42.7280 C   0  0  0  0  0  0  0  0  0  0  0  0
   39.1890   30.3150   43.0560 H   0  0  0  0  0  0  0  0  0  0  0  0
   39.3710   28.1520   43.2110 C   0  0  0  0  0  3  0  0  0  0  0  0
   38.9050   26.9360   42.7570 C   0  0  0  0  0  0  0  0  0  0  0  0
   39.5910   25.4610   43.3960 Cl  0  0  0  0  0  0  0  0  0  0  0  0
   37.9020   26.8810   41.8050 C   0  0  0  0  0  0  0  0  0  0  0  0
   37.5420   25.9140   41.4540 H   0  0  0  0  0  0  0  0  0  0  0  0
   38.6280   30.6380   39.2060 C   0  0  0  0  0  0  0  0  0  0  0  0
   38.1630   31.1870   40.3990 C   0  0  0  0  0  0  0  0  0  0  0  0
   38.6360   32.4420   40.7690 C   0  0  0  0  0  0  0  0  0  0  0  0
   39.5200   33.0720   39.9630 N   0  0  0  0  0  0  0  0  0  0  0  0
   39.9590   32.5070   38.7970 C   0  0  0  0  0  0  0  0  0  0  0  0
   39.5150   31.2940   38.4180 N   0  0  0  0  0  0  0  0  0  0  0  0
   38.2850   29.6640   38.8800 H   0  0  0  0  0  0  0  0  0  0  0  0
   38.2750   32.8670   41.6940 H   0  0  0  0  0  0  0  0  0  0  0  0
   40.6750   33.0890   38.2070 H   0  0  0  0  0  0  0  0  0  0  0  0
  1  2  2  0  0  0  0
  1  5  1  0  0  0  0
  3  4  1  0  0  0  0
  4  5  2  0  0  0  0
  4 11  1  0  0  0  0
  5  6  1  0  0  0  0
  6  7  1  0  0  0  0
  6  8  2  0  0  0  0
  9  8  1  0  0  0  0
  9 10  1  0  0  0  0
 11  9  2  0  0  0  0
 12 11  1  0  0  0  0
 13 14  1  0  0  0  0
 14 15  2  0  0  0  0
 14  1  1  0  0  0  0
 15 20  1  0  0  0  0
 16 15  1  0  0  0  0
 17 16  2  0  0  0  0
 18 17  1  0  0  0  0
 18 13  2  0  0  0  0
 19 13  1  0  0  0  0
 21 17  1  0  0  0  0
M  END
>  <minimizedAffinity>
-4.3273201

$$$$

 OpenBabel03242512053D

 21 22  0  0  0  0  0  0  0  0999 V2000
   36.7740   30.0760   40.6950 C   0  0  0  0  0  0  0  0  0  0  0  0
   36.0630   30.8810   41.3270 O   0  0  0  0  0  0  0  0  0  0  0  0
   37.9500   29.2110   43.2460 Cl  0  0  0  0  0  0  0  0  0  0  0  0
   37.4240   28.1460   41.9800 C   0  0  0  0  0  0  0  0  0  0  0  0
   36.8720   28.6160   40.7880 C   0  0  0  0  0  0  0  0  0  0  0  0
   36.4520   27.7760   39.7770 C   0  0  0  0  0  0  0  0  0  0  0  0
   36.0340   28.2130   38.8810 H   0  0  0  0  0  0  0  0  0  0  0  0
   36.5910   26.4130   39.9680 C   0  0  0  0  0  3  0  0  0  0  0  0
   37.1320   25.9080   41.1330 C   0  0  0  0  0  0  0  0  0  0  0  0
   37.2880   24.1790   41.3280 Cl  0  0  0  0  0  0  0  0  0  0  0  0
   37.5500   26.7620   42.1380 C   0  0  0  0  0  0  0  0  0  0  0  0
   37.9750   26.3520   43.0540 H   0  0  0  0  0  0  0  0  0  0  0  0
   37.1550   31.1850   38.5540 C   0  0  0  0  0  0  0  0  0  0  0  0
   37.6630   30.5820   39.7030 C   0  0  0  0  0  0  0  0  0  0  0  0
   39.0450   30.4980   39.8380 C   0  0  0  0  0  0  0  0  0  0  0  0
   39.8310   30.9980   38.8590 N   0  0  0  0  0  0  0  0  0  0  0  0
   39.3020   31.5850   37.7420 C   0  0  0  0  0  0  0  0  0  0  0  0
   37.9680   31.6790   37.5890 N   0  0  0  0  0  0  0  0  0  0  0  0
   36.0850   31.2730   38.4080 H   0  0  0  0  0  0  0  0  0  0  0  0
   39.4390   30.0300   40.7290 H   0  0  0  0  0  0  0  0  0  0  0  0
   40.0140   31.9630   37.0010 H   0  0  0  0  0  0  0  0  0  0  0  0
  1  5  1  0  0  0  0
  1  2  2  0  0  0  0
  4 11  1  0  0  0  0
  4  3  1  0  0  0  0
  5  4  2  0  0  0  0
  6  8  2  0  0  0  0
  6  5  1  0  0  0  0
  7  6  1  0  0  0  0
  8  9  1  0  0  0  0
  9 10  1  0  0  0  0
  9 11  2  0  0  0  0
 11 12  1  0  0  0  0
 13 14  1  0  0  0  0
 14 15  2  0  0  0  0
 14  1  1  0  0  0  0
 15 20  1  0  0  0  0
 16 15  1  0  0  0  0
 17 16  2  0  0  0  0
 18 17  1  0  0  0  0
 18 13  2  0  0  0  0
 19 13  1  0  0  0  0
 21 17  1  0  0  0  0
M  END
>  <minimizedAffinity>
-4.28654242

$$$$

 OpenBabel03242512053D

 21 22  0  0  0  0  0  0  0  0999 V2000
   36.6760   28.7480   41.1070 C   0  0  0  0  0  0  0  0  0  0  0  0
   35.5460   29.2710   41.0520 O   0  0  0  0  0  0  0  0  0  0  0  0
   36.2670   27.2590   43.6080 Cl  0  0  0  0  0  0  0  0  0  0  0  0
   36.9100   26.5860   42.1430 C   0  0  0  0  0  0  0  0  0  0  0  0
   37.0810   27.3450   40.9850 C   0  0  0  0  0  0  0  0  0  0  0  0
   37.5910   26.8170   39.8160 C   0  0  0  0  0  0  0  0  0  0  0  0
   37.6960   27.4660   38.9580 H   0  0  0  0  0  0  0  0  0  0  0  0
   37.9430   25.4780   39.8090 C   0  0  0  0  0  3  0  0  0  0  0  0
   37.7890   24.6960   40.9340 C   0  0  0  0  0  0  0  0  0  0  0  0
   38.2480   23.0110   40.8770 Cl  0  0  0  0  0  0  0  0  0  0  0  0
   37.2760   25.2380   42.1000 C   0  0  0  0  0  0  0  0  0  0  0  0
   37.1590   24.6090   42.9830 H   0  0  0  0  0  0  0  0  0  0  0  0
   38.3340   30.3320   40.2710 C   0  0  0  0  0  0  0  0  0  0  0  0
   37.8070   29.5860   41.3230 C   0  0  0  0  0  0  0  0  0  0  0  0
   38.4200   29.6930   42.5680 C   0  0  0  0  0  0  0  0  0  0  0  0
   39.4900   30.5070   42.7040 N   0  0  0  0  0  0  0  0  0  0  0  0
   39.9850   31.2270   41.6510 C   0  0  0  0  0  0  0  0  0  0  0  0
   39.4080   31.1400   40.4370 N   0  0  0  0  0  0  0  0  0  0  0  0
   37.8880   30.2790   39.2850 H   0  0  0  0  0  0  0  0  0  0  0  0
   38.0120   29.1150   43.3850 H   0  0  0  0  0  0  0  0  0  0  0  0
   40.8550   31.8600   41.8530 H   0  0  0  0  0  0  0  0  0  0  0  0
  1 14  1  0  0  0  0
  2  1  2  0  0  0  0
  4  3  1  0  0  0  0
  5  1  1  0  0  0  0
  5  4  2  0  0  0  0
  6  5  1  0  0  0  0
  7  6  1  0  0  0  0
  8  6  2  0  0  0  0
  8  9  1  0  0  0  0
  9 11  2  0  0  0  0
 10  9  1  0  0  0  0
 11  4  1  0  0  0  0
 11 12  1  0  0  0  0
 13 18  2  0  0  0  0
 13 14  1  0  0  0  0
 14 15  2  0  0  0  0
 15 16  1  0  0  0  0
 15 20  1  0  0  0  0
 17 21  1  0  0  0  0
 17 16  2  0  0  0  0
 18 17  1  0  0  0  0
 19 13  1  0  0  0  0
M  END
>  <minimizedAffinity>
-4.2787118

$$$$

 OpenBabel03242512053D

 21 22  0  0  0  0  0  0  0  0999 V2000
   39.2110   32.0870   40.9690 C   0  0  0  0  0  0  0  0  0  0  0  0
   38.8870   33.2890   41.0330 O   0  0  0  0  0  0  0  0  0  0  0  0
   36.6550   31.3920   39.6950 Cl  0  0  0  0  0  0  0  0  0  0  0  0
   37.3790   30.5240   41.0120 C   0  0  0  0  0  0  0  0  0  0  0  0
   38.5980   30.9030   41.5770 C   0  0  0  0  0  0  0  0  0  0  0  0
   39.1800   30.2180   42.6240 C   0  0  0  0  0  0  0  0  0  0  0  0
   40.1260   30.5700   43.0100 H   0  0  0  0  0  0  0  0  0  0  0  0
   38.5150   29.1120   43.1240 C   0  0  0  0  0  3  0  0  0  0  0  0
   37.3090   28.7060   42.5920 C   0  0  0  0  0  0  0  0  0  0  0  0
   36.5060   27.3030   43.2570 Cl  0  0  0  0  0  0  0  0  0  0  0  0
   36.7350   29.4020   41.5420 C   0  0  0  0  0  0  0  0  0  0  0  0
   35.7820   29.0710   41.1300 H   0  0  0  0  0  0  0  0  0  0  0  0
   41.6280   32.0970   40.6250 C   0  0  0  0  0  0  0  0  0  0  0  0
   40.3540   31.7270   40.1980 C   0  0  0  0  0  0  0  0  0  0  0  0
   40.2480   31.0070   39.0120 C   0  0  0  0  0  0  0  0  0  0  0  0
   41.3730   30.6990   38.3290 N   0  0  0  0  0  0  0  0  0  0  0  0
   42.6100   31.0760   38.7750 C   0  0  0  0  0  0  0  0  0  0  0  0
   42.7380   31.7730   39.9200 N   0  0  0  0  0  0  0  0  0  0  0  0
   41.7570   32.6570   41.5430 H   0  0  0  0  0  0  0  0  0  0  0  0
   39.2600   30.7210   38.6800 H   0  0  0  0  0  0  0  0  0  0  0  0
   43.4660   30.7830   38.1580 H   0  0  0  0  0  0  0  0  0  0  0  0
  1  2  2  0  0  0  0
  1  5  1  0  0  0  0
  3  4  1  0  0  0  0
  4 11  2  0  0  0  0
  4  5  1  0  0  0  0
  5  6  2  0  0  0  0
  6  7  1  0  0  0  0
  6  8  1  0  0  0  0
  9  8  2  0  0  0  0
  9 10  1  0  0  0  0
 11  9  1  0  0  0  0
 12 11  1  0  0  0  0
 13 19  1  0  0  0  0
 14 13  1  0  0  0  0
 14  1  1  0  0  0  0
 15 14  2  0  0  0  0
 16 17  2  0  0  0  0
 16 15  1  0  0  0  0
 17 18  1  0  0  0  0
 18 13  2  0  0  0  0
 20 15  1  0  0  0  0
 21 17  1  0  0  0  0
M  END
>  <minimizedAffinity>
-4.20854282

$$$$
