REMARK  Name = 
REMARK  3 active torsions:
REMARK  status: ('A' for Active; 'I' for Inactive)
REMARK    1  A    between atoms: C_3  and  C_18
REMARK    2  A    between atoms: C_14  and  N_17
REMARK    3  A    between atoms: C_15  and  C_35
REMARK                            x       y       z     vdW  Elec       q    Type
REMARK                         _______ _______ _______ _____ _____    ______ ____
ROOT
ATOM      1  C   UNL     1      45.345  34.693  42.351  0.00  0.00    +0.000 A 
ATOM      2  C   UNL     1      46.471  35.215  41.653  0.00  0.00    +0.000 A 
ATOM      3  C   UNL     1      47.732  34.925  42.200  0.00  0.00    +0.000 A 
ATOM      4  N   UNL     1      47.776  34.184  43.330  0.00  0.00    +0.000 NA
ATOM      5  C   UNL     1      46.677  33.713  43.953  0.00  0.00    +0.000 A 
ATOM      6  N   UNL     1      45.452  33.974  43.453  0.00  0.00    +0.000 NA
ATOM      7  C   UNL     1      43.737  34.153  40.726  0.00  0.00    +0.000 C 
ATOM      8  O   UNL     1      44.645  33.375  40.273  0.00  0.00    +0.000 OA
ATOM      9  N   UNL     1      44.023  34.947  41.854  0.00  0.00    +0.000 N 
ATOM     10  N   UNL     1      42.493  34.157  40.052  0.00  0.00    +0.000 N 
ATOM     11  C   UNL     1      42.392  33.567  38.703  0.00  0.00    +0.000 C 
ATOM     12  C   UNL     1      41.318  34.398  38.074  0.00  0.00    +0.000 C 
ATOM     13  C   UNL     1      40.814  35.318  39.149  0.00  0.00    +0.000 C 
ATOM     14  C   UNL     1      41.194  34.624  40.434  0.00  0.00    +0.000 C 
ATOM     15  H   UNL     1      46.248  35.787  40.765  0.00  0.00    +0.000 HD
ATOM     16  H   UNL     1      46.796  33.119  44.866  0.00  0.00    +0.000 HD
ATOM     17  H   UNL     1      43.295  35.601  42.197  0.00  0.00    +0.000 HD
ATOM     18  H   UNL     1      43.338  33.566  38.165  0.00  0.00    +0.000 HD
ATOM     19  H   UNL     1      41.965  32.550  38.875  0.00  0.00    +0.000 HD
ATOM     20  H   UNL     1      41.800  34.945  37.224  0.00  0.00    +0.000 HD
ATOM     21  H   UNL     1      40.511  33.802  37.599  0.00  0.00    +0.000 HD
ATOM     22  H   UNL     1      41.614  36.141  39.130  0.00  0.00    +0.000 HD
ATOM     23  H   UNL     1      39.935  35.856  39.017  0.00  0.00    +0.000 HD
ATOM     24  H   UNL     1      41.195  35.398  41.193  0.00  0.00    +0.000 HD
ENDROOT
BRANCH  14  27
ATOM     25  C   UNL     1      38.904  33.488  40.754  0.00  0.00    +0.000 C 
ATOM     26  O   UNL     1      38.500  34.486  40.113  0.00  0.00    +0.000 OA
ATOM     27  N   UNL     1      40.355  33.487  40.784  0.00  0.00    +0.000 N 
ATOM     28  H   UNL     1      40.853  32.591  41.084  0.00  0.00    +0.000 HD
BRANCH  25  31
ATOM     29 CL   UNL     1      40.578  31.770  42.639  0.00  0.00    +0.000 Cl
ATOM     30  C   UNL     1      38.870  31.518  42.324  0.00  0.00    +0.000 A 
ATOM     31  C   UNL     1      38.238  32.374  41.446  0.00  0.00    +0.000 A 
ATOM     32  C   UNL     1      36.888  32.199  41.179  0.00  0.00    +0.000 A 
ATOM     33  H   UNL     1      36.368  32.851  40.499  0.00  0.00    +0.000 HD
ATOM     34  C   UNL     1      36.144  31.200  41.755  0.00  0.00    +0.000 A 
ATOM     35  C   UNL     1      36.781  30.349  42.630  0.00  0.00    +0.000 A 
ATOM     36 CL   UNL     1      35.934  29.045  43.419  0.00  0.00    +0.000 Cl
ATOM     37  C   UNL     1      38.132  30.491  42.924  0.00  0.00    +0.000 A 
ATOM     38  H   UNL     1      38.705  29.867  43.598  0.00  0.00    +0.000 HD
ENDBRANCH  25  31
ENDBRANCH  14  27
BRANCH   3  39
ATOM     39  C   UNL     1      48.866  35.477  41.458  0.00  0.00    +0.000 C 
ATOM     40  F   UNL     1      50.002  34.719  41.764  0.00  0.00    +0.000 F 
ATOM     41  F   UNL     1      49.120  36.743  41.985  0.00  0.00    +0.000 F 
ATOM     42  F   UNL     1      48.697  35.468  40.113  0.00  0.00    +0.000 F 
ENDBRANCH   3  39
TORSDOF 3
