
 OpenBabel03252502273D

 36 38  0  0  0  0  0  0  0  0999 V2000
   45.0020   34.5440   41.3480 C   0  0  0  0  0  0  0  0  0  0  0  0
   45.3620   35.3130   42.4430 C   0  0  0  0  0  0  0  0  0  0  0  0
   46.7100   35.5860   42.6570 C   0  0  0  0  0  0  0  0  0  0  0  0
   47.6470   35.0960   41.7930 C   0  0  0  0  0  0  0  0  0  0  0  0
   47.3170   34.3280   40.6950 C   0  0  0  0  0  0  0  0  0  0  0  0
   45.9580   34.0710   40.5070 C   0  0  0  0  0  0  0  0  0  0  0  0
   44.6290   35.7070   43.1350 H   0  0  0  0  0  0  0  0  0  0  0  0
   47.0010   36.1800   43.5010 H   0  0  0  0  0  0  0  0  0  0  0  0
   48.6930   35.3260   41.9860 H   0  0  0  0  0  0  0  0  0  0  0  0
   48.0450   33.9270   39.9930 H   0  0  0  0  0  0  0  0  0  0  0  0
   41.3210   34.8720   40.5820 C   0  0  0  0  0  0  0  0  0  0  0  0
   42.6850   35.2210   40.7010 C   0  0  0  0  0  0  0  0  0  0  0  0
   43.5770   34.3000   41.1830 C   0  0  0  0  0  0  0  0  0  0  0  0
   43.0890   33.0810   41.5260 N   0  0  0  0  0  0  0  0  0  0  0  0
   41.7840   32.7490   41.4110 C   0  0  0  0  0  0  0  0  0  0  0  0
   40.8960   33.6420   40.9400 N   0  0  0  0  0  0  0  0  0  0  0  0
   43.0420   36.1930   40.4220 H   0  0  0  0  0  0  0  0  0  0  0  0
   41.4330   31.7590   41.6980 H   0  0  0  0  0  0  0  0  0  0  0  0
   40.3510   35.8540   40.0640 C   0  0  0  0  0  0  0  0  0  0  0  0
   39.1770   35.1640   39.7650 F   0  0  0  0  0  0  0  0  0  0  0  0
   40.8390   36.3060   38.8460 F   0  0  0  0  0  0  0  0  0  0  0  0
   40.0860   36.8740   40.9440 F   0  0  0  0  0  0  0  0  0  0  0  0
   45.4860   31.9370   39.0760 C   0  0  0  0  0  0  0  0  0  0  0  0
   45.9600   31.0250   39.7390 O   0  0  0  0  0  0  0  0  0  0  0  0
   45.4740   33.3060   39.4250 N   0  0  0  0  0  0  0  0  0  0  0  0
   45.0030   33.9880   38.7550 H   0  0  0  0  0  0  0  0  0  0  0  0
   47.4680   31.9540   36.9120 Cl  0  0  0  0  0  0  0  0  0  0  0  0
   45.7740   31.5110   36.7670 C   0  0  0  0  0  0  0  0  0  0  0  0
   44.8840   31.5200   37.8120 C   0  0  0  0  0  0  0  0  0  0  0  0
   43.5470   31.1560   37.6290 C   0  0  0  0  0  0  0  0  0  0  0  0
   42.9230   31.1930   38.5050 H   0  0  0  0  0  0  0  0  0  0  0  0
   43.1130   30.7810   36.3760 C   0  0  0  0  0  3  0  0  0  0  0  0
   44.0190   30.7800   35.3490 C   0  0  0  0  0  0  0  0  0  0  0  0
   43.4420   30.3010   33.7740 Cl  0  0  0  0  0  0  0  0  0  0  0  0
   45.3480   31.1360   35.5080 C   0  0  0  0  0  0  0  0  0  0  0  0
   46.0300   31.1220   34.6690 H   0  0  0  0  0  0  0  0  0  0  0  0
  1  2  1  0  0  0  0
  2  3  2  0  0  0  0
  2  7  1  0  0  0  0
  3  8  1  0  0  0  0
  4  9  1  0  0  0  0
  4  3  1  0  0  0  0
  5  4  2  0  0  0  0
  6  5  1  0  0  0  0
  6  1  2  0  0  0  0
 10  5  1  0  0  0  0
 11 12  2  0  0  0  0
 11 16  1  0  0  0  0
 12 13  1  0  0  0  0
 13  1  1  0  0  0  0
 13 14  2  0  0  0  0
 15 14  1  0  0  0  0
 15 18  1  0  0  0  0
 16 15  2  0  0  0  0
 17 12  1  0  0  0  0
 19 11  1  0  0  0  0
 19 22  1  0  0  0  0
 20 19  1  0  0  0  0
 21 19  1  0  0  0  0
 23 25  1  0  0  0  0
 23 24  2  0  0  0  0
 25  6  1  0  0  0  0
 26 25  1  0  0  0  0
 28 27  1  0  0  0  0
 28 29  1  0  0  0  0
 29 23  1  0  0  0  0
 30 29  2  0  0  0  0
 30 31  1  0  0  0  0
 32 30  1  0  0  0  0
 33 35  1  0  0  0  0
 33 32  2  0  0  0  0
 34 33  1  0  0  0  0
 35 28  2  0  0  0  0
 36 35  1  0  0  0  0
M  END
>  <minimizedAffinity>
-6.07181931

>  <minimizedRMSD>
0.513597608

$$$$
