
 OpenBabel03242519093D

 48 51  0  0  1  0  0  0  0  0999 V2000
   48.6280   32.0030   37.1160 C   0  0  0  0  0  0  0  0  0  0  0  0
   47.9800   32.9380   37.9580 C   0  0  0  0  0  0  0  0  0  0  0  0
   46.7480   33.3230   37.4930 C   0  0  0  0  0  0  0  0  0  0  0  0
   46.1390   32.8880   36.3410 C   0  0  0  0  0  0  0  0  0  0  0  0
   46.8130   31.9730   35.5530 C   0  0  0  0  0  0  0  0  0  0  0  0
   48.0640   31.5480   35.9710 C   0  0  0  0  0  0  0  0  0  0  0  0
   46.2200   34.0420   38.1160 H   0  0  0  0  0  0  0  0  0  0  0  0
   45.1700   33.2140   36.0110 H   0  0  0  0  0  0  0  0  0  0  0  0
   46.3940   31.5930   34.6400 H   0  0  0  0  0  0  0  0  0  0  0  0
   49.4090   31.0710   33.9850 C   0  0  0  0  0  0  0  0  0  0  0  0
   49.4740   32.3290   33.7330 O   0  0  0  0  0  0  0  0  0  0  0  0
   48.7330   30.6020   35.1330 N   0  0  0  0  0  0  0  0  0  0  0  0
   48.8090   29.5580   35.2350 H   0  0  0  0  0  0  0  0  0  0  0  0
   52.0850   30.3090   34.9210 Cl  0  0  0  0  0  0  0  0  0  0  0  0
   51.3510   29.8050   33.3920 C   0  0  0  0  0  0  0  0  0  0  0  0
   50.0720   30.2090   33.0140 C   0  0  0  0  0  0  0  0  0  0  0  0
   49.5190   29.8050   31.8190 C   0  0  0  0  0  0  0  0  0  0  0  0
   48.5230   30.1480   31.5760 H   0  0  0  0  0  0  0  0  0  0  0  0
   50.2930   28.9790   31.0090 C   0  0  0  0  0  3  0  0  0  0  0  0
   51.5580   28.5720   31.3670 C   0  0  0  0  0  0  0  0  0  0  0  0
   52.4980   27.5390   30.3310 Cl  0  0  0  0  0  0  0  0  0  0  0  0
   52.1080   28.9810   32.5700 C   0  0  0  0  0  0  0  0  0  0  0  0
   53.1020   28.6600   32.8500 H   0  0  0  0  0  0  0  0  0  0  0  0
   48.5280   33.4400   39.1570 N   0  0  0  0  0  0  0  0  0  0  0  0
   49.4430   33.8860   38.9140 H   0  0  0  0  0  0  0  0  0  0  0  0
   47.4760   34.4600   42.4060 N   0  0  0  0  0  0  0  0  0  0  0  0
   47.4480   34.6960   40.9640 C   0  0  0  0  0  0  0  0  0  0  0  0
   48.0530   33.4190   40.4990 C   0  0  2  0  0  0  0  0  0  0  0  0
   49.2810   33.3360   41.4010 C   0  0  0  0  0  0  0  0  0  0  0  0
   48.7620   33.8940   42.6990 C   0  0  0  0  0  0  0  0  0  0  0  0
   48.0890   35.5290   40.6590 H   0  0  0  0  0  0  0  0  0  0  0  0
   46.4090   34.8050   40.6120 H   0  0  0  0  0  0  0  0  0  0  0  0
   47.4340   32.5260   40.7090 H   0  0  0  0  0  0  0  0  0  0  0  0
   49.7180   32.3420   41.4610 H   0  0  0  0  0  0  0  0  0  0  0  0
   49.9960   34.1150   41.0130 H   0  0  0  0  0  0  0  0  0  0  0  0
   49.3960   34.7180   43.1020 H   0  0  0  0  0  0  0  0  0  0  0  0
   48.7190   33.0550   43.4250 H   0  0  0  0  0  0  0  0  0  0  0  0
   44.6020   35.8560   44.3400 C   0  0  0  0  0  0  0  0  0  0  0  0
   45.5310   35.7140   43.3040 C   0  0  0  0  0  0  0  0  0  0  0  0
   46.4980   34.7060   43.3710 C   0  0  0  0  0  0  0  0  0  0  0  0
   46.4590   33.9100   44.4790 N   0  0  0  0  0  0  0  0  0  0  0  0
   45.5780   34.0360   45.4740 C   0  0  0  0  0  0  0  0  0  0  0  0
   44.6470   35.0150   45.4020 N   0  0  0  0  0  0  0  0  0  0  0  0
   43.8830   36.6550   44.2280 H   0  0  0  0  0  0  0  0  0  0  0  0
   45.5840   36.3310   42.4140 H   0  0  0  0  0  0  0  0  0  0  0  0
   45.5870   33.3810   46.3340 H   0  0  0  0  0  0  0  0  0  0  0  0
   50.9800   31.1690   37.8770 N   0  0  0  0  0  0  0  0  0  0  0  0
   49.9410   31.5490   37.5430 C   0  0  0  0  0  0  0  0  0  0  0  0
  1 48  1  0  0  0  0
  1  2  1  0  0  0  0
  2 24  1  0  0  0  0
  3  2  2  0  0  0  0
  3  7  1  0  0  0  0
  4  3  1  0  0  0  0
  5  6  1  0  0  0  0
  5  4  2  0  0  0  0
  6  1  2  0  0  0  0
  8  4  1  0  0  0  0
  9  5  1  0  0  0  0
 10 12  1  0  0  0  0
 11 10  2  0  0  0  0
 12 13  1  0  0  0  0
 12  6  1  0  0  0  0
 15 14  1  0  0  0  0
 16 15  1  0  0  0  0
 16 10  1  0  0  0  0
 17 16  2  0  0  0  0
 18 17  1  0  0  0  0
 19 20  2  0  0  0  0
 19 17  1  0  0  0  0
 20 22  1  0  0  0  0
 21 20  1  0  0  0  0
 22 23  1  0  0  0  0
 22 15  2  0  0  0  0
 24 28  1  0  0  0  0
 25 24  1  0  0  0  0
 26 30  1  0  0  0  0
 26 40  1  0  0  0  0
 27 26  1  0  0  0  0
 28 33  1  1  0  0  0
 28 27  1  0  0  0  0
 28 29  1  0  0  0  0
 29 34  1  0  0  0  0
 29 30  1  0  0  0  0
 30 36  1  0  0  0  0
 30 37  1  0  0  0  0
 31 27  1  0  0  0  0
 32 27  1  0  0  0  0
 35 29  1  0  0  0  0
 38 43  1  0  0  0  0
 39 40  1  0  0  0  0
 39 38  2  0  0  0  0
 40 41  2  0  0  0  0
 41 42  1  0  0  0  0
 42 46  1  0  0  0  0
 43 42  2  0  0  0  0
 44 38  1  0  0  0  0
 45 39  1  0  0  0  0
 48 47  3  0  0  0  0
M  END
>  <minimizedAffinity>
-5.34240818

>  <minimizedRMSD>
0.655508161

$$$$
