
     RDKit          3D

 37 39  0  0  0  0  0  0  0  0999 V2000
   45.1276   34.4135   41.1903 C   0  0  0  0  0  0  0  0  0  0  0  0
   45.5485   35.0206   42.3617 C   0  0  0  0  0  0  0  0  0  0  0  0
   46.9084   35.2537   42.5458 C   0  0  0  0  0  0  0  0  0  0  0  0
   47.7966   34.8841   41.5792 C   0  0  0  0  0  0  0  0  0  0  0  0
   47.4067   34.2775   40.4020 C   0  0  0  0  0  0  0  0  0  0  0  0
   46.0368   34.0572   40.2464 C   0  0  0  0  0  0  0  0  0  0  0  0
   41.4290   34.8449   40.5745 C   0  0  0  0  0  0  0  0  0  0  0  0
   42.8025   35.1639   40.6649 C   0  0  0  0  0  0  0  0  0  0  0  0
   43.6938   34.2017   41.0619 C   0  0  0  0  0  0  0  0  0  0  0  0
   43.1959   32.9737   41.3510 N   0  0  0  0  0  0  0  0  0  0  0  0
   41.8818   32.6696   41.2642 C   0  0  0  0  0  0  0  0  0  0  0  0
   40.9950   33.6026   40.8763 N   0  0  0  0  0  0  0  0  0  0  0  0
   40.4601   35.8708   40.1483 C   0  0  0  0  0  0  0  0  0  0  0  0
   39.2338   35.2336   39.9596 F   0  0  0  0  0  0  0  0  0  0  0  0
   40.8533   36.3047   38.8904 F   0  0  0  0  0  0  0  0  0  0  0  0
   40.3226   36.8981   41.0490 F   0  0  0  0  0  0  0  0  0  0  0  0
   45.4576   32.1418   38.5673 C   0  0  0  0  0  0  0  0  0  0  0  0
   45.9335   31.1396   39.0833 O   0  0  0  0  0  0  0  0  0  0  0  0
   45.4936   33.4515   39.0930 N   0  0  0  0  0  0  0  0  0  0  0  0
   44.8542   35.3189   43.1373 H   0  0  0  0  0  0  0  0  0  0  0  0
   47.2461   35.7242   43.4500 H   0  0  0  0  0  0  0  0  0  0  0  0
   48.8540   35.0791   41.7508 H   0  0  0  0  0  0  0  0  0  0  0  0
   48.0965   33.9740   39.6169 H   0  0  0  0  0  0  0  0  0  0  0  0
   43.1683   36.1453   40.4298 H   0  0  0  0  0  0  0  0  0  0  0  0
   41.5231   31.6712   41.5057 H   0  0  0  0  0  0  0  0  0  0  0  0
   45.0147   34.2261   38.5394 H   0  0  0  0  0  0  0  0  0  0  0  0
   47.3677   31.1585   36.5661 Cl  0  0  0  0  0  0  0  0  0  0  0  0
   45.6524   31.4461   36.3144 C   0  0  0  0  0  0  0  0  0  0  0  0
   44.7991   31.9081   37.2843 C   0  0  0  0  0  0  0  0  0  0  0  0
   43.4428   32.1164   37.0182 C   0  0  0  0  0  0  0  0  0  0  0  0
   42.8499   32.4800   37.8387 H   0  0  0  0  0  0  0  0  0  0  0  0
   42.9520   31.8532   35.7567 C   0  0  0  0  0  0  0  0  0  0  0  0
   43.8239   31.3927   34.8053 C   0  0  0  0  0  0  0  0  0  0  0  0
   43.1760   31.0676   33.2176 Cl  0  0  0  0  0  0  0  0  0  0  0  0
   45.1708   31.1792   35.0477 C   0  0  0  0  0  0  0  0  0  0  0  0
   45.8232   30.8147   34.2664 H   0  0  0  0  0  0  0  0  0  0  0  0
   41.8939   32.0175   35.5529 H   0  0  0  0  0  0  0  0  0  0  0  0
  1  2  2  0
  2  3  1  0
  4  3  2  0
  5  4  1  0
  6  5  2  0
  6  1  1  0
  7  8  2  0
  7 12  1  0
  8  9  1  0
  9  1  1  0
  9 10  2  0
 11 10  1  0
 12 11  2  0
 13  7  1  0
 13 16  1  0
 14 13  1  0
 15 13  1  0
 17 18  2  0
 17 19  1  0
 19  6  1  0
  2 20  1  0
  3 21  1  0
  4 22  1  0
  5 23  1  0
  8 24  1  0
 11 25  1  0
 19 26  1  0
 27 28  1  0
 28 29  2  0
 29 30  1  0
 30 31  1  0
 30 32  2  0
 32 33  1  0
 33 34  1  0
 33 35  2  0
 35 36  1  0
 35 28  1  0
 32 37  1  0
 17 29  1  0
M  ISO  8  20  14  21  14  22  14  23  14  24  14  25  14  31  16  36  15
M  END
>  <DihAtoms>  (1) 
17,16,28,27

>  <DihDeg>  (1) 
-62.73425628448443

$$$$
