
 OpenBabel03242519093D

 48 51  0  0  1  0  0  0  0  0999 V2000
   49.3040   32.0980   37.0110 C   0  0  0  0  0  0  0  0  0  0  0  0
   48.4100   32.9240   37.7330 C   0  0  0  0  0  0  0  0  0  0  0  0
   47.1890   33.0640   37.1220 C   0  0  0  0  0  0  0  0  0  0  0  0
   46.8010   32.4930   35.9340 C   0  0  0  0  0  0  0  0  0  0  0  0
   47.7120   31.6950   35.2680 C   0  0  0  0  0  0  0  0  0  0  0  0
   48.9630   31.5160   35.8360 C   0  0  0  0  0  0  0  0  0  0  0  0
   46.4750   33.6920   37.6500 H   0  0  0  0  0  0  0  0  0  0  0  0
   45.8330   32.6270   35.4890 H   0  0  0  0  0  0  0  0  0  0  0  0
   47.4730   31.2190   34.3350 H   0  0  0  0  0  0  0  0  0  0  0  0
   50.3640   31.1270   33.8690 C   0  0  0  0  0  0  0  0  0  0  0  0
   50.0360   32.2830   33.4130 O   0  0  0  0  0  0  0  0  0  0  0  0
   49.8790   30.6840   35.1200 N   0  0  0  0  0  0  0  0  0  0  0  0
   50.2740   29.7460   35.3840 H   0  0  0  0  0  0  0  0  0  0  0  0
   48.8150   29.4240   32.0490 Cl  0  0  0  0  0  0  0  0  0  0  0  0
   50.5800   29.5150   32.1140 C   0  0  0  0  0  0  0  0  0  0  0  0
   51.2480   30.3500   33.0090 C   0  0  0  0  0  0  0  0  0  0  0  0
   52.6230   30.4060   33.0450 C   0  0  0  0  0  0  0  0  0  0  0  0
   53.0880   31.0710   33.7590 H   0  0  0  0  0  0  0  0  0  0  0  0
   53.3140   29.5940   32.1480 C   0  0  0  0  0  0  0  0  0  0  0  0
   52.6720   28.7650   31.2590 C   0  0  0  0  0  0  0  0  0  0  0  0
   53.5650   27.7630   30.1540 Cl  0  0  0  0  0  0  0  0  0  0  0  0
   51.2880   28.7120   31.2290 C   0  0  0  0  0  0  0  0  0  0  0  0
   50.7840   28.0610   30.5300 H   0  0  0  0  0  0  0  0  0  0  0  0
   48.7200   33.5500   38.9590 N   0  0  0  0  0  0  0  0  0  0  0  0
   49.5050   34.2170   38.7720 H   0  0  0  0  0  0  0  0  0  0  0  0
   47.6640   34.2300   42.2930 N   0  0  0  0  0  0  0  0  0  0  0  0
   47.7620   34.6850   40.9080 C   0  0  0  0  0  0  0  0  0  0  0  0
   48.1700   33.4080   40.2630 C   0  0  2  0  0  0  0  0  0  0  0  0
   49.3110   32.9730   41.1800 C   0  0  0  0  0  0  0  0  0  0  0  0
   48.8160   33.4090   42.5330 C   0  0  0  0  0  0  0  0  0  0  0  0
   48.5510   35.4290   40.7620 H   0  0  0  0  0  0  0  0  0  0  0  0
   46.7790   35.0270   40.5450 H   0  0  0  0  0  0  0  0  0  0  0  0
   47.3980   32.6160   40.3070 H   0  0  0  0  0  0  0  0  0  0  0  0
   49.5690   31.9210   41.0920 H   0  0  0  0  0  0  0  0  0  0  0  0
   50.1680   33.6650   40.9450 H   0  0  0  0  0  0  0  0  0  0  0  0
   49.5550   34.0370   43.0840 H   0  0  0  0  0  0  0  0  0  0  0  0
   48.5900   32.4900   43.1120 H   0  0  0  0  0  0  0  0  0  0  0  0
   44.7690   35.6390   44.1860 C   0  0  0  0  0  0  0  0  0  0  0  0
   45.6950   35.4760   43.1510 C   0  0  0  0  0  0  0  0  0  0  0  0
   46.6850   34.4930   43.2540 C   0  0  0  0  0  0  0  0  0  0  0  0
   46.6700   33.7440   44.3940 N   0  0  0  0  0  0  0  0  0  0  0  0
   45.7930   33.8910   45.3880 C   0  0  0  0  0  0  0  0  0  0  0  0
   44.8390   34.8440   45.2810 N   0  0  0  0  0  0  0  0  0  0  0  0
   44.0300   36.4160   44.0450 H   0  0  0  0  0  0  0  0  0  0  0  0
   45.7290   36.0560   42.2360 H   0  0  0  0  0  0  0  0  0  0  0  0
   45.8210   33.2720   46.2750 H   0  0  0  0  0  0  0  0  0  0  0  0
   51.6660   31.7280   38.0560 N   0  0  0  0  0  0  0  0  0  0  0  0
   50.6210   31.9030   37.5960 C   0  0  0  0  0  0  0  0  0  0  0  0
  1 48  1  0  0  0  0
  1  2  1  0  0  0  0
  2 24  1  0  0  0  0
  3  7  1  0  0  0  0
  3  2  2  0  0  0  0
  4  3  1  0  0  0  0
  5  6  1  0  0  0  0
  5  4  2  0  0  0  0
  6  1  2  0  0  0  0
  8  4  1  0  0  0  0
  9  5  1  0  0  0  0
 10 12  1  0  0  0  0
 11 10  2  0  0  0  0
 12 13  1  0  0  0  0
 12  6  1  0  0  0  0
 14 15  1  0  0  0  0
 15 16  1  0  0  0  0
 16 17  2  0  0  0  0
 16 10  1  0  0  0  0
 17 18  1  0  0  0  0
 19 17  1  0  0  0  0
 20 19  2  0  0  0  0
 21 20  1  0  0  0  0
 22 20  1  0  0  0  0
 22 15  2  0  0  0  0
 23 22  1  0  0  0  0
 24 28  1  0  0  0  0
 25 24  1  0  0  0  0
 26 30  1  0  0  0  0
 26 40  1  0  0  0  0
 27 26  1  0  0  0  0
 28 33  1  1  0  0  0
 28 27  1  0  0  0  0
 28 29  1  0  0  0  0
 29 30  1  0  0  0  0
 30 36  1  0  0  0  0
 30 37  1  0  0  0  0
 31 27  1  0  0  0  0
 32 27  1  0  0  0  0
 34 29  1  0  0  0  0
 35 29  1  0  0  0  0
 38 43  1  0  0  0  0
 39 40  1  0  0  0  0
 39 38  2  0  0  0  0
 40 41  2  0  0  0  0
 41 42  1  0  0  0  0
 42 46  1  0  0  0  0
 43 42  2  0  0  0  0
 44 38  1  0  0  0  0
 45 39  1  0  0  0  0
 48 47  3  0  0  0  0
M  END
>  <minimizedAffinity>
-5.72527409

>  <minimizedRMSD>
0.97115916

$$$$
