
 OpenBabel03252503293D

 26 27  0  0  0  0  0  0  0  0999 V2000
   38.7280   28.6480   41.9520 C   0  0  0  0  0  0  0  0  0  0  0  0
   38.4540   27.4010   41.3610 C   0  0  0  0  0  0  0  0  0  0  0  0
   37.5060   26.5940   42.0150 C   0  0  0  0  0  0  0  0  0  0  0  0
   36.9370   27.0720   43.1480 N   0  0  0  0  0  0  0  0  0  0  0  0
   37.2330   28.2780   43.6780 C   0  0  0  0  0  0  0  0  0  0  0  0
   38.1340   29.0680   43.0750 N   0  0  0  0  0  0  0  0  0  0  0  0
   39.1560   30.1670   40.2030 C   0  0  0  0  0  0  0  0  0  0  0  0
   37.9710   29.8730   39.8520 O   0  0  0  0  0  0  0  0  0  0  0  0
   39.6690   29.5420   41.3750 N   0  0  0  0  0  0  0  0  0  0  0  0
   38.9680   27.1210   40.4550 H   0  0  0  0  0  0  0  0  0  0  0  0
   36.7650   28.6370   44.5850 H   0  0  0  0  0  0  0  0  0  0  0  0
   40.6330   29.7600   41.7150 H   0  0  0  0  0  0  0  0  0  0  0  0
   38.8000   33.0900   40.9480 Cl  0  0  0  0  0  0  0  0  0  0  0  0
   39.8980   32.4750   39.7120 C   0  0  0  0  0  0  0  0  0  0  0  0
   39.9880   31.1150   39.4450 C   0  0  0  0  0  0  0  0  0  0  0  0
   40.8690   30.6630   38.4570 C   0  0  0  0  0  0  0  0  0  0  0  0
   40.9500   29.6070   38.2370 H   0  0  0  0  0  0  0  0  0  0  0  0
   41.6520   31.5660   37.7440 C   0  0  0  0  0  3  0  0  0  0  0  0
   41.5750   32.9150   37.9970 C   0  0  0  0  0  0  0  0  0  0  0  0
   42.5560   34.0420   37.1030 Cl  0  0  0  0  0  0  0  0  0  0  0  0
   40.6890   33.3460   38.9860 C   0  0  0  0  0  0  0  0  0  0  0  0
   40.6170   34.4000   39.1950 H   0  0  0  0  0  0  0  0  0  0  0  0
   37.2410   25.3120   41.3850 C   0  0  0  0  0  0  0  0  0  0  0  0
   36.3960   25.5170   40.2940 F   0  0  0  0  0  0  0  0  0  0  0  0
   36.5110   24.5410   42.2850 F   0  0  0  0  0  0  0  0  0  0  0  0
   38.3640   24.6840   40.9310 F   0  0  0  0  0  0  0  0  0  0  0  0
  1  6  1  0  0  0  0
  2  1  2  0  0  0  0
  2  3  1  0  0  0  0
  3  4  2  0  0  0  0
  4  5  1  0  0  0  0
  5 11  1  0  0  0  0
  6  5  2  0  0  0  0
  7  9  1  0  0  0  0
  8  7  2  0  0  0  0
  9 12  1  0  0  0  0
  9  1  1  0  0  0  0
 10  2  1  0  0  0  0
 14 13  1  0  0  0  0
 15 14  1  0  0  0  0
 15  7  1  0  0  0  0
 16 15  2  0  0  0  0
 17 16  1  0  0  0  0
 18 19  2  0  0  0  0
 18 16  1  0  0  0  0
 19 21  1  0  0  0  0
 20 19  1  0  0  0  0
 21 22  1  0  0  0  0
 21 14  2  0  0  0  0
 23  3  1  0  0  0  0
 23 25  1  0  0  0  0
 24 23  1  0  0  0  0
 26 23  1  0  0  0  0
M  END
>  <minimizedAffinity>
-5.20009995

$$$$

 OpenBabel03252503293D

 26 27  0  0  0  0  0  0  0  0999 V2000
   38.3830   30.1650   42.1900 C   0  0  0  0  0  0  0  0  0  0  0  0
   38.2760   28.8420   42.6560 C   0  0  0  0  0  0  0  0  0  0  0  0
   37.1850   28.0970   42.1760 C   0  0  0  0  0  0  0  0  0  0  0  0
   36.3320   28.7000   41.3130 N   0  0  0  0  0  0  0  0  0  0  0  0
   36.4770   29.9750   40.8930 C   0  0  0  0  0  0  0  0  0  0  0  0
   37.5090   30.7090   41.3360 N   0  0  0  0  0  0  0  0  0  0  0  0
   40.6810   30.6490   41.9950 C   0  0  0  0  0  0  0  0  0  0  0  0
   40.6670   29.6810   41.1740 O   0  0  0  0  0  0  0  0  0  0  0  0
   39.4470   31.0070   42.6110 N   0  0  0  0  0  0  0  0  0  0  0  0
   39.0140   28.4630   43.3450 H   0  0  0  0  0  0  0  0  0  0  0  0
   35.7820   30.4340   40.2030 H   0  0  0  0  0  0  0  0  0  0  0  0
   39.4010   31.8060   43.2830 H   0  0  0  0  0  0  0  0  0  0  0  0
   41.2670   33.0320   40.2060 Cl  0  0  0  0  0  0  0  0  0  0  0  0
   42.2660   32.4970   41.5570 C   0  0  0  0  0  0  0  0  0  0  0  0
   41.9110   31.3910   42.3180 C   0  0  0  0  0  0  0  0  0  0  0  0
   42.7280   30.9940   43.3810 C   0  0  0  0  0  0  0  0  0  0  0  0
   42.4650   30.1350   43.9830 H   0  0  0  0  0  0  0  0  0  0  0  0
   43.8890   31.6990   43.6790 C   0  0  0  0  0  3  0  0  0  0  0  0
   44.2550   32.7970   42.9360 C   0  0  0  0  0  0  0  0  0  0  0  0
   45.7090   33.6780   43.3120 Cl  0  0  0  0  0  0  0  0  0  0  0  0
   43.4270   33.1760   41.8790 C   0  0  0  0  0  0  0  0  0  0  0  0
   43.6990   34.0330   41.2870 H   0  0  0  0  0  0  0  0  0  0  0  0
   37.0960   26.7340   42.6730 C   0  0  0  0  0  0  0  0  0  0  0  0
   36.1160   26.6830   43.6650 F   0  0  0  0  0  0  0  0  0  0  0  0
   38.2950   26.4390   43.3150 F   0  0  0  0  0  0  0  0  0  0  0  0
   36.7660   25.8230   41.7130 F   0  0  0  0  0  0  0  0  0  0  0  0
  1  9  1  0  0  0  0
  1  2  1  0  0  0  0
  2 10  1  0  0  0  0
  3  2  2  0  0  0  0
  3 23  1  0  0  0  0
  4  3  1  0  0  0  0
  5  4  2  0  0  0  0
  5  6  1  0  0  0  0
  6  1  2  0  0  0  0
  7 15  1  0  0  0  0
  7  9  1  0  0  0  0
  8  7  2  0  0  0  0
  9 12  1  0  0  0  0
 11  5  1  0  0  0  0
 13 14  1  0  0  0  0
 14 21  2  0  0  0  0
 14 15  1  0  0  0  0
 15 16  2  0  0  0  0
 16 18  1  0  0  0  0
 16 17  1  0  0  0  0
 19 20  1  0  0  0  0
 19 18  2  0  0  0  0
 21 19  1  0  0  0  0
 22 21  1  0  0  0  0
 23 25  1  0  0  0  0
 23 24  1  0  0  0  0
 26 23  1  0  0  0  0
M  END
>  <minimizedAffinity>
-5.16948843

$$$$

 OpenBabel03252503293D

 26 27  0  0  0  0  0  0  0  0999 V2000
   38.8490   31.7670   39.9800 C   0  0  0  0  0  0  0  0  0  0  0  0
   40.0590   31.9150   39.2760 C   0  0  0  0  0  0  0  0  0  0  0  0
   40.6560   33.1870   39.3170 C   0  0  0  0  0  0  0  0  0  0  0  0
   40.0300   34.1610   40.0210 N   0  0  0  0  0  0  0  0  0  0  0  0
   38.8680   33.9720   40.6820 C   0  0  0  0  0  0  0  0  0  0  0  0
   38.2760   32.7670   40.6590 N   0  0  0  0  0  0  0  0  0  0  0  0
   38.8100   29.5770   40.8460 C   0  0  0  0  0  0  0  0  0  0  0  0
   39.8600   29.9530   41.4530 O   0  0  0  0  0  0  0  0  0  0  0  0
   38.1620   30.5250   40.0040 N   0  0  0  0  0  0  0  0  0  0  0  0
   40.4700   31.0680   38.7480 H   0  0  0  0  0  0  0  0  0  0  0  0
   38.3870   34.7660   41.2370 H   0  0  0  0  0  0  0  0  0  0  0  0
   37.2860   30.2710   39.4940 H   0  0  0  0  0  0  0  0  0  0  0  0
   37.6980   28.9100   43.5920 Cl  0  0  0  0  0  0  0  0  0  0  0  0
   37.7300   27.8170   42.2080 C   0  0  0  0  0  0  0  0  0  0  0  0
   38.2630   28.2190   40.9900 C   0  0  0  0  0  0  0  0  0  0  0  0
   38.2740   27.3250   39.9140 C   0  0  0  0  0  0  0  0  0  0  0  0
   38.6850   27.6220   38.9590 H   0  0  0  0  0  0  0  0  0  0  0  0
   37.7550   26.0420   40.0580 C   0  0  0  0  0  3  0  0  0  0  0  0
   37.2230   25.6300   41.2570 C   0  0  0  0  0  0  0  0  0  0  0  0
   36.5750   24.0230   41.4340 Cl  0  0  0  0  0  0  0  0  0  0  0  0
   37.2230   26.5350   42.3190 C   0  0  0  0  0  0  0  0  0  0  0  0
   36.8110   26.2280   43.2640 H   0  0  0  0  0  0  0  0  0  0  0  0
   41.9040   33.3120   38.5830 C   0  0  0  0  0  0  0  0  0  0  0  0
   42.5150   32.0590   38.5250 F   0  0  0  0  0  0  0  0  0  0  0  0
   42.7590   34.1120   39.3360 F   0  0  0  0  0  0  0  0  0  0  0  0
   41.7420   33.7580   37.3050 F   0  0  0  0  0  0  0  0  0  0  0  0
  1  9  1  0  0  0  0
  1  6  1  0  0  0  0
  2  3  1  0  0  0  0
  2  1  2  0  0  0  0
  3  4  2  0  0  0  0
  4  5  1  0  0  0  0
  5 11  1  0  0  0  0
  6  5  2  0  0  0  0
  7 15  1  0  0  0  0
  7  8  2  0  0  0  0
  9  7  1  0  0  0  0
 10  2  1  0  0  0  0
 12  9  1  0  0  0  0
 14 21  1  0  0  0  0
 14 13  1  0  0  0  0
 15 14  2  0  0  0  0
 16 18  2  0  0  0  0
 16 15  1  0  0  0  0
 17 16  1  0  0  0  0
 18 19  1  0  0  0  0
 19 20  1  0  0  0  0
 19 21  2  0  0  0  0
 21 22  1  0  0  0  0
 23  3  1  0  0  0  0
 23 25  1  0  0  0  0
 24 23  1  0  0  0  0
 26 23  1  0  0  0  0
M  END
>  <minimizedAffinity>
-5.09784269

$$$$

 OpenBabel03252503293D

 26 27  0  0  0  0  0  0  0  0999 V2000
   37.9570   29.6020   41.4360 C   0  0  0  0  0  0  0  0  0  0  0  0
   37.7280   30.6450   40.5190 C   0  0  0  0  0  0  0  0  0  0  0  0
   38.4980   31.8080   40.6900 C   0  0  0  0  0  0  0  0  0  0  0  0
   39.3890   31.8370   41.7100 N   0  0  0  0  0  0  0  0  0  0  0  0
   39.5740   30.8100   42.5670 C   0  0  0  0  0  0  0  0  0  0  0  0
   38.8520   29.6870   42.4260 N   0  0  0  0  0  0  0  0  0  0  0  0
   37.6770   27.5750   40.2690 C   0  0  0  0  0  0  0  0  0  0  0  0
   38.6300   28.0210   39.5570 O   0  0  0  0  0  0  0  0  0  0  0  0
   37.2340   28.3820   41.3550 N   0  0  0  0  0  0  0  0  0  0  0  0
   36.9910   30.5130   39.7420 H   0  0  0  0  0  0  0  0  0  0  0  0
   40.2920   30.8580   43.3740 H   0  0  0  0  0  0  0  0  0  0  0  0
   36.4630   28.0550   41.9800 H   0  0  0  0  0  0  0  0  0  0  0  0
   38.1260   25.4480   42.3890 Cl  0  0  0  0  0  0  0  0  0  0  0  0
   37.1840   25.2380   40.9140 C   0  0  0  0  0  0  0  0  0  0  0  0
   37.0380   26.2760   40.0030 C   0  0  0  0  0  0  0  0  0  0  0  0
   36.2840   26.0740   38.8410 C   0  0  0  0  0  0  0  0  0  0  0  0
   36.1610   26.8730   38.1220 H   0  0  0  0  0  0  0  0  0  0  0  0
   35.6830   24.8440   38.5970 C   0  0  0  0  0  3  0  0  0  0  0  0
   35.8180   23.8060   39.4890 C   0  0  0  0  0  0  0  0  0  0  0  0
   35.0640   22.2670   39.1800 Cl  0  0  0  0  0  0  0  0  0  0  0  0
   36.5740   24.0270   40.6400 C   0  0  0  0  0  0  0  0  0  0  0  0
   36.6900   23.2250   41.3490 H   0  0  0  0  0  0  0  0  0  0  0  0
   38.2430   32.8690   39.7300 C   0  0  0  0  0  0  0  0  0  0  0  0
   36.9490   32.7170   39.2290 F   0  0  0  0  0  0  0  0  0  0  0  0
   39.0910   32.6710   38.6450 F   0  0  0  0  0  0  0  0  0  0  0  0
   38.3390   34.1210   40.2630 F   0  0  0  0  0  0  0  0  0  0  0  0
  1  6  1  0  0  0  0
  2  3  1  0  0  0  0
  2  1  2  0  0  0  0
  3  4  2  0  0  0  0
  4  5  1  0  0  0  0
  5 11  1  0  0  0  0
  6  5  2  0  0  0  0
  7  9  1  0  0  0  0
  8  7  2  0  0  0  0
  9  1  1  0  0  0  0
  9 12  1  0  0  0  0
 10  2  1  0  0  0  0
 14 13  1  0  0  0  0
 15  7  1  0  0  0  0
 15 14  2  0  0  0  0
 16 15  1  0  0  0  0
 17 16  1  0  0  0  0
 18 16  2  0  0  0  0
 18 19  1  0  0  0  0
 19 21  2  0  0  0  0
 20 19  1  0  0  0  0
 21 14  1  0  0  0  0
 21 22  1  0  0  0  0
 23 26  1  0  0  0  0
 23  3  1  0  0  0  0
 24 23  1  0  0  0  0
 25 23  1  0  0  0  0
M  END
>  <minimizedAffinity>
-5.05892277

$$$$

 OpenBabel03252503293D

 26 27  0  0  0  0  0  0  0  0999 V2000
   41.3030   32.5570   37.3790 C   0  0  0  0  0  0  0  0  0  0  0  0
   42.3510   31.7480   36.9020 C   0  0  0  0  0  0  0  0  0  0  0  0
   43.6550   32.2270   37.1110 C   0  0  0  0  0  0  0  0  0  0  0  0
   43.8030   33.4140   37.7470 N   0  0  0  0  0  0  0  0  0  0  0  0
   42.7660   34.1560   38.1890 C   0  0  0  0  0  0  0  0  0  0  0  0
   41.5090   33.7230   38.0020 N   0  0  0  0  0  0  0  0  0  0  0  0
   39.5890   31.1150   38.1110 C   0  0  0  0  0  0  0  0  0  0  0  0
   40.4830   30.6920   38.9060 O   0  0  0  0  0  0  0  0  0  0  0  0
   39.9460   32.1680   37.2210 N   0  0  0  0  0  0  0  0  0  0  0  0
   42.1170   30.8180   36.4080 H   0  0  0  0  0  0  0  0  0  0  0  0
   42.9100   35.1010   38.6940 H   0  0  0  0  0  0  0  0  0  0  0  0
   39.2430   32.5630   36.5560 H   0  0  0  0  0  0  0  0  0  0  0  0
   37.8240   31.8980   40.4550 Cl  0  0  0  0  0  0  0  0  0  0  0  0
   37.3440   30.8560   39.1160 C   0  0  0  0  0  0  0  0  0  0  0  0
   38.2280   30.5560   38.0880 C   0  0  0  0  0  0  0  0  0  0  0  0
   37.8130   29.7240   37.0420 C   0  0  0  0  0  0  0  0  0  0  0  0
   38.4900   29.4820   36.2340 H   0  0  0  0  0  0  0  0  0  0  0  0
   36.5250   29.1990   37.0280 C   0  0  0  0  0  3  0  0  0  0  0  0
   35.6380   29.4870   38.0390 C   0  0  0  0  0  0  0  0  0  0  0  0
   34.0260   28.8290   38.0170 Cl  0  0  0  0  0  0  0  0  0  0  0  0
   36.0710   30.3180   39.0730 C   0  0  0  0  0  0  0  0  0  0  0  0
   35.3880   30.5520   39.8710 H   0  0  0  0  0  0  0  0  0  0  0  0
   44.7190   31.3730   36.6080 C   0  0  0  0  0  0  0  0  0  0  0  0
   45.7890   32.1780   36.2140 F   0  0  0  0  0  0  0  0  0  0  0  0
   44.2590   30.7650   35.4450 F   0  0  0  0  0  0  0  0  0  0  0  0
   45.1850   30.4820   37.5300 F   0  0  0  0  0  0  0  0  0  0  0  0
  1  6  1  0  0  0  0
  2  3  1  0  0  0  0
  2  1  2  0  0  0  0
  3  4  2  0  0  0  0
  4  5  1  0  0  0  0
  5 11  1  0  0  0  0
  6  5  2  0  0  0  0
  7  8  2  0  0  0  0
  9  1  1  0  0  0  0
  9  7  1  0  0  0  0
 10  2  1  0  0  0  0
 12  9  1  0  0  0  0
 14 13  1  0  0  0  0
 15  7  1  0  0  0  0
 15 14  2  0  0  0  0
 16 15  1  0  0  0  0
 17 16  1  0  0  0  0
 18 16  2  0  0  0  0
 18 19  1  0  0  0  0
 19 21  2  0  0  0  0
 20 19  1  0  0  0  0
 21 14  1  0  0  0  0
 21 22  1  0  0  0  0
 23  3  1  0  0  0  0
 23 26  1  0  0  0  0
 24 23  1  0  0  0  0
 25 23  1  0  0  0  0
M  END
>  <minimizedAffinity>
-5.05022573

$$$$

 OpenBabel03252503293D

 26 27  0  0  0  0  0  0  0  0999 V2000
   37.8940   25.9800   40.5180 C   0  0  0  0  0  0  0  0  0  0  0  0
   36.8130   25.3610   39.8630 C   0  0  0  0  0  0  0  0  0  0  0  0
   36.5450   24.0280   40.2210 C   0  0  0  0  0  0  0  0  0  0  0  0
   37.3360   23.4490   41.1570 N   0  0  0  0  0  0  0  0  0  0  0  0
   38.3640   24.0850   41.7590 C   0  0  0  0  0  0  0  0  0  0  0  0
   38.6420   25.3570   41.4360 N   0  0  0  0  0  0  0  0  0  0  0  0
   37.3290   28.2500   40.7980 C   0  0  0  0  0  0  0  0  0  0  0  0
   36.3610   27.7770   41.4690 O   0  0  0  0  0  0  0  0  0  0  0  0
   38.2520   27.3240   40.2320 N   0  0  0  0  0  0  0  0  0  0  0  0
   36.2490   25.9180   39.1320 H   0  0  0  0  0  0  0  0  0  0  0  0
   38.9810   23.6000   42.5030 H   0  0  0  0  0  0  0  0  0  0  0  0
   39.0740   27.6620   39.6830 H   0  0  0  0  0  0  0  0  0  0  0  0
   39.3770   29.5630   42.6160 Cl  0  0  0  0  0  0  0  0  0  0  0  0
   38.4290   30.3880   41.3790 C   0  0  0  0  0  0  0  0  0  0  0  0
   37.5140   29.6960   40.5960 C   0  0  0  0  0  0  0  0  0  0  0  0
   36.7790   30.3830   39.6240 C   0  0  0  0  0  0  0  0  0  0  0  0
   36.0630   29.8590   39.0060 H   0  0  0  0  0  0  0  0  0  0  0  0
   36.9590   31.7500   39.4400 C   0  0  0  0  0  3  0  0  0  0  0  0
   37.8610   32.4500   40.2070 C   0  0  0  0  0  0  0  0  0  0  0  0
   38.0850   34.1610   39.9730 Cl  0  0  0  0  0  0  0  0  0  0  0  0
   38.5840   31.7460   41.1710 C   0  0  0  0  0  0  0  0  0  0  0  0
   39.2940   32.2800   41.7800 H   0  0  0  0  0  0  0  0  0  0  0  0
   35.4250   23.4120   39.5300 C   0  0  0  0  0  0  0  0  0  0  0  0
   35.8620   22.2260   38.9390 F   0  0  0  0  0  0  0  0  0  0  0  0
   35.0670   24.2460   38.4760 F   0  0  0  0  0  0  0  0  0  0  0  0
   34.3780   23.1080   40.3510 F   0  0  0  0  0  0  0  0  0  0  0  0
  1  6  1  0  0  0  0
  2  3  1  0  0  0  0
  2  1  2  0  0  0  0
  3  4  2  0  0  0  0
  4  5  1  0  0  0  0
  5 11  1  0  0  0  0
  6  5  2  0  0  0  0
  7  8  2  0  0  0  0
  9  1  1  0  0  0  0
  9  7  1  0  0  0  0
 10  2  1  0  0  0  0
 12  9  1  0  0  0  0
 14 13  1  0  0  0  0
 15  7  1  0  0  0  0
 15 14  2  0  0  0  0
 16 15  1  0  0  0  0
 17 16  1  0  0  0  0
 18 16  2  0  0  0  0
 18 19  1  0  0  0  0
 19 21  2  0  0  0  0
 20 19  1  0  0  0  0
 21 14  1  0  0  0  0
 21 22  1  0  0  0  0
 23  3  1  0  0  0  0
 23 26  1  0  0  0  0
 24 23  1  0  0  0  0
 25 23  1  0  0  0  0
M  END
>  <minimizedAffinity>
-5.04411745

$$$$

 OpenBabel03252503293D

 26 27  0  0  0  0  0  0  0  0999 V2000
   36.0970   29.2500   39.5970 C   0  0  0  0  0  0  0  0  0  0  0  0
   36.1760   28.2220   40.5540 C   0  0  0  0  0  0  0  0  0  0  0  0
   36.7350   28.5660   41.7970 C   0  0  0  0  0  0  0  0  0  0  0  0
   37.1480   29.8440   41.9770 N   0  0  0  0  0  0  0  0  0  0  0  0
   37.0510   30.7990   41.0270 C   0  0  0  0  0  0  0  0  0  0  0  0
   36.5220   30.4970   39.8310 N   0  0  0  0  0  0  0  0  0  0  0  0
   34.1310   28.8890   38.3490 C   0  0  0  0  0  0  0  0  0  0  0  0
   33.5640   29.0200   39.4770 O   0  0  0  0  0  0  0  0  0  0  0  0
   35.5500   29.0120   38.3080 N   0  0  0  0  0  0  0  0  0  0  0  0
   35.8150   27.2370   40.3030 H   0  0  0  0  0  0  0  0  0  0  0  0
   37.3890   31.8120   41.1950 H   0  0  0  0  0  0  0  0  0  0  0  0
   36.0650   28.9270   37.4030 H   0  0  0  0  0  0  0  0  0  0  0  0
   34.3440   26.0500   37.2930 Cl  0  0  0  0  0  0  0  0  0  0  0  0
   33.4100   27.3490   36.5520 C   0  0  0  0  0  0  0  0  0  0  0  0
   33.3770   28.6190   37.1150 C   0  0  0  0  0  0  0  0  0  0  0  0
   32.6260   29.6260   36.4990 C   0  0  0  0  0  0  0  0  0  0  0  0
   32.5900   30.6200   36.9250 H   0  0  0  0  0  0  0  0  0  0  0  0
   31.9160   29.3630   35.3330 C   0  0  0  0  0  3  0  0  0  0  0  0
   31.9380   28.1110   34.7640 C   0  0  0  0  0  0  0  0  0  0  0  0
   31.0480   27.7850   33.3030 Cl  0  0  0  0  0  0  0  0  0  0  0  0
   32.6940   27.1210   35.3920 C   0  0  0  0  0  0  0  0  0  0  0  0
   32.7220   26.1350   34.9590 H   0  0  0  0  0  0  0  0  0  0  0  0
   36.8050   27.4860   42.7680 C   0  0  0  0  0  0  0  0  0  0  0  0
   38.0090   27.5910   43.4650 F   0  0  0  0  0  0  0  0  0  0  0  0
   36.8830   26.2890   42.0630 F   0  0  0  0  0  0  0  0  0  0  0  0
   35.7910   27.5060   43.6790 F   0  0  0  0  0  0  0  0  0  0  0  0
  1  6  2  0  0  0  0
  1  2  1  0  0  0  0
  2  3  2  0  0  0  0
  3  4  1  0  0  0  0
  3 23  1  0  0  0  0
  5 11  1  0  0  0  0
  5  4  2  0  0  0  0
  6  5  1  0  0  0  0
  7  8  2  0  0  0  0
  9  7  1  0  0  0  0
  9  1  1  0  0  0  0
 10  2  1  0  0  0  0
 12  9  1  0  0  0  0
 14 15  1  0  0  0  0
 14 13  1  0  0  0  0
 15  7  1  0  0  0  0
 16 17  1  0  0  0  0
 16 15  2  0  0  0  0
 18 16  1  0  0  0  0
 19 18  2  0  0  0  0
 19 21  1  0  0  0  0
 20 19  1  0  0  0  0
 21 14  2  0  0  0  0
 22 21  1  0  0  0  0
 23 24  1  0  0  0  0
 23 26  1  0  0  0  0
 25 23  1  0  0  0  0
M  END
>  <minimizedAffinity>
-5.02230024

$$$$

 OpenBabel03252503293D

 26 27  0  0  0  0  0  0  0  0999 V2000
   36.7200   27.1310   39.4740 C   0  0  0  0  0  0  0  0  0  0  0  0
   36.5720   27.5870   40.7970 C   0  0  0  0  0  0  0  0  0  0  0  0
   37.6850   27.4300   41.6400 C   0  0  0  0  0  0  0  0  0  0  0  0
   38.8010   26.8600   41.1230 N   0  0  0  0  0  0  0  0  0  0  0  0
   38.8960   26.4380   39.8440 C   0  0  0  0  0  0  0  0  0  0  0  0
   37.8480   26.5750   39.0170 N   0  0  0  0  0  0  0  0  0  0  0  0
   35.4780   28.5830   38.0950 C   0  0  0  0  0  0  0  0  0  0  0  0
   36.2650   29.4640   38.5600 O   0  0  0  0  0  0  0  0  0  0  0  0
   35.6580   27.2410   38.5370 N   0  0  0  0  0  0  0  0  0  0  0  0
   35.6350   28.0270   41.1030 H   0  0  0  0  0  0  0  0  0  0  0  0
   39.7980   25.9850   39.4550 H   0  0  0  0  0  0  0  0  0  0  0  0
   35.0460   26.4760   38.1740 H   0  0  0  0  0  0  0  0  0  0  0  0
   36.3370   28.6900   35.1840 Cl  0  0  0  0  0  0  0  0  0  0  0  0
   34.7030   28.9820   35.7800 C   0  0  0  0  0  0  0  0  0  0  0  0
   34.4100   28.9090   37.1360 C   0  0  0  0  0  0  0  0  0  0  0  0
   33.1030   29.1490   37.5730 C   0  0  0  0  0  0  0  0  0  0  0  0
   32.8590   29.0960   38.6250 H   0  0  0  0  0  0  0  0  0  0  0  0
   32.1000   29.4570   36.6600 C   0  0  0  0  0  3  0  0  0  0  0  0
   32.3740   29.5320   35.3140 C   0  0  0  0  0  0  0  0  0  0  0  0
   31.1160   29.9180   34.1740 Cl  0  0  0  0  0  0  0  0  0  0  0  0
   33.6840   29.2910   34.8990 C   0  0  0  0  0  0  0  0  0  0  0  0
   33.9140   29.3460   33.8480 H   0  0  0  0  0  0  0  0  0  0  0  0
   37.5070   27.9080   43.0010 C   0  0  0  0  0  0  0  0  0  0  0  0
   37.3160   29.2900   42.9680 F   0  0  0  0  0  0  0  0  0  0  0  0
   38.7060   27.7110   43.6800 F   0  0  0  0  0  0  0  0  0  0  0  0
   36.4350   27.3540   43.6380 F   0  0  0  0  0  0  0  0  0  0  0  0
  1  2  1  0  0  0  0
  2 10  1  0  0  0  0
  2  3  2  0  0  0  0
  3 23  1  0  0  0  0
  4  3  1  0  0  0  0
  5  4  2  0  0  0  0
  6  1  2  0  0  0  0
  6  5  1  0  0  0  0
  7  9  1  0  0  0  0
  7  8  2  0  0  0  0
  9  1  1  0  0  0  0
 11  5  1  0  0  0  0
 12  9  1  0  0  0  0
 13 14  1  0  0  0  0
 14 15  1  0  0  0  0
 15 16  2  0  0  0  0
 15  7  1  0  0  0  0
 16 17  1  0  0  0  0
 18 16  1  0  0  0  0
 19 18  2  0  0  0  0
 20 19  1  0  0  0  0
 21 19  1  0  0  0  0
 21 14  2  0  0  0  0
 22 21  1  0  0  0  0
 23 26  1  0  0  0  0
 23 25  1  0  0  0  0
 24 23  1  0  0  0  0
M  END
>  <minimizedAffinity>
-4.99442816

$$$$

 OpenBabel03252503293D

 26 27  0  0  0  0  0  0  0  0999 V2000
   36.1010   29.9080   40.2790 C   0  0  0  0  0  0  0  0  0  0  0  0
   36.5420   31.2000   39.9380 C   0  0  0  0  0  0  0  0  0  0  0  0
   37.6810   31.6710   40.6130 C   0  0  0  0  0  0  0  0  0  0  0  0
   38.2600   30.8560   41.5290 N   0  0  0  0  0  0  0  0  0  0  0  0
   37.8000   29.6220   41.8230 C   0  0  0  0  0  0  0  0  0  0  0  0
   36.7140   29.1480   41.1940 N   0  0  0  0  0  0  0  0  0  0  0  0
   35.2320   28.9290   38.3200 C   0  0  0  0  0  0  0  0  0  0  0  0
   36.4100   29.1070   37.8830 O   0  0  0  0  0  0  0  0  0  0  0  0
   34.9590   29.3350   39.6580 N   0  0  0  0  0  0  0  0  0  0  0  0
   36.0030   31.7630   39.1910 H   0  0  0  0  0  0  0  0  0  0  0  0
   38.2800   28.9910   42.5590 H   0  0  0  0  0  0  0  0  0  0  0  0
   34.0100   29.1970   40.0720 H   0  0  0  0  0  0  0  0  0  0  0  0
   35.4750   25.9360   37.8670 Cl  0  0  0  0  0  0  0  0  0  0  0  0
   34.1910   26.9660   37.2340 C   0  0  0  0  0  0  0  0  0  0  0  0
   34.1690   28.3290   37.4980 C   0  0  0  0  0  0  0  0  0  0  0  0
   33.1360   29.1160   36.9780 C   0  0  0  0  0  0  0  0  0  0  0  0
   33.1050   30.1790   37.1750 H   0  0  0  0  0  0  0  0  0  0  0  0
   32.1350   28.5410   36.2010 C   0  0  0  0  0  3  0  0  0  0  0  0
   32.1430   27.1930   35.9300 C   0  0  0  0  0  0  0  0  0  0  0  0
   30.8880   26.4770   34.9580 Cl  0  0  0  0  0  0  0  0  0  0  0  0
   33.1820   26.4260   36.4570 C   0  0  0  0  0  0  0  0  0  0  0  0
   33.2020   25.3690   36.2550 H   0  0  0  0  0  0  0  0  0  0  0  0
   38.1160   33.0070   40.2420 C   0  0  0  0  0  0  0  0  0  0  0  0
   39.0750   32.9010   39.2340 F   0  0  0  0  0  0  0  0  0  0  0  0
   38.7800   33.5540   41.3360 F   0  0  0  0  0  0  0  0  0  0  0  0
   37.1080   33.7990   39.7780 F   0  0  0  0  0  0  0  0  0  0  0  0
  1  6  1  0  0  0  0
  2  1  2  0  0  0  0
  2  3  1  0  0  0  0
  3  4  2  0  0  0  0
  4  5  1  0  0  0  0
  5 11  1  0  0  0  0
  6  5  2  0  0  0  0
  7  9  1  0  0  0  0
  8  7  2  0  0  0  0
  9 12  1  0  0  0  0
  9  1  1  0  0  0  0
 10  2  1  0  0  0  0
 14 15  1  0  0  0  0
 14 13  1  0  0  0  0
 15  7  1  0  0  0  0
 16 17  1  0  0  0  0
 16 15  2  0  0  0  0
 18 16  1  0  0  0  0
 19 18  2  0  0  0  0
 19 21  1  0  0  0  0
 20 19  1  0  0  0  0
 21 14  2  0  0  0  0
 22 21  1  0  0  0  0
 23  3  1  0  0  0  0
 23 25  1  0  0  0  0
 24 23  1  0  0  0  0
 26 23  1  0  0  0  0
M  END
>  <minimizedAffinity>
-4.91758347

$$$$
