REMARK  Name = 
REMARK  2 active torsions:
REMARK  status: ('A' for Active; 'I' for Inactive)
REMARK    1  A    between atoms: C_5  and  C_7
REMARK    2  A    between atoms: C_7  and  C_14
REMARK                            x       y       z     vdW  Elec       q    Type
REMARK                         _______ _______ _______ _____ _____    ______ ____
ROOT
ATOM      1  C   UNL     1      45.883  33.044  46.440  0.00  0.00    +0.000 C 
ATOM      2  O   UNL     1      45.165  33.012  47.484  0.00  0.00    +0.000 OA
ENDROOT
BRANCH   1   5
ATOM      3 CL   UNL     1      46.567  32.271  43.605  0.00  0.00    +0.000 Cl
ATOM      4  C   UNL     1      47.396  31.670  45.016  0.00  0.00    +0.000 A 
ATOM      5  C   UNL     1      46.997  32.092  46.248  0.00  0.00    +0.000 A 
ATOM      6  C   UNL     1      47.591  31.675  47.435  0.00  0.00    +0.000 A 
ATOM      7  H   UNL     1      47.250  32.030  48.419  0.00  0.00    +0.000 HD
ATOM      8  C   UNL     1      48.644  30.784  47.398  0.00  0.00    +0.000 A 
ATOM      9  C   UNL     1      49.068  30.340  46.144  0.00  0.00    +0.000 A 
ATOM     10 CL   UNL     1      50.409  29.203  46.046  0.00  0.00    +0.000 Cl
ATOM     11  C   UNL     1      48.444  30.785  44.990  0.00  0.00    +0.000 A 
ATOM     12  H   UNL     1      48.784  30.430  44.009  0.00  0.00    +0.000 HD
ENDBRANCH   1   5
BRANCH   1  17
ATOM     13  C   UNL     1      44.517  35.913  44.672  0.00  0.00    +0.000 A 
ATOM     14  C   UNL     1      45.156  35.890  43.429  0.00  0.00    +0.000 A 
ATOM     15  C   UNL     1      46.074  34.859  43.207  0.00  0.00    +0.000 A 
ATOM     16  N   UNL     1      46.292  33.953  44.191  0.00  0.00    +0.000 NA
ATOM     17  C   UNL     1      45.651  34.019  45.375  0.00  0.00    +0.000 A 
ATOM     18  N   UNL     1      44.770  34.999  45.601  0.00  0.00    +0.000 NA
ATOM     19  H   UNL     1      43.823  36.731  44.779  0.00  0.00    +0.000 HD
ATOM     20  H   UNL     1      45.056  36.550  42.592  0.00  0.00    +0.000 HD
ATOM     21  H   UNL     1      46.679  34.639  42.339  0.00  0.00    +0.000 HD
ENDBRANCH   1  17
TORSDOF 2
