REMARK  Name = 
REMARK  2 active torsions:
REMARK  status: ('A' for Active; 'I' for Inactive)
REMARK    1  A    between atoms: C_3  and  C_10
REMARK    2  A    between atoms: C_7  and  C_19
REMARK                            x       y       z     vdW  Elec       q    Type
REMARK                         _______ _______ _______ _____ _____    ______ ____
ROOT
ATOM      1  C   UNL     1      45.424  35.201  43.091  0.00  0.00    +0.000 A 
ATOM      2  C   UNL     1      46.462  35.555  42.209  0.00  0.00    +0.000 A 
ATOM      3  C   UNL     1      47.684  34.882  42.379  0.00  0.00    +0.000 A 
ATOM      4  N   UNL     1      47.769  33.956  43.365  0.00  0.00    +0.000 NA
ATOM      5  C   UNL     1      46.744  33.649  44.188  0.00  0.00    +0.000 A 
ATOM      6  N   UNL     1      45.566  34.277  44.048  0.00  0.00    +0.000 NA
ATOM      7  C   UNL     1      43.405  35.352  41.886  0.00  0.00    +0.000 C 
ATOM      8  O   UNL     1      43.947  34.471  41.150  0.00  0.00    +0.000 OA
ATOM      9  N   UNL     1      44.148  35.819  43.008  0.00  0.00    +0.000 N 
ATOM     10  H   UNL     1      46.283  36.309  41.458  0.00  0.00    +0.000 HD
ATOM     11  H   UNL     1      46.837  32.906  44.968  0.00  0.00    +0.000 HD
ATOM     12  H   UNL     1      43.742  36.533  43.654  0.00  0.00    +0.000 HD
ENDROOT
BRANCH   7  15
ATOM     13 CL   UNL     1      42.340  34.821  39.093  0.00  0.00    +0.000 Cl
ATOM     14  C   UNL     1      41.487  35.697  40.364  0.00  0.00    +0.000 A 
ATOM     15  C   UNL     1      42.062  35.888  41.613  0.00  0.00    +0.000 A 
ATOM     16  C   UNL     1      41.356  36.588  42.598  0.00  0.00    +0.000 A 
ATOM     17  H   UNL     1      41.791  36.744  43.576  0.00  0.00    +0.000 HD
ATOM     18  C   UNL     1      40.087  37.091  42.332  0.00  0.00    +0.000 A 
ATOM     19  C   UNL     1      39.503  36.910  41.099  0.00  0.00    +0.000 A 
ATOM     20 CL   UNL     1      37.914  37.540  40.770  0.00  0.00    +0.000 Cl
ATOM     21  C   UNL     1      40.224  36.209  40.131  0.00  0.00    +0.000 A 
ATOM     22  H   UNL     1      39.781  36.059  39.162  0.00  0.00    +0.000 HD
ENDBRANCH   7  15
BRANCH   3  23
ATOM     23  C   UNL     1      48.739  35.266  41.456  0.00  0.00    +0.000 C 
ATOM     24  F   UNL     1      49.845  34.444  41.675  0.00  0.00    +0.000 F 
ATOM     25  F   UNL     1      49.153  36.550  41.797  0.00  0.00    +0.000 F 
ATOM     26  F   UNL     1      48.385  35.149  40.144  0.00  0.00    +0.000 F 
ENDBRANCH   3  23
TORSDOF 2
