
 OpenBabel03242523163D

 28 30  0  0  0  0  0  0  0  0999 V2000
   47.2760   33.1090   43.7900 C   0  0  0  0  0  0  0  0  0  0  0  0
   48.1590   33.5800   42.8750 C   0  0  0  0  0  0  0  0  0  0  0  0
   49.1050   32.6510   42.4420 C   0  0  0  0  0  0  0  0  0  0  0  0
   49.0650   31.3750   42.9680 N   0  0  0  0  0  0  0  0  0  0  0  0
   48.1700   30.9890   43.8630 C   0  0  0  0  0  0  0  0  0  0  0  0
   47.2130   31.8670   44.3210 N   0  0  0  0  0  0  0  0  0  0  0  0
   49.8540   32.9120   41.7170 H   0  0  0  0  0  0  0  0  0  0  0  0
   48.3160   29.9530   44.1420 H   0  0  0  0  0  0  0  0  0  0  0  0
   48.2450   34.9190   42.4150 C   0  0  0  0  0  0  0  0  0  0  0  0
   49.2980   35.5980   41.9010 C   0  0  0  0  0  0  0  0  0  0  0  0
   48.2880   35.1790   40.8430 C   0  0  0  0  0  0  0  0  0  0  0  0
   47.2060   35.4290   42.6190 H   0  0  0  0  0  0  0  0  0  0  0  0
   49.4380   36.7190   41.9370 H   0  0  0  0  0  0  0  0  0  0  0  0
   50.3050   35.1250   41.7190 H   0  0  0  0  0  0  0  0  0  0  0  0
   47.6390   35.9280   40.4190 H   0  0  0  0  0  0  0  0  0  0  0  0
   48.4600   34.2480   40.3050 H   0  0  0  0  0  0  0  0  0  0  0  0
   46.1070   33.8160   44.3140 C   0  0  0  0  0  0  0  0  0  0  0  0
   45.4780   34.3200   45.2290 O   0  0  0  0  0  0  0  0  0  0  0  0
   44.5540   31.4980   43.0360 Cl  0  0  0  0  0  0  0  0  0  0  0  0
   44.4070   33.1600   42.5170 C   0  0  0  0  0  0  0  0  0  0  0  0
   45.1690   34.0860   43.1800 C   0  0  0  0  0  0  0  0  0  0  0  0
   45.0030   35.3940   42.7030 C   0  0  0  0  0  0  0  0  0  0  0  0
   45.6020   36.1640   43.2150 H   0  0  0  0  0  0  0  0  0  0  0  0
   44.1850   35.8090   41.6810 C   0  0  0  0  0  3  0  0  0  0  0  0
   43.4580   34.8080   41.0750 C   0  0  0  0  0  0  0  0  0  0  0  0
   42.3890   35.2480   39.7610 Cl  0  0  0  0  0  0  0  0  0  0  0  0
   43.5480   33.4960   41.4650 C   0  0  0  0  0  0  0  0  0  0  0  0
   42.9960   32.6970   41.0140 H   0  0  0  0  0  0  0  0  0  0  0  0
  1 17  1  0  0  0  0
  1  6  1  0  0  0  0
  2  1  2  0  0  0  0
  3  2  1  0  0  0  0
  3  4  2  0  0  0  0
  4  5  1  0  0  0  0
  5  8  1  0  0  0  0
  5  6  2  0  0  0  0
  7  3  1  0  0  0  0
  9 12  1  0  0  0  0
  9  2  1  0  0  0  0
 10 13  1  0  0  0  0
 10  9  1  0  0  0  0
 11 10  1  0  0  0  0
 11  9  1  0  0  0  0
 14 10  1  0  0  0  0
 15 11  1  0  0  0  0
 16 11  1  0  0  0  0
 17 18  2  0  0  0  0
 20 19  1  0  0  0  0
 20 21  1  0  0  0  0
 21 17  1  0  0  0  0
 22 21  2  0  0  0  0
 22 23  1  0  0  0  0
 24 22  1  0  0  0  0
 25 27  1  0  0  0  0
 25 24  2  0  0  0  0
 26 25  1  0  0  0  0
 27 20  2  0  0  0  0
 28 27  1  0  0  0  0
M  END
>  <minimizedAffinity>
-5.02995682

>  <minimizedRMSD>
2.16485548

$$$$
