
 OpenBabel03252503273D

 26 27  0  0  0  0  0  0  0  0999 V2000
   46.8690   32.3580   43.1110 C   0  0  0  0  0  0  0  0  0  0  0  0
   48.0500   32.8140   42.4960 C   0  0  0  0  0  0  0  0  0  0  0  0
   49.1850   31.9970   42.6380 C   0  0  0  0  0  0  0  0  0  0  0  0
   49.0580   30.8490   43.3470 N   0  0  0  0  0  0  0  0  0  0  0  0
   47.9020   30.4520   43.9200 C   0  0  0  0  0  0  0  0  0  0  0  0
   46.8030   31.2140   43.8000 N   0  0  0  0  0  0  0  0  0  0  0  0
   45.0710   33.0160   41.7390 C   0  0  0  0  0  0  0  0  0  0  0  0
   45.6580   32.2980   40.8730 O   0  0  0  0  0  0  0  0  0  0  0  0
   45.6650   33.1060   43.0310 N   0  0  0  0  0  0  0  0  0  0  0  0
   48.0370   33.7470   41.9540 H   0  0  0  0  0  0  0  0  0  0  0  0
   47.8270   29.5310   44.4810 H   0  0  0  0  0  0  0  0  0  0  0  0
   45.2140   33.6720   43.7840 H   0  0  0  0  0  0  0  0  0  0  0  0
   42.5410   31.3400   41.8570 Cl  0  0  0  0  0  0  0  0  0  0  0  0
   42.6120   33.0610   41.4750 C   0  0  0  0  0  0  0  0  0  0  0  0
   43.8230   33.7390   41.4460 C   0  0  0  0  0  0  0  0  0  0  0  0
   43.8420   35.1050   41.1410 C   0  0  0  0  0  0  0  0  0  0  0  0
   44.7780   35.6470   41.1140 H   0  0  0  0  0  0  0  0  0  0  0  0
   42.6580   35.7820   40.8660 C   0  0  0  0  0  3  0  0  0  0  0  0
   41.4500   35.1240   40.8910 C   0  0  0  0  0  0  0  0  0  0  0  0
   39.9710   35.9750   40.5470 Cl  0  0  0  0  0  0  0  0  0  0  0  0
   41.4530   33.7630   41.1980 C   0  0  0  0  0  0  0  0  0  0  0  0
   40.5160   33.2340   41.2210 H   0  0  0  0  0  0  0  0  0  0  0  0
   50.3910   32.4900   41.9930 C   0  0  0  0  0  0  0  0  0  0  0  0
   51.4570   31.6640   42.3490 F   0  0  0  0  0  0  0  0  0  0  0  0
   50.6830   33.7370   42.5390 F   0  0  0  0  0  0  0  0  0  0  0  0
   50.3130   32.5080   40.6310 F   0  0  0  0  0  0  0  0  0  0  0  0
  1  6  1  0  0  0  0
  2  3  1  0  0  0  0
  2  1  2  0  0  0  0
  3  4  2  0  0  0  0
  4  5  1  0  0  0  0
  5 11  1  0  0  0  0
  6  5  2  0  0  0  0
  7  9  1  0  0  0  0
  8  7  2  0  0  0  0
  9  1  1  0  0  0  0
  9 12  1  0  0  0  0
 10  2  1  0  0  0  0
 14 13  1  0  0  0  0
 15 14  1  0  0  0  0
 15  7  1  0  0  0  0
 16 15  2  0  0  0  0
 17 16  1  0  0  0  0
 18 19  2  0  0  0  0
 18 16  1  0  0  0  0
 19 21  1  0  0  0  0
 20 19  1  0  0  0  0
 21 22  1  0  0  0  0
 21 14  2  0  0  0  0
 23 24  1  0  0  0  0
 23 25  1  0  0  0  0
 23  3  1  0  0  0  0
 26 23  1  0  0  0  0
M  END
>  <minimizedAffinity>
-4.40248203

>  <minimizedRMSD>
3.3773129

$$$$
