
 OpenBabel03252503273D

 26 27  0  0  0  0  0  0  0  0999 V2000
   45.1050   34.4120   42.7150 C   0  0  0  0  0  0  0  0  0  0  0  0
   46.1280   34.8480   41.8520 C   0  0  0  0  0  0  0  0  0  0  0  0
   47.4460   34.6760   42.3080 C   0  0  0  0  0  0  0  0  0  0  0  0
   47.6300   34.1110   43.5260 N   0  0  0  0  0  0  0  0  0  0  0  0
   46.6150   33.7070   44.3200 C   0  0  0  0  0  0  0  0  0  0  0  0
   45.3470   33.8600   43.9090 N   0  0  0  0  0  0  0  0  0  0  0  0
   43.3610   33.5860   41.3630 C   0  0  0  0  0  0  0  0  0  0  0  0
   44.2500   32.7730   40.9640 O   0  0  0  0  0  0  0  0  0  0  0  0
   43.7380   34.5390   42.3530 N   0  0  0  0  0  0  0  0  0  0  0  0
   45.8670   35.2860   40.9010 H   0  0  0  0  0  0  0  0  0  0  0  0
   46.7880   33.2580   45.2880 H   0  0  0  0  0  0  0  0  0  0  0  0
   43.0400   35.2210   42.7270 H   0  0  0  0  0  0  0  0  0  0  0  0
   42.8740   35.3340   38.9280 Cl  0  0  0  0  0  0  0  0  0  0  0  0
   41.6620   34.3340   39.7280 C   0  0  0  0  0  0  0  0  0  0  0  0
   41.9850   33.5680   40.8400 C   0  0  0  0  0  0  0  0  0  0  0  0
   40.9980   32.7860   41.4500 C   0  0  0  0  0  0  0  0  0  0  0  0
   41.2350   32.1840   42.3180 H   0  0  0  0  0  0  0  0  0  0  0  0
   39.7010   32.7730   40.9500 C   0  0  0  0  0  3  0  0  0  0  0  0
   39.3640   33.5270   39.8490 C   0  0  0  0  0  0  0  0  0  0  0  0
   37.7390   33.5070   39.2260 Cl  0  0  0  0  0  0  0  0  0  0  0  0
   40.3630   34.2990   39.2560 C   0  0  0  0  0  0  0  0  0  0  0  0
   40.1160   34.8940   38.3940 H   0  0  0  0  0  0  0  0  0  0  0  0
   48.4840   35.1340   41.3990 C   0  0  0  0  0  0  0  0  0  0  0  0
   49.6120   34.3310   41.5680 F   0  0  0  0  0  0  0  0  0  0  0  0
   48.8670   36.4090   41.8040 F   0  0  0  0  0  0  0  0  0  0  0  0
   48.1220   35.0760   40.0850 F   0  0  0  0  0  0  0  0  0  0  0  0
  1  6  1  0  0  0  0
  2  3  1  0  0  0  0
  2  1  2  0  0  0  0
  3  4  2  0  0  0  0
  4  5  1  0  0  0  0
  5 11  1  0  0  0  0
  6  5  2  0  0  0  0
  7  9  1  0  0  0  0
  8  7  2  0  0  0  0
  9  1  1  0  0  0  0
  9 12  1  0  0  0  0
 10  2  1  0  0  0  0
 13 14  1  0  0  0  0
 14 15  1  0  0  0  0
 15  7  1  0  0  0  0
 15 16  2  0  0  0  0
 16 17  1  0  0  0  0
 18 16  1  0  0  0  0
 19 18  2  0  0  0  0
 20 19  1  0  0  0  0
 21 14  2  0  0  0  0
 21 19  1  0  0  0  0
 22 21  1  0  0  0  0
 23 24  1  0  0  0  0
 23 25  1  0  0  0  0
 23  3  1  0  0  0  0
 26 23  1  0  0  0  0
M  END
>  <minimizedAffinity>
-5.90352583

>  <minimizedRMSD>
2.22588921

$$$$
