
     RDKit          3D

 22 23  0  0  0  0  0  0  0  0999 V2000
   44.5169   35.9135   44.6725 C   0  0  0  0  0  0  0  0  0  0  0  0
   45.1556   35.8896   43.4289 C   0  0  0  0  0  0  0  0  0  0  0  0
   46.0740   34.8588   43.2067 C   0  0  0  0  0  0  0  0  0  0  0  0
   46.2923   33.9533   44.1915 N   0  0  0  0  0  0  0  0  0  0  0  0
   45.6511   34.0185   45.3751 C   0  0  0  0  0  0  0  0  0  0  0  0
   44.7700   34.9995   45.6008 N   0  0  0  0  0  0  0  0  0  0  0  0
   45.8835   33.0443   46.4397 C   0  0  0  0  0  0  0  0  0  0  0  0
   45.1646   33.0124   47.4839 O   0  0  0  0  0  0  0  0  0  0  0  0
   43.8232   36.7308   44.7793 H   0  0  0  0  0  0  0  0  0  0  0  0
   45.0555   36.5503   42.5917 H   0  0  0  0  0  0  0  0  0  0  0  0
   46.6791   34.6389   42.3385 H   0  0  0  0  0  0  0  0  0  0  0  0
   45.7525   31.2312   44.0324 Cl  0  0  0  0  0  0  0  0  0  0  0  0
   47.0471   31.2249   45.1985 C   0  0  0  0  0  0  0  0  0  0  0  0
   46.9974   32.0922   46.2480 C   0  0  0  0  0  0  0  0  0  0  0  0
   47.9776   32.1681   47.2328 C   0  0  0  0  0  0  0  0  0  0  0  0
   47.9146   32.8773   48.0709 H   0  0  0  0  0  0  0  0  0  0  0  0
   49.0741   31.3330   47.1731 C   0  0  0  0  0  0  0  0  0  0  0  0
   49.1435   30.4363   46.1042 C   0  0  0  0  0  0  0  0  0  0  0  0
   50.5246   29.3499   45.9854 Cl  0  0  0  0  0  0  0  0  0  0  0  0
   48.1417   30.3991   45.1487 C   0  0  0  0  0  0  0  0  0  0  0  0
   48.2052   29.6915   44.3130 H   0  0  0  0  0  0  0  0  0  0  0  0
   49.8452   31.3726   47.9223 H   0  0  0  0  0  0  0  0  0  0  0  0
  1  6  2  0
  2  1  1  0
  3  2  2  0
  3  4  1  0
  4  5  2  0
  5  6  1  0
  5  7  1  0
  7  8  2  0
  1  9  1  0
  2 10  1  0
  3 11  1  0
 12 13  1  0
 13 14  2  0
 14 15  1  0
 15 16  1  0
 15 17  2  0
 17 18  1  0
 18 19  1  0
 18 20  2  0
 20 21  1  0
 20 13  1  0
 17 22  1  0
  7 14  1  0
M  ISO  5   9  14  10  14  11  14  16  16  21  15
M  END
>  <DihAtoms>  (1) 
4,6,13,12

>  <DihDeg>  (1) 
-135.00425835234856

$$$$
