
 OpenBabel03242518193D

 23 24  0  0  0  0  0  0  0  0999 V2000
   45.9640   32.0900   44.8230 C   0  0  0  0  0  0  0  0  0  0  0  0
   45.0750   31.4680   44.5530 H   0  0  0  0  0  0  0  0  0  0  0  0
   46.8930   31.7060   44.3610 H   0  0  0  0  0  0  0  0  0  0  0  0
   44.7770   35.5490   44.7960 C   0  0  0  0  0  0  0  0  0  0  0  0
   45.2570   36.0660   43.5780 C   0  0  0  0  0  0  0  0  0  0  0  0
   45.9850   35.2090   42.7810 C   0  0  0  0  0  0  0  0  0  0  0  0
   46.1990   33.9440   43.1980 N   0  0  0  0  0  0  0  0  0  0  0  0
   45.7220   33.4810   44.3760 C   0  0  0  0  0  0  0  0  0  0  0  0
   45.0000   34.2980   45.1880 N   0  0  0  0  0  0  0  0  0  0  0  0
   44.1900   36.1790   45.4780 H   0  0  0  0  0  0  0  0  0  0  0  0
   46.3450   35.6210   41.8490 H   0  0  0  0  0  0  0  0  0  0  0  0
   44.9320   37.4050   43.3170 N   0  0  0  0  0  0  0  0  0  0  0  0
   45.0240   38.1550   44.0650 H   0  0  0  0  0  0  0  0  0  0  0  0
   44.6180   37.4590   42.3190 H   0  0  0  0  0  0  0  0  0  0  0  0
   46.1540   32.0390   46.3120 C   0  0  0  0  0  0  0  0  0  0  0  0
   47.3020   32.4760   46.9660 C   0  0  0  0  0  0  0  0  0  0  0  0
   47.1060   32.2690   48.3290 C   0  0  0  0  0  0  0  0  0  0  0  0
   45.8270   31.7110   48.4230 C   0  0  0  0  0  0  0  0  0  0  0  0
   45.3400   31.6090   47.2180 O   0  0  0  0  0  0  0  0  0  0  0  0
   48.2050   32.8980   46.5750 H   0  0  0  0  0  0  0  0  0  0  0  0
   47.7420   32.4680   49.1820 H   0  0  0  0  0  0  0  0  0  0  0  0
   45.0800   31.2840   49.6130 C   0  0  0  0  0  0  0  0  0  0  0  0
   44.6310   30.2800   49.5170 H   0  0  0  0  0  0  0  0  0  0  0  0
  1 15  1  0  0  0  0
  2  1  1  0  0  0  0
  3  1  1  0  0  0  0
  4  9  1  0  0  0  0
  4 10  1  0  0  0  0
  5  4  2  0  0  0  0
  6  7  2  0  0  0  0
  6  5  1  0  0  0  0
  7  8  1  0  0  0  0
  8  1  1  0  0  0  0
  8  9  2  0  0  0  0
 11  6  1  0  0  0  0
 12  5  1  0  0  0  0
 12 13  1  0  0  0  0
 14 12  1  0  0  0  0
 15 16  2  0  0  0  0
 15 19  1  0  0  0  0
 16 17  1  0  0  0  0
 17 18  2  0  0  0  0
 17 21  1  0  0  0  0
 18 22  1  0  0  0  0
 19 18  1  0  0  0  0
 20 16  1  0  0  0  0
 23 22  1  0  0  0  0
M  END
>  <minimizedAffinity>
-4.45661831

>  <minimizedRMSD>
0.398190647

$$$$
