
 OpenBabel03252509213D

 18 19  0  0  0  0  0  0  0  0999 V2000
   36.8240   30.9930   40.4330 C   0  0  0  0  0  0  0  0  0  0  0  0
   36.2820   29.7400   40.8250 C   0  0  0  0  0  0  0  0  0  0  0  0
   37.0720   29.0430   41.7260 C   0  0  0  0  0  0  0  0  0  0  0  0
   38.2780   29.5250   42.2000 N   0  0  0  0  0  0  0  0  0  0  0  0
   38.7280   30.7310   41.7810 C   0  0  0  0  0  0  0  0  0  0  0  0
   37.9990   31.4600   40.8990 N   0  0  0  0  0  0  0  0  0  0  0  0
   36.2570   31.5850   39.7320 H   0  0  0  0  0  0  0  0  0  0  0  0
   39.6680   30.9460   42.2450 H   0  0  0  0  0  0  0  0  0  0  0  0
   36.4940   27.7470   42.2600 C   0  0  0  0  0  0  0  0  0  0  0  0
   37.6190   26.8330   42.7730 C   0  0  0  0  0  0  0  0  0  0  0  0
   36.5630   27.5280   43.6800 C   0  0  0  0  0  0  0  0  0  0  0  0
   35.9050   27.1930   41.4950 H   0  0  0  0  0  0  0  0  0  0  0  0
   37.4640   25.7740   42.5650 H   0  0  0  0  0  0  0  0  0  0  0  0
   38.6220   27.2340   42.7670 H   0  0  0  0  0  0  0  0  0  0  0  0
   35.8940   26.8110   44.2290 H   0  0  0  0  0  0  0  0  0  0  0  0
   37.0310   28.2370   44.3930 H   0  0  0  0  0  0  0  0  0  0  0  0
   34.9910   29.2190   40.3210 C   0  0  0  0  0  2  0  0  0  0  0  0
   34.1870   29.3650   41.0730 H   0  0  0  0  0  0  0  0  0  0  0  0
  1  2  2  0  0  0  0
  1  6  1  0  0  0  0
  2  3  1  0  0  0  0
  3  4  2  0  0  0  0
  3  9  1  0  0  0  0
  5  4  1  0  0  0  0
  5  8  1  0  0  0  0
  6  5  2  0  0  0  0
  7  1  1  0  0  0  0
  9 10  1  0  0  0  0
  9 11  1  0  0  0  0
 10 11  1  0  0  0  0
 11 15  1  0  0  0  0
 11 16  1  0  0  0  0
 12  9  1  0  0  0  0
 13 10  1  0  0  0  0
 14 10  1  0  0  0  0
 17  2  1  0  0  0  0
 17 18  1  0  0  0  0
M  END
>  <minimizedAffinity>
-3.62113118

$$$$

 OpenBabel03252509213D

 18 19  0  0  0  0  0  0  0  0999 V2000
   38.7760   31.0710   41.2850 C   0  0  0  0  0  0  0  0  0  0  0  0
   38.9240   29.9000   42.0750 C   0  0  0  0  0  0  0  0  0  0  0  0
   37.7390   29.2140   42.2910 C   0  0  0  0  0  0  0  0  0  0  0  0
   36.5240   29.6320   41.7820 N   0  0  0  0  0  0  0  0  0  0  0  0
   36.4630   30.7590   41.0340 C   0  0  0  0  0  0  0  0  0  0  0  0
   37.5890   31.4740   40.7890 N   0  0  0  0  0  0  0  0  0  0  0  0
   39.6620   31.6510   41.0810 H   0  0  0  0  0  0  0  0  0  0  0  0
   35.4540   30.9310   40.7240 H   0  0  0  0  0  0  0  0  0  0  0  0
   37.8530   27.9000   43.0390 C   0  0  0  0  0  0  0  0  0  0  0  0
   36.4740   27.4590   43.5550 C   0  0  0  0  0  0  0  0  0  0  0  0
   37.2660   26.7380   42.4280 C   0  0  0  0  0  0  0  0  0  0  0  0
   38.5550   27.9580   43.9010 H   0  0  0  0  0  0  0  0  0  0  0  0
   36.4930   26.9940   44.5410 H   0  0  0  0  0  0  0  0  0  0  0  0
   35.6240   28.0620   43.2690 H   0  0  0  0  0  0  0  0  0  0  0  0
   37.5650   25.6850   42.6850 H   0  0  0  0  0  0  0  0  0  0  0  0
   36.7220   26.7560   41.4620 H   0  0  0  0  0  0  0  0  0  0  0  0
   40.2230   29.4470   42.6220 C   0  0  0  0  0  2  0  0  0  0  0  0
   40.6420   28.6200   42.0110 H   0  0  0  0  0  0  0  0  0  0  0  0
  1  2  1  0  0  0  0
  2  3  2  0  0  0  0
  2 17  1  0  0  0  0
  3  9  1  0  0  0  0
  4  3  1  0  0  0  0
  5  4  2  0  0  0  0
  6  5  1  0  0  0  0
  6  1  2  0  0  0  0
  7  1  1  0  0  0  0
  8  5  1  0  0  0  0
  9 10  1  0  0  0  0
  9 12  1  0  0  0  0
 10 13  1  0  0  0  0
 11 15  1  0  0  0  0
 11  9  1  0  0  0  0
 11 10  1  0  0  0  0
 14 10  1  0  0  0  0
 16 11  1  0  0  0  0
 18 17  1  0  0  0  0
M  END
>  <minimizedAffinity>
-3.52394557

$$$$

 OpenBabel03252509213D

 18 19  0  0  0  0  0  0  0  0999 V2000
   41.0790   28.3430   42.9500 C   0  0  0  0  0  0  0  0  0  0  0  0
   39.7450   28.8310   42.9220 C   0  0  0  0  0  0  0  0  0  0  0  0
   38.7940   27.8870   43.2740 C   0  0  0  0  0  0  0  0  0  0  0  0
   39.1150   26.5880   43.6210 N   0  0  0  0  0  0  0  0  0  0  0  0
   40.4100   26.1970   43.6260 C   0  0  0  0  0  0  0  0  0  0  0  0
   41.3880   27.0760   43.2900 N   0  0  0  0  0  0  0  0  0  0  0  0
   41.8670   29.0290   42.6850 H   0  0  0  0  0  0  0  0  0  0  0  0
   40.4760   25.1700   43.9170 H   0  0  0  0  0  0  0  0  0  0  0  0
   37.3630   28.3800   43.3640 C   0  0  0  0  0  0  0  0  0  0  0  0
   36.5340   27.8280   42.1930 C   0  0  0  0  0  0  0  0  0  0  0  0
   36.3480   27.4110   43.6800 C   0  0  0  0  0  0  0  0  0  0  0  0
   37.2920   29.4910   43.3590 H   0  0  0  0  0  0  0  0  0  0  0  0
   35.8070   28.5330   41.7880 H   0  0  0  0  0  0  0  0  0  0  0  0
   37.0220   27.1290   41.5300 H   0  0  0  0  0  0  0  0  0  0  0  0
   35.3430   27.6830   44.1050 H   0  0  0  0  0  0  0  0  0  0  0  0
   36.5500   26.3320   43.8360 H   0  0  0  0  0  0  0  0  0  0  0  0
   39.3960   30.2210   42.5520 C   0  0  0  0  0  2  0  0  0  0  0  0
   39.1890   30.8310   43.4570 H   0  0  0  0  0  0  0  0  0  0  0  0
  1  6  1  0  0  0  0
  2  1  2  0  0  0  0
  2  3  1  0  0  0  0
  3  9  1  0  0  0  0
  3  4  2  0  0  0  0
  4  5  1  0  0  0  0
  5  8  1  0  0  0  0
  6  5  2  0  0  0  0
  7  1  1  0  0  0  0
  9 11  1  0  0  0  0
 10  9  1  0  0  0  0
 10 11  1  0  0  0  0
 11 16  1  0  0  0  0
 11 15  1  0  0  0  0
 12  9  1  0  0  0  0
 13 10  1  0  0  0  0
 14 10  1  0  0  0  0
 17  2  1  0  0  0  0
 17 18  1  0  0  0  0
M  END
>  <minimizedAffinity>
-3.48714304

$$$$

 OpenBabel03252509213D

 18 19  0  0  0  0  0  0  0  0999 V2000
   39.3470   24.4130   42.2450 C   0  0  0  0  0  0  0  0  0  0  0  0
   38.1550   25.1860   42.2280 C   0  0  0  0  0  0  0  0  0  0  0  0
   38.2300   26.3490   42.9790 C   0  0  0  0  0  0  0  0  0  0  0  0
   39.3610   26.7210   43.6800 N   0  0  0  0  0  0  0  0  0  0  0  0
   40.4600   25.9320   43.6460 C   0  0  0  0  0  0  0  0  0  0  0  0
   40.4490   24.7800   42.9290 N   0  0  0  0  0  0  0  0  0  0  0  0
   39.3540   23.4940   41.6810 H   0  0  0  0  0  0  0  0  0  0  0  0
   41.2370   26.3690   44.2380 H   0  0  0  0  0  0  0  0  0  0  0  0
   37.0250   27.2670   42.9120 C   0  0  0  0  0  0  0  0  0  0  0  0
   37.3230   28.5910   43.6340 C   0  0  0  0  0  0  0  0  0  0  0  0
   37.1360   28.4460   42.0970 C   0  0  0  0  0  0  0  0  0  0  0  0
   36.1150   26.8110   43.3630 H   0  0  0  0  0  0  0  0  0  0  0  0
   36.4780   28.9940   44.1940 H   0  0  0  0  0  0  0  0  0  0  0  0
   38.3250   28.7330   44.0100 H   0  0  0  0  0  0  0  0  0  0  0  0
   36.2490   29.0050   41.6930 H   0  0  0  0  0  0  0  0  0  0  0  0
   38.0530   28.7280   41.5400 H   0  0  0  0  0  0  0  0  0  0  0  0
   36.9410   24.7920   41.4790 C   0  0  0  0  0  2  0  0  0  0  0  0
   36.8640   25.3590   40.5270 H   0  0  0  0  0  0  0  0  0  0  0  0
  1  6  1  0  0  0  0
  2  1  2  0  0  0  0
  2  3  1  0  0  0  0
  3  4  2  0  0  0  0
  5  4  1  0  0  0  0
  5  8  1  0  0  0  0
  6  5  2  0  0  0  0
  7  1  1  0  0  0  0
  9  3  1  0  0  0  0
  9 12  1  0  0  0  0
  9 10  1  0  0  0  0
 10 14  1  0  0  0  0
 10 13  1  0  0  0  0
 11  9  1  0  0  0  0
 11 10  1  0  0  0  0
 15 11  1  0  0  0  0
 16 11  1  0  0  0  0
 17  2  1  0  0  0  0
 18 17  1  0  0  0  0
M  END
>  <minimizedAffinity>
-3.47540045

$$$$

 OpenBabel03252509213D

 18 19  0  0  0  0  0  0  0  0999 V2000
   36.3340   29.2520   39.2160 C   0  0  0  0  0  0  0  0  0  0  0  0
   36.5480   28.1160   40.0430 C   0  0  0  0  0  0  0  0  0  0  0  0
   36.7600   28.4260   41.3770 C   0  0  0  0  0  0  0  0  0  0  0  0
   36.7620   29.7210   41.8580 N   0  0  0  0  0  0  0  0  0  0  0  0
   36.5490   30.7520   41.0080 C   0  0  0  0  0  0  0  0  0  0  0  0
   36.3360   30.5130   39.6890 N   0  0  0  0  0  0  0  0  0  0  0  0
   36.1630   29.0790   38.1650 H   0  0  0  0  0  0  0  0  0  0  0  0
   36.5830   31.6770   41.5460 H   0  0  0  0  0  0  0  0  0  0  0  0
   36.8890   27.2490   42.3240 C   0  0  0  0  0  0  0  0  0  0  0  0
   37.9710   27.5300   43.3790 C   0  0  0  0  0  0  0  0  0  0  0  0
   36.4480   27.4390   43.6790 C   0  0  0  0  0  0  0  0  0  0  0  0
   37.1410   26.3010   41.7980 H   0  0  0  0  0  0  0  0  0  0  0  0
   38.5740   26.6600   43.6430 H   0  0  0  0  0  0  0  0  0  0  0  0
   38.4270   28.5090   43.3700 H   0  0  0  0  0  0  0  0  0  0  0  0
   36.1700   26.5930   44.3650 H   0  0  0  0  0  0  0  0  0  0  0  0
   36.0450   28.3960   44.0700 H   0  0  0  0  0  0  0  0  0  0  0  0
   36.5450   26.7270   39.5320 C   0  0  0  0  0  2  0  0  0  0  0  0
   35.5800   26.2260   39.7560 H   0  0  0  0  0  0  0  0  0  0  0  0
  1  6  2  0  0  0  0
  1  2  1  0  0  0  0
  2  3  2  0  0  0  0
  3  4  1  0  0  0  0
  3  9  1  0  0  0  0
  5  8  1  0  0  0  0
  5  4  2  0  0  0  0
  6  5  1  0  0  0  0
  7  1  1  0  0  0  0
  9 10  1  0  0  0  0
  9 11  1  0  0  0  0
 10 13  1  0  0  0  0
 10 11  1  0  0  0  0
 11 16  1  0  0  0  0
 11 15  1  0  0  0  0
 12  9  1  0  0  0  0
 14 10  1  0  0  0  0
 17 18  1  0  0  0  0
 17  2  1  0  0  0  0
M  END
>  <minimizedAffinity>
-3.46897221

$$$$

 OpenBabel03252509213D

 18 19  0  0  0  0  0  0  0  0999 V2000
   36.5190   28.1330   41.9090 C   0  0  0  0  0  0  0  0  0  0  0  0
   36.1060   29.1820   41.0450 C   0  0  0  0  0  0  0  0  0  0  0  0
   36.9450   30.2850   41.0610 C   0  0  0  0  0  0  0  0  0  0  0  0
   38.0800   30.3560   41.8460 N   0  0  0  0  0  0  0  0  0  0  0  0
   38.4100   29.3130   42.6430 C   0  0  0  0  0  0  0  0  0  0  0  0
   37.6270   28.2050   42.6720 N   0  0  0  0  0  0  0  0  0  0  0  0
   35.9070   27.2450   41.9430 H   0  0  0  0  0  0  0  0  0  0  0  0
   39.3110   29.5370   43.1760 H   0  0  0  0  0  0  0  0  0  0  0  0
   36.6130   31.3930   40.0800 C   0  0  0  0  0  0  0  0  0  0  0  0
   37.6130   32.5520   40.2260 C   0  0  0  0  0  0  0  0  0  0  0  0
   37.5280   31.6090   38.9920 C   0  0  0  0  0  0  0  0  0  0  0  0
   35.5830   31.7910   40.2170 H   0  0  0  0  0  0  0  0  0  0  0  0
   37.1680   33.5420   40.1170 H   0  0  0  0  0  0  0  0  0  0  0  0
   38.4340   32.4110   40.9140 H   0  0  0  0  0  0  0  0  0  0  0  0
   37.2440   32.1340   38.0390 H   0  0  0  0  0  0  0  0  0  0  0  0
   38.4630   31.0320   38.8470 H   0  0  0  0  0  0  0  0  0  0  0  0
   34.8920   29.1110   40.2010 C   0  0  0  0  0  2  0  0  0  0  0  0
   35.1560   28.8700   39.1500 H   0  0  0  0  0  0  0  0  0  0  0  0
  1  7  1  0  0  0  0
  1  6  1  0  0  0  0
  2  3  1  0  0  0  0
  2  1  2  0  0  0  0
  3  4  2  0  0  0  0
  4  5  1  0  0  0  0
  5  6  2  0  0  0  0
  5  8  1  0  0  0  0
  9 12  1  0  0  0  0
  9 10  1  0  0  0  0
  9  3  1  0  0  0  0
 10 14  1  0  0  0  0
 11  9  1  0  0  0  0
 11 10  1  0  0  0  0
 13 10  1  0  0  0  0
 15 11  1  0  0  0  0
 16 11  1  0  0  0  0
 17  2  1  0  0  0  0
 18 17  1  0  0  0  0
M  END
>  <minimizedAffinity>
-3.4537425

$$$$

 OpenBabel03252509213D

 18 19  0  0  0  0  0  0  0  0999 V2000
   37.3530   28.8060   41.7050 C   0  0  0  0  0  0  0  0  0  0  0  0
   36.9910   27.5690   42.3020 C   0  0  0  0  0  0  0  0  0  0  0  0
   37.1840   26.4700   41.4800 C   0  0  0  0  0  0  0  0  0  0  0  0
   37.6840   26.5700   40.1950 N   0  0  0  0  0  0  0  0  0  0  0  0
   38.0090   27.7850   39.6950 C   0  0  0  0  0  0  0  0  0  0  0  0
   37.8410   28.8990   40.4520 N   0  0  0  0  0  0  0  0  0  0  0  0
   37.2250   29.7010   42.2930 H   0  0  0  0  0  0  0  0  0  0  0  0
   38.3780   27.6770   38.6970 H   0  0  0  0  0  0  0  0  0  0  0  0
   36.9150   25.1140   42.1020 C   0  0  0  0  0  0  0  0  0  0  0  0
   36.5600   24.0890   41.0120 C   0  0  0  0  0  0  0  0  0  0  0  0
   37.8700   24.0690   41.8490 C   0  0  0  0  0  0  0  0  0  0  0  0
   36.0900   25.1410   42.8480 H   0  0  0  0  0  0  0  0  0  0  0  0
   35.7840   23.3800   41.3010 H   0  0  0  0  0  0  0  0  0  0  0  0
   36.6220   24.4190   39.9850 H   0  0  0  0  0  0  0  0  0  0  0  0
   37.9800   23.1590   42.5000 H   0  0  0  0  0  0  0  0  0  0  0  0
   38.7700   24.1950   41.2140 H   0  0  0  0  0  0  0  0  0  0  0  0
   36.4560   27.4570   43.6780 C   0  0  0  0  0  2  0  0  0  0  0  0
   37.2470   27.1230   44.3830 H   0  0  0  0  0  0  0  0  0  0  0  0
  1  7  1  0  0  0  0
  1  2  1  0  0  0  0
  2 17  1  0  0  0  0
  3  9  1  0  0  0  0
  3  2  2  0  0  0  0
  4  3  1  0  0  0  0
  5  4  2  0  0  0  0
  5  6  1  0  0  0  0
  6  1  2  0  0  0  0
  8  5  1  0  0  0  0
  9 12  1  0  0  0  0
 10 13  1  0  0  0  0
 10 11  1  0  0  0  0
 10  9  1  0  0  0  0
 11  9  1  0  0  0  0
 11 15  1  0  0  0  0
 14 10  1  0  0  0  0
 16 11  1  0  0  0  0
 17 18  1  0  0  0  0
M  END
>  <minimizedAffinity>
-3.43241954

$$$$

 OpenBabel03252509213D

 18 19  0  0  0  0  0  0  0  0999 V2000
   35.6190   28.7620   40.9370 C   0  0  0  0  0  0  0  0  0  0  0  0
   36.6910   28.6210   41.8580 C   0  0  0  0  0  0  0  0  0  0  0  0
   37.5760   29.6870   41.8560 C   0  0  0  0  0  0  0  0  0  0  0  0
   37.4270   30.7880   41.0340 N   0  0  0  0  0  0  0  0  0  0  0  0
   36.3770   30.8510   40.1830 C   0  0  0  0  0  0  0  0  0  0  0  0
   35.4760   29.8370   40.1380 N   0  0  0  0  0  0  0  0  0  0  0  0
   34.8940   27.9640   40.8890 H   0  0  0  0  0  0  0  0  0  0  0  0
   36.4170   31.7650   39.6280 H   0  0  0  0  0  0  0  0  0  0  0  0
   38.6820   29.6410   42.8930 C   0  0  0  0  0  0  0  0  0  0  0  0
   40.0090   29.2230   42.2390 C   0  0  0  0  0  0  0  0  0  0  0  0
   39.7120   30.6400   42.8060 C   0  0  0  0  0  0  0  0  0  0  0  0
   38.4580   28.9380   43.7260 H   0  0  0  0  0  0  0  0  0  0  0  0
   40.6240   28.5680   42.8560 H   0  0  0  0  0  0  0  0  0  0  0  0
   40.0120   29.0990   41.1660 H   0  0  0  0  0  0  0  0  0  0  0  0
   40.3690   30.9290   43.6720 H   0  0  0  0  0  0  0  0  0  0  0  0
   39.7540   31.4190   42.0180 H   0  0  0  0  0  0  0  0  0  0  0  0
   36.8550   27.4450   42.7420 C   0  0  0  0  0  2  0  0  0  0  0  0
   36.5110   27.6740   43.7720 H   0  0  0  0  0  0  0  0  0  0  0  0
  1  2  1  0  0  0  0
  2 17  1  0  0  0  0
  3  2  2  0  0  0  0
  3  9  1  0  0  0  0
  4  3  1  0  0  0  0
  5  4  2  0  0  0  0
  6  5  1  0  0  0  0
  6  1  2  0  0  0  0
  7  1  1  0  0  0  0
  8  5  1  0  0  0  0
  9 12  1  0  0  0  0
 10 11  1  0  0  0  0
 10 13  1  0  0  0  0
 10  9  1  0  0  0  0
 11  9  1  0  0  0  0
 11 15  1  0  0  0  0
 14 10  1  0  0  0  0
 16 11  1  0  0  0  0
 17 18  1  0  0  0  0
M  END
>  <minimizedAffinity>
-3.40416074

$$$$

 OpenBabel03252509213D

 18 19  0  0  0  0  0  0  0  0999 V2000
   37.8630   26.6300   42.6990 C   0  0  0  0  0  0  0  0  0  0  0  0
   37.1800   26.8360   41.4700 C   0  0  0  0  0  0  0  0  0  0  0  0
   36.8080   28.1530   41.2490 C   0  0  0  0  0  0  0  0  0  0  0  0
   37.0780   29.1720   42.1420 N   0  0  0  0  0  0  0  0  0  0  0  0
   37.7360   28.8970   43.2930 C   0  0  0  0  0  0  0  0  0  0  0  0
   38.1260   27.6270   43.5670 N   0  0  0  0  0  0  0  0  0  0  0  0
   38.1790   25.6260   42.9320 H   0  0  0  0  0  0  0  0  0  0  0  0
   37.8600   29.7960   43.8600 H   0  0  0  0  0  0  0  0  0  0  0  0
   36.1690   28.4510   39.9060 C   0  0  0  0  0  0  0  0  0  0  0  0
   34.8380   29.1940   40.1030 C   0  0  0  0  0  0  0  0  0  0  0  0
   36.1200   29.8260   39.4880 C   0  0  0  0  0  0  0  0  0  0  0  0
   35.9790   27.5310   39.3090 H   0  0  0  0  0  0  0  0  0  0  0  0
   34.0550   28.9000   39.4040 H   0  0  0  0  0  0  0  0  0  0  0  0
   34.5720   29.4720   41.1120 H   0  0  0  0  0  0  0  0  0  0  0  0
   36.0000   30.1430   38.4160 H   0  0  0  0  0  0  0  0  0  0  0  0
   36.4980   30.6720   40.0970 H   0  0  0  0  0  0  0  0  0  0  0  0
   36.8890   25.7480   40.5100 C   0  0  0  0  0  2  0  0  0  0  0  0
   37.6100   25.7640   39.6650 H   0  0  0  0  0  0  0  0  0  0  0  0
  1  7  1  0  0  0  0
  1  6  1  0  0  0  0
  2  1  2  0  0  0  0
  3  2  1  0  0  0  0
  3  4  2  0  0  0  0
  4  5  1  0  0  0  0
  5  6  2  0  0  0  0
  5  8  1  0  0  0  0
  9 10  1  0  0  0  0
  9  3  1  0  0  0  0
 10 14  1  0  0  0  0
 11  9  1  0  0  0  0
 11 16  1  0  0  0  0
 11 10  1  0  0  0  0
 12  9  1  0  0  0  0
 13 10  1  0  0  0  0
 15 11  1  0  0  0  0
 17  2  1  0  0  0  0
 18 17  1  0  0  0  0
M  END
>  <minimizedAffinity>
-3.31998873

$$$$
