
 OpenBabel03252509183D

 34 36  0  0  1  0  0  0  0  0999 V2000
   36.7470   26.4380   40.7750 C   0  0  1  0  0  0  0  0  0  0  0  0
   37.5030   25.7760   39.6770 C   0  0  0  0  0  0  0  0  0  0  0  0
   38.3260   24.5990   40.0930 C   0  0  0  0  0  0  0  0  0  0  0  0
   37.6130   23.6890   41.0700 C   0  0  0  0  0  0  0  0  0  0  0  0
   36.8810   24.4350   42.1460 C   0  0  0  0  0  0  0  0  0  0  0  0
   37.2990   25.9080   42.1170 C   0  0  2  0  0  0  0  0  0  0  0  0
   35.6930   26.0710   40.7520 H   0  0  0  0  0  0  0  0  0  0  0  0
   38.2190   26.5210   39.2230 H   0  0  0  0  0  0  0  0  0  0  0  0
   36.8470   25.4780   38.8250 H   0  0  0  0  0  0  0  0  0  0  0  0
   39.2990   24.9360   40.4630 H   0  0  0  0  0  0  0  0  0  0  0  0
   38.5010   23.9770   39.1830 H   0  0  0  0  0  0  0  0  0  0  0  0
   38.3770   22.9920   41.4720 H   0  0  0  0  0  0  0  0  0  0  0  0
   36.8590   23.0770   40.5120 H   0  0  0  0  0  0  0  0  0  0  0  0
   37.2680   24.0660   43.1370 H   0  0  0  0  0  0  0  0  0  0  0  0
   35.7810   24.3360   42.0990 H   0  0  0  0  0  0  0  0  0  0  0  0
   38.3960   25.9050   42.1140 H   0  0  0  0  0  0  0  0  0  0  0  0
   37.5070   30.4480   40.4950 C   0  0  0  0  0  0  0  0  0  0  0  0
   36.1320   30.1750   40.5670 C   0  0  0  0  0  0  0  0  0  0  0  0
   35.7580   28.8790   40.6680 C   0  0  0  0  0  0  0  0  0  0  0  0
   36.7300   27.8610   40.6990 C   0  0  0  0  0  0  0  0  0  0  0  0
   38.2850   28.7930   40.5770 S   0  0  0  0  0  0  0  0  0  0  0  0
   35.3810   30.9510   40.5430 H   0  0  0  0  0  0  0  0  0  0  0  0
   34.7720   28.4690   40.7340 H   0  0  0  0  0  0  0  0  0  0  0  0
   38.1010   34.0860   39.9670 C   0  0  0  0  0  0  0  0  0  0  0  0
   39.4740   34.1470   40.2570 C   0  0  0  0  0  0  0  0  0  0  0  0
   40.1290   32.9600   40.6170 C   0  0  0  0  0  0  0  0  0  0  0  0
   39.4050   31.8010   40.6700 N   0  0  0  0  0  0  0  0  0  0  0  0
   38.0680   31.8000   40.3780 C   0  0  0  0  0  0  0  0  0  0  0  0
   37.4330   32.9370   40.0300 N   0  0  0  0  0  0  0  0  0  0  0  0
   37.5530   34.9840   39.6840 H   0  0  0  0  0  0  0  0  0  0  0  0
   39.9810   35.0990   40.1940 H   0  0  0  0  0  0  0  0  0  0  0  0
   41.1770   32.9830   40.8420 H   0  0  0  0  0  0  0  0  0  0  0  0
   36.7750   26.6760   43.2820 C   0  0  0  0  0  2  0  0  0  0  0  0
   35.7630   26.3820   43.5740 H   0  0  0  0  0  0  0  0  0  0  0  0
  1  7  1  6  0  0  0
  1  6  1  0  0  0  0
  2  3  1  0  0  0  0
  2  1  1  0  0  0  0
  3 10  1  0  0  0  0
  3  4  1  0  0  0  0
  4 12  1  0  0  0  0
  4  5  1  0  0  0  0
  5 14  1  0  0  0  0
  6 16  1  6  0  0  0
  6  5  1  0  0  0  0
  6 33  1  0  0  0  0
  8  2  1  0  0  0  0
  9  2  1  0  0  0  0
 11  3  1  0  0  0  0
 13  4  1  0  0  0  0
 15  5  1  0  0  0  0
 17 18  2  0  0  0  0
 17 21  1  0  0  0  0
 18 19  1  0  0  0  0
 19 20  2  0  0  0  0
 19 23  1  0  0  0  0
 20  1  1  0  0  0  0
 21 20  1  0  0  0  0
 22 18  1  0  0  0  0
 24 29  2  0  0  0  0
 24 25  1  0  0  0  0
 25 26  2  0  0  0  0
 26 27  1  0  0  0  0
 26 32  1  0  0  0  0
 28 17  1  0  0  0  0
 28 27  2  0  0  0  0
 29 28  1  0  0  0  0
 30 24  1  0  0  0  0
 31 25  1  0  0  0  0
 33 34  1  0  0  0  0
M  END
>  <minimizedAffinity>
-5.12155867

$$$$

 OpenBabel03252509183D

 34 36  0  0  1  0  0  0  0  0999 V2000
   38.2440   26.2180   42.1720 C   0  0  1  0  0  0  0  0  0  0  0  0
   36.8670   25.7980   41.7950 C   0  0  0  0  0  0  0  0  0  0  0  0
   36.7910   24.5970   40.9080 C   0  0  0  0  0  0  0  0  0  0  0  0
   37.7490   23.4960   41.3120 C   0  0  0  0  0  0  0  0  0  0  0  0
   39.1140   24.0040   41.6710 C   0  0  0  0  0  0  0  0  0  0  0  0
   39.2360   25.4720   41.2530 C   0  0  2  0  0  0  0  0  0  0  0  0
   38.4690   25.8220   43.1920 H   0  0  0  0  0  0  0  0  0  0  0  0
   36.3670   26.6400   41.2340 H   0  0  0  0  0  0  0  0  0  0  0  0
   36.2110   25.6360   42.6820 H   0  0  0  0  0  0  0  0  0  0  0  0
   36.9090   24.8960   39.8630 H   0  0  0  0  0  0  0  0  0  0  0  0
   35.7720   24.1590   41.0270 H   0  0  0  0  0  0  0  0  0  0  0  0
   37.7670   22.7670   40.4760 H   0  0  0  0  0  0  0  0  0  0  0  0
   37.3380   22.9690   42.2110 H   0  0  0  0  0  0  0  0  0  0  0  0
   39.8570   23.4750   41.0120 H   0  0  0  0  0  0  0  0  0  0  0  0
   39.3810   23.8740   42.7360 H   0  0  0  0  0  0  0  0  0  0  0  0
   38.9050   25.5110   40.2080 H   0  0  0  0  0  0  0  0  0  0  0  0
   38.5230   30.2340   41.4450 C   0  0  0  0  0  0  0  0  0  0  0  0
   38.9140   29.9070   42.7530 C   0  0  0  0  0  0  0  0  0  0  0  0
   38.8680   28.6020   43.1090 C   0  0  0  0  0  0  0  0  0  0  0  0
   38.4430   27.6290   42.1840 C   0  0  0  0  0  0  0  0  0  0  0  0
   38.0800   28.6200   40.7040 S   0  0  0  0  0  0  0  0  0  0  0  0
   39.2400   30.6480   43.4670 H   0  0  0  0  0  0  0  0  0  0  0  0
   39.1210   28.1540   44.0460 H   0  0  0  0  0  0  0  0  0  0  0  0
   37.6450   33.5210   39.9300 C   0  0  0  0  0  0  0  0  0  0  0  0
   38.8930   34.1600   40.0100 C   0  0  0  0  0  0  0  0  0  0  0  0
   39.9650   33.4530   40.5720 C   0  0  0  0  0  0  0  0  0  0  0  0
   39.7500   32.1780   41.0150 N   0  0  0  0  0  0  0  0  0  0  0  0
   38.5130   31.6030   40.9130 C   0  0  0  0  0  0  0  0  0  0  0  0
   37.4770   32.2770   40.3730 N   0  0  0  0  0  0  0  0  0  0  0  0
   36.7850   34.0340   39.5010 H   0  0  0  0  0  0  0  0  0  0  0  0
   38.9880   35.1710   39.6400 H   0  0  0  0  0  0  0  0  0  0  0  0
   40.9270   33.9220   40.6440 H   0  0  0  0  0  0  0  0  0  0  0  0
   40.6260   25.9930   41.3870 C   0  0  0  0  0  2  0  0  0  0  0  0
   41.1470   25.6130   42.2700 H   0  0  0  0  0  0  0  0  0  0  0  0
  1 20  1  0  0  0  0
  1  7  1  1  0  0  0
  2  1  1  0  0  0  0
  2  9  1  0  0  0  0
  3 11  1  0  0  0  0
  3  4  1  0  0  0  0
  3  2  1  0  0  0  0
  4  5  1  0  0  0  0
  4 13  1  0  0  0  0
  5 15  1  0  0  0  0
  6 16  1  6  0  0  0
  6 33  1  0  0  0  0
  6  5  1  0  0  0  0
  6  1  1  0  0  0  0
  8  2  1  0  0  0  0
 10  3  1  0  0  0  0
 12  4  1  0  0  0  0
 14  5  1  0  0  0  0
 17 18  2  0  0  0  0
 18 19  1  0  0  0  0
 18 22  1  0  0  0  0
 19 23  1  0  0  0  0
 20 19  2  0  0  0  0
 21 17  1  0  0  0  0
 21 20  1  0  0  0  0
 24 25  2  0  0  0  0
 24 29  1  0  0  0  0
 25 26  1  0  0  0  0
 26 32  1  0  0  0  0
 26 27  2  0  0  0  0
 28 27  1  0  0  0  0
 28 17  1  0  0  0  0
 29 28  2  0  0  0  0
 30 24  1  0  0  0  0
 31 25  1  0  0  0  0
 33 34  1  0  0  0  0
M  END
>  <minimizedAffinity>
-4.99025679

$$$$

 OpenBabel03252509183D

 34 36  0  0  1  0  0  0  0  0999 V2000
   38.3300   26.8660   41.5120 C   0  0  1  0  0  0  0  0  0  0  0  0
   39.1400   27.7750   42.3690 C   0  0  0  0  0  0  0  0  0  0  0  0
   39.5710   27.1960   43.6780 C   0  0  0  0  0  0  0  0  0  0  0  0
   40.0480   25.7630   43.5680 C   0  0  0  0  0  0  0  0  0  0  0  0
   39.1740   24.9150   42.6930 C   0  0  0  0  0  0  0  0  0  0  0  0
   37.8790   25.6720   42.3820 C   0  0  2  0  0  0  0  0  0  0  0  0
   39.0020   26.4060   40.7480 H   0  0  0  0  0  0  0  0  0  0  0  0
   38.5300   28.6920   42.6110 H   0  0  0  0  0  0  0  0  0  0  0  0
   40.0350   28.1780   41.8380 H   0  0  0  0  0  0  0  0  0  0  0  0
   38.7780   27.3200   44.4200 H   0  0  0  0  0  0  0  0  0  0  0  0
   40.4580   27.7770   44.0240 H   0  0  0  0  0  0  0  0  0  0  0  0
   40.1270   25.3730   44.6040 H   0  0  0  0  0  0  0  0  0  0  0  0
   41.0770   25.7560   43.1260 H   0  0  0  0  0  0  0  0  0  0  0  0
   38.8300   24.0360   43.3060 H   0  0  0  0  0  0  0  0  0  0  0  0
   39.6620   24.5700   41.7620 H   0  0  0  0  0  0  0  0  0  0  0  0
   37.4980   26.0160   43.3510 H   0  0  0  0  0  0  0  0  0  0  0  0
   35.5250   28.3200   38.9140 C   0  0  0  0  0  0  0  0  0  0  0  0
   35.2980   28.7510   40.2300 C   0  0  0  0  0  0  0  0  0  0  0  0
   36.1680   28.3370   41.1810 C   0  0  0  0  0  0  0  0  0  0  0  0
   37.2510   27.5060   40.8360 C   0  0  0  0  0  0  0  0  0  0  0  0
   37.0320   27.2910   39.0450 S   0  0  0  0  0  0  0  0  0  0  0  0
   34.4690   29.3880   40.5010 H   0  0  0  0  0  0  0  0  0  0  0  0
   36.1690   28.5530   42.2280 H   0  0  0  0  0  0  0  0  0  0  0  0
   32.7170   29.2380   36.6450 C   0  0  0  0  0  0  0  0  0  0  0  0
   33.4120   29.3120   35.4270 C   0  0  0  0  0  0  0  0  0  0  0  0
   34.7890   29.0510   35.4310 C   0  0  0  0  0  0  0  0  0  0  0  0
   35.3940   28.7370   36.6180 N   0  0  0  0  0  0  0  0  0  0  0  0
   34.6690   28.6800   37.7760 C   0  0  0  0  0  0  0  0  0  0  0  0
   33.3440   28.9290   37.7780 N   0  0  0  0  0  0  0  0  0  0  0  0
   31.6470   29.4330   36.6870 H   0  0  0  0  0  0  0  0  0  0  0  0
   32.8670   29.5650   34.5280 H   0  0  0  0  0  0  0  0  0  0  0  0
   35.3400   29.1010   34.5120 H   0  0  0  0  0  0  0  0  0  0  0  0
   36.8700   24.8220   41.6880 C   0  0  0  0  0  2  0  0  0  0  0  0
   37.3100   24.1350   40.9610 H   0  0  0  0  0  0  0  0  0  0  0  0
  1  7  1  6  0  0  0
  1  2  1  0  0  0  0
  1  6  1  0  0  0  0
  2  8  1  0  0  0  0
  2  3  1  0  0  0  0
  3 11  1  0  0  0  0
  3 10  1  0  0  0  0
  4  3  1  0  0  0  0
  4 12  1  0  0  0  0
  5 14  1  0  0  0  0
  5  4  1  0  0  0  0
  6  5  1  0  0  0  0
  6 16  1  1  0  0  0
  9  2  1  0  0  0  0
 13  4  1  0  0  0  0
 15  5  1  0  0  0  0
 17 21  1  0  0  0  0
 17 18  2  0  0  0  0
 18 22  1  0  0  0  0
 18 19  1  0  0  0  0
 19 23  1  0  0  0  0
 20 19  2  0  0  0  0
 20  1  1  0  0  0  0
 21 20  1  0  0  0  0
 24 30  1  0  0  0  0
 24 29  1  0  0  0  0
 25 26  1  0  0  0  0
 25 24  2  0  0  0  0
 26 27  2  0  0  0  0
 27 28  1  0  0  0  0
 28 29  2  0  0  0  0
 28 17  1  0  0  0  0
 31 25  1  0  0  0  0
 32 26  1  0  0  0  0
 33  6  1  0  0  0  0
 34 33  1  0  0  0  0
M  END
>  <minimizedAffinity>
-4.81765604

$$$$

 OpenBabel03252509183D

 34 36  0  0  1  0  0  0  0  0999 V2000
   39.2520   31.7430   41.4230 C   0  0  1  0  0  0  0  0  0  0  0  0
   40.6760   31.9900   41.0660 C   0  0  0  0  0  0  0  0  0  0  0  0
   40.8910   32.9460   39.9360 C   0  0  0  0  0  0  0  0  0  0  0  0
   39.9890   34.1600   40.0050 C   0  0  0  0  0  0  0  0  0  0  0  0
   38.5720   33.8240   40.3650 C   0  0  0  0  0  0  0  0  0  0  0  0
   38.3730   32.3070   40.2850 C   0  0  2  0  0  0  0  0  0  0  0  0
   38.9930   32.3770   42.3050 H   0  0  0  0  0  0  0  0  0  0  0  0
   41.1500   31.0150   40.7520 H   0  0  0  0  0  0  0  0  0  0  0  0
   41.2860   32.3170   41.9400 H   0  0  0  0  0  0  0  0  0  0  0  0
   40.8170   32.4190   38.9820 H   0  0  0  0  0  0  0  0  0  0  0  0
   41.9290   33.3440   40.0300 H   0  0  0  0  0  0  0  0  0  0  0  0
   40.0730   34.6750   39.0260 H   0  0  0  0  0  0  0  0  0  0  0  0
   40.3790   34.8590   40.7890 H   0  0  0  0  0  0  0  0  0  0  0  0
   37.9100   34.2250   39.5480 H   0  0  0  0  0  0  0  0  0  0  0  0
   38.2500   34.2120   41.3500 H   0  0  0  0  0  0  0  0  0  0  0  0
   38.7650   32.0090   39.3040 H   0  0  0  0  0  0  0  0  0  0  0  0
   38.6480   27.7000   41.5740 C   0  0  0  0  0  0  0  0  0  0  0  0
   38.3570   28.3230   42.7980 C   0  0  0  0  0  0  0  0  0  0  0  0
   38.5150   29.6650   42.8670 C   0  0  0  0  0  0  0  0  0  0  0  0
   38.9550   30.3870   41.7410 C   0  0  0  0  0  0  0  0  0  0  0  0
   39.1620   29.0840   40.4910 S   0  0  0  0  0  0  0  0  0  0  0  0
   38.0200   27.7760   43.6650 H   0  0  0  0  0  0  0  0  0  0  0  0
   38.3480   30.3170   43.6980 H   0  0  0  0  0  0  0  0  0  0  0  0
   39.0430   24.1720   40.4490 C   0  0  0  0  0  0  0  0  0  0  0  0
   37.9900   23.5760   41.1620 C   0  0  0  0  0  0  0  0  0  0  0  0
   37.2020   24.3930   41.9860 C   0  0  0  0  0  0  0  0  0  0  0  0
   37.4930   25.7270   42.0590 N   0  0  0  0  0  0  0  0  0  0  0  0
   38.5320   26.2540   41.3430 C   0  0  0  0  0  0  0  0  0  0  0  0
   39.2930   25.4750   40.5480 N   0  0  0  0  0  0  0  0  0  0  0  0
   39.6800   23.5750   39.7980 H   0  0  0  0  0  0  0  0  0  0  0  0
   37.8190   22.5150   41.0550 H   0  0  0  0  0  0  0  0  0  0  0  0
   36.3920   23.9590   42.5400 H   0  0  0  0  0  0  0  0  0  0  0  0
   36.9450   31.9080   40.4280 C   0  0  0  0  0  2  0  0  0  0  0  0
   36.3980   32.5100   41.1590 H   0  0  0  0  0  0  0  0  0  0  0  0
  1 20  1  0  0  0  0
  1  7  1  1  0  0  0
  2  1  1  0  0  0  0
  2  9  1  0  0  0  0
  3  4  1  0  0  0  0
  3 11  1  0  0  0  0
  3  2  1  0  0  0  0
  4  5  1  0  0  0  0
  4 13  1  0  0  0  0
  5 15  1  0  0  0  0
  6 16  1  6  0  0  0
  6  5  1  0  0  0  0
  6 33  1  0  0  0  0
  6  1  1  0  0  0  0
  8  2  1  0  0  0  0
 10  3  1  0  0  0  0
 12  4  1  0  0  0  0
 14  5  1  0  0  0  0
 17 18  2  0  0  0  0
 18 19  1  0  0  0  0
 18 22  1  0  0  0  0
 19 23  1  0  0  0  0
 20 19  2  0  0  0  0
 21 17  1  0  0  0  0
 21 20  1  0  0  0  0
 24 29  2  0  0  0  0
 24 25  1  0  0  0  0
 25 26  2  0  0  0  0
 26 27  1  0  0  0  0
 26 32  1  0  0  0  0
 28 17  1  0  0  0  0
 28 27  2  0  0  0  0
 29 28  1  0  0  0  0
 30 24  1  0  0  0  0
 31 25  1  0  0  0  0
 33 34  1  0  0  0  0
M  END
>  <minimizedAffinity>
-4.76284933

$$$$

 OpenBabel03252509183D

 34 36  0  0  1  0  0  0  0  0999 V2000
   37.7180   26.6810   40.9130 C   0  0  1  0  0  0  0  0  0  0  0  0
   38.7120   25.8030   40.2360 C   0  0  0  0  0  0  0  0  0  0  0  0
   38.9640   24.4920   40.9100 C   0  0  0  0  0  0  0  0  0  0  0  0
   37.7000   23.8260   41.4090 C   0  0  0  0  0  0  0  0  0  0  0  0
   36.7560   24.7780   42.0830 C   0  0  0  0  0  0  0  0  0  0  0  0
   37.4690   26.1110   42.3280 C   0  0  2  0  0  0  0  0  0  0  0  0
   36.7340   26.5660   40.3980 H   0  0  0  0  0  0  0  0  0  0  0  0
   39.7050   26.3360   40.1950 H   0  0  0  0  0  0  0  0  0  0  0  0
   38.4600   25.6180   39.1650 H   0  0  0  0  0  0  0  0  0  0  0  0
   39.7150   24.6150   41.6950 H   0  0  0  0  0  0  0  0  0  0  0  0
   39.3810   23.7980   40.1420 H   0  0  0  0  0  0  0  0  0  0  0  0
   38.0180   22.9950   42.0710 H   0  0  0  0  0  0  0  0  0  0  0  0
   37.1590   23.3750   40.5380 H   0  0  0  0  0  0  0  0  0  0  0  0
   36.5590   24.3850   43.1180 H   0  0  0  0  0  0  0  0  0  0  0  0
   35.8050   24.9330   41.5410 H   0  0  0  0  0  0  0  0  0  0  0  0
   38.4170   25.8550   42.8180 H   0  0  0  0  0  0  0  0  0  0  0  0
   39.1410   30.4600   40.2600 C   0  0  0  0  0  0  0  0  0  0  0  0
   38.2760   30.4060   41.3630 C   0  0  0  0  0  0  0  0  0  0  0  0
   37.7450   29.2020   41.6810 C   0  0  0  0  0  0  0  0  0  0  0  0
   38.0650   28.0620   40.9180 C   0  0  0  0  0  0  0  0  0  0  0  0
   39.1950   28.7310   39.6610 S   0  0  0  0  0  0  0  0  0  0  0  0
   38.0260   31.2760   41.9520 H   0  0  0  0  0  0  0  0  0  0  0  0
   37.0740   28.9550   42.4750 H   0  0  0  0  0  0  0  0  0  0  0  0
   41.0970   33.0450   38.4260 C   0  0  0  0  0  0  0  0  0  0  0  0
   40.8340   34.1610   39.2380 C   0  0  0  0  0  0  0  0  0  0  0  0
   40.0100   33.9860   40.3590 C   0  0  0  0  0  0  0  0  0  0  0  0
   39.5020   32.7430   40.6120 N   0  0  0  0  0  0  0  0  0  0  0  0
   39.7900   31.6900   39.7880 C   0  0  0  0  0  0  0  0  0  0  0  0
   40.5820   31.8510   38.7080 N   0  0  0  0  0  0  0  0  0  0  0  0
   41.7310   33.1360   37.5450 H   0  0  0  0  0  0  0  0  0  0  0  0
   41.2710   35.1140   38.9750 H   0  0  0  0  0  0  0  0  0  0  0  0
   39.7960   34.8250   40.9930 H   0  0  0  0  0  0  0  0  0  0  0  0
   36.6700   27.0420   43.1740 C   0  0  0  0  0  2  0  0  0  0  0  0
   35.5980   27.0060   42.9630 H   0  0  0  0  0  0  0  0  0  0  0  0
  1  7  1  6  0  0  0
  1 20  1  0  0  0  0
  1  6  1  0  0  0  0
  2  3  1  0  0  0  0
  2  1  1  0  0  0  0
  3  4  1  0  0  0  0
  3 10  1  0  0  0  0
  4 12  1  0  0  0  0
  4  5  1  0  0  0  0
  5  6  1  0  0  0  0
  5 14  1  0  0  0  0
  6 16  1  1  0  0  0
  6 33  1  0  0  0  0
  8  2  1  0  0  0  0
  9  2  1  0  0  0  0
 11  3  1  0  0  0  0
 13  4  1  0  0  0  0
 15  5  1  0  0  0  0
 17 18  2  0  0  0  0
 18 19  1  0  0  0  0
 18 22  1  0  0  0  0
 19 23  1  0  0  0  0
 20 19  2  0  0  0  0
 21 17  1  0  0  0  0
 21 20  1  0  0  0  0
 24 29  2  0  0  0  0
 24 25  1  0  0  0  0
 25 26  2  0  0  0  0
 26 27  1  0  0  0  0
 26 32  1  0  0  0  0
 28 17  1  0  0  0  0
 28 27  2  0  0  0  0
 29 28  1  0  0  0  0
 30 24  1  0  0  0  0
 31 25  1  0  0  0  0
 34 33  1  0  0  0  0
M  END
>  <minimizedAffinity>
-4.73995829

$$$$

 OpenBabel03252509183D

 34 36  0  0  1  0  0  0  0  0999 V2000
   36.4730   30.8680   38.9630 C   0  0  1  0  0  0  0  0  0  0  0  0
   36.6000   30.1760   37.6510 C   0  0  0  0  0  0  0  0  0  0  0  0
   36.1910   28.7380   37.6500 C   0  0  0  0  0  0  0  0  0  0  0  0
   34.9210   28.4800   38.4340 C   0  0  0  0  0  0  0  0  0  0  0  0
   34.8770   29.2090   39.7440 C   0  0  0  0  0  0  0  0  0  0  0  0
   36.2600   29.7900   40.0490 C   0  0  2  0  0  0  0  0  0  0  0  0
   35.5200   31.4490   38.9670 H   0  0  0  0  0  0  0  0  0  0  0  0
   37.6800   30.2000   37.3260 H   0  0  0  0  0  0  0  0  0  0  0  0
   36.0590   30.7080   36.8330 H   0  0  0  0  0  0  0  0  0  0  0  0
   37.0250   28.1120   37.9800 H   0  0  0  0  0  0  0  0  0  0  0  0
   35.9490   28.4610   36.5970 H   0  0  0  0  0  0  0  0  0  0  0  0
   34.8380   27.3790   38.5510 H   0  0  0  0  0  0  0  0  0  0  0  0
   34.0440   28.8220   37.8270 H   0  0  0  0  0  0  0  0  0  0  0  0
   34.7230   28.4430   40.5540 H   0  0  0  0  0  0  0  0  0  0  0  0
   34.0980   29.9930   39.8000 H   0  0  0  0  0  0  0  0  0  0  0  0
   36.9660   28.9600   39.9190 H   0  0  0  0  0  0  0  0  0  0  0  0
   40.0220   32.8120   39.5670 C   0  0  0  0  0  0  0  0  0  0  0  0
   38.9170   33.6280   39.8580 C   0  0  0  0  0  0  0  0  0  0  0  0
   37.6860   33.0900   39.7000 C   0  0  0  0  0  0  0  0  0  0  0  0
   37.5440   31.7590   39.2600 C   0  0  0  0  0  0  0  0  0  0  0  0
   39.2690   31.2250   39.0530 S   0  0  0  0  0  0  0  0  0  0  0  0
   39.0180   34.6490   40.1950 H   0  0  0  0  0  0  0  0  0  0  0  0
   36.7310   33.5410   39.8670 H   0  0  0  0  0  0  0  0  0  0  0  0
   43.5610   33.8130   38.9830 C   0  0  0  0  0  0  0  0  0  0  0  0
   43.9510   34.0880   40.3050 C   0  0  0  0  0  0  0  0  0  0  0  0
   43.0020   33.9240   41.3240 C   0  0  0  0  0  0  0  0  0  0  0  0
   41.7440   33.5060   40.9880 N   0  0  0  0  0  0  0  0  0  0  0  0
   41.4180   33.2530   39.6840 C   0  0  0  0  0  0  0  0  0  0  0  0
   42.3260   33.4070   38.6990 N   0  0  0  0  0  0  0  0  0  0  0  0
   44.2670   33.9270   38.1620 H   0  0  0  0  0  0  0  0  0  0  0  0
   44.9630   34.4150   40.4950 H   0  0  0  0  0  0  0  0  0  0  0  0
   43.2770   34.1290   42.3400 H   0  0  0  0  0  0  0  0  0  0  0  0
   36.3550   30.3540   41.4250 C   0  0  0  0  0  2  0  0  0  0  0  0
   35.4440   30.8680   41.7460 H   0  0  0  0  0  0  0  0  0  0  0  0
  1  7  1  6  0  0  0
  1 20  1  0  0  0  0
  1  6  1  0  0  0  0
  2  1  1  0  0  0  0
  3  2  1  0  0  0  0
  3 10  1  0  0  0  0
  3  4  1  0  0  0  0
  4 12  1  0  0  0  0
  4  5  1  0  0  0  0
  5 15  1  0  0  0  0
  5  6  1  0  0  0  0
  5 14  1  0  0  0  0
  6 16  1  6  0  0  0
  6 33  1  0  0  0  0
  8  2  1  0  0  0  0
  9  2  1  0  0  0  0
 11  3  1  0  0  0  0
 13  4  1  0  0  0  0
 17 28  1  0  0  0  0
 17 18  2  0  0  0  0
 18 22  1  0  0  0  0
 19 18  1  0  0  0  0
 19 23  1  0  0  0  0
 20 19  2  0  0  0  0
 21 20  1  0  0  0  0
 21 17  1  0  0  0  0
 24 25  1  0  0  0  0
 25 31  1  0  0  0  0
 25 26  2  0  0  0  0
 26 32  1  0  0  0  0
 27 26  1  0  0  0  0
 28 27  2  0  0  0  0
 29 24  2  0  0  0  0
 29 28  1  0  0  0  0
 30 24  1  0  0  0  0
 33 34  1  0  0  0  0
M  END
>  <minimizedAffinity>
-4.6463666

$$$$

 OpenBabel03252509183D

 34 36  0  0  1  0  0  0  0  0999 V2000
   38.3200   31.3140   39.9990 C   0  0  1  0  0  0  0  0  0  0  0  0
   37.3670   32.2290   39.3130 C   0  0  0  0  0  0  0  0  0  0  0  0
   37.4350   33.6580   39.7490 C   0  0  0  0  0  0  0  0  0  0  0  0
   38.8530   34.1610   39.9220 C   0  0  0  0  0  0  0  0  0  0  0  0
   39.7450   33.1820   40.6260 C   0  0  0  0  0  0  0  0  0  0  0  0
   38.8940   32.0580   41.2250 C   0  0  2  0  0  0  0  0  0  0  0  0
   39.2060   31.1620   39.3350 H   0  0  0  0  0  0  0  0  0  0  0  0
   36.3130   31.8830   39.5190 H   0  0  0  0  0  0  0  0  0  0  0  0
   37.4540   32.1840   38.2020 H   0  0  0  0  0  0  0  0  0  0  0  0
   36.8230   33.8050   40.6430 H   0  0  0  0  0  0  0  0  0  0  0  0
   37.0000   34.2770   38.9290 H   0  0  0  0  0  0  0  0  0  0  0  0
   38.7830   35.1350   40.4490 H   0  0  0  0  0  0  0  0  0  0  0  0
   39.2950   34.3550   38.9120 H   0  0  0  0  0  0  0  0  0  0  0  0
   40.1760   33.7010   41.5270 H   0  0  0  0  0  0  0  0  0  0  0  0
   40.5540   32.7700   39.9940 H   0  0  0  0  0  0  0  0  0  0  0  0
   38.0950   32.5590   41.7870 H   0  0  0  0  0  0  0  0  0  0  0  0
   37.4060   27.3610   40.5240 C   0  0  0  0  0  0  0  0  0  0  0  0
   36.4850   28.2050   41.1630 C   0  0  0  0  0  0  0  0  0  0  0  0
   36.6820   29.5400   41.0550 C   0  0  0  0  0  0  0  0  0  0  0  0
   37.7770   30.0370   40.3210 C   0  0  0  0  0  0  0  0  0  0  0  0
   38.5890   28.5190   39.7420 S   0  0  0  0  0  0  0  0  0  0  0  0
   35.6450   27.8300   41.7280 H   0  0  0  0  0  0  0  0  0  0  0  0
   36.1000   30.3380   41.4640 H   0  0  0  0  0  0  0  0  0  0  0  0
   36.5090   23.7740   40.0810 C   0  0  0  0  0  0  0  0  0  0  0  0
   37.5150   23.1800   40.8610 C   0  0  0  0  0  0  0  0  0  0  0  0
   38.4440   24.0170   41.4940 C   0  0  0  0  0  0  0  0  0  0  0  0
   38.3310   25.3700   41.3250 N   0  0  0  0  0  0  0  0  0  0  0  0
   37.3310   25.8950   40.5540 C   0  0  0  0  0  0  0  0  0  0  0  0
   36.4340   25.0950   39.9430 N   0  0  0  0  0  0  0  0  0  0  0  0
   35.7670   23.1610   39.5720 H   0  0  0  0  0  0  0  0  0  0  0  0
   37.5420   22.1030   40.9490 H   0  0  0  0  0  0  0  0  0  0  0  0
   39.2210   23.5850   42.0950 H   0  0  0  0  0  0  0  0  0  0  0  0
   39.6790   31.1550   42.1130 C   0  0  0  0  0  2  0  0  0  0  0  0
   40.6910   30.9620   41.7470 H   0  0  0  0  0  0  0  0  0  0  0  0
  1  7  1  6  0  0  0
  1 20  1  0  0  0  0
  1  6  1  0  0  0  0
  2  8  1  0  0  0  0
  2  3  1  0  0  0  0
  2  1  1  0  0  0  0
  3  4  1  0  0  0  0
  3 10  1  0  0  0  0
  4 12  1  0  0  0  0
  4  5  1  0  0  0  0
  5  6  1  0  0  0  0
  5 14  1  0  0  0  0
  6 16  1  1  0  0  0
  6 33  1  0  0  0  0
  9  2  1  0  0  0  0
 11  3  1  0  0  0  0
 13  4  1  0  0  0  0
 15  5  1  0  0  0  0
 17 28  1  0  0  0  0
 17 18  2  0  0  0  0
 18 22  1  0  0  0  0
 19 18  1  0  0  0  0
 19 23  1  0  0  0  0
 20 19  2  0  0  0  0
 21 20  1  0  0  0  0
 21 17  1  0  0  0  0
 24 25  1  0  0  0  0
 25 31  1  0  0  0  0
 25 26  2  0  0  0  0
 26 32  1  0  0  0  0
 27 26  1  0  0  0  0
 28 27  2  0  0  0  0
 29 24  2  0  0  0  0
 29 28  1  0  0  0  0
 30 24  1  0  0  0  0
 34 33  1  0  0  0  0
M  END
>  <minimizedAffinity>
-4.59438181

$$$$

 OpenBabel03252509183D

 34 36  0  0  1  0  0  0  0  0999 V2000
   38.9660   26.9040   41.8950 C   0  0  1  0  0  0  0  0  0  0  0  0
   39.5950   25.5760   41.6570 C   0  0  0  0  0  0  0  0  0  0  0  0
   38.8950   24.4190   42.2950 C   0  0  0  0  0  0  0  0  0  0  0  0
   37.3880   24.4890   42.1650 C   0  0  0  0  0  0  0  0  0  0  0  0
   36.8360   25.8590   42.4260 C   0  0  0  0  0  0  0  0  0  0  0  0
   37.9320   26.7420   43.0310 C   0  0  2  0  0  0  0  0  0  0  0  0
   38.3500   27.1700   41.0020 H   0  0  0  0  0  0  0  0  0  0  0  0
   40.6420   25.5850   42.0760 H   0  0  0  0  0  0  0  0  0  0  0  0
   39.7400   25.3590   40.5720 H   0  0  0  0  0  0  0  0  0  0  0  0
   39.2240   24.3090   43.3320 H   0  0  0  0  0  0  0  0  0  0  0  0
   39.1970   23.5000   41.7400 H   0  0  0  0  0  0  0  0  0  0  0  0
   36.9730   23.7200   42.8500 H   0  0  0  0  0  0  0  0  0  0  0  0
   37.1000   24.2020   41.1220 H   0  0  0  0  0  0  0  0  0  0  0  0
   36.0780   25.7680   43.2530 H   0  0  0  0  0  0  0  0  0  0  0  0
   36.3840   26.3420   41.5390 H   0  0  0  0  0  0  0  0  0  0  0  0
   38.3520   26.1640   43.8630 H   0  0  0  0  0  0  0  0  0  0  0  0
   41.2170   30.3190   41.9860 C   0  0  0  0  0  0  0  0  0  0  0  0
   41.6350   29.3850   42.9480 C   0  0  0  0  0  0  0  0  0  0  0  0
   40.9660   28.2110   43.0090 C   0  0  0  0  0  0  0  0  0  0  0  0
   39.8950   27.9580   42.1290 C   0  0  0  0  0  0  0  0  0  0  0  0
   39.8230   29.4830   41.1440 S   0  0  0  0  0  0  0  0  0  0  0  0
   42.4550   29.5730   43.6250 H   0  0  0  0  0  0  0  0  0  0  0  0
   41.1280   27.3800   43.6630 H   0  0  0  0  0  0  0  0  0  0  0  0
   43.3360   33.3770   42.1540 C   0  0  0  0  0  0  0  0  0  0  0  0
   42.6970   34.1610   41.1790 C   0  0  0  0  0  0  0  0  0  0  0  0
   41.5880   33.6200   40.5140 C   0  0  0  0  0  0  0  0  0  0  0  0
   41.1780   32.3570   40.8420 N   0  0  0  0  0  0  0  0  0  0  0  0
   41.8370   31.6370   41.8000 C   0  0  0  0  0  0  0  0  0  0  0  0
   42.9040   32.1520   42.4440 N   0  0  0  0  0  0  0  0  0  0  0  0
   44.2010   33.7590   42.6940 H   0  0  0  0  0  0  0  0  0  0  0  0
   43.0780   35.1510   40.9720 H   0  0  0  0  0  0  0  0  0  0  0  0
   41.0850   34.2010   39.7660 H   0  0  0  0  0  0  0  0  0  0  0  0
   37.4120   28.0550   43.5080 C   0  0  0  0  0  2  0  0  0  0  0  0
   36.6420   28.4780   42.8570 H   0  0  0  0  0  0  0  0  0  0  0  0
  1  7  1  6  0  0  0
  1 20  1  0  0  0  0
  1  6  1  0  0  0  0
  2  1  1  0  0  0  0
  2  8  1  0  0  0  0
  2  3  1  0  0  0  0
  3 10  1  0  0  0  0
  4  3  1  0  0  0  0
  4  5  1  0  0  0  0
  4 12  1  0  0  0  0
  5  6  1  0  0  0  0
  5 14  1  0  0  0  0
  6 33  1  0  0  0  0
  6 16  1  1  0  0  0
  9  2  1  0  0  0  0
 11  3  1  0  0  0  0
 13  4  1  0  0  0  0
 15  5  1  0  0  0  0
 17 18  2  0  0  0  0
 18 19  1  0  0  0  0
 18 22  1  0  0  0  0
 19 23  1  0  0  0  0
 20 19  2  0  0  0  0
 21 17  1  0  0  0  0
 21 20  1  0  0  0  0
 24 29  1  0  0  0  0
 24 30  1  0  0  0  0
 25 24  2  0  0  0  0
 26 27  2  0  0  0  0
 26 25  1  0  0  0  0
 27 28  1  0  0  0  0
 28 17  1  0  0  0  0
 28 29  2  0  0  0  0
 31 25  1  0  0  0  0
 32 26  1  0  0  0  0
 34 33  1  0  0  0  0
M  END
>  <minimizedAffinity>
-4.54754591

$$$$

 OpenBabel03252509183D

 34 36  0  0  1  0  0  0  0  0999 V2000
   36.9810   24.8660   40.7440 C   0  0  1  0  0  0  0  0  0  0  0  0
   36.1010   24.5400   39.5890 C   0  0  0  0  0  0  0  0  0  0  0  0
   36.5960   23.4420   38.7040 C   0  0  0  0  0  0  0  0  0  0  0  0
   37.1680   22.2690   39.4730 C   0  0  0  0  0  0  0  0  0  0  0  0
   38.0480   22.6850   40.6150 C   0  0  0  0  0  0  0  0  0  0  0  0
   38.3470   24.1830   40.5070 C   0  0  2  0  0  0  0  0  0  0  0  0
   36.5780   24.3580   41.6530 H   0  0  0  0  0  0  0  0  0  0  0  0
   35.9980   25.4540   38.9360 H   0  0  0  0  0  0  0  0  0  0  0  0
   35.0540   24.3120   39.9010 H   0  0  0  0  0  0  0  0  0  0  0  0
   37.2950   23.8430   37.9650 H   0  0  0  0  0  0  0  0  0  0  0  0
   35.7150   23.0330   38.1560 H   0  0  0  0  0  0  0  0  0  0  0  0
   37.6960   21.6310   38.7340 H   0  0  0  0  0  0  0  0  0  0  0  0
   36.3250   21.6670   39.8980 H   0  0  0  0  0  0  0  0  0  0  0  0
   39.0520   22.2000   40.4640 H   0  0  0  0  0  0  0  0  0  0  0  0
   37.6430   22.4350   41.6130 H   0  0  0  0  0  0  0  0  0  0  0  0
   38.6900   24.3430   39.4770 H   0  0  0  0  0  0  0  0  0  0  0  0
   37.4490   28.9300   40.7380 C   0  0  0  0  0  0  0  0  0  0  0  0
   37.1120   28.4400   42.0090 C   0  0  0  0  0  0  0  0  0  0  0  0
   36.9360   27.1040   42.1360 C   0  0  0  0  0  0  0  0  0  0  0  0
   37.0920   26.2600   41.0200 C   0  0  0  0  0  0  0  0  0  0  0  0
   37.5170   27.4280   39.6940 S   0  0  0  0  0  0  0  0  0  0  0  0
   36.9900   29.0820   42.8690 H   0  0  0  0  0  0  0  0  0  0  0  0
   36.6800   26.5420   43.0090 H   0  0  0  0  0  0  0  0  0  0  0  0
   38.4490   32.5180   40.7470 C   0  0  0  0  0  0  0  0  0  0  0  0
   37.8380   32.9370   39.5530 C   0  0  0  0  0  0  0  0  0  0  0  0
   37.1230   31.9910   38.8070 C   0  0  0  0  0  0  0  0  0  0  0  0
   37.0510   30.7060   39.2710 N   0  0  0  0  0  0  0  0  0  0  0  0
   37.6660   30.3520   40.4400 C   0  0  0  0  0  0  0  0  0  0  0  0
   38.3550   31.2570   41.1630 N   0  0  0  0  0  0  0  0  0  0  0  0
   39.0150   33.2200   41.3570 H   0  0  0  0  0  0  0  0  0  0  0  0
   37.9370   33.9690   39.2490 H   0  0  0  0  0  0  0  0  0  0  0  0
   36.6480   32.2890   37.8920 H   0  0  0  0  0  0  0  0  0  0  0  0
   39.3770   24.6350   41.4840 C   0  0  0  0  0  2  0  0  0  0  0  0
   39.2930   24.1450   42.4580 H   0  0  0  0  0  0  0  0  0  0  0  0
  1 20  1  0  0  0  0
  1  7  1  1  0  0  0
  2  9  1  0  0  0  0
  2  1  1  0  0  0  0
  3  4  1  0  0  0  0
  3  2  1  0  0  0  0
  4 13  1  0  0  0  0
  4  5  1  0  0  0  0
  5 15  1  0  0  0  0
  6 16  1  6  0  0  0
  6  5  1  0  0  0  0
  6  1  1  0  0  0  0
  6 33  1  0  0  0  0
  8  2  1  0  0  0  0
 10  3  1  0  0  0  0
 11  3  1  0  0  0  0
 12  4  1  0  0  0  0
 14  5  1  0  0  0  0
 17 18  2  0  0  0  0
 18 19  1  0  0  0  0
 18 22  1  0  0  0  0
 19 23  1  0  0  0  0
 20 19  2  0  0  0  0
 21 17  1  0  0  0  0
 21 20  1  0  0  0  0
 24 29  1  0  0  0  0
 24 30  1  0  0  0  0
 25 24  2  0  0  0  0
 26 27  2  0  0  0  0
 26 25  1  0  0  0  0
 27 28  1  0  0  0  0
 28 17  1  0  0  0  0
 28 29  2  0  0  0  0
 31 25  1  0  0  0  0
 32 26  1  0  0  0  0
 33 34  1  0  0  0  0
M  END
>  <minimizedAffinity>
-4.52378035

$$$$
