
 OpenBabel03252506293D

 40 43  0  0  0  0  0  0  0  0999 V2000
   37.8420   31.1140   39.4020 C   0  0  0  0  0  0  0  0  0  0  0  0
   37.3240   30.9580   38.4250 H   0  0  0  0  0  0  0  0  0  0  0  0
   38.9230   31.1890   39.1330 H   0  0  0  0  0  0  0  0  0  0  0  0
   37.3850   28.6250   39.8350 C   0  0  0  0  0  0  0  0  0  0  0  0
   37.5810   29.9400   40.2200 C   0  0  0  0  0  0  0  0  0  0  0  0
   37.5210   30.1830   41.5820 C   0  0  0  0  0  0  0  0  0  0  0  0
   37.2850   29.1900   42.4890 C   0  0  0  0  0  0  0  0  0  0  0  0
   37.1760   29.1360   43.8330 N   0  0  0  0  0  0  0  0  0  0  0  0
   36.9310   27.8900   44.2580 C   0  0  0  0  0  0  0  0  0  0  0  0
   36.8700   27.0560   43.1530 C   0  0  0  0  0  0  0  0  0  0  0  0
   37.0930   27.8960   42.0920 C   0  0  0  0  0  0  0  0  0  0  0  0
   37.1480   27.6350   40.7460 C   0  0  0  0  0  0  0  0  0  0  0  0
   37.4400   28.4770   38.7470 H   0  0  0  0  0  0  0  0  0  0  0  0
   37.6580   31.1710   42.0210 H   0  0  0  0  0  0  0  0  0  0  0  0
   37.2730   29.9790   44.4570 H   0  0  0  0  0  0  0  0  0  0  0  0
   36.8100   27.6370   45.3110 H   0  0  0  0  0  0  0  0  0  0  0  0
   36.6840   25.9900   43.2040 H   0  0  0  0  0  0  0  0  0  0  0  0
   36.9510   26.2760   40.2610 C   0  0  0  0  0  0  0  0  0  0  0  0
   36.1730   26.0250   39.3100 O   0  0  0  0  0  0  0  0  0  0  0  0
   37.4320   25.4040   40.6540 H   0  0  0  0  0  0  0  0  0  0  0  0
   37.4060   32.4270   39.9490 C   0  0  0  0  0  0  0  0  0  0  0  0
   36.8870   32.3250   40.9040 H   0  0  0  0  0  0  0  0  0  0  0  0
   36.7000   32.8680   39.2060 H   0  0  0  0  0  0  0  0  0  0  0  0
   40.6150   33.9780   40.2690 C   0  0  0  0  0  0  0  0  0  0  0  0
   39.7480   35.0990   40.2600 C   0  0  0  0  0  0  0  0  0  0  0  0
   38.4750   34.6590   40.1430 C   0  0  0  0  0  0  0  0  0  0  0  0
   38.5440   33.3200   40.0800 N   0  0  0  0  0  0  0  0  0  0  0  0
   39.8140   32.9190   40.1550 N   0  0  0  0  0  0  0  0  0  0  0  0
   40.0620   36.1320   40.3370 H   0  0  0  0  0  0  0  0  0  0  0  0
   37.5720   35.2360   40.1040 H   0  0  0  0  0  0  0  0  0  0  0  0
   44.1460   33.8020   39.3890 C   0  0  0  0  0  0  0  0  0  0  0  0
   44.7950   34.2400   40.5500 C   0  0  0  0  0  0  0  0  0  0  0  0
   43.9860   34.5950   41.6300 C   0  0  0  0  0  0  0  0  0  0  0  0
   42.6540   34.4890   41.4810 N   0  0  0  0  0  0  0  0  0  0  0  0
   42.0470   34.0740   40.3810 C   0  0  0  0  0  0  0  0  0  0  0  0
   42.8130   33.7270   39.3280 N   0  0  0  0  0  0  0  0  0  0  0  0
   44.7660   33.5190   38.5300 H   0  0  0  0  0  0  0  0  0  0  0  0
   45.8680   34.3160   40.6460 H   0  0  0  0  0  0  0  0  0  0  0  0
   44.5410   35.0710   42.9070 C   0  0  0  0  0  2  0  0  0  0  0  0
   45.6430   35.1510   42.8020 H   0  0  0  0  0  0  0  0  0  0  0  0
  1 21  1  0  0  0  0
  1  5  1  0  0  0  0
  2  1  1  0  0  0  0
  3  1  1  0  0  0  0
  4  5  2  0  0  0  0
  4 12  1  0  0  0  0
  5  6  1  0  0  0  0
  6 14  1  0  0  0  0
  6  7  2  0  0  0  0
  7  8  1  0  0  0  0
  8  9  1  0  0  0  0
  8 15  1  0  0  0  0
  9 16  1  0  0  0  0
 10 17  1  0  0  0  0
 10  9  2  0  0  0  0
 11  7  1  0  0  0  0
 11 10  1  0  0  0  0
 12 11  2  0  0  0  0
 13  4  1  0  0  0  0
 18 20  1  0  0  0  0
 18 12  1  0  0  0  0
 19 18  2  0  0  0  0
 21 27  1  0  0  0  0
 21 22  1  0  0  0  0
 23 21  1  0  0  0  0
 24 35  1  0  0  0  0
 25 24  1  0  0  0  0
 25 29  1  0  0  0  0
 26 25  2  0  0  0  0
 27 26  1  0  0  0  0
 27 28  1  0  0  0  0
 28 24  2  0  0  0  0
 30 26  1  0  0  0  0
 31 32  1  0  0  0  0
 32 38  1  0  0  0  0
 32 33  2  0  0  0  0
 33 39  1  0  0  0  0
 34 33  1  0  0  0  0
 35 34  2  0  0  0  0
 36 31  2  0  0  0  0
 36 35  1  0  0  0  0
 37 31  1  0  0  0  0
 40 39  1  0  0  0  0
M  END
>  <minimizedAffinity>
-6.29890728

$$$$

 OpenBabel03252506293D

 40 43  0  0  0  0  0  0  0  0999 V2000
   35.0350   29.1410   38.6920 C   0  0  0  0  0  0  0  0  0  0  0  0
   34.6990   30.1080   39.1360 H   0  0  0  0  0  0  0  0  0  0  0  0
   34.0890   28.6230   38.4090 H   0  0  0  0  0  0  0  0  0  0  0  0
   36.2750   27.1350   39.7090 C   0  0  0  0  0  0  0  0  0  0  0  0
   35.7460   28.4150   39.7320 C   0  0  0  0  0  0  0  0  0  0  0  0
   35.9140   29.1130   40.9170 C   0  0  0  0  0  0  0  0  0  0  0  0
   36.5600   28.5740   41.9940 C   0  0  0  0  0  0  0  0  0  0  0  0
   36.8610   29.0090   43.2350 N   0  0  0  0  0  0  0  0  0  0  0  0
   37.5240   28.0780   43.9350 C   0  0  0  0  0  0  0  0  0  0  0  0
   37.6820   26.9590   43.1330 C   0  0  0  0  0  0  0  0  0  0  0  0
   37.0760   27.3090   41.9540 C   0  0  0  0  0  0  0  0  0  0  0  0
   36.9190   26.6020   40.7880 C   0  0  0  0  0  0  0  0  0  0  0  0
   36.1190   26.6180   38.7510 H   0  0  0  0  0  0  0  0  0  0  0  0
   35.5480   30.1270   41.0720 H   0  0  0  0  0  0  0  0  0  0  0  0
   36.6000   29.9630   43.5960 H   0  0  0  0  0  0  0  0  0  0  0  0
   37.8580   28.2360   44.9600 H   0  0  0  0  0  0  0  0  0  0  0  0
   38.1850   26.0530   43.4460 H   0  0  0  0  0  0  0  0  0  0  0  0
   37.4470   25.2490   40.6840 C   0  0  0  0  0  0  0  0  0  0  0  0
   36.7010   24.2440   40.7780 O   0  0  0  0  0  0  0  0  0  0  0  0
   38.4750   24.9960   40.5240 H   0  0  0  0  0  0  0  0  0  0  0  0
   35.7910   29.4450   37.4460 C   0  0  0  0  0  0  0  0  0  0  0  0
   35.2000   30.0220   36.7340 H   0  0  0  0  0  0  0  0  0  0  0  0
   36.0520   28.4640   36.9810 H   0  0  0  0  0  0  0  0  0  0  0  0
   38.3650   31.6800   38.5350 C   0  0  0  0  0  0  0  0  0  0  0  0
   39.1160   30.6360   37.9390 C   0  0  0  0  0  0  0  0  0  0  0  0
   38.2600   29.6990   37.4730 C   0  0  0  0  0  0  0  0  0  0  0  0
   37.0270   30.1390   37.7650 N   0  0  0  0  0  0  0  0  0  0  0  0
   37.0920   31.3130   38.3940 N   0  0  0  0  0  0  0  0  0  0  0  0
   40.1970   30.6030   37.8730 H   0  0  0  0  0  0  0  0  0  0  0  0
   38.4880   28.7810   36.9690 H   0  0  0  0  0  0  0  0  0  0  0  0
   38.6710   34.8030   40.3860 C   0  0  0  0  0  0  0  0  0  0  0  0
   40.0370   35.0980   40.3070 C   0  0  0  0  0  0  0  0  0  0  0  0
   40.8380   34.1970   39.6060 C   0  0  0  0  0  0  0  0  0  0  0  0
   40.2460   33.1200   39.0590 N   0  0  0  0  0  0  0  0  0  0  0  0
   38.9540   32.8470   39.1370 C   0  0  0  0  0  0  0  0  0  0  0  0
   38.1650   33.7070   39.8110 N   0  0  0  0  0  0  0  0  0  0  0  0
   38.0250   35.5000   40.9340 H   0  0  0  0  0  0  0  0  0  0  0  0
   40.4900   35.9700   40.7540 H   0  0  0  0  0  0  0  0  0  0  0  0
   42.2890   34.3890   39.4480 C   0  0  0  0  0  2  0  0  0  0  0  0
   42.5870   35.2890   40.0250 H   0  0  0  0  0  0  0  0  0  0  0  0
  1  2  1  0  0  0  0
  1  5  1  0  0  0  0
  3  1  1  0  0  0  0
  4  5  2  0  0  0  0
  4 12  1  0  0  0  0
  5  6  1  0  0  0  0
  6 14  1  0  0  0  0
  6  7  2  0  0  0  0
  7  8  1  0  0  0  0
  8 15  1  0  0  0  0
  8  9  1  0  0  0  0
  9 16  1  0  0  0  0
 10 17  1  0  0  0  0
 10  9  2  0  0  0  0
 11  7  1  0  0  0  0
 11 10  1  0  0  0  0
 12 11  2  0  0  0  0
 13  4  1  0  0  0  0
 18 19  2  0  0  0  0
 18 12  1  0  0  0  0
 20 18  1  0  0  0  0
 21 27  1  0  0  0  0
 21  1  1  0  0  0  0
 22 21  1  0  0  0  0
 23 21  1  0  0  0  0
 24 35  1  0  0  0  0
 25 24  1  0  0  0  0
 26 27  1  0  0  0  0
 26 25  2  0  0  0  0
 27 28  1  0  0  0  0
 28 24  2  0  0  0  0
 29 25  1  0  0  0  0
 30 26  1  0  0  0  0
 31 37  1  0  0  0  0
 32 31  1  0  0  0  0
 32 38  1  0  0  0  0
 33 32  2  0  0  0  0
 34 35  2  0  0  0  0
 34 33  1  0  0  0  0
 35 36  1  0  0  0  0
 36 31  2  0  0  0  0
 39 33  1  0  0  0  0
 39 40  1  0  0  0  0
M  END
>  <minimizedAffinity>
-6.26481581

$$$$

 OpenBabel03252506293D

 40 43  0  0  0  0  0  0  0  0999 V2000
   37.0550   31.3230   39.2630 C   0  0  0  0  0  0  0  0  0  0  0  0
   36.1300   31.3590   38.6410 H   0  0  0  0  0  0  0  0  0  0  0  0
   37.8870   31.2810   38.5210 H   0  0  0  0  0  0  0  0  0  0  0  0
   36.8240   28.7940   39.6450 C   0  0  0  0  0  0  0  0  0  0  0  0
   36.9930   30.1050   40.0570 C   0  0  0  0  0  0  0  0  0  0  0  0
   37.1210   30.2950   41.4220 C   0  0  0  0  0  0  0  0  0  0  0  0
   37.0840   29.2550   42.3080 C   0  0  0  0  0  0  0  0  0  0  0  0
   37.1800   29.1470   43.6500 N   0  0  0  0  0  0  0  0  0  0  0  0
   37.0800   27.8720   44.0490 C   0  0  0  0  0  0  0  0  0  0  0  0
   36.9080   27.0760   42.9280 C   0  0  0  0  0  0  0  0  0  0  0  0
   36.9170   27.9660   41.8850 C   0  0  0  0  0  0  0  0  0  0  0  0
   36.7880   27.7590   40.5350 C   0  0  0  0  0  0  0  0  0  0  0  0
   36.7270   28.6900   38.5550 H   0  0  0  0  0  0  0  0  0  0  0  0
   37.2590   31.2740   41.8820 H   0  0  0  0  0  0  0  0  0  0  0  0
   37.3160   29.9710   44.2910 H   0  0  0  0  0  0  0  0  0  0  0  0
   37.1330   27.5740   45.0960 H   0  0  0  0  0  0  0  0  0  0  0  0
   36.7990   25.9990   42.9570 H   0  0  0  0  0  0  0  0  0  0  0  0
   36.6070   26.4080   40.0220 C   0  0  0  0  0  0  0  0  0  0  0  0
   36.2850   26.1960   38.8280 O   0  0  0  0  0  0  0  0  0  0  0  0
   36.7270   25.5090   40.5920 H   0  0  0  0  0  0  0  0  0  0  0  0
   37.1590   32.6070   40.0080 C   0  0  0  0  0  0  0  0  0  0  0  0
   36.9540   32.4850   41.0730 H   0  0  0  0  0  0  0  0  0  0  0  0
   36.3940   33.2940   39.5750 H   0  0  0  0  0  0  0  0  0  0  0  0
   40.5360   33.4140   39.1430 C   0  0  0  0  0  0  0  0  0  0  0  0
   40.1280   34.5760   39.8440 C   0  0  0  0  0  0  0  0  0  0  0  0
   38.8460   34.4120   40.2420 C   0  0  0  0  0  0  0  0  0  0  0  0
   38.4690   33.2010   39.8060 N   0  0  0  0  0  0  0  0  0  0  0  0
   39.4730   32.6110   39.1550 N   0  0  0  0  0  0  0  0  0  0  0  0
   40.7480   35.4450   40.0280 H   0  0  0  0  0  0  0  0  0  0  0  0
   38.2280   35.0940   40.7930 H   0  0  0  0  0  0  0  0  0  0  0  0
   44.0540   33.9900   38.3910 C   0  0  0  0  0  0  0  0  0  0  0  0
   44.3760   32.9500   37.5110 C   0  0  0  0  0  0  0  0  0  0  0  0
   43.3540   32.0560   37.1910 C   0  0  0  0  0  0  0  0  0  0  0  0
   42.1450   32.2560   37.7440 N   0  0  0  0  0  0  0  0  0  0  0  0
   41.8480   33.2410   38.5750 C   0  0  0  0  0  0  0  0  0  0  0  0
   42.8230   34.1150   38.8950 N   0  0  0  0  0  0  0  0  0  0  0  0
   44.8450   34.7040   38.6540 H   0  0  0  0  0  0  0  0  0  0  0  0
   45.3550   32.8100   37.0790 H   0  0  0  0  0  0  0  0  0  0  0  0
   43.5590   30.9190   36.2780 C   0  0  0  0  0  2  0  0  0  0  0  0
   44.6300   30.8910   35.9890 H   0  0  0  0  0  0  0  0  0  0  0  0
  1 21  1  0  0  0  0
  1  5  1  0  0  0  0
  2  1  1  0  0  0  0
  3  1  1  0  0  0  0
  4  5  2  0  0  0  0
  4 12  1  0  0  0  0
  5  6  1  0  0  0  0
  6 14  1  0  0  0  0
  6  7  2  0  0  0  0
  7  8  1  0  0  0  0
  8  9  1  0  0  0  0
  8 15  1  0  0  0  0
  9 16  1  0  0  0  0
 10 17  1  0  0  0  0
 10  9  2  0  0  0  0
 11  7  1  0  0  0  0
 11 10  1  0  0  0  0
 12 11  2  0  0  0  0
 13  4  1  0  0  0  0
 18 12  1  0  0  0  0
 18 20  1  0  0  0  0
 19 18  2  0  0  0  0
 21 22  1  0  0  0  0
 23 21  1  0  0  0  0
 24 28  2  0  0  0  0
 24 25  1  0  0  0  0
 25 29  1  0  0  0  0
 25 26  2  0  0  0  0
 26 30  1  0  0  0  0
 27 21  1  0  0  0  0
 27 26  1  0  0  0  0
 28 27  1  0  0  0  0
 31 37  1  0  0  0  0
 31 36  1  0  0  0  0
 32 31  2  0  0  0  0
 33 32  1  0  0  0  0
 33 34  2  0  0  0  0
 34 35  1  0  0  0  0
 35 36  2  0  0  0  0
 35 24  1  0  0  0  0
 38 32  1  0  0  0  0
 39 33  1  0  0  0  0
 40 39  1  0  0  0  0
M  END
>  <minimizedAffinity>
-6.19293737

$$$$

 OpenBabel03252506293D

 40 43  0  0  0  0  0  0  0  0999 V2000
   37.8130   33.6530   39.8910 C   0  0  0  0  0  0  0  0  0  0  0  0
   37.0020   34.1510   40.4740 H   0  0  0  0  0  0  0  0  0  0  0  0
   37.9820   34.3280   39.0190 H   0  0  0  0  0  0  0  0  0  0  0  0
   36.5800   31.4190   40.1830 C   0  0  0  0  0  0  0  0  0  0  0  0
   37.3040   32.3580   39.4680 C   0  0  0  0  0  0  0  0  0  0  0  0
   37.5910   32.0230   38.1550 C   0  0  0  0  0  0  0  0  0  0  0  0
   37.1850   30.8420   37.6000 C   0  0  0  0  0  0  0  0  0  0  0  0
   37.3160   30.2690   36.3850 N   0  0  0  0  0  0  0  0  0  0  0  0
   36.7230   29.0680   36.3410 C   0  0  0  0  0  0  0  0  0  0  0  0
   36.1630   28.8120   37.5820 C   0  0  0  0  0  0  0  0  0  0  0  0
   36.4710   29.9260   38.3200 C   0  0  0  0  0  0  0  0  0  0  0  0
   36.1770   30.2410   39.6240 C   0  0  0  0  0  0  0  0  0  0  0  0
   36.3760   31.7260   41.2190 H   0  0  0  0  0  0  0  0  0  0  0  0
   38.1520   32.6690   37.4800 H   0  0  0  0  0  0  0  0  0  0  0  0
   37.8240   30.7220   35.5810 H   0  0  0  0  0  0  0  0  0  0  0  0
   36.7170   28.4440   35.4470 H   0  0  0  0  0  0  0  0  0  0  0  0
   35.6190   27.9090   37.8290 H   0  0  0  0  0  0  0  0  0  0  0  0
   35.4200   29.3050   40.4430 C   0  0  0  0  0  0  0  0  0  0  0  0
   35.9760   28.5970   41.3160 O   0  0  0  0  0  0  0  0  0  0  0  0
   34.3640   29.1420   40.3790 H   0  0  0  0  0  0  0  0  0  0  0  0
   39.0460   33.6520   40.7250 C   0  0  0  0  0  0  0  0  0  0  0  0
   39.1370   32.7450   41.3260 H   0  0  0  0  0  0  0  0  0  0  0  0
   38.9710   34.5280   41.4120 H   0  0  0  0  0  0  0  0  0  0  0  0
   41.9310   33.3250   38.6340 C   0  0  0  0  0  0  0  0  0  0  0  0
   41.8260   34.7310   38.7710 C   0  0  0  0  0  0  0  0  0  0  0  0
   40.7590   35.0110   39.5520 C   0  0  0  0  0  0  0  0  0  0  0  0
   40.2190   33.8300   39.8880 N   0  0  0  0  0  0  0  0  0  0  0  0
   40.9160   32.8320   39.3430 N   0  0  0  0  0  0  0  0  0  0  0  0
   42.4960   35.4540   38.3210 H   0  0  0  0  0  0  0  0  0  0  0  0
   40.3920   35.9710   39.8590 H   0  0  0  0  0  0  0  0  0  0  0  0
   45.2080   32.5360   37.2520 C   0  0  0  0  0  0  0  0  0  0  0  0
   44.9550   31.4450   36.4110 C   0  0  0  0  0  0  0  0  0  0  0  0
   43.6360   30.9960   36.3400 C   0  0  0  0  0  0  0  0  0  0  0  0
   42.7110   31.6380   37.0740 N   0  0  0  0  0  0  0  0  0  0  0  0
   42.9560   32.6690   37.8650 C   0  0  0  0  0  0  0  0  0  0  0  0
   44.2250   33.1160   37.9470 N   0  0  0  0  0  0  0  0  0  0  0  0
   46.2390   32.9030   37.3210 H   0  0  0  0  0  0  0  0  0  0  0  0
   45.7150   30.9450   35.8310 H   0  0  0  0  0  0  0  0  0  0  0  0
   43.2350   29.8590   35.4950 C   0  0  0  0  0  2  0  0  0  0  0  0
   44.1480   29.4300   35.0300 H   0  0  0  0  0  0  0  0  0  0  0  0
  1  2  1  0  0  0  0
  1 21  1  0  0  0  0
  3  1  1  0  0  0  0
  4 13  1  0  0  0  0
  5  1  1  0  0  0  0
  5  4  2  0  0  0  0
  6  5  1  0  0  0  0
  7  6  2  0  0  0  0
  7 11  1  0  0  0  0
  8  7  1  0  0  0  0
  9  8  1  0  0  0  0
  9 10  2  0  0  0  0
 10 17  1  0  0  0  0
 10 11  1  0  0  0  0
 11 12  2  0  0  0  0
 12  4  1  0  0  0  0
 12 18  1  0  0  0  0
 14  6  1  0  0  0  0
 15  8  1  0  0  0  0
 16  9  1  0  0  0  0
 18 19  2  0  0  0  0
 20 18  1  0  0  0  0
 21 22  1  0  0  0  0
 21 23  1  0  0  0  0
 24 25  1  0  0  0  0
 24 28  2  0  0  0  0
 25 26  2  0  0  0  0
 26 30  1  0  0  0  0
 26 27  1  0  0  0  0
 27 21  1  0  0  0  0
 28 27  1  0  0  0  0
 29 25  1  0  0  0  0
 31 37  1  0  0  0  0
 31 36  1  0  0  0  0
 32 31  2  0  0  0  0
 33 32  1  0  0  0  0
 33 34  2  0  0  0  0
 34 35  1  0  0  0  0
 35 36  2  0  0  0  0
 35 24  1  0  0  0  0
 38 32  1  0  0  0  0
 39 33  1  0  0  0  0
 40 39  1  0  0  0  0
M  END
>  <minimizedAffinity>
-6.02702618

$$$$

 OpenBabel03252506293D

 40 43  0  0  0  0  0  0  0  0999 V2000
   36.1620   28.8790   41.4680 C   0  0  0  0  0  0  0  0  0  0  0  0
   36.5960   29.8520   41.7990 H   0  0  0  0  0  0  0  0  0  0  0  0
   35.1830   28.8170   42.0000 H   0  0  0  0  0  0  0  0  0  0  0  0
   36.9430   26.4560   41.8060 C   0  0  0  0  0  0  0  0  0  0  0  0
   37.0700   27.8310   41.9070 C   0  0  0  0  0  0  0  0  0  0  0  0
   38.2290   28.2850   42.5150 C   0  0  0  0  0  0  0  0  0  0  0  0
   39.1860   27.4310   42.9850 C   0  0  0  0  0  0  0  0  0  0  0  0
   40.3770   27.5850   43.6010 N   0  0  0  0  0  0  0  0  0  0  0  0
   40.9510   26.4040   43.8650 C   0  0  0  0  0  0  0  0  0  0  0  0
   40.1130   25.3990   43.4080 C   0  0  0  0  0  0  0  0  0  0  0  0
   39.0450   26.0760   42.8770 C   0  0  0  0  0  0  0  0  0  0  0  0
   37.9030   25.6070   42.2770 C   0  0  0  0  0  0  0  0  0  0  0  0
   36.0100   26.1410   41.3180 H   0  0  0  0  0  0  0  0  0  0  0  0
   38.4560   29.3410   42.6600 H   0  0  0  0  0  0  0  0  0  0  0  0
   40.7900   28.5240   43.8390 H   0  0  0  0  0  0  0  0  0  0  0  0
   41.9180   26.3140   44.3600 H   0  0  0  0  0  0  0  0  0  0  0  0
   40.3300   24.3420   43.4910 H   0  0  0  0  0  0  0  0  0  0  0  0
   37.6950   24.1730   42.1320 C   0  0  0  0  0  0  0  0  0  0  0  0
   37.4130   23.6590   41.0230 O   0  0  0  0  0  0  0  0  0  0  0  0
   37.7610   23.4560   42.9240 H   0  0  0  0  0  0  0  0  0  0  0  0
   35.8930   28.9680   40.0070 C   0  0  0  0  0  0  0  0  0  0  0  0
   34.8320   29.1070   39.7890 H   0  0  0  0  0  0  0  0  0  0  0  0
   36.2250   28.0010   39.5590 H   0  0  0  0  0  0  0  0  0  0  0  0
   37.9820   31.7810   39.2790 C   0  0  0  0  0  0  0  0  0  0  0  0
   37.6200   31.3410   37.9810 C   0  0  0  0  0  0  0  0  0  0  0  0
   36.8140   30.2620   38.1000 C   0  0  0  0  0  0  0  0  0  0  0  0
   36.6790   30.0370   39.4160 N   0  0  0  0  0  0  0  0  0  0  0  0
   37.3720   30.9380   40.1130 N   0  0  0  0  0  0  0  0  0  0  0  0
   37.9400   31.8010   37.0550 H   0  0  0  0  0  0  0  0  0  0  0  0
   36.3590   29.6820   37.3210 H   0  0  0  0  0  0  0  0  0  0  0  0
   39.1800   34.9400   40.6420 C   0  0  0  0  0  0  0  0  0  0  0  0
   40.4380   35.0970   40.0470 C   0  0  0  0  0  0  0  0  0  0  0  0
   40.8540   34.0910   39.1750 C   0  0  0  0  0  0  0  0  0  0  0  0
   40.0240   33.0530   38.9680 N   0  0  0  0  0  0  0  0  0  0  0  0
   38.8360   32.9110   39.5320 C   0  0  0  0  0  0  0  0  0  0  0  0
   38.4180   33.8740   40.3780 N   0  0  0  0  0  0  0  0  0  0  0  0
   38.8360   35.7210   41.3310 H   0  0  0  0  0  0  0  0  0  0  0  0
   41.0870   35.9400   40.2300 H   0  0  0  0  0  0  0  0  0  0  0  0
   42.1530   34.1340   38.4850 C   0  0  0  0  0  2  0  0  0  0  0  0
   42.7090   35.0260   38.8410 H   0  0  0  0  0  0  0  0  0  0  0  0
  1  2  1  0  0  0  0
  1  5  1  0  0  0  0
  1  3  1  0  0  0  0
  4  5  2  0  0  0  0
  4 12  1  0  0  0  0
  5  6  1  0  0  0  0
  6 14  1  0  0  0  0
  6  7  2  0  0  0  0
  7  8  1  0  0  0  0
  8 15  1  0  0  0  0
  8  9  1  0  0  0  0
  9 16  1  0  0  0  0
 10 17  1  0  0  0  0
 10  9  2  0  0  0  0
 11  7  1  0  0  0  0
 11 10  1  0  0  0  0
 12 11  2  0  0  0  0
 13  4  1  0  0  0  0
 18 12  1  0  0  0  0
 18 20  1  0  0  0  0
 19 18  2  0  0  0  0
 21  1  1  0  0  0  0
 22 21  1  0  0  0  0
 23 21  1  0  0  0  0
 24 35  1  0  0  0  0
 24 28  2  0  0  0  0
 25 26  2  0  0  0  0
 25 24  1  0  0  0  0
 26 27  1  0  0  0  0
 27 21  1  0  0  0  0
 27 28  1  0  0  0  0
 29 25  1  0  0  0  0
 30 26  1  0  0  0  0
 31 37  1  0  0  0  0
 32 38  1  0  0  0  0
 32 31  2  0  0  0  0
 33 32  1  0  0  0  0
 34 33  2  0  0  0  0
 34 35  1  0  0  0  0
 35 36  2  0  0  0  0
 36 31  1  0  0  0  0
 39 40  1  0  0  0  0
 39 33  1  0  0  0  0
M  END
>  <minimizedAffinity>
-6.02367496

$$$$

 OpenBabel03252506293D

 40 43  0  0  0  0  0  0  0  0999 V2000
   35.2970   29.2800   38.7400 C   0  0  0  0  0  0  0  0  0  0  0  0
   34.9830   30.2520   39.1900 H   0  0  0  0  0  0  0  0  0  0  0  0
   34.3420   28.8110   38.4030 H   0  0  0  0  0  0  0  0  0  0  0  0
   36.4070   27.2030   39.7630 C   0  0  0  0  0  0  0  0  0  0  0  0
   35.9260   28.5010   39.7950 C   0  0  0  0  0  0  0  0  0  0  0  0
   36.0580   29.1620   41.0040 C   0  0  0  0  0  0  0  0  0  0  0  0
   36.6280   28.5730   42.0970 C   0  0  0  0  0  0  0  0  0  0  0  0
   36.8810   28.9640   43.3640 N   0  0  0  0  0  0  0  0  0  0  0  0
   37.4720   27.9920   44.0710 C   0  0  0  0  0  0  0  0  0  0  0  0
   37.6290   26.8880   43.2480 C   0  0  0  0  0  0  0  0  0  0  0  0
   37.0980   27.2900   42.0500 C   0  0  0  0  0  0  0  0  0  0  0  0
   36.9750   26.6190   40.8590 C   0  0  0  0  0  0  0  0  0  0  0  0
   36.2810   26.7170   38.7860 H   0  0  0  0  0  0  0  0  0  0  0  0
   35.7220   30.1860   41.1680 H   0  0  0  0  0  0  0  0  0  0  0  0
   36.6370   29.9190   43.7360 H   0  0  0  0  0  0  0  0  0  0  0  0
   37.7590   28.1110   45.1160 H   0  0  0  0  0  0  0  0  0  0  0  0
   38.0820   25.9560   43.5610 H   0  0  0  0  0  0  0  0  0  0  0  0
   37.4570   25.2500   40.7450 C   0  0  0  0  0  0  0  0  0  0  0  0
   36.7040   24.2690   40.9590 O   0  0  0  0  0  0  0  0  0  0  0  0
   38.4540   24.9650   40.4800 H   0  0  0  0  0  0  0  0  0  0  0  0
   36.1220   29.5740   37.5370 C   0  0  0  0  0  0  0  0  0  0  0  0
   35.5180   29.9170   36.6950 H   0  0  0  0  0  0  0  0  0  0  0  0
   36.6250   28.6200   37.2500 H   0  0  0  0  0  0  0  0  0  0  0  0
   39.0950   31.5350   37.8900 C   0  0  0  0  0  0  0  0  0  0  0  0
   38.1680   32.2650   38.6740 C   0  0  0  0  0  0  0  0  0  0  0  0
   36.9740   31.6310   38.6340 C   0  0  0  0  0  0  0  0  0  0  0  0
   37.1480   30.5500   37.8580 N   0  0  0  0  0  0  0  0  0  0  0  0
   38.4060   30.4960   37.4180 N   0  0  0  0  0  0  0  0  0  0  0  0
   38.3890   33.1790   39.2120 H   0  0  0  0  0  0  0  0  0  0  0  0
   36.0560   31.9090   39.1140 H   0  0  0  0  0  0  0  0  0  0  0  0
   42.1600   33.4960   38.0620 C   0  0  0  0  0  0  0  0  0  0  0  0
   43.0930   32.7070   37.3780 C   0  0  0  0  0  0  0  0  0  0  0  0
   42.6370   31.4920   36.8650 C   0  0  0  0  0  0  0  0  0  0  0  0
   41.3460   31.1710   37.0600 N   0  0  0  0  0  0  0  0  0  0  0  0
   40.4690   31.9220   37.7060 C   0  0  0  0  0  0  0  0  0  0  0  0
   40.8930   33.0980   38.2090 N   0  0  0  0  0  0  0  0  0  0  0  0
   42.5010   34.4540   38.4730 H   0  0  0  0  0  0  0  0  0  0  0  0
   44.1260   32.9860   37.2340 H   0  0  0  0  0  0  0  0  0  0  0  0
   43.5140   30.5690   36.1270 C   0  0  0  0  0  2  0  0  0  0  0  0
   44.5440   30.9830   36.1360 H   0  0  0  0  0  0  0  0  0  0  0  0
  1  2  1  0  0  0  0
  1  5  1  0  0  0  0
  3  1  1  0  0  0  0
  4  5  2  0  0  0  0
  4 12  1  0  0  0  0
  5  6  1  0  0  0  0
  6 14  1  0  0  0  0
  6  7  2  0  0  0  0
  7  8  1  0  0  0  0
  8 15  1  0  0  0  0
  8  9  1  0  0  0  0
  9 16  1  0  0  0  0
 10 17  1  0  0  0  0
 10  9  2  0  0  0  0
 11  7  1  0  0  0  0
 11 10  1  0  0  0  0
 12 11  2  0  0  0  0
 13  4  1  0  0  0  0
 18 12  1  0  0  0  0
 18 19  2  0  0  0  0
 20 18  1  0  0  0  0
 21 27  1  0  0  0  0
 21  1  1  0  0  0  0
 22 21  1  0  0  0  0
 23 21  1  0  0  0  0
 24 25  1  0  0  0  0
 25 29  1  0  0  0  0
 26 25  2  0  0  0  0
 26 30  1  0  0  0  0
 27 26  1  0  0  0  0
 28 27  1  0  0  0  0
 28 24  2  0  0  0  0
 31 36  1  0  0  0  0
 31 37  1  0  0  0  0
 32 31  2  0  0  0  0
 33 34  2  0  0  0  0
 33 32  1  0  0  0  0
 34 35  1  0  0  0  0
 35 24  1  0  0  0  0
 35 36  2  0  0  0  0
 38 32  1  0  0  0  0
 39 40  1  0  0  0  0
 39 33  1  0  0  0  0
M  END
>  <minimizedAffinity>
-5.96959305

$$$$

 OpenBabel03252506293D

 40 43  0  0  0  0  0  0  0  0999 V2000
   41.4680   27.0680   44.1520 C   0  0  0  0  0  0  0  0  0  0  0  0
   41.9110   26.1810   44.6650 H   0  0  0  0  0  0  0  0  0  0  0  0
   41.3170   27.8130   44.9690 H   0  0  0  0  0  0  0  0  0  0  0  0
   38.9940   27.3230   43.5120 C   0  0  0  0  0  0  0  0  0  0  0  0
   40.2000   26.6450   43.5800 C   0  0  0  0  0  0  0  0  0  0  0  0
   40.2080   25.3770   43.0230 C   0  0  0  0  0  0  0  0  0  0  0  0
   39.0990   24.8290   42.4440 C   0  0  0  0  0  0  0  0  0  0  0  0
   38.8240   23.6530   41.8410 N   0  0  0  0  0  0  0  0  0  0  0  0
   37.5510   23.5960   41.4300 C   0  0  0  0  0  0  0  0  0  0  0  0
   36.9290   24.7890   41.7670 C   0  0  0  0  0  0  0  0  0  0  0  0
   37.9160   25.5120   42.3860 C   0  0  0  0  0  0  0  0  0  0  0  0
   37.8890   26.7710   42.9320 C   0  0  0  0  0  0  0  0  0  0  0  0
   39.0330   28.3240   43.9660 H   0  0  0  0  0  0  0  0  0  0  0  0
   41.0880   24.7340   43.0080 H   0  0  0  0  0  0  0  0  0  0  0  0
   39.5330   22.8840   41.7190 H   0  0  0  0  0  0  0  0  0  0  0  0
   37.1320   22.7290   40.9200 H   0  0  0  0  0  0  0  0  0  0  0  0
   35.8930   25.0160   41.5520 H   0  0  0  0  0  0  0  0  0  0  0  0
   36.6580   27.5480   42.9020 C   0  0  0  0  0  0  0  0  0  0  0  0
   36.3960   28.3250   41.9520 O   0  0  0  0  0  0  0  0  0  0  0  0
   35.8960   27.5300   43.6530 H   0  0  0  0  0  0  0  0  0  0  0  0
   42.4850   27.6090   43.2100 C   0  0  0  0  0  0  0  0  0  0  0  0
   42.4860   27.0810   42.2550 H   0  0  0  0  0  0  0  0  0  0  0  0
   43.4810   27.4700   43.6950 H   0  0  0  0  0  0  0  0  0  0  0  0
   41.4680   30.8800   42.1740 C   0  0  0  0  0  0  0  0  0  0  0  0
   42.4150   31.1740   43.1860 C   0  0  0  0  0  0  0  0  0  0  0  0
   42.8960   30.0110   43.6800 C   0  0  0  0  0  0  0  0  0  0  0  0
   42.2740   29.0320   43.0060 N   0  0  0  0  0  0  0  0  0  0  0  0
   41.4280   29.5490   42.1140 N   0  0  0  0  0  0  0  0  0  0  0  0
   42.7010   32.1700   43.5030 H   0  0  0  0  0  0  0  0  0  0  0  0
   43.6250   29.8670   44.4530 H   0  0  0  0  0  0  0  0  0  0  0  0
   40.7900   33.9300   40.3010 C   0  0  0  0  0  0  0  0  0  0  0  0
   39.4260   33.8330   40.0000 C   0  0  0  0  0  0  0  0  0  0  0  0
   38.7580   32.6970   40.4570 C   0  0  0  0  0  0  0  0  0  0  0  0
   39.4650   31.7860   41.1480 N   0  0  0  0  0  0  0  0  0  0  0  0
   40.7530   31.8840   41.4290 C   0  0  0  0  0  0  0  0  0  0  0  0
   41.4150   32.9750   40.9960 N   0  0  0  0  0  0  0  0  0  0  0  0
   41.3320   34.8160   39.9490 H   0  0  0  0  0  0  0  0  0  0  0  0
   38.8800   34.5790   39.4430 H   0  0  0  0  0  0  0  0  0  0  0  0
   37.3240   32.4730   40.2090 C   0  0  0  0  0  2  0  0  0  0  0  0
   36.9470   33.2980   39.5690 H   0  0  0  0  0  0  0  0  0  0  0  0
  1  2  1  0  0  0  0
  1  3  1  0  0  0  0
  4  5  1  0  0  0  0
  4 13  1  0  0  0  0
  5  1  1  0  0  0  0
  6  5  2  0  0  0  0
  7  6  1  0  0  0  0
  8  7  1  0  0  0  0
  9 10  2  0  0  0  0
  9  8  1  0  0  0  0
 10 11  1  0  0  0  0
 11  7  2  0  0  0  0
 11 12  1  0  0  0  0
 12  4  2  0  0  0  0
 14  6  1  0  0  0  0
 15  8  1  0  0  0  0
 16  9  1  0  0  0  0
 17 10  1  0  0  0  0
 18 12  1  0  0  0  0
 18 20  1  0  0  0  0
 19 18  2  0  0  0  0
 21 23  1  0  0  0  0
 21  1  1  0  0  0  0
 22 21  1  0  0  0  0
 24 25  1  0  0  0  0
 25 29  1  0  0  0  0
 25 26  2  0  0  0  0
 26 30  1  0  0  0  0
 27 21  1  0  0  0  0
 27 26  1  0  0  0  0
 28 24  2  0  0  0  0
 28 27  1  0  0  0  0
 31 36  1  0  0  0  0
 32 31  2  0  0  0  0
 32 33  1  0  0  0  0
 33 34  2  0  0  0  0
 34 35  1  0  0  0  0
 35 24  1  0  0  0  0
 36 35  2  0  0  0  0
 37 31  1  0  0  0  0
 38 32  1  0  0  0  0
 39 33  1  0  0  0  0
 40 39  1  0  0  0  0
M  END
>  <minimizedAffinity>
-5.96801281

$$$$

 OpenBabel03252506293D

 40 43  0  0  0  0  0  0  0  0999 V2000
   35.9690   29.8840   38.6280 C   0  0  0  0  0  0  0  0  0  0  0  0
   35.3910   30.7090   39.1090 H   0  0  0  0  0  0  0  0  0  0  0  0
   35.2470   29.4190   37.9160 H   0  0  0  0  0  0  0  0  0  0  0  0
   36.6580   27.6070   39.5950 C   0  0  0  0  0  0  0  0  0  0  0  0
   36.3470   28.9540   39.6800 C   0  0  0  0  0  0  0  0  0  0  0  0
   36.4030   29.5050   40.9490 C   0  0  0  0  0  0  0  0  0  0  0  0
   36.7420   28.7680   42.0490 C   0  0  0  0  0  0  0  0  0  0  0  0
   36.8740   29.0310   43.3660 N   0  0  0  0  0  0  0  0  0  0  0  0
   37.2370   27.9400   44.0520 C   0  0  0  0  0  0  0  0  0  0  0  0
   37.3580   26.8840   43.1620 C   0  0  0  0  0  0  0  0  0  0  0  0
   37.0460   27.4390   41.9480 C   0  0  0  0  0  0  0  0  0  0  0  0
   36.9960   26.8750   40.6970 C   0  0  0  0  0  0  0  0  0  0  0  0
   36.6010   27.2120   38.5710 H   0  0  0  0  0  0  0  0  0  0  0  0
   36.1820   30.5510   41.1590 H   0  0  0  0  0  0  0  0  0  0  0  0
   36.7080   29.9820   43.7870 H   0  0  0  0  0  0  0  0  0  0  0  0
   37.3950   27.9450   45.1310 H   0  0  0  0  0  0  0  0  0  0  0  0
   37.6410   25.8790   43.4460 H   0  0  0  0  0  0  0  0  0  0  0  0
   37.3090   25.4630   40.5250 C   0  0  0  0  0  0  0  0  0  0  0  0
   36.4230   24.5790   40.6110 O   0  0  0  0  0  0  0  0  0  0  0  0
   38.2810   25.0660   40.3180 H   0  0  0  0  0  0  0  0  0  0  0  0
   37.0730   30.4940   37.8390 C   0  0  0  0  0  0  0  0  0  0  0  0
   36.7250   30.9100   36.8920 H   0  0  0  0  0  0  0  0  0  0  0  0
   37.8040   29.6790   37.6230 H   0  0  0  0  0  0  0  0  0  0  0  0
   39.3350   32.5260   39.7270 C   0  0  0  0  0  0  0  0  0  0  0  0
   38.1550   33.3120   39.7390 C   0  0  0  0  0  0  0  0  0  0  0  0
   37.1930   32.6580   39.0500 C   0  0  0  0  0  0  0  0  0  0  0  0
   37.7480   31.5120   38.6250 N   0  0  0  0  0  0  0  0  0  0  0  0
   39.0180   31.4370   39.0280 N   0  0  0  0  0  0  0  0  0  0  0  0
   38.0520   34.2750   40.2230 H   0  0  0  0  0  0  0  0  0  0  0  0
   36.1830   32.9650   38.8620 H   0  0  0  0  0  0  0  0  0  0  0  0
   42.2540   34.5100   40.6320 C   0  0  0  0  0  0  0  0  0  0  0  0
   42.9180   33.7060   41.5670 C   0  0  0  0  0  0  0  0  0  0  0  0
   42.3340   32.4770   41.8720 C   0  0  0  0  0  0  0  0  0  0  0  0
   41.1860   32.1540   41.2500 N   0  0  0  0  0  0  0  0  0  0  0  0
   40.5640   32.9170   40.3670 C   0  0  0  0  0  0  0  0  0  0  0  0
   41.1140   34.1080   40.0610 N   0  0  0  0  0  0  0  0  0  0  0  0
   42.6980   35.4800   40.3800 H   0  0  0  0  0  0  0  0  0  0  0  0
   43.8400   33.9880   42.0530 H   0  0  0  0  0  0  0  0  0  0  0  0
   42.9300   31.5390   42.8370 C   0  0  0  0  0  2  0  0  0  0  0  0
   43.8250   32.0190   43.2840 H   0  0  0  0  0  0  0  0  0  0  0  0
  1  2  1  0  0  0  0
  1  5  1  0  0  0  0
  3  1  1  0  0  0  0
  4  5  2  0  0  0  0
  4 12  1  0  0  0  0
  5  6  1  0  0  0  0
  6 14  1  0  0  0  0
  6  7  2  0  0  0  0
  7  8  1  0  0  0  0
  8 15  1  0  0  0  0
  8  9  1  0  0  0  0
  9 16  1  0  0  0  0
 10 17  1  0  0  0  0
 10  9  2  0  0  0  0
 11  7  1  0  0  0  0
 11 10  1  0  0  0  0
 12 11  2  0  0  0  0
 13  4  1  0  0  0  0
 18 19  2  0  0  0  0
 18 12  1  0  0  0  0
 20 18  1  0  0  0  0
 21 27  1  0  0  0  0
 21  1  1  0  0  0  0
 22 21  1  0  0  0  0
 23 21  1  0  0  0  0
 24 25  1  0  0  0  0
 24 35  1  0  0  0  0
 25 29  1  0  0  0  0
 26 25  2  0  0  0  0
 27 28  1  0  0  0  0
 27 26  1  0  0  0  0
 28 24  2  0  0  0  0
 30 26  1  0  0  0  0
 31 32  1  0  0  0  0
 32 33  2  0  0  0  0
 32 38  1  0  0  0  0
 33 39  1  0  0  0  0
 34 33  1  0  0  0  0
 35 34  2  0  0  0  0
 36 35  1  0  0  0  0
 36 31  2  0  0  0  0
 37 31  1  0  0  0  0
 39 40  1  0  0  0  0
M  END
>  <minimizedAffinity>
-5.96289539

$$$$

 OpenBabel03252506293D

 40 43  0  0  0  0  0  0  0  0999 V2000
   36.4750   30.9480   39.9200 C   0  0  0  0  0  0  0  0  0  0  0  0
   36.5190   30.0030   39.3280 H   0  0  0  0  0  0  0  0  0  0  0  0
   35.5780   31.4810   39.5250 H   0  0  0  0  0  0  0  0  0  0  0  0
   38.6620   31.4600   38.6770 C   0  0  0  0  0  0  0  0  0  0  0  0
   37.6960   31.6870   39.6420 C   0  0  0  0  0  0  0  0  0  0  0  0
   37.9160   32.7760   40.4690 C   0  0  0  0  0  0  0  0  0  0  0  0
   39.0160   33.5770   40.3410 C   0  0  0  0  0  0  0  0  0  0  0  0
   39.4750   34.6710   40.9840 N   0  0  0  0  0  0  0  0  0  0  0  0
   40.6350   35.0960   40.4660 C   0  0  0  0  0  0  0  0  0  0  0  0
   40.9820   34.2530   39.4220 C   0  0  0  0  0  0  0  0  0  0  0  0
   39.9610   33.3390   39.3830 C   0  0  0  0  0  0  0  0  0  0  0  0
   39.7600   32.2630   38.5530 C   0  0  0  0  0  0  0  0  0  0  0  0
   38.4480   30.5870   38.0440 H   0  0  0  0  0  0  0  0  0  0  0  0
   37.2370   33.0690   41.2690 H   0  0  0  0  0  0  0  0  0  0  0  0
   38.9720   35.1220   41.7920 H   0  0  0  0  0  0  0  0  0  0  0  0
   41.1680   35.9670   40.8470 H   0  0  0  0  0  0  0  0  0  0  0  0
   41.8760   34.3640   38.8230 H   0  0  0  0  0  0  0  0  0  0  0  0
   40.7320   31.9580   37.5130 C   0  0  0  0  0  0  0  0  0  0  0  0
   41.1760   30.7960   37.3500 O   0  0  0  0  0  0  0  0  0  0  0  0
   41.1390   32.6650   36.8200 H   0  0  0  0  0  0  0  0  0  0  0  0
   36.2140   30.5880   41.3410 C   0  0  0  0  0  0  0  0  0  0  0  0
   35.1470   30.5190   41.5610 H   0  0  0  0  0  0  0  0  0  0  0  0
   36.6550   31.4020   41.9650 H   0  0  0  0  0  0  0  0  0  0  0  0
   37.4330   27.2340   41.6050 C   0  0  0  0  0  0  0  0  0  0  0  0
   38.1750   27.8960   42.6140 C   0  0  0  0  0  0  0  0  0  0  0  0
   37.8140   29.1990   42.6330 C   0  0  0  0  0  0  0  0  0  0  0  0
   36.8850   29.3440   41.6760 N   0  0  0  0  0  0  0  0  0  0  0  0
   36.6610   28.1780   41.0680 N   0  0  0  0  0  0  0  0  0  0  0  0
   38.9090   27.4270   43.2590 H   0  0  0  0  0  0  0  0  0  0  0  0
   38.1770   29.9810   43.2690 H   0  0  0  0  0  0  0  0  0  0  0  0
   38.8250   23.8710   41.4520 C   0  0  0  0  0  0  0  0  0  0  0  0
   37.8540   23.1460   40.7510 C   0  0  0  0  0  0  0  0  0  0  0  0
   36.7190   23.8450   40.3410 C   0  0  0  0  0  0  0  0  0  0  0  0
   36.6400   25.1520   40.6430 N   0  0  0  0  0  0  0  0  0  0  0  0
   37.5620   25.8320   41.3050 C   0  0  0  0  0  0  0  0  0  0  0  0
   38.6650   25.1720   41.7090 N   0  0  0  0  0  0  0  0  0  0  0  0
   39.7250   23.3380   41.7830 H   0  0  0  0  0  0  0  0  0  0  0  0
   37.9400   22.0950   40.5200 H   0  0  0  0  0  0  0  0  0  0  0  0
   35.6230   23.2020   39.5970 C   0  0  0  0  0  2  0  0  0  0  0  0
   35.8480   22.1180   39.5110 H   0  0  0  0  0  0  0  0  0  0  0  0
  1 21  1  0  0  0  0
  2  1  1  0  0  0  0
  3  1  1  0  0  0  0
  4  5  1  0  0  0  0
  5  1  1  0  0  0  0
  5  6  2  0  0  0  0
  6 14  1  0  0  0  0
  7  6  1  0  0  0  0
  7  8  1  0  0  0  0
  8 15  1  0  0  0  0
  9 16  1  0  0  0  0
  9  8  1  0  0  0  0
 10  9  2  0  0  0  0
 11 10  1  0  0  0  0
 11  7  2  0  0  0  0
 12  4  2  0  0  0  0
 12 11  1  0  0  0  0
 13  4  1  0  0  0  0
 17 10  1  0  0  0  0
 18 12  1  0  0  0  0
 19 18  2  0  0  0  0
 20 18  1  0  0  0  0
 21 22  1  0  0  0  0
 21 27  1  0  0  0  0
 21 23  1  0  0  0  0
 24 25  1  0  0  0  0
 25 26  2  0  0  0  0
 25 29  1  0  0  0  0
 26 30  1  0  0  0  0
 27 26  1  0  0  0  0
 28 24  2  0  0  0  0
 28 27  1  0  0  0  0
 31 36  1  0  0  0  0
 31 37  1  0  0  0  0
 32 31  2  0  0  0  0
 33 34  2  0  0  0  0
 33 32  1  0  0  0  0
 34 35  1  0  0  0  0
 35 24  1  0  0  0  0
 35 36  2  0  0  0  0
 38 32  1  0  0  0  0
 39 33  1  0  0  0  0
 40 39  1  0  0  0  0
M  END
>  <minimizedAffinity>
-5.86123514

$$$$
