
     RDKit          3D

 32 34  0  0  0  0  0  0  0  0999 V2000
   47.5346   32.8446   43.9089 C   0  0  0  0  0  0  0  0  0  0  0  0
   48.3755   33.3878   43.0159 C   0  0  0  0  0  0  0  0  0  0  0  0
   49.2350   32.4940   42.4173 C   0  0  0  0  0  0  0  0  0  0  0  0
   49.1636   31.1375   42.7828 N   0  0  0  0  0  0  0  0  0  0  0  0
   48.3134   30.6791   43.6710 C   0  0  0  0  0  0  0  0  0  0  0  0
   47.4369   31.5400   44.2894 N   0  0  0  0  0  0  0  0  0  0  0  0
   48.5217   34.7729   42.7341 C   0  0  0  0  0  0  0  0  0  0  0  0
   49.5209   35.3987   42.0574 C   0  0  0  0  0  0  0  0  0  0  0  0
   48.2763   35.2229   41.2300 C   0  0  0  0  0  0  0  0  0  0  0  0
   46.4514   33.5335   44.6246 C   0  0  0  0  0  0  0  0  0  0  0  0
   45.8818   33.8975   45.6201 O   0  0  0  0  0  0  0  0  0  0  0  0
   44.6794   31.6649   42.9255 Cl  0  0  0  0  0  0  0  0  0  0  0  0
   44.6494   33.4209   42.7588 C   0  0  0  0  0  0  0  0  0  0  0  0
   45.5181   34.1209   43.6196 C   0  0  0  0  0  0  0  0  0  0  0  0
   45.4170   35.4874   43.4081 C   0  0  0  0  0  0  0  0  0  0  0  0
   44.6512   36.1692   42.5449 C   0  0  0  0  0  0  0  0  0  0  0  0
   43.8383   35.4147   41.7462 C   0  0  0  0  0  0  0  0  0  0  0  0
   43.8234   34.0674   41.8374 C   0  0  0  0  0  0  0  0  0  0  0  0
   49.9755   32.7721   41.6701 H   0  0  0  0  0  0  0  0  0  0  0  0
   48.3744   29.6100   43.8532 H   0  0  0  0  0  0  0  0  0  0  0  0
   48.0599   35.4342   43.4898 H   0  0  0  0  0  0  0  0  0  0  0  0
   50.4030   34.7811   41.7020 H   0  0  0  0  0  0  0  0  0  0  0  0
   49.8576   36.4587   42.0930 H   0  0  0  0  0  0  0  0  0  0  0  0
   47.5572   36.0641   41.1373 H   0  0  0  0  0  0  0  0  0  0  0  0
   48.2446   34.3810   40.5334 H   0  0  0  0  0  0  0  0  0  0  0  0
   46.0104   36.1926   44.0285 H   0  0  0  0  0  0  0  0  0  0  0  0
   44.6040   37.2270   42.4110 H   0  0  0  0  0  0  0  0  0  0  0  0
   43.1544   35.7873   40.9942 H   0  0  0  0  0  0  0  0  0  0  0  0
   42.9753   33.1211   41.0190 C   0  0  0  0  0  0  0  0  0  0  0  0
   43.0426   32.1401   41.5328 H   0  0  0  0  0  0  0  0  0  0  0  0
   43.4035   33.0150   40.0076 H   0  0  0  0  0  0  0  0  0  0  0  0
   41.9439   33.4595   40.9686 H   0  0  0  0  0  0  0  0  0  0  0  0
  1  6  1  0
  1 10  1  0
  2  1  2  0
  3  4  2  0
  3  2  1  0
  4  5  1  0
  5  6  2  0
  7  2  1  0
  8  7  1  0
  9  8  1  0
  9  7  1  0
 10 11  2  0
 13 12  1  0
 13 14  2  0
 14 10  1  0
 15 14  1  0
 16 15  2  0
 17 18  2  0
 17 16  1  0
 18 13  1  0
  3 19  1  0
  5 20  1  0
  7 21  1  0
  8 22  1  0
  8 23  1  0
  9 24  1  0
  9 25  1  0
 15 26  1  0
 16 27  1  0
 17 28  1  0
 29 30  1  0
 29 31  1  0
 29 32  1  0
 18 29  1  0
M  ISO  8  19  14  20  14  21  13  22  13  23  13  24  13  25  13  26  14
M  ISO  3  27  14  28  14  30   8
M  END
>  <DihAtoms>  (1) 
16,17,28,29

>  <DihDeg>  (1) 
28.580708365302538

$$$$
