REMARK  Name = 
REMARK  3 active torsions:
REMARK  status: ('A' for Active; 'I' for Inactive)
REMARK    1  A    between atoms: C_1  and  C_11
REMARK    2  A    between atoms: C_5  and  C_13
REMARK    3  A    between atoms: C_18  and  C_28
REMARK                            x       y       z     vdW  Elec       q    Type
REMARK                         _______ _______ _______ _____ _____    ______ ____
ROOT
ATOM      1  C   UNL     1      45.968  33.578  45.569  0.00  0.00    +0.000 A 
ATOM      2  C   UNL     1      45.003  34.488  45.827  0.00  0.00    +0.000 A 
ATOM      3  C   UNL     1      44.626  35.474  44.957  0.00  0.00    +0.000 A 
ATOM      4  N   UNL     1      45.285  35.510  43.771  0.00  0.00    +0.000 NA
ATOM      5  C   UNL     1      46.245  34.610  43.506  0.00  0.00    +0.000 A 
ATOM      6  N   UNL     1      46.617  33.634  44.369  0.00  0.00    +0.000 NA
ATOM      7  H   UNL     1      44.463  34.477  46.770  0.00  0.00    +0.000 HD
ATOM      8  H   UNL     1      43.848  36.204  45.171  0.00  0.00    +0.000 HD
ENDROOT
BRANCH   5   9
ATOM      9  C   UNL     1      46.957  34.657  42.212  0.00  0.00    +0.000 A 
ATOM     10  C   UNL     1      46.461  33.943  41.139  0.00  0.00    +0.000 A 
ATOM     11  C   UNL     1      47.068  33.934  39.896  0.00  0.00    +0.000 A 
ATOM     12  C   UNL     1      48.228  34.677  39.722  0.00  0.00    +0.000 A 
ATOM     13  C   UNL     1      48.710  35.377  40.783  0.00  0.00    +0.000 A 
ATOM     14  C   UNL     1      48.104  35.386  42.027  0.00  0.00    +0.000 A 
ATOM     15  H   UNL     1      45.563  33.374  41.290  0.00  0.00    +0.000 HD
ATOM     16  H   UNL     1      46.648  33.367  39.093  0.00  0.00    +0.000 HD
ATOM     17  H   UNL     1      48.705  34.669  38.743  0.00  0.00    +0.000 HD
ATOM     18  H   UNL     1      49.623  35.957  40.635  0.00  0.00    +0.000 HD
BRANCH  14  19
ATOM     19  C   UNL     1      48.651  36.164  43.186  0.00  0.00    +0.000 C 
ATOM     20  H   UNL     1      49.755  36.107  43.207  0.00  0.00    +0.000 HD
ENDBRANCH  14  19
ENDBRANCH   5   9
BRANCH   1  25
ATOM     21  C   UNL     1      46.112  30.340  47.276  0.00  0.00    +0.000 A 
ATOM     22  C   UNL     1      47.015  30.581  48.302  0.00  0.00    +0.000 A 
ATOM     23  C   UNL     1      47.581  31.852  48.418  0.00  0.00    +0.000 A 
ATOM     24  N   UNL     1      47.216  32.810  47.506  0.00  0.00    +0.000 NA
ATOM     25  C   UNL     1      46.340  32.539  46.528  0.00  0.00    +0.000 A 
ATOM     26  N   UNL     1      45.787  31.319  46.404  0.00  0.00    +0.000 NA
ATOM     27  H   UNL     1      45.691  29.333  47.218  0.00  0.00    +0.000 HD
ATOM     28  H   UNL     1      47.340  29.871  49.047  0.00  0.00    +0.000 HD
ATOM     29  H   UNL     1      48.292  32.195  49.154  0.00  0.00    +0.000 HD
ENDBRANCH   1  25
TORSDOF 3
