
     RDKit          3D

 31 33  0  0  0  0  0  0  0  0999 V2000
   45.9682   33.5778   45.5688 C   0  0  0  0  0  0  0  0  0  0  0  0
   45.0027   34.4880   45.8266 C   0  0  0  0  0  0  0  0  0  0  0  0
   44.6262   35.4738   44.9568 C   0  0  0  0  0  0  0  0  0  0  0  0
   45.2846   35.5100   43.7709 N   0  0  0  0  0  0  0  0  0  0  0  0
   46.2448   34.6102   43.5061 C   0  0  0  0  0  0  0  0  0  0  0  0
   46.6165   33.6342   44.3689 N   0  0  0  0  0  0  0  0  0  0  0  0
   46.1123   30.3402   47.2759 C   0  0  0  0  0  0  0  0  0  0  0  0
   47.0151   30.5807   48.3022 C   0  0  0  0  0  0  0  0  0  0  0  0
   47.5812   31.8524   48.4178 C   0  0  0  0  0  0  0  0  0  0  0  0
   47.2164   32.8101   47.5062 N   0  0  0  0  0  0  0  0  0  0  0  0
   46.3401   32.5392   46.5276 C   0  0  0  0  0  0  0  0  0  0  0  0
   45.7870   31.3185   46.4043 N   0  0  0  0  0  0  0  0  0  0  0  0
   46.9569   34.6566   42.2122 C   0  0  0  0  0  0  0  0  0  0  0  0
   46.4612   33.9432   41.1386 C   0  0  0  0  0  0  0  0  0  0  0  0
   47.0679   33.9343   39.8960 C   0  0  0  0  0  0  0  0  0  0  0  0
   48.2282   34.6772   39.7222 C   0  0  0  0  0  0  0  0  0  0  0  0
   48.7100   35.3765   40.7829 C   0  0  0  0  0  0  0  0  0  0  0  0
   48.1036   35.3861   42.0270 C   0  0  0  0  0  0  0  0  0  0  0  0
   44.4626   34.4772   46.7705 H   0  0  0  0  0  0  0  0  0  0  0  0
   43.8477   36.2036   45.1711 H   0  0  0  0  0  0  0  0  0  0  0  0
   45.6906   29.3332   47.2178 H   0  0  0  0  0  0  0  0  0  0  0  0
   47.3398   29.8709   49.0465 H   0  0  0  0  0  0  0  0  0  0  0  0
   48.2922   32.1952   49.1540 H   0  0  0  0  0  0  0  0  0  0  0  0
   45.5634   33.3742   41.2899 H   0  0  0  0  0  0  0  0  0  0  0  0
   46.6479   33.3668   39.0933 H   0  0  0  0  0  0  0  0  0  0  0  0
   48.7050   34.6693   38.7432 H   0  0  0  0  0  0  0  0  0  0  0  0
   49.6226   35.9569   40.6349 H   0  0  0  0  0  0  0  0  0  0  0  0
   48.6505   36.1643   43.1859 C   0  0  0  0  0  0  0  0  0  0  0  0
   49.3217   36.9689   42.8326 H   0  0  0  0  0  0  0  0  0  0  0  0
   47.8389   36.6116   43.7964 H   0  0  0  0  0  0  0  0  0  0  0  0
   49.2449   35.4933   43.8702 H   0  0  0  0  0  0  0  0  0  0  0  0
  1  2  2  0
  1 11  1  0
  3  2  1  0
  4  3  2  0
  5  4  1  0
  5  6  2  0
  6  1  1  0
  7  8  2  0
  8  9  1  0
 10  9  2  0
 11 10  1  0
 12 11  2  0
 12  7  1  0
 13  5  1  0
 14 13  2  0
 15 14  1  0
 16 15  2  0
 16 17  1  0
 17 18  2  0
 18 13  1  0
  2 19  1  0
  3 20  1  0
  7 21  1  0
  8 22  1  0
  9 23  1  0
 14 24  1  0
 15 25  1  0
 16 26  1  0
 17 27  1  0
 28 29  1  0
 28 30  1  0
 28 31  1  0
 18 28  1  0
M  ISO  8  19  14  20  14  21  14  22  14  23  14  24  14  25  14  26  14
M  ISO  2  27  14  29   8
M  END
>  <DihAtoms>  (1) 
16,17,27,28

>  <DihDeg>  (1) 
-9.317056446268701

$$$$
