REMARK  Name = 
REMARK  3 active torsions:
REMARK  status: ('A' for Active; 'I' for Inactive)
REMARK    1  A    between atoms: C_2  and  C_14
REMARK    2  A    between atoms: C_3  and  S_16
REMARK    3  A    between atoms: S_16  and  C_24
REMARK                            x       y       z     vdW  Elec       q    Type
REMARK                         _______ _______ _______ _____ _____    ______ ____
ROOT
ATOM      1  C   UNL     1      47.460  31.684  44.822  0.00  0.00    +0.000 A 
ATOM      2  C   UNL     1      46.788  32.859  44.537  0.00  0.00    +0.000 A 
ATOM      3  C   UNL     1      45.920  33.446  45.420  0.00  0.00    +0.000 A 
ATOM      4  C   UNL     1      45.679  32.864  46.669  0.00  0.00    +0.000 A 
ATOM      5  N   UNL     1      44.924  33.135  47.759  0.00  0.00    +0.000 N 
ATOM      6  C   UNL     1      45.111  32.177  48.690  0.00  0.00    +0.000 A 
ATOM      7  N   UNL     1      45.993  31.307  48.161  0.00  0.00    +0.000 NA
ATOM      8  C   UNL     1      46.359  31.696  46.929  0.00  0.00    +0.000 A 
ATOM      9  C   UNL     1      47.245  31.075  46.058  0.00  0.00    +0.000 A 
ATOM     10  H   UNL     1      48.145  31.243  44.095  0.00  0.00    +0.000 HD
ATOM     11  H   UNL     1      44.303  33.997  47.798  0.00  0.00    +0.000 HD
ATOM     12  H   UNL     1      44.570  32.258  49.626  0.00  0.00    +0.000 HD
ATOM     13  H   UNL     1      47.744  30.156  46.333  0.00  0.00    +0.000 HD
ENDROOT
BRANCH   2  18
ATOM     14  C   UNL     1      46.384  33.817  41.024  0.00  0.00    +0.000 A 
ATOM     15  C   UNL     1      47.418  34.716  40.824  0.00  0.00    +0.000 A 
ATOM     16  C   UNL     1      48.258  34.995  41.897  0.00  0.00    +0.000 A 
ATOM     17  N   UNL     1      48.031  34.376  43.099  0.00  0.00    +0.000 NA
ATOM     18  C   UNL     1      47.005  33.503  43.246  0.00  0.00    +0.000 A 
ATOM     19  N   UNL     1      46.167  33.209  42.218  0.00  0.00    +0.000 NA
ATOM     20  H   UNL     1      45.709  33.572  40.216  0.00  0.00    +0.000 HD
ATOM     21  H   UNL     1      47.564  35.181  39.861  0.00  0.00    +0.000 HD
ATOM     22  H   UNL     1      49.078  35.696  41.772  0.00  0.00    +0.000 HD
ENDBRANCH   2  18
BRANCH   3  23
ATOM     23  S   UNL     1      45.050  34.961  45.063  0.00  0.00    +0.000 S 
BRANCH  23  24
ATOM     24  C   UNL     1      43.463  34.675  44.261  0.00  0.00    +0.000 C 
ATOM     25  H   UNL     1      42.970  35.591  43.888  0.00  0.00    +0.000 HD
ENDBRANCH  23  24
ENDBRANCH   3  23
TORSDOF 3
