
 OpenBabel03252504213D

 25 27  0  0  0  0  0  0  0  0999 V2000
   47.7240   33.5310   40.1240 C   0  0  0  0  0  0  0  0  0  0  0  0
   49.0700   33.2590   40.3980 C   0  0  0  0  0  0  0  0  0  0  0  0
   49.5280   33.3350   41.7250 C   0  0  0  0  0  0  0  0  0  0  0  0
   48.6160   33.6760   42.6860 N   0  0  0  0  0  0  0  0  0  0  0  0
   47.3300   33.9320   42.3880 C   0  0  0  0  0  0  0  0  0  0  0  0
   46.8810   33.8610   41.1160 N   0  0  0  0  0  0  0  0  0  0  0  0
   46.4380   34.2810   43.4480 N   0  0  0  0  0  0  0  0  0  0  0  0
   45.5310   35.2740   43.4460 C   0  0  0  0  0  0  0  0  0  0  0  0
   44.8840   35.2730   44.6510 N   0  0  0  0  0  0  0  0  0  0  0  0
   45.4150   34.2700   45.3680 C   0  0  0  0  0  0  0  0  0  0  0  0
   45.1980   33.7660   46.6280 C   0  0  0  0  0  0  0  0  0  0  0  0
   45.8630   32.7460   47.1270 N   0  0  0  0  0  0  0  0  0  0  0  0
   46.8260   32.1120   46.4150 C   0  0  0  0  0  0  0  0  0  0  0  0
   47.0460   32.6000   45.1770 N   0  0  0  0  0  0  0  0  0  0  0  0
   46.3930   33.6350   44.6300 C   0  0  0  0  0  0  0  0  0  0  0  0
   49.8170   32.9860   39.6620 H   0  0  0  0  0  0  0  0  0  0  0  0
   50.5640   33.1290   41.9620 H   0  0  0  0  0  0  0  0  0  0  0  0
   45.3600   35.9480   42.6180 H   0  0  0  0  0  0  0  0  0  0  0  0
   47.3850   31.2710   46.8070 H   0  0  0  0  0  0  0  0  0  0  0  0
   44.2120   34.3430   47.4790 N   0  0  0  0  0  0  0  0  0  0  0  0
   43.2360   33.9500   47.4640 H   0  0  0  0  0  0  0  0  0  0  0  0
   44.5670   35.1390   48.0660 H   0  0  0  0  0  0  0  0  0  0  0  0
   47.2380   33.4080   38.4040 S   0  0  0  0  0  0  0  0  0  0  0  0
   48.2610   34.4120   37.3320 C   0  0  0  0  0  0  0  0  0  0  0  0
   48.0670   34.1940   36.2760 H   0  0  0  0  0  0  0  0  0  0  0  0
  1  2  2  0  0  0  0
  1  6  1  0  0  0  0
  2  3  1  0  0  0  0
  3 17  1  0  0  0  0
  3  4  2  0  0  0  0
  5  4  1  0  0  0  0
  5  7  1  0  0  0  0
  6  5  2  0  0  0  0
  7 15  1  0  0  0  0
  8  7  1  0  0  0  0
  8  9  2  0  0  0  0
  9 10  1  0  0  0  0
 10 11  1  0  0  0  0
 11 12  2  0  0  0  0
 11 20  1  0  0  0  0
 13 19  1  0  0  0  0
 13 12  1  0  0  0  0
 14 13  2  0  0  0  0
 15 14  1  0  0  0  0
 15 10  2  0  0  0  0
 16  2  1  0  0  0  0
 18  8  1  0  0  0  0
 20 22  1  0  0  0  0
 21 20  1  0  0  0  0
 23  1  1  0  0  0  0
 24 23  1  0  0  0  0
 25 24  1  0  0  0  0
M  END
>  <minimizedAffinity>
-5.45319748

>  <minimizedRMSD>
0.243542075

$$$$
