
 OpenBabel03242518443D

 28 29  0  0  1  0  0  0  0  0999 V2000
   45.9460   32.7560   47.1440 C   0  0  2  0  0  0  0  0  0  0  0  0
   46.8490   32.8820   45.9890 C   0  0  1  0  0  0  0  0  0  0  0  0
   47.0670   31.5180   45.2870 C   0  0  0  0  0  0  0  0  0  0  0  0
   47.5400   30.6980   46.3200 O   0  0  0  0  0  0  0  0  0  0  0  0
   46.5530   30.3550   47.2120 C   0  0  0  0  0  0  0  0  0  0  0  0
   45.3790   31.3290   47.2130 C   0  0  1  0  0  0  0  0  0  0  0  0
   46.4740   32.8910   48.1160 H   0  0  0  0  0  0  0  0  0  0  0  0
   47.8650   33.2300   46.2690 H   0  0  0  0  0  0  0  0  0  0  0  0
   47.9050   31.6430   44.5720 H   0  0  0  0  0  0  0  0  0  0  0  0
   46.1510   31.1410   44.8410 H   0  0  0  0  0  0  0  0  0  0  0  0
   46.9690   30.3550   48.2420 H   0  0  0  0  0  0  0  0  0  0  0  0
   46.2170   29.3280   46.9900 H   0  0  0  0  0  0  0  0  0  0  0  0
   44.7670   31.0770   46.3370 H   0  0  0  0  0  0  0  0  0  0  0  0
   44.7000   35.2020   44.1270 C   0  0  0  0  0  0  0  0  0  0  0  0
   45.4110   35.4480   42.9430 C   0  0  0  0  0  0  0  0  0  0  0  0
   46.6570   34.7820   42.8030 C   0  0  0  0  0  0  0  0  0  0  0  0
   47.0770   33.9650   43.7990 N   0  0  0  0  0  0  0  0  0  0  0  0
   46.3570   33.7680   44.9070 C   0  0  0  0  0  0  0  0  0  0  0  0
   45.1790   34.3920   45.0500 N   0  0  0  0  0  0  0  0  0  0  0  0
   45.1140   36.0890   42.1250 H   0  0  0  0  0  0  0  0  0  0  0  0
   47.2750   34.9120   41.9180 H   0  0  0  0  0  0  0  0  0  0  0  0
   43.5050   35.8460   44.2590 O   0  0  0  0  0  0  0  0  0  0  0  0
   42.7240   35.7000   43.6340 H   0  0  0  0  0  0  0  0  0  0  0  0
   44.8900   33.6610   47.1580 O   0  0  0  0  0  0  0  0  0  0  0  0
   44.0700   33.3360   46.7190 H   0  0  0  0  0  0  0  0  0  0  0  0
   44.6870   31.2360   48.4120 O   0  0  0  0  0  0  0  0  0  0  0  0
   45.4550   31.1830   49.5390 C   0  0  0  0  0  0  0  0  0  0  0  0
   44.7770   31.3910   50.4170 H   0  0  0  0  0  0  0  0  0  0  0  0
  1 24  1  0  0  0  0
  1  6  1  0  0  0  0
  1  7  1  1  0  0  0
  2  8  1  1  0  0  0
  2  1  1  0  0  0  0
  3  2  1  0  0  0  0
  3  4  1  0  0  0  0
  4  5  1  0  0  0  0
  5  6  1  0  0  0  0
  5 11  1  0  0  0  0
  6 13  1  6  0  0  0
  6 26  1  0  0  0  0
  9  3  1  0  0  0  0
 10  3  1  0  0  0  0
 12  5  1  0  0  0  0
 14 22  1  0  0  0  0
 14 19  1  0  0  0  0
 15 14  2  0  0  0  0
 16 15  1  0  0  0  0
 16 17  2  0  0  0  0
 17 18  1  0  0  0  0
 18 19  2  0  0  0  0
 18  2  1  0  0  0  0
 20 15  1  0  0  0  0
 21 16  1  0  0  0  0
 23 22  1  0  0  0  0
 25 24  1  0  0  0  0
 26 27  1  0  0  0  0
 27 28  1  0  0  0  0
M  END
>  <minimizedAffinity>
-5.51234055

>  <minimizedRMSD>
1.04011118

$$$$
