
 OpenBabel03252504303D

 26 26  0  0  0  0  0  0  0  0999 V2000
   42.5390   35.2490   40.8300 O   0  0  0  0  0  0  0  0  0  0  0  0
   41.2850   35.6670   41.2200 C   0  0  0  0  0  0  0  0  0  0  0  0
   41.2930   35.6350   42.3580 H   0  0  0  0  0  0  0  0  0  0  0  0
   41.0540   36.6980   40.9310 H   0  0  0  0  0  0  0  0  0  0  0  0
   40.2450   33.5310   41.6240 C   0  0  0  0  0  0  0  0  0  0  0  0
   40.2050   34.7130   40.8600 C   0  0  0  0  0  0  0  0  0  0  0  0
   39.2160   34.8370   39.9300 C   0  0  0  0  0  0  0  0  0  0  0  0
   38.3560   33.8260   39.8130 N   0  0  0  0  0  0  0  0  0  0  0  0
   38.3800   32.7100   40.5260 C   0  0  0  0  0  0  0  0  0  0  0  0
   39.3560   32.5040   41.4940 N   0  0  0  0  0  0  0  0  0  0  0  0
   40.9910   33.3280   42.3940 H   0  0  0  0  0  0  0  0  0  0  0  0
   39.2460   35.7670   39.3800 H   0  0  0  0  0  0  0  0  0  0  0  0
   37.6480   31.9320   40.3750 H   0  0  0  0  0  0  0  0  0  0  0  0
   43.7570   35.6410   41.3640 C   0  0  0  0  0  0  0  0  0  0  0  0
   43.9890   35.3080   42.6420 C   0  0  0  0  0  0  0  0  0  0  0  0
   45.2500   35.6300   43.4290 C   0  0  0  0  0  0  0  0  0  0  0  0
   45.1070   36.6410   43.8270 H   0  0  0  0  0  0  0  0  0  0  0  0
   46.1250   35.5760   42.7700 H   0  0  0  0  0  0  0  0  0  0  0  0
   45.3280   34.7330   44.4600 O   0  0  0  0  0  0  0  0  0  0  0  0
   46.0240   32.5060   43.1850 O   0  0  0  0  0  0  0  0  0  0  0  0
   46.4880   33.5310   44.1760 P   0  0  1  0  0  0  0  0  0  0  0  0
   47.9060   34.2440   43.5890 O   0  0  0  0  0  0  0  0  0  0  0  0
   48.2020   34.8780   44.3120 H   0  0  0  0  0  0  0  0  0  0  0  0
   46.8790   32.7960   45.6570 O   0  0  0  0  0  0  0  0  0  0  0  0
   45.8640   33.0060   46.6100 C   0  0  0  0  0  0  0  0  0  0  0  0
   46.2790   33.5090   47.5160 H   0  0  0  0  0  0  0  0  0  0  0  0
  1  2  1  0  0  0  0
  1 14  1  0  0  0  0
  2  3  1  0  0  0  0
  4  2  1  0  0  0  0
  5 11  1  0  0  0  0
  6  2  1  0  0  0  0
  6  5  2  0  0  0  0
  7  6  1  0  0  0  0
  8  7  2  0  0  0  0
  8  9  1  0  0  0  0
  9 10  2  0  0  0  0
 10  5  1  0  0  0  0
 12  7  1  0  0  0  0
 13  9  1  0  0  0  0
 14 15  2  0  0  0  0
 15 16  1  0  0  0  0
 16 17  1  0  0  0  0
 16 19  1  0  0  0  0
 18 16  1  0  0  0  0
 21 20  2  6  0  0  0
 21 19  1  0  0  0  0
 21 24  1  0  0  0  0
 22 21  1  0  0  0  0
 22 23  1  0  0  0  0
 24 25  1  0  0  0  0
 25 26  1  0  0  0  0
M  END
>  <minimizedAffinity>
-4.2372961

>  <minimizedRMSD>
0.655877411

$$$$
