
 OpenBabel03242512553D

 22 22  0  0  0  0  0  0  0  0999 V2000
   36.6690   27.7980   42.3570 C   0  0  0  0  0  3  0  0  0  0  0  0
   36.5800   28.2990   41.1360 C   0  0  0  0  0  3  0  0  0  0  0  0
   37.6200   26.7190   42.5920 C   0  0  0  0  0  0  0  0  0  0  0  0
   37.3090   25.4450   42.0890 C   0  0  0  0  0  0  0  0  0  0  0  0
   38.2270   24.4070   42.3160 C   0  0  0  0  0  0  0  0  0  0  0  0
   39.3590   24.6830   43.0070 N   0  0  0  0  0  0  0  0  0  0  0  0
   39.6270   25.9190   43.4770 C   0  0  0  0  0  0  0  0  0  0  0  0
   38.7660   26.9220   43.2710 N   0  0  0  0  0  0  0  0  0  0  0  0
   36.4070   25.2090   41.5360 H   0  0  0  0  0  0  0  0  0  0  0  0
   37.9860   23.4180   41.9260 H   0  0  0  0  0  0  0  0  0  0  0  0
   40.5550   26.1130   44.0340 H   0  0  0  0  0  0  0  0  0  0  0  0
   35.6570   29.3940   40.7660 C   0  0  0  0  0  0  0  0  0  0  0  0
   34.5880   29.1690   40.9640 H   0  0  0  0  0  0  0  0  0  0  0  0
   35.7230   29.4770   39.6480 H   0  0  0  0  0  0  0  0  0  0  0  0
   36.0820   30.6100   41.2590 O   0  0  0  0  0  0  0  0  0  0  0  0
   36.6600   30.9740   38.7890 O   0  0  0  0  0  0  0  0  0  0  0  0
   37.0700   31.4380   40.1610 P   0  0  1  0  0  0  0  0  0  0  0  0
   36.8760   33.0990   40.3020 O   0  0  0  0  0  0  0  0  0  0  0  0
   36.2950   33.4190   39.5420 H   0  0  0  0  0  0  0  0  0  0  0  0
   38.7110   31.0940   40.3730 O   0  0  0  0  0  0  0  0  0  0  0  0
   39.3710   32.1110   41.0520 C   0  0  0  0  0  2  0  0  0  0  0  0
   40.4520   31.8430   41.0640 H   0  0  0  0  0  0  0  0  0  0  0  0
  1  3  1  0  0  0  0
  2  1  2  0  0  0  0
  3  8  1  0  0  0  0
  4  5  1  0  0  0  0
  4  3  2  0  0  0  0
  5  6  2  0  0  0  0
  6  7  1  0  0  0  0
  7 11  1  0  0  0  0
  8  7  2  0  0  0  0
  9  4  1  0  0  0  0
 10  5  1  0  0  0  0
 12 13  1  0  0  0  0
 12  2  1  0  0  0  0
 12 15  1  0  0  0  0
 14 12  1  0  0  0  0
 17 16  2  6  0  0  0
 17 18  1  0  0  0  0
 17 20  1  0  0  0  0
 17 15  1  0  0  0  0
 19 18  1  0  0  0  0
 20 21  1  0  0  0  0
 21 22  1  0  0  0  0
M  END
>  <minimizedAffinity>
-4.38624382

$$$$

 OpenBabel03242512553D

 22 22  0  0  0  0  0  0  0  0999 V2000
   37.9990   28.0280   42.8960 C   0  0  0  0  0  3  0  0  0  0  0  0
   38.7160   28.9580   42.2890 C   0  0  0  0  0  3  0  0  0  0  0  0
   38.4780   26.6530   42.8600 C   0  0  0  0  0  0  0  0  0  0  0  0
   39.6750   26.3540   43.5300 C   0  0  0  0  0  0  0  0  0  0  0  0
   40.1360   25.0280   43.4950 C   0  0  0  0  0  0  0  0  0  0  0  0
   39.4080   24.1080   42.8160 N   0  0  0  0  0  0  0  0  0  0  0  0
   38.2620   24.4290   42.1810 C   0  0  0  0  0  0  0  0  0  0  0  0
   37.8060   25.6870   42.2040 N   0  0  0  0  0  0  0  0  0  0  0  0
   40.2680   27.0790   44.0770 H   0  0  0  0  0  0  0  0  0  0  0  0
   41.0650   24.7950   44.0160 H   0  0  0  0  0  0  0  0  0  0  0  0
   37.6930   23.6610   41.6390 H   0  0  0  0  0  0  0  0  0  0  0  0
   38.3410   30.3880   42.2530 C   0  0  0  0  0  0  0  0  0  0  0  0
   38.8200   31.0000   43.0460 H   0  0  0  0  0  0  0  0  0  0  0  0
   37.2460   30.4170   42.5020 H   0  0  0  0  0  0  0  0  0  0  0  0
   38.4520   30.9140   40.9830 O   0  0  0  0  0  0  0  0  0  0  0  0
   36.8320   29.8640   39.2980 O   0  0  0  0  0  0  0  0  0  0  0  0
   36.9510   31.0540   40.2120 P   0  0  1  0  0  0  0  0  0  0  0  0
   35.6950   31.0690   41.3250 O   0  0  0  0  0  0  0  0  0  0  0  0
   35.2590   30.1590   41.3280 H   0  0  0  0  0  0  0  0  0  0  0  0
   36.8260   32.4580   39.2800 O   0  0  0  0  0  0  0  0  0  0  0  0
   37.6530   33.4710   39.7520 C   0  0  0  0  0  2  0  0  0  0  0  0
   37.4370   34.3760   39.1410 H   0  0  0  0  0  0  0  0  0  0  0  0
  2  1  2  0  0  0  0
  3  1  1  0  0  0  0
  3  4  1  0  0  0  0
  4  9  1  0  0  0  0
  5  4  2  0  0  0  0
  5 10  1  0  0  0  0
  6  5  1  0  0  0  0
  7  8  1  0  0  0  0
  7  6  2  0  0  0  0
  8  3  2  0  0  0  0
 11  7  1  0  0  0  0
 12  2  1  0  0  0  0
 12 14  1  0  0  0  0
 12 13  1  0  0  0  0
 15 12  1  0  0  0  0
 17 16  2  6  0  0  0
 17 15  1  0  0  0  0
 17 18  1  0  0  0  0
 18 19  1  0  0  0  0
 20 21  1  0  0  0  0
 20 17  1  0  0  0  0
 22 21  1  0  0  0  0
M  END
>  <minimizedAffinity>
-4.1483078

$$$$

 OpenBabel03242512553D

 22 22  0  0  0  0  0  0  0  0999 V2000
   36.5610   27.9470   40.0540 C   0  0  0  0  0  3  0  0  0  0  0  0
   35.9110   28.7710   40.8590 C   0  0  0  0  0  3  0  0  0  0  0  0
   36.7100   26.5560   40.4640 C   0  0  0  0  0  0  0  0  0  0  0  0
   37.1570   26.2970   41.7700 C   0  0  0  0  0  0  0  0  0  0  0  0
   37.2990   24.9570   42.1630 C   0  0  0  0  0  0  0  0  0  0  0  0
   37.0020   23.9850   41.2670 N   0  0  0  0  0  0  0  0  0  0  0  0
   36.5750   24.2680   40.0190 C   0  0  0  0  0  0  0  0  0  0  0  0
   36.4330   25.5390   39.6250 N   0  0  0  0  0  0  0  0  0  0  0  0
   37.3980   27.0650   42.4970 H   0  0  0  0  0  0  0  0  0  0  0  0
   37.6450   24.7560   43.1770 H   0  0  0  0  0  0  0  0  0  0  0  0
   36.3410   23.4570   39.3140 H   0  0  0  0  0  0  0  0  0  0  0  0
   35.6920   30.2020   40.5610 C   0  0  0  0  0  0  0  0  0  0  0  0
   34.6730   30.5640   40.8130 H   0  0  0  0  0  0  0  0  0  0  0  0
   35.7500   30.2880   39.4430 H   0  0  0  0  0  0  0  0  0  0  0  0
   36.7120   30.9900   41.0520 O   0  0  0  0  0  0  0  0  0  0  0  0
   36.9590   31.3990   38.5340 O   0  0  0  0  0  0  0  0  0  0  0  0
   37.3990   31.9700   39.8550 P   0  0  1  0  0  0  0  0  0  0  0  0
   36.8890   33.5630   40.0060 O   0  0  0  0  0  0  0  0  0  0  0  0
   36.1830   33.7400   39.3080 H   0  0  0  0  0  0  0  0  0  0  0  0
   39.0890   31.9680   39.9010 O   0  0  0  0  0  0  0  0  0  0  0  0
   39.5980   33.1840   40.3400 C   0  0  0  0  0  2  0  0  0  0  0  0
   40.7060   33.1220   40.2510 H   0  0  0  0  0  0  0  0  0  0  0  0
  1  3  1  0  0  0  0
  1  2  2  0  0  0  0
  3  4  1  0  0  0  0
  4  5  2  0  0  0  0
  4  9  1  0  0  0  0
  5 10  1  0  0  0  0
  6  5  1  0  0  0  0
  7  6  2  0  0  0  0
  8  7  1  0  0  0  0
  8  3  2  0  0  0  0
 11  7  1  0  0  0  0
 12 13  1  0  0  0  0
 12  2  1  0  0  0  0
 12 15  1  0  0  0  0
 14 12  1  0  0  0  0
 17 16  2  6  0  0  0
 17 20  1  0  0  0  0
 17 18  1  0  0  0  0
 17 15  1  0  0  0  0
 19 18  1  0  0  0  0
 20 21  1  0  0  0  0
 22 21  1  0  0  0  0
M  END
>  <minimizedAffinity>
-3.95066547

$$$$

 OpenBabel03242512553D

 22 22  0  0  0  0  0  0  0  0999 V2000
   37.0590   29.8300   41.8040 C   0  0  0  0  0  3  0  0  0  0  0  0
   37.8010   29.2890   42.7560 C   0  0  0  0  0  3  0  0  0  0  0  0
   37.5990   30.9690   41.0720 C   0  0  0  0  0  0  0  0  0  0  0  0
   36.7890   31.5690   40.0950 C   0  0  0  0  0  0  0  0  0  0  0  0
   37.3100   32.6660   39.3910 C   0  0  0  0  0  0  0  0  0  0  0  0
   38.5630   33.0880   39.6870 N   0  0  0  0  0  0  0  0  0  0  0  0
   39.3160   32.4880   40.6320 C   0  0  0  0  0  0  0  0  0  0  0  0
   38.8370   31.4410   41.3140 N   0  0  0  0  0  0  0  0  0  0  0  0
   35.7850   31.2420   39.8470 H   0  0  0  0  0  0  0  0  0  0  0  0
   36.6810   33.1330   38.6330 H   0  0  0  0  0  0  0  0  0  0  0  0
   40.3300   32.8540   40.8510 H   0  0  0  0  0  0  0  0  0  0  0  0
   37.3710   28.1320   43.5700 C   0  0  0  0  0  0  0  0  0  0  0  0
   36.8960   28.4100   44.5350 H   0  0  0  0  0  0  0  0  0  0  0  0
   38.3170   27.6060   43.8660 H   0  0  0  0  0  0  0  0  0  0  0  0
   36.6510   27.2210   42.8260 O   0  0  0  0  0  0  0  0  0  0  0  0
   37.8720   26.4110   40.7230 O   0  0  0  0  0  0  0  0  0  0  0  0
   37.6370   26.0180   42.1560 P   0  0  1  0  0  0  0  0  0  0  0  0
   39.0950   25.8980   42.9800 O   0  0  0  0  0  0  0  0  0  0  0  0
   39.8100   26.3520   42.4310 H   0  0  0  0  0  0  0  0  0  0  0  0
   36.9090   24.4920   42.1790 O   0  0  0  0  0  0  0  0  0  0  0  0
   37.3770   23.6770   41.1550 C   0  0  0  0  0  2  0  0  0  0  0  0
   36.7810   22.7380   41.1920 H   0  0  0  0  0  0  0  0  0  0  0  0
  1  2  2  0  0  0  0
  2 12  1  0  0  0  0
  3  8  1  0  0  0  0
  3  1  1  0  0  0  0
  4  3  2  0  0  0  0
  5  6  2  0  0  0  0
  5  4  1  0  0  0  0
  6  7  1  0  0  0  0
  7 11  1  0  0  0  0
  7  8  2  0  0  0  0
  9  4  1  0  0  0  0
 10  5  1  0  0  0  0
 12 14  1  0  0  0  0
 12 13  1  0  0  0  0
 15 12  1  0  0  0  0
 17 16  2  6  0  0  0
 17 20  1  0  0  0  0
 17 15  1  0  0  0  0
 17 18  1  0  0  0  0
 19 18  1  0  0  0  0
 21 22  1  0  0  0  0
 21 20  1  0  0  0  0
M  END
>  <minimizedAffinity>
-3.80193233

$$$$

 OpenBabel03242512553D

 22 22  0  0  0  0  0  0  0  0999 V2000
   35.5880   29.4390   39.1560 C   0  0  0  0  0  3  0  0  0  0  0  0
   36.1560   30.5200   39.6640 C   0  0  0  0  0  3  0  0  0  0  0  0
   35.4310   29.3570   37.7100 C   0  0  0  0  0  0  0  0  0  0  0  0
   34.1860   28.9520   37.2030 C   0  0  0  0  0  0  0  0  0  0  0  0
   34.0370   28.8740   35.8090 C   0  0  0  0  0  0  0  0  0  0  0  0
   35.0970   29.1890   35.0260 N   0  0  0  0  0  0  0  0  0  0  0  0
   36.2800   29.5740   35.5460 C   0  0  0  0  0  0  0  0  0  0  0  0
   36.4430   29.6560   36.8720 N   0  0  0  0  0  0  0  0  0  0  0  0
   33.3300   28.6960   37.8170 H   0  0  0  0  0  0  0  0  0  0  0  0
   33.0700   28.5600   35.4150 H   0  0  0  0  0  0  0  0  0  0  0  0
   37.1230   29.8240   34.8850 H   0  0  0  0  0  0  0  0  0  0  0  0
   36.3740   30.7260   41.1130 C   0  0  0  0  0  0  0  0  0  0  0  0
   35.7310   30.0940   41.7600 H   0  0  0  0  0  0  0  0  0  0  0  0
   36.0320   31.7760   41.3200 H   0  0  0  0  0  0  0  0  0  0  0  0
   37.7130   30.6950   41.4380 O   0  0  0  0  0  0  0  0  0  0  0  0
   39.5250   29.5630   42.8530 O   0  0  0  0  0  0  0  0  0  0  0  0
   38.1160   29.3430   42.3750 P   0  0  1  0  0  0  0  0  0  0  0  0
   37.0720   29.1740   43.6780 O   0  0  0  0  0  0  0  0  0  0  0  0
   37.5420   29.5010   44.5090 H   0  0  0  0  0  0  0  0  0  0  0  0
   38.0700   27.9020   41.4910 O   0  0  0  0  0  0  0  0  0  0  0  0
   37.0110   27.0890   41.8780 C   0  0  0  0  0  2  0  0  0  0  0  0
   37.1150   26.1350   41.3150 H   0  0  0  0  0  0  0  0  0  0  0  0
  1  2  2  0  0  0  0
  2 12  1  0  0  0  0
  3  1  1  0  0  0  0
  4  3  1  0  0  0  0
  4  9  1  0  0  0  0
  5  4  2  0  0  0  0
  6  7  2  0  0  0  0
  6  5  1  0  0  0  0
  7  8  1  0  0  0  0
  8  3  2  0  0  0  0
 10  5  1  0  0  0  0
 11  7  1  0  0  0  0
 12 14  1  0  0  0  0
 12 15  1  0  0  0  0
 12 13  1  0  0  0  0
 15 17  1  0  0  0  0
 17 16  2  1  0  0  0
 17 18  1  0  0  0  0
 18 19  1  0  0  0  0
 20 21  1  0  0  0  0
 20 17  1  0  0  0  0
 22 21  1  0  0  0  0
M  END
>  <minimizedAffinity>
-3.66927695

$$$$

 OpenBabel03242512553D

 22 22  0  0  0  0  0  0  0  0999 V2000
   39.1850   28.6930   41.7590 C   0  0  0  0  0  3  0  0  0  0  0  0
   39.0590   28.3200   43.0220 C   0  0  0  0  0  3  0  0  0  0  0  0
   38.5910   29.9590   41.3510 C   0  0  0  0  0  0  0  0  0  0  0  0
   39.4240   31.0860   41.2810 C   0  0  0  0  0  0  0  0  0  0  0  0
   38.8510   32.3060   40.8870 C   0  0  0  0  0  0  0  0  0  0  0  0
   37.5270   32.3340   40.5970 N   0  0  0  0  0  0  0  0  0  0  0  0
   36.7540   31.2320   40.6750 C   0  0  0  0  0  0  0  0  0  0  0  0
   37.2820   30.0600   41.0480 N   0  0  0  0  0  0  0  0  0  0  0  0
   40.4840   31.0790   41.5100 H   0  0  0  0  0  0  0  0  0  0  0  0
   39.4980   33.1820   40.8320 H   0  0  0  0  0  0  0  0  0  0  0  0
   35.6820   31.2860   40.4330 H   0  0  0  0  0  0  0  0  0  0  0  0
   39.6140   27.0610   43.5630 C   0  0  0  0  0  0  0  0  0  0  0  0
   38.9180   26.5110   44.2300 H   0  0  0  0  0  0  0  0  0  0  0  0
   40.4580   27.3710   44.2360 H   0  0  0  0  0  0  0  0  0  0  0  0
   40.1850   26.2870   42.5750 O   0  0  0  0  0  0  0  0  0  0  0  0
   39.6020   24.5140   40.8200 O   0  0  0  0  0  0  0  0  0  0  0  0
   39.2720   24.9020   42.2350 P   0  0  1  0  0  0  0  0  0  0  0  0
   39.6470   23.6520   43.2910 O   0  0  0  0  0  0  0  0  0  0  0  0
   40.2450   22.9970   42.8100 H   0  0  0  0  0  0  0  0  0  0  0  0
   37.6080   25.1780   42.3390 O   0  0  0  0  0  0  0  0  0  0  0  0
   36.8820   24.2680   41.5800 C   0  0  0  0  0  2  0  0  0  0  0  0
   35.8150   24.5810   41.6340 H   0  0  0  0  0  0  0  0  0  0  0  0
  1  2  2  0  0  0  0
  2 12  1  0  0  0  0
  3  1  1  0  0  0  0
  4  3  1  0  0  0  0
  4  9  1  0  0  0  0
  5  4  2  0  0  0  0
  6  7  2  0  0  0  0
  6  5  1  0  0  0  0
  7  8  1  0  0  0  0
  8  3  2  0  0  0  0
 10  5  1  0  0  0  0
 11  7  1  0  0  0  0
 12 13  1  0  0  0  0
 12 14  1  0  0  0  0
 15 12  1  0  0  0  0
 17 16  2  6  0  0  0
 17 20  1  0  0  0  0
 17 15  1  0  0  0  0
 17 18  1  0  0  0  0
 19 18  1  0  0  0  0
 21 22  1  0  0  0  0
 21 20  1  0  0  0  0
M  END
>  <minimizedAffinity>
-3.65425587

$$$$

 OpenBabel03242512553D

 22 22  0  0  0  0  0  0  0  0999 V2000
   38.1430   29.1260   42.6790 C   0  0  0  0  0  3  0  0  0  0  0  0
   37.7150   27.9830   42.1680 C   0  0  0  0  0  3  0  0  0  0  0  0
   38.1010   30.3150   41.8390 C   0  0  0  0  0  0  0  0  0  0  0  0
   36.9230   30.5720   41.1180 C   0  0  0  0  0  0  0  0  0  0  0  0
   36.8830   31.7190   40.3100 C   0  0  0  0  0  0  0  0  0  0  0  0
   37.9780   32.5170   40.2640 N   0  0  0  0  0  0  0  0  0  0  0  0
   39.0940   32.2410   40.9690 C   0  0  0  0  0  0  0  0  0  0  0  0
   39.1520   31.1520   41.7460 N   0  0  0  0  0  0  0  0  0  0  0  0
   36.0400   29.9430   41.1450 H   0  0  0  0  0  0  0  0  0  0  0  0
   35.9690   31.9190   39.7500 H   0  0  0  0  0  0  0  0  0  0  0  0
   39.9680   32.9070   40.9120 H   0  0  0  0  0  0  0  0  0  0  0  0
   37.7040   26.7060   42.9140 C   0  0  0  0  0  0  0  0  0  0  0  0
   36.7510   26.5010   43.4440 H   0  0  0  0  0  0  0  0  0  0  0  0
   38.4590   26.8330   43.7360 H   0  0  0  0  0  0  0  0  0  0  0  0
   38.1620   25.6590   42.1420 O   0  0  0  0  0  0  0  0  0  0  0  0
   40.1660   26.0890   43.6800 O   0  0  0  0  0  0  0  0  0  0  0  0
   39.6930   25.1230   42.6280 P   0  0  1  0  0  0  0  0  0  0  0  0
   39.6220   23.5650   43.2490 O   0  0  0  0  0  0  0  0  0  0  0  0
   39.6650   23.6200   44.2560 H   0  0  0  0  0  0  0  0  0  0  0  0
   40.8130   25.1190   41.3620 O   0  0  0  0  0  0  0  0  0  0  0  0
   41.1330   26.4070   40.9480 C   0  0  0  0  0  2  0  0  0  0  0  0
   41.7970   26.3050   40.0600 H   0  0  0  0  0  0  0  0  0  0  0  0
  2  1  2  0  0  0  0
  2 12  1  0  0  0  0
  3  1  1  0  0  0  0
  4  9  1  0  0  0  0
  4  3  2  0  0  0  0
  5  4  1  0  0  0  0
  6  5  2  0  0  0  0
  6  7  1  0  0  0  0
  7  8  2  0  0  0  0
  8  3  1  0  0  0  0
 10  5  1  0  0  0  0
 11  7  1  0  0  0  0
 12 13  1  0  0  0  0
 12 14  1  0  0  0  0
 15 17  1  0  0  0  0
 15 12  1  0  0  0  0
 17 18  1  0  0  0  0
 17 16  2  1  0  0  0
 18 19  1  0  0  0  0
 20 17  1  0  0  0  0
 21 20  1  0  0  0  0
 22 21  1  0  0  0  0
M  END
>  <minimizedAffinity>
-3.60677767

$$$$

 OpenBabel03242512553D

 22 22  0  0  0  0  0  0  0  0999 V2000
   38.4780   27.2940   40.1870 C   0  0  0  0  0  3  0  0  0  0  0  0
   38.7200   28.5810   40.0050 C   0  0  0  0  0  3  0  0  0  0  0  0
   38.9990   26.6580   41.3900 C   0  0  0  0  0  0  0  0  0  0  0  0
   39.2220   27.4630   42.5190 C   0  0  0  0  0  0  0  0  0  0  0  0
   39.7230   26.8490   43.6770 C   0  0  0  0  0  0  0  0  0  0  0  0
   39.9680   25.5170   43.6490 N   0  0  0  0  0  0  0  0  0  0  0  0
   39.7440   24.7710   42.5470 C   0  0  0  0  0  0  0  0  0  0  0  0
   39.2650   25.3380   41.4330 N   0  0  0  0  0  0  0  0  0  0  0  0
   39.0310   28.5300   42.5560 H   0  0  0  0  0  0  0  0  0  0  0  0
   39.8960   27.4740   44.5540 H   0  0  0  0  0  0  0  0  0  0  0  0
   39.9520   23.6910   42.5540 H   0  0  0  0  0  0  0  0  0  0  0  0
   38.2480   29.3440   38.8290 C   0  0  0  0  0  0  0  0  0  0  0  0
   37.3580   29.9750   39.0290 H   0  0  0  0  0  0  0  0  0  0  0  0
   37.8860   28.5730   38.0980 H   0  0  0  0  0  0  0  0  0  0  0  0
   39.2820   30.0030   38.1980 O   0  0  0  0  0  0  0  0  0  0  0  0
   39.9000   32.2930   39.1680 O   0  0  0  0  0  0  0  0  0  0  0  0
   39.0230   31.6740   38.1140 P   0  0  1  0  0  0  0  0  0  0  0  0
   39.4140   32.2740   36.5960 O   0  0  0  0  0  0  0  0  0  0  0  0
   40.3120   32.7310   36.6550 H   0  0  0  0  0  0  0  0  0  0  0  0
   37.4190   32.1010   38.4350 O   0  0  0  0  0  0  0  0  0  0  0  0
   37.3220   32.9950   39.4950 C   0  0  0  0  0  2  0  0  0  0  0  0
   36.2360   33.1440   39.6930 H   0  0  0  0  0  0  0  0  0  0  0  0
  1  3  1  0  0  0  0
  2  1  2  0  0  0  0
  3  8  2  0  0  0  0
  3  4  1  0  0  0  0
  4  9  1  0  0  0  0
  4  5  2  0  0  0  0
  5 10  1  0  0  0  0
  6  5  1  0  0  0  0
  7 11  1  0  0  0  0
  7  6  2  0  0  0  0
  8  7  1  0  0  0  0
 12 13  1  0  0  0  0
 12  2  1  0  0  0  0
 14 12  1  0  0  0  0
 15 12  1  0  0  0  0
 17 15  1  0  0  0  0
 17 20  1  0  0  0  0
 17 16  2  1  0  0  0
 18 19  1  0  0  0  0
 18 17  1  0  0  0  0
 20 21  1  0  0  0  0
 21 22  1  0  0  0  0
M  END
>  <minimizedAffinity>
-3.51279783

$$$$

 OpenBabel03242512553D

 22 22  0  0  0  0  0  0  0  0999 V2000
   37.2790   28.8460   39.5830 C   0  0  0  0  0  3  0  0  0  0  0  0
   37.9570   29.9460   39.8620 C   0  0  0  0  0  3  0  0  0  0  0  0
   37.1650   27.8250   40.6170 C   0  0  0  0  0  0  0  0  0  0  0  0
   36.8790   28.2420   41.9270 C   0  0  0  0  0  0  0  0  0  0  0  0
   36.7690   27.2580   42.9220 C   0  0  0  0  0  0  0  0  0  0  0  0
   36.9460   25.9610   42.5710 N   0  0  0  0  0  0  0  0  0  0  0  0
   37.2210   25.5940   41.3020 C   0  0  0  0  0  0  0  0  0  0  0  0
   37.3290   26.5170   40.3400 N   0  0  0  0  0  0  0  0  0  0  0  0
   36.7350   29.2760   42.2220 H   0  0  0  0  0  0  0  0  0  0  0  0
   36.5460   27.5810   43.9390 H   0  0  0  0  0  0  0  0  0  0  0  0
   37.3590   24.5330   41.0480 H   0  0  0  0  0  0  0  0  0  0  0  0
   38.1460   31.0560   38.9030 C   0  0  0  0  0  0  0  0  0  0  0  0
   37.2390   31.6780   38.7480 H   0  0  0  0  0  0  0  0  0  0  0  0
   38.3220   30.5660   37.9080 H   0  0  0  0  0  0  0  0  0  0  0  0
   39.2900   31.7770   39.1740 O   0  0  0  0  0  0  0  0  0  0  0  0
   41.0420   30.7920   37.5840 O   0  0  0  0  0  0  0  0  0  0  0  0
   40.2270   32.0400   37.7880 P   0  0  1  0  0  0  0  0  0  0  0  0
   39.2610   32.3380   36.4480 O   0  0  0  0  0  0  0  0  0  0  0  0
   39.2260   31.4990   35.8870 H   0  0  0  0  0  0  0  0  0  0  0  0
   41.2850   33.3480   37.9560 O   0  0  0  0  0  0  0  0  0  0  0  0
   41.5470   33.6360   39.2910 C   0  0  0  0  0  2  0  0  0  0  0  0
   42.1700   34.5580   39.3060 H   0  0  0  0  0  0  0  0  0  0  0  0
  1  2  2  0  0  0  0
  1  3  1  0  0  0  0
  3  4  1  0  0  0  0
  4  9  1  0  0  0  0
  4  5  2  0  0  0  0
  5 10  1  0  0  0  0
  6  5  1  0  0  0  0
  7  6  2  0  0  0  0
  8  3  2  0  0  0  0
  8  7  1  0  0  0  0
 11  7  1  0  0  0  0
 12 15  1  0  0  0  0
 12  2  1  0  0  0  0
 13 12  1  0  0  0  0
 14 12  1  0  0  0  0
 17 16  2  6  0  0  0
 17 20  1  0  0  0  0
 17 15  1  0  0  0  0
 18 17  1  0  0  0  0
 19 18  1  0  0  0  0
 20 21  1  0  0  0  0
 21 22  1  0  0  0  0
M  END
>  <minimizedAffinity>
-3.50416565

$$$$
