
 OpenBabel03252504453D

 20 20  0  0  0  0  0  0  0  0999 V2000
   45.4100   34.6090   44.5290 C   0  0  0  0  0  0  0  0  0  0  0  0
   46.3990   33.9980   43.7510 C   0  0  0  0  0  0  0  0  0  0  0  0
   47.1420   32.9760   44.3440 C   0  0  0  0  0  0  0  0  0  0  0  0
   46.8740   32.6370   45.6130 N   0  0  0  0  0  0  0  0  0  0  0  0
   45.8970   33.2640   46.3340 C   0  0  0  0  0  0  0  0  0  0  0  0
   45.1640   34.2540   45.7850 N   0  0  0  0  0  0  0  0  0  0  0  0
   46.6240   34.2650   42.7250 H   0  0  0  0  0  0  0  0  0  0  0  0
   47.9210   32.4740   43.7710 H   0  0  0  0  0  0  0  0  0  0  0  0
   44.6170   35.7140   43.8830 C   0  0  0  0  0  0  0  0  0  0  0  0
   44.7890   35.7290   42.7930 H   0  0  0  0  0  0  0  0  0  0  0  0
   44.9750   36.6660   44.3490 H   0  0  0  0  0  0  0  0  0  0  0  0
   43.5550   35.5010   44.1180 H   0  0  0  0  0  0  0  0  0  0  0  0
   45.7280   32.8090   47.6400 O   0  0  0  0  0  0  0  0  0  0  0  0
   44.8250   31.2150   49.4560 O   0  0  0  0  0  0  0  0  0  0  0  0
   45.4960   31.2070   48.0890 P   0  0  1  0  0  0  0  0  0  0  0  0
   44.4610   30.3640   47.0560 O   0  0  0  0  0  0  0  0  0  0  0  0
   44.7600   29.4200   46.9750 H   0  0  0  0  0  0  0  0  0  0  0  0
   46.9770   30.3790   48.1490 O   0  0  0  0  0  0  0  0  0  0  0  0
   47.8300   31.1570   48.9560 C   0  0  0  0  0  0  0  0  0  0  0  0
   48.8990   30.9170   48.7920 H   0  0  0  0  0  0  0  0  0  0  0  0
  1  6  1  0  0  0  0
  2  3  1  0  0  0  0
  2  1  2  0  0  0  0
  3  4  2  0  0  0  0
  4  5  1  0  0  0  0
  5 13  1  0  0  0  0
  6  5  2  0  0  0  0
  7  2  1  0  0  0  0
  8  3  1  0  0  0  0
  9 12  1  0  0  0  0
  9 11  1  0  0  0  0
  9  1  1  0  0  0  0
 10  9  1  0  0  0  0
 13 15  1  0  0  0  0
 15 18  1  0  0  0  0
 15 14  2  1  0  0  0
 16 15  1  0  0  0  0
 17 16  1  0  0  0  0
 18 19  1  0  0  0  0
 20 19  1  0  0  0  0
M  END
>  <minimizedAffinity>
-4.0762639

>  <minimizedRMSD>
0.635735333

$$$$
