
 OpenBabel03242523263D

 38 40  0  0  1  0  0  0  0  0999 V2000
   46.3130   33.5320   44.7910 C   0  0  0  0  0  0  0  0  0  0  0  0
   45.7820   33.9670   45.7660 O   0  0  0  0  0  0  0  0  0  0  0  0
   44.4810   31.7980   42.9940 Cl  0  0  0  0  0  0  0  0  0  0  0  0
   44.5550   33.5500   42.8740 C   0  0  0  0  0  0  0  0  0  0  0  0
   45.4280   34.2110   43.7700 C   0  0  0  0  0  0  0  0  0  0  0  0
   45.3800   35.5650   43.5730 C   0  0  0  0  0  0  0  0  0  0  0  0
   44.6850   36.2910   42.7240 C   0  0  0  0  0  0  0  0  0  0  0  0
   43.8520   35.5930   41.8730 C   0  0  0  0  0  0  0  0  0  0  0  0
   43.7800   34.2440   41.9400 C   0  0  0  0  0  0  0  0  0  0  0  0
   46.0290   36.1820   44.2490 H   0  0  0  0  0  0  0  0  0  0  0  0
   44.7250   37.3820   42.6510 H   0  0  0  0  0  0  0  0  0  0  0  0
   43.2560   36.1770   41.1480 H   0  0  0  0  0  0  0  0  0  0  0  0
   42.9170   33.6560   41.0470 O   0  0  0  0  0  0  0  0  0  0  0  0
   40.6550   33.0590   39.8610 O   0  0  0  0  0  0  0  0  0  0  0  0
   41.2680   33.3030   41.2140 P   0  0  0  0  0  0  0  0  0  0  0  0
   41.0970   31.9440   42.2220 O   0  0  0  0  0  0  0  0  0  0  0  0
   40.1470   31.7950   42.4280 H   0  0  0  0  0  0  0  0  0  0  0  0
   40.4340   34.5540   42.0000 O   0  0  0  0  0  0  0  0  0  0  0  0
   40.5230   35.3740   41.4850 H   0  0  0  0  0  0  0  0  0  0  0  0
   47.3240   32.7220   44.0550 C   0  0  0  0  0  0  0  0  0  0  0  0
   48.1970   33.1920   43.1850 C   0  0  0  0  0  0  0  0  0  0  0  0
   48.9870   32.2320   42.5720 C   0  0  0  0  0  0  0  0  0  0  0  0
   48.7770   30.8810   42.9430 N   0  0  0  0  0  0  0  0  0  0  0  0
   47.8900   30.4910   43.8200 C   0  0  0  0  0  0  0  0  0  0  0  0
   47.0900   31.4400   44.4410 N   0  0  0  0  0  0  0  0  0  0  0  0
   49.7560   32.4060   41.8320 H   0  0  0  0  0  0  0  0  0  0  0  0
   47.8470   29.4240   44.0020 H   0  0  0  0  0  0  0  0  0  0  0  0
   48.5000   34.5730   42.8920 C   0  0  1  0  0  0  0  0  0  0  0  0
   49.3540   35.0460   41.9550 C   0  0  0  0  0  0  0  0  0  0  0  0
   47.9280   35.0900   41.4850 C   0  0  1  0  0  0  0  0  0  0  0  0
   48.0370   35.2330   43.6940 H   0  0  0  0  0  0  0  0  0  0  0  0
   50.0330   34.3630   41.3610 H   0  0  0  0  0  0  0  0  0  0  0  0
   49.8330   36.0480   42.0180 H   0  0  0  0  0  0  0  0  0  0  0  0
   47.4060   36.0630   41.5240 H   0  0  0  0  0  0  0  0  0  0  0  0
   47.4960   34.0690   40.6040 N   0  0  0  0  0  0  0  0  0  0  0  0
   46.4640   33.9550   40.5300 H   0  0  0  0  0  0  0  0  0  0  0  0
   48.1010   34.3350   39.3000 C   0  0  0  0  0  0  0  0  0  0  0  0
   47.2730   34.4280   38.5670 H   0  0  0  0  0  0  0  0  0  0  0  0
  1  2  2  0  0  0  0
  4  3  1  0  0  0  0
  4  5  1  0  0  0  0
  5  1  1  0  0  0  0
  6  5  2  0  0  0  0
  6 10  1  0  0  0  0
  7  6  1  0  0  0  0
  8  9  1  0  0  0  0
  8  7  2  0  0  0  0
  9  4  2  0  0  0  0
 11  7  1  0  0  0  0
 12  8  1  0  0  0  0
 13 15  1  0  0  0  0
 13  9  1  0  0  0  0
 14 15  2  0  0  0  0
 15 18  1  0  0  0  0
 15 16  1  0  0  0  0
 16 17  1  0  0  0  0
 19 18  1  0  0  0  0
 20 25  1  0  0  0  0
 20  1  1  0  0  0  0
 21 20  2  0  0  0  0
 22 23  2  0  0  0  0
 22 21  1  0  0  0  0
 23 24  1  0  0  0  0
 24 27  1  0  0  0  0
 24 25  2  0  0  0  0
 26 22  1  0  0  0  0
 28 21  1  0  0  0  0
 28 31  1  1  0  0  0
 29 33  1  0  0  0  0
 29 28  1  0  0  0  0
 30 34  1  6  0  0  0
 30 29  1  0  0  0  0
 30 28  1  0  0  0  0
 32 29  1  0  0  0  0
 35 30  1  0  0  0  0
 36 35  1  0  0  0  0
 37 35  1  0  0  0  0
 38 37  1  0  0  0  0
M  END
>  <minimizedAffinity>
-5.57720375

>  <minimizedRMSD>
0.319581568

$$$$
