
 OpenBabel03252500233D

 18 18  0  0  0  0  0  0  0  0999 V2000
   45.0020   35.4710   44.2380 C   0  0  0  0  0  0  0  0  0  0  0  0
   45.9440   34.9640   43.3290 C   0  0  0  0  0  0  0  0  0  0  0  0
   46.6920   33.8420   43.7530 C   0  0  0  0  0  0  0  0  0  0  0  0
   46.4730   33.3260   44.9720 N   0  0  0  0  0  0  0  0  0  0  0  0
   45.5390   33.8630   45.8170 C   0  0  0  0  0  0  0  0  0  0  0  0
   44.8210   34.9260   45.4340 N   0  0  0  0  0  0  0  0  0  0  0  0
   46.0890   35.4140   42.3520 H   0  0  0  0  0  0  0  0  0  0  0  0
   47.4280   33.4200   43.0830 H   0  0  0  0  0  0  0  0  0  0  0  0
   44.2800   36.5610   43.8200 O   0  0  0  0  0  0  0  0  0  0  0  0
   43.3950   36.5200   43.3450 H   0  0  0  0  0  0  0  0  0  0  0  0
   45.2950   33.3410   47.0930 O   0  0  0  0  0  0  0  0  0  0  0  0
   47.6030   32.6810   48.0560 O   0  0  0  0  0  0  0  0  0  0  0  0
   46.2390   32.0970   47.7830 P   0  0  2  0  0  0  0  0  0  0  0  0
   46.4290   30.8050   46.7080 O   0  0  0  0  0  0  0  0  0  0  0  0
   45.9770   31.0120   45.8370 H   0  0  0  0  0  0  0  0  0  0  0  0
   45.5980   31.5490   49.2250 O   0  0  0  0  0  0  0  0  0  0  0  0
   45.0870   30.2550   48.9880 C   0  0  0  0  0  0  0  0  0  0  0  0
   45.1030   30.1120   47.9010 H   0  0  0  0  0  0  0  0  0  0  0  0
  1  6  1  0  0  0  0
  2  3  1  0  0  0  0
  2  1  2  0  0  0  0
  3  4  2  0  0  0  0
  4  5  1  0  0  0  0
  5 11  1  0  0  0  0
  6  5  2  0  0  0  0
  7  2  1  0  0  0  0
  8  3  1  0  0  0  0
  9  1  1  0  0  0  0
 10  9  1  0  0  0  0
 11 13  1  0  0  0  0
 13 12  2  1  0  0  0
 13 16  1  0  0  0  0
 14 13  1  0  0  0  0
 15 14  1  0  0  0  0
 17 16  1  0  0  0  0
 18 17  1  0  0  0  0
M  END
>  <minimizedAffinity>
-4.2290864

>  <minimizedRMSD>
0.819091499

$$$$
