
 OpenBabel03252507093D

 29 30  0  0  1  0  0  0  0  0999 V2000
   44.5310   35.7780   44.5540 C   0  0  0  0  0  0  0  0  0  0  0  0
   45.0410   35.8530   43.2430 C   0  0  0  0  0  0  0  0  0  0  0  0
   46.0680   34.9720   42.9180 C   0  0  0  0  0  0  0  0  0  0  0  0
   46.5200   34.1070   43.8470 N   0  0  0  0  0  0  0  0  0  0  0  0
   46.0200   34.0530   45.0860 C   0  0  0  0  0  0  0  0  0  0  0  0
   45.0160   34.8970   45.4400 N   0  0  0  0  0  0  0  0  0  0  0  0
   43.7290   36.4470   44.8520 H   0  0  0  0  0  0  0  0  0  0  0  0
   44.6290   36.5740   42.5500 H   0  0  0  0  0  0  0  0  0  0  0  0
   45.4090   32.6820   47.0960 C   0  0  1  0  0  0  0  0  0  0  0  0
   46.4780   33.1370   46.1460 C   0  0  1  0  0  0  0  0  0  0  0  0
   46.8440   31.7730   45.5330 C   0  0  0  0  0  0  0  0  0  0  0  0
   46.5890   30.8240   46.4670 O   0  0  0  0  0  0  0  0  0  0  0  0
   46.1070   31.4290   47.6290 C   0  0  0  0  0  0  0  0  0  0  0  0
   44.5180   32.3220   46.5020 H   0  0  0  0  0  0  0  0  0  0  0  0
   47.3440   33.5450   46.6790 H   0  0  0  0  0  0  0  0  0  0  0  0
   46.3780   31.6330   44.5400 H   0  0  0  0  0  0  0  0  0  0  0  0
   47.9390   31.8210   45.3560 H   0  0  0  0  0  0  0  0  0  0  0  0
   46.9280   31.7820   48.2900 H   0  0  0  0  0  0  0  0  0  0  0  0
   45.3900   30.7760   48.1640 H   0  0  0  0  0  0  0  0  0  0  0  0
   45.0700   33.5900   48.0550 O   0  0  0  0  0  0  0  0  0  0  0  0
   44.1620   33.9500   47.8260 H   0  0  0  0  0  0  0  0  0  0  0  0
   46.5620   35.0530   41.6270 O   0  0  0  0  0  0  0  0  0  0  0  0
   48.2400   33.0210   41.2590 O   0  0  0  0  0  0  0  0  0  0  0  0
   48.1620   34.5390   41.2800 P   0  0  1  0  0  0  0  0  0  0  0  0
   48.6190   35.2140   39.8250 O   0  0  0  0  0  0  0  0  0  0  0  0
   49.5890   35.1100   39.7280 H   0  0  0  0  0  0  0  0  0  0  0  0
   49.1250   35.1080   42.5630 O   0  0  0  0  0  0  0  0  0  0  0  0
   50.3230   34.4100   42.5990 C   0  0  0  0  0  0  0  0  0  0  0  0
   50.9960   34.7790   43.3840 H   0  0  0  0  0  0  0  0  0  0  0  0
  1  7  1  0  0  0  0
  1  6  1  0  0  0  0
  2  1  2  0  0  0  0
  3  2  1  0  0  0  0
  3  4  2  0  0  0  0
  4  5  1  0  0  0  0
  5  6  2  0  0  0  0
  5 10  1  0  0  0  0
  8  2  1  0  0  0  0
  9 14  1  6  0  0  0
  9 13  1  0  0  0  0
  9 20  1  0  0  0  0
 10 15  1  1  0  0  0
 10  9  1  0  0  0  0
 11 10  1  0  0  0  0
 11 12  1  0  0  0  0
 12 13  1  0  0  0  0
 13 19  1  0  0  0  0
 13 18  1  0  0  0  0
 16 11  1  0  0  0  0
 17 11  1  0  0  0  0
 21 20  1  0  0  0  0
 22  3  1  0  0  0  0
 24 23  2  6  0  0  0
 24 22  1  0  0  0  0
 24 27  1  0  0  0  0
 25 24  1  0  0  0  0
 26 25  1  0  0  0  0
 27 28  1  0  0  0  0
 28 29  1  0  0  0  0
M  END
>  <minimizedAffinity>
-5.54648781

>  <minimizedRMSD>
0.563952386

$$$$
