
 OpenBabel03242512393D

 12 12  0  0  0  0  0  0  0  0999 V2000
   47.3160   34.2310   43.2800 C   0  0  0  0  0  0  0  0  0  0  0  0
   46.7050   33.6280   44.4120 C   0  0  0  0  0  0  0  0  0  0  0  0
   45.4210   34.0950   44.7900 C   0  0  0  0  0  0  0  0  0  0  0  0
   44.8600   35.0880   44.0450 N   0  0  0  0  0  0  0  0  0  0  0  0
   45.4850   35.6200   42.9850 C   0  0  0  0  0  0  0  0  0  0  0  0
   46.6910   35.1970   42.6120 N   0  0  0  0  0  0  0  0  0  0  0  0
   47.2290   32.8410   44.9470 H   0  0  0  0  0  0  0  0  0  0  0  0
   44.9570   33.6390   45.6490 H   0  0  0  0  0  0  0  0  0  0  0  0
   45.0430   36.4080   42.3900 H   0  0  0  0  0  0  0  0  0  0  0  0
   48.5550   33.7640   42.9340 O   0  0  0  0  0  0  0  0  0  0  0  0
   49.5780   34.6780   42.6040 C   0  0  0  0  0  0  0  0  0  0  0  0
   50.1090   34.9180   43.5470 H   0  0  0  0  0  0  0  0  0  0  0  0
  1  2  1  0  0  0  0
  2  3  2  0  0  0  0
  2  7  1  0  0  0  0
  3  8  1  0  0  0  0
  4  3  1  0  0  0  0
  5  4  2  0  0  0  0
  6  5  1  0  0  0  0
  6  1  2  0  0  0  0
  9  5  1  0  0  0  0
 10  1  1  0  0  0  0
 11 10  1  0  0  0  0
 11 12  1  0  0  0  0
M  END
>  <minimizedAffinity>
-2.75011826

>  <minimizedRMSD>
3.85355639

$$$$
