
 OpenBabel03252507563D

 37 39  0  0  1  0  0  0  0  0999 V2000
   36.6980   28.5220   41.9770 C   0  0  2  0  0  0  0  0  0  0  0  0
   36.3250   28.2920   40.5090 C   0  0  0  0  0  0  0  0  0  0  0  0
   35.5310   29.6010   40.2990 C   0  0  0  0  0  0  0  0  0  0  0  0
   36.2720   30.6310   41.0930 C   0  0  1  0  0  0  0  0  0  0  0  0
   37.3270   29.8830   41.8570 C   0  0  0  0  0  0  0  0  0  0  0  0
   35.7710   28.4780   42.5580 H   0  0  0  0  0  0  0  0  0  0  0  0
   35.6900   27.4110   40.3750 H   0  0  0  0  0  0  0  0  0  0  0  0
   37.2430   28.2900   39.9200 H   0  0  0  0  0  0  0  0  0  0  0  0
   34.5490   29.3960   40.7730 H   0  0  0  0  0  0  0  0  0  0  0  0
   35.4340   29.8400   39.2270 H   0  0  0  0  0  0  0  0  0  0  0  0
   35.5720   31.1450   41.8100 H   0  0  0  0  0  0  0  0  0  0  0  0
   38.2890   29.7880   41.3560 H   0  0  0  0  0  0  0  0  0  0  0  0
   37.4290   30.3870   42.8500 H   0  0  0  0  0  0  0  0  0  0  0  0
   39.5110   26.7500   43.7480 C   0  0  0  0  0  0  0  0  0  0  0  0
   38.6420   27.7800   43.4060 C   0  0  0  0  0  0  0  0  0  0  0  0
   37.6740   27.4960   42.4470 C   0  0  0  0  0  0  0  0  0  0  0  0
   37.6010   26.2220   41.8660 N   0  0  0  0  0  0  0  0  0  0  0  0
   38.4810   25.2580   42.2450 C   0  0  0  0  0  0  0  0  0  0  0  0
   39.4290   25.5260   43.1820 N   0  0  0  0  0  0  0  0  0  0  0  0
   40.2680   26.9590   44.4940 H   0  0  0  0  0  0  0  0  0  0  0  0
   38.6730   28.7690   43.8320 H   0  0  0  0  0  0  0  0  0  0  0  0
   38.3630   24.3050   41.7550 H   0  0  0  0  0  0  0  0  0  0  0  0
   36.9810   31.6760   40.2600 C   0  0  2  0  0  0  0  0  0  0  0  0
   36.9110   31.4990   38.8180 C   0  0  0  0  0  0  0  0  0  0  0  0
   38.2160   31.3680   39.5390 C   0  0  1  0  0  0  0  0  0  0  0  0
   36.8790   32.6990   40.6640 H   0  0  0  0  0  0  0  0  0  0  0  0
   36.4520   30.5730   38.4170 H   0  0  0  0  0  0  0  0  0  0  0  0
   36.7670   32.3700   38.1440 H   0  0  0  0  0  0  0  0  0  0  0  0
   38.6620   30.4040   39.8030 H   0  0  0  0  0  0  0  0  0  0  0  0
   39.1500   32.4200   39.3710 O   0  0  0  0  0  0  0  0  0  0  0  0
   40.4170   30.4110   38.2920 O   0  0  0  0  0  0  0  0  0  0  0  0
   40.3130   31.9160   38.2650 P   0  0  1  0  0  0  0  0  0  0  0  0
   39.8510   32.3710   36.6760 O   0  0  0  0  0  0  0  0  0  0  0  0
   39.1930   31.6920   36.3820 H   0  0  0  0  0  0  0  0  0  0  0  0
   41.8250   32.5530   38.5260 O   0  0  0  0  0  0  0  0  0  0  0  0
   42.1250   33.3750   37.4200 C   0  0  0  0  0  2  0  0  0  0  0  0
   41.4900   34.2950   37.5630 H   0  0  0  0  0  0  0  0  0  0  0  0
  1 16  1  0  0  0  0
  1  6  1  1  0  0  0
  2  1  1  0  0  0  0
  3  2  1  0  0  0  0
  3  9  1  0  0  0  0
  3  4  1  0  0  0  0
  4 11  1  1  0  0  0
  4  5  1  0  0  0  0
  5  1  1  0  0  0  0
  5 13  1  0  0  0  0
  7  2  1  0  0  0  0
  8  2  1  0  0  0  0
 10  3  1  0  0  0  0
 12  5  1  0  0  0  0
 14 20  1  0  0  0  0
 15 14  1  0  0  0  0
 15 21  1  0  0  0  0
 16 15  2  0  0  0  0
 17 18  2  0  0  0  0
 17 16  1  0  0  0  0
 18 19  1  0  0  0  0
 19 14  2  0  0  0  0
 22 18  1  0  0  0  0
 23 26  1  1  0  0  0
 23  4  1  0  0  0  0
 24 25  1  0  0  0  0
 24 23  1  0  0  0  0
 25 29  1  1  0  0  0
 25 23  1  0  0  0  0
 27 24  1  0  0  0  0
 28 24  1  0  0  0  0
 30 25  1  0  0  0  0
 32 31  2  1  0  0  0
 32 35  1  0  0  0  0
 32 30  1  0  0  0  0
 33 32  1  0  0  0  0
 34 33  1  0  0  0  0
 36 37  1  0  0  0  0
 36 35  1  0  0  0  0
M  END
>  <minimizedAffinity>
-5.53103638

$$$$

 OpenBabel03252507563D

 37 39  0  0  1  0  0  0  0  0999 V2000
   36.6540   28.3490   41.9630 C   0  0  2  0  0  0  0  0  0  0  0  0
   36.1800   27.8950   40.5790 C   0  0  0  0  0  0  0  0  0  0  0  0
   35.2820   29.1140   40.2680 C   0  0  0  0  0  0  0  0  0  0  0  0
   36.0090   30.2860   40.8480 C   0  0  1  0  0  0  0  0  0  0  0  0
   37.1730   29.7150   41.6060 C   0  0  0  0  0  0  0  0  0  0  0  0
   35.7820   28.3320   42.6260 H   0  0  0  0  0  0  0  0  0  0  0  0
   35.6000   26.9690   40.6220 H   0  0  0  0  0  0  0  0  0  0  0  0
   37.0450   27.8650   39.9150 H   0  0  0  0  0  0  0  0  0  0  0  0
   34.3580   28.9190   40.8520 H   0  0  0  0  0  0  0  0  0  0  0  0
   35.0810   29.1940   39.1870 H   0  0  0  0  0  0  0  0  0  0  0  0
   35.3360   30.8530   41.5490 H   0  0  0  0  0  0  0  0  0  0  0  0
   38.0960   29.6070   41.0380 H   0  0  0  0  0  0  0  0  0  0  0  0
   37.3200   30.3580   42.5100 H   0  0  0  0  0  0  0  0  0  0  0  0
   39.6330   26.9730   43.8130 C   0  0  0  0  0  0  0  0  0  0  0  0
   38.6560   27.8840   43.4270 C   0  0  0  0  0  0  0  0  0  0  0  0
   37.7340   27.4570   42.4770 C   0  0  0  0  0  0  0  0  0  0  0  0
   37.8090   26.1620   41.9460 N   0  0  0  0  0  0  0  0  0  0  0  0
   38.7880   25.3190   42.3650 C   0  0  0  0  0  0  0  0  0  0  0  0
   39.6930   25.7270   43.2940 N   0  0  0  0  0  0  0  0  0  0  0  0
   40.3550   27.2930   44.5540 H   0  0  0  0  0  0  0  0  0  0  0  0
   38.5730   28.8870   43.8160 H   0  0  0  0  0  0  0  0  0  0  0  0
   38.7810   24.3400   41.9120 H   0  0  0  0  0  0  0  0  0  0  0  0
   36.5730   31.2440   39.8210 C   0  0  2  0  0  0  0  0  0  0  0  0
   37.4300   30.6580   38.8020 C   0  0  0  0  0  0  0  0  0  0  0  0
   37.9900   31.6080   39.8140 C   0  0  1  0  0  0  0  0  0  0  0  0
   35.8550   32.0240   39.5110 H   0  0  0  0  0  0  0  0  0  0  0  0
   37.7110   29.5890   38.8930 H   0  0  0  0  0  0  0  0  0  0  0  0
   37.3670   30.9920   37.7450 H   0  0  0  0  0  0  0  0  0  0  0  0
   38.5420   31.2830   40.7020 H   0  0  0  0  0  0  0  0  0  0  0  0
   38.3250   32.9070   39.3580 O   0  0  0  0  0  0  0  0  0  0  0  0
   40.4690   34.3770   39.5700 O   0  0  0  0  0  0  0  0  0  0  0  0
   39.5160   33.5270   40.3710 P   0  0  1  0  0  0  0  0  0  0  0  0
   38.8060   34.5360   41.5650 O   0  0  0  0  0  0  0  0  0  0  0  0
   38.6480   35.4060   41.1220 H   0  0  0  0  0  0  0  0  0  0  0  0
   40.3930   32.3710   41.1800 O   0  0  0  0  0  0  0  0  0  0  0  0
   41.6990   32.3910   40.6460 C   0  0  0  0  0  2  0  0  0  0  0  0
   42.1660   33.3280   41.0610 H   0  0  0  0  0  0  0  0  0  0  0  0
  1 16  1  0  0  0  0
  1  6  1  1  0  0  0
  2  7  1  0  0  0  0
  2  1  1  0  0  0  0
  3  2  1  0  0  0  0
  3  4  1  0  0  0  0
  3  9  1  0  0  0  0
  4 11  1  1  0  0  0
  4  5  1  0  0  0  0
  5  1  1  0  0  0  0
  5 13  1  0  0  0  0
  8  2  1  0  0  0  0
 10  3  1  0  0  0  0
 12  5  1  0  0  0  0
 14 20  1  0  0  0  0
 15 14  1  0  0  0  0
 15 21  1  0  0  0  0
 16 15  2  0  0  0  0
 17 18  2  0  0  0  0
 17 16  1  0  0  0  0
 18 19  1  0  0  0  0
 19 14  2  0  0  0  0
 22 18  1  0  0  0  0
 23 26  1  6  0  0  0
 23  4  1  0  0  0  0
 24 27  1  0  0  0  0
 24 25  1  0  0  0  0
 24 23  1  0  0  0  0
 25 23  1  0  0  0  0
 25 29  1  1  0  0  0
 28 24  1  0  0  0  0
 30 25  1  0  0  0  0
 30 32  1  0  0  0  0
 32 31  2  6  0  0  0
 32 35  1  0  0  0  0
 32 33  1  0  0  0  0
 34 33  1  0  0  0  0
 36 37  1  0  0  0  0
 36 35  1  0  0  0  0
M  END
>  <minimizedAffinity>
-5.40993977

$$$$

 OpenBabel03252507563D

 37 39  0  0  1  0  0  0  0  0999 V2000
   36.9260   26.8690   41.3590 C   0  0  2  0  0  0  0  0  0  0  0  0
   37.3440   27.0130   39.8920 C   0  0  0  0  0  0  0  0  0  0  0  0
   36.0600   27.7080   39.3880 C   0  0  0  0  0  0  0  0  0  0  0  0
   35.6500   28.6160   40.5040 C   0  0  1  0  0  0  0  0  0  0  0  0
   36.5680   28.3010   41.6510 C   0  0  0  0  0  0  0  0  0  0  0  0
   36.0940   26.1570   41.3910 H   0  0  0  0  0  0  0  0  0  0  0  0
   37.4940   26.0440   39.4060 H   0  0  0  0  0  0  0  0  0  0  0  0
   38.2010   27.6870   39.8460 H   0  0  0  0  0  0  0  0  0  0  0  0
   35.3290   26.8790   39.2900 H   0  0  0  0  0  0  0  0  0  0  0  0
   36.2360   28.2220   38.4280 H   0  0  0  0  0  0  0  0  0  0  0  0
   34.5840   28.4110   40.8000 H   0  0  0  0  0  0  0  0  0  0  0  0
   37.4810   28.8930   41.6970 H   0  0  0  0  0  0  0  0  0  0  0  0
   35.9660   28.4010   42.5870 H   0  0  0  0  0  0  0  0  0  0  0  0
   39.5790   24.7530   42.9950 C   0  0  0  0  0  0  0  0  0  0  0  0
   38.5220   25.0830   42.1530 C   0  0  0  0  0  0  0  0  0  0  0  0
   38.0680   26.3970   42.1960 C   0  0  0  0  0  0  0  0  0  0  0  0
   38.6640   27.3270   43.0590 N   0  0  0  0  0  0  0  0  0  0  0  0
   39.6930   26.9410   43.8560 C   0  0  0  0  0  0  0  0  0  0  0  0
   40.1450   25.6590   43.8210 N   0  0  0  0  0  0  0  0  0  0  0  0
   39.9420   23.7330   42.9700 H   0  0  0  0  0  0  0  0  0  0  0  0
   38.0420   24.3910   41.4800 H   0  0  0  0  0  0  0  0  0  0  0  0
   40.1000   27.7120   44.4920 H   0  0  0  0  0  0  0  0  0  0  0  0
   35.8040   30.0910   40.2030 C   0  0  2  0  0  0  0  0  0  0  0  0
   36.4680   30.4220   38.9510 C   0  0  0  0  0  0  0  0  0  0  0  0
   37.1090   30.7500   40.2630 C   0  0  1  0  0  0  0  0  0  0  0  0
   34.9260   30.6910   40.5000 H   0  0  0  0  0  0  0  0  0  0  0  0
   36.9150   29.6020   38.3540 H   0  0  0  0  0  0  0  0  0  0  0  0
   36.1040   31.2590   38.3180 H   0  0  0  0  0  0  0  0  0  0  0  0
   37.8990   30.1420   40.7140 H   0  0  0  0  0  0  0  0  0  0  0  0
   37.1300   32.1160   40.6420 O   0  0  0  0  0  0  0  0  0  0  0  0
   39.2980   32.7370   39.3320 O   0  0  0  0  0  0  0  0  0  0  0  0
   38.7360   32.6100   40.7250 P   0  0  1  0  0  0  0  0  0  0  0  0
   38.8380   34.1560   41.4640 O   0  0  0  0  0  0  0  0  0  0  0  0
   38.6130   34.8080   40.7550 H   0  0  0  0  0  0  0  0  0  0  0  0
   39.7180   31.5960   41.5990 O   0  0  0  0  0  0  0  0  0  0  0  0
   41.0510   31.9300   41.2780 C   0  0  0  0  0  2  0  0  0  0  0  0
   41.2410   32.9030   41.8100 H   0  0  0  0  0  0  0  0  0  0  0  0
  1  6  1  1  0  0  0
  1  5  1  0  0  0  0
  1 16  1  0  0  0  0
  2  1  1  0  0  0  0
  3  2  1  0  0  0  0
  3  4  1  0  0  0  0
  4 11  1  1  0  0  0
  4  5  1  0  0  0  0
  5 12  1  0  0  0  0
  5 13  1  0  0  0  0
  7  2  1  0  0  0  0
  8  2  1  0  0  0  0
  9  3  1  0  0  0  0
 10  3  1  0  0  0  0
 14 19  1  0  0  0  0
 15 16  1  0  0  0  0
 15 14  2  0  0  0  0
 16 17  2  0  0  0  0
 17 18  1  0  0  0  0
 18 22  1  0  0  0  0
 19 18  2  0  0  0  0
 20 14  1  0  0  0  0
 21 15  1  0  0  0  0
 23 25  1  0  0  0  0
 23 26  1  1  0  0  0
 23  4  1  0  0  0  0
 24 23  1  0  0  0  0
 24 25  1  0  0  0  0
 25 30  1  0  0  0  0
 25 29  1  1  0  0  0
 27 24  1  0  0  0  0
 28 24  1  0  0  0  0
 30 32  1  0  0  0  0
 32 31  2  6  0  0  0
 32 33  1  0  0  0  0
 32 35  1  0  0  0  0
 34 33  1  0  0  0  0
 36 35  1  0  0  0  0
 36 37  1  0  0  0  0
M  END
>  <minimizedAffinity>
-5.29931021

$$$$

 OpenBabel03252507563D

 37 39  0  0  1  0  0  0  0  0999 V2000
   38.1880   26.4270   42.7410 C   0  0  2  0  0  0  0  0  0  0  0  0
   37.0260   27.4160   42.6090 C   0  0  0  0  0  0  0  0  0  0  0  0
   37.6880   28.5990   43.3500 C   0  0  0  0  0  0  0  0  0  0  0  0
   39.1300   28.5430   42.9540 C   0  0  1  0  0  0  0  0  0  0  0  0
   39.2930   27.2720   42.1690 C   0  0  0  0  0  0  0  0  0  0  0  0
   38.2830   26.1780   43.8040 H   0  0  0  0  0  0  0  0  0  0  0  0
   36.1260   27.0710   43.1260 H   0  0  0  0  0  0  0  0  0  0  0  0
   36.8890   27.6420   41.5500 H   0  0  0  0  0  0  0  0  0  0  0  0
   37.5820   28.3340   44.4220 H   0  0  0  0  0  0  0  0  0  0  0  0
   37.1880   29.5510   43.1060 H   0  0  0  0  0  0  0  0  0  0  0  0
   39.7830   28.5150   43.8690 H   0  0  0  0  0  0  0  0  0  0  0  0
   39.1510   27.3640   41.0940 H   0  0  0  0  0  0  0  0  0  0  0  0
   40.3050   26.8650   42.4170 H   0  0  0  0  0  0  0  0  0  0  0  0
   38.6130   23.2020   40.8410 C   0  0  0  0  0  0  0  0  0  0  0  0
   38.9560   24.2940   41.6300 C   0  0  0  0  0  0  0  0  0  0  0  0
   37.9430   25.2020   41.9250 C   0  0  0  0  0  0  0  0  0  0  0  0
   36.6450   25.0020   41.4340 N   0  0  0  0  0  0  0  0  0  0  0  0
   36.3750   23.9140   40.6680 C   0  0  0  0  0  0  0  0  0  0  0  0
   37.3580   23.0210   40.3760 N   0  0  0  0  0  0  0  0  0  0  0  0
   39.3930   22.4880   40.6060 H   0  0  0  0  0  0  0  0  0  0  0  0
   39.9430   24.4760   42.0210 H   0  0  0  0  0  0  0  0  0  0  0  0
   35.3550   23.8280   40.3280 H   0  0  0  0  0  0  0  0  0  0  0  0
   39.5800   29.6790   42.0610 C   0  0  2  0  0  0  0  0  0  0  0  0
   39.9740   30.9050   42.7360 C   0  0  0  0  0  0  0  0  0  0  0  0
   38.7560   30.8710   41.8680 C   0  0  1  0  0  0  0  0  0  0  0  0
   40.1840   29.3420   41.1980 H   0  0  0  0  0  0  0  0  0  0  0  0
   39.8210   30.9830   43.8310 H   0  0  0  0  0  0  0  0  0  0  0  0
   40.8530   31.4900   42.3880 H   0  0  0  0  0  0  0  0  0  0  0  0
   37.7390   30.7830   42.2640 H   0  0  0  0  0  0  0  0  0  0  0  0
   38.8430   31.5260   40.6140 O   0  0  0  0  0  0  0  0  0  0  0  0
   36.2940   31.0950   40.9590 O   0  0  0  0  0  0  0  0  0  0  0  0
   37.2800   31.7770   40.0450 P   0  0  1  0  0  0  0  0  0  0  0  0
   36.9130   33.4540   40.0530 O   0  0  0  0  0  0  0  0  0  0  0  0
   36.6700   33.6720   40.9860 H   0  0  0  0  0  0  0  0  0  0  0  0
   37.0230   31.2370   38.4950 O   0  0  0  0  0  0  0  0  0  0  0  0
   36.2100   30.0870   38.5860 C   0  0  0  0  0  2  0  0  0  0  0  0
   35.1840   30.4770   38.8370 H   0  0  0  0  0  0  0  0  0  0  0  0
  1  6  1  1  0  0  0
  2  1  1  0  0  0  0
  2  7  1  0  0  0  0
  2  3  1  0  0  0  0
  3  9  1  0  0  0  0
  4  3  1  0  0  0  0
  4 11  1  1  0  0  0
  5 13  1  0  0  0  0
  5  1  1  0  0  0  0
  5  4  1  0  0  0  0
  8  2  1  0  0  0  0
 10  3  1  0  0  0  0
 12  5  1  0  0  0  0
 14 15  1  0  0  0  0
 15 16  2  0  0  0  0
 15 21  1  0  0  0  0
 16  1  1  0  0  0  0
 17 16  1  0  0  0  0
 18 17  2  0  0  0  0
 19 18  1  0  0  0  0
 19 14  2  0  0  0  0
 20 14  1  0  0  0  0
 22 18  1  0  0  0  0
 23 26  1  6  0  0  0
 23 24  1  0  0  0  0
 23  4  1  0  0  0  0
 24 27  1  0  0  0  0
 25 23  1  0  0  0  0
 25 29  1  1  0  0  0
 25 24  1  0  0  0  0
 28 24  1  0  0  0  0
 30 25  1  0  0  0  0
 32 33  1  0  0  0  0
 32 30  1  0  0  0  0
 32 31  2  1  0  0  0
 33 34  1  0  0  0  0
 35 36  1  0  0  0  0
 35 32  1  0  0  0  0
 36 37  1  0  0  0  0
M  END
>  <minimizedAffinity>
-5.25735235

$$$$

 OpenBabel03252507563D

 37 39  0  0  1  0  0  0  0  0999 V2000
   36.9730   29.2030   41.9650 C   0  0  2  0  0  0  0  0  0  0  0  0
   37.7550   28.7700   43.2100 C   0  0  0  0  0  0  0  0  0  0  0  0
   37.1070   27.3770   43.3750 C   0  0  0  0  0  0  0  0  0  0  0  0
   36.9050   26.8780   41.9790 C   0  0  1  0  0  0  0  0  0  0  0  0
   37.2600   28.0250   41.0760 C   0  0  0  0  0  0  0  0  0  0  0  0
   35.9270   29.3260   42.2660 H   0  0  0  0  0  0  0  0  0  0  0  0
   37.5530   29.4130   44.0710 H   0  0  0  0  0  0  0  0  0  0  0  0
   38.8080   28.6840   42.9370 H   0  0  0  0  0  0  0  0  0  0  0  0
   36.1250   27.5950   43.8430 H   0  0  0  0  0  0  0  0  0  0  0  0
   37.7300   26.7210   44.0050 H   0  0  0  0  0  0  0  0  0  0  0  0
   35.8290   26.5860   41.8230 H   0  0  0  0  0  0  0  0  0  0  0  0
   38.3000   28.0650   40.7560 H   0  0  0  0  0  0  0  0  0  0  0  0
   36.5630   27.9780   40.2020 H   0  0  0  0  0  0  0  0  0  0  0  0
   37.3940   32.4470   40.0970 C   0  0  0  0  0  0  0  0  0  0  0  0
   36.7690   31.3020   40.5780 C   0  0  0  0  0  0  0  0  0  0  0  0
   37.5220   30.4720   41.4050 C   0  0  0  0  0  0  0  0  0  0  0  0
   38.8480   30.7980   41.7200 N   0  0  0  0  0  0  0  0  0  0  0  0
   39.4010   31.9320   41.2170 C   0  0  0  0  0  0  0  0  0  0  0  0
   38.6730   32.7490   40.4100 N   0  0  0  0  0  0  0  0  0  0  0  0
   36.8190   33.1010   39.4540 H   0  0  0  0  0  0  0  0  0  0  0  0
   35.7530   31.0240   40.3530 H   0  0  0  0  0  0  0  0  0  0  0  0
   40.4240   32.1160   41.5050 H   0  0  0  0  0  0  0  0  0  0  0  0
   37.7930   25.7160   41.5930 C   0  0  2  0  0  0  0  0  0  0  0  0
   37.2610   24.3880   41.8600 C   0  0  0  0  0  0  0  0  0  0  0  0
   38.4570   24.8930   42.6050 C   0  0  1  0  0  0  0  0  0  0  0  0
   38.3360   25.8780   40.6450 H   0  0  0  0  0  0  0  0  0  0  0  0
   36.3080   24.3000   42.4200 H   0  0  0  0  0  0  0  0  0  0  0  0
   37.4040   23.5610   41.1330 H   0  0  0  0  0  0  0  0  0  0  0  0
   38.4040   25.3000   43.6200 H   0  0  0  0  0  0  0  0  0  0  0  0
   39.7110   24.3280   42.2630 O   0  0  0  0  0  0  0  0  0  0  0  0
   40.4730   26.2420   43.8640 O   0  0  0  0  0  0  0  0  0  0  0  0
   40.9100   25.4360   42.6660 P   0  0  1  0  0  0  0  0  0  0  0  0
   42.3520   24.6110   43.1000 O   0  0  0  0  0  0  0  0  0  0  0  0
   42.2240   24.3210   44.0370 H   0  0  0  0  0  0  0  0  0  0  0  0
   41.3090   26.4860   41.4420 O   0  0  0  0  0  0  0  0  0  0  0  0
   40.9760   27.7830   41.8830 C   0  0  0  0  0  2  0  0  0  0  0  0
   41.7690   28.0440   42.6390 H   0  0  0  0  0  0  0  0  0  0  0  0
  1  6  1  1  0  0  0
  1  2  1  0  0  0  0
  2  3  1  0  0  0  0
  2  7  1  0  0  0  0
  3  9  1  0  0  0  0
  3 10  1  0  0  0  0
  4 11  1  6  0  0  0
  4  3  1  0  0  0  0
  5  1  1  0  0  0  0
  5  4  1  0  0  0  0
  8  2  1  0  0  0  0
 12  5  1  0  0  0  0
 13  5  1  0  0  0  0
 14 19  2  0  0  0  0
 14 15  1  0  0  0  0
 15 16  2  0  0  0  0
 16 17  1  0  0  0  0
 16  1  1  0  0  0  0
 18 22  1  0  0  0  0
 18 17  2  0  0  0  0
 19 18  1  0  0  0  0
 20 14  1  0  0  0  0
 21 15  1  0  0  0  0
 23 26  1  6  0  0  0
 23 24  1  0  0  0  0
 23  4  1  0  0  0  0
 23 25  1  0  0  0  0
 24 27  1  0  0  0  0
 24 25  1  0  0  0  0
 25 29  1  1  0  0  0
 28 24  1  0  0  0  0
 30 25  1  0  0  0  0
 30 32  1  0  0  0  0
 32 33  1  0  0  0  0
 32 31  2  1  0  0  0
 33 34  1  0  0  0  0
 35 36  1  0  0  0  0
 35 32  1  0  0  0  0
 36 37  1  0  0  0  0
M  END
>  <minimizedAffinity>
-5.25190926

$$$$

 OpenBabel03252507563D

 37 39  0  0  1  0  0  0  0  0999 V2000
   40.6200   30.9270   41.5940 C   0  0  2  0  0  0  0  0  0  0  0  0
   40.4040   29.7340   40.6570 C   0  0  0  0  0  0  0  0  0  0  0  0
   40.1590   28.6680   41.7480 C   0  0  0  0  0  0  0  0  0  0  0  0
   39.3850   29.3790   42.8140 C   0  0  1  0  0  0  0  0  0  0  0  0
   39.3610   30.8250   42.4110 C   0  0  0  0  0  0  0  0  0  0  0  0
   41.5530   30.7470   42.1380 H   0  0  0  0  0  0  0  0  0  0  0  0
   41.2940   29.5060   40.0640 H   0  0  0  0  0  0  0  0  0  0  0  0
   39.4990   29.9170   40.0750 H   0  0  0  0  0  0  0  0  0  0  0  0
   41.1770   28.4280   42.1190 H   0  0  0  0  0  0  0  0  0  0  0  0
   39.6490   27.7830   41.3320 H   0  0  0  0  0  0  0  0  0  0  0  0
   39.9010   29.2660   43.8080 H   0  0  0  0  0  0  0  0  0  0  0  0
   38.5130   31.1270   41.7970 H   0  0  0  0  0  0  0  0  0  0  0  0
   39.4210   31.4260   43.3520 H   0  0  0  0  0  0  0  0  0  0  0  0
   39.7780   34.2330   39.9960 C   0  0  0  0  0  0  0  0  0  0  0  0
   39.6090   33.0850   40.7620 C   0  0  0  0  0  0  0  0  0  0  0  0
   40.6850   32.2040   40.8260 C   0  0  0  0  0  0  0  0  0  0  0  0
   41.8740   32.4850   40.1380 N   0  0  0  0  0  0  0  0  0  0  0  0
   41.9760   33.6250   39.4070 C   0  0  0  0  0  0  0  0  0  0  0  0
   40.9300   34.4920   39.3390 N   0  0  0  0  0  0  0  0  0  0  0  0
   38.9480   34.9260   39.9390 H   0  0  0  0  0  0  0  0  0  0  0  0
   38.7080   32.8400   41.3000 H   0  0  0  0  0  0  0  0  0  0  0  0
   42.9200   33.7720   38.9070 H   0  0  0  0  0  0  0  0  0  0  0  0
   37.9470   28.9300   42.9500 C   0  0  2  0  0  0  0  0  0  0  0  0
   37.7430   27.5290   43.2870 C   0  0  0  0  0  0  0  0  0  0  0  0
   37.3200   28.0610   41.9540 C   0  0  1  0  0  0  0  0  0  0  0  0
   37.3000   29.6820   43.4370 H   0  0  0  0  0  0  0  0  0  0  0  0
   38.6230   26.8550   43.3140 H   0  0  0  0  0  0  0  0  0  0  0  0
   36.9540   27.2270   44.0080 H   0  0  0  0  0  0  0  0  0  0  0  0
   37.9090   27.9280   41.0400 H   0  0  0  0  0  0  0  0  0  0  0  0
   35.9280   28.2180   41.7380 O   0  0  0  0  0  0  0  0  0  0  0  0
   34.4120   29.1910   39.8520 O   0  0  0  0  0  0  0  0  0  0  0  0
   35.7100   29.4220   40.5840 P   0  0  1  0  0  0  0  0  0  0  0  0
   35.6050   30.9560   41.3460 O   0  0  0  0  0  0  0  0  0  0  0  0
   34.6770   31.0270   41.6810 H   0  0  0  0  0  0  0  0  0  0  0  0
   36.9340   29.5250   39.4650 O   0  0  0  0  0  0  0  0  0  0  0  0
   37.1170   30.8930   39.1760 C   0  0  0  0  0  2  0  0  0  0  0  0
   37.6360   31.3140   40.0830 H   0  0  0  0  0  0  0  0  0  0  0  0
  1  6  1  1  0  0  0
  1  5  1  0  0  0  0
  2  1  1  0  0  0  0
  2  3  1  0  0  0  0
  3  9  1  0  0  0  0
  3  4  1  0  0  0  0
  4 23  1  0  0  0  0
  4 11  1  1  0  0  0
  5  4  1  0  0  0  0
  5 13  1  0  0  0  0
  7  2  1  0  0  0  0
  8  2  1  0  0  0  0
 10  3  1  0  0  0  0
 12  5  1  0  0  0  0
 14 15  1  0  0  0  0
 15 16  2  0  0  0  0
 15 21  1  0  0  0  0
 16  1  1  0  0  0  0
 17 16  1  0  0  0  0
 18 17  2  0  0  0  0
 19 18  1  0  0  0  0
 19 14  2  0  0  0  0
 20 14  1  0  0  0  0
 22 18  1  0  0  0  0
 23 24  1  0  0  0  0
 23 26  1  1  0  0  0
 24 27  1  0  0  0  0
 24 28  1  0  0  0  0
 25 29  1  6  0  0  0
 25 23  1  0  0  0  0
 25 24  1  0  0  0  0
 30 25  1  0  0  0  0
 32 31  2  6  0  0  0
 32 33  1  0  0  0  0
 32 30  1  0  0  0  0
 33 34  1  0  0  0  0
 35 32  1  0  0  0  0
 36 35  1  0  0  0  0
 36 37  1  0  0  0  0
M  END
>  <minimizedAffinity>
-5.084373

$$$$

 OpenBabel03252507563D

 37 39  0  0  1  0  0  0  0  0999 V2000
   37.5960   30.8540   40.0630 C   0  0  2  0  0  0  0  0  0  0  0  0
   36.3240   31.0150   40.9020 C   0  0  0  0  0  0  0  0  0  0  0  0
   35.8600   29.5420   40.8410 C   0  0  0  0  0  0  0  0  0  0  0  0
   37.1210   28.7380   40.9040 C   0  0  1  0  0  0  0  0  0  0  0  0
   38.2470   29.7300   40.8200 C   0  0  0  0  0  0  0  0  0  0  0  0
   37.2820   30.6170   39.0400 H   0  0  0  0  0  0  0  0  0  0  0  0
   35.5990   31.6850   40.4320 H   0  0  0  0  0  0  0  0  0  0  0  0
   36.6180   31.2930   41.9160 H   0  0  0  0  0  0  0  0  0  0  0  0
   35.4050   29.4490   39.8340 H   0  0  0  0  0  0  0  0  0  0  0  0
   35.1400   29.3190   41.6460 H   0  0  0  0  0  0  0  0  0  0  0  0
   37.1710   28.0270   40.0340 H   0  0  0  0  0  0  0  0  0  0  0  0
   38.6120   30.1070   41.7740 H   0  0  0  0  0  0  0  0  0  0  0  0
   39.0640   29.2440   40.2310 H   0  0  0  0  0  0  0  0  0  0  0  0
   40.4640   33.2900   40.2510 C   0  0  0  0  0  0  0  0  0  0  0  0
   39.8050   32.0660   40.2070 C   0  0  0  0  0  0  0  0  0  0  0  0
   38.4180   32.0990   40.0960 C   0  0  0  0  0  0  0  0  0  0  0  0
   37.7390   33.3240   40.0350 N   0  0  0  0  0  0  0  0  0  0  0  0
   38.4410   34.4860   40.0840 C   0  0  0  0  0  0  0  0  0  0  0  0
   39.7970   34.4640   40.1910 N   0  0  0  0  0  0  0  0  0  0  0  0
   41.5430   33.2780   40.3360 H   0  0  0  0  0  0  0  0  0  0  0  0
   40.2980   31.1090   40.2520 H   0  0  0  0  0  0  0  0  0  0  0  0
   37.8500   35.3860   40.0320 H   0  0  0  0  0  0  0  0  0  0  0  0
   37.3060   27.9610   42.1890 C   0  0  2  0  0  0  0  0  0  0  0  0
   37.8080   28.7170   43.3270 C   0  0  0  0  0  0  0  0  0  0  0  0
   38.6380   27.6390   42.7020 C   0  0  1  0  0  0  0  0  0  0  0  0
   36.5080   27.2190   42.3690 H   0  0  0  0  0  0  0  0  0  0  0  0
   38.1280   29.7660   43.1690 H   0  0  0  0  0  0  0  0  0  0  0  0
   37.4040   28.5450   44.3470 H   0  0  0  0  0  0  0  0  0  0  0  0
   39.4520   27.8410   41.9970 H   0  0  0  0  0  0  0  0  0  0  0  0
   38.7800   26.4340   43.4320 O   0  0  0  0  0  0  0  0  0  0  0  0
   40.7280   25.7500   41.8390 O   0  0  0  0  0  0  0  0  0  0  0  0
   39.4140   25.2670   42.4000 P   0  0  1  0  0  0  0  0  0  0  0  0
   39.7260   23.8200   43.2680 O   0  0  0  0  0  0  0  0  0  0  0  0
   40.5890   23.9640   43.7290 H   0  0  0  0  0  0  0  0  0  0  0  0
   38.4180   24.8620   41.1340 O   0  0  0  0  0  0  0  0  0  0  0  0
   37.3010   24.1960   41.6810 C   0  0  0  0  0  2  0  0  0  0  0  0
   36.6900   25.0080   42.1670 H   0  0  0  0  0  0  0  0  0  0  0  0
  1  6  1  6  0  0  0
  1 16  1  0  0  0  0
  1  5  1  0  0  0  0
  1  2  1  0  0  0  0
  2  8  1  0  0  0  0
  3  2  1  0  0  0  0
  3  4  1  0  0  0  0
  3 10  1  0  0  0  0
  4 11  1  6  0  0  0
  4 23  1  0  0  0  0
  5  4  1  0  0  0  0
  5 12  1  0  0  0  0
  7  2  1  0  0  0  0
  9  3  1  0  0  0  0
 13  5  1  0  0  0  0
 14 20  1  0  0  0  0
 15 14  1  0  0  0  0
 15 21  1  0  0  0  0
 16 15  2  0  0  0  0
 17 18  2  0  0  0  0
 17 16  1  0  0  0  0
 18 19  1  0  0  0  0
 19 14  2  0  0  0  0
 22 18  1  0  0  0  0
 23 26  1  1  0  0  0
 23 25  1  0  0  0  0
 23 24  1  0  0  0  0
 24 28  1  0  0  0  0
 25 29  1  6  0  0  0
 25 24  1  0  0  0  0
 25 30  1  0  0  0  0
 27 24  1  0  0  0  0
 32 31  2  6  0  0  0
 32 33  1  0  0  0  0
 32 30  1  0  0  0  0
 33 34  1  0  0  0  0
 35 36  1  0  0  0  0
 35 32  1  0  0  0  0
 36 37  1  0  0  0  0
M  END
>  <minimizedAffinity>
-5.02991962

$$$$

 OpenBabel03252507563D

 37 39  0  0  1  0  0  0  0  0999 V2000
   39.0920   24.5530   41.3140 C   0  0  2  0  0  0  0  0  0  0  0  0
   39.1090   24.2820   42.8220 C   0  0  0  0  0  0  0  0  0  0  0  0
   40.0640   25.4300   43.2190 C   0  0  0  0  0  0  0  0  0  0  0  0
   39.7000   26.5640   42.3130 C   0  0  1  0  0  0  0  0  0  0  0  0
   38.7070   26.0070   41.3330 C   0  0  0  0  0  0  0  0  0  0  0  0
   40.0950   24.3340   40.9340 H   0  0  0  0  0  0  0  0  0  0  0  0
   39.5340   23.3030   43.0630 H   0  0  0  0  0  0  0  0  0  0  0  0
   38.1040   24.4550   43.2110 H   0  0  0  0  0  0  0  0  0  0  0  0
   41.0690   25.0430   42.9510 H   0  0  0  0  0  0  0  0  0  0  0  0
   39.9810   25.6630   44.2930 H   0  0  0  0  0  0  0  0  0  0  0  0
   40.6120   26.9320   41.7660 H   0  0  0  0  0  0  0  0  0  0  0  0
   37.6610   26.0940   41.6240 H   0  0  0  0  0  0  0  0  0  0  0  0
   38.9030   26.5060   40.3520 H   0  0  0  0  0  0  0  0  0  0  0  0
   37.3340   21.7790   39.4690 C   0  0  0  0  0  0  0  0  0  0  0  0
   38.3670   22.4610   40.1020 C   0  0  0  0  0  0  0  0  0  0  0  0
   38.0650   23.7120   40.6320 C   0  0  0  0  0  0  0  0  0  0  0  0
   36.7710   24.2390   40.5170 N   0  0  0  0  0  0  0  0  0  0  0  0
   35.8060   23.5210   39.8860 C   0  0  0  0  0  0  0  0  0  0  0  0
   36.0910   22.2980   39.3660 N   0  0  0  0  0  0  0  0  0  0  0  0
   37.5560   20.8040   39.0540 H   0  0  0  0  0  0  0  0  0  0  0  0
   39.3710   22.0840   40.2060 H   0  0  0  0  0  0  0  0  0  0  0  0
   34.8370   23.9920   39.8370 H   0  0  0  0  0  0  0  0  0  0  0  0
   39.0340   27.7320   43.0070 C   0  0  2  0  0  0  0  0  0  0  0  0
   37.9070   27.4070   43.8670 C   0  0  0  0  0  0  0  0  0  0  0  0
   37.7050   28.1980   42.6120 C   0  0  1  0  0  0  0  0  0  0  0  0
   39.7500   28.4980   43.3540 H   0  0  0  0  0  0  0  0  0  0  0  0
   37.5320   26.3640   43.8810 H   0  0  0  0  0  0  0  0  0  0  0  0
   37.7690   27.9220   44.8420 H   0  0  0  0  0  0  0  0  0  0  0  0
   37.3340   27.7590   41.6800 H   0  0  0  0  0  0  0  0  0  0  0  0
   37.4290   29.5790   42.7620 O   0  0  0  0  0  0  0  0  0  0  0  0
   37.0110   29.0970   40.2330 O   0  0  0  0  0  0  0  0  0  0  0  0
   37.1030   30.2160   41.2400 P   0  0  1  0  0  0  0  0  0  0  0  0
   35.5880   31.0240   41.2520 O   0  0  0  0  0  0  0  0  0  0  0  0
   34.9050   30.3140   41.1650 H   0  0  0  0  0  0  0  0  0  0  0  0
   38.2280   31.3150   40.7050 O   0  0  0  0  0  0  0  0  0  0  0  0
   38.3020   31.1830   39.3020 C   0  0  0  0  0  2  0  0  0  0  0  0
   37.3570   31.6580   38.9170 H   0  0  0  0  0  0  0  0  0  0  0  0
  1  6  1  6  0  0  0
  1  5  1  0  0  0  0
  1  2  1  0  0  0  0
  2  7  1  0  0  0  0
  2  8  1  0  0  0  0
  2  3  1  0  0  0  0
  3 10  1  0  0  0  0
  4 11  1  6  0  0  0
  4 23  1  0  0  0  0
  4  3  1  0  0  0  0
  5 12  1  0  0  0  0
  5  4  1  0  0  0  0
  9  3  1  0  0  0  0
 13  5  1  0  0  0  0
 14 15  1  0  0  0  0
 15 21  1  0  0  0  0
 15 16  2  0  0  0  0
 16  1  1  0  0  0  0
 17 16  1  0  0  0  0
 18 17  2  0  0  0  0
 19 14  2  0  0  0  0
 19 18  1  0  0  0  0
 20 14  1  0  0  0  0
 22 18  1  0  0  0  0
 23 26  1  1  0  0  0
 23 24  1  0  0  0  0
 24 27  1  0  0  0  0
 24 28  1  0  0  0  0
 25 29  1  6  0  0  0
 25 30  1  0  0  0  0
 25 23  1  0  0  0  0
 25 24  1  0  0  0  0
 32 31  2  6  0  0  0
 32 33  1  0  0  0  0
 32 30  1  0  0  0  0
 34 33  1  0  0  0  0
 35 32  1  0  0  0  0
 36 35  1  0  0  0  0
 37 36  1  0  0  0  0
M  END
>  <minimizedAffinity>
-4.902215

$$$$

 OpenBabel03252507563D

 37 39  0  0  1  0  0  0  0  0999 V2000
   36.5720   29.5360   41.3450 C   0  0  2  0  0  0  0  0  0  0  0  0
   38.0890   29.7350   41.2590 C   0  0  0  0  0  0  0  0  0  0  0  0
   38.4000   29.5430   42.7600 C   0  0  0  0  0  0  0  0  0  0  0  0
   37.4590   28.4710   43.2140 C   0  0  1  0  0  0  0  0  0  0  0  0
   36.5420   28.2090   42.0540 C   0  0  0  0  0  0  0  0  0  0  0  0
   36.1650   30.3820   41.9090 H   0  0  0  0  0  0  0  0  0  0  0  0
   38.3560   30.7390   40.9180 H   0  0  0  0  0  0  0  0  0  0  0  0
   38.5060   28.9210   40.6640 H   0  0  0  0  0  0  0  0  0  0  0  0
   38.1120   30.5130   43.2170 H   0  0  0  0  0  0  0  0  0  0  0  0
   39.4650   29.3080   42.9190 H   0  0  0  0  0  0  0  0  0  0  0  0
   36.8640   28.8260   44.1000 H   0  0  0  0  0  0  0  0  0  0  0  0
   36.8670   27.4300   41.3650 H   0  0  0  0  0  0  0  0  0  0  0  0
   35.5330   27.9840   42.4810 H   0  0  0  0  0  0  0  0  0  0  0  0
   34.2080   28.9710   38.4670 C   0  0  0  0  0  0  0  0  0  0  0  0
   34.6570   29.0260   39.7820 C   0  0  0  0  0  0  0  0  0  0  0  0
   35.9660   29.4560   39.9850 C   0  0  0  0  0  0  0  0  0  0  0  0
   36.7740   29.8100   38.8950 N   0  0  0  0  0  0  0  0  0  0  0  0
   36.2740   29.7340   37.6340 C   0  0  0  0  0  0  0  0  0  0  0  0
   34.9970   29.3160   37.4270 N   0  0  0  0  0  0  0  0  0  0  0  0
   33.1910   28.6400   38.2970 H   0  0  0  0  0  0  0  0  0  0  0  0
   34.0610   28.7600   40.6400 H   0  0  0  0  0  0  0  0  0  0  0  0
   36.9550   30.0220   36.8490 H   0  0  0  0  0  0  0  0  0  0  0  0
   38.1260   27.1580   43.5610 C   0  0  2  0  0  0  0  0  0  0  0  0
   39.5790   27.1720   43.6140 C   0  0  0  0  0  0  0  0  0  0  0  0
   38.8640   26.3880   42.5600 C   0  0  1  0  0  0  0  0  0  0  0  0
   37.5820   26.5840   44.3330 H   0  0  0  0  0  0  0  0  0  0  0  0
   40.1140   28.0900   43.2960 H   0  0  0  0  0  0  0  0  0  0  0  0
   40.1250   26.6160   44.4050 H   0  0  0  0  0  0  0  0  0  0  0  0
   38.7320   26.7440   41.5330 H   0  0  0  0  0  0  0  0  0  0  0  0
   38.8670   24.9770   42.6960 O   0  0  0  0  0  0  0  0  0  0  0  0
   39.0340   24.7910   40.1000 O   0  0  0  0  0  0  0  0  0  0  0  0
   38.2340   24.3130   41.2870 P   0  0  1  0  0  0  0  0  0  0  0  0
   38.3580   22.6020   41.3350 O   0  0  0  0  0  0  0  0  0  0  0  0
   39.2910   22.3930   41.0840 H   0  0  0  0  0  0  0  0  0  0  0  0
   36.6340   24.6720   41.0220 O   0  0  0  0  0  0  0  0  0  0  0  0
   36.5510   25.2870   39.7550 C   0  0  0  0  0  2  0  0  0  0  0  0
   36.6950   24.4490   39.0170 H   0  0  0  0  0  0  0  0  0  0  0  0
  1  6  1  1  0  0  0
  1  5  1  0  0  0  0
  2  1  1  0  0  0  0
  2  3  1  0  0  0  0
  3 10  1  0  0  0  0
  3  4  1  0  0  0  0
  3  9  1  0  0  0  0
  4 23  1  0  0  0  0
  4 11  1  1  0  0  0
  5 13  1  0  0  0  0
  5  4  1  0  0  0  0
  7  2  1  0  0  0  0
  8  2  1  0  0  0  0
 12  5  1  0  0  0  0
 14 15  1  0  0  0  0
 15 16  2  0  0  0  0
 15 21  1  0  0  0  0
 16  1  1  0  0  0  0
 17 16  1  0  0  0  0
 18 17  2  0  0  0  0
 19 18  1  0  0  0  0
 19 14  2  0  0  0  0
 20 14  1  0  0  0  0
 22 18  1  0  0  0  0
 23 24  1  0  0  0  0
 23 26  1  1  0  0  0
 24 28  1  0  0  0  0
 25 29  1  6  0  0  0
 25 30  1  0  0  0  0
 25 23  1  0  0  0  0
 25 24  1  0  0  0  0
 27 24  1  0  0  0  0
 32 31  2  6  0  0  0
 32 33  1  0  0  0  0
 32 30  1  0  0  0  0
 34 33  1  0  0  0  0
 35 32  1  0  0  0  0
 36 35  1  0  0  0  0
 37 36  1  0  0  0  0
M  END
>  <minimizedAffinity>
-4.88724422

$$$$
