REMARK  Name = 
REMARK  10 active torsions:
REMARK  status: ('A' for Active; 'I' for Inactive)
REMARK    1  A    between atoms: C_1  and  O_12
REMARK    2  A    between atoms: C_2  and  C_3
REMARK    3  A    between atoms: C_3  and  O_4
REMARK    4  A    between atoms: O_4  and  P_6
REMARK    5  A    between atoms: P_6  and  O_7
REMARK    6  A    between atoms: P_6  and  O_8
REMARK    7  A    between atoms: O_8  and  C_9
REMARK    8  A    between atoms: O_12  and  C_13
REMARK    9  A    between atoms: C_13  and  C_15
REMARK   10  A    between atoms: C_18  and  C_34
REMARK                            x       y       z     vdW  Elec       q    Type
REMARK                         _______ _______ _______ _____ _____    ______ ____
ROOT
ATOM      1  C   UNL     1      45.235  35.535  43.303  0.00  0.00    +0.000 C 
ATOM      2  H   UNL     1      46.041  35.122  42.652  0.00  0.00    +0.000 HD
ATOM      3  H   UNL     1      45.537  36.532  43.644  0.00  0.00    +0.000 HD
ENDROOT
BRANCH   1   5
ATOM      4  C   UNL     1      43.867  35.234  41.200  0.00  0.00    +0.000 C 
ATOM      5  C   UNL     1      43.957  35.577  42.482  0.00  0.00    +0.000 C 
BRANCH   4   6
ATOM      6  O   UNL     1      42.610  35.339  40.629  0.00  0.00    +0.000 OA
BRANCH   6   7
ATOM      7  C   UNL     1      41.437  35.667  41.235  0.00  0.00    +0.000 C 
ATOM      8  H   UNL     1      41.404  35.660  42.347  0.00  0.00    +0.000 HD
ATOM      9  H   UNL     1      41.111  36.681  40.922  0.00  0.00    +0.000 HD
BRANCH   7  11
ATOM     10  C   UNL     1      40.284  33.532  41.575  0.00  0.00    +0.000 A 
ATOM     11  C   UNL     1      40.310  34.747  40.857  0.00  0.00    +0.000 A 
ATOM     12  C   UNL     1      39.338  34.947  39.932  0.00  0.00    +0.000 A 
ATOM     13  N   UNL     1      38.438  33.989  39.774  0.00  0.00    +0.000 NA
ATOM     14  C   UNL     1      38.409  32.849  40.445  0.00  0.00    +0.000 A 
ATOM     15  N   UNL     1      39.374  32.571  41.411  0.00  0.00    +0.000 NA
ATOM     16  H   UNL     1      41.030  33.309  42.327  0.00  0.00    +0.000 HD
ATOM     17  H   UNL     1      39.401  35.890  39.410  0.00  0.00    +0.000 HD
BRANCH  14  18
ATOM     18  C   UNL     1      37.343  31.868  40.163  0.00  0.00    +0.000 C 
ATOM     19  H   UNL     1      36.829  32.161  39.219  0.00  0.00    +0.000 HD
ENDBRANCH  14  18
ENDBRANCH   7  11
ENDBRANCH   6   7
ENDBRANCH   4   6
ENDBRANCH   1   5
BRANCH   1  20
ATOM     20  O   UNL     1      45.012  34.652  44.341  0.00  0.00    +0.000 OA
BRANCH  20  22
ATOM     21  O   UNL     1      45.695  32.488  42.954  0.00  0.00    +0.000 OA
ATOM     22  P   UNL     1      45.998  33.292  44.196  0.00  0.00    +0.000 P 
BRANCH  22  23
ATOM     23  O   UNL     1      47.633  33.764  44.085  0.00  0.00    +0.000 OA
ATOM     24  H   UNL     1      48.082  33.651  44.938  0.00  0.00    +0.000 HD
ENDBRANCH  22  23
BRANCH  22  25
ATOM     25  O   UNL     1      45.857  32.319  45.568  0.00  0.00    +0.000 OA
BRANCH  25  26
ATOM     26  C   UNL     1      46.204  32.994  46.720  0.00  0.00    +0.000 C 
ATOM     27  C   UNL     1      47.053  32.312  47.744  0.00  0.00    +0.000 C 
ATOM     28  C   UNL     1      45.575  32.480  47.992  0.00  0.00    +0.000 C 
ATOM     29  H   UNL     1      46.323  34.076  46.611  0.00  0.00    +0.000 HD
ATOM     30  H   UNL     1      47.665  32.987  48.375  0.00  0.00    +0.000 HD
ATOM     31  H   UNL     1      47.444  31.324  47.473  0.00  0.00    +0.000 HD
ATOM     32  H   UNL     1      45.006  31.527  47.974  0.00  0.00    +0.000 HD
ATOM     33  H   UNL     1      45.211  33.201  48.746  0.00  0.00    +0.000 HD
ENDBRANCH  25  26
ENDBRANCH  22  25
ENDBRANCH  20  22
ENDBRANCH   1  20
TORSDOF 10
