
 OpenBabel03242515253D

 24 25  0  0  0  0  0  0  0  0999 V2000
   43.6850   35.5880   41.1560 C   0  0  0  0  0  0  0  0  0  0  0  0
   43.7000   36.6680   41.2460 H   0  0  0  0  0  0  0  0  0  0  0  0
   44.3780   35.3380   40.3120 H   0  0  0  0  0  0  0  0  0  0  0  0
   42.3750   35.0250   40.8830 N   0  0  0  0  0  0  0  0  0  0  0  0
   41.3530   35.3090   41.7080 C   0  0  0  0  0  0  0  0  0  0  0  0
   40.1130   34.7440   41.4060 C   0  0  0  0  0  0  0  0  0  0  0  0
   39.9490   33.9300   40.3040 C   0  0  0  0  0  0  0  0  0  0  0  0
   38.8190   33.4480   40.0780 O   0  0  0  0  0  0  0  0  0  0  0  0
   41.0060   33.6780   39.5120 N   0  0  0  0  0  0  0  0  0  0  0  0
   42.2180   34.2230   39.7960 C   0  0  0  0  0  0  0  0  0  0  0  0
   43.1600   33.9440   39.0100 O   0  0  0  0  0  0  0  0  0  0  0  0
   41.4990   35.9480   42.5650 H   0  0  0  0  0  0  0  0  0  0  0  0
   39.2650   34.9500   42.0480 H   0  0  0  0  0  0  0  0  0  0  0  0
   40.8370   33.0600   38.6940 H   0  0  0  0  0  0  0  0  0  0  0  0
   44.4600   35.7470   43.4500 C   0  0  0  0  0  0  0  0  0  0  0  0
   44.2430   34.9350   42.3430 C   0  0  0  0  0  0  0  0  0  0  0  0
   44.5740   33.6030   42.4790 C   0  0  0  0  0  0  0  0  0  0  0  0
   45.0800   33.1650   43.6490 N   0  0  0  0  0  0  0  0  0  0  0  0
   45.2740   33.9900   44.6970 C   0  0  0  0  0  0  0  0  0  0  0  0
   44.9710   35.3040   44.6310 N   0  0  0  0  0  0  0  0  0  0  0  0
   44.2320   36.8130   43.4450 H   0  0  0  0  0  0  0  0  0  0  0  0
   44.4000   32.9810   41.6080 H   0  0  0  0  0  0  0  0  0  0  0  0
   45.8370   33.4760   45.9820 C   0  0  0  0  0  0  0  0  0  0  0  0
   45.2190   32.6290   46.3750 H   0  0  0  0  0  0  0  0  0  0  0  0
  1  2  1  0  0  0  0
  1 16  1  0  0  0  0
  3  1  1  0  0  0  0
  4  1  1  0  0  0  0
  4  5  1  0  0  0  0
  5 12  1  0  0  0  0
  6  5  2  0  0  0  0
  6 13  1  0  0  0  0
  7  6  1  0  0  0  0
  8  7  2  0  0  0  0
  9 10  1  0  0  0  0
  9  7  1  0  0  0  0
 10  4  1  0  0  0  0
 11 10  2  0  0  0  0
 14  9  1  0  0  0  0
 15 20  1  0  0  0  0
 16 17  1  0  0  0  0
 16 15  2  0  0  0  0
 17 18  2  0  0  0  0
 18 19  1  0  0  0  0
 19 23  1  0  0  0  0
 20 19  2  0  0  0  0
 21 15  1  0  0  0  0
 22 17  1  0  0  0  0
 23 24  1  0  0  0  0
M  END
>  <minimizedAffinity>
-4.52995205

>  <minimizedRMSD>
0.670541942

$$$$
