
 OpenBabel03252508353D

 24 25  0  0  0  0  0  0  0  0999 V2000
   47.4390   34.2020   39.9330 C   0  0  0  0  0  0  0  0  0  0  0  0
   46.3860   33.5720   40.5420 C   0  0  0  0  0  0  0  0  0  0  0  0
   45.6170   32.7410   39.7770 C   0  0  0  0  0  0  0  0  0  0  0  0
   45.8540   32.5130   38.4300 C   0  0  0  0  0  0  0  0  0  0  0  0
   46.9160   33.1570   37.8430 C   0  0  0  0  0  0  0  0  0  0  0  0
   47.7190   34.0070   38.5830 C   0  0  0  0  0  0  0  0  0  0  0  0
   44.7880   32.2510   40.2780 H   0  0  0  0  0  0  0  0  0  0  0  0
   45.2040   31.8400   37.8740 H   0  0  0  0  0  0  0  0  0  0  0  0
   47.1360   33.0080   36.7950 H   0  0  0  0  0  0  0  0  0  0  0  0
   45.0290   34.9630   43.7780 C   0  0  0  0  0  0  0  0  0  0  0  0
   45.1930   34.7290   42.3990 C   0  0  0  0  0  0  0  0  0  0  0  0
   46.1820   33.8430   41.9500 C   0  0  0  0  0  0  0  0  0  0  0  0
   46.9370   33.2540   42.9190 N   0  0  0  0  0  0  0  0  0  0  0  0
   46.7670   33.4870   44.2250 C   0  0  0  0  0  0  0  0  0  0  0  0
   45.8170   34.3400   44.6590 N   0  0  0  0  0  0  0  0  0  0  0  0
   44.0230   35.8590   44.1770 N   0  0  0  0  0  0  0  0  0  0  0  0
   44.5550   35.2330   41.6890 H   0  0  0  0  0  0  0  0  0  0  0  0
   47.4410   32.9490   44.8840 H   0  0  0  0  0  0  0  0  0  0  0  0
   43.1400   35.3050   44.0800 H   0  0  0  0  0  0  0  0  0  0  0  0
   44.4670   36.7700   44.4360 H   0  0  0  0  0  0  0  0  0  0  0  0
   49.0150   35.8070   41.2590 N   0  0  0  0  0  0  0  0  0  0  0  0
   48.3020   35.0940   40.6570 C   0  0  0  0  0  0  0  0  0  0  0  0
   48.8780   34.7140   37.9570 C   0  0  0  0  0  0  0  0  0  0  0  0
   49.8220   34.1310   38.0990 H   0  0  0  0  0  0  0  0  0  0  0  0
  1  2  1  0  0  0  0
  1 22  1  0  0  0  0
  2 12  1  0  0  0  0
  3  7  1  0  0  0  0
  3  2  2  0  0  0  0
  4  3  1  0  0  0  0
  5  4  2  0  0  0  0
  5  6  1  0  0  0  0
  6  1  2  0  0  0  0
  8  4  1  0  0  0  0
  9  5  1  0  0  0  0
 10 16  1  0  0  0  0
 10 15  1  0  0  0  0
 11 10  2  0  0  0  0
 12 11  1  0  0  0  0
 12 13  2  0  0  0  0
 13 14  1  0  0  0  0
 14 15  2  0  0  0  0
 14 18  1  0  0  0  0
 16 20  1  0  0  0  0
 17 11  1  0  0  0  0
 19 16  1  0  0  0  0
 22 21  3  0  0  0  0
 23 24  1  0  0  0  0
 23  6  1  0  0  0  0
M  END
>  <minimizedAffinity>
-4.4893508

>  <minimizedRMSD>
0.674214423

$$$$
