
 OpenBabel03252508193D

 40 43  0  0  1  0  0  0  0  0999 V2000
   34.2720   29.0450   39.5820 C   0  0  0  0  0  3  0  0  0  0  0  0
   34.4370   28.9440   38.3310 C   0  0  0  0  0  3  0  0  0  0  0  0
   37.0090   30.4440   41.6150 C   0  0  0  0  0  0  0  0  0  0  0  0
   37.6790   29.3100   42.0590 C   0  0  0  0  0  0  0  0  0  0  0  0
   37.1790   28.1160   41.6490 C   0  0  0  0  0  0  0  0  0  0  0  0
   36.0800   28.0650   40.8480 N   0  0  0  0  0  0  0  0  0  0  0  0
   35.4540   29.1890   40.4360 C   0  0  0  0  0  0  0  0  0  0  0  0
   35.9390   30.3550   40.8320 N   0  0  0  0  0  0  0  0  0  0  0  0
   37.3530   31.4330   41.9030 H   0  0  0  0  0  0  0  0  0  0  0  0
   38.5490   29.3750   42.6970 H   0  0  0  0  0  0  0  0  0  0  0  0
   37.7780   26.8430   42.0340 C   0  0  0  0  0  0  0  0  0  0  0  0
   37.2760   25.6140   41.7210 C   0  0  0  0  0  0  0  0  0  0  0  0
   37.8570   24.4190   42.0940 C   0  0  0  0  0  0  0  0  0  0  0  0
   39.0230   24.4310   42.8320 C   0  0  0  0  0  0  0  0  0  0  0  0
   39.5740   25.6350   43.1770 C   0  0  0  0  0  0  0  0  0  0  0  0
   38.9520   26.8040   42.7790 C   0  0  0  0  0  0  0  0  0  0  0  0
   36.3470   25.5980   41.1320 H   0  0  0  0  0  0  0  0  0  0  0  0
   37.3560   23.5110   41.7800 H   0  0  0  0  0  0  0  0  0  0  0  0
   39.4760   23.4910   43.1230 H   0  0  0  0  0  0  0  0  0  0  0  0
   40.4860   25.6990   43.7560 H   0  0  0  0  0  0  0  0  0  0  0  0
   39.4210   27.7410   43.0710 H   0  0  0  0  0  0  0  0  0  0  0  0
   33.1750   28.8520   37.5040 C   0  0  0  0  0  0  0  0  0  0  0  0
   32.8650   27.7660   37.5330 H   0  0  0  0  0  0  0  0  0  0  0  0
   32.4490   29.4410   38.0360 H   0  0  0  0  0  0  0  0  0  0  0  0
   33.4550   29.1890   36.0820 C   0  0  1  0  0  0  0  0  0  0  0  0
   32.7920   28.2970   35.0880 C   0  0  0  0  0  0  0  0  0  0  0  0
   32.3720   29.6900   35.2100 C   0  0  1  0  0  0  0  0  0  0  0  0
   34.5500   29.2750   35.8180 H   0  0  0  0  0  0  0  0  0  0  0  0
   32.0420   27.5480   35.4540 H   0  0  0  0  0  0  0  0  0  0  0  0
   33.3010   27.9260   34.1800 H   0  0  0  0  0  0  0  0  0  0  0  0
   32.6880   30.3760   34.3960 H   0  0  0  0  0  0  0  0  0  0  0  0
   31.0730   30.0640   35.8490 C   0  0  2  0  0  0  0  0  0  0  0  0
   30.1900   30.9720   34.9550 C   0  0  0  0  0  0  0  0  0  0  0  0
   30.8380   31.5490   36.1430 C   0  0  1  0  0  0  0  0  0  0  0  0
   30.4430   29.3100   36.3460 H   0  0  0  0  0  0  0  0  0  0  0  0
   29.1090   30.8840   34.9820 H   0  0  0  0  0  0  0  0  0  0  0  0
   30.5950   31.2880   33.9750 H   0  0  0  0  0  0  0  0  0  0  0  0
   31.7450   32.1970   35.9840 H   0  0  0  0  0  0  0  0  0  0  0  0
   30.1030   31.9090   37.3980 C   0  0  0  0  0  2  0  0  0  0  0  0
   30.4480   32.8070   37.9120 H   0  0  0  0  0  0  0  0  0  0  0  0
  1  7  1  0  0  0  0
  2  1  2  0  0  0  0
  3  9  1  0  0  0  0
  3  4  1  0  0  0  0
  4 10  1  0  0  0  0
  5 11  1  0  0  0  0
  5  4  2  0  0  0  0
  6  5  1  0  0  0  0
  7  8  1  0  0  0  0
  7  6  2  0  0  0  0
  8  3  2  0  0  0  0
 11 16  1  0  0  0  0
 12 11  2  0  0  0  0
 12 13  1  0  0  0  0
 13 14  2  0  0  0  0
 14 19  1  0  0  0  0
 14 15  1  0  0  0  0
 15 20  1  0  0  0  0
 16 21  1  0  0  0  0
 16 15  2  0  0  0  0
 17 12  1  0  0  0  0
 18 13  1  0  0  0  0
 22 23  1  0  0  0  0
 22 24  1  0  0  0  0
 22  2  1  0  0  0  0
 25 28  1  6  0  0  0
 25 22  1  0  0  0  0
 26 27  1  0  0  0  0
 26 29  1  0  0  0  0
 26 25  1  0  0  0  0
 27 31  1  6  0  0  0
 27 32  1  0  0  0  0
 27 25  1  0  0  0  0
 30 26  1  0  0  0  0
 32 34  1  0  0  0  0
 32 35  1  1  0  0  0
 33 36  1  0  0  0  0
 33 32  1  0  0  0  0
 33 34  1  0  0  0  0
 34 38  1  6  0  0  0
 34 39  1  0  0  0  0
 37 33  1  0  0  0  0
 39 40  1  0  0  0  0
M  END
>  <minimizedAffinity>
-5.70729017

$$$$

 OpenBabel03252508193D

 40 43  0  0  1  0  0  0  0  0999 V2000
   40.8140   31.6160   41.6210 C   0  0  0  0  0  3  0  0  0  0  0  0
   40.6610   30.5800   42.3320 C   0  0  0  0  0  3  0  0  0  0  0  0
   38.4000   33.9380   40.0840 C   0  0  0  0  0  0  0  0  0  0  0  0
   37.3990   33.0900   39.6270 C   0  0  0  0  0  0  0  0  0  0  0  0
   37.5800   31.7640   39.8600 C   0  0  0  0  0  0  0  0  0  0  0  0
   38.6910   31.3210   40.5090 N   0  0  0  0  0  0  0  0  0  0  0  0
   39.6440   32.1760   40.9400 C   0  0  0  0  0  0  0  0  0  0  0  0
   39.4710   33.4690   40.7150 N   0  0  0  0  0  0  0  0  0  0  0  0
   38.3220   35.0110   39.9330 H   0  0  0  0  0  0  0  0  0  0  0  0
   36.5240   33.4640   39.1130 H   0  0  0  0  0  0  0  0  0  0  0  0
   36.6120   30.7560   39.4400 C   0  0  0  0  0  0  0  0  0  0  0  0
   36.4550   30.3050   38.1620 C   0  0  0  0  0  0  0  0  0  0  0  0
   35.5350   29.3500   37.7820 C   0  0  0  0  0  0  0  0  0  0  0  0
   34.7010   28.7940   38.7310 C   0  0  0  0  0  0  0  0  0  0  0  0
   34.8110   29.2080   40.0310 C   0  0  0  0  0  0  0  0  0  0  0  0
   35.7510   30.1680   40.3600 C   0  0  0  0  0  0  0  0  0  0  0  0
   37.1180   30.7440   37.4010 H   0  0  0  0  0  0  0  0  0  0  0  0
   35.5120   29.0790   36.7340 H   0  0  0  0  0  0  0  0  0  0  0  0
   33.9790   28.0450   38.4290 H   0  0  0  0  0  0  0  0  0  0  0  0
   34.1810   28.8050   40.8130 H   0  0  0  0  0  0  0  0  0  0  0  0
   35.8080   30.4700   41.4030 H   0  0  0  0  0  0  0  0  0  0  0  0
   41.8960   30.0840   43.0500 C   0  0  0  0  0  0  0  0  0  0  0  0
   42.6690   30.9000   42.9330 H   0  0  0  0  0  0  0  0  0  0  0  0
   41.6080   30.0140   44.0840 H   0  0  0  0  0  0  0  0  0  0  0  0
   42.4390   28.8700   42.3840 C   0  0  1  0  0  0  0  0  0  0  0  0
   43.2580   27.9880   43.2650 C   0  0  0  0  0  0  0  0  0  0  0  0
   41.9610   27.5280   42.7780 C   0  0  1  0  0  0  0  0  0  0  0  0
   43.0140   29.0640   41.4300 H   0  0  0  0  0  0  0  0  0  0  0  0
   43.2940   28.2110   44.3630 H   0  0  0  0  0  0  0  0  0  0  0  0
   44.1990   27.5140   42.9330 H   0  0  0  0  0  0  0  0  0  0  0  0
   41.9750   26.7570   41.9800 H   0  0  0  0  0  0  0  0  0  0  0  0
   40.7700   27.4450   43.6790 C   0  0  2  0  0  0  0  0  0  0  0  0
   40.0900   26.0520   43.6700 C   0  0  0  0  0  0  0  0  0  0  0  0
   39.4110   27.1840   43.0230 C   0  0  1  0  0  0  0  0  0  0  0  0
   40.8060   27.8320   44.7100 H   0  0  0  0  0  0  0  0  0  0  0  0
   39.6340   25.6580   44.5710 H   0  0  0  0  0  0  0  0  0  0  0  0
   40.5020   25.2780   42.9940 H   0  0  0  0  0  0  0  0  0  0  0  0
   39.4270   27.2350   41.8980 H   0  0  0  0  0  0  0  0  0  0  0  0
   38.2090   27.8710   43.5980 C   0  0  0  0  0  2  0  0  0  0  0  0
   37.4600   28.2040   42.8800 H   0  0  0  0  0  0  0  0  0  0  0  0
  1  2  2  0  0  0  0
  2 22  1  0  0  0  0
  3  8  1  0  0  0  0
  4  5  1  0  0  0  0
  4  3  2  0  0  0  0
  5  6  2  0  0  0  0
  6  7  1  0  0  0  0
  7  1  1  0  0  0  0
  8  7  2  0  0  0  0
  9  3  1  0  0  0  0
 10  4  1  0  0  0  0
 11  5  1  0  0  0  0
 11 16  1  0  0  0  0
 12 11  2  0  0  0  0
 13 12  1  0  0  0  0
 13 14  2  0  0  0  0
 14 15  1  0  0  0  0
 15 16  2  0  0  0  0
 15 20  1  0  0  0  0
 16 21  1  0  0  0  0
 17 12  1  0  0  0  0
 18 13  1  0  0  0  0
 19 14  1  0  0  0  0
 22 24  1  0  0  0  0
 23 22  1  0  0  0  0
 25 28  1  6  0  0  0
 25 27  1  0  0  0  0
 25 22  1  0  0  0  0
 25 26  1  0  0  0  0
 26 29  1  0  0  0  0
 27 31  1  6  0  0  0
 27 26  1  0  0  0  0
 27 32  1  0  0  0  0
 30 26  1  0  0  0  0
 32 35  1  1  0  0  0
 33 32  1  0  0  0  0
 33 36  1  0  0  0  0
 34 38  1  6  0  0  0
 34 39  1  0  0  0  0
 34 33  1  0  0  0  0
 34 32  1  0  0  0  0
 37 33  1  0  0  0  0
 40 39  1  0  0  0  0
M  END
>  <minimizedAffinity>
-5.5189662

$$$$

 OpenBabel03252508193D

 40 43  0  0  1  0  0  0  0  0999 V2000
   35.0230   28.4920   38.8220 C   0  0  0  0  0  3  0  0  0  0  0  0
   36.1030   27.8330   38.8580 C   0  0  0  0  0  3  0  0  0  0  0  0
   33.0310   26.8220   36.2090 C   0  0  0  0  0  0  0  0  0  0  0  0
   32.2290   27.8470   35.7240 C   0  0  0  0  0  0  0  0  0  0  0  0
   32.3980   29.0660   36.3000 C   0  0  0  0  0  0  0  0  0  0  0  0
   33.3090   29.2420   37.2950 N   0  0  0  0  0  0  0  0  0  0  0  0
   34.0720   28.2190   37.7410 C   0  0  0  0  0  0  0  0  0  0  0  0
   33.9120   27.0310   37.1820 N   0  0  0  0  0  0  0  0  0  0  0  0
   32.9520   25.8200   35.7960 H   0  0  0  0  0  0  0  0  0  0  0  0
   31.5110   27.6850   34.9340 H   0  0  0  0  0  0  0  0  0  0  0  0
   31.6280   30.2370   35.8930 C   0  0  0  0  0  0  0  0  0  0  0  0
   31.6280   30.7790   34.6410 C   0  0  0  0  0  0  0  0  0  0  0  0
   30.8930   31.8870   34.2730 C   0  0  0  0  0  0  0  0  0  0  0  0
   30.0950   32.5140   35.2090 C   0  0  0  0  0  0  0  0  0  0  0  0
   30.0540   32.0150   36.4820 C   0  0  0  0  0  0  0  0  0  0  0  0
   30.8090   30.9020   36.8000 C   0  0  0  0  0  0  0  0  0  0  0  0
   32.2620   30.2830   33.8900 H   0  0  0  0  0  0  0  0  0  0  0  0
   30.9820   32.2170   33.2460 H   0  0  0  0  0  0  0  0  0  0  0  0
   29.5190   33.3840   34.9170 H   0  0  0  0  0  0  0  0  0  0  0  0
   29.4450   32.4700   37.2530 H   0  0  0  0  0  0  0  0  0  0  0  0
   30.7500   30.5360   37.8220 H   0  0  0  0  0  0  0  0  0  0  0  0
   37.0150   28.1240   40.0280 C   0  0  0  0  0  0  0  0  0  0  0  0
   37.2380   27.1220   40.5020 H   0  0  0  0  0  0  0  0  0  0  0  0
   37.9160   28.5160   39.5900 H   0  0  0  0  0  0  0  0  0  0  0  0
   36.3110   28.9440   41.0510 C   0  0  1  0  0  0  0  0  0  0  0  0
   37.1570   29.3630   42.2050 C   0  0  0  0  0  0  0  0  0  0  0  0
   36.6790   30.3600   41.2520 C   0  0  1  0  0  0  0  0  0  0  0  0
   35.3540   28.4920   41.4490 H   0  0  0  0  0  0  0  0  0  0  0  0
   38.2600   29.1650   42.1620 H   0  0  0  0  0  0  0  0  0  0  0  0
   36.7990   29.3470   43.2500 H   0  0  0  0  0  0  0  0  0  0  0  0
   35.8620   31.0260   41.5980 H   0  0  0  0  0  0  0  0  0  0  0  0
   37.5960   30.9940   40.2540 C   0  0  2  0  0  0  0  0  0  0  0  0
   37.4440   32.5350   40.1750 C   0  0  0  0  0  0  0  0  0  0  0  0
   36.9510   31.7070   39.0630 C   0  0  1  0  0  0  0  0  0  0  0  0
   38.6640   30.7260   40.2090 H   0  0  0  0  0  0  0  0  0  0  0  0
   38.3050   33.1620   39.9740 H   0  0  0  0  0  0  0  0  0  0  0  0
   36.6720   33.0140   40.8070 H   0  0  0  0  0  0  0  0  0  0  0  0
   35.8400   31.5470   38.9790 H   0  0  0  0  0  0  0  0  0  0  0  0
   37.6340   31.6120   37.7320 C   0  0  0  0  0  2  0  0  0  0  0  0
   36.9800   31.5350   36.8640 H   0  0  0  0  0  0  0  0  0  0  0  0
  1  2  2  0  0  0  0
  2 22  1  0  0  0  0
  3  8  1  0  0  0  0
  4  3  2  0  0  0  0
  4  5  1  0  0  0  0
  5  6  2  0  0  0  0
  6  7  1  0  0  0  0
  7  1  1  0  0  0  0
  8  7  2  0  0  0  0
  9  3  1  0  0  0  0
 10  4  1  0  0  0  0
 11  5  1  0  0  0  0
 11 16  1  0  0  0  0
 12 11  2  0  0  0  0
 13 12  1  0  0  0  0
 13 14  2  0  0  0  0
 14 15  1  0  0  0  0
 15 16  2  0  0  0  0
 15 20  1  0  0  0  0
 16 21  1  0  0  0  0
 17 12  1  0  0  0  0
 18 13  1  0  0  0  0
 19 14  1  0  0  0  0
 22 23  1  0  0  0  0
 22 25  1  0  0  0  0
 24 22  1  0  0  0  0
 25 27  1  0  0  0  0
 25 28  1  1  0  0  0
 25 26  1  0  0  0  0
 26 30  1  0  0  0  0
 27 31  1  1  0  0  0
 27 26  1  0  0  0  0
 29 26  1  0  0  0  0
 32 35  1  6  0  0  0
 32 27  1  0  0  0  0
 33 32  1  0  0  0  0
 33 37  1  0  0  0  0
 34 38  1  6  0  0  0
 34 33  1  0  0  0  0
 34 32  1  0  0  0  0
 36 33  1  0  0  0  0
 39 34  1  0  0  0  0
 40 39  1  0  0  0  0
M  END
>  <minimizedAffinity>
-5.41751337

$$$$

 OpenBabel03252508193D

 40 43  0  0  1  0  0  0  0  0999 V2000
   40.1860   29.9990   42.5050 C   0  0  0  0  0  3  0  0  0  0  0  0
   40.1590   28.7480   42.3180 C   0  0  0  0  0  3  0  0  0  0  0  0
   38.6740   32.8890   40.7900 C   0  0  0  0  0  0  0  0  0  0  0  0
   37.6080   32.3220   40.1040 C   0  0  0  0  0  0  0  0  0  0  0  0
   37.4410   30.9830   40.2520 C   0  0  0  0  0  0  0  0  0  0  0  0
   38.2880   30.2620   41.0360 N   0  0  0  0  0  0  0  0  0  0  0  0
   39.3150   30.8490   41.6890 C   0  0  0  0  0  0  0  0  0  0  0  0
   39.4810   32.1540   41.5480 N   0  0  0  0  0  0  0  0  0  0  0  0
   38.8690   33.9560   40.7190 H   0  0  0  0  0  0  0  0  0  0  0  0
   36.9480   32.9140   39.4850 H   0  0  0  0  0  0  0  0  0  0  0  0
   36.3630   30.2510   39.5940 C   0  0  0  0  0  0  0  0  0  0  0  0
   35.3000   29.6810   40.2300 C   0  0  0  0  0  0  0  0  0  0  0  0
   34.2890   28.9920   39.5910 C   0  0  0  0  0  0  0  0  0  0  0  0
   34.3260   28.8500   38.2190 C   0  0  0  0  0  0  0  0  0  0  0  0
   35.3700   29.4000   37.5260 C   0  0  0  0  0  0  0  0  0  0  0  0
   36.3570   30.0810   38.2130 C   0  0  0  0  0  0  0  0  0  0  0  0
   35.2650   29.7920   41.3250 H   0  0  0  0  0  0  0  0  0  0  0  0
   33.5010   28.5880   40.2140 H   0  0  0  0  0  0  0  0  0  0  0  0
   33.5310   28.3080   37.7210 H   0  0  0  0  0  0  0  0  0  0  0  0
   35.4450   29.3170   36.4490 H   0  0  0  0  0  0  0  0  0  0  0  0
   37.1690   30.5040   37.6270 H   0  0  0  0  0  0  0  0  0  0  0  0
   41.0400   27.9240   43.2290 C   0  0  0  0  0  0  0  0  0  0  0  0
   41.9100   28.5920   43.5020 H   0  0  0  0  0  0  0  0  0  0  0  0
   40.4440   27.7430   44.1060 H   0  0  0  0  0  0  0  0  0  0  0  0
   41.5990   26.7540   42.5000 C   0  0  1  0  0  0  0  0  0  0  0  0
   42.0350   25.6260   43.3730 C   0  0  0  0  0  0  0  0  0  0  0  0
   40.8780   25.4650   42.4980 C   0  0  1  0  0  0  0  0  0  0  0  0
   42.4340   26.9950   41.7770 H   0  0  0  0  0  0  0  0  0  0  0  0
   41.7930   25.6690   44.4680 H   0  0  0  0  0  0  0  0  0  0  0  0
   42.9690   25.0610   43.2040 H   0  0  0  0  0  0  0  0  0  0  0  0
   41.0210   24.8340   41.5970 H   0  0  0  0  0  0  0  0  0  0  0  0
   39.4840   25.4410   43.0390 C   0  0  2  0  0  0  0  0  0  0  0  0
   38.6180   24.2970   42.4520 C   0  0  0  0  0  0  0  0  0  0  0  0
   38.3420   25.6840   42.0470 C   0  0  1  0  0  0  0  0  0  0  0  0
   39.2880   25.5340   44.1190 H   0  0  0  0  0  0  0  0  0  0  0  0
   37.8680   23.8070   43.0630 H   0  0  0  0  0  0  0  0  0  0  0  0
   39.0730   23.6440   41.6830 H   0  0  0  0  0  0  0  0  0  0  0  0
   38.6840   26.0110   41.0260 H   0  0  0  0  0  0  0  0  0  0  0  0
   37.1550   26.4660   42.5190 C   0  0  0  0  0  2  0  0  0  0  0  0
   36.7040   27.1380   41.7880 H   0  0  0  0  0  0  0  0  0  0  0  0
  2  1  2  0  0  0  0
  2 22  1  0  0  0  0
  3  8  1  0  0  0  0
  4  5  1  0  0  0  0
  4  3  2  0  0  0  0
  5  6  2  0  0  0  0
  6  7  1  0  0  0  0
  7  1  1  0  0  0  0
  8  7  2  0  0  0  0
  9  3  1  0  0  0  0
 10  4  1  0  0  0  0
 11 12  1  0  0  0  0
 11  5  1  0  0  0  0
 12 17  1  0  0  0  0
 13 18  1  0  0  0  0
 13 12  2  0  0  0  0
 14 13  1  0  0  0  0
 15 16  1  0  0  0  0
 15 14  2  0  0  0  0
 16 11  2  0  0  0  0
 19 14  1  0  0  0  0
 20 15  1  0  0  0  0
 21 16  1  0  0  0  0
 22 23  1  0  0  0  0
 22 24  1  0  0  0  0
 25 28  1  6  0  0  0
 25 22  1  0  0  0  0
 25 26  1  0  0  0  0
 26 29  1  0  0  0  0
 27 31  1  6  0  0  0
 27 25  1  0  0  0  0
 27 32  1  0  0  0  0
 27 26  1  0  0  0  0
 30 26  1  0  0  0  0
 32 35  1  1  0  0  0
 33 32  1  0  0  0  0
 33 36  1  0  0  0  0
 34 38  1  6  0  0  0
 34 33  1  0  0  0  0
 34 39  1  0  0  0  0
 34 32  1  0  0  0  0
 37 33  1  0  0  0  0
 40 39  1  0  0  0  0
M  END
>  <minimizedAffinity>
-5.38407755

$$$$

 OpenBabel03252508193D

 40 43  0  0  1  0  0  0  0  0999 V2000
   34.3830   29.1650   36.8650 C   0  0  0  0  0  3  0  0  0  0  0  0
   33.2900   28.8810   37.4360 C   0  0  0  0  0  3  0  0  0  0  0  0
   37.7340   29.8330   38.2430 C   0  0  0  0  0  0  0  0  0  0  0  0
   37.8870   28.8310   39.1930 C   0  0  0  0  0  0  0  0  0  0  0  0
   36.8490   27.9660   39.3270 C   0  0  0  0  0  0  0  0  0  0  0  0
   35.7340   28.0990   38.5590 N   0  0  0  0  0  0  0  0  0  0  0  0
   35.6210   29.0870   37.6440 C   0  0  0  0  0  0  0  0  0  0  0  0
   36.6300   29.9320   37.5100 N   0  0  0  0  0  0  0  0  0  0  0  0
   38.5240   30.5620   38.0810 H   0  0  0  0  0  0  0  0  0  0  0  0
   38.7820   28.7450   39.7930 H   0  0  0  0  0  0  0  0  0  0  0  0
   36.8680   26.8620   40.2820 C   0  0  0  0  0  0  0  0  0  0  0  0
   37.0730   26.9910   41.6240 C   0  0  0  0  0  0  0  0  0  0  0  0
   37.0880   25.9350   42.5130 C   0  0  0  0  0  0  0  0  0  0  0  0
   36.8850   24.6520   42.0470 C   0  0  0  0  0  0  0  0  0  0  0  0
   36.6730   24.4610   40.7090 C   0  0  0  0  0  0  0  0  0  0  0  0
   36.6680   25.5520   39.8600 C   0  0  0  0  0  0  0  0  0  0  0  0
   37.2350   28.0120   42.0010 H   0  0  0  0  0  0  0  0  0  0  0  0
   37.2610   26.1730   43.5550 H   0  0  0  0  0  0  0  0  0  0  0  0
   36.8970   23.8260   42.7480 H   0  0  0  0  0  0  0  0  0  0  0  0
   36.5100   23.4750   40.2930 H   0  0  0  0  0  0  0  0  0  0  0  0
   36.4970   25.3590   38.8030 H   0  0  0  0  0  0  0  0  0  0  0  0
   32.0560   28.9290   36.5630 C   0  0  0  0  0  0  0  0  0  0  0  0
   31.8730   27.8650   36.2280 H   0  0  0  0  0  0  0  0  0  0  0  0
   31.2610   29.2350   37.2190 H   0  0  0  0  0  0  0  0  0  0  0  0
   32.3120   29.7340   35.3380 C   0  0  1  0  0  0  0  0  0  0  0  0
   31.4420   29.3940   34.1760 C   0  0  0  0  0  0  0  0  0  0  0  0
   31.2910   30.6820   34.8450 C   0  0  1  0  0  0  0  0  0  0  0  0
   33.3880   29.7500   34.9930 H   0  0  0  0  0  0  0  0  0  0  0  0
   30.5890   28.6820   34.3320 H   0  0  0  0  0  0  0  0  0  0  0  0
   31.8220   29.3230   33.1410 H   0  0  0  0  0  0  0  0  0  0  0  0
   31.6800   31.5700   34.3050 H   0  0  0  0  0  0  0  0  0  0  0  0
   30.1210   30.9750   35.7290 C   0  0  2  0  0  0  0  0  0  0  0  0
   29.5880   32.4230   35.5810 C   0  0  0  0  0  0  0  0  0  0  0  0
   30.3070   32.0460   36.8080 C   0  0  1  0  0  0  0  0  0  0  0  0
   29.2730   30.2750   35.8040 H   0  0  0  0  0  0  0  0  0  0  0  0
   28.5280   32.6310   35.6790 H   0  0  0  0  0  0  0  0  0  0  0  0
   30.1220   33.1050   34.8920 H   0  0  0  0  0  0  0  0  0  0  0  0
   31.3690   32.4000   36.9240 H   0  0  0  0  0  0  0  0  0  0  0  0
   29.6360   31.8350   38.1310 C   0  0  0  0  0  2  0  0  0  0  0  0
   30.1950   32.1650   39.0070 H   0  0  0  0  0  0  0  0  0  0  0  0
  1  2  2  0  0  0  0
  1  7  1  0  0  0  0
  3  4  1  0  0  0  0
  4  5  2  0  0  0  0
  4 10  1  0  0  0  0
  5 11  1  0  0  0  0
  6  5  1  0  0  0  0
  7  6  2  0  0  0  0
  8  7  1  0  0  0  0
  8  3  2  0  0  0  0
  9  3  1  0  0  0  0
 11 12  1  0  0  0  0
 12 17  1  0  0  0  0
 12 13  2  0  0  0  0
 13 18  1  0  0  0  0
 14 13  1  0  0  0  0
 14 19  1  0  0  0  0
 15 14  2  0  0  0  0
 16 11  2  0  0  0  0
 16 15  1  0  0  0  0
 20 15  1  0  0  0  0
 21 16  1  0  0  0  0
 22 24  1  0  0  0  0
 22  2  1  0  0  0  0
 23 22  1  0  0  0  0
 25 28  1  6  0  0  0
 25 22  1  0  0  0  0
 26 29  1  0  0  0  0
 26 27  1  0  0  0  0
 26 25  1  0  0  0  0
 27 31  1  6  0  0  0
 27 25  1  0  0  0  0
 27 32  1  0  0  0  0
 30 26  1  0  0  0  0
 32 35  1  1  0  0  0
 32 34  1  0  0  0  0
 33 36  1  0  0  0  0
 33 32  1  0  0  0  0
 33 34  1  0  0  0  0
 34 38  1  1  0  0  0
 34 39  1  0  0  0  0
 37 33  1  0  0  0  0
 39 40  1  0  0  0  0
M  END
>  <minimizedAffinity>
-5.36561537

$$$$

 OpenBabel03252508193D

 40 43  0  0  1  0  0  0  0  0999 V2000
   36.0570   29.3470   39.2100 C   0  0  0  0  0  3  0  0  0  0  0  0
   35.6100   29.7350   40.3290 C   0  0  0  0  0  3  0  0  0  0  0  0
   34.3680   26.7390   37.2290 C   0  0  0  0  0  0  0  0  0  0  0  0
   33.3650   27.4430   36.5760 C   0  0  0  0  0  0  0  0  0  0  0  0
   33.3020   28.7760   36.8290 C   0  0  0  0  0  0  0  0  0  0  0  0
   34.1870   29.3600   37.6820 N   0  0  0  0  0  0  0  0  0  0  0  0
   35.1510   28.6420   38.2990 C   0  0  0  0  0  0  0  0  0  0  0  0
   35.2150   27.3440   38.0550 N   0  0  0  0  0  0  0  0  0  0  0  0
   34.4780   25.6690   37.0740 H   0  0  0  0  0  0  0  0  0  0  0  0
   32.6710   26.9580   35.9030 H   0  0  0  0  0  0  0  0  0  0  0  0
   32.3040   29.6440   36.2140 C   0  0  0  0  0  0  0  0  0  0  0  0
   31.2450   30.2050   36.8650 C   0  0  0  0  0  0  0  0  0  0  0  0
   30.3100   31.0250   36.2670 C   0  0  0  0  0  0  0  0  0  0  0  0
   30.4220   31.3160   34.9220 C   0  0  0  0  0  0  0  0  0  0  0  0
   31.4640   30.7800   34.2160 C   0  0  0  0  0  0  0  0  0  0  0  0
   32.3750   29.9650   34.8620 C   0  0  0  0  0  0  0  0  0  0  0  0
   31.1500   29.9770   37.9380 H   0  0  0  0  0  0  0  0  0  0  0  0
   29.5160   31.4060   36.8970 H   0  0  0  0  0  0  0  0  0  0  0  0
   29.6860   31.9590   34.4560 H   0  0  0  0  0  0  0  0  0  0  0  0
   31.5970   30.9770   33.1590 H   0  0  0  0  0  0  0  0  0  0  0  0
   33.1890   29.5600   34.2670 H   0  0  0  0  0  0  0  0  0  0  0  0
   36.5810   30.5030   41.1970 C   0  0  0  0  0  0  0  0  0  0  0  0
   36.4000   31.5950   40.9710 H   0  0  0  0  0  0  0  0  0  0  0  0
   36.2760   30.2950   42.2080 H   0  0  0  0  0  0  0  0  0  0  0  0
   37.9850   30.2030   40.8060 C   0  0  1  0  0  0  0  0  0  0  0  0
   39.0200   30.9540   41.5740 C   0  0  0  0  0  0  0  0  0  0  0  0
   38.8880   29.5110   41.7490 C   0  0  1  0  0  0  0  0  0  0  0  0
   38.2060   30.3060   39.7030 H   0  0  0  0  0  0  0  0  0  0  0  0
   38.6960   31.5650   42.4570 H   0  0  0  0  0  0  0  0  0  0  0  0
   39.9140   31.3980   41.1010 H   0  0  0  0  0  0  0  0  0  0  0  0
   39.6760   28.8810   41.2870 H   0  0  0  0  0  0  0  0  0  0  0  0
   38.2910   28.9230   42.9880 C   0  0  2  0  0  0  0  0  0  0  0  0
   38.9210   27.5640   43.3860 C   0  0  0  0  0  0  0  0  0  0  0  0
   37.5530   27.5880   42.8460 C   0  0  1  0  0  0  0  0  0  0  0  0
   38.1320   29.5340   43.8910 H   0  0  0  0  0  0  0  0  0  0  0  0
   39.0300   27.2940   44.4310 H   0  0  0  0  0  0  0  0  0  0  0  0
   39.7000   27.1390   42.7250 H   0  0  0  0  0  0  0  0  0  0  0  0
   37.4030   27.2590   41.7800 H   0  0  0  0  0  0  0  0  0  0  0  0
   36.3270   27.3710   43.6800 C   0  0  0  0  0  2  0  0  0  0  0  0
   35.5170   26.8190   43.2020 H   0  0  0  0  0  0  0  0  0  0  0  0
  1  2  2  0  0  0  0
  2 22  1  0  0  0  0
  3  8  1  0  0  0  0
  4  5  1  0  0  0  0
  4  3  2  0  0  0  0
  5  6  2  0  0  0  0
  6  7  1  0  0  0  0
  7  1  1  0  0  0  0
  8  7  2  0  0  0  0
  9  3  1  0  0  0  0
 10  4  1  0  0  0  0
 11  5  1  0  0  0  0
 11 12  1  0  0  0  0
 12 17  1  0  0  0  0
 13 12  2  0  0  0  0
 13 18  1  0  0  0  0
 14 13  1  0  0  0  0
 15 16  1  0  0  0  0
 15 14  2  0  0  0  0
 16 11  2  0  0  0  0
 19 14  1  0  0  0  0
 20 15  1  0  0  0  0
 21 16  1  0  0  0  0
 22 24  1  0  0  0  0
 23 22  1  0  0  0  0
 25 28  1  6  0  0  0
 25 22  1  0  0  0  0
 25 26  1  0  0  0  0
 25 27  1  0  0  0  0
 26 27  1  0  0  0  0
 26 29  1  0  0  0  0
 27 31  1  6  0  0  0
 27 32  1  0  0  0  0
 30 26  1  0  0  0  0
 32 33  1  0  0  0  0
 32 35  1  1  0  0  0
 33 36  1  0  0  0  0
 34 38  1  6  0  0  0
 34 32  1  0  0  0  0
 34 33  1  0  0  0  0
 34 39  1  0  0  0  0
 37 33  1  0  0  0  0
 40 39  1  0  0  0  0
M  END
>  <minimizedAffinity>
-5.29831028

$$$$

 OpenBabel03252508193D

 40 43  0  0  1  0  0  0  0  0999 V2000
   35.0480   29.2760   36.9820 C   0  0  0  0  0  3  0  0  0  0  0  0
   33.9950   29.1620   37.6740 C   0  0  0  0  0  3  0  0  0  0  0  0
   38.4660   30.3990   37.7790 C   0  0  0  0  0  0  0  0  0  0  0  0
   38.6310   29.9880   39.0960 C   0  0  0  0  0  0  0  0  0  0  0  0
   37.5780   29.3430   39.6610 C   0  0  0  0  0  0  0  0  0  0  0  0
   36.4370   29.1270   38.9520 N   0  0  0  0  0  0  0  0  0  0  0  0
   36.3140   29.5410   37.6710 C   0  0  0  0  0  0  0  0  0  0  0  0
   37.3370   30.1690   37.1170 N   0  0  0  0  0  0  0  0  0  0  0  0
   39.2670   30.9210   37.2620 H   0  0  0  0  0  0  0  0  0  0  0  0
   39.5460   30.1720   39.6410 H   0  0  0  0  0  0  0  0  0  0  0  0
   37.6070   28.8520   41.0350 C   0  0  0  0  0  0  0  0  0  0  0  0
   38.5380   29.1960   41.9710 C   0  0  0  0  0  0  0  0  0  0  0  0
   38.5490   28.7220   43.2670 C   0  0  0  0  0  0  0  0  0  0  0  0
   37.5700   27.8390   43.6770 C   0  0  0  0  0  0  0  0  0  0  0  0
   36.6090   27.4570   42.7800 C   0  0  0  0  0  0  0  0  0  0  0  0
   36.6420   27.9610   41.4930 C   0  0  0  0  0  0  0  0  0  0  0  0
   39.3210   29.9000   41.6510 H   0  0  0  0  0  0  0  0  0  0  0  0
   39.3450   29.0740   43.9120 H   0  0  0  0  0  0  0  0  0  0  0  0
   37.5830   27.4690   44.6940 H   0  0  0  0  0  0  0  0  0  0  0  0
   35.8200   26.7670   43.0510 H   0  0  0  0  0  0  0  0  0  0  0  0
   35.8610   27.6340   40.8110 H   0  0  0  0  0  0  0  0  0  0  0  0
   32.7330   28.8360   36.9070 C   0  0  0  0  0  0  0  0  0  0  0  0
   32.6760   27.7080   36.8720 H   0  0  0  0  0  0  0  0  0  0  0  0
   31.9300   29.2120   37.5170 H   0  0  0  0  0  0  0  0  0  0  0  0
   32.8360   29.3120   35.5020 C   0  0  1  0  0  0  0  0  0  0  0  0
   31.9450   28.6050   34.5370 C   0  0  0  0  0  0  0  0  0  0  0  0
   31.6960   30.0050   34.8660 C   0  0  1  0  0  0  0  0  0  0  0  0
   33.8840   29.3320   35.0790 H   0  0  0  0  0  0  0  0  0  0  0  0
   31.1820   27.8870   34.9370 H   0  0  0  0  0  0  0  0  0  0  0  0
   32.2740   28.3000   33.5280 H   0  0  0  0  0  0  0  0  0  0  0  0
   31.9590   30.7520   34.0880 H   0  0  0  0  0  0  0  0  0  0  0  0
   30.5510   30.4140   35.7360 C   0  0  2  0  0  0  0  0  0  0  0  0
   29.7150   31.5770   35.1410 C   0  0  0  0  0  0  0  0  0  0  0  0
   30.5750   31.8360   36.3060 C   0  0  1  0  0  0  0  0  0  0  0  0
   29.8770   29.6660   36.1820 H   0  0  0  0  0  0  0  0  0  0  0  0
   28.6440   31.6220   35.3050 H   0  0  0  0  0  0  0  0  0  0  0  0
   30.0450   32.0160   34.1810 H   0  0  0  0  0  0  0  0  0  0  0  0
   31.5440   32.3830   36.1320 H   0  0  0  0  0  0  0  0  0  0  0  0
   30.0530   32.0460   37.6940 C   0  0  0  0  0  2  0  0  0  0  0  0
   30.5850   32.7810   38.2980 H   0  0  0  0  0  0  0  0  0  0  0  0
  1  7  1  0  0  0  0
  1  2  2  0  0  0  0
  3  4  1  0  0  0  0
  4 10  1  0  0  0  0
  4  5  2  0  0  0  0
  5 11  1  0  0  0  0
  6  5  1  0  0  0  0
  7  6  2  0  0  0  0
  8  7  1  0  0  0  0
  8  3  2  0  0  0  0
  9  3  1  0  0  0  0
 11 16  2  0  0  0  0
 11 12  1  0  0  0  0
 12 13  2  0  0  0  0
 13 14  1  0  0  0  0
 13 18  1  0  0  0  0
 14 19  1  0  0  0  0
 15 20  1  0  0  0  0
 15 14  2  0  0  0  0
 16 15  1  0  0  0  0
 17 12  1  0  0  0  0
 21 16  1  0  0  0  0
 22 24  1  0  0  0  0
 22  2  1  0  0  0  0
 23 22  1  0  0  0  0
 25 28  1  6  0  0  0
 25 22  1  0  0  0  0
 26 27  1  0  0  0  0
 26 29  1  0  0  0  0
 26 25  1  0  0  0  0
 27 31  1  6  0  0  0
 27 25  1  0  0  0  0
 27 32  1  0  0  0  0
 30 26  1  0  0  0  0
 32 35  1  1  0  0  0
 32 34  1  0  0  0  0
 33 36  1  0  0  0  0
 33 32  1  0  0  0  0
 33 34  1  0  0  0  0
 34 38  1  6  0  0  0
 34 39  1  0  0  0  0
 37 33  1  0  0  0  0
 39 40  1  0  0  0  0
M  END
>  <minimizedAffinity>
-5.27207375

$$$$

 OpenBabel03252508193D

 40 43  0  0  1  0  0  0  0  0999 V2000
   35.2020   28.3620   38.9350 C   0  0  0  0  0  3  0  0  0  0  0  0
   34.9680   29.0320   39.9830 C   0  0  0  0  0  3  0  0  0  0  0  0
   34.1230   28.6680   35.4240 C   0  0  0  0  0  0  0  0  0  0  0  0
   32.8830   29.2860   35.5310 C   0  0  0  0  0  0  0  0  0  0  0  0
   32.4630   29.5780   36.7890 C   0  0  0  0  0  0  0  0  0  0  0  0
   33.2360   29.2690   37.8660 N   0  0  0  0  0  0  0  0  0  0  0  0
   34.4370   28.6680   37.7230 C   0  0  0  0  0  0  0  0  0  0  0  0
   34.8510   28.3830   36.4990 N   0  0  0  0  0  0  0  0  0  0  0  0
   34.5240   28.4050   34.4490 H   0  0  0  0  0  0  0  0  0  0  0  0
   32.2860   29.5210   34.6620 H   0  0  0  0  0  0  0  0  0  0  0  0
   31.1840   30.2280   37.0560 C   0  0  0  0  0  0  0  0  0  0  0  0
   30.4470   30.0700   38.1930 C   0  0  0  0  0  0  0  0  0  0  0  0
   29.2380   30.6940   38.4280 C   0  0  0  0  0  0  0  0  0  0  0  0
   28.7110   31.5380   37.4720 C   0  0  0  0  0  0  0  0  0  0  0  0
   29.4070   31.7350   36.3100 C   0  0  0  0  0  0  0  0  0  0  0  0
   30.6130   31.0870   36.1220 C   0  0  0  0  0  0  0  0  0  0  0  0
   30.8620   29.3990   38.9590 H   0  0  0  0  0  0  0  0  0  0  0  0
   28.7540   30.4840   39.3730 H   0  0  0  0  0  0  0  0  0  0  0  0
   27.7630   32.0260   37.6600 H   0  0  0  0  0  0  0  0  0  0  0  0
   29.0370   32.3860   35.5280 H   0  0  0  0  0  0  0  0  0  0  0  0
   31.1360   31.2690   35.1860 H   0  0  0  0  0  0  0  0  0  0  0  0
   35.8280   28.7040   41.1820 C   0  0  0  0  0  0  0  0  0  0  0  0
   35.4870   29.3970   42.0060 H   0  0  0  0  0  0  0  0  0  0  0  0
   35.5700   27.6920   41.4420 H   0  0  0  0  0  0  0  0  0  0  0  0
   37.2550   29.0210   40.9070 C   0  0  1  0  0  0  0  0  0  0  0  0
   37.9770   29.6780   42.0350 C   0  0  0  0  0  0  0  0  0  0  0  0
   38.3280   28.3170   41.6400 C   0  0  1  0  0  0  0  0  0  0  0  0
   37.4400   29.6150   39.9640 H   0  0  0  0  0  0  0  0  0  0  0  0
   37.4620   29.7600   43.0270 H   0  0  0  0  0  0  0  0  0  0  0  0
   38.6780   30.5190   41.8900 H   0  0  0  0  0  0  0  0  0  0  0  0
   39.2850   28.1920   41.0910 H   0  0  0  0  0  0  0  0  0  0  0  0
   37.9490   27.1360   42.4750 C   0  0  2  0  0  0  0  0  0  0  0  0
   39.1150   26.1370   42.6880 C   0  0  0  0  0  0  0  0  0  0  0  0
   38.0000   25.7590   41.8070 C   0  0  1  0  0  0  0  0  0  0  0  0
   37.3910   27.2580   43.4170 H   0  0  0  0  0  0  0  0  0  0  0  0
   39.2070   25.5920   43.6210 H   0  0  0  0  0  0  0  0  0  0  0  0
   40.0800   26.3510   42.1910 H   0  0  0  0  0  0  0  0  0  0  0  0
   38.1730   25.7950   40.6950 H   0  0  0  0  0  0  0  0  0  0  0  0
   36.9490   24.7580   42.1790 C   0  0  0  0  0  2  0  0  0  0  0  0
   36.5920   24.1180   41.3720 H   0  0  0  0  0  0  0  0  0  0  0  0
  1  2  2  0  0  0  0
  2 22  1  0  0  0  0
  3  4  2  0  0  0  0
  3  8  1  0  0  0  0
  4  5  1  0  0  0  0
  5 11  1  0  0  0  0
  5  6  2  0  0  0  0
  7  6  1  0  0  0  0
  7  1  1  0  0  0  0
  8  7  2  0  0  0  0
  9  3  1  0  0  0  0
 10  4  1  0  0  0  0
 11 12  1  0  0  0  0
 12 13  2  0  0  0  0
 12 17  1  0  0  0  0
 13 18  1  0  0  0  0
 14 19  1  0  0  0  0
 14 13  1  0  0  0  0
 15 14  2  0  0  0  0
 16 15  1  0  0  0  0
 16 11  2  0  0  0  0
 20 15  1  0  0  0  0
 21 16  1  0  0  0  0
 22 24  1  0  0  0  0
 22 23  1  0  0  0  0
 25 28  1  6  0  0  0
 25 22  1  0  0  0  0
 25 27  1  0  0  0  0
 25 26  1  0  0  0  0
 26 29  1  0  0  0  0
 27 31  1  6  0  0  0
 27 26  1  0  0  0  0
 27 32  1  0  0  0  0
 30 26  1  0  0  0  0
 32 33  1  0  0  0  0
 32 35  1  1  0  0  0
 33 36  1  0  0  0  0
 34 38  1  6  0  0  0
 34 39  1  0  0  0  0
 34 32  1  0  0  0  0
 34 33  1  0  0  0  0
 37 33  1  0  0  0  0
 40 39  1  0  0  0  0
M  END
>  <minimizedAffinity>
-5.27044821

$$$$

 OpenBabel03252508193D

 40 43  0  0  1  0  0  0  0  0999 V2000
   37.3000   30.9820   38.7230 C   0  0  0  0  0  3  0  0  0  0  0  0
   36.9300   31.6500   39.7320 C   0  0  0  0  0  3  0  0  0  0  0  0
   35.2210   28.3690   37.1640 C   0  0  0  0  0  0  0  0  0  0  0  0
   35.4210   27.2740   37.9940 C   0  0  0  0  0  0  0  0  0  0  0  0
   36.2510   27.4650   39.0530 C   0  0  0  0  0  0  0  0  0  0  0  0
   36.8390   28.6740   39.2610 N   0  0  0  0  0  0  0  0  0  0  0  0
   36.6200   29.7170   38.4320 C   0  0  0  0  0  0  0  0  0  0  0  0
   35.8120   29.5360   37.4000 N   0  0  0  0  0  0  0  0  0  0  0  0
   34.5700   28.2900   36.2980 H   0  0  0  0  0  0  0  0  0  0  0  0
   34.9440   26.3220   37.8090 H   0  0  0  0  0  0  0  0  0  0  0  0
   36.5530   26.4060   40.0110 C   0  0  0  0  0  0  0  0  0  0  0  0
   36.4440   25.0690   39.7630 C   0  0  0  0  0  0  0  0  0  0  0  0
   36.7350   24.0820   40.6820 C   0  0  0  0  0  0  0  0  0  0  0  0
   37.1670   24.4340   41.9440 C   0  0  0  0  0  0  0  0  0  0  0  0
   37.2950   25.7620   42.2520 C   0  0  0  0  0  0  0  0  0  0  0  0
   36.9910   26.7120   41.2950 C   0  0  0  0  0  0  0  0  0  0  0  0
   36.1010   24.7820   38.7570 H   0  0  0  0  0  0  0  0  0  0  0  0
   36.6060   23.0570   40.3570 H   0  0  0  0  0  0  0  0  0  0  0  0
   37.3940   23.6560   42.6630 H   0  0  0  0  0  0  0  0  0  0  0  0
   37.6290   26.0910   43.2270 H   0  0  0  0  0  0  0  0  0  0  0  0
   37.1060   27.7560   41.5770 H   0  0  0  0  0  0  0  0  0  0  0  0
   37.6350   32.9700   39.9450 C   0  0  0  0  0  0  0  0  0  0  0  0
   37.0970   33.7170   39.2910 H   0  0  0  0  0  0  0  0  0  0  0  0
   37.4630   33.2150   40.9780 H   0  0  0  0  0  0  0  0  0  0  0  0
   39.0400   32.8980   39.4610 C   0  0  1  0  0  0  0  0  0  0  0  0
   39.9630   33.8960   40.0760 C   0  0  0  0  0  0  0  0  0  0  0  0
   40.1220   32.4760   40.3750 C   0  0  1  0  0  0  0  0  0  0  0  0
   39.1620   32.9370   38.3380 H   0  0  0  0  0  0  0  0  0  0  0  0
   39.5900   34.5170   40.9320 H   0  0  0  0  0  0  0  0  0  0  0  0
   40.7220   34.4500   39.4950 H   0  0  0  0  0  0  0  0  0  0  0  0
   40.9820   31.9610   39.8990 H   0  0  0  0  0  0  0  0  0  0  0  0
   39.7350   31.9070   41.7030 C   0  0  2  0  0  0  0  0  0  0  0  0
   40.8810   31.1220   42.3910 C   0  0  0  0  0  0  0  0  0  0  0  0
   39.7360   30.3810   41.8400 C   0  0  1  0  0  0  0  0  0  0  0  0
   39.2030   32.5150   42.4520 H   0  0  0  0  0  0  0  0  0  0  0  0
   40.9830   31.1330   43.4700 H   0  0  0  0  0  0  0  0  0  0  0  0
   41.8390   31.0170   41.8460 H   0  0  0  0  0  0  0  0  0  0  0  0
   39.8830   29.8340   40.8670 H   0  0  0  0  0  0  0  0  0  0  0  0
   38.6710   29.7510   42.6840 C   0  0  0  0  0  2  0  0  0  0  0  0
   38.2780   28.7990   42.3260 H   0  0  0  0  0  0  0  0  0  0  0  0
  1  2  2  0  0  0  0
  2 22  1  0  0  0  0
  3  8  2  0  0  0  0
  3  4  1  0  0  0  0
  4  5  2  0  0  0  0
  5  6  1  0  0  0  0
  5 11  1  0  0  0  0
  7  1  1  0  0  0  0
  7  6  2  0  0  0  0
  8  7  1  0  0  0  0
  9  3  1  0  0  0  0
 10  4  1  0  0  0  0
 11 16  1  0  0  0  0
 12 11  2  0  0  0  0
 12 13  1  0  0  0  0
 13 14  2  0  0  0  0
 14 15  1  0  0  0  0
 14 19  1  0  0  0  0
 15 20  1  0  0  0  0
 16 21  1  0  0  0  0
 16 15  2  0  0  0  0
 17 12  1  0  0  0  0
 18 13  1  0  0  0  0
 22 24  1  0  0  0  0
 23 22  1  0  0  0  0
 25 28  1  6  0  0  0
 25 22  1  0  0  0  0
 25 26  1  0  0  0  0
 25 27  1  0  0  0  0
 26 27  1  0  0  0  0
 26 29  1  0  0  0  0
 27 31  1  6  0  0  0
 27 32  1  0  0  0  0
 30 26  1  0  0  0  0
 32 34  1  0  0  0  0
 32 33  1  0  0  0  0
 32 35  1  1  0  0  0
 33 36  1  0  0  0  0
 34 38  1  6  0  0  0
 34 33  1  0  0  0  0
 34 39  1  0  0  0  0
 37 33  1  0  0  0  0
 40 39  1  0  0  0  0
M  END
>  <minimizedAffinity>
-5.249156

$$$$
