
 OpenBabel03252508173D

 40 43  0  0  1  0  0  0  0  0999 V2000
   46.1450   33.0930   46.1700 C   0  0  0  0  0  0  0  0  0  0  0  0
   46.9250   32.1510   45.8460 C   0  0  0  0  0  0  0  0  0  0  0  0
   44.5320   35.8780   44.3740 C   0  0  0  0  0  0  0  0  0  0  0  0
   45.1640   35.8590   43.1370 C   0  0  0  0  0  0  0  0  0  0  0  0
   46.1090   34.9000   42.9580 C   0  0  0  0  0  0  0  0  0  0  0  0
   46.4000   34.0210   43.9560 N   0  0  0  0  0  0  0  0  0  0  0  0
   45.7640   34.0700   45.1470 C   0  0  0  0  0  0  0  0  0  0  0  0
   44.8420   35.0020   45.3240 N   0  0  0  0  0  0  0  0  0  0  0  0
   43.7650   36.6170   44.5880 H   0  0  0  0  0  0  0  0  0  0  0  0
   44.9170   36.5680   42.3590 H   0  0  0  0  0  0  0  0  0  0  0  0
   46.8530   34.7570   41.7110 C   0  0  0  0  0  0  0  0  0  0  0  0
   48.0550   35.3440   41.4440 C   0  0  0  0  0  0  0  0  0  0  0  0
   48.7450   35.1980   40.2580 C   0  0  0  0  0  0  0  0  0  0  0  0
   48.2140   34.4130   39.2540 C   0  0  0  0  0  0  0  0  0  0  0  0
   47.0090   33.7990   39.4650 C   0  0  0  0  0  0  0  0  0  0  0  0
   46.3570   33.9780   40.6710 C   0  0  0  0  0  0  0  0  0  0  0  0
   48.4850   35.9710   42.2410 H   0  0  0  0  0  0  0  0  0  0  0  0
   49.6910   35.7180   40.1730 H   0  0  0  0  0  0  0  0  0  0  0  0
   48.7580   34.3010   38.3250 H   0  0  0  0  0  0  0  0  0  0  0  0
   46.5480   33.1740   38.7100 H   0  0  0  0  0  0  0  0  0  0  0  0
   45.4030   33.4730   40.8010 H   0  0  0  0  0  0  0  0  0  0  0  0
   47.2340   31.1470   46.9340 C   0  0  0  0  0  0  0  0  0  0  0  0
   46.4700   30.3230   46.8200 H   0  0  0  0  0  0  0  0  0  0  0  0
   48.2090   30.7610   46.6890 H   0  0  0  0  0  0  0  0  0  0  0  0
   47.0300   31.7500   48.2780 C   0  0  1  0  0  0  0  0  0  0  0  0
   46.3070   30.8790   49.2490 C   0  0  0  0  0  0  0  0  0  0  0  0
   47.7190   31.1880   49.4580 C   0  0  1  0  0  0  0  0  0  0  0  0
   46.5440   32.7700   48.2750 H   0  0  0  0  0  0  0  0  0  0  0  0
   46.0980   29.8150   48.9640 H   0  0  0  0  0  0  0  0  0  0  0  0
   45.5270   31.2590   49.9320 H   0  0  0  0  0  0  0  0  0  0  0  0
   47.9540   31.9090   50.2680 H   0  0  0  0  0  0  0  0  0  0  0  0
   48.7870   30.1670   49.2260 C   0  0  2  0  0  0  0  0  0  0  0  0
   49.7690   30.0270   50.4180 C   0  0  0  0  0  0  0  0  0  0  0  0
   50.2340   30.6650   49.1770 C   0  0  1  0  0  0  0  0  0  0  0  0
   48.5460   29.1690   48.8270 H   0  0  0  0  0  0  0  0  0  0  0  0
   50.2000   29.0630   50.6630 H   0  0  0  0  0  0  0  0  0  0  0  0
   49.6280   30.6950   51.2880 H   0  0  0  0  0  0  0  0  0  0  0  0
   50.3330   31.7870   49.1680 H   0  0  0  0  0  0  0  0  0  0  0  0
   51.1700   30.0120   48.2070 C   0  0  0  0  0  0  0  0  0  0  0  0
   51.8960   30.6680   47.7270 H   0  0  0  0  0  0  0  0  0  0  0  0
  2  1  2  0  0  0  0
  2 22  1  0  0  0  0
  3  9  1  0  0  0  0
  3  8  1  0  0  0  0
  4  3  2  0  0  0  0
  5  4  1  0  0  0  0
  5  6  2  0  0  0  0
  6  7  1  0  0  0  0
  7  8  2  0  0  0  0
  7  1  1  0  0  0  0
 10  4  1  0  0  0  0
 11  5  1  0  0  0  0
 12 11  1  0  0  0  0
 12 17  1  0  0  0  0
 13 12  2  0  0  0  0
 14 15  2  0  0  0  0
 14 13  1  0  0  0  0
 15 16  1  0  0  0  0
 16 21  1  0  0  0  0
 16 11  2  0  0  0  0
 18 13  1  0  0  0  0
 19 14  1  0  0  0  0
 20 15  1  0  0  0  0
 22 25  1  0  0  0  0
 23 22  1  0  0  0  0
 24 22  1  0  0  0  0
 25 28  1  1  0  0  0
 25 26  1  0  0  0  0
 25 27  1  0  0  0  0
 26 27  1  0  0  0  0
 26 30  1  0  0  0  0
 27 31  1  1  0  0  0
 29 26  1  0  0  0  0
 32 35  1  6  0  0  0
 32 27  1  0  0  0  0
 32 33  1  0  0  0  0
 33 36  1  0  0  0  0
 33 37  1  0  0  0  0
 34 38  1  1  0  0  0
 34 32  1  0  0  0  0
 34 33  1  0  0  0  0
 39 34  1  0  0  0  0
 40 39  1  0  0  0  0
M  END
>  <minimizedAffinity>
-6.14099503

>  <minimizedRMSD>
0.716745496

$$$$
