
 OpenBabel03252505533D

 26 27  0  0  0  0  0  0  0  0999 V2000
   45.8110   32.6460   47.6200 O   0  0  0  0  0  0  0  0  0  0  0  0
   44.9360   34.9740   45.0670 C   0  0  0  0  0  0  0  0  0  0  0  0
   45.8140   34.6650   44.0210 C   0  0  0  0  0  0  0  0  0  0  0  0
   46.7200   33.6190   44.2360 C   0  0  0  0  0  0  0  0  0  0  0  0
   46.7060   32.9680   45.4200 N   0  0  0  0  0  0  0  0  0  0  0  0
   45.8390   33.3030   46.4010 C   0  0  0  0  0  0  0  0  0  0  0  0
   44.9650   34.2930   46.2270 N   0  0  0  0  0  0  0  0  0  0  0  0
   44.2040   35.7680   44.9830 H   0  0  0  0  0  0  0  0  0  0  0  0
   47.3970   33.3860   43.4200 H   0  0  0  0  0  0  0  0  0  0  0  0
   45.7260   35.4620   42.7620 C   0  0  0  0  0  0  0  0  0  0  0  0
   45.2790   36.7100   43.1630 F   0  0  0  0  0  0  0  0  0  0  0  0
   44.7550   34.8290   41.9710 F   0  0  0  0  0  0  0  0  0  0  0  0
   46.9430   35.4780   42.1630 F   0  0  0  0  0  0  0  0  0  0  0  0
   45.4560   31.2860   47.7090 C   0  0  0  0  0  0  0  0  0  0  0  0
   44.8320   31.1510   48.6160 H   0  0  0  0  0  0  0  0  0  0  0  0
   44.8710   30.9430   46.8160 H   0  0  0  0  0  0  0  0  0  0  0  0
   46.7030   30.5180   47.8940 C   0  0  0  0  0  0  0  0  0  0  0  0
   47.0900   29.3150   47.3650 C   0  0  0  0  0  0  0  0  0  0  0  0
   48.3170   28.7990   47.6910 C   0  0  0  0  0  0  0  0  0  0  0  0
   49.1400   29.4360   48.5100 N   0  0  0  0  0  0  0  0  0  0  0  0
   48.7670   30.6160   49.0320 C   0  0  0  0  0  0  0  0  0  0  0  0
   47.5590   31.1660   48.7360 N   0  0  0  0  0  0  0  0  0  0  0  0
   46.3480   28.8860   46.7150 H   0  0  0  0  0  0  0  0  0  0  0  0
   48.5750   27.8420   47.2450 H   0  0  0  0  0  0  0  0  0  0  0  0
   49.7210   31.3240   49.9620 C   0  0  0  0  0  0  0  0  0  0  0  0
   49.8180   30.8190   50.9240 H   0  0  0  0  0  0  0  0  0  0  0  0
  1 14  1  0  0  0  0
  2  7  1  0  0  0  0
  3  4  1  0  0  0  0
  3  2  2  0  0  0  0
  4  5  2  0  0  0  0
  5  6  1  0  0  0  0
  6  1  1  0  0  0  0
  7  6  2  0  0  0  0
  8  2  1  0  0  0  0
  9  4  1  0  0  0  0
 10 11  1  0  0  0  0
 10  3  1  0  0  0  0
 12 10  1  0  0  0  0
 13 10  1  0  0  0  0
 14 17  1  0  0  0  0
 14 15  1  0  0  0  0
 16 14  1  0  0  0  0
 17 22  1  0  0  0  0
 18 19  1  0  0  0  0
 18 17  2  0  0  0  0
 19 20  2  0  0  0  0
 20 21  1  0  0  0  0
 21 25  1  0  0  0  0
 22 21  2  0  0  0  0
 23 18  1  0  0  0  0
 24 19  1  0  0  0  0
 25 26  1  0  0  0  0
M  END
>  <minimizedAffinity>
-5.02894878

>  <minimizedRMSD>
0.35872224

$$$$
