
 OpenBabel03252509253D

 20 21  0  0  1  0  0  0  0  0999 V2000
   36.9380   31.4870   39.2540 C   0  0  0  0  0  0  0  0  0  0  0  0
   36.3920   30.5960   40.2320 C   0  0  0  0  0  0  0  0  0  0  0  0
   36.6110   29.2710   39.9760 C   0  0  0  0  0  0  0  0  0  0  0  0
   37.2980   28.8400   38.8620 N   0  0  0  0  0  0  0  0  0  0  0  0
   37.7920   29.7220   37.9700 C   0  0  0  0  0  0  0  0  0  0  0  0
   37.6070   31.0560   38.1750 N   0  0  0  0  0  0  0  0  0  0  0  0
   36.7990   32.5480   39.4020 H   0  0  0  0  0  0  0  0  0  0  0  0
   38.3030   29.2260   37.1560 H   0  0  0  0  0  0  0  0  0  0  0  0
   36.1690   28.2650   41.0030 C   0  0  1  0  0  0  0  0  0  0  0  0
   36.9120   26.9210   40.7890 C   0  0  0  0  0  0  0  0  0  0  0  0
   37.0790   27.8640   42.0120 C   0  0  2  0  0  0  0  0  0  0  0  0
   35.0730   28.1360   41.0830 H   0  0  0  0  0  0  0  0  0  0  0  0
   37.7330   26.8670   40.0820 H   0  0  0  0  0  0  0  0  0  0  0  0
   36.3270   26.0230   41.0370 H   0  0  0  0  0  0  0  0  0  0  0  0
   38.1070   28.2780   42.1170 H   0  0  0  0  0  0  0  0  0  0  0  0
   36.5740   27.3510   43.3560 C   0  0  0  0  0  2  0  0  0  0  0  0
   36.5720   28.2420   44.0180 H   0  0  0  0  0  0  0  0  0  0  0  0
   35.6520   31.0540   41.3460 N   0  0  0  0  0  0  0  0  0  0  0  0
   34.9690   31.8240   41.0850 H   0  0  0  0  0  0  0  0  0  0  0  0
   35.7360   30.7090   42.2980 H   0  0  0  0  0  0  0  0  0  0  0  0
  1  7  1  0  0  0  0
  1  2  1  0  0  0  0
  2 18  1  0  0  0  0
  3  2  2  0  0  0  0
  3  9  1  0  0  0  0
  4  3  1  0  0  0  0
  5  6  1  0  0  0  0
  5  4  2  0  0  0  0
  6  1  2  0  0  0  0
  8  5  1  0  0  0  0
  9 12  1  1  0  0  0
  9 11  1  0  0  0  0
 10  9  1  0  0  0  0
 10 14  1  0  0  0  0
 10 11  1  0  0  0  0
 11 15  1  1  0  0  0
 11 16  1  0  0  0  0
 13 10  1  0  0  0  0
 16 17  1  0  0  0  0
 18 20  1  0  0  0  0
 19 18  1  0  0  0  0
M  END
>  <minimizedAffinity>
-4.0888629

$$$$

 OpenBabel03252509253D

 20 21  0  0  1  0  0  0  0  0999 V2000
   40.2800   24.6350   43.0130 C   0  0  0  0  0  0  0  0  0  0  0  0
   38.9340   24.9320   42.6260 C   0  0  0  0  0  0  0  0  0  0  0  0
   38.5670   26.2370   42.8090 C   0  0  0  0  0  0  0  0  0  0  0  0
   39.4290   27.1780   43.3290 N   0  0  0  0  0  0  0  0  0  0  0  0
   40.6880   26.8460   43.6780 C   0  0  0  0  0  0  0  0  0  0  0  0
   41.1110   25.5610   43.5150 N   0  0  0  0  0  0  0  0  0  0  0  0
   40.6300   23.6210   42.8900 H   0  0  0  0  0  0  0  0  0  0  0  0
   41.2340   27.6940   44.0670 H   0  0  0  0  0  0  0  0  0  0  0  0
   37.2080   26.6680   42.3320 C   0  0  1  0  0  0  0  0  0  0  0  0
   36.4330   27.3630   43.4820 C   0  0  0  0  0  0  0  0  0  0  0  0
   36.9350   28.0500   42.1810 C   0  0  2  0  0  0  0  0  0  0  0  0
   36.6160   25.8730   41.8410 H   0  0  0  0  0  0  0  0  0  0  0  0
   36.9450   27.6040   44.4060 H   0  0  0  0  0  0  0  0  0  0  0  0
   35.3450   27.2030   43.4700 H   0  0  0  0  0  0  0  0  0  0  0  0
   37.6860   28.8510   42.3640 H   0  0  0  0  0  0  0  0  0  0  0  0
   35.8740   28.5320   41.1990 C   0  0  0  0  0  2  0  0  0  0  0  0
   36.4330   28.7640   40.2680 H   0  0  0  0  0  0  0  0  0  0  0  0
   38.0500   23.9450   42.1360 N   0  0  0  0  0  0  0  0  0  0  0  0
   38.1140   23.0400   42.6870 H   0  0  0  0  0  0  0  0  0  0  0  0
   37.4130   24.0530   41.3520 H   0  0  0  0  0  0  0  0  0  0  0  0
  1  6  1  0  0  0  0
  2  3  1  0  0  0  0
  2  1  2  0  0  0  0
  3  4  2  0  0  0  0
  4  5  1  0  0  0  0
  5  8  1  0  0  0  0
  6  5  2  0  0  0  0
  7  1  1  0  0  0  0
  9 12  1  6  0  0  0
  9  3  1  0  0  0  0
  9 10  1  0  0  0  0
 10 13  1  0  0  0  0
 11  9  1  0  0  0  0
 11 15  1  1  0  0  0
 11 10  1  0  0  0  0
 14 10  1  0  0  0  0
 16 11  1  0  0  0  0
 17 16  1  0  0  0  0
 18  2  1  0  0  0  0
 18 19  1  0  0  0  0
 20 18  1  0  0  0  0
M  END
>  <minimizedAffinity>
-3.9722352

$$$$

 OpenBabel03252509253D

 20 21  0  0  1  0  0  0  0  0999 V2000
   35.3420   29.4330   39.3020 C   0  0  0  0  0  0  0  0  0  0  0  0
   35.9210   29.4940   40.6090 C   0  0  0  0  0  0  0  0  0  0  0  0
   36.5390   28.3410   41.0090 C   0  0  0  0  0  0  0  0  0  0  0  0
   36.5890   27.2180   40.2120 N   0  0  0  0  0  0  0  0  0  0  0  0
   36.0250   27.2130   38.9880 C   0  0  0  0  0  0  0  0  0  0  0  0
   35.3980   28.3350   38.5340 N   0  0  0  0  0  0  0  0  0  0  0  0
   34.8410   30.3130   38.9280 H   0  0  0  0  0  0  0  0  0  0  0  0
   36.1510   26.2600   38.4920 H   0  0  0  0  0  0  0  0  0  0  0  0
   37.2710   28.3450   42.3230 C   0  0  1  0  0  0  0  0  0  0  0  0
   36.5570   27.4110   43.3340 C   0  0  0  0  0  0  0  0  0  0  0  0
   37.9680   27.1810   42.7280 C   0  0  2  0  0  0  0  0  0  0  0  0
   37.4680   29.3500   42.7410 H   0  0  0  0  0  0  0  0  0  0  0  0
   35.7540   26.7650   42.9960 H   0  0  0  0  0  0  0  0  0  0  0  0
   36.6070   27.7380   44.3840 H   0  0  0  0  0  0  0  0  0  0  0  0
   38.0410   26.2580   42.1090 H   0  0  0  0  0  0  0  0  0  0  0  0
   39.1550   27.2750   43.6800 C   0  0  0  0  0  2  0  0  0  0  0  0
   40.0470   27.3150   43.0200 H   0  0  0  0  0  0  0  0  0  0  0  0
   35.8230   30.6400   41.4300 N   0  0  0  0  0  0  0  0  0  0  0  0
   34.8520   31.0690   41.4060 H   0  0  0  0  0  0  0  0  0  0  0  0
   36.5720   31.0360   41.9910 H   0  0  0  0  0  0  0  0  0  0  0  0
  1  2  1  0  0  0  0
  2  3  2  0  0  0  0
  2 18  1  0  0  0  0
  3  9  1  0  0  0  0
  4  3  1  0  0  0  0
  5  4  2  0  0  0  0
  6  5  1  0  0  0  0
  6  1  2  0  0  0  0
  7  1  1  0  0  0  0
  8  5  1  0  0  0  0
  9 11  1  0  0  0  0
  9 12  1  1  0  0  0
  9 10  1  0  0  0  0
 10 14  1  0  0  0  0
 11 15  1  6  0  0  0
 11 10  1  0  0  0  0
 11 16  1  0  0  0  0
 13 10  1  0  0  0  0
 17 16  1  0  0  0  0
 18 20  1  0  0  0  0
 19 18  1  0  0  0  0
M  END
>  <minimizedAffinity>
-3.96744728

$$$$

 OpenBabel03252509253D

 20 21  0  0  1  0  0  0  0  0999 V2000
   36.5260   29.6760   41.2700 C   0  0  0  0  0  0  0  0  0  0  0  0
   36.9400   28.6860   42.2180 C   0  0  0  0  0  0  0  0  0  0  0  0
   36.9850   27.4120   41.7220 C   0  0  0  0  0  0  0  0  0  0  0  0
   36.6520   27.1170   40.4180 N   0  0  0  0  0  0  0  0  0  0  0  0
   36.2680   28.0880   39.5660 C   0  0  0  0  0  0  0  0  0  0  0  0
   36.2070   29.3770   40.0020 N   0  0  0  0  0  0  0  0  0  0  0  0
   36.4730   30.7020   41.6010 H   0  0  0  0  0  0  0  0  0  0  0  0
   36.0420   27.6940   38.5840 H   0  0  0  0  0  0  0  0  0  0  0  0
   37.5120   26.3200   42.6130 C   0  0  1  0  0  0  0  0  0  0  0  0
   36.9860   24.9420   42.1350 C   0  0  0  0  0  0  0  0  0  0  0  0
   38.4670   25.4100   42.0970 C   0  0  2  0  0  0  0  0  0  0  0  0
   37.3490   26.4850   43.6940 H   0  0  0  0  0  0  0  0  0  0  0  0
   36.4600   24.8640   41.1910 H   0  0  0  0  0  0  0  0  0  0  0  0
   36.8050   24.2110   42.9380 H   0  0  0  0  0  0  0  0  0  0  0  0
   38.8860   25.4720   41.0670 H   0  0  0  0  0  0  0  0  0  0  0  0
   39.4430   24.6970   43.0250 C   0  0  0  0  0  2  0  0  0  0  0  0
   40.3580   25.3240   43.0120 H   0  0  0  0  0  0  0  0  0  0  0  0
   37.2360   29.0000   43.5630 N   0  0  0  0  0  0  0  0  0  0  0  0
   36.5340   29.6800   43.9800 H   0  0  0  0  0  0  0  0  0  0  0  0
   38.0170   28.6370   44.1010 H   0  0  0  0  0  0  0  0  0  0  0  0
  1  7  1  0  0  0  0
  1  2  1  0  0  0  0
  2 18  1  0  0  0  0
  3  2  2  0  0  0  0
  3  9  1  0  0  0  0
  4  3  1  0  0  0  0
  5  6  1  0  0  0  0
  5  4  2  0  0  0  0
  6  1  2  0  0  0  0
  8  5  1  0  0  0  0
  9 12  1  1  0  0  0
 10  9  1  0  0  0  0
 10 14  1  0  0  0  0
 11 15  1  6  0  0  0
 11 10  1  0  0  0  0
 11  9  1  0  0  0  0
 11 16  1  0  0  0  0
 13 10  1  0  0  0  0
 17 16  1  0  0  0  0
 18 19  1  0  0  0  0
 18 20  1  0  0  0  0
M  END
>  <minimizedAffinity>
-3.84941506

$$$$

 OpenBabel03252509253D

 20 21  0  0  1  0  0  0  0  0999 V2000
   38.2240   31.5970   40.7900 C   0  0  0  0  0  0  0  0  0  0  0  0
   38.7360   30.7820   41.8500 C   0  0  0  0  0  0  0  0  0  0  0  0
   37.8900   29.7880   42.2590 C   0  0  0  0  0  0  0  0  0  0  0  0
   36.6480   29.5990   41.6920 N   0  0  0  0  0  0  0  0  0  0  0  0
   36.2140   30.3960   40.6960 C   0  0  0  0  0  0  0  0  0  0  0  0
   37.0150   31.4020   40.2450 N   0  0  0  0  0  0  0  0  0  0  0  0
   38.8470   32.3980   40.4220 H   0  0  0  0  0  0  0  0  0  0  0  0
   35.2230   30.1170   40.3620 H   0  0  0  0  0  0  0  0  0  0  0  0
   38.3840   28.8140   43.2930 C   0  0  1  0  0  0  0  0  0  0  0  0
   37.2520   27.8260   43.6790 C   0  0  0  0  0  0  0  0  0  0  0  0
   38.5630   27.4560   42.9310 C   0  0  2  0  0  0  0  0  0  0  0  0
   38.8610   29.2780   44.1760 H   0  0  0  0  0  0  0  0  0  0  0  0
   36.3300   27.8150   43.1100 H   0  0  0  0  0  0  0  0  0  0  0  0
   37.2660   27.4920   44.7270 H   0  0  0  0  0  0  0  0  0  0  0  0
   38.3920   27.0620   41.9040 H   0  0  0  0  0  0  0  0  0  0  0  0
   39.5610   26.5780   43.6770 C   0  0  0  0  0  2  0  0  0  0  0  0
   40.4930   26.6330   43.0760 H   0  0  0  0  0  0  0  0  0  0  0  0
   39.9940   31.0180   42.4490 N   0  0  0  0  0  0  0  0  0  0  0  0
   40.1680   32.0510   42.6220 H   0  0  0  0  0  0  0  0  0  0  0  0
   40.6760   30.3080   42.6990 H   0  0  0  0  0  0  0  0  0  0  0  0
  1  2  1  0  0  0  0
  2  3  2  0  0  0  0
  2 18  1  0  0  0  0
  3  9  1  0  0  0  0
  4  3  1  0  0  0  0
  5  4  2  0  0  0  0
  6  5  1  0  0  0  0
  6  1  2  0  0  0  0
  7  1  1  0  0  0  0
  8  5  1  0  0  0  0
  9 10  1  0  0  0  0
  9 12  1  1  0  0  0
 10 14  1  0  0  0  0
 11 15  1  6  0  0  0
 11  9  1  0  0  0  0
 11 16  1  0  0  0  0
 11 10  1  0  0  0  0
 13 10  1  0  0  0  0
 17 16  1  0  0  0  0
 18 19  1  0  0  0  0
 18 20  1  0  0  0  0
M  END
>  <minimizedAffinity>
-3.79381037

$$$$

 OpenBabel03252509253D

 20 21  0  0  1  0  0  0  0  0999 V2000
   37.1690   30.9630   41.0350 C   0  0  0  0  0  0  0  0  0  0  0  0
   37.7190   29.8840   41.7980 C   0  0  0  0  0  0  0  0  0  0  0  0
   37.0320   28.7060   41.6900 C   0  0  0  0  0  0  0  0  0  0  0  0
   35.9020   28.5820   40.9120 N   0  0  0  0  0  0  0  0  0  0  0  0
   35.4240   29.6310   40.2130 C   0  0  0  0  0  0  0  0  0  0  0  0
   36.0700   30.8300   40.2780 N   0  0  0  0  0  0  0  0  0  0  0  0
   37.6690   31.9190   41.0770 H   0  0  0  0  0  0  0  0  0  0  0  0
   34.5350   29.3710   39.6550 H   0  0  0  0  0  0  0  0  0  0  0  0
   37.5950   27.4890   42.3700 C   0  0  1  0  0  0  0  0  0  0  0  0
   36.6140   26.9840   43.4590 C   0  0  0  0  0  0  0  0  0  0  0  0
   36.9820   26.2310   42.1510 C   0  0  2  0  0  0  0  0  0  0  0  0
   38.6270   27.6070   42.7500 H   0  0  0  0  0  0  0  0  0  0  0  0
   35.6210   27.4120   43.5290 H   0  0  0  0  0  0  0  0  0  0  0  0
   37.0930   26.5350   44.3430 H   0  0  0  0  0  0  0  0  0  0  0  0
   36.1160   26.0760   41.4690 H   0  0  0  0  0  0  0  0  0  0  0  0
   37.7800   24.9410   42.2960 C   0  0  0  0  0  2  0  0  0  0  0  0
   38.1280   24.7040   41.2690 H   0  0  0  0  0  0  0  0  0  0  0  0
   38.8540   30.0410   42.6250 N   0  0  0  0  0  0  0  0  0  0  0  0
   38.8240   30.9450   43.1800 H   0  0  0  0  0  0  0  0  0  0  0  0
   39.6260   29.3860   42.7050 H   0  0  0  0  0  0  0  0  0  0  0  0
  1  7  1  0  0  0  0
  1  2  1  0  0  0  0
  2 18  1  0  0  0  0
  3  2  2  0  0  0  0
  3  9  1  0  0  0  0
  4  3  1  0  0  0  0
  5  6  1  0  0  0  0
  5  4  2  0  0  0  0
  6  1  2  0  0  0  0
  8  5  1  0  0  0  0
  9 12  1  1  0  0  0
  9 10  1  0  0  0  0
 10 13  1  0  0  0  0
 10 14  1  0  0  0  0
 11 15  1  6  0  0  0
 11 16  1  0  0  0  0
 11  9  1  0  0  0  0
 11 10  1  0  0  0  0
 17 16  1  0  0  0  0
 18 20  1  0  0  0  0
 18 19  1  0  0  0  0
M  END
>  <minimizedAffinity>
-3.62325788

$$$$

 OpenBabel03252509253D

 20 21  0  0  1  0  0  0  0  0999 V2000
   38.0680   28.8290   43.3280 C   0  0  0  0  0  0  0  0  0  0  0  0
   38.4680   29.8600   42.4190 C   0  0  0  0  0  0  0  0  0  0  0  0
   37.7390   29.9080   41.2620 C   0  0  0  0  0  0  0  0  0  0  0  0
   36.7110   29.0280   41.0030 N   0  0  0  0  0  0  0  0  0  0  0  0
   36.3760   28.0740   41.8940 C   0  0  0  0  0  0  0  0  0  0  0  0
   37.0640   27.9800   43.0660 N   0  0  0  0  0  0  0  0  0  0  0  0
   38.6050   28.7420   44.2620 H   0  0  0  0  0  0  0  0  0  0  0  0
   35.5520   27.4680   41.5420 H   0  0  0  0  0  0  0  0  0  0  0  0
   38.0150   31.0250   40.2940 C   0  0  1  0  0  0  0  0  0  0  0  0
   36.9510   31.0280   39.1660 C   0  0  0  0  0  0  0  0  0  0  0  0
   37.1300   32.1300   40.2460 C   0  0  2  0  0  0  0  0  0  0  0  0
   39.0490   31.0550   39.9020 H   0  0  0  0  0  0  0  0  0  0  0  0
   36.0820   30.3850   39.2440 H   0  0  0  0  0  0  0  0  0  0  0  0
   37.3200   31.3520   38.1810 H   0  0  0  0  0  0  0  0  0  0  0  0
   36.2470   32.2440   40.9140 H   0  0  0  0  0  0  0  0  0  0  0  0
   37.6130   33.4950   39.7690 C   0  0  0  0  0  2  0  0  0  0  0  0
   37.8910   34.0380   40.6970 H   0  0  0  0  0  0  0  0  0  0  0  0
   39.5530   30.7260   42.6820 N   0  0  0  0  0  0  0  0  0  0  0  0
   40.3870   30.2110   43.0900 H   0  0  0  0  0  0  0  0  0  0  0  0
   39.5690   31.7270   42.5140 H   0  0  0  0  0  0  0  0  0  0  0  0
  1  7  1  0  0  0  0
  2 18  1  0  0  0  0
  2  1  2  0  0  0  0
  3  2  1  0  0  0  0
  4  3  2  0  0  0  0
  4  5  1  0  0  0  0
  5  6  2  0  0  0  0
  6  1  1  0  0  0  0
  8  5  1  0  0  0  0
  9 12  1  6  0  0  0
  9  3  1  0  0  0  0
 10 13  1  0  0  0  0
 10 11  1  0  0  0  0
 10  9  1  0  0  0  0
 11  9  1  0  0  0  0
 11 15  1  1  0  0  0
 14 10  1  0  0  0  0
 16 11  1  0  0  0  0
 16 17  1  0  0  0  0
 18 19  1  0  0  0  0
 20 18  1  0  0  0  0
M  END
>  <minimizedAffinity>
-3.60514808

$$$$

 OpenBabel03252509253D

 20 21  0  0  1  0  0  0  0  0999 V2000
   37.2540   29.4230   42.5680 C   0  0  0  0  0  0  0  0  0  0  0  0
   36.9640   30.3210   41.4920 C   0  0  0  0  0  0  0  0  0  0  0  0
   38.0670   30.7840   40.8280 C   0  0  0  0  0  0  0  0  0  0  0  0
   39.3470   30.4130   41.1790 N   0  0  0  0  0  0  0  0  0  0  0  0
   39.5650   29.5630   42.2020 C   0  0  0  0  0  0  0  0  0  0  0  0
   38.5040   29.0660   42.8980 N   0  0  0  0  0  0  0  0  0  0  0  0
   36.4240   29.0210   43.1300 H   0  0  0  0  0  0  0  0  0  0  0  0
   40.6200   29.3730   42.3480 H   0  0  0  0  0  0  0  0  0  0  0  0
   37.8560   31.6480   39.6160 C   0  0  1  0  0  0  0  0  0  0  0  0
   39.2080   32.2400   39.1410 C   0  0  0  0  0  0  0  0  0  0  0  0
   38.3470   31.2080   38.3620 C   0  0  2  0  0  0  0  0  0  0  0  0
   37.0710   32.4190   39.7260 H   0  0  0  0  0  0  0  0  0  0  0  0
   40.1340   31.8900   39.5820 H   0  0  0  0  0  0  0  0  0  0  0  0
   39.1450   33.2470   38.7000 H   0  0  0  0  0  0  0  0  0  0  0  0
   38.8580   30.2310   38.2060 H   0  0  0  0  0  0  0  0  0  0  0  0
   37.7040   31.6820   37.0640 C   0  0  0  0  0  2  0  0  0  0  0  0
   36.9680   30.8920   36.8060 H   0  0  0  0  0  0  0  0  0  0  0  0
   35.6480   30.7250   41.1750 N   0  0  0  0  0  0  0  0  0  0  0  0
   35.0760   30.9460   42.0420 H   0  0  0  0  0  0  0  0  0  0  0  0
   35.2600   30.8060   40.2400 H   0  0  0  0  0  0  0  0  0  0  0  0
  1  6  1  0  0  0  0
  1  7  1  0  0  0  0
  2  1  2  0  0  0  0
  3  4  2  0  0  0  0
  3  2  1  0  0  0  0
  4  5  1  0  0  0  0
  5  8  1  0  0  0  0
  5  6  2  0  0  0  0
  9 12  1  6  0  0  0
  9  3  1  0  0  0  0
 10 13  1  0  0  0  0
 10  9  1  0  0  0  0
 11 15  1  6  0  0  0
 11 10  1  0  0  0  0
 11  9  1  0  0  0  0
 14 10  1  0  0  0  0
 16 11  1  0  0  0  0
 17 16  1  0  0  0  0
 18  2  1  0  0  0  0
 18 19  1  0  0  0  0
 20 18  1  0  0  0  0
M  END
>  <minimizedAffinity>
-3.57374692

$$$$

 OpenBabel03252509253D

 20 21  0  0  1  0  0  0  0  0999 V2000
   38.7460   28.2480   43.2060 C   0  0  0  0  0  0  0  0  0  0  0  0
   37.4480   28.5700   42.6950 C   0  0  0  0  0  0  0  0  0  0  0  0
   37.4350   29.6000   41.7940 C   0  0  0  0  0  0  0  0  0  0  0  0
   38.5820   30.2670   41.4220 N   0  0  0  0  0  0  0  0  0  0  0  0
   39.7790   29.9240   41.9350 C   0  0  0  0  0  0  0  0  0  0  0  0
   39.8550   28.9030   42.8340 N   0  0  0  0  0  0  0  0  0  0  0  0
   38.8230   27.4410   43.9200 H   0  0  0  0  0  0  0  0  0  0  0  0
   40.5760   30.5410   41.5420 H   0  0  0  0  0  0  0  0  0  0  0  0
   36.1340   29.9390   41.1220 C   0  0  1  0  0  0  0  0  0  0  0  0
   36.3960   30.7820   39.8470 C   0  0  0  0  0  0  0  0  0  0  0  0
   35.8230   29.3380   39.8770 C   0  0  2  0  0  0  0  0  0  0  0  0
   35.3750   30.3970   41.7840 H   0  0  0  0  0  0  0  0  0  0  0  0
   37.4100   30.9120   39.4870 H   0  0  0  0  0  0  0  0  0  0  0  0
   35.6210   31.5290   39.6170 H   0  0  0  0  0  0  0  0  0  0  0  0
   36.4760   28.5910   39.3720 H   0  0  0  0  0  0  0  0  0  0  0  0
   34.3750   29.1590   39.4390 C   0  0  0  0  0  2  0  0  0  0  0  0
   34.1080   28.1280   39.7540 H   0  0  0  0  0  0  0  0  0  0  0  0
   36.2780   27.9040   43.1210 N   0  0  0  0  0  0  0  0  0  0  0  0
   36.2640   27.7500   44.1710 H   0  0  0  0  0  0  0  0  0  0  0  0
   35.5180   27.5950   42.5220 H   0  0  0  0  0  0  0  0  0  0  0  0
  1  7  1  0  0  0  0
  2 18  1  0  0  0  0
  2  1  2  0  0  0  0
  3  2  1  0  0  0  0
  4  3  2  0  0  0  0
  4  5  1  0  0  0  0
  5  6  2  0  0  0  0
  6  1  1  0  0  0  0
  8  5  1  0  0  0  0
  9 12  1  1  0  0  0
  9  3  1  0  0  0  0
 10 11  1  0  0  0  0
 10  9  1  0  0  0  0
 11 15  1  6  0  0  0
 11  9  1  0  0  0  0
 13 10  1  0  0  0  0
 14 10  1  0  0  0  0
 16 17  1  0  0  0  0
 16 11  1  0  0  0  0
 18 19  1  0  0  0  0
 20 18  1  0  0  0  0
M  END
>  <minimizedAffinity>
-3.56316137

$$$$
