REMARK  Name = 
REMARK  6 active torsions:
REMARK  status: ('A' for Active; 'I' for Inactive)
REMARK    1  A    between atoms: C_2  and  S_10
REMARK    2  A    between atoms: S_10  and  C_11
REMARK    3  A    between atoms: C_13  and  C_30
REMARK    4  A    between atoms: C_15  and  O_17
REMARK    5  A    between atoms: O_17  and  C_18
REMARK    6  A    between atoms: O_28  and  C_29
REMARK                            x       y       z     vdW  Elec       q    Type
REMARK                         _______ _______ _______ _____ _____    ______ ____
ROOT
ATOM      1  C   UNL     1      43.907  34.753  40.942  0.00  0.00    +0.000 A 
ATOM      2  C   UNL     1      43.867  33.790  39.943  0.00  0.00    +0.000 A 
ATOM      3  C   UNL     1      45.080  33.178  39.608  0.00  0.00    +0.000 A 
ATOM      4  N   UNL     1      46.209  33.537  40.249  0.00  0.00    +0.000 NA
ATOM      5  C   UNL     1      46.204  34.481  41.217  0.00  0.00    +0.000 A 
ATOM      6  N   UNL     1      45.057  35.059  41.534  0.00  0.00    +0.000 NA
ATOM      7  H   UNL     1      42.940  33.513  39.434  0.00  0.00    +0.000 HD
ENDROOT
BRANCH   3   9
ATOM      8  C   UNL     1      46.080  32.457  37.463  0.00  0.00    +0.000 C 
ATOM      9  C   UNL     1      45.100  32.145  38.553  0.00  0.00    +0.000 C 
ATOM     10  C   UNL     1      45.634  30.828  39.064  0.00  0.00    +0.000 C 
ATOM     11  H   UNL     1      46.367  31.032  39.870  0.00  0.00    +0.000 HD
ATOM     12  O   UNL     1      46.249  30.188  38.026  0.00  0.00    +0.000 OA
ATOM     13  C   UNL     1      46.458  31.075  36.988  0.00  0.00    +0.000 C 
ATOM     14  H   UNL     1      45.816  30.818  36.123  0.00  0.00    +0.000 HD
BRANCH   8  15
ATOM     15  O   UNL     1      47.200  33.053  38.074  0.00  0.00    +0.000 OA
ATOM     16  H   UNL     1      47.756  32.353  38.529  0.00  0.00    +0.000 HD
ENDBRANCH   8  15
ENDBRANCH   3   9
BRANCH   1  17
ATOM     17  S   UNL     1      42.332  35.530  41.358  0.00  0.00    +0.000 S 
BRANCH  17  19
ATOM     18  C   UNL     1      39.969  34.879  40.240  0.00  0.00    +0.000 A 
ATOM     19  C   UNL     1      40.979  34.400  41.056  0.00  0.00    +0.000 A 
ATOM     20  C   UNL     1      40.910  33.137  41.579  0.00  0.00    +0.000 A 
ATOM     21  C   UNL     1      39.845  32.293  41.322  0.00  0.00    +0.000 A 
ATOM     22  C   UNL     1      38.831  32.785  40.498  0.00  0.00    +0.000 A 
ATOM     23  C   UNL     1      38.868  34.055  39.952  0.00  0.00    +0.000 A 
ATOM     24  O   UNL     1      37.866  31.756  40.382  0.00  0.00    +0.000 OA
ATOM     25  C   UNL     1      38.165  30.809  41.357  0.00  0.00    +0.000 C 
ATOM     26  O   UNL     1      39.517  30.990  41.708  0.00  0.00    +0.000 OA
ATOM     27  H   UNL     1      39.921  35.862  39.773  0.00  0.00    +0.000 HD
ATOM     28  H   UNL     1      41.727  32.789  42.222  0.00  0.00    +0.000 HD
ATOM     29  H   UNL     1      38.070  34.402  39.322  0.00  0.00    +0.000 HD
ATOM     30  H   UNL     1      37.479  30.810  42.221  0.00  0.00    +0.000 HD
ATOM     31  H   UNL     1      38.075  29.800  40.897  0.00  0.00    +0.000 HD
ENDBRANCH  17  19
ENDBRANCH   1  17
BRANCH   5  32
ATOM     32  O   UNL     1      47.314  34.894  41.909  0.00  0.00    +0.000 OA
BRANCH  32  33
ATOM     33  C   UNL     1      48.530  35.050  41.215  0.00  0.00    +0.000 C 
ATOM     34  F   UNL     1      49.358  33.977  41.373  0.00  0.00    +0.000 F 
ATOM     35  F   UNL     1      48.181  35.299  39.890  0.00  0.00    +0.000 F 
ATOM     36  F   UNL     1      49.173  36.163  41.759  0.00  0.00    +0.000 F 
ENDBRANCH  32  33
ENDBRANCH   5  32
TORSDOF 6
