
 OpenBabel03252505363D

 33 35  0  0  1  0  0  0  0  0999 V2000
   44.6850   35.9160   45.1620 C   0  0  0  0  0  0  0  0  0  0  0  0
   45.4100   35.9350   43.9350 C   0  0  0  0  0  0  0  0  0  0  0  0
   46.0780   34.7860   43.5700 C   0  0  0  0  0  0  0  0  0  0  0  0
   46.0160   33.6990   44.3900 N   0  0  0  0  0  0  0  0  0  0  0  0
   45.3140   33.7300   45.5520 C   0  0  0  0  0  0  0  0  0  0  0  0
   44.6500   34.8240   45.9400 N   0  0  0  0  0  0  0  0  0  0  0  0
   45.2870   32.5890   46.4100 N   0  0  0  0  0  0  0  0  0  0  0  0
   44.1260   36.7610   45.5390 H   0  0  0  0  0  0  0  0  0  0  0  0
   44.6340   31.7690   46.3660 H   0  0  0  0  0  0  0  0  0  0  0  0
   46.0680   32.7710   47.0820 H   0  0  0  0  0  0  0  0  0  0  0  0
   46.8360   34.6630   42.3610 C   0  0  0  0  0  0  0  0  0  0  0  0
   48.1830   35.0000   42.4060 C   0  0  0  0  0  0  0  0  0  0  0  0
   49.0060   34.9110   41.2720 C   0  0  0  0  0  0  0  0  0  0  0  0
   48.4780   34.4830   40.0860 C   0  0  0  0  0  0  0  0  0  0  0  0
   47.1610   34.1530   40.0460 C   0  0  0  0  0  0  0  0  0  0  0  0
   46.3360   34.2360   41.1570 C   0  0  0  0  0  0  0  0  0  0  0  0
   48.6250   35.3420   43.3340 H   0  0  0  0  0  0  0  0  0  0  0  0
   50.0590   35.2010   41.4060 H   0  0  0  0  0  0  0  0  0  0  0  0
   49.1700   34.4390   39.2540 H   0  0  0  0  0  0  0  0  0  0  0  0
   46.7710   33.8140   39.0820 H   0  0  0  0  0  0  0  0  0  0  0  0
   44.9010   33.8600   41.0880 C   0  0  0  0  0  0  0  0  0  0  0  0
   44.7130   33.0940   39.9410 F   0  0  0  0  0  0  0  0  0  0  0  0
   44.1310   35.0040   41.0260 F   0  0  0  0  0  0  0  0  0  0  0  0
   44.4510   33.1520   42.1750 F   0  0  0  0  0  0  0  0  0  0  0  0
   45.6980   38.3930   44.1110 C   0  0  1  0  0  3  0  0  0  0  0  0
   45.4500   37.1900   43.2070 C   0  0  2  0  0  3  0  0  0  0  0  0
   44.1800   37.6050   42.5270 C   0  0  0  0  0  3  0  0  0  0  0  0
   43.2990   37.6580   43.1900 H   0  0  0  0  0  0  0  0  0  0  0  0
   44.4780   38.9150   42.1720 O   0  0  0  0  0  0  0  0  0  0  0  0
   45.1830   39.4930   43.2020 C   0  0  0  0  0  3  0  0  0  0  0  0
   44.6430   40.2900   43.7340 H   0  0  0  0  0  0  0  0  0  0  0  0
   44.9310   38.3490   45.2600 O   0  0  0  0  0  0  0  0  0  0  0  0
   45.5270   38.4200   46.0620 H   0  0  0  0  0  0  0  0  0  0  0  0
  1  8  1  0  0  0  0
  1  6  1  0  0  0  0
  2  1  2  0  0  0  0
  3  2  1  0  0  0  0
  3  4  2  0  0  0  0
  4  5  1  0  0  0  0
  5  6  2  0  0  0  0
  5  7  1  0  0  0  0
  7 10  1  0  0  0  0
  9  7  1  0  0  0  0
 11 12  1  0  0  0  0
 11  3  1  0  0  0  0
 12 17  1  0  0  0  0
 13 18  1  0  0  0  0
 13 12  2  0  0  0  0
 14 13  1  0  0  0  0
 15 14  2  0  0  0  0
 15 16  1  0  0  0  0
 16 11  2  0  0  0  0
 19 14  1  0  0  0  0
 20 15  1  0  0  0  0
 21 16  1  0  0  0  0
 21 24  1  0  0  0  0
 22 21  1  0  0  0  0
 23 21  1  0  0  0  0
 25 32  1  1  0  0  0
 26  2  1  1  0  0  0
 26 25  1  0  0  0  0
 27 28  1  0  0  0  0
 27 26  1  0  0  0  0
 29 27  1  0  0  0  0
 29 30  1  0  0  0  0
 30 31  1  0  0  0  0
 30 25  1  0  0  0  0
 32 33  1  0  0  0  0
M  END
>  <minimizedAffinity>
-1.91653037

>  <minimizedRMSD>
0.738369107

$$$$
