
 OpenBabel03242521053D

 34 37  0  0  1  0  0  0  0  0999 V2000
   46.7330   34.7360   41.9750 C   0  0  0  0  0  0  0  0  0  0  0  0
   47.9180   35.3890   41.6950 C   0  0  0  0  0  0  0  0  0  0  0  0
   48.6510   35.2440   40.5520 C   0  0  0  0  0  0  0  0  0  0  0  0
   48.1990   34.3810   39.5730 C   0  0  0  0  0  0  0  0  0  0  0  0
   47.0150   33.7340   39.8620 C   0  0  0  0  0  0  0  0  0  0  0  0
   46.3350   33.9090   40.9960 N   0  0  0  0  0  0  0  0  0  0  0  0
   48.3310   36.0820   42.4190 H   0  0  0  0  0  0  0  0  0  0  0  0
   49.5760   35.7760   40.3720 H   0  0  0  0  0  0  0  0  0  0  0  0
   48.7660   34.2570   38.6680 H   0  0  0  0  0  0  0  0  0  0  0  0
   44.4890   35.9800   44.7300 C   0  0  0  0  0  0  0  0  0  0  0  0
   45.1240   35.9610   43.4760 C   0  0  0  0  0  0  0  0  0  0  0  0
   45.9890   34.9240   43.2090 C   0  0  0  0  0  0  0  0  0  0  0  0
   46.1790   33.9840   44.1730 N   0  0  0  0  0  0  0  0  0  0  0  0
   45.5550   34.0270   45.3740 C   0  0  0  0  0  0  0  0  0  0  0  0
   44.7140   35.0320   45.6340 N   0  0  0  0  0  0  0  0  0  0  0  0
   43.8160   36.8150   44.8940 H   0  0  0  0  0  0  0  0  0  0  0  0
   44.9900   36.6920   42.6950 H   0  0  0  0  0  0  0  0  0  0  0  0
   45.7100   33.2800   46.1310 H   0  0  0  0  0  0  0  0  0  0  0  0
   46.4820   32.7880   38.8340 C   0  0  2  0  0  0  0  0  0  0  0  0
   47.5030   32.2880   37.8510 C   0  0  0  0  0  0  0  0  0  0  0  0
   46.3910   33.2320   37.4490 C   0  0  1  0  0  0  0  0  0  0  0  0
   45.7760   32.0080   39.1890 H   0  0  0  0  0  0  0  0  0  0  0  0
   47.4760   31.2260   37.5530 H   0  0  0  0  0  0  0  0  0  0  0  0
   48.5550   32.6700   37.8890 H   0  0  0  0  0  0  0  0  0  0  0  0
   46.7500   34.2290   37.1200 H   0  0  0  0  0  0  0  0  0  0  0  0
   45.6760   31.9330   35.4190 C   0  0  1  0  0  0  0  0  0  0  0  0
   45.2300   32.7450   36.6350 C   0  0  1  0  0  0  0  0  0  0  0  0
   44.3790   31.7040   37.3170 C   0  0  0  0  0  0  0  0  0  0  0  0
   44.9610   30.9030   37.7810 H   0  0  0  0  0  0  0  0  0  0  0  0
   43.6270   31.1930   36.2720 O   0  0  0  0  0  0  0  0  0  0  0  0
   44.4230   31.1710   35.1420 C   0  0  0  0  0  0  0  0  0  0  0  0
   43.8650   31.7660   34.3630 H   0  0  0  0  0  0  0  0  0  0  0  0
   45.9930   32.8500   34.4250 O   0  0  0  0  0  0  0  0  0  0  0  0
   46.2760   32.4420   33.5890 H   0  0  0  0  0  0  0  0  0  0  0  0
  1 12  1  0  0  0  0
  2  1  1  0  0  0  0
  2  7  1  0  0  0  0
  3  2  2  0  0  0  0
  4  5  2  0  0  0  0
  4  3  1  0  0  0  0
  5  6  1  0  0  0  0
  6  1  2  0  0  0  0
  8  3  1  0  0  0  0
  9  4  1  0  0  0  0
 10 16  1  0  0  0  0
 10 15  1  0  0  0  0
 11 10  2  0  0  0  0
 12 11  1  0  0  0  0
 12 13  2  0  0  0  0
 13 14  1  0  0  0  0
 14 15  2  0  0  0  0
 14 18  1  0  0  0  0
 17 11  1  0  0  0  0
 19 22  1  1  0  0  0
 19  5  1  0  0  0  0
 20 24  1  0  0  0  0
 20 19  1  0  0  0  0
 21 25  1  6  0  0  0
 21 20  1  0  0  0  0
 21 19  1  0  0  0  0
 23 20  1  0  0  0  0
 26 33  1  6  0  0  0
 26 27  1  0  0  0  0
 27 28  1  1  0  0  0
 27 21  1  0  0  0  0
 28 29  1  0  0  0  0
 30 28  1  0  0  0  0
 31 26  1  0  0  0  0
 31 30  1  0  0  0  0
 32 31  1  0  0  0  0
 34 33  1  0  0  0  0
M  END
>  <minimizedAffinity>
-5.86366463

>  <minimizedRMSD>
0.780202925

$$$$
