REMARK  Name = 
REMARK  4 active torsions:
REMARK  status: ('A' for Active; 'I' for Inactive)
REMARK    1  A    between atoms: C_2  and  C_7
REMARK    2  A    between atoms: C_8  and  C_9
REMARK    3  A    between atoms: C_9  and  C_21
REMARK    4  A    between atoms: O_17  and  C_18
REMARK                            x       y       z     vdW  Elec       q    Type
REMARK                         _______ _______ _______ _____ _____    ______ ____
ROOT
ATOM      1  C   UNL     1      42.628  35.179  39.716  0.00  0.00    +0.000 C 
ATOM      2  H   UNL     1      43.312  35.940  39.315  0.00  0.00    +0.000 HD
ATOM      3  H   UNL     1      41.595  35.576  39.674  0.00  0.00    +0.000 HD
ENDROOT
BRANCH   1   7
ATOM      4  C   UNL     1      42.580  33.045  36.732  0.00  0.00    +0.000 C 
ATOM      5  C   UNL     1      41.793  33.885  37.748  0.00  0.00    +0.000 C 
ATOM      6  H   UNL     1      40.848  33.374  37.955  0.00  0.00    +0.000 HD
ATOM      7  C   UNL     1      42.769  33.903  38.885  0.00  0.00    +0.000 C 
ATOM      8  O   UNL     1      44.046  33.820  38.360  0.00  0.00    +0.000 OA
ATOM      9  C   UNL     1      43.960  33.664  36.990  0.00  0.00    +0.000 C 
ATOM     10  H   UNL     1      44.759  33.036  36.592  0.00  0.00    +0.000 HD
BRANCH   4  11
ATOM     11  O   UNL     1      42.647  31.738  37.170  0.00  0.00    +0.000 OA
ATOM     12  H   UNL     1      41.769  31.301  37.311  0.00  0.00    +0.000 HD
ENDBRANCH   4  11
ENDBRANCH   1   7
BRANCH   1  14
ATOM     13  C   UNL     1      44.030  35.300  41.753  0.00  0.00    +0.000 C 
ATOM     14  C   UNL     1      43.028  34.769  41.096  0.00  0.00    +0.000 C 
BRANCH  13  16
ATOM     15  C   UNL     1      44.304  35.782  44.191  0.00  0.00    +0.000 A 
ATOM     16  C   UNL     1      44.465  34.947  43.088  0.00  0.00    +0.000 A 
ATOM     17  C   UNL     1      45.078  33.716  43.301  0.00  0.00    +0.000 A 
ATOM     18  N   UNL     1      45.492  33.381  44.570  0.00  0.00    +0.000 NA
ATOM     19  C   UNL     1      45.312  34.226  45.607  0.00  0.00    +0.000 A 
ATOM     20  N   UNL     1      44.721  35.417  45.407  0.00  0.00    +0.000 NA
ATOM     21  H   UNL     1      43.829  36.746  44.049  0.00  0.00    +0.000 HD
ATOM     22  H   UNL     1      45.227  33.029  42.472  0.00  0.00    +0.000 HD
ATOM     23  H   UNL     1      45.696  33.802  46.527  0.00  0.00    +0.000 HD
ENDBRANCH  13  16
ENDBRANCH   1  14
TORSDOF 4
