
 OpenBabel03252507073D

 24 25  0  0  1  0  0  0  0  0999 V2000
   44.5830   35.6030   44.7670 C   0  0  0  0  0  0  0  0  0  0  0  0
   45.1530   35.7410   43.4790 C   0  0  0  0  0  0  0  0  0  0  0  0
   46.1940   34.8730   43.1540 C   0  0  0  0  0  0  0  0  0  0  0  0
   46.6040   33.9580   44.0620 N   0  0  0  0  0  0  0  0  0  0  0  0
   46.0370   33.8550   45.2800 C   0  0  0  0  0  0  0  0  0  0  0  0
   45.0270   34.6780   45.6300 N   0  0  0  0  0  0  0  0  0  0  0  0
   43.7650   36.2490   45.0840 H   0  0  0  0  0  0  0  0  0  0  0  0
   44.7380   36.5090   42.8460 H   0  0  0  0  0  0  0  0  0  0  0  0
   45.3780   32.5340   47.3010 C   0  0  1  0  0  3  0  0  0  0  0  0
   46.4530   32.8770   46.2910 C   0  0  1  0  0  3  0  0  0  0  0  0
   46.6190   31.4830   45.6710 C   0  0  0  0  0  3  0  0  0  0  0  0
   47.6360   31.4270   45.2320 H   0  0  0  0  0  0  0  0  0  0  0  0
   46.3670   30.5690   46.6510 O   0  0  0  0  0  0  0  0  0  0  0  0
   45.9720   31.2210   47.8090 C   0  0  0  0  0  3  0  0  0  0  0  0
   46.9090   31.5040   48.3520 H   0  0  0  0  0  0  0  0  0  0  0  0
   45.2290   33.4760   48.2920 O   0  0  0  0  0  0  0  0  0  0  0  0
   45.4440   33.0830   49.1760 H   0  0  0  0  0  0  0  0  0  0  0  0
   46.7500   35.0120   41.8920 O   0  0  0  0  0  0  0  0  0  0  0  0
   48.5800   33.2500   41.1330 O   0  0  0  0  0  0  0  0  0  0  0  0
   48.4150   34.6780   41.6530 P   0  0  0  0  0  0  0  0  0  0  0  0
   49.0430   35.7980   40.5940 O   0  0  0  0  0  0  0  0  0  0  0  0
   48.5330   36.6270   40.6620 H   0  0  0  0  0  0  0  0  0  0  0  0
   49.1610   34.7710   43.1740 O   0  0  0  0  0  0  0  0  0  0  0  0
   49.7560   35.5480   43.2560 H   0  0  0  0  0  0  0  0  0  0  0  0
  1  7  1  0  0  0  0
  1  6  1  0  0  0  0
  2  1  2  0  0  0  0
  3  2  1  0  0  0  0
  3  4  2  0  0  0  0
  4  5  1  0  0  0  0
  5  6  2  0  0  0  0
  8  2  1  0  0  0  0
  9 14  1  0  0  0  0
  9 16  1  1  0  0  0
 10  5  1  6  0  0  0
 10  9  1  0  0  0  0
 11 10  1  0  0  0  0
 11 13  1  0  0  0  0
 12 11  1  0  0  0  0
 13 14  1  0  0  0  0
 14 15  1  0  0  0  0
 16 17  1  0  0  0  0
 18  3  1  0  0  0  0
 19 20  2  0  0  0  0
 20 18  1  0  0  0  0
 20 23  1  0  0  0  0
 21 22  1  0  0  0  0
 21 20  1  0  0  0  0
 23 24  1  0  0  0  0
M  END
>  <minimizedAffinity>
-5.84483004

>  <minimizedRMSD>
0.592854321

$$$$
