
 OpenBabel03242516083D

 25 27  0  0  1  0  0  0  0  0999 V2000
   47.8340   34.7170   41.7450 C   0  0  0  0  0  0  0  0  0  0  0  0
   48.8740   35.7930   41.6860 C   0  0  0  0  0  0  0  0  0  0  0  0
   49.2530   34.4090   42.0050 C   0  0  0  0  0  0  0  0  0  0  0  0
   48.7940   36.5670   42.4760 H   0  0  0  0  0  0  0  0  0  0  0  0
   49.1710   36.2220   40.7170 H   0  0  0  0  0  0  0  0  0  0  0  0
   49.5260   34.2460   43.0890 H   0  0  0  0  0  0  0  0  0  0  0  0
   49.8760   33.7910   41.3420 H   0  0  0  0  0  0  0  0  0  0  0  0
   45.8540   35.6980   42.8970 C   0  0  0  0  0  0  0  0  0  0  0  0
   46.8660   34.7440   42.8630 C   0  0  0  0  0  0  0  0  0  0  0  0
   46.9040   33.8110   43.9000 C   0  0  0  0  0  0  0  0  0  0  0  0
   45.9570   33.8770   44.8900 N   0  0  0  0  0  0  0  0  0  0  0  0
   44.9940   34.8120   44.8900 C   0  0  0  0  0  0  0  0  0  0  0  0
   44.9450   35.7180   43.8980 N   0  0  0  0  0  0  0  0  0  0  0  0
   45.7240   36.4680   42.1650 H   0  0  0  0  0  0  0  0  0  0  0  0
   47.6810   33.0890   43.8620 H   0  0  0  0  0  0  0  0  0  0  0  0
   44.2890   34.7850   45.7120 H   0  0  0  0  0  0  0  0  0  0  0  0
   48.1810   33.8060   39.5020 C   0  0  1  0  0  0  0  0  0  0  0  0
   47.1740   34.4420   40.4320 C   0  0  1  0  0  0  0  0  0  0  0  0
   45.9880   33.5570   40.4410 C   0  0  0  0  0  0  0  0  0  0  0  0
   46.0150   32.6630   41.0480 H   0  0  0  0  0  0  0  0  0  0  0  0
   45.9850   33.1020   39.1000 O   0  0  0  0  0  0  0  0  0  0  0  0
   47.3010   32.7720   38.8100 C   0  0  0  0  0  0  0  0  0  0  0  0
   47.5160   32.8280   37.7420 H   0  0  0  0  0  0  0  0  0  0  0  0
   48.6860   34.7110   38.5640 O   0  0  0  0  0  0  0  0  0  0  0  0
   47.9390   35.1920   38.1110 H   0  0  0  0  0  0  0  0  0  0  0  0
  1  3  1  0  0  0  0
  1  9  1  0  0  0  0
  2  1  1  0  0  0  0
  2  3  1  0  0  0  0
  2  4  1  0  0  0  0
  3  6  1  0  0  0  0
  5  2  1  0  0  0  0
  7  3  1  0  0  0  0
  8 13  1  0  0  0  0
  9  8  2  0  0  0  0
  9 10  1  0  0  0  0
 10 11  2  0  0  0  0
 12 11  1  0  0  0  0
 12 16  1  0  0  0  0
 13 12  2  0  0  0  0
 14  8  1  0  0  0  0
 15 10  1  0  0  0  0
 17 24  1  6  0  0  0
 17 18  1  0  0  0  0
 18 19  1  0  0  0  0
 18  1  1  1  0  0  0
 19 20  1  0  0  0  0
 21 19  1  0  0  0  0
 22 21  1  0  0  0  0
 22 17  1  0  0  0  0
 23 22  1  0  0  0  0
 25 24  1  0  0  0  0
M  END
>  <minimizedAffinity>
-4.96272087

>  <minimizedRMSD>
1.52802622

$$$$
