
     RDKit          3D

 31 32  0  0  0  0  0  0  0  0999 V2000
   44.5273   35.6132   44.7919 C   0  0  0  0  0  0  0  0  0  0  0  0
   44.9157   35.8332   43.4470 C   0  0  0  0  0  0  0  0  0  0  0  0
   45.9770   35.0155   42.9833 C   0  0  0  0  0  0  0  0  0  0  0  0
   46.5178   34.1144   43.8432 N   0  0  0  0  0  0  0  0  0  0  0  0
   46.1017   33.9600   45.1000 C   0  0  0  0  0  0  0  0  0  0  0  0
   45.0998   34.7128   45.5813 N   0  0  0  0  0  0  0  0  0  0  0  0
   46.6573   33.0400   45.9704 O   0  0  0  0  0  0  0  0  0  0  0  0
   46.9874   32.2969   48.4436 O   0  0  0  0  0  0  0  0  0  0  0  0
   45.9071   32.4002   47.3549 P   0  0  1  0  0  0  0  0  0  0  0  0
   44.6227   33.3566   47.8477 O   0  0  0  0  0  0  0  0  0  0  0  0
   45.3533   30.8406   47.0883 O   0  0  0  0  0  0  0  0  0  0  0  0
   45.1108   30.2456   48.3055 C   0  0  0  0  0  0  0  0  0  0  0  0
   43.7072   36.2494   45.1404 H   0  0  0  0  0  0  0  0  0  0  0  0
   44.4358   36.5726   42.8202 H   0  0  0  0  0  0  0  0  0  0  0  0
   46.3207   35.1346   41.9643 H   0  0  0  0  0  0  0  0  0  0  0  0
   44.8966   34.3166   47.9726 H   0  0  0  0  0  0  0  0  0  0  0  0
   44.4049   30.8886   48.8669 H   0  0  0  0  0  0  0  0  0  0  0  0
   46.0575   30.2346   48.8833 H   0  0  0  0  0  0  0  0  0  0  0  0
   42.5573   28.0085   50.7647 O   0  0  0  0  0  0  0  0  0  0  0  0
   43.0160   27.6200   49.4944 C   0  0  1  0  0  0  0  0  0  0  0  0
   43.1568   28.7852   48.5465 C   0  0  1  0  0  0  0  0  0  0  0  0
   42.4597   28.7441   47.6836 H   0  0  0  0  0  0  0  0  0  0  0  0
   44.6042   28.8280   48.1845 C   0  0  2  0  0  0  0  0  0  0  0  0
   45.2879   28.0349   49.0981 O   0  0  0  0  0  0  0  0  0  0  0  0
   44.4137   27.1030   49.5876 C   0  0  2  0  0  0  0  0  0  0  0  0
   44.5065   26.1688   48.9663 H   0  0  0  0  0  0  0  0  0  0  0  0
   41.8049   28.6734   50.6697 H   0  0  0  0  0  0  0  0  0  0  0  0
   42.3365   26.8299   49.0816 H   0  0  0  0  0  0  0  0  0  0  0  0
   42.8759   29.7026   49.1410 H   0  0  0  0  0  0  0  0  0  0  0  0
   44.8074   28.4164   47.1746 H   0  0  0  0  0  0  0  0  0  0  0  0
   44.6271   26.7871   50.6282 H   0  0  0  0  0  0  0  0  0  0  0  0
  1  6  2  0
  2  1  1  0
  3  2  2  0
  3  4  1  0
  4  5  2  0
  5  6  1  0
  5  7  1  0
  9  7  1  6
  9 10  1  0
  9  8  2  0
 11  9  1  0
 11 12  1  0
  1 13  1  0
  2 14  1  0
  3 15  1  0
 10 16  1  0
 12 17  1  0
 12 18  1  0
 19 20  1  0
 20 21  1  0
 21 22  1  6
 21 23  1  0
 23 24  1  0
 24 25  1  0
 25 26  1  6
 25 20  1  0
 19 27  1  0
 20 28  1  6
 21 29  1  0
 23 30  1  6
 25 31  1  0
 12 23  1  0
M  ISO  8  13  14  14  14  15  14  16   3  17   8  18   8  22   8  26  16
M  END
>  <DihAtoms>  (1) 
10,11,22,20

>  <DihDeg>  (1) 
177.08540763884247

$$$$
