
 OpenBabel03242518563D

 42 44  0  0  1  0  0  0  0  0999 V2000
   36.5780   28.9290   38.5870 C   0  0  2  0  0  0  0  0  0  0  0  0
   37.7920   28.0750   38.4050 C   0  0  0  0  0  0  0  0  0  0  0  0
   38.1570   28.1480   36.9600 C   0  0  0  0  0  0  0  0  0  0  0  0
   37.2330   28.9390   36.1000 C   0  0  0  0  0  0  0  0  0  0  0  0
   37.0540   30.3280   36.6520 C   0  0  0  0  0  0  0  0  0  0  0  0
   36.8880   30.3320   38.1000 C   0  0  2  0  0  0  0  0  0  0  0  0
   35.7810   28.5790   37.8990 H   0  0  0  0  0  0  0  0  0  0  0  0
   38.6320   28.3680   39.0660 H   0  0  0  0  0  0  0  0  0  0  0  0
   37.5370   27.0350   38.7310 H   0  0  0  0  0  0  0  0  0  0  0  0
   39.2300   28.3930   36.7670 H   0  0  0  0  0  0  0  0  0  0  0  0
   38.0820   27.0890   36.5620 H   0  0  0  0  0  0  0  0  0  0  0  0
   37.7210   29.0280   35.1080 H   0  0  0  0  0  0  0  0  0  0  0  0
   36.2750   28.4020   35.9280 H   0  0  0  0  0  0  0  0  0  0  0  0
   36.0790   30.6910   36.1990 H   0  0  0  0  0  0  0  0  0  0  0  0
   37.8060   30.9960   36.2030 H   0  0  0  0  0  0  0  0  0  0  0  0
   36.0870   30.9920   38.4950 H   0  0  0  0  0  0  0  0  0  0  0  0
   38.1800   30.8040   38.6710 C   0  0  0  0  0  0  0  0  0  0  0  0
   38.8930   31.1550   37.8830 H   0  0  0  0  0  0  0  0  0  0  0  0
   38.7260   29.9850   39.1940 H   0  0  0  0  0  0  0  0  0  0  0  0
   38.7580   34.1400   40.1090 C   0  0  1  0  0  3  0  0  0  0  0  0
   39.2960   32.8350   39.5570 C   0  0  0  0  0  3  0  0  0  0  0  0
   40.0880   32.4100   40.2010 H   0  0  0  0  0  0  0  0  0  0  0  0
   38.0330   31.9880   39.5960 C   0  0  1  0  0  3  0  0  0  0  0  0
   37.0800   32.8850   39.0900 O   0  0  0  0  0  0  0  0  0  0  0  0
   37.3620   34.1390   39.5560 C   0  0  0  0  0  3  0  0  0  0  0  0
   36.6050   34.5870   40.2250 H   0  0  0  0  0  0  0  0  0  0  0  0
   38.7620   34.1270   41.4950 O   0  0  0  0  0  0  0  0  0  0  0  0
   38.1780   33.4500   41.9010 H   0  0  0  0  0  0  0  0  0  0  0  0
   36.0400   28.9170   39.9720 C   0  0  0  0  0  0  0  0  0  0  0  0
   34.9460   29.4480   40.2940 O   0  0  0  0  0  0  0  0  0  0  0  0
   38.3400   28.3520   42.7540 C   0  0  0  0  0  0  0  0  0  0  0  0
   38.4000   26.9420   42.8820 C   0  0  0  0  0  0  0  0  0  0  0  0
   37.6290   26.2140   41.9940 C   0  0  0  0  0  0  0  0  0  0  0  0
   36.9210   26.9370   41.1250 N   0  0  0  0  0  0  0  0  0  0  0  0
   36.8570   28.2420   40.9980 C   0  0  0  0  0  0  0  0  0  0  0  0
   37.5950   28.9730   41.8460 N   0  0  0  0  0  0  0  0  0  0  0  0
   38.9440   28.9540   43.4470 H   0  0  0  0  0  0  0  0  0  0  0  0
   39.0130   26.4890   43.6270 H   0  0  0  0  0  0  0  0  0  0  0  0
   37.6890   24.7660   42.1100 C   0  0  0  0  0  0  0  0  0  0  0  0
   37.9580   24.2060   40.8630 F   0  0  0  0  0  0  0  0  0  0  0  0
   36.4660   24.3500   42.5230 F   0  0  0  0  0  0  0  0  0  0  0  0
   38.7230   24.3450   42.9380 F   0  0  0  0  0  0  0  0  0  0  0  0
  1  7  1  6  0  0  0
  1 29  1  0  0  0  0
  2  1  1  0  0  0  0
  2  9  1  0  0  0  0
  2  8  1  0  0  0  0
  3  2  1  0  0  0  0
  4  5  1  0  0  0  0
  4  3  1  0  0  0  0
  5  6  1  0  0  0  0
  6 16  1  1  0  0  0
  6  1  1  0  0  0  0
  6 17  1  0  0  0  0
 10  3  1  0  0  0  0
 11  3  1  0  0  0  0
 12  4  1  0  0  0  0
 13  4  1  0  0  0  0
 14  5  1  0  0  0  0
 15  5  1  0  0  0  0
 17 19  1  0  0  0  0
 18 17  1  0  0  0  0
 20 27  1  1  0  0  0
 21 23  1  0  0  0  0
 21 20  1  0  0  0  0
 21 22  1  0  0  0  0
 23 17  1  6  0  0  0
 24 25  1  0  0  0  0
 24 23  1  0  0  0  0
 25 20  1  0  0  0  0
 25 26  1  0  0  0  0
 27 28  1  0  0  0  0
 29 30  2  0  0  0  0
 29 35  1  0  0  0  0
 31 32  1  0  0  0  0
 31 37  1  0  0  0  0
 32 38  1  0  0  0  0
 33 39  1  0  0  0  0
 33 32  2  0  0  0  0
 34 33  1  0  0  0  0
 35 34  2  0  0  0  0
 35 36  1  0  0  0  0
 36 31  2  0  0  0  0
 39 41  1  0  0  0  0
 39 42  1  0  0  0  0
 40 39  1  0  0  0  0
M  END
>  <minimizedAffinity>
-5.88577938

$$$$

 OpenBabel03242518563D

 42 44  0  0  1  0  0  0  0  0999 V2000
   38.1020   28.5230   42.3530 C   0  0  2  0  0  0  0  0  0  0  0  0
   37.2910   28.6170   43.6060 C   0  0  0  0  0  0  0  0  0  0  0  0
   36.4360   27.3940   43.6580 C   0  0  0  0  0  0  0  0  0  0  0  0
   36.5410   26.4840   42.4830 C   0  0  0  0  0  0  0  0  0  0  0  0
   37.9740   26.0950   42.2400 C   0  0  0  0  0  0  0  0  0  0  0  0
   38.8850   27.2250   42.3720 C   0  0  2  0  0  0  0  0  0  0  0  0
   37.4190   28.4090   41.4860 H   0  0  0  0  0  0  0  0  0  0  0  0
   37.9110   28.7350   44.5170 H   0  0  0  0  0  0  0  0  0  0  0  0
   36.6880   29.5590   43.5610 H   0  0  0  0  0  0  0  0  0  0  0  0
   36.4800   26.8420   44.6280 H   0  0  0  0  0  0  0  0  0  0  0  0
   35.3630   27.7580   43.6430 H   0  0  0  0  0  0  0  0  0  0  0  0
   35.9780   25.5640   42.7440 H   0  0  0  0  0  0  0  0  0  0  0  0
   36.0380   26.9120   41.5890 H   0  0  0  0  0  0  0  0  0  0  0  0
   37.9980   25.7650   41.1540 H   0  0  0  0  0  0  0  0  0  0  0  0
   38.1970   25.1670   42.7910 H   0  0  0  0  0  0  0  0  0  0  0  0
   39.6670   27.3110   41.5880 H   0  0  0  0  0  0  0  0  0  0  0  0
   39.5780   27.0560   43.6790 C   0  0  0  0  0  0  0  0  0  0  0  0
   39.0980   26.2740   44.3200 H   0  0  0  0  0  0  0  0  0  0  0  0
   39.5320   27.9850   44.2950 H   0  0  0  0  0  0  0  0  0  0  0  0
   42.4780   25.0950   42.5520 C   0  0  1  0  0  3  0  0  0  0  0  0
   41.0570   25.1580   43.0770 C   0  0  0  0  0  3  0  0  0  0  0  0
   40.8960   24.4550   43.9150 H   0  0  0  0  0  0  0  0  0  0  0  0
   41.0120   26.6040   43.5470 C   0  0  1  0  0  3  0  0  0  0  0  0
   41.6340   27.2650   42.4780 O   0  0  0  0  0  0  0  0  0  0  0  0
   42.6510   26.4830   42.0060 C   0  0  0  0  0  3  0  0  0  0  0  0
   43.6700   26.8950   42.1190 H   0  0  0  0  0  0  0  0  0  0  0  0
   43.3720   24.8310   43.5770 O   0  0  0  0  0  0  0  0  0  0  0  0
   43.4170   25.5240   44.2710 H   0  0  0  0  0  0  0  0  0  0  0  0
   38.9700   29.7040   42.1130 C   0  0  0  0  0  0  0  0  0  0  0  0
   39.8030   30.1340   42.9530 O   0  0  0  0  0  0  0  0  0  0  0  0
   39.3260   32.1460   39.4170 C   0  0  0  0  0  0  0  0  0  0  0  0
   38.4920   31.6530   38.3820 C   0  0  0  0  0  0  0  0  0  0  0  0
   37.8240   30.4710   38.6460 C   0  0  0  0  0  0  0  0  0  0  0  0
   38.0520   29.9400   39.8480 N   0  0  0  0  0  0  0  0  0  0  0  0
   38.8220   30.3870   40.8140 C   0  0  0  0  0  0  0  0  0  0  0  0
   39.4820   31.5320   40.5850 N   0  0  0  0  0  0  0  0  0  0  0  0
   39.8680   33.0830   39.2330 H   0  0  0  0  0  0  0  0  0  0  0  0
   38.3980   32.1800   37.4610 H   0  0  0  0  0  0  0  0  0  0  0  0
   36.9590   29.9600   37.5950 C   0  0  0  0  0  0  0  0  0  0  0  0
   35.6290   30.0450   37.9990 F   0  0  0  0  0  0  0  0  0  0  0  0
   37.2800   28.6540   37.4160 F   0  0  0  0  0  0  0  0  0  0  0  0
   37.0420   30.7120   36.4300 F   0  0  0  0  0  0  0  0  0  0  0  0
  1  7  1  6  0  0  0
  1  6  1  0  0  0  0
  1  2  1  0  0  0  0
  2  3  1  0  0  0  0
  2  8  1  0  0  0  0
  3 10  1  0  0  0  0
  4 12  1  0  0  0  0
  4  3  1  0  0  0  0
  5  6  1  0  0  0  0
  5  4  1  0  0  0  0
  5 15  1  0  0  0  0
  6 16  1  6  0  0  0
  6 17  1  0  0  0  0
  9  2  1  0  0  0  0
 11  3  1  0  0  0  0
 13  4  1  0  0  0  0
 14  5  1  0  0  0  0
 17 19  1  0  0  0  0
 17 18  1  0  0  0  0
 20 21  1  0  0  0  0
 20 27  1  1  0  0  0
 21 23  1  0  0  0  0
 21 22  1  0  0  0  0
 23 17  1  6  0  0  0
 24 23  1  0  0  0  0
 25 26  1  0  0  0  0
 25 24  1  0  0  0  0
 25 20  1  0  0  0  0
 27 28  1  0  0  0  0
 29  1  1  0  0  0  0
 29 30  2  0  0  0  0
 31 36  1  0  0  0  0
 32 33  1  0  0  0  0
 32 31  2  0  0  0  0
 33 34  2  0  0  0  0
 34 35  1  0  0  0  0
 35 29  1  0  0  0  0
 36 35  2  0  0  0  0
 37 31  1  0  0  0  0
 38 32  1  0  0  0  0
 39 40  1  0  0  0  0
 39 33  1  0  0  0  0
 41 39  1  0  0  0  0
 42 39  1  0  0  0  0
M  END
>  <minimizedAffinity>
-5.76355791

$$$$

 OpenBabel03242518563D

 42 44  0  0  1  0  0  0  0  0999 V2000
   38.8230   31.0410   39.4790 C   0  0  2  0  0  0  0  0  0  0  0  0
   37.7120   31.4830   38.5810 C   0  0  0  0  0  0  0  0  0  0  0  0
   37.3070   32.8470   39.0360 C   0  0  0  0  0  0  0  0  0  0  0  0
   38.0130   33.3590   40.2440 C   0  0  0  0  0  0  0  0  0  0  0  0
   39.5040   33.3080   40.0470 C   0  0  0  0  0  0  0  0  0  0  0  0
   39.9390   32.0670   39.4200 C   0  0  2  0  0  0  0  0  0  0  0  0
   38.4780   31.0840   40.5320 H   0  0  0  0  0  0  0  0  0  0  0  0
   37.9860   31.4640   37.5070 H   0  0  0  0  0  0  0  0  0  0  0  0
   36.8800   30.7400   38.6640 H   0  0  0  0  0  0  0  0  0  0  0  0
   37.2540   33.6080   38.2200 H   0  0  0  0  0  0  0  0  0  0  0  0
   36.2220   32.7640   39.3520 H   0  0  0  0  0  0  0  0  0  0  0  0
   37.7210   34.4230   40.3540 H   0  0  0  0  0  0  0  0  0  0  0  0
   37.6680   32.8450   41.1680 H   0  0  0  0  0  0  0  0  0  0  0  0
   39.9290   33.3220   41.1000 H   0  0  0  0  0  0  0  0  0  0  0  0
   39.8470   34.2650   39.6230 H   0  0  0  0  0  0  0  0  0  0  0  0
   40.8370   31.5880   39.8630 H   0  0  0  0  0  0  0  0  0  0  0  0
   40.2610   32.4010   38.0050 C   0  0  0  0  0  0  0  0  0  0  0  0
   39.7830   33.3570   37.6720 H   0  0  0  0  0  0  0  0  0  0  0  0
   39.8670   31.6340   37.2980 H   0  0  0  0  0  0  0  0  0  0  0  0
   43.5640   34.0180   38.0670 C   0  0  1  0  0  3  0  0  0  0  0  0
   42.0660   34.0950   37.8440 C   0  0  0  0  0  3  0  0  0  0  0  0
   41.8160   34.6220   36.9040 H   0  0  0  0  0  0  0  0  0  0  0  0
   41.7350   32.6130   37.7560 C   0  0  1  0  0  3  0  0  0  0  0  0
   42.4860   32.0950   38.8210 O   0  0  0  0  0  0  0  0  0  0  0  0
   43.6740   32.7690   38.8930 C   0  0  0  0  0  3  0  0  0  0  0  0
   44.5820   32.1710   38.6970 H   0  0  0  0  0  0  0  0  0  0  0  0
   44.2360   33.8990   36.8610 O   0  0  0  0  0  0  0  0  0  0  0  0
   44.0390   33.0780   36.3610 H   0  0  0  0  0  0  0  0  0  0  0  0
   39.3050   29.6640   39.2000 C   0  0  0  0  0  0  0  0  0  0  0  0
   40.3290   29.4150   38.5130 O   0  0  0  0  0  0  0  0  0  0  0  0
   37.2430   26.6600   39.4820 C   0  0  0  0  0  0  0  0  0  0  0  0
   37.0230   26.5120   40.8740 C   0  0  0  0  0  0  0  0  0  0  0  0
   37.6060   27.4650   41.6900 C   0  0  0  0  0  0  0  0  0  0  0  0
   38.3070   28.4080   41.0580 N   0  0  0  0  0  0  0  0  0  0  0  0
   38.5180   28.5550   39.7710 C   0  0  0  0  0  0  0  0  0  0  0  0
   37.9640   27.6450   38.9560 N   0  0  0  0  0  0  0  0  0  0  0  0
   36.7910   25.9160   38.8110 H   0  0  0  0  0  0  0  0  0  0  0  0
   36.4380   25.7050   41.2500 H   0  0  0  0  0  0  0  0  0  0  0  0
   37.3800   27.3290   43.1190 C   0  0  0  0  0  0  0  0  0  0  0  0
   36.9620   28.5480   43.6470 F   0  0  0  0  0  0  0  0  0  0  0  0
   38.5680   26.9930   43.6800 F   0  0  0  0  0  0  0  0  0  0  0  0
   36.3610   26.4290   43.4090 F   0  0  0  0  0  0  0  0  0  0  0  0
  1  7  1  1  0  0  0
  2  9  1  0  0  0  0
  2  3  1  0  0  0  0
  2  1  1  0  0  0  0
  3 11  1  0  0  0  0
  3  4  1  0  0  0  0
  4 12  1  0  0  0  0
  4 13  1  0  0  0  0
  5  4  1  0  0  0  0
  5 14  1  0  0  0  0
  6  1  1  0  0  0  0
  6 16  1  1  0  0  0
  6  5  1  0  0  0  0
  8  2  1  0  0  0  0
 10  3  1  0  0  0  0
 15  5  1  0  0  0  0
 17  6  1  0  0  0  0
 18 17  1  0  0  0  0
 19 17  1  0  0  0  0
 20 27  1  6  0  0  0
 20 25  1  0  0  0  0
 21 20  1  0  0  0  0
 22 21  1  0  0  0  0
 23 21  1  0  0  0  0
 23 17  1  1  0  0  0
 23 24  1  0  0  0  0
 24 25  1  0  0  0  0
 26 25  1  0  0  0  0
 28 27  1  0  0  0  0
 29  1  1  0  0  0  0
 29 35  1  0  0  0  0
 30 29  2  0  0  0  0
 31 32  1  0  0  0  0
 32 38  1  0  0  0  0
 32 33  2  0  0  0  0
 33 39  1  0  0  0  0
 34 33  1  0  0  0  0
 35 34  2  0  0  0  0
 36 31  2  0  0  0  0
 36 35  1  0  0  0  0
 37 31  1  0  0  0  0
 39 42  1  0  0  0  0
 39 40  1  0  0  0  0
 39 41  1  0  0  0  0
M  END
>  <minimizedAffinity>
-5.69550514

$$$$

 OpenBabel03242518563D

 42 44  0  0  1  0  0  0  0  0999 V2000
   38.3780   27.2530   41.0770 C   0  0  2  0  0  0  0  0  0  0  0  0
   37.4360   27.9250   42.0240 C   0  0  0  0  0  0  0  0  0  0  0  0
   36.6960   26.8410   42.7360 C   0  0  0  0  0  0  0  0  0  0  0  0
   37.0050   25.4520   42.2950 C   0  0  0  0  0  0  0  0  0  0  0  0
   38.4850   25.1910   42.3660 C   0  0  0  0  0  0  0  0  0  0  0  0
   39.2710   26.3090   41.8590 C   0  0  2  0  0  0  0  0  0  0  0  0
   37.8020   26.5810   40.4080 H   0  0  0  0  0  0  0  0  0  0  0  0
   37.9440   28.6170   42.7260 H   0  0  0  0  0  0  0  0  0  0  0  0
   36.7570   28.5870   41.4300 H   0  0  0  0  0  0  0  0  0  0  0  0
   36.6890   26.9410   43.8490 H   0  0  0  0  0  0  0  0  0  0  0  0
   35.6010   26.9860   42.4810 H   0  0  0  0  0  0  0  0  0  0  0  0
   36.5050   24.7720   43.0150 H   0  0  0  0  0  0  0  0  0  0  0  0
   36.5610   25.2310   41.3000 H   0  0  0  0  0  0  0  0  0  0  0  0
   38.6530   24.3140   41.6640 H   0  0  0  0  0  0  0  0  0  0  0  0
   38.7330   24.7730   43.3550 H   0  0  0  0  0  0  0  0  0  0  0  0
   40.1190   26.0440   41.1930 H   0  0  0  0  0  0  0  0  0  0  0  0
   39.8360   27.0000   43.0520 C   0  0  0  0  0  0  0  0  0  0  0  0
   39.1850   26.8940   43.9560 H   0  0  0  0  0  0  0  0  0  0  0  0
   39.9140   28.1010   42.8940 H   0  0  0  0  0  0  0  0  0  0  0  0
   43.2630   25.6890   42.8020 C   0  0  1  0  0  3  0  0  0  0  0  0
   41.8210   25.6930   42.3380 C   0  0  0  0  0  3  0  0  0  0  0  0
   41.4120   24.6690   42.2500 H   0  0  0  0  0  0  0  0  0  0  0  0
   41.1740   26.4530   43.4870 C   0  0  1  0  0  3  0  0  0  0  0  0
   42.0880   27.4990   43.6790 O   0  0  0  0  0  0  0  0  0  0  0  0
   43.3540   27.0210   43.4900 C   0  0  0  0  0  3  0  0  0  0  0  0
   44.0130   27.0330   44.3770 H   0  0  0  0  0  0  0  0  0  0  0  0
   43.4960   24.6410   43.6790 O   0  0  0  0  0  0  0  0  0  0  0  0
   42.9880   24.6860   44.5170 H   0  0  0  0  0  0  0  0  0  0  0  0
   39.1550   28.1990   40.2350 C   0  0  0  0  0  0  0  0  0  0  0  0
   40.3780   28.0550   39.9800 O   0  0  0  0  0  0  0  0  0  0  0  0
   36.8270   30.2200   38.2730 C   0  0  0  0  0  0  0  0  0  0  0  0
   37.1020   31.5540   38.6630 C   0  0  0  0  0  0  0  0  0  0  0  0
   38.0950   31.7220   39.6110 C   0  0  0  0  0  0  0  0  0  0  0  0
   38.6700   30.5980   40.0420 N   0  0  0  0  0  0  0  0  0  0  0  0
   38.4240   29.3580   39.6880 C   0  0  0  0  0  0  0  0  0  0  0  0
   37.4660   29.1660   38.7700 N   0  0  0  0  0  0  0  0  0  0  0  0
   36.0420   30.0590   37.5210 H   0  0  0  0  0  0  0  0  0  0  0  0
   36.5630   32.3680   38.2360 H   0  0  0  0  0  0  0  0  0  0  0  0
   38.3930   33.0870   40.0120 C   0  0  0  0  0  0  0  0  0  0  0  0
   38.7430   33.1140   41.3600 F   0  0  0  0  0  0  0  0  0  0  0  0
   37.2570   33.8080   39.8400 F   0  0  0  0  0  0  0  0  0  0  0  0
   39.4860   33.6110   39.3330 F   0  0  0  0  0  0  0  0  0  0  0  0
  1  7  1  6  0  0  0
  1  6  1  0  0  0  0
  1  2  1  0  0  0  0
  2  8  1  0  0  0  0
  2  3  1  0  0  0  0
  3 10  1  0  0  0  0
  4  5  1  0  0  0  0
  4  3  1  0  0  0  0
  4 12  1  0  0  0  0
  5 15  1  0  0  0  0
  6 16  1  6  0  0  0
  6  5  1  0  0  0  0
  6 17  1  0  0  0  0
  9  2  1  0  0  0  0
 11  3  1  0  0  0  0
 13  4  1  0  0  0  0
 14  5  1  0  0  0  0
 17 18  1  0  0  0  0
 19 17  1  0  0  0  0
 20 25  1  0  0  0  0
 20 27  1  1  0  0  0
 21 20  1  0  0  0  0
 21 23  1  0  0  0  0
 22 21  1  0  0  0  0
 23 17  1  6  0  0  0
 23 24  1  0  0  0  0
 25 24  1  0  0  0  0
 25 26  1  0  0  0  0
 27 28  1  0  0  0  0
 29  1  1  0  0  0  0
 30 29  2  0  0  0  0
 31 32  2  0  0  0  0
 31 36  1  0  0  0  0
 32 33  1  0  0  0  0
 33 39  1  0  0  0  0
 33 34  2  0  0  0  0
 35 34  1  0  0  0  0
 35 29  1  0  0  0  0
 36 35  2  0  0  0  0
 37 31  1  0  0  0  0
 38 32  1  0  0  0  0
 39 40  1  0  0  0  0
 41 39  1  0  0  0  0
 42 39  1  0  0  0  0
M  END
>  <minimizedAffinity>
-5.68865633

$$$$

 OpenBabel03242518563D

 42 44  0  0  1  0  0  0  0  0999 V2000
   37.7660   31.2830   40.2640 C   0  0  2  0  0  0  0  0  0  0  0  0
   37.1820   32.6570   40.1870 C   0  0  0  0  0  0  0  0  0  0  0  0
   38.3060   33.5840   39.8600 C   0  0  0  0  0  0  0  0  0  0  0  0
   39.6550   32.9570   39.7750 C   0  0  0  0  0  0  0  0  0  0  0  0
   39.6440   31.8060   38.8060 C   0  0  0  0  0  0  0  0  0  0  0  0
   38.4590   30.9700   38.9510 C   0  0  2  0  0  0  0  0  0  0  0  0
   38.5890   31.2780   41.0070 H   0  0  0  0  0  0  0  0  0  0  0  0
   36.3480   32.7360   39.4620 H   0  0  0  0  0  0  0  0  0  0  0  0
   36.7090   32.8900   41.1750 H   0  0  0  0  0  0  0  0  0  0  0  0
   38.1020   34.2710   39.0020 H   0  0  0  0  0  0  0  0  0  0  0  0
   38.3810   34.3090   40.7280 H   0  0  0  0  0  0  0  0  0  0  0  0
   40.3400   33.7330   39.3740 H   0  0  0  0  0  0  0  0  0  0  0  0
   40.0450   32.6890   40.7810 H   0  0  0  0  0  0  0  0  0  0  0  0
   40.5410   31.1760   39.1040 H   0  0  0  0  0  0  0  0  0  0  0  0
   39.9150   32.1730   37.8030 H   0  0  0  0  0  0  0  0  0  0  0  0
   38.6330   29.8740   38.9340 H   0  0  0  0  0  0  0  0  0  0  0  0
   37.5690   31.3010   37.8040 C   0  0  0  0  0  0  0  0  0  0  0  0
   38.0240   32.0530   37.1110 H   0  0  0  0  0  0  0  0  0  0  0  0
   36.6170   31.7750   38.1410 H   0  0  0  0  0  0  0  0  0  0  0  0
   37.2710   27.7970   36.7250 C   0  0  1  0  0  3  0  0  0  0  0  0
   38.0720   28.9100   37.3690 C   0  0  0  0  0  3  0  0  0  0  0  0
   39.1070   28.9520   36.9810 H   0  0  0  0  0  0  0  0  0  0  0  0
   37.2610   30.1160   36.9190 C   0  0  1  0  0  3  0  0  0  0  0  0
   35.9500   29.6700   37.1440 O   0  0  0  0  0  0  0  0  0  0  0  0
   35.8750   28.3420   36.8280 C   0  0  0  0  0  3  0  0  0  0  0  0
   35.2200   28.0840   35.9780 H   0  0  0  0  0  0  0  0  0  0  0  0
   37.6540   27.6130   35.4060 O   0  0  0  0  0  0  0  0  0  0  0  0
   37.4880   28.3820   34.8190 H   0  0  0  0  0  0  0  0  0  0  0  0
   36.7830   30.2360   40.6470 C   0  0  0  0  0  0  0  0  0  0  0  0
   35.5760   30.2560   40.2930 O   0  0  0  0  0  0  0  0  0  0  0  0
   38.4770   28.4000   43.3150 C   0  0  0  0  0  0  0  0  0  0  0  0
   38.2240   27.0370   43.0210 C   0  0  0  0  0  0  0  0  0  0  0  0
   37.4590   26.7860   41.8960 C   0  0  0  0  0  0  0  0  0  0  0  0
   37.0530   27.8660   41.2270 N   0  0  0  0  0  0  0  0  0  0  0  0
   37.2820   29.1320   41.4890 C   0  0  0  0  0  0  0  0  0  0  0  0
   38.0200   29.4050   42.5740 N   0  0  0  0  0  0  0  0  0  0  0  0
   39.0820   28.6280   44.2030 H   0  0  0  0  0  0  0  0  0  0  0  0
   38.6110   26.2650   43.6450 H   0  0  0  0  0  0  0  0  0  0  0  0
   37.2000   25.3910   41.5800 C   0  0  0  0  0  0  0  0  0  0  0  0
   36.4330   24.8150   42.5890 F   0  0  0  0  0  0  0  0  0  0  0  0
   38.4020   24.7640   41.5310 F   0  0  0  0  0  0  0  0  0  0  0  0
   36.4550   25.2430   40.4160 F   0  0  0  0  0  0  0  0  0  0  0  0
  1 29  1  0  0  0  0
  1  7  1  1  0  0  0
  2  1  1  0  0  0  0
  2  9  1  0  0  0  0
  3  2  1  0  0  0  0
  3 11  1  0  0  0  0
  4  3  1  0  0  0  0
  4 13  1  0  0  0  0
  5  6  1  0  0  0  0
  5 14  1  0  0  0  0
  5  4  1  0  0  0  0
  6 16  1  6  0  0  0
  6  1  1  0  0  0  0
  8  2  1  0  0  0  0
 10  3  1  0  0  0  0
 12  4  1  0  0  0  0
 15  5  1  0  0  0  0
 17 19  1  0  0  0  0
 17  6  1  0  0  0  0
 18 17  1  0  0  0  0
 20 27  1  6  0  0  0
 20 25  1  0  0  0  0
 20 21  1  0  0  0  0
 22 21  1  0  0  0  0
 23 24  1  0  0  0  0
 23 21  1  0  0  0  0
 23 17  1  1  0  0  0
 25 24  1  0  0  0  0
 26 25  1  0  0  0  0
 28 27  1  0  0  0  0
 29 35  1  0  0  0  0
 30 29  2  0  0  0  0
 31 37  1  0  0  0  0
 32 31  1  0  0  0  0
 32 38  1  0  0  0  0
 33 32  2  0  0  0  0
 34 35  2  0  0  0  0
 34 33  1  0  0  0  0
 35 36  1  0  0  0  0
 36 31  2  0  0  0  0
 39 33  1  0  0  0  0
 39 40  1  0  0  0  0
 41 39  1  0  0  0  0
 42 39  1  0  0  0  0
M  END
>  <minimizedAffinity>
-5.65731525

$$$$

 OpenBabel03242518563D

 42 44  0  0  1  0  0  0  0  0999 V2000
   37.5980   28.2170   37.5850 C   0  0  2  0  0  0  0  0  0  0  0  0
   38.1010   28.0890   36.1830 C   0  0  0  0  0  0  0  0  0  0  0  0
   36.9000   28.0110   35.3000 C   0  0  0  0  0  0  0  0  0  0  0  0
   35.5850   28.0000   36.0010 C   0  0  0  0  0  0  0  0  0  0  0  0
   35.4660   29.1850   36.9210 C   0  0  0  0  0  0  0  0  0  0  0  0
   36.6910   29.4290   37.6720 C   0  0  2  0  0  0  0  0  0  0  0  0
   36.9250   27.3650   37.8100 H   0  0  0  0  0  0  0  0  0  0  0  0
   38.7850   28.9110   35.8890 H   0  0  0  0  0  0  0  0  0  0  0  0
   38.7370   27.1700   36.1240 H   0  0  0  0  0  0  0  0  0  0  0  0
   36.9160   28.7200   34.4360 H   0  0  0  0  0  0  0  0  0  0  0  0
   36.9560   27.0050   34.7800 H   0  0  0  0  0  0  0  0  0  0  0  0
   34.8080   28.1000   35.2160 H   0  0  0  0  0  0  0  0  0  0  0  0
   35.3970   27.0260   36.5020 H   0  0  0  0  0  0  0  0  0  0  0  0
   34.6650   28.8840   37.6680 H   0  0  0  0  0  0  0  0  0  0  0  0
   35.0020   30.0220   36.3760 H   0  0  0  0  0  0  0  0  0  0  0  0
   36.5610   29.6560   38.7510 H   0  0  0  0  0  0  0  0  0  0  0  0
   37.3420   30.6110   37.0410 C   0  0  0  0  0  0  0  0  0  0  0  0
   36.7190   31.0580   36.2260 H   0  0  0  0  0  0  0  0  0  0  0  0
   38.3000   30.3370   36.5400 H   0  0  0  0  0  0  0  0  0  0  0  0
   37.6880   32.4100   40.2310 C   0  0  1  0  0  3  0  0  0  0  0  0
   36.9300   31.4430   39.3420 C   0  0  0  0  0  3  0  0  0  0  0  0
   35.8460   31.6600   39.3260 H   0  0  0  0  0  0  0  0  0  0  0  0
   37.5790   31.7520   38.0010 C   0  0  1  0  0  3  0  0  0  0  0  0
   38.9350   31.8160   38.3540 O   0  0  0  0  0  0  0  0  0  0  0  0
   39.0430   32.4020   39.5850 C   0  0  0  0  0  3  0  0  0  0  0  0
   39.5680   33.3730   39.6130 H   0  0  0  0  0  0  0  0  0  0  0  0
   37.1090   33.6680   40.1960 O   0  0  0  0  0  0  0  0  0  0  0  0
   37.1280   34.1050   39.3170 H   0  0  0  0  0  0  0  0  0  0  0  0
   38.6760   28.2440   38.6070 C   0  0  0  0  0  0  0  0  0  0  0  0
   39.8520   28.6190   38.3640 O   0  0  0  0  0  0  0  0  0  0  0  0
   38.1290   28.2290   42.2210 C   0  0  0  0  0  0  0  0  0  0  0  0
   37.6620   26.9210   42.5020 C   0  0  0  0  0  0  0  0  0  0  0  0
   37.5430   26.0680   41.4190 C   0  0  0  0  0  0  0  0  0  0  0  0
   37.8830   26.5900   40.2390 N   0  0  0  0  0  0  0  0  0  0  0  0
   38.3160   27.8000   39.9670 C   0  0  0  0  0  0  0  0  0  0  0  0
   38.4410   28.6470   40.9990 N   0  0  0  0  0  0  0  0  0  0  0  0
   38.2330   28.9260   43.0630 H   0  0  0  0  0  0  0  0  0  0  0  0
   37.4240   26.6300   43.4990 H   0  0  0  0  0  0  0  0  0  0  0  0
   37.0740   24.7200   41.6950 C   0  0  0  0  0  0  0  0  0  0  0  0
   36.2540   24.7300   42.8210 F   0  0  0  0  0  0  0  0  0  0  0  0
   38.1690   23.9640   41.9570 F   0  0  0  0  0  0  0  0  0  0  0  0
   36.2880   24.2140   40.6670 F   0  0  0  0  0  0  0  0  0  0  0  0
  1  6  1  0  0  0  0
  1  7  1  1  0  0  0
  1 29  1  0  0  0  0
  2  1  1  0  0  0  0
  3  4  1  0  0  0  0
  3  2  1  0  0  0  0
  4 13  1  0  0  0  0
  4  5  1  0  0  0  0
  5 14  1  0  0  0  0
  5  6  1  0  0  0  0
  6 16  1  1  0  0  0
  8  2  1  0  0  0  0
  9  2  1  0  0  0  0
 10  3  1  0  0  0  0
 11  3  1  0  0  0  0
 12  4  1  0  0  0  0
 15  5  1  0  0  0  0
 17  6  1  0  0  0  0
 18 17  1  0  0  0  0
 19 17  1  0  0  0  0
 20 27  1  6  0  0  0
 21 20  1  0  0  0  0
 22 21  1  0  0  0  0
 23 17  1  6  0  0  0
 23 24  1  0  0  0  0
 23 21  1  0  0  0  0
 24 25  1  0  0  0  0
 25 26  1  0  0  0  0
 25 20  1  0  0  0  0
 28 27  1  0  0  0  0
 29 35  1  0  0  0  0
 30 29  2  0  0  0  0
 31 32  1  0  0  0  0
 31 37  1  0  0  0  0
 32 38  1  0  0  0  0
 33 39  1  0  0  0  0
 33 32  2  0  0  0  0
 34 33  1  0  0  0  0
 35 34  2  0  0  0  0
 35 36  1  0  0  0  0
 36 31  2  0  0  0  0
 39 41  1  0  0  0  0
 39 40  1  0  0  0  0
 42 39  1  0  0  0  0
M  END
>  <minimizedAffinity>
-5.65216398

$$$$

 OpenBabel03242518563D

 42 44  0  0  1  0  0  0  0  0999 V2000
   37.1620   27.9470   41.3770 C   0  0  2  0  0  0  0  0  0  0  0  0
   36.6550   28.0820   42.7780 C   0  0  0  0  0  0  0  0  0  0  0  0
   37.7570   27.6330   43.6800 C   0  0  0  0  0  0  0  0  0  0  0  0
   38.9780   27.1200   42.9990 C   0  0  0  0  0  0  0  0  0  0  0  0
   39.5030   28.1340   42.0180 C   0  0  0  0  0  0  0  0  0  0  0  0
   38.4400   28.7540   41.2380 C   0  0  2  0  0  0  0  0  0  0  0  0
   37.4890   26.9010   41.2090 H   0  0  0  0  0  0  0  0  0  0  0  0
   36.3080   29.1080   43.0170 H   0  0  0  0  0  0  0  0  0  0  0  0
   35.7360   27.4520   42.8770 H   0  0  0  0  0  0  0  0  0  0  0  0
   37.9980   28.3480   44.5040 H   0  0  0  0  0  0  0  0  0  0  0  0
   37.3520   26.7430   44.2520 H   0  0  0  0  0  0  0  0  0  0  0  0
   39.7460   26.9820   43.7880 H   0  0  0  0  0  0  0  0  0  0  0  0
   38.8070   26.1160   42.5540 H   0  0  0  0  0  0  0  0  0  0  0  0
   40.1410   27.5290   41.3000 H   0  0  0  0  0  0  0  0  0  0  0  0
   40.2370   28.7820   42.5240 H   0  0  0  0  0  0  0  0  0  0  0  0
   38.6350   28.8600   40.1510 H   0  0  0  0  0  0  0  0  0  0  0  0
   38.2520   30.1210   41.7960 C   0  0  0  0  0  0  0  0  0  0  0  0
   38.9970   30.3640   42.5960 H   0  0  0  0  0  0  0  0  0  0  0  0
   37.2620   30.2330   42.2970 H   0  0  0  0  0  0  0  0  0  0  0  0
   37.5210   33.1390   39.8240 C   0  0  1  0  0  3  0  0  0  0  0  0
   37.0770   31.8160   40.4160 C   0  0  0  0  0  3  0  0  0  0  0  0
   36.5420   31.1920   39.6760 H   0  0  0  0  0  0  0  0  0  0  0  0
   38.4300   31.2180   40.7740 C   0  0  1  0  0  3  0  0  0  0  0  0
   39.0780   32.3200   41.3520 O   0  0  0  0  0  0  0  0  0  0  0  0
   38.7240   33.4500   40.6680 C   0  0  0  0  0  3  0  0  0  0  0  0
   39.5390   33.9640   40.1290 H   0  0  0  0  0  0  0  0  0  0  0  0
   37.8550   32.9940   38.4870 O   0  0  0  0  0  0  0  0  0  0  0  0
   38.6180   32.4010   38.3170 H   0  0  0  0  0  0  0  0  0  0  0  0
   36.1580   28.2970   40.3410 C   0  0  0  0  0  0  0  0  0  0  0  0
   35.0640   28.8630   40.5990 O   0  0  0  0  0  0  0  0  0  0  0  0
   37.3190   26.4440   37.4120 C   0  0  0  0  0  0  0  0  0  0  0  0
   37.1300   27.3390   36.3300 C   0  0  0  0  0  0  0  0  0  0  0  0
   36.5940   28.5750   36.6450 C   0  0  0  0  0  0  0  0  0  0  0  0
   36.3190   28.7670   37.9360 N   0  0  0  0  0  0  0  0  0  0  0  0
   36.4900   27.9460   38.9460 C   0  0  0  0  0  0  0  0  0  0  0  0
   37.0090   26.7410   38.6700 N   0  0  0  0  0  0  0  0  0  0  0  0
   37.7440   25.4560   37.1900 H   0  0  0  0  0  0  0  0  0  0  0  0
   37.3940   27.0570   35.3370 H   0  0  0  0  0  0  0  0  0  0  0  0
   36.4030   29.5050   35.5450 C   0  0  0  0  0  0  0  0  0  0  0  0
   37.0430   29.0230   34.4050 F   0  0  0  0  0  0  0  0  0  0  0  0
   36.9810   30.6770   35.9090 F   0  0  0  0  0  0  0  0  0  0  0  0
   35.0650   29.6390   35.1920 F   0  0  0  0  0  0  0  0  0  0  0  0
  1  7  1  6  0  0  0
  1  2  1  0  0  0  0
  2  9  1  0  0  0  0
  2  8  1  0  0  0  0
  2  3  1  0  0  0  0
  3 11  1  0  0  0  0
  3 10  1  0  0  0  0
  4  3  1  0  0  0  0
  4 12  1  0  0  0  0
  5 15  1  0  0  0  0
  5  4  1  0  0  0  0
  6 16  1  6  0  0  0
  6  1  1  0  0  0  0
  6 17  1  0  0  0  0
  6  5  1  0  0  0  0
 13  4  1  0  0  0  0
 14  5  1  0  0  0  0
 17 19  1  0  0  0  0
 17 18  1  0  0  0  0
 20 27  1  6  0  0  0
 20 21  1  0  0  0  0
 20 25  1  0  0  0  0
 21 23  1  0  0  0  0
 22 21  1  0  0  0  0
 23 24  1  0  0  0  0
 23 17  1  1  0  0  0
 25 24  1  0  0  0  0
 26 25  1  0  0  0  0
 28 27  1  0  0  0  0
 29 30  2  0  0  0  0
 29  1  1  0  0  0  0
 31 36  1  0  0  0  0
 32 33  1  0  0  0  0
 32 31  2  0  0  0  0
 33 34  2  0  0  0  0
 34 35  1  0  0  0  0
 35 29  1  0  0  0  0
 36 35  2  0  0  0  0
 37 31  1  0  0  0  0
 38 32  1  0  0  0  0
 39 41  1  0  0  0  0
 39 33  1  0  0  0  0
 40 39  1  0  0  0  0
 42 39  1  0  0  0  0
M  END
>  <minimizedAffinity>
-5.5943141

$$$$

 OpenBabel03242518563D

 42 44  0  0  1  0  0  0  0  0999 V2000
   36.1890   30.4410   39.4100 C   0  0  2  0  0  0  0  0  0  0  0  0
   37.0580   30.3190   38.2000 C   0  0  0  0  0  0  0  0  0  0  0  0
   37.7260   31.6410   38.0150 C   0  0  0  0  0  0  0  0  0  0  0  0
   37.3230   32.7070   38.9740 C   0  0  0  0  0  0  0  0  0  0  0  0
   37.5040   32.2390   40.3930 C   0  0  0  0  0  0  0  0  0  0  0  0
   37.0440   30.8690   40.5880 C   0  0  2  0  0  0  0  0  0  0  0  0
   35.4870   31.2880   39.2700 H   0  0  0  0  0  0  0  0  0  0  0  0
   37.7870   29.4860   38.2710 H   0  0  0  0  0  0  0  0  0  0  0  0
   36.4090   30.0410   37.3320 H   0  0  0  0  0  0  0  0  0  0  0  0
   38.8350   31.5830   37.8840 H   0  0  0  0  0  0  0  0  0  0  0  0
   37.3900   32.0250   37.0020 H   0  0  0  0  0  0  0  0  0  0  0  0
   38.0120   33.5600   38.8070 H   0  0  0  0  0  0  0  0  0  0  0  0
   36.3010   33.0870   38.7570 H   0  0  0  0  0  0  0  0  0  0  0  0
   36.8250   32.9140   41.0030 H   0  0  0  0  0  0  0  0  0  0  0  0
   38.5120   32.5140   40.7400 H   0  0  0  0  0  0  0  0  0  0  0  0
   36.4440   30.6850   41.5030 H   0  0  0  0  0  0  0  0  0  0  0  0
   38.2660   30.0240   40.6750 C   0  0  0  0  0  0  0  0  0  0  0  0
   38.6180   29.6740   39.6710 H   0  0  0  0  0  0  0  0  0  0  0  0
   38.0800   29.0840   41.2460 H   0  0  0  0  0  0  0  0  0  0  0  0
   41.3990   30.5550   42.5270 C   0  0  1  0  0  3  0  0  0  0  0  0
   40.0060   29.9640   42.4430 C   0  0  0  0  0  3  0  0  0  0  0  0
   39.4200   30.1570   43.3610 H   0  0  0  0  0  0  0  0  0  0  0  0
   39.4580   30.7450   41.2580 C   0  0  1  0  0  3  0  0  0  0  0  0
   40.5390   30.6960   40.3660 O   0  0  0  0  0  0  0  0  0  0  0  0
   41.7030   30.7990   41.0770 C   0  0  0  0  0  3  0  0  0  0  0  0
   42.3090   31.7020   40.8830 H   0  0  0  0  0  0  0  0  0  0  0  0
   41.3920   31.7330   43.2570 O   0  0  0  0  0  0  0  0  0  0  0  0
   40.8610   32.4580   42.8610 H   0  0  0  0  0  0  0  0  0  0  0  0
   35.3950   29.2190   39.7030 C   0  0  0  0  0  0  0  0  0  0  0  0
   34.1700   29.2400   39.9870 O   0  0  0  0  0  0  0  0  0  0  0  0
   37.0150   26.1980   38.4350 C   0  0  0  0  0  0  0  0  0  0  0  0
   37.4300   25.5050   39.5990 C   0  0  0  0  0  0  0  0  0  0  0  0
   37.1400   26.1120   40.8080 C   0  0  0  0  0  0  0  0  0  0  0  0
   36.5030   27.2810   40.7240 N   0  0  0  0  0  0  0  0  0  0  0  0
   36.1140   27.9320   39.6520 C   0  0  0  0  0  0  0  0  0  0  0  0
   36.3820   27.3670   38.4660 N   0  0  0  0  0  0  0  0  0  0  0  0
   37.2330   25.7390   37.4620 H   0  0  0  0  0  0  0  0  0  0  0  0
   37.9350   24.5700   39.5250 H   0  0  0  0  0  0  0  0  0  0  0  0
   37.5530   25.4060   42.0100 C   0  0  0  0  0  0  0  0  0  0  0  0
   36.4830   24.6710   42.5150 F   0  0  0  0  0  0  0  0  0  0  0  0
   37.9080   26.3460   42.9210 F   0  0  0  0  0  0  0  0  0  0  0  0
   38.5560   24.4770   41.7580 F   0  0  0  0  0  0  0  0  0  0  0  0
  1  7  1  6  0  0  0
  1 29  1  0  0  0  0
  1  6  1  0  0  0  0
  2  8  1  0  0  0  0
  2  1  1  0  0  0  0
  3  2  1  0  0  0  0
  3  4  1  0  0  0  0
  4  5  1  0  0  0  0
  5  6  1  0  0  0  0
  5 15  1  0  0  0  0
  5 14  1  0  0  0  0
  6 17  1  0  0  0  0
  6 16  1  1  0  0  0
  9  2  1  0  0  0  0
 10  3  1  0  0  0  0
 11  3  1  0  0  0  0
 12  4  1  0  0  0  0
 13  4  1  0  0  0  0
 17 19  1  0  0  0  0
 18 17  1  0  0  0  0
 20 27  1  1  0  0  0
 21 20  1  0  0  0  0
 21 22  1  0  0  0  0
 23 17  1  6  0  0  0
 23 21  1  0  0  0  0
 24 25  1  0  0  0  0
 24 23  1  0  0  0  0
 25 20  1  0  0  0  0
 26 25  1  0  0  0  0
 28 27  1  0  0  0  0
 29 30  2  0  0  0  0
 31 36  2  0  0  0  0
 31 32  1  0  0  0  0
 32 33  2  0  0  0  0
 33 39  1  0  0  0  0
 34 33  1  0  0  0  0
 35 29  1  0  0  0  0
 35 34  2  0  0  0  0
 36 35  1  0  0  0  0
 37 31  1  0  0  0  0
 38 32  1  0  0  0  0
 39 40  1  0  0  0  0
 39 41  1  0  0  0  0
 42 39  1  0  0  0  0
M  END
>  <minimizedAffinity>
-5.55587339

$$$$

 OpenBabel03242518563D

 42 44  0  0  1  0  0  0  0  0999 V2000
   38.4540   28.0370   41.1540 C   0  0  2  0  0  0  0  0  0  0  0  0
   37.3860   26.9980   41.2880 C   0  0  0  0  0  0  0  0  0  0  0  0
   37.1110   26.8510   42.7480 C   0  0  0  0  0  0  0  0  0  0  0  0
   37.9710   27.6650   43.6520 C   0  0  0  0  0  0  0  0  0  0  0  0
   37.9160   29.1190   43.2670 C   0  0  0  0  0  0  0  0  0  0  0  0
   37.9840   29.3140   41.8240 C   0  0  2  0  0  0  0  0  0  0  0  0
   39.3360   27.7310   41.7530 H   0  0  0  0  0  0  0  0  0  0  0  0
   36.4700   27.2390   40.7110 H   0  0  0  0  0  0  0  0  0  0  0  0
   37.7610   26.0510   40.8250 H   0  0  0  0  0  0  0  0  0  0  0  0
   36.0290   26.9120   43.0220 H   0  0  0  0  0  0  0  0  0  0  0  0
   37.3590   25.7760   43.0090 H   0  0  0  0  0  0  0  0  0  0  0  0
   37.5430   27.5670   44.6700 H   0  0  0  0  0  0  0  0  0  0  0  0
   39.0040   27.2580   43.7090 H   0  0  0  0  0  0  0  0  0  0  0  0
   38.8590   29.5660   43.7130 H   0  0  0  0  0  0  0  0  0  0  0  0
   37.1100   29.6140   43.8320 H   0  0  0  0  0  0  0  0  0  0  0  0
   38.6560   30.1250   41.4750 H   0  0  0  0  0  0  0  0  0  0  0  0
   36.6030   29.6540   41.3810 C   0  0  0  0  0  0  0  0  0  0  0  0
   35.9020   29.8020   42.2410 H   0  0  0  0  0  0  0  0  0  0  0  0
   36.1430   28.8290   40.7870 H   0  0  0  0  0  0  0  0  0  0  0  0
   37.7130   32.6760   39.6020 C   0  0  1  0  0  3  0  0  0  0  0  0
   37.8000   31.7470   40.7970 C   0  0  0  0  0  3  0  0  0  0  0  0
   37.7880   32.3030   41.7530 H   0  0  0  0  0  0  0  0  0  0  0  0
   36.5210   30.9460   40.6040 C   0  0  1  0  0  3  0  0  0  0  0  0
   36.5590   30.6870   39.2260 O   0  0  0  0  0  0  0  0  0  0  0  0
   37.0630   31.7840   38.5840 C   0  0  0  0  0  3  0  0  0  0  0  0
   36.3690   32.3030   37.8980 H   0  0  0  0  0  0  0  0  0  0  0  0
   36.9290   33.7810   39.8920 O   0  0  0  0  0  0  0  0  0  0  0  0
   35.9900   33.5780   40.0910 H   0  0  0  0  0  0  0  0  0  0  0  0
   38.8950   28.2630   39.7530 C   0  0  0  0  0  0  0  0  0  0  0  0
   38.3030   27.7790   38.7540 O   0  0  0  0  0  0  0  0  0  0  0  0
   42.2760   29.6100   40.0830 C   0  0  0  0  0  0  0  0  0  0  0  0
   42.3040   30.7140   39.1960 C   0  0  0  0  0  0  0  0  0  0  0  0
   41.1390   30.9650   38.4940 C   0  0  0  0  0  0  0  0  0  0  0  0
   40.1310   30.1280   38.7420 N   0  0  0  0  0  0  0  0  0  0  0  0
   40.0930   29.1020   39.5600 C   0  0  0  0  0  0  0  0  0  0  0  0
   41.2090   28.8360   40.2540 N   0  0  0  0  0  0  0  0  0  0  0  0
   43.1880   29.3890   40.6530 H   0  0  0  0  0  0  0  0  0  0  0  0
   43.1840   31.3060   39.0920 H   0  0  0  0  0  0  0  0  0  0  0  0
   41.1530   32.1010   37.5880 C   0  0  0  0  0  0  0  0  0  0  0  0
   39.9210   32.2070   36.9480 F   0  0  0  0  0  0  0  0  0  0  0  0
   42.1100   31.8570   36.6580 F   0  0  0  0  0  0  0  0  0  0  0  0
   41.3310   33.3070   38.2550 F   0  0  0  0  0  0  0  0  0  0  0  0
  1  2  1  0  0  0  0
  1  7  1  1  0  0  0
  1  6  1  0  0  0  0
  2  3  1  0  0  0  0
  3 11  1  0  0  0  0
  3 10  1  0  0  0  0
  3  4  1  0  0  0  0
  4 13  1  0  0  0  0
  4 12  1  0  0  0  0
  5  4  1  0  0  0  0
  5 14  1  0  0  0  0
  5 15  1  0  0  0  0
  6 16  1  6  0  0  0
  6  5  1  0  0  0  0
  8  2  1  0  0  0  0
  9  2  1  0  0  0  0
 17  6  1  0  0  0  0
 17 18  1  0  0  0  0
 19 17  1  0  0  0  0
 20 27  1  1  0  0  0
 20 21  1  0  0  0  0
 21 22  1  0  0  0  0
 23 21  1  0  0  0  0
 23 17  1  1  0  0  0
 24 23  1  0  0  0  0
 25 24  1  0  0  0  0
 25 20  1  0  0  0  0
 26 25  1  0  0  0  0
 27 28  1  0  0  0  0
 29  1  1  0  0  0  0
 30 29  2  0  0  0  0
 31 36  1  0  0  0  0
 31 37  1  0  0  0  0
 32 31  2  0  0  0  0
 33 34  2  0  0  0  0
 33 32  1  0  0  0  0
 34 35  1  0  0  0  0
 35 29  1  0  0  0  0
 35 36  2  0  0  0  0
 38 32  1  0  0  0  0
 39 42  1  0  0  0  0
 39 33  1  0  0  0  0
 40 39  1  0  0  0  0
 41 39  1  0  0  0  0
M  END
>  <minimizedAffinity>
-5.54914808

$$$$
