
 OpenBabel03252504083D

 19 20  0  0  1  0  0  0  0  0999 V2000
   36.5360   30.8310   40.3130 C   0  0  0  0  0  0  0  0  0  0  0  0
   37.0500   29.5250   40.2580 C   0  0  0  0  0  0  0  0  0  0  0  0
   37.8560   29.1950   39.1570 C   0  0  0  0  0  0  0  0  0  0  0  0
   38.0940   30.1400   38.2180 N   0  0  0  0  0  0  0  0  0  0  0  0
   37.5830   31.3840   38.3040 C   0  0  0  0  0  0  0  0  0  0  0  0
   36.8080   31.7240   39.3500 N   0  0  0  0  0  0  0  0  0  0  0  0
   38.2750   28.2270   39.0560 H   0  0  0  0  0  0  0  0  0  0  0  0
   37.7600   32.1590   37.5650 H   0  0  0  0  0  0  0  0  0  0  0  0
   37.5590   28.7140   42.5600 C   0  0  2  0  0  3  0  0  0  0  0  0
   36.7450   28.5650   41.3120 C   0  0  2  0  0  3  0  0  0  0  0  0
   36.9020   27.1230   40.9490 C   0  0  0  0  0  3  0  0  0  0  0  0
   37.8780   26.8810   40.4850 H   0  0  0  0  0  0  0  0  0  0  0  0
   36.9700   26.5220   42.2280 O   0  0  0  0  0  0  0  0  0  0  0  0
   38.0400   27.2730   42.7530 C   0  0  0  0  0  3  0  0  0  0  0  0
   38.2680   27.0390   43.7890 H   0  0  0  0  0  0  0  0  0  0  0  0
   36.7540   28.9930   43.6750 O   0  0  0  0  0  0  0  0  0  0  0  0
   37.2710   29.4710   44.3830 H   0  0  0  0  0  0  0  0  0  0  0  0
   35.7470   31.1710   41.3790 O   0  0  0  0  0  0  0  0  0  0  0  0
   34.7590   30.9460   41.3140 H   0  0  0  0  0  0  0  0  0  0  0  0
  1 18  1  0  0  0  0
  2  1  1  0  0  0  0
  3  2  2  0  0  0  0
  4  5  2  0  0  0  0
  4  3  1  0  0  0  0
  5  6  1  0  0  0  0
  6  1  2  0  0  0  0
  7  3  1  0  0  0  0
  8  5  1  0  0  0  0
  9 14  1  0  0  0  0
  9 16  1  1  0  0  0
 10  2  1  6  0  0  0
 10  9  1  0  0  0  0
 11 10  1  0  0  0  0
 11 13  1  0  0  0  0
 12 11  1  0  0  0  0
 13 14  1  0  0  0  0
 14 15  1  0  0  0  0
 16 17  1  0  0  0  0
 19 18  1  0  0  0  0
M  END
>  <minimizedAffinity>
-4.62567472

$$$$

 OpenBabel03252504083D

 19 20  0  0  1  0  0  0  0  0999 V2000
   36.4090   29.9620   41.1540 C   0  0  0  0  0  0  0  0  0  0  0  0
   37.7640   30.2590   40.9390 C   0  0  0  0  0  0  0  0  0  0  0  0
   38.6250   29.1840   40.6690 C   0  0  0  0  0  0  0  0  0  0  0  0
   38.1120   27.9340   40.6300 N   0  0  0  0  0  0  0  0  0  0  0  0
   36.8040   27.6850   40.8420 C   0  0  0  0  0  0  0  0  0  0  0  0
   35.9590   28.6990   41.1030 N   0  0  0  0  0  0  0  0  0  0  0  0
   39.6590   29.3410   40.4960 H   0  0  0  0  0  0  0  0  0  0  0  0
   36.3690   26.6920   40.8160 H   0  0  0  0  0  0  0  0  0  0  0  0
   37.9200   32.4700   39.7960 C   0  0  2  0  0  3  0  0  0  0  0  0
   38.2380   31.6370   40.9980 C   0  0  2  0  0  3  0  0  0  0  0  0
   39.7110   31.8150   41.1810 C   0  0  0  0  0  3  0  0  0  0  0  0
   40.3250   31.2330   40.4660 H   0  0  0  0  0  0  0  0  0  0  0  0
   39.8810   33.1580   40.7670 O   0  0  0  0  0  0  0  0  0  0  0  0
   39.3010   33.0540   39.4860 C   0  0  0  0  0  3  0  0  0  0  0  0
   39.2510   33.9990   38.9550 H   0  0  0  0  0  0  0  0  0  0  0  0
   37.1130   33.5700   40.1240 O   0  0  0  0  0  0  0  0  0  0  0  0
   36.5860   33.8800   39.3330 H   0  0  0  0  0  0  0  0  0  0  0  0
   35.5530   30.9980   41.4200 O   0  0  0  0  0  0  0  0  0  0  0  0
   35.4850   31.3050   42.3850 H   0  0  0  0  0  0  0  0  0  0  0  0
  1 18  1  0  0  0  0
  2  1  2  0  0  0  0
  3  2  1  0  0  0  0
  4  3  2  0  0  0  0
  4  5  1  0  0  0  0
  5  6  2  0  0  0  0
  6  1  1  0  0  0  0
  7  3  1  0  0  0  0
  8  5  1  0  0  0  0
  9 16  1  1  0  0  0
  9 10  1  0  0  0  0
 10  2  1  6  0  0  0
 10 11  1  0  0  0  0
 12 11  1  0  0  0  0
 13 11  1  0  0  0  0
 14  9  1  0  0  0  0
 14 13  1  0  0  0  0
 15 14  1  0  0  0  0
 17 16  1  0  0  0  0
 18 19  1  0  0  0  0
M  END
>  <minimizedAffinity>
-4.58358622

$$$$

 OpenBabel03252504083D

 19 20  0  0  1  0  0  0  0  0999 V2000
   38.0790   28.6750   43.1360 C   0  0  0  0  0  0  0  0  0  0  0  0
   38.6330   29.5120   42.1540 C   0  0  0  0  0  0  0  0  0  0  0  0
   39.8710   29.1370   41.6110 C   0  0  0  0  0  0  0  0  0  0  0  0
   40.4590   28.0020   42.0530 N   0  0  0  0  0  0  0  0  0  0  0  0
   39.8980   27.2220   42.9980 C   0  0  0  0  0  0  0  0  0  0  0  0
   38.7120   27.5610   43.5340 N   0  0  0  0  0  0  0  0  0  0  0  0
   40.3430   29.7250   40.8660 H   0  0  0  0  0  0  0  0  0  0  0  0
   40.3490   26.3080   43.3680 H   0  0  0  0  0  0  0  0  0  0  0  0
   36.7290   30.4890   40.8750 C   0  0  2  0  0  3  0  0  0  0  0  0
   37.9340   30.7200   41.7330 C   0  0  2  0  0  3  0  0  0  0  0  0
   38.7450   31.7080   40.9560 C   0  0  0  0  0  3  0  0  0  0  0  0
   39.2900   31.2660   40.1000 H   0  0  0  0  0  0  0  0  0  0  0  0
   37.7280   32.4860   40.3530 O   0  0  0  0  0  0  0  0  0  0  0  0
   37.0220   31.4460   39.7160 C   0  0  0  0  0  3  0  0  0  0  0  0
   36.1230   31.7800   39.2060 H   0  0  0  0  0  0  0  0  0  0  0  0
   35.5600   30.9770   41.4790 O   0  0  0  0  0  0  0  0  0  0  0  0
   34.7510   30.4990   41.1390 H   0  0  0  0  0  0  0  0  0  0  0  0
   36.8720   29.0250   43.6790 O   0  0  0  0  0  0  0  0  0  0  0  0
   36.8870   29.6770   44.4580 H   0  0  0  0  0  0  0  0  0  0  0  0
  1  6  1  0  0  0  0
  1 18  1  0  0  0  0
  2  1  2  0  0  0  0
  3  4  2  0  0  0  0
  3  2  1  0  0  0  0
  4  5  1  0  0  0  0
  5  8  1  0  0  0  0
  5  6  2  0  0  0  0
  7  3  1  0  0  0  0
  9 16  1  1  0  0  0
  9 10  1  0  0  0  0
 10  2  1  6  0  0  0
 11 10  1  0  0  0  0
 12 11  1  0  0  0  0
 13 11  1  0  0  0  0
 14 13  1  0  0  0  0
 14  9  1  0  0  0  0
 15 14  1  0  0  0  0
 17 16  1  0  0  0  0
 18 19  1  0  0  0  0
M  END
>  <minimizedAffinity>
-4.56597042

$$$$

 OpenBabel03252504083D

 19 20  0  0  1  0  0  0  0  0999 V2000
   37.0700   31.5100   40.6490 C   0  0  0  0  0  0  0  0  0  0  0  0
   38.0830   30.5560   40.8400 C   0  0  0  0  0  0  0  0  0  0  0  0
   39.3700   30.8830   40.3850 C   0  0  0  0  0  0  0  0  0  0  0  0
   39.5660   32.0840   39.7950 N   0  0  0  0  0  0  0  0  0  0  0  0
   38.5690   32.9760   39.6290 C   0  0  0  0  0  0  0  0  0  0  0  0
   37.3270   32.6860   40.0570 N   0  0  0  0  0  0  0  0  0  0  0  0
   40.1780   30.2070   40.4980 H   0  0  0  0  0  0  0  0  0  0  0  0
   38.7020   33.9450   39.1600 H   0  0  0  0  0  0  0  0  0  0  0  0
   38.0360   29.2470   42.9610 C   0  0  2  0  0  3  0  0  0  0  0  0
   37.7870   29.2820   41.4850 C   0  0  2  0  0  3  0  0  0  0  0  0
   38.5350   28.0970   40.9640 C   0  0  0  0  0  3  0  0  0  0  0  0
   39.6310   28.2480   40.9050 H   0  0  0  0  0  0  0  0  0  0  0  0
   38.3710   27.1780   42.0280 O   0  0  0  0  0  0  0  0  0  0  0  0
   38.8830   27.9750   43.0710 C   0  0  0  0  0  3  0  0  0  0  0  0
   38.8170   27.5070   44.0480 H   0  0  0  0  0  0  0  0  0  0  0  0
   36.8610   28.9780   43.6790 O   0  0  0  0  0  0  0  0  0  0  0  0
   36.9180   29.3340   44.6110 H   0  0  0  0  0  0  0  0  0  0  0  0
   35.8080   31.2090   41.0860 O   0  0  0  0  0  0  0  0  0  0  0  0
   35.2160   30.6750   40.4570 H   0  0  0  0  0  0  0  0  0  0  0  0
  1  2  1  0  0  0  0
  1 18  1  0  0  0  0
  3  7  1  0  0  0  0
  3  2  2  0  0  0  0
  4  3  1  0  0  0  0
  5  4  2  0  0  0  0
  5  6  1  0  0  0  0
  6  1  2  0  0  0  0
  8  5  1  0  0  0  0
  9 14  1  0  0  0  0
  9 16  1  1  0  0  0
 10  2  1  6  0  0  0
 10  9  1  0  0  0  0
 11 10  1  0  0  0  0
 11 13  1  0  0  0  0
 12 11  1  0  0  0  0
 13 14  1  0  0  0  0
 14 15  1  0  0  0  0
 16 17  1  0  0  0  0
 19 18  1  0  0  0  0
M  END
>  <minimizedAffinity>
-4.54086113

$$$$

 OpenBabel03252504083D

 19 20  0  0  1  0  0  0  0  0999 V2000
   37.1600   31.9440   40.3340 C   0  0  0  0  0  0  0  0  0  0  0  0
   38.3520   31.5040   39.7350 C   0  0  0  0  0  0  0  0  0  0  0  0
   38.7380   30.1750   39.9680 C   0  0  0  0  0  0  0  0  0  0  0  0
   37.9530   29.3960   40.7460 N   0  0  0  0  0  0  0  0  0  0  0  0
   36.8150   29.8520   41.3050 C   0  0  0  0  0  0  0  0  0  0  0  0
   36.4230   31.1220   41.0970 N   0  0  0  0  0  0  0  0  0  0  0  0
   39.6270   29.7810   39.5450 H   0  0  0  0  0  0  0  0  0  0  0  0
   36.1680   29.2470   41.9320 H   0  0  0  0  0  0  0  0  0  0  0  0
   39.7710   31.7820   37.7040 C   0  0  2  0  0  3  0  0  0  0  0  0
   39.1420   32.4090   38.9090 C   0  0  2  0  0  3  0  0  0  0  0  0
   40.2810   33.0940   39.5950 C   0  0  0  0  0  3  0  0  0  0  0  0
   40.9480   32.4070   40.1520 H   0  0  0  0  0  0  0  0  0  0  0  0
   41.0600   33.5100   38.4890 O   0  0  0  0  0  0  0  0  0  0  0  0
   41.2190   32.2560   37.8650 C   0  0  0  0  0  3  0  0  0  0  0  0
   41.7540   32.3060   36.9220 H   0  0  0  0  0  0  0  0  0  0  0  0
   39.3140   32.3700   36.5150 O   0  0  0  0  0  0  0  0  0  0  0  0
   39.3980   31.7390   35.7450 H   0  0  0  0  0  0  0  0  0  0  0  0
   36.7670   33.2370   40.1190 O   0  0  0  0  0  0  0  0  0  0  0  0
   37.1600   33.9480   40.7290 H   0  0  0  0  0  0  0  0  0  0  0  0
  1  6  1  0  0  0  0
  2  3  1  0  0  0  0
  2  1  2  0  0  0  0
  3  4  2  0  0  0  0
  4  5  1  0  0  0  0
  5  8  1  0  0  0  0
  6  5  2  0  0  0  0
  7  3  1  0  0  0  0
  9 16  1  6  0  0  0
  9 14  1  0  0  0  0
  9 10  1  0  0  0  0
 10 11  1  0  0  0  0
 10  2  1  1  0  0  0
 11 12  1  0  0  0  0
 13 11  1  0  0  0  0
 14 13  1  0  0  0  0
 15 14  1  0  0  0  0
 17 16  1  0  0  0  0
 18  1  1  0  0  0  0
 18 19  1  0  0  0  0
M  END
>  <minimizedAffinity>
-4.53597689

$$$$

 OpenBabel03252504083D

 19 20  0  0  1  0  0  0  0  0999 V2000
   38.2870   33.3100   39.9180 C   0  0  0  0  0  0  0  0  0  0  0  0
   38.4880   31.9210   39.9000 C   0  0  0  0  0  0  0  0  0  0  0  0
   39.8140   31.4610   39.9200 C   0  0  0  0  0  0  0  0  0  0  0  0
   40.8170   32.3680   39.9560 N   0  0  0  0  0  0  0  0  0  0  0  0
   40.5850   33.6960   39.9730 C   0  0  0  0  0  0  0  0  0  0  0  0
   39.3230   34.1610   39.9540 N   0  0  0  0  0  0  0  0  0  0  0  0
   40.0340   30.4250   39.9080 H   0  0  0  0  0  0  0  0  0  0  0  0
   41.3720   34.4430   40.0020 H   0  0  0  0  0  0  0  0  0  0  0  0
   36.8700   30.5370   41.1970 C   0  0  2  0  0  3  0  0  0  0  0  0
   37.3510   31.0090   39.8600 C   0  0  2  0  0  3  0  0  0  0  0  0
   37.5510   29.7470   39.0830 C   0  0  0  0  0  3  0  0  0  0  0  0
   38.4720   29.1950   39.3540 H   0  0  0  0  0  0  0  0  0  0  0  0
   36.5040   28.9410   39.5900 O   0  0  0  0  0  0  0  0  0  0  0  0
   36.8240   29.0240   40.9600 C   0  0  0  0  0  3  0  0  0  0  0  0
   36.1120   28.5170   41.6030 H   0  0  0  0  0  0  0  0  0  0  0  0
   35.5410   30.9190   41.4350 O   0  0  0  0  0  0  0  0  0  0  0  0
   35.3500   30.9710   42.4150 H   0  0  0  0  0  0  0  0  0  0  0  0
   37.0000   33.7780   39.8980 O   0  0  0  0  0  0  0  0  0  0  0  0
   36.5570   33.8760   38.9900 H   0  0  0  0  0  0  0  0  0  0  0  0
  1  6  1  0  0  0  0
  2  1  2  0  0  0  0
  2  3  1  0  0  0  0
  3  4  2  0  0  0  0
  4  5  1  0  0  0  0
  5  8  1  0  0  0  0
  6  5  2  0  0  0  0
  7  3  1  0  0  0  0
  9 16  1  6  0  0  0
 10  2  1  1  0  0  0
 10  9  1  0  0  0  0
 11 12  1  0  0  0  0
 11 13  1  0  0  0  0
 11 10  1  0  0  0  0
 13 14  1  0  0  0  0
 14  9  1  0  0  0  0
 14 15  1  0  0  0  0
 16 17  1  0  0  0  0
 18  1  1  0  0  0  0
 19 18  1  0  0  0  0
M  END
>  <minimizedAffinity>
-4.50094557

$$$$

 OpenBabel03252504083D

 19 20  0  0  1  0  0  0  0  0999 V2000
   36.9120   27.3930   42.5700 C   0  0  0  0  0  0  0  0  0  0  0  0
   37.5460   28.1800   41.5950 C   0  0  0  0  0  0  0  0  0  0  0  0
   38.2090   27.5100   40.5560 C   0  0  0  0  0  0  0  0  0  0  0  0
   38.2020   26.1570   40.5450 N   0  0  0  0  0  0  0  0  0  0  0  0
   37.5820   25.4340   41.4990 C   0  0  0  0  0  0  0  0  0  0  0  0
   36.9400   26.0530   42.5050 N   0  0  0  0  0  0  0  0  0  0  0  0
   38.7070   28.0450   39.7890 H   0  0  0  0  0  0  0  0  0  0  0  0
   37.5620   24.3490   41.5120 H   0  0  0  0  0  0  0  0  0  0  0  0
   36.5370   30.2990   40.7520 C   0  0  2  0  0  3  0  0  0  0  0  0
   37.5070   29.6360   41.6800 C   0  0  2  0  0  3  0  0  0  0  0  0
   38.7990   30.3410   41.4150 C   0  0  0  0  0  3  0  0  0  0  0  0
   39.2970   30.0280   40.4760 H   0  0  0  0  0  0  0  0  0  0  0  0
   38.3460   31.6540   41.1430 O   0  0  0  0  0  0  0  0  0  0  0  0
   37.4430   31.3500   40.1050 C   0  0  0  0  0  3  0  0  0  0  0  0
   36.8940   32.2140   39.7410 H   0  0  0  0  0  0  0  0  0  0  0  0
   35.5620   31.0240   41.4530 O   0  0  0  0  0  0  0  0  0  0  0  0
   34.7270   31.1230   40.9130 H   0  0  0  0  0  0  0  0  0  0  0  0
   36.2610   28.0290   43.5930 O   0  0  0  0  0  0  0  0  0  0  0  0
   36.8190   28.3070   44.3950 H   0  0  0  0  0  0  0  0  0  0  0  0
  1 18  1  0  0  0  0
  2  1  2  0  0  0  0
  3  2  1  0  0  0  0
  4  3  2  0  0  0  0
  4  5  1  0  0  0  0
  5  8  1  0  0  0  0
  5  6  2  0  0  0  0
  6  1  1  0  0  0  0
  7  3  1  0  0  0  0
  9 16  1  1  0  0  0
  9 10  1  0  0  0  0
 10  2  1  6  0  0  0
 11 10  1  0  0  0  0
 12 11  1  0  0  0  0
 13 11  1  0  0  0  0
 14  9  1  0  0  0  0
 14 13  1  0  0  0  0
 15 14  1  0  0  0  0
 17 16  1  0  0  0  0
 18 19  1  0  0  0  0
M  END
>  <minimizedAffinity>
-4.47544765

$$$$

 OpenBabel03252504083D

 19 20  0  0  1  0  0  0  0  0999 V2000
   40.4350   32.2730   37.6780 C   0  0  0  0  0  0  0  0  0  0  0  0
   39.7830   32.0730   38.9050 C   0  0  0  0  0  0  0  0  0  0  0  0
   40.5850   31.9650   40.0520 C   0  0  0  0  0  0  0  0  0  0  0  0
   41.9280   32.0590   39.9180 N   0  0  0  0  0  0  0  0  0  0  0  0
   42.5190   32.2510   38.7220 C   0  0  0  0  0  0  0  0  0  0  0  0
   41.7720   32.3580   37.6090 N   0  0  0  0  0  0  0  0  0  0  0  0
   40.1550   31.8140   41.0080 H   0  0  0  0  0  0  0  0  0  0  0  0
   43.5930   32.3300   38.5890 H   0  0  0  0  0  0  0  0  0  0  0  0
   37.7040   32.5870   40.1830 C   0  0  2  0  0  3  0  0  0  0  0  0
   38.3280   31.9820   38.9640 C   0  0  2  0  0  3  0  0  0  0  0  0
   37.7570   30.6020   38.9130 C   0  0  0  0  0  3  0  0  0  0  0  0
   38.2110   29.9010   39.6400 H   0  0  0  0  0  0  0  0  0  0  0  0
   36.4530   30.8240   39.4160 O   0  0  0  0  0  0  0  0  0  0  0  0
   36.8040   31.4340   40.6370 C   0  0  0  0  0  3  0  0  0  0  0  0
   35.9490   31.7690   41.2170 H   0  0  0  0  0  0  0  0  0  0  0  0
   36.8320   33.6360   39.8540 O   0  0  0  0  0  0  0  0  0  0  0  0
   36.7330   34.2750   40.6160 H   0  0  0  0  0  0  0  0  0  0  0  0
   39.6690   32.3800   36.5480 O   0  0  0  0  0  0  0  0  0  0  0  0
   39.3950   31.5160   36.0910 H   0  0  0  0  0  0  0  0  0  0  0  0
  1  2  1  0  0  0  0
  2  3  2  0  0  0  0
  3  7  1  0  0  0  0
  4  3  1  0  0  0  0
  5  4  2  0  0  0  0
  6  1  2  0  0  0  0
  6  5  1  0  0  0  0
  8  5  1  0  0  0  0
  9 16  1  6  0  0  0
  9 14  1  0  0  0  0
 10  2  1  1  0  0  0
 10  9  1  0  0  0  0
 11 10  1  0  0  0  0
 11 13  1  0  0  0  0
 11 12  1  0  0  0  0
 13 14  1  0  0  0  0
 14 15  1  0  0  0  0
 16 17  1  0  0  0  0
 18  1  1  0  0  0  0
 19 18  1  0  0  0  0
M  END
>  <minimizedAffinity>
-4.30574846

$$$$

 OpenBabel03252504083D

 19 20  0  0  1  0  0  0  0  0999 V2000
   38.4190   29.7420   42.5960 C   0  0  0  0  0  0  0  0  0  0  0  0
   37.7050   29.9780   41.4100 C   0  0  0  0  0  0  0  0  0  0  0  0
   36.6330   29.1200   41.1210 C   0  0  0  0  0  0  0  0  0  0  0  0
   36.3450   28.1230   41.9890 N   0  0  0  0  0  0  0  0  0  0  0  0
   37.0530   27.9260   43.1180 C   0  0  0  0  0  0  0  0  0  0  0  0
   38.0860   28.7350   43.4170 N   0  0  0  0  0  0  0  0  0  0  0  0
   36.0540   29.2450   40.2430 H   0  0  0  0  0  0  0  0  0  0  0  0
   36.8420   27.1340   43.8300 H   0  0  0  0  0  0  0  0  0  0  0  0
   36.9340   31.8220   39.9200 C   0  0  2  0  0  3  0  0  0  0  0  0
   38.0810   31.0770   40.5270 C   0  0  2  0  0  3  0  0  0  0  0  0
   38.9350   30.7110   39.3560 C   0  0  0  0  0  3  0  0  0  0  0  0
   38.5410   29.8620   38.7610 H   0  0  0  0  0  0  0  0  0  0  0  0
   38.7490   31.8350   38.5160 O   0  0  0  0  0  0  0  0  0  0  0  0
   37.3410   31.8080   38.4430 C   0  0  0  0  0  3  0  0  0  0  0  0
   36.9200   32.6350   37.8810 H   0  0  0  0  0  0  0  0  0  0  0  0
   36.9360   33.1740   40.2960 O   0  0  0  0  0  0  0  0  0  0  0  0
   36.0180   33.5650   40.2430 H   0  0  0  0  0  0  0  0  0  0  0  0
   39.4700   30.5680   42.8950 O   0  0  0  0  0  0  0  0  0  0  0  0
   40.3700   30.3390   42.4840 H   0  0  0  0  0  0  0  0  0  0  0  0
  1 18  1  0  0  0  0
  1  6  1  0  0  0  0
  2  1  2  0  0  0  0
  3  2  1  0  0  0  0
  3  4  2  0  0  0  0
  4  5  1  0  0  0  0
  5  6  2  0  0  0  0
  5  8  1  0  0  0  0
  7  3  1  0  0  0  0
  9 16  1  1  0  0  0
  9 10  1  0  0  0  0
 10  2  1  6  0  0  0
 11 10  1  0  0  0  0
 12 11  1  0  0  0  0
 13 11  1  0  0  0  0
 14 13  1  0  0  0  0
 14  9  1  0  0  0  0
 15 14  1  0  0  0  0
 17 16  1  0  0  0  0
 19 18  1  0  0  0  0
M  END
>  <minimizedAffinity>
-4.26071787

$$$$
