
 OpenBabel03252504353D

 42 44  0  0  1  0  0  0  0  0999 V2000
   41.7410   34.4850   41.2550 C   0  0  0  0  0  0  0  0  0  0  0  0
   41.6090   35.2190   40.4030 H   0  0  0  0  0  0  0  0  0  0  0  0
   41.6150   35.0640   42.1600 H   0  0  0  0  0  0  0  0  0  0  0  0
   40.5420   32.4620   41.9640 C   0  0  0  0  0  0  0  0  0  0  0  0
   40.5320   33.5880   41.1420 C   0  0  0  0  0  0  0  0  0  0  0  0
   39.4620   33.7930   40.3230 C   0  0  0  0  0  0  0  0  0  0  0  0
   38.4840   32.8700   40.3810 N   0  0  0  0  0  0  0  0  0  0  0  0
   38.5010   31.8160   41.1530 C   0  0  0  0  0  0  0  0  0  0  0  0
   39.5600   31.5600   42.0020 N   0  0  0  0  0  0  0  0  0  0  0  0
   37.4040   30.9120   41.1120 N   0  0  0  0  0  0  0  0  0  0  0  0
   41.3710   32.2560   42.6320 H   0  0  0  0  0  0  0  0  0  0  0  0
   36.7680   30.6170   41.8610 H   0  0  0  0  0  0  0  0  0  0  0  0
   37.2440   30.5040   40.1770 H   0  0  0  0  0  0  0  0  0  0  0  0
   39.3550   34.4680   38.0130 C   0  0  1  0  0  0  0  0  0  0  0  0
   39.4370   34.9710   39.4360 C   0  0  2  0  0  0  0  0  0  0  0  0
   40.8040   35.6500   39.4100 C   0  0  0  0  0  0  0  0  0  0  0  0
   40.7360   36.7320   39.5810 H   0  0  0  0  0  0  0  0  0  0  0  0
   41.3500   35.4570   38.1640 O   0  0  0  0  0  0  0  0  0  0  0  0
   40.2410   35.4840   37.2880 C   0  0  0  0  0  0  0  0  0  0  0  0
   39.8210   36.4920   37.2770 H   0  0  0  0  0  0  0  0  0  0  0  0
   39.9850   33.2380   37.8590 O   0  0  0  0  0  0  0  0  0  0  0  0
   40.9500   33.3630   37.8730 H   0  0  0  0  0  0  0  0  0  0  0  0
   42.9040   33.8320   40.9910 O   0  0  0  0  0  0  0  0  0  0  0  0
   44.0850   33.8200   41.6990 C   0  0  0  0  0  0  0  0  0  0  0  0
   44.1380   34.6400   42.7440 C   0  0  0  0  0  0  0  0  0  0  0  0
   45.3580   34.7640   43.6360 C   0  0  0  0  0  0  0  0  0  0  0  0
   46.2330   34.4110   43.0500 H   0  0  0  0  0  0  0  0  0  0  0  0
   45.4990   35.8130   43.9240 H   0  0  0  0  0  0  0  0  0  0  0  0
   45.1210   33.9930   44.7570 O   0  0  0  0  0  0  0  0  0  0  0  0
   45.8530   31.6750   43.6500 O   0  0  0  0  0  0  0  0  0  0  0  0
   46.1540   32.6610   44.7680 P   0  0  1  0  0  0  0  0  0  0  0  0
   47.7640   33.1810   44.5260 O   0  0  0  0  0  0  0  0  0  0  0  0
   48.2260   32.6730   43.8400 H   0  0  0  0  0  0  0  0  0  0  0  0
   46.1160   31.8800   46.2470 O   0  0  0  0  0  0  0  0  0  0  0  0
   46.5680   32.6910   47.2840 C   0  0  0  0  0  0  0  0  0  0  0  0
   47.5960   32.0880   48.2110 C   0  0  0  0  0  0  0  0  0  0  0  0
   46.1560   32.2890   48.6690 C   0  0  0  0  0  0  0  0  0  0  0  0
   46.7790   33.7510   47.0560 H   0  0  0  0  0  0  0  0  0  0  0  0
   48.3600   32.7280   48.6810 H   0  0  0  0  0  0  0  0  0  0  0  0
   47.8980   31.0640   47.9900 H   0  0  0  0  0  0  0  0  0  0  0  0
   45.5160   31.4010   48.7990 H   0  0  0  0  0  0  0  0  0  0  0  0
   45.9510   33.0710   49.4290 H   0  0  0  0  0  0  0  0  0  0  0  0
  1  3  1  0  0  0  0
  2  1  1  0  0  0  0
  4  9  1  0  0  0  0
  4 11  1  0  0  0  0
  5  1  1  0  0  0  0
  5  4  2  0  0  0  0
  6  7  2  0  0  0  0
  6  5  1  0  0  0  0
  7  8  1  0  0  0  0
  8  9  2  0  0  0  0
 10  8  1  0  0  0  0
 10 12  1  0  0  0  0
 13 10  1  0  0  0  0
 14 21  1  1  0  0  0
 14 15  1  0  0  0  0
 15  6  1  1  0  0  0
 16 15  1  0  0  0  0
 16 17  1  0  0  0  0
 18 16  1  0  0  0  0
 19 14  1  0  0  0  0
 19 18  1  0  0  0  0
 20 19  1  0  0  0  0
 21 22  1  0  0  0  0
 23  1  1  0  0  0  0
 23 24  1  0  0  0  0
 24 25  2  0  0  0  0
 25 26  1  0  0  0  0
 26 28  1  0  0  0  0
 26 29  1  0  0  0  0
 27 26  1  0  0  0  0
 29 31  1  0  0  0  0
 31 30  2  6  0  0  0
 31 34  1  0  0  0  0
 32 31  1  0  0  0  0
 33 32  1  0  0  0  0
 34 35  1  0  0  0  0
 35 36  1  0  0  0  0
 35 37  1  0  0  0  0
 36 37  1  0  0  0  0
 36 39  1  0  0  0  0
 37 41  1  0  0  0  0
 37 42  1  0  0  0  0
 38 35  1  0  0  0  0
 40 36  1  0  0  0  0
M  END
>  <minimizedAffinity>
-5.20649529

>  <minimizedRMSD>
1.10004115

$$$$
