
 OpenBabel03252509043D

 48 50  0  0  1  0  0  0  0  0999 V2000
   46.5260   34.3670   43.7290 N   0  0  0  0  0  0  0  0  0  0  0  0
   46.1780   35.0610   42.5480 C   0  0  0  0  0  0  0  0  0  0  0  0
   44.6800   35.1960   42.3260 C   0  0  0  0  0  0  0  0  0  0  0  0
   43.8900   35.3720   43.6010 C   0  0  0  0  0  0  0  0  0  0  0  0
   44.7970   35.4520   44.8150 C   0  0  0  0  0  0  0  0  0  0  0  0
   45.6250   34.1050   44.7310 C   0  0  2  0  0  0  0  0  0  0  0  0
   46.5870   34.6610   41.6160 H   0  0  0  0  0  0  0  0  0  0  0  0
   46.5750   36.0950   42.6320 H   0  0  0  0  0  0  0  0  0  0  0  0
   44.5290   36.0270   41.6070 H   0  0  0  0  0  0  0  0  0  0  0  0
   44.3520   34.2650   41.8030 H   0  0  0  0  0  0  0  0  0  0  0  0
   43.1930   34.5320   43.7510 H   0  0  0  0  0  0  0  0  0  0  0  0
   43.2850   36.2980   43.5830 H   0  0  0  0  0  0  0  0  0  0  0  0
   45.4940   36.2870   44.7850 H   0  0  0  0  0  0  0  0  0  0  0  0
   44.1530   35.3850   45.7060 H   0  0  0  0  0  0  0  0  0  0  0  0
   44.8920   33.2910   44.5690 H   0  0  0  0  0  0  0  0  0  0  0  0
   47.6750   33.5070   43.5930 C   0  0  0  0  0  0  0  0  0  0  0  0
   47.7100   32.8800   44.5320 H   0  0  0  0  0  0  0  0  0  0  0  0
   48.6030   34.0790   43.4970 H   0  0  0  0  0  0  0  0  0  0  0  0
   47.4220   32.5740   42.4660 C   0  0  0  0  0  0  0  0  0  0  0  0
   46.9180   31.6240   42.7450 H   0  0  0  0  0  0  0  0  0  0  0  0
   46.7470   33.0260   41.6890 H   0  0  0  0  0  0  0  0  0  0  0  0
   51.0890   32.4380   41.6760 C   0  0  0  0  0  0  0  0  0  0  0  0
   49.8670   32.6940   42.3320 C   0  0  0  0  0  0  0  0  0  0  0  0
   48.6910   32.2920   41.7550 C   0  0  0  0  0  0  0  0  0  0  0  0
   48.7720   31.6680   40.5850 N   0  0  0  0  0  0  0  0  0  0  0  0
   49.9200   31.4170   39.9510 C   0  0  0  0  0  0  0  0  0  0  0  0
   51.1000   31.8000   40.4890 N   0  0  0  0  0  0  0  0  0  0  0  0
   51.9680   32.7970   42.2150 H   0  0  0  0  0  0  0  0  0  0  0  0
   49.8380   33.2050   43.2850 H   0  0  0  0  0  0  0  0  0  0  0  0
   49.9770   30.9060   38.9910 H   0  0  0  0  0  0  0  0  0  0  0  0
   46.1920   34.0770   45.9930 O   0  0  0  0  0  0  0  0  0  0  0  0
   45.6730   31.4750   45.7370 O   0  0  0  0  0  0  0  0  0  0  0  0
   46.0260   32.5750   46.7360 P   0  0  2  0  0  0  0  0  0  0  0  0
   44.6490   32.7190   47.7510 O   0  0  0  0  0  0  0  0  0  0  0  0
   44.9330   32.9080   48.6800 H   0  0  0  0  0  0  0  0  0  0  0  0
   47.3310   32.1710   47.6980 O   0  0  0  0  0  0  0  0  0  0  0  0
   47.2000   30.8530   48.0850 C   0  0  0  0  0  0  0  0  0  0  0  0
   46.2900   30.4270   47.5780 H   0  0  0  0  0  0  0  0  0  0  0  0
   47.1250   30.6680   49.1530 H   0  0  0  0  0  0  0  0  0  0  0  0
   49.2740   28.0060   48.1000 C   0  0  2  0  0  3  0  0  0  0  0  0
   49.2270   29.4490   48.5130 C   0  0  0  0  0  3  0  0  0  0  0  0
   48.8750   29.6190   49.5510 H   0  0  0  0  0  0  0  0  0  0  0  0
   48.3680   30.0800   47.4540 C   0  0  1  0  0  3  0  0  0  0  0  0
   47.9220   29.0940   46.6170 O   0  0  0  0  0  0  0  0  0  0  0  0
   48.0020   27.8830   47.2860 C   0  0  0  0  0  3  0  0  0  0  0  0
   48.0600   27.0440   46.5520 H   0  0  0  0  0  0  0  0  0  0  0  0
   49.2250   27.2130   49.2440 O   0  0  0  0  0  0  0  0  0  0  0  0
   48.6610   27.7000   49.9230 H   0  0  0  0  0  0  0  0  0  0  0  0
  1  6  1  0  0  0  0
  2  8  1  0  0  0  0
  2  1  1  0  0  0  0
  3  2  1  0  0  0  0
  3  4  1  0  0  0  0
  4 11  1  0  0  0  0
  4  5  1  0  0  0  0
  5 14  1  0  0  0  0
  6 15  1  6  0  0  0
  6  5  1  0  0  0  0
  6 31  1  0  0  0  0
  7  2  1  0  0  0  0
  9  3  1  0  0  0  0
 10  3  1  0  0  0  0
 12  4  1  0  0  0  0
 13  5  1  0  0  0  0
 16  1  1  0  0  0  0
 16 17  1  0  0  0  0
 18 16  1  0  0  0  0
 19 20  1  0  0  0  0
 19 16  1  0  0  0  0
 21 19  1  0  0  0  0
 22 28  1  0  0  0  0
 22 23  1  0  0  0  0
 23 29  1  0  0  0  0
 24 23  2  0  0  0  0
 24 19  1  0  0  0  0
 25 24  1  0  0  0  0
 26 27  1  0  0  0  0
 26 25  2  0  0  0  0
 27 22  2  0  0  0  0
 30 26  1  0  0  0  0
 31 33  1  0  0  0  0
 33 32  2  6  0  0  0
 33 36  1  0  0  0  0
 33 34  1  0  0  0  0
 34 35  1  0  0  0  0
 36 37  1  0  0  0  0
 37 39  1  0  0  0  0
 38 37  1  0  0  0  0
 40 41  1  0  0  0  0
 40 47  1  1  0  0  0
 41 42  1  0  0  0  0
 43 37  1  1  0  0  0
 43 41  1  0  0  0  0
 44 45  1  0  0  0  0
 44 43  1  0  0  0  0
 45 40  1  0  0  0  0
 46 45  1  0  0  0  0
 47 48  1  0  0  0  0
M  END
>  <minimizedAffinity>
-4.79019403

>  <minimizedRMSD>
2.54791236

$$$$
