
     RDKit          3D

 31 33  0  0  0  0  0  0  0  0999 V2000
   46.0788   34.7597   43.3853 C   0  0  0  0  0  0  0  0  0  0  0  0
   45.1841   35.7670   43.7763 C   0  0  0  0  0  0  0  0  0  0  0  0
   44.5682   35.6521   45.0477 C   0  0  0  0  0  0  0  0  0  0  0  0
   44.8843   34.5702   45.8099 N   0  0  0  0  0  0  0  0  0  0  0  0
   45.7627   33.6307   45.3636 C   0  0  0  0  0  0  0  0  0  0  0  0
   46.3596   33.7019   44.1813 N   0  0  0  0  0  0  0  0  0  0  0  0
   46.6509   34.9638   42.0949 C   0  0  0  0  0  0  0  0  0  0  0  0
   47.8185   35.4021   41.8664 O   0  0  0  0  0  0  0  0  0  0  0  0
   46.0771   32.4646   46.2482 C   0  0  1  0  0  0  0  0  0  0  0  0
   46.9830   32.6293   47.4255 C   0  0  0  0  0  0  0  0  0  0  0  0
   45.5158   32.5865   47.6330 C   0  0  2  0  0  0  0  0  0  0  0  0
   44.9426   36.6207   43.1603 H   0  0  0  0  0  0  0  0  0  0  0  0
   43.8708   36.3943   45.4054 H   0  0  0  0  0  0  0  0  0  0  0  0
   46.0412   34.7260   41.2256 H   0  0  0  0  0  0  0  0  0  0  0  0
   46.1236   31.5385   45.6732 H   0  0  0  0  0  0  0  0  0  0  0  0
   47.5265   33.5963   47.5385 H   0  0  0  0  0  0  0  0  0  0  0  0
   47.6551   31.7710   47.6111 H   0  0  0  0  0  0  0  0  0  0  0  0
   45.0674   33.5776   47.9396 H   0  0  0  0  0  0  0  0  0  0  0  0
   45.0325   29.6286   49.7985 O   0  0  0  0  0  0  0  0  0  0  0  0
   45.6339   30.3011   48.7097 C   0  0  2  0  0  0  0  0  0  0  0  0
   44.7925   31.4337   48.2379 C   0  0  2  0  0  0  0  0  0  0  0  0
   43.8957   30.7526   47.2246 C   0  0  1  0  0  0  0  0  0  0  0  0
   43.0434   30.2546   47.6895 H   0  0  0  0  0  0  0  0  0  0  0  0
   44.7720   29.8783   46.5837 O   0  0  0  0  0  0  0  0  0  0  0  0
   45.6482   29.3740   47.5186 C   0  0  2  0  0  0  0  0  0  0  0  0
   45.2582   28.3664   47.8116 H   0  0  0  0  0  0  0  0  0  0  0  0
   44.0610   29.6771   49.7894 H   0  0  0  0  0  0  0  0  0  0  0  0
   46.6402   30.5699   49.0795 H   0  0  0  0  0  0  0  0  0  0  0  0
   44.1209   31.7351   49.0696 H   0  0  0  0  0  0  0  0  0  0  0  0
   43.5925   31.5333   46.4932 H   0  0  0  0  0  0  0  0  0  0  0  0
   46.6771   29.3006   47.1500 H   0  0  0  0  0  0  0  0  0  0  0  0
  1  2  2  0
  1  6  1  0
  2  3  1  0
  3  4  2  0
  5  4  1  0
  5  9  1  0
  6  5  2  0
  7  1  1  0
  8  7  2  0
  9 10  1  0
  9 11  1  0
 10 11  1  0
  2 12  1  0
  3 13  1  0
  7 14  1  0
  9 15  1  6
 10 16  1  0
 10 17  1  0
 11 18  1  6
 19 20  1  0
 20 21  1  0
 21 22  1  0
 22 23  1  1
 22 24  1  0
 24 25  1  0
 25 26  1  1
 25 20  1  0
 19 27  1  0
 20 28  1  1
 21 29  1  1
 22 30  1  0
 25 31  1  0
 11 21  1  0
M  ISO  8  12  14  13  14  14   6  15  13  16  13  17  13  18  13  23  15
M  ISO  1  26  16
M  END
>  <DihAtoms>  (1) 
8,10,20,19

>  <DihDeg>  (1) 
60.145129294615764

$$$$
