
     RDKit          3D

 40 43  0  0  0  0  0  0  0  0999 V2000
   39.9690   34.8792   40.2404 C   0  0  0  0  0  0  0  0  0  0  0  0
   40.9793   34.4004   41.0565 C   0  0  0  0  0  0  0  0  0  0  0  0
   40.9096   33.1372   41.5792 C   0  0  0  0  0  0  0  0  0  0  0  0
   39.8451   32.2928   41.3218 C   0  0  0  0  0  0  0  0  0  0  0  0
   38.8315   32.7851   40.4977 C   0  0  0  0  0  0  0  0  0  0  0  0
   38.8684   34.0553   39.9524 C   0  0  0  0  0  0  0  0  0  0  0  0
   37.8657   31.7556   40.3818 O   0  0  0  0  0  0  0  0  0  0  0  0
   38.1650   30.8094   41.3566 C   0  0  0  0  0  0  0  0  0  0  0  0
   39.5168   30.9903   41.7078 O   0  0  0  0  0  0  0  0  0  0  0  0
   42.3318   35.5297   41.3584 S   0  0  0  0  0  0  0  0  0  0  0  0
   43.9069   34.7531   40.9416 C   0  0  0  0  0  0  0  0  0  0  0  0
   43.8667   33.7900   39.9431 C   0  0  0  0  0  0  0  0  0  0  0  0
   45.0795   33.1778   39.6075 C   0  0  0  0  0  0  0  0  0  0  0  0
   46.2088   33.5372   40.2493 N   0  0  0  0  0  0  0  0  0  0  0  0
   46.2044   34.4806   41.2167 C   0  0  0  0  0  0  0  0  0  0  0  0
   45.0573   35.0594   41.5338 N   0  0  0  0  0  0  0  0  0  0  0  0
   47.3138   34.8936   41.9086 O   0  0  0  0  0  0  0  0  0  0  0  0
   48.5296   35.0502   41.2149 C   0  0  0  0  0  0  0  0  0  0  0  0
   49.3584   33.9773   41.3735 F   0  0  0  0  0  0  0  0  0  0  0  0
   48.1808   35.2994   39.8901 F   0  0  0  0  0  0  0  0  0  0  0  0
   49.1727   36.1635   41.7592 F   0  0  0  0  0  0  0  0  0  0  0  0
   39.9213   35.8621   39.7730 H   0  0  0  0  0  0  0  0  0  0  0  0
   41.7275   32.7895   42.2220 H   0  0  0  0  0  0  0  0  0  0  0  0
   38.0699   34.4016   39.3217 H   0  0  0  0  0  0  0  0  0  0  0  0
   37.4792   30.8102   42.2212 H   0  0  0  0  0  0  0  0  0  0  0  0
   38.0754   29.8005   40.8974 H   0  0  0  0  0  0  0  0  0  0  0  0
   42.9396   33.5125   39.4343 H   0  0  0  0  0  0  0  0  0  0  0  0
   46.4262   33.7030   37.4231 O   0  0  0  0  0  0  0  0  0  0  0  0
   45.4576   32.7037   37.2092 C   0  0  2  0  0  0  0  0  0  0  0  0
   45.1003   32.1453   38.5526 C   0  0  1  0  0  0  0  0  0  0  0  0
   46.2132   31.1463   38.7638 C   0  0  1  0  0  0  0  0  0  0  0  0
   47.0561   31.6566   39.2721 H   0  0  0  0  0  0  0  0  0  0  0  0
   46.6137   30.6923   37.5402 O   0  0  0  0  0  0  0  0  0  0  0  0
   46.1150   31.5158   36.5495 C   0  0  1  0  0  0  0  0  0  0  0  0
   45.3502   30.9839   35.9514 H   0  0  0  0  0  0  0  0  0  0  0  0
   47.3171   33.2824   37.6105 H   0  0  0  0  0  0  0  0  0  0  0  0
   44.6248   33.0662   36.6052 H   0  0  0  0  0  0  0  0  0  0  0  0
   44.0991   31.6388   38.5708 H   0  0  0  0  0  0  0  0  0  0  0  0
   45.8629   30.3145   39.4414 H   0  0  0  0  0  0  0  0  0  0  0  0
   46.9387   31.8429   35.8538 H   0  0  0  0  0  0  0  0  0  0  0  0
  1  2  2  0
  2 10  1  0
  2  3  1  0
  4  3  2  0
  4  9  1  0
  5  4  1  0
  6  1  1  0
  6  5  2  0
  7  5  1  0
  7  8  1  0
  8  9  1  0
 11 10  1  0
 11 16  1  0
 12 11  2  0
 13 12  1  0
 13 14  2  0
 14 15  1  0
 15 16  2  0
 15 17  1  0
 18 19  1  0
 18 21  1  0
 18 17  1  0
 20 18  1  0
  1 22  1  0
  3 23  1  0
  6 24  1  0
  8 25  1  0
  8 26  1  0
 12 27  1  0
 28 29  1  0
 29 30  1  0
 30 31  1  0
 31 32  1  1
 31 33  1  0
 33 34  1  0
 34 35  1  6
 34 29  1  0
 28 36  1  0
 29 37  1  6
 30 38  1  6
 31 39  1  0
 34 40  1  0
 13 30  1  0
M  ISO  8  22  14  23  14  24  14  25  13  26  13  27  14  32  15  35  16
M  END
>  <DihAtoms>  (1) 
11,12,29,28

>  <DihDeg>  (1) 
125.05681596458713

$$$$
