
     RDKit          3D

 25 26  0  0  0  0  0  0  0  0999 V2000
   44.3840   35.7775   44.4392 C   0  0  0  0  0  0  0  0  0  0  0  0
   44.6640   35.0692   43.2640 C   0  0  0  0  0  0  0  0  0  0  0  0
   45.2884   33.8344   43.3917 C   0  0  0  0  0  0  0  0  0  0  0  0
   45.5894   33.3869   44.6302 N   0  0  0  0  0  0  0  0  0  0  0  0
   45.3095   34.0882   45.7512 C   0  0  0  0  0  0  0  0  0  0  0  0
   44.7001   35.2970   45.6577 N   0  0  0  0  0  0  0  0  0  0  0  0
   44.2637   35.7128   42.0032 C   0  0  0  0  0  0  0  0  0  0  0  0
   43.8982   36.7518   44.4501 H   0  0  0  0  0  0  0  0  0  0  0  0
   45.4955   33.3050   42.4781 H   0  0  0  0  0  0  0  0  0  0  0  0
   44.1490   34.9165   41.2338 H   0  0  0  0  0  0  0  0  0  0  0  0
   45.0570   36.4446   41.7008 H   0  0  0  0  0  0  0  0  0  0  0  0
   43.2870   36.2006   42.0978 H   0  0  0  0  0  0  0  0  0  0  0  0
   45.2635   31.6235   48.4031 O   0  0  0  0  0  0  0  0  0  0  0  0
   44.6388   32.6161   47.6575 C   0  0  2  0  0  0  0  0  0  0  0  0
   45.6669   33.5402   47.0913 C   0  0  2  0  0  0  0  0  0  0  0  0
   45.5657   34.7258   48.0532 C   0  0  2  0  0  0  0  0  0  0  0  0
   45.9576   35.6101   47.4992 H   0  0  0  0  0  0  0  0  0  0  0  0
   44.2118   34.8199   48.3206 O   0  0  0  0  0  0  0  0  0  0  0  0
   43.8108   33.5062   48.5610 C   0  0  1  0  0  0  0  0  0  0  0  0
   42.7167   33.4122   48.3293 H   0  0  0  0  0  0  0  0  0  0  0  0
   44.9438   30.7084   48.1335 H   0  0  0  0  0  0  0  0  0  0  0  0
   44.0402   32.2009   46.8181 H   0  0  0  0  0  0  0  0  0  0  0  0
   46.6919   33.1281   47.0753 H   0  0  0  0  0  0  0  0  0  0  0  0
   46.1673   34.4802   48.9503 H   0  0  0  0  0  0  0  0  0  0  0  0
   43.9606   33.2398   49.6352 H   0  0  0  0  0  0  0  0  0  0  0  0
  1  6  2  0
  2  3  2  0
  2  1  1  0
  3  4  1  0
  4  5  2  0
  6  5  1  0
  7  2  1  0
  1  8  1  0
  3  9  1  0
  7 10  1  0
  7 11  1  0
  7 12  1  0
 13 14  1  0
 14 15  1  0
 15 16  1  0
 16 17  1  6
 16 18  1  0
 18 19  1  0
 19 20  1  6
 19 14  1  0
 13 21  1  0
 14 22  1  6
 15 23  1  6
 16 24  1  0
 19 25  1  0
  5 15  1  0
M  ISO  7   8  14   9  14  10   8  11   8  12   8  17  15  20  16
M  END
>  <DihAtoms>  (1) 
3,4,14,13

>  <DihDeg>  (1) 
49.908770587824776

$$$$
