
 OpenBabel03242512073D

 27 29  0  0  1  0  0  0  0  0999 V2000
   37.3150   28.8520   41.3430 C   0  0  1  0  0  0  0  0  0  0  0  0
   35.8020   28.6760   40.9930 C   0  0  0  0  0  0  0  0  0  0  0  0
   36.4270   29.9890   41.3070 C   0  0  2  0  0  0  0  0  0  0  0  0
   37.8350   28.3080   40.5160 H   0  0  0  0  0  0  0  0  0  0  0  0
   35.1930   28.1180   41.7070 H   0  0  0  0  0  0  0  0  0  0  0  0
   35.5100   28.5640   39.9480 H   0  0  0  0  0  0  0  0  0  0  0  0
   36.1230   30.3820   42.3010 H   0  0  0  0  0  0  0  0  0  0  0  0
   37.5820   32.0970   40.5460 C   0  0  1  0  0  3  0  0  0  0  0  0
   36.5230   31.1000   40.2970 C   0  0  1  0  0  3  0  0  0  0  0  0
   36.8010   30.6200   38.9180 C   0  0  0  0  0  3  0  0  0  0  0  0
   36.1230   31.0330   38.1440 H   0  0  0  0  0  0  0  0  0  0  0  0
   38.1090   30.8940   38.6010 O   0  0  0  0  0  0  0  0  0  0  0  0
   38.6520   31.7280   39.5590 C   0  0  0  0  0  3  0  0  0  0  0  0
   38.9910   32.6390   39.0120 H   0  0  0  0  0  0  0  0  0  0  0  0
   37.0710   33.3660   40.1850 O   0  0  0  0  0  0  0  0  0  0  0  0
   37.0480   33.4580   39.1970 H   0  0  0  0  0  0  0  0  0  0  0  0
   37.6780   28.2180   42.6480 C   0  0  0  0  0  0  0  0  0  0  0  0
   37.3870   28.8520   43.6700 O   0  0  0  0  0  0  0  0  0  0  0  0
   37.8530   25.8410   42.1230 C   0  0  0  0  0  0  0  0  0  0  0  0
   38.3170   26.9500   42.7680 C   0  0  0  0  0  0  0  0  0  0  0  0
   39.4720   26.8270   43.5620 C   0  0  0  0  0  0  0  0  0  0  0  0
   40.0860   25.6210   43.6650 N   0  0  0  0  0  0  0  0  0  0  0  0
   39.5970   24.5320   43.0070 C   0  0  0  0  0  0  0  0  0  0  0  0
   38.5080   24.6600   42.2610 N   0  0  0  0  0  0  0  0  0  0  0  0
   36.9740   25.8460   41.4950 H   0  0  0  0  0  0  0  0  0  0  0  0
   39.8160   27.7250   44.0610 H   0  0  0  0  0  0  0  0  0  0  0  0
   40.1360   23.5950   43.1310 H   0  0  0  0  0  0  0  0  0  0  0  0
  1  4  1  6  0  0  0
  1 17  1  0  0  0  0
  2  3  1  0  0  0  0
  2  1  1  0  0  0  0
  2  5  1  0  0  0  0
  3  1  1  0  0  0  0
  3  7  1  1  0  0  0
  6  2  1  0  0  0  0
  8 15  1  6  0  0  0
  9 10  1  6  0  0  0
  9  8  1  0  0  0  0
  9  3  1  0  0  0  0
 11 10  1  0  0  0  0
 12 10  1  0  0  0  0
 12 13  1  0  0  0  0
 13  8  1  0  0  0  0
 14 13  1  0  0  0  0
 16 15  1  0  0  0  0
 17 20  1  0  0  0  0
 17 18  2  0  0  0  0
 19 24  2  0  0  0  0
 19 20  1  0  0  0  0
 20 21  2  0  0  0  0
 21 22  1  0  0  0  0
 21 26  1  0  0  0  0
 23 27  1  0  0  0  0
 23 22  2  0  0  0  0
 24 23  1  0  0  0  0
 25 19  1  0  0  0  0
M  END
>  <minimizedAffinity>
-5.23639297

$$$$

 OpenBabel03242512073D

 27 29  0  0  1  0  0  0  0  0999 V2000
   36.9910   29.4710   40.5770 C   0  0  1  0  0  0  0  0  0  0  0  0
   35.4970   29.8790   40.3640 C   0  0  0  0  0  0  0  0  0  0  0  0
   36.5330   30.7990   40.9040 C   0  0  2  0  0  0  0  0  0  0  0  0
   37.2780   29.0200   39.5950 H   0  0  0  0  0  0  0  0  0  0  0  0
   34.7560   29.3780   40.9910 H   0  0  0  0  0  0  0  0  0  0  0  0
   35.1570   30.1350   39.3600 H   0  0  0  0  0  0  0  0  0  0  0  0
   36.4040   31.0020   41.9890 H   0  0  0  0  0  0  0  0  0  0  0  0
   38.2320   32.6440   40.6390 C   0  0  1  0  0  3  0  0  0  0  0  0
   36.9670   32.0420   40.1750 C   0  0  1  0  0  3  0  0  0  0  0  0
   37.1860   31.8260   38.7210 C   0  0  0  0  0  3  0  0  0  0  0  0
   36.6820   32.5650   38.0660 H   0  0  0  0  0  0  0  0  0  0  0  0
   38.5360   31.8090   38.4670 O   0  0  0  0  0  0  0  0  0  0  0  0
   39.2230   32.2350   39.5870 C   0  0  0  0  0  3  0  0  0  0  0  0
   39.8150   33.1230   39.2620 H   0  0  0  0  0  0  0  0  0  0  0  0
   38.0870   34.0500   40.5820 O   0  0  0  0  0  0  0  0  0  0  0  0
   38.1420   34.3620   39.6410 H   0  0  0  0  0  0  0  0  0  0  0  0
   37.1560   28.4440   41.6520 C   0  0  0  0  0  0  0  0  0  0  0  0
   37.4060   28.8670   42.7870 O   0  0  0  0  0  0  0  0  0  0  0  0
   37.0970   26.1430   42.4640 C   0  0  0  0  0  0  0  0  0  0  0  0
   37.0340   27.0400   41.4380 C   0  0  0  0  0  0  0  0  0  0  0  0
   36.8290   26.5520   40.1350 C   0  0  0  0  0  0  0  0  0  0  0  0
   36.7010   25.2160   39.9350 N   0  0  0  0  0  0  0  0  0  0  0  0
   36.7680   24.3460   40.9830 C   0  0  0  0  0  0  0  0  0  0  0  0
   36.9620   24.8170   42.2070 N   0  0  0  0  0  0  0  0  0  0  0  0
   37.2520   26.4310   43.4930 H   0  0  0  0  0  0  0  0  0  0  0  0
   36.7840   27.2890   39.3420 H   0  0  0  0  0  0  0  0  0  0  0  0
   36.6580   23.2870   40.7550 H   0  0  0  0  0  0  0  0  0  0  0  0
  1  4  1  6  0  0  0
  1  3  1  0  0  0  0
  1 17  1  0  0  0  0
  2  1  1  0  0  0  0
  2  3  1  0  0  0  0
  2  5  1  0  0  0  0
  3  7  1  1  0  0  0
  6  2  1  0  0  0  0
  8 15  1  6  0  0  0
  9 10  1  6  0  0  0
  9  8  1  0  0  0  0
  9  3  1  0  0  0  0
 11 10  1  0  0  0  0
 12 10  1  0  0  0  0
 12 13  1  0  0  0  0
 13  8  1  0  0  0  0
 14 13  1  0  0  0  0
 16 15  1  0  0  0  0
 17 18  2  0  0  0  0
 19 25  1  0  0  0  0
 20 17  1  0  0  0  0
 20 19  2  0  0  0  0
 21 20  1  0  0  0  0
 22 21  2  0  0  0  0
 22 23  1  0  0  0  0
 23 24  2  0  0  0  0
 24 19  1  0  0  0  0
 26 21  1  0  0  0  0
 27 23  1  0  0  0  0
M  END
>  <minimizedAffinity>
-4.85339785

$$$$

 OpenBabel03242512073D

 27 29  0  0  1  0  0  0  0  0999 V2000
   37.7260   28.3590   41.6850 C   0  0  1  0  0  0  0  0  0  0  0  0
   37.1430   27.7980   43.0230 C   0  0  0  0  0  0  0  0  0  0  0  0
   37.0680   27.0760   41.7250 C   0  0  2  0  0  0  0  0  0  0  0  0
   38.7690   28.6520   41.9630 H   0  0  0  0  0  0  0  0  0  0  0  0
   36.2980   28.3380   43.4560 H   0  0  0  0  0  0  0  0  0  0  0  0
   37.8200   27.3420   43.7450 H   0  0  0  0  0  0  0  0  0  0  0  0
   36.0400   27.0580   41.3020 H   0  0  0  0  0  0  0  0  0  0  0  0
   37.0840   24.5730   42.0290 C   0  0  1  0  0  3  0  0  0  0  0  0
   37.7670   25.7640   41.4890 C   0  0  1  0  0  3  0  0  0  0  0  0
   37.9550   25.4470   40.0490 C   0  0  0  0  0  3  0  0  0  0  0  0
   38.9870   25.1490   39.7760 H   0  0  0  0  0  0  0  0  0  0  0  0
   37.0640   24.4660   39.6850 O   0  0  0  0  0  0  0  0  0  0  0  0
   36.4700   23.9380   40.8150 C   0  0  0  0  0  3  0  0  0  0  0  0
   36.7040   22.8470   40.8000 H   0  0  0  0  0  0  0  0  0  0  0  0
   38.0770   23.6960   42.5280 O   0  0  0  0  0  0  0  0  0  0  0  0
   38.5400   23.2410   41.7770 H   0  0  0  0  0  0  0  0  0  0  0  0
   36.9920   29.5700   41.2040 C   0  0  0  0  0  0  0  0  0  0  0  0
   35.7810   29.4320   40.9900 O   0  0  0  0  0  0  0  0  0  0  0  0
   38.8440   31.1360   41.4720 C   0  0  0  0  0  0  0  0  0  0  0  0
   37.6010   30.8400   40.9930 C   0  0  0  0  0  0  0  0  0  0  0  0
   36.9160   31.8260   40.2590 C   0  0  0  0  0  0  0  0  0  0  0  0
   37.5040   33.0310   40.0500 N   0  0  0  0  0  0  0  0  0  0  0  0
   38.7480   33.2940   40.5420 C   0  0  0  0  0  0  0  0  0  0  0  0
   39.3840   32.3580   41.2320 N   0  0  0  0  0  0  0  0  0  0  0  0
   39.4380   30.4390   42.0450 H   0  0  0  0  0  0  0  0  0  0  0  0
   35.9320   31.5610   39.8930 H   0  0  0  0  0  0  0  0  0  0  0  0
   39.1620   34.2800   40.3380 H   0  0  0  0  0  0  0  0  0  0  0  0
  1  3  1  0  0  0  0
  1  4  1  6  0  0  0
  1  2  1  0  0  0  0
  2  5  1  0  0  0  0
  2  6  1  0  0  0  0
  3  7  1  6  0  0  0
  3  2  1  0  0  0  0
  8 15  1  6  0  0  0
  9 10  1  6  0  0  0
  9  3  1  0  0  0  0
  9  8  1  0  0  0  0
 11 10  1  0  0  0  0
 12 10  1  0  0  0  0
 12 13  1  0  0  0  0
 13  8  1  0  0  0  0
 14 13  1  0  0  0  0
 16 15  1  0  0  0  0
 17  1  1  0  0  0  0
 18 17  2  0  0  0  0
 19 25  1  0  0  0  0
 20 17  1  0  0  0  0
 20 19  2  0  0  0  0
 21 20  1  0  0  0  0
 22 21  2  0  0  0  0
 22 23  1  0  0  0  0
 23 24  2  0  0  0  0
 24 19  1  0  0  0  0
 26 21  1  0  0  0  0
 27 23  1  0  0  0  0
M  END
>  <minimizedAffinity>
-4.69199657

$$$$

 OpenBabel03242512073D

 27 29  0  0  1  0  0  0  0  0999 V2000
   36.2880   28.6790   39.4380 C   0  0  1  0  0  0  0  0  0  0  0  0
   34.9520   29.2510   40.0140 C   0  0  0  0  0  0  0  0  0  0  0  0
   36.2660   29.9370   40.1440 C   0  0  2  0  0  0  0  0  0  0  0  0
   36.0270   28.4330   38.3780 H   0  0  0  0  0  0  0  0  0  0  0  0
   34.4870   28.6910   40.8280 H   0  0  0  0  0  0  0  0  0  0  0  0
   34.2570   29.7520   39.3390 H   0  0  0  0  0  0  0  0  0  0  0  0
   36.6660   29.9040   41.1800 H   0  0  0  0  0  0  0  0  0  0  0  0
   37.4360   32.1670   40.2630 C   0  0  1  0  0  3  0  0  0  0  0  0
   36.5490   31.2670   39.5010 C   0  0  1  0  0  3  0  0  0  0  0  0
   37.2110   31.1510   38.1750 C   0  0  0  0  0  3  0  0  0  0  0  0
   36.7360   31.7490   37.3710 H   0  0  0  0  0  0  0  0  0  0  0  0
   38.5360   31.4940   38.3030 O   0  0  0  0  0  0  0  0  0  0  0  0
   38.7500   32.0580   39.5460 C   0  0  0  0  0  3  0  0  0  0  0  0
   39.1600   33.0770   39.3510 H   0  0  0  0  0  0  0  0  0  0  0  0
   36.9540   33.4870   40.0990 O   0  0  0  0  0  0  0  0  0  0  0  0
   37.1860   33.8260   39.1950 H   0  0  0  0  0  0  0  0  0  0  0  0
   36.7220   27.4290   40.1350 C   0  0  0  0  0  0  0  0  0  0  0  0
   36.2870   26.3630   39.6820 O   0  0  0  0  0  0  0  0  0  0  0  0
   38.9520   27.4810   41.1280 C   0  0  0  0  0  0  0  0  0  0  0  0
   37.5960   27.4070   41.2610 C   0  0  0  0  0  0  0  0  0  0  0  0
   37.0560   27.3220   42.5570 C   0  0  0  0  0  0  0  0  0  0  0  0
   37.8900   27.3140   43.6280 N   0  0  0  0  0  0  0  0  0  0  0  0
   39.2410   27.3890   43.4600 C   0  0  0  0  0  0  0  0  0  0  0  0
   39.7390   27.4690   42.2340 N   0  0  0  0  0  0  0  0  0  0  0  0
   39.4490   27.5480   40.1700 H   0  0  0  0  0  0  0  0  0  0  0  0
   35.9770   27.2650   42.6300 H   0  0  0  0  0  0  0  0  0  0  0  0
   39.8530   27.3780   44.3600 H   0  0  0  0  0  0  0  0  0  0  0  0
  1  4  1  6  0  0  0
  1  2  1  0  0  0  0
  1 17  1  0  0  0  0
  1  3  1  0  0  0  0
  2  3  1  0  0  0  0
  2  5  1  0  0  0  0
  3  7  1  1  0  0  0
  6  2  1  0  0  0  0
  8 15  1  6  0  0  0
  9 10  1  6  0  0  0
  9  3  1  0  0  0  0
  9  8  1  0  0  0  0
 10 12  1  0  0  0  0
 11 10  1  0  0  0  0
 12 13  1  0  0  0  0
 13  8  1  0  0  0  0
 14 13  1  0  0  0  0
 16 15  1  0  0  0  0
 17 20  1  0  0  0  0
 18 17  2  0  0  0  0
 19 20  2  0  0  0  0
 19 24  1  0  0  0  0
 20 21  1  0  0  0  0
 21 26  1  0  0  0  0
 21 22  2  0  0  0  0
 23 22  1  0  0  0  0
 23 27  1  0  0  0  0
 24 23  2  0  0  0  0
 25 19  1  0  0  0  0
M  END
>  <minimizedAffinity>
-4.67543459

$$$$

 OpenBabel03242512073D

 27 29  0  0  1  0  0  0  0  0999 V2000
   37.3190   29.1770   38.6860 C   0  0  1  0  0  0  0  0  0  0  0  0
   35.9960   29.5170   37.9240 C   0  0  0  0  0  0  0  0  0  0  0  0
   36.5510   30.3520   39.0230 C   0  0  2  0  0  0  0  0  0  0  0  0
   38.0520   28.9970   37.8620 H   0  0  0  0  0  0  0  0  0  0  0  0
   35.1590   28.8300   38.0600 H   0  0  0  0  0  0  0  0  0  0  0  0
   36.0580   29.9830   36.9400 H   0  0  0  0  0  0  0  0  0  0  0  0
   35.9590   30.2770   39.9600 H   0  0  0  0  0  0  0  0  0  0  0  0
   37.4380   32.4930   40.0180 C   0  0  1  0  0  3  0  0  0  0  0  0
   37.0310   31.7610   38.8030 C   0  0  1  0  0  3  0  0  0  0  0  0
   38.2220   31.8460   37.9180 C   0  0  0  0  0  3  0  0  0  0  0  0
   38.1310   32.5840   37.0960 H   0  0  0  0  0  0  0  0  0  0  0  0
   39.3310   32.1210   38.6820 O   0  0  0  0  0  0  0  0  0  0  0  0
   38.9380   32.4620   39.9620 C   0  0  0  0  0  3  0  0  0  0  0  0
   39.3430   33.4860   40.1410 H   0  0  0  0  0  0  0  0  0  0  0  0
   37.0210   33.8370   39.8720 O   0  0  0  0  0  0  0  0  0  0  0  0
   37.6170   34.3140   39.2370 H   0  0  0  0  0  0  0  0  0  0  0  0
   37.1990   27.9360   39.5120 C   0  0  0  0  0  0  0  0  0  0  0  0
   37.0450   26.8750   38.8960 O   0  0  0  0  0  0  0  0  0  0  0  0
   37.6190   29.0160   41.6600 C   0  0  0  0  0  0  0  0  0  0  0  0
   37.2620   27.9170   40.9360 C   0  0  0  0  0  0  0  0  0  0  0  0
   36.9330   26.7370   41.6300 C   0  0  0  0  0  0  0  0  0  0  0  0
   36.9810   26.7250   42.9860 N   0  0  0  0  0  0  0  0  0  0  0  0
   37.3430   27.8420   43.6800 C   0  0  0  0  0  0  0  0  0  0  0  0
   37.6500   28.9480   43.0160 N   0  0  0  0  0  0  0  0  0  0  0  0
   37.8870   29.9610   41.2090 H   0  0  0  0  0  0  0  0  0  0  0  0
   36.6540   25.8820   41.0270 H   0  0  0  0  0  0  0  0  0  0  0  0
   37.3610   27.7660   44.7650 H   0  0  0  0  0  0  0  0  0  0  0  0
  1  4  1  6  0  0  0
  1  3  1  0  0  0  0
  1 17  1  0  0  0  0
  2  5  1  0  0  0  0
  2  1  1  0  0  0  0
  2  3  1  0  0  0  0
  3  7  1  1  0  0  0
  6  2  1  0  0  0  0
  8 15  1  6  0  0  0
  9 10  1  6  0  0  0
  9  3  1  0  0  0  0
  9  8  1  0  0  0  0
 10 12  1  0  0  0  0
 11 10  1  0  0  0  0
 12 13  1  0  0  0  0
 13  8  1  0  0  0  0
 13 14  1  0  0  0  0
 16 15  1  0  0  0  0
 17 20  1  0  0  0  0
 18 17  2  0  0  0  0
 19 24  1  0  0  0  0
 20 21  1  0  0  0  0
 20 19  2  0  0  0  0
 21 22  2  0  0  0  0
 22 23  1  0  0  0  0
 23 27  1  0  0  0  0
 24 23  2  0  0  0  0
 25 19  1  0  0  0  0
 26 21  1  0  0  0  0
M  END
>  <minimizedAffinity>
-4.64587116

$$$$

 OpenBabel03242512073D

 27 29  0  0  1  0  0  0  0  0999 V2000
   37.9240   28.4550   42.2530 C   0  0  1  0  0  0  0  0  0  0  0  0
   37.3280   28.2200   43.6800 C   0  0  0  0  0  0  0  0  0  0  0  0
   37.3660   27.1760   42.6210 C   0  0  2  0  0  0  0  0  0  0  0  0
   38.9280   28.9000   42.4630 H   0  0  0  0  0  0  0  0  0  0  0  0
   36.4260   28.7810   43.9340 H   0  0  0  0  0  0  0  0  0  0  0  0
   38.0070   28.0320   44.5120 H   0  0  0  0  0  0  0  0  0  0  0  0
   36.3620   26.9580   42.1970 H   0  0  0  0  0  0  0  0  0  0  0  0
   38.0900   24.9750   41.6260 C   0  0  1  0  0  3  0  0  0  0  0  0
   38.1750   25.9150   42.7610 C   0  0  1  0  0  3  0  0  0  0  0  0
   39.6320   26.1630   42.9110 C   0  0  0  0  0  3  0  0  0  0  0  0
   40.1040   25.6260   43.7590 H   0  0  0  0  0  0  0  0  0  0  0  0
   40.2670   25.8450   41.7350 O   0  0  0  0  0  0  0  0  0  0  0  0
   39.3880   25.1810   40.9000 C   0  0  0  0  0  3  0  0  0  0  0  0
   39.8610   24.1930   40.6850 H   0  0  0  0  0  0  0  0  0  0  0  0
   38.0850   23.6620   42.1540 O   0  0  0  0  0  0  0  0  0  0  0  0
   38.9980   23.4100   42.4530 H   0  0  0  0  0  0  0  0  0  0  0  0
   37.1180   29.4260   41.4490 C   0  0  0  0  0  0  0  0  0  0  0  0
   35.9840   29.0610   41.1170 O   0  0  0  0  0  0  0  0  0  0  0  0
   36.8140   31.5720   40.3270 C   0  0  0  0  0  0  0  0  0  0  0  0
   37.5800   30.7190   41.0660 C   0  0  0  0  0  0  0  0  0  0  0  0
   38.8580   31.1470   41.4680 C   0  0  0  0  0  0  0  0  0  0  0  0
   39.2910   32.3830   41.1130 N   0  0  0  0  0  0  0  0  0  0  0  0
   38.5000   33.2110   40.3730 C   0  0  0  0  0  0  0  0  0  0  0  0
   37.2970   32.7980   40.0000 N   0  0  0  0  0  0  0  0  0  0  0  0
   35.8220   31.3240   39.9760 H   0  0  0  0  0  0  0  0  0  0  0  0
   39.4420   30.4470   42.0540 H   0  0  0  0  0  0  0  0  0  0  0  0
   38.9060   34.1900   40.1220 H   0  0  0  0  0  0  0  0  0  0  0  0
  1  4  1  6  0  0  0
  1  3  1  0  0  0  0
  1  2  1  0  0  0  0
  2  5  1  0  0  0  0
  2  6  1  0  0  0  0
  3  7  1  6  0  0  0
  3  9  1  0  0  0  0
  3  2  1  0  0  0  0
  8 15  1  1  0  0  0
  8  9  1  0  0  0  0
  9 10  1  6  0  0  0
 10 11  1  0  0  0  0
 12 10  1  0  0  0  0
 13  8  1  0  0  0  0
 13 12  1  0  0  0  0
 14 13  1  0  0  0  0
 15 16  1  0  0  0  0
 17  1  1  0  0  0  0
 18 17  2  0  0  0  0
 19 20  1  0  0  0  0
 20 17  1  0  0  0  0
 20 21  2  0  0  0  0
 21 26  1  0  0  0  0
 22 21  1  0  0  0  0
 23 22  2  0  0  0  0
 24 19  2  0  0  0  0
 24 23  1  0  0  0  0
 25 19  1  0  0  0  0
 27 23  1  0  0  0  0
M  END
>  <minimizedAffinity>
-4.6315217

$$$$

 OpenBabel03242512073D

 27 29  0  0  1  0  0  0  0  0999 V2000
   39.3360   27.9020   42.4800 C   0  0  1  0  0  0  0  0  0  0  0  0
   40.6450   28.3900   43.1830 C   0  0  0  0  0  0  0  0  0  0  0  0
   39.8400   27.2300   43.6530 C   0  0  2  0  0  0  0  0  0  0  0  0
   39.6370   27.8190   41.4060 H   0  0  0  0  0  0  0  0  0  0  0  0
   40.6110   29.3730   43.6590 H   0  0  0  0  0  0  0  0  0  0  0  0
   41.6090   28.1150   42.7550 H   0  0  0  0  0  0  0  0  0  0  0  0
   39.2890   27.4430   44.5950 H   0  0  0  0  0  0  0  0  0  0  0  0
   39.7670   24.9120   42.6640 C   0  0  1  0  0  3  0  0  0  0  0  0
   40.3750   25.8240   43.6520 C   0  0  1  0  0  3  0  0  0  0  0  0
   41.8310   25.7470   43.3620 C   0  0  0  0  0  3  0  0  0  0  0  0
   42.4090   25.1300   44.0780 H   0  0  0  0  0  0  0  0  0  0  0  0
   42.0100   25.2830   42.0810 O   0  0  0  0  0  0  0  0  0  0  0  0
   40.8070   24.8180   41.5840 C   0  0  0  0  0  3  0  0  0  0  0  0
   40.9800   23.7490   41.3190 H   0  0  0  0  0  0  0  0  0  0  0  0
   39.6470   23.6390   43.2690 O   0  0  0  0  0  0  0  0  0  0  0  0
   40.5340   23.1950   43.3140 H   0  0  0  0  0  0  0  0  0  0  0  0
   38.2200   28.8920   42.5990 C   0  0  0  0  0  0  0  0  0  0  0  0
   37.6140   28.9140   43.6770 O   0  0  0  0  0  0  0  0  0  0  0  0
   36.5620   30.2540   41.4360 C   0  0  0  0  0  0  0  0  0  0  0  0
   37.8390   29.7910   41.5610 C   0  0  0  0  0  0  0  0  0  0  0  0
   38.8030   30.2330   40.6370 C   0  0  0  0  0  0  0  0  0  0  0  0
   38.4410   31.0990   39.6570 N   0  0  0  0  0  0  0  0  0  0  0  0
   37.1550   31.5420   39.5600 C   0  0  0  0  0  0  0  0  0  0  0  0
   36.2540   31.1190   40.4360 N   0  0  0  0  0  0  0  0  0  0  0  0
   35.7600   29.9650   42.1010 H   0  0  0  0  0  0  0  0  0  0  0  0
   39.8080   29.8480   40.7620 H   0  0  0  0  0  0  0  0  0  0  0  0
   36.9300   32.2360   38.7510 H   0  0  0  0  0  0  0  0  0  0  0  0
  1  4  1  6  0  0  0
  1 17  1  0  0  0  0
  1  2  1  0  0  0  0
  1  3  1  0  0  0  0
  2  3  1  0  0  0  0
  2  5  1  0  0  0  0
  3  7  1  1  0  0  0
  6  2  1  0  0  0  0
  8 15  1  1  0  0  0
  8  9  1  0  0  0  0
  9 10  1  6  0  0  0
  9  3  1  0  0  0  0
 10 11  1  0  0  0  0
 12 10  1  0  0  0  0
 13 12  1  0  0  0  0
 13  8  1  0  0  0  0
 14 13  1  0  0  0  0
 15 16  1  0  0  0  0
 17 18  2  0  0  0  0
 19 20  1  0  0  0  0
 19 25  1  0  0  0  0
 20 17  1  0  0  0  0
 21 26  1  0  0  0  0
 21 20  2  0  0  0  0
 22 21  1  0  0  0  0
 23 22  2  0  0  0  0
 23 24  1  0  0  0  0
 24 19  2  0  0  0  0
 27 23  1  0  0  0  0
M  END
>  <minimizedAffinity>
-4.47017431

$$$$

 OpenBabel03242512073D

 27 29  0  0  1  0  0  0  0  0999 V2000
   38.2820   27.9290   42.7660 C   0  0  1  0  0  0  0  0  0  0  0  0
   37.0290   27.7260   43.6790 C   0  0  0  0  0  0  0  0  0  0  0  0
   37.1690   27.1230   42.3270 C   0  0  2  0  0  0  0  0  0  0  0  0
   39.1370   27.6840   43.4440 H   0  0  0  0  0  0  0  0  0  0  0  0
   36.4180   28.6090   43.8800 H   0  0  0  0  0  0  0  0  0  0  0  0
   37.0810   27.0030   44.4940 H   0  0  0  0  0  0  0  0  0  0  0  0
   36.5070   27.6020   41.5730 H   0  0  0  0  0  0  0  0  0  0  0  0
   37.0360   25.1850   40.7200 C   0  0  1  0  0  3  0  0  0  0  0  0
   37.2420   25.6360   42.1090 C   0  0  1  0  0  3  0  0  0  0  0  0
   38.5540   25.0490   42.4860 C   0  0  0  0  0  3  0  0  0  0  0  0
   38.4870   24.1590   43.1420 H   0  0  0  0  0  0  0  0  0  0  0  0
   39.2550   24.7460   41.3430 O   0  0  0  0  0  0  0  0  0  0  0  0
   38.4230   24.8580   40.2460 C   0  0  0  0  0  3  0  0  0  0  0  0
   38.4290   23.8560   39.7570 H   0  0  0  0  0  0  0  0  0  0  0  0
   36.2930   23.9810   40.7630 O   0  0  0  0  0  0  0  0  0  0  0  0
   36.8740   23.2290   41.0500 H   0  0  0  0  0  0  0  0  0  0  0  0
   38.4230   29.3420   42.2950 C   0  0  0  0  0  0  0  0  0  0  0  0
   39.0960   30.0970   43.0070 O   0  0  0  0  0  0  0  0  0  0  0  0
   36.7280   30.6280   41.1000 C   0  0  0  0  0  0  0  0  0  0  0  0
   37.8430   29.8430   41.0940 C   0  0  0  0  0  0  0  0  0  0  0  0
   38.4370   29.5370   39.8550 C   0  0  0  0  0  0  0  0  0  0  0  0
   37.8900   30.0250   38.7140 N   0  0  0  0  0  0  0  0  0  0  0  0
   36.7740   30.8080   38.7560 C   0  0  0  0  0  0  0  0  0  0  0  0
   36.2230   31.0900   39.9280 N   0  0  0  0  0  0  0  0  0  0  0  0
   36.2080   30.9110   42.0050 H   0  0  0  0  0  0  0  0  0  0  0  0
   39.3210   28.9120   39.8830 H   0  0  0  0  0  0  0  0  0  0  0  0
   36.3860   31.1680   37.8040 H   0  0  0  0  0  0  0  0  0  0  0  0
  1  4  1  1  0  0  0
  1  2  1  0  0  0  0
  2  5  1  0  0  0  0
  2  6  1  0  0  0  0
  3  7  1  6  0  0  0
  3  1  1  0  0  0  0
  3  2  1  0  0  0  0
  8 15  1  1  0  0  0
  8  9  1  0  0  0  0
  9  3  1  0  0  0  0
  9 10  1  6  0  0  0
 10 11  1  0  0  0  0
 12 10  1  0  0  0  0
 13  8  1  0  0  0  0
 13 12  1  0  0  0  0
 14 13  1  0  0  0  0
 15 16  1  0  0  0  0
 17  1  1  0  0  0  0
 17 18  2  0  0  0  0
 19 25  1  0  0  0  0
 20 19  1  0  0  0  0
 20 17  1  0  0  0  0
 21 26  1  0  0  0  0
 21 20  2  0  0  0  0
 22 23  2  0  0  0  0
 22 21  1  0  0  0  0
 23 24  1  0  0  0  0
 24 19  2  0  0  0  0
 27 23  1  0  0  0  0
M  END
>  <minimizedAffinity>
-4.46314526

$$$$

 OpenBabel03242512073D

 27 29  0  0  1  0  0  0  0  0999 V2000
   36.6480   29.9760   39.1450 C   0  0  1  0  0  0  0  0  0  0  0  0
   36.8560   31.4830   39.5060 C   0  0  0  0  0  0  0  0  0  0  0  0
   37.9740   30.5340   39.2580 C   0  0  2  0  0  0  0  0  0  0  0  0
   35.9120   30.0120   38.3050 H   0  0  0  0  0  0  0  0  0  0  0  0
   36.5490   31.7970   40.5060 H   0  0  0  0  0  0  0  0  0  0  0  0
   36.7330   32.2350   38.7260 H   0  0  0  0  0  0  0  0  0  0  0  0
   38.5230   30.2650   40.1870 H   0  0  0  0  0  0  0  0  0  0  0  0
   39.4850   32.0400   37.9130 C   0  0  1  0  0  3  0  0  0  0  0  0
   38.9230   30.6890   38.1010 C   0  0  1  0  0  3  0  0  0  0  0  0
   40.1200   29.8140   38.2000 C   0  0  0  0  0  3  0  0  0  0  0  0
   40.3380   29.2290   37.2840 H   0  0  0  0  0  0  0  0  0  0  0  0
   41.2080   30.5790   38.5460 O   0  0  0  0  0  0  0  0  0  0  0  0
   40.8830   31.9170   38.4480 C   0  0  0  0  0  3  0  0  0  0  0  0
   41.6050   32.3540   37.7180 H   0  0  0  0  0  0  0  0  0  0  0  0
   39.5660   32.2830   36.5220 O   0  0  0  0  0  0  0  0  0  0  0  0
   40.3270   31.7800   36.1300 H   0  0  0  0  0  0  0  0  0  0  0  0
   36.0600   29.1930   40.2770 C   0  0  0  0  0  0  0  0  0  0  0  0
   34.8270   29.2070   40.3750 O   0  0  0  0  0  0  0  0  0  0  0  0
   37.3080   27.2010   40.9310 C   0  0  0  0  0  0  0  0  0  0  0  0
   36.8300   28.4460   41.2140 C   0  0  0  0  0  0  0  0  0  0  0  0
   37.1270   29.0050   42.4710 C   0  0  0  0  0  0  0  0  0  0  0  0
   37.8710   28.2970   43.3580 N   0  0  0  0  0  0  0  0  0  0  0  0
   38.3330   27.0540   43.0420 C   0  0  0  0  0  0  0  0  0  0  0  0
   38.0490   26.5370   41.8550 N   0  0  0  0  0  0  0  0  0  0  0  0
   37.1280   26.6970   39.9910 H   0  0  0  0  0  0  0  0  0  0  0  0
   36.7330   29.9950   42.6660 H   0  0  0  0  0  0  0  0  0  0  0  0
   38.9250   26.5390   43.7980 H   0  0  0  0  0  0  0  0  0  0  0  0
  1  4  1  6  0  0  0
  1  3  1  0  0  0  0
  1  2  1  0  0  0  0
  1 17  1  0  0  0  0
  2  5  1  0  0  0  0
  3  2  1  0  0  0  0
  3  7  1  1  0  0  0
  6  2  1  0  0  0  0
  8 15  1  6  0  0  0
  8  9  1  0  0  0  0
  8 13  1  0  0  0  0
  9 10  1  1  0  0  0
  9  3  1  0  0  0  0
 10 12  1  0  0  0  0
 11 10  1  0  0  0  0
 13 12  1  0  0  0  0
 14 13  1  0  0  0  0
 16 15  1  0  0  0  0
 17 18  2  0  0  0  0
 17 20  1  0  0  0  0
 19 20  2  0  0  0  0
 19 24  1  0  0  0  0
 20 21  1  0  0  0  0
 21 26  1  0  0  0  0
 21 22  2  0  0  0  0
 23 22  1  0  0  0  0
 23 27  1  0  0  0  0
 24 23  2  0  0  0  0
 25 19  1  0  0  0  0
M  END
>  <minimizedAffinity>
-4.43746185

$$$$
