
     RDKit          3D

 29 30  0  0  0  0  0  0  0  0999 V2000
   44.3035   35.7799   44.1853 C   0  0  0  0  0  0  0  0  0  0  0  0
   44.4674   34.9377   43.0883 C   0  0  0  0  0  0  0  0  0  0  0  0
   45.0817   33.7085   43.3068 C   0  0  0  0  0  0  0  0  0  0  0  0
   45.4915   33.3812   44.5595 N   0  0  0  0  0  0  0  0  0  0  0  0
   45.3107   34.2353   45.6011 C   0  0  0  0  0  0  0  0  0  0  0  0
   44.7203   35.4264   45.4131 N   0  0  0  0  0  0  0  0  0  0  0  0
   44.0241   35.3026   41.7578 C   0  0  0  0  0  0  0  0  0  0  0  0
   43.0194   34.7445   41.1019 C   0  0  0  0  0  0  0  0  0  0  0  0
   42.6395   35.2019   39.7152 C   0  0  0  0  0  0  0  0  0  0  0  0
   43.8233   36.7581   44.0529 H   0  0  0  0  0  0  0  0  0  0  0  0
   45.2522   32.9896   42.5192 H   0  0  0  0  0  0  0  0  0  0  0  0
   44.6045   36.1171   41.2983 H   0  0  0  0  0  0  0  0  0  0  0  0
   42.5014   33.9396   41.6449 H   0  0  0  0  0  0  0  0  0  0  0  0
   43.0542   34.5438   38.9303 H   0  0  0  0  0  0  0  0  0  0  0  0
   43.0795   36.2174   39.6073 H   0  0  0  0  0  0  0  0  0  0  0  0
   41.5541   35.3178   39.6714 H   0  0  0  0  0  0  0  0  0  0  0  0
   43.8662   33.7689   48.5328 O   0  0  0  0  0  0  0  0  0  0  0  0
   44.7874   33.0842   47.7573 C   0  0  1  0  0  0  0  0  0  0  0  0
   45.7221   33.9671   46.9949 C   0  0  1  0  0  0  0  0  0  0  0  0
   46.9478   33.0579   46.9199 C   0  0  2  0  0  0  0  0  0  0  0  0
   47.8097   33.6993   46.6989 H   0  0  0  0  0  0  0  0  0  0  0  0
   47.0015   32.3910   48.1243 O   0  0  0  0  0  0  0  0  0  0  0  0
   45.7087   32.2296   48.5853 C   0  0  1  0  0  0  0  0  0  0  0  0
   45.6936   32.6189   49.6370 H   0  0  0  0  0  0  0  0  0  0  0  0
   43.0872   33.1515   48.6891 H   0  0  0  0  0  0  0  0  0  0  0  0
   44.2983   32.3888   47.0200 H   0  0  0  0  0  0  0  0  0  0  0  0
   45.9615   34.9257   47.4742 H   0  0  0  0  0  0  0  0  0  0  0  0
   46.7709   32.3045   46.1126 H   0  0  0  0  0  0  0  0  0  0  0  0
   45.3732   31.1714   48.6406 H   0  0  0  0  0  0  0  0  0  0  0  0
  1  6  2  0
  2  3  2  0
  2  1  1  0
  3  4  1  0
  4  5  2  0
  6  5  1  0
  7  2  1  0
  8  7  2  0
  9  8  1  0
  1 10  1  0
  3 11  1  0
  7 12  1  0
  8 13  1  0
  9 14  1  0
  9 15  1  0
  9 16  1  0
 17 18  1  0
 18 19  1  0
 19 20  1  0
 20 21  1  6
 20 22  1  0
 22 23  1  0
 23 24  1  1
 23 18  1  0
 17 25  1  0
 18 26  1  6
 19 27  1  1
 20 28  1  0
 23 29  1  0
  5 19  1  0
M  ISO  7  10  14  11  14  14   8  15   8  16   8  21  15  24  16
M  END
>  <DihAtoms>  (1) 
3,4,18,17

>  <DihDeg>  (1) 
130.33101741582902

$$$$
