REMARK  Name = 
REMARK  3 active torsions:
REMARK  status: ('A' for Active; 'I' for Inactive)
REMARK    1  A    between atoms: C_3  and  C_7
REMARK    2  A    between atoms: C_9  and  C_19
REMARK    3  A    between atoms: O_17  and  C_18
REMARK                            x       y       z     vdW  Elec       q    Type
REMARK                         _______ _______ _______ _____ _____    ______ ____
ROOT
ATOM      1  C   UNL     1      47.092  34.748  41.749  0.00  0.00    +0.000 C 
ATOM      2  C   UNL     1      48.403  35.499  41.828  0.00  0.00    +0.000 C 
ATOM      3  C   UNL     1      48.319  33.963  41.817  0.00  0.00    +0.000 C 
ATOM      4  H   UNL     1      46.527  34.820  40.799  0.00  0.00    +0.000 HD
ATOM      5  H   UNL     1      48.651  36.045  40.918  0.00  0.00    +0.000 HD
ATOM      6  H   UNL     1      48.649  36.015  42.774  0.00  0.00    +0.000 HD
ATOM      7  H   UNL     1      48.551  33.551  42.850  0.00  0.00    +0.000 HD
ENDROOT
BRANCH   1  10
ATOM      8  C   UNL     1      44.632  35.936  44.346  0.00  0.00    +0.000 A 
ATOM      9  C   UNL     1      45.347  35.923  43.135  0.00  0.00    +0.000 A 
ATOM     10  C   UNL     1      46.265  34.896  43.000  0.00  0.00    +0.000 A 
ATOM     11  N   UNL     1      46.423  33.979  44.014  0.00  0.00    +0.000 NA
ATOM     12  C   UNL     1      45.709  34.036  45.160  0.00  0.00    +0.000 A 
ATOM     13  N   UNL     1      44.809  35.033  45.308  0.00  0.00    +0.000 NA
ATOM     14  H   UNL     1      43.898  36.722  44.505  0.00  0.00    +0.000 HD
ATOM     15  H   UNL     1      45.207  36.652  42.352  0.00  0.00    +0.000 HD
ATOM     16  H   UNL     1      45.991  33.223  45.815  0.00  0.00    +0.000 HD
ENDBRANCH   1  10
BRANCH   3  18
ATOM     17  C   UNL     1      48.050  31.942  40.452  0.00  0.00    +0.000 C 
ATOM     18  C   UNL     1      48.877  33.190  40.677  0.00  0.00    +0.000 C 
ATOM     19  C   UNL     1      50.250  32.614  40.873  0.00  0.00    +0.000 C 
ATOM     20  H   UNL     1      50.481  32.261  41.882  0.00  0.00    +0.000 HD
ATOM     21  O   UNL     1      50.325  31.489  40.056  0.00  0.00    +0.000 OA
ATOM     22  C   UNL     1      49.051  30.983  39.906  0.00  0.00    +0.000 C 
ATOM     23  H   UNL     1      48.979  30.048  40.510  0.00  0.00    +0.000 HD
BRANCH  17  24
ATOM     24  O   UNL     1      47.022  32.163  39.550  0.00  0.00    +0.000 OA
ATOM     25  H   UNL     1      46.623  31.277  39.352  0.00  0.00    +0.000 HD
ENDBRANCH  17  24
ENDBRANCH   3  18
TORSDOF 3
