
 OpenBabel03242523233D

 43 46  0  0  1  0  0  0  0  0999 V2000
   47.3460   32.5160   44.3800 C   0  0  0  0  0  0  0  0  0  0  0  0
   48.1260   32.7860   43.3380 C   0  0  0  0  0  0  0  0  0  0  0  0
   48.9100   31.7310   42.9200 C   0  0  0  0  0  0  0  0  0  0  0  0
   48.8140   30.5150   43.6130 N   0  0  0  0  0  0  0  0  0  0  0  0
   48.0290   30.3150   44.6320 C   0  0  0  0  0  0  0  0  0  0  0  0
   47.2270   31.3460   45.0810 N   0  0  0  0  0  0  0  0  0  0  0  0
   49.6220   31.6880   42.1090 H   0  0  0  0  0  0  0  0  0  0  0  0
   48.0530   29.3180   45.0830 H   0  0  0  0  0  0  0  0  0  0  0  0
   48.3140   34.0360   42.7020 C   0  0  1  0  0  0  0  0  0  0  0  0
   49.1970   34.3750   41.7250 C   0  0  0  0  0  0  0  0  0  0  0  0
   47.7820   34.2460   41.2550 C   0  0  1  0  0  0  0  0  0  0  0  0
   48.0930   34.8920   43.3980 H   0  0  0  0  0  0  0  0  0  0  0  0
   49.9410   33.6040   41.3610 H   0  0  0  0  0  0  0  0  0  0  0  0
   49.6330   35.3750   41.5040 H   0  0  0  0  0  0  0  0  0  0  0  0
   47.1830   35.1730   41.1340 H   0  0  0  0  0  0  0  0  0  0  0  0
   46.3660   33.3200   39.3670 C   0  0  1  0  0  3  0  0  0  0  0  0
   47.4990   33.1560   40.3290 C   0  0  1  0  0  3  0  0  0  0  0  0
   48.6870   33.0400   39.4030 C   0  0  0  0  0  3  0  0  0  0  0  0
   49.6040   33.4100   39.9070 H   0  0  0  0  0  0  0  0  0  0  0  0
   48.3720   33.8840   38.3610 O   0  0  0  0  0  0  0  0  0  0  0  0
   47.0320   33.6210   38.0630 C   0  0  0  0  0  3  0  0  0  0  0  0
   46.5410   34.4920   37.6040 H   0  0  0  0  0  0  0  0  0  0  0  0
   45.7410   32.0650   39.2250 O   0  0  0  0  0  0  0  0  0  0  0  0
   45.9410   31.6310   38.3670 H   0  0  0  0  0  0  0  0  0  0  0  0
   46.3560   33.4260   44.9950 C   0  0  0  0  0  0  0  0  0  0  0  0
   45.8450   34.0010   45.9120 O   0  0  0  0  0  0  0  0  0  0  0  0
   44.6570   31.4450   43.3440 Cl  0  0  0  0  0  0  0  0  0  0  0  0
   44.6380   33.1780   43.0550 C   0  0  0  0  0  0  0  0  0  0  0  0
   45.4660   33.9500   43.9110 C   0  0  0  0  0  0  0  0  0  0  0  0
   45.3600   35.2850   43.5900 C   0  0  0  0  0  0  0  0  0  0  0  0
   44.6480   35.9030   42.6590 C   0  0  0  0  0  0  0  0  0  0  0  0
   43.8710   35.0870   41.8650 C   0  0  0  0  0  0  0  0  0  0  0  0
   43.8590   33.7380   42.0560 C   0  0  0  0  0  0  0  0  0  0  0  0
   45.9350   36.0110   44.2110 H   0  0  0  0  0  0  0  0  0  0  0  0
   44.6320   36.9770   42.4780 H   0  0  0  0  0  0  0  0  0  0  0  0
   43.2620   35.5650   41.0760 H   0  0  0  0  0  0  0  0  0  0  0  0
   43.0440   33.0390   41.2060 O   0  0  0  0  0  0  0  0  0  0  0  0
   40.9450   31.8650   40.1580 O   0  0  0  0  0  0  0  0  0  0  0  0
   41.4520   32.4960   41.4320 P   0  0  0  0  0  0  0  0  0  0  0  0
   41.4130   31.3950   42.7190 O   0  0  0  0  0  0  0  0  0  0  0  0
   41.4600   31.8600   43.5750 H   0  0  0  0  0  0  0  0  0  0  0  0
   40.4260   33.7640   41.8880 O   0  0  0  0  0  0  0  0  0  0  0  0
   39.5910   33.3740   42.2570 H   0  0  0  0  0  0  0  0  0  0  0  0
  1 25  1  0  0  0  0
  1  6  1  0  0  0  0
  2  1  2  0  0  0  0
  3  2  1  0  0  0  0
  3  4  2  0  0  0  0
  4  5  1  0  0  0  0
  5  6  2  0  0  0  0
  5  8  1  0  0  0  0
  7  3  1  0  0  0  0
  9  2  1  0  0  0  0
  9 12  1  1  0  0  0
 10  9  1  0  0  0  0
 11 15  1  6  0  0  0
 11 10  1  0  0  0  0
 11  9  1  0  0  0  0
 13 10  1  0  0  0  0
 14 10  1  0  0  0  0
 16 23  1  6  0  0  0
 16 17  1  0  0  0  0
 17 18  1  6  0  0  0
 17 11  1  0  0  0  0
 18 19  1  0  0  0  0
 20 18  1  0  0  0  0
 21 20  1  0  0  0  0
 21 16  1  0  0  0  0
 22 21  1  0  0  0  0
 24 23  1  0  0  0  0
 25 26  2  0  0  0  0
 28 27  1  0  0  0  0
 28 29  1  0  0  0  0
 29 25  1  0  0  0  0
 30 29  2  0  0  0  0
 30 34  1  0  0  0  0
 31 30  1  0  0  0  0
 32 33  1  0  0  0  0
 32 31  2  0  0  0  0
 33 28  2  0  0  0  0
 35 31  1  0  0  0  0
 36 32  1  0  0  0  0
 37 39  1  0  0  0  0
 37 33  1  0  0  0  0
 38 39  2  0  0  0  0
 39 42  1  0  0  0  0
 39 40  1  0  0  0  0
 40 41  1  0  0  0  0
 42 43  1  0  0  0  0
M  END
>  <minimizedAffinity>
-5.5819459

>  <minimizedRMSD>
1.18158937

$$$$
