
 OpenBabel03242523463D

 19 20  0  0  1  0  0  0  0  0999 V2000
   44.7880   35.1610   44.4640 C   0  0  0  0  0  0  0  0  0  0  0  0
   45.5950   35.2230   43.3090 C   0  0  0  0  0  0  0  0  0  0  0  0
   46.7220   34.3850   43.2840 C   0  0  0  0  0  0  0  0  0  0  0  0
   46.9650   33.5780   44.3480 N   0  0  0  0  0  0  0  0  0  0  0  0
   46.1630   33.5570   45.4260 C   0  0  0  0  0  0  0  0  0  0  0  0
   45.0850   34.3360   45.4910 N   0  0  0  0  0  0  0  0  0  0  0  0
   45.3840   35.8620   42.4920 H   0  0  0  0  0  0  0  0  0  0  0  0
   46.3970   32.8990   46.2490 H   0  0  0  0  0  0  0  0  0  0  0  0
   47.0990   33.5750   40.9590 C   0  0  2  0  0  3  0  0  0  0  0  0
   47.6320   34.3690   42.1290 C   0  0  2  0  0  3  0  0  0  0  0  0
   48.9170   33.5900   42.3710 C   0  0  0  0  0  3  0  0  0  0  0  0
   48.6080   32.6480   42.8780 H   0  0  0  0  0  0  0  0  0  0  0  0
   49.4290   33.3820   41.1050 O   0  0  0  0  0  0  0  0  0  0  0  0
   48.4000   33.3550   40.1910 C   0  0  0  0  0  3  0  0  0  0  0  0
   48.4910   34.2160   39.4860 H   0  0  0  0  0  0  0  0  0  0  0  0
   46.1570   34.2840   40.2430 O   0  0  0  0  0  0  0  0  0  0  0  0
   45.4950   33.7210   39.7980 H   0  0  0  0  0  0  0  0  0  0  0  0
   43.6910   35.9690   44.5030 O   0  0  0  0  0  0  0  0  0  0  0  0
   43.6970   36.7400   45.1600 H   0  0  0  0  0  0  0  0  0  0  0  0
  1 18  1  0  0  0  0
  1  6  1  0  0  0  0
  2  1  2  0  0  0  0
  3  2  1  0  0  0  0
  3  4  2  0  0  0  0
  4  5  1  0  0  0  0
  5  6  2  0  0  0  0
  5  8  1  0  0  0  0
  7  2  1  0  0  0  0
  9 16  1  6  0  0  0
  9 10  1  0  0  0  0
 10 11  1  0  0  0  0
 10  3  1  1  0  0  0
 11 12  1  0  0  0  0
 13 11  1  0  0  0  0
 14  9  1  0  0  0  0
 14 13  1  0  0  0  0
 15 14  1  0  0  0  0
 17 16  1  0  0  0  0
 18 19  1  0  0  0  0
M  END
>  <minimizedAffinity>
-4.52317333

>  <minimizedRMSD>
1.4217726

$$$$
