
 OpenBabel03252509203D

 25 27  0  0  1  0  0  0  0  0999 V2000
   45.3400   33.9930   45.5430 C   0  0  0  0  0  0  0  0  0  0  0  0
   45.9060   33.7870   44.2630 C   0  0  0  0  0  0  0  0  0  0  0  0
   46.9350   32.8620   44.2480 C   0  0  0  0  0  0  0  0  0  0  0  0
   47.3260   32.2290   45.4180 N   0  0  0  0  0  0  0  0  0  0  0  0
   46.7480   32.4670   46.6020 C   0  0  0  0  0  0  0  0  0  0  0  0
   45.7450   33.3580   46.6640 N   0  0  0  0  0  0  0  0  0  0  0  0
   44.5300   34.6750   45.7520 H   0  0  0  0  0  0  0  0  0  0  0  0
   47.2320   31.8520   47.3450 H   0  0  0  0  0  0  0  0  0  0  0  0
   47.5490   32.4730   42.9240 C   0  0  0  0  0  0  0  0  0  0  0  0
   48.8940   33.1960   42.7290 C   0  0  0  0  0  0  0  0  0  0  0  0
   48.7320   31.6600   42.9380 C   0  0  0  0  0  0  0  0  0  0  0  0
   46.9100   32.6240   42.0260 H   0  0  0  0  0  0  0  0  0  0  0  0
   49.0690   33.5250   41.6930 H   0  0  0  0  0  0  0  0  0  0  0  0
   49.2780   33.7850   43.5510 H   0  0  0  0  0  0  0  0  0  0  0  0
   49.0470   31.0660   42.0310 H   0  0  0  0  0  0  0  0  0  0  0  0
   49.2000   31.3290   43.9100 H   0  0  0  0  0  0  0  0  0  0  0  0
   44.6880   35.8130   43.4130 C   0  0  1  0  0  3  0  0  0  0  0  0
   45.4050   34.5080   43.1250 C   0  0  2  0  0  3  0  0  0  0  0  0
   44.3050   33.8360   42.3360 C   0  0  0  0  0  3  0  0  0  0  0  0
   44.6620   32.9820   41.7620 H   0  0  0  0  0  0  0  0  0  0  0  0
   43.9420   34.8270   41.4130 O   0  0  0  0  0  0  0  0  0  0  0  0
   44.1840   36.0560   41.9870 C   0  0  0  0  0  3  0  0  0  0  0  0
   43.2630   36.6680   41.9890 H   0  0  0  0  0  0  0  0  0  0  0  0
   43.5590   35.6770   44.1860 O   0  0  0  0  0  0  0  0  0  0  0  0
   42.7990   35.3300   43.6540 H   0  0  0  0  0  0  0  0  0  0  0  0
  1  7  1  0  0  0  0
  1  6  1  0  0  0  0
  2  1  2  0  0  0  0
  3  2  1  0  0  0  0
  3  4  2  0  0  0  0
  4  5  1  0  0  0  0
  5  6  2  0  0  0  0
  5  8  1  0  0  0  0
  9 11  1  0  0  0  0
  9  3  1  0  0  0  0
 10  9  1  0  0  0  0
 10 11  1  0  0  0  0
 10 14  1  0  0  0  0
 11 16  1  0  0  0  0
 12  9  1  0  0  0  0
 13 10  1  0  0  0  0
 15 11  1  0  0  0  0
 17 24  1  1  0  0  0
 18 17  1  0  0  0  0
 18  2  1  1  0  0  0
 19 18  1  0  0  0  0
 20 19  1  0  0  0  0
 21 22  1  0  0  0  0
 21 19  1  0  0  0  0
 22 23  1  0  0  0  0
 22 17  1  0  0  0  0
 25 24  1  0  0  0  0
M  END
>  <minimizedAffinity>
-4.18512917

>  <minimizedRMSD>
2.87388778

$$$$
