
     RDKit          3D

 44 47  0  0  0  0  0  0  0  0999 V2000
   47.1793   34.5534   42.0016 C   0  0  1  0  0  0  0  0  0  0  0  0
   48.3138   35.4528   41.7277 C   0  0  0  0  0  0  0  0  0  0  0  0
   48.5747   34.1048   42.2943 C   0  0  2  0  0  0  0  0  0  0  0  0
   45.4859   36.0225   43.1566 C   0  0  0  0  0  0  0  0  0  0  0  0
   46.2732   34.8530   43.1495 C   0  0  0  0  0  0  0  0  0  0  0  0
   46.1752   33.9819   44.2467 C   0  0  0  0  0  0  0  0  0  0  0  0
   45.3259   34.3140   45.2568 N   0  0  0  0  0  0  0  0  0  0  0  0
   44.5838   35.4475   45.2302 C   0  0  0  0  0  0  0  0  0  0  0  0
   44.6609   36.3085   44.1776 N   0  0  0  0  0  0  0  0  0  0  0  0
   49.3138   33.2012   41.4768 N   0  0  0  0  0  0  0  0  0  0  0  0
   50.6498   33.1197   42.0265 C   0  0  0  0  0  0  0  0  0  0  0  0
   51.3403   31.8199   41.8267 C   0  0  0  0  0  0  0  0  0  0  0  0
   50.6020   30.7468   42.5698 C   0  0  0  0  0  0  0  0  0  0  0  0
   49.1239   30.9699   42.5106 C   0  0  0  0  0  0  0  0  0  0  0  0
   48.7455   31.8830   41.4047 C   0  0  2  0  0  0  0  0  0  0  0  0
   46.6729   34.1535   41.1011 H   0  0  0  0  0  0  0  0  0  0  0  0
   48.4860   36.3147   42.3920 H   0  0  0  0  0  0  0  0  0  0  0  0
   48.5944   35.6736   40.6774 H   0  0  0  0  0  0  0  0  0  0  0  0
   48.8125   34.0599   43.3951 H   0  0  0  0  0  0  0  0  0  0  0  0
   45.5562   36.6939   42.3191 H   0  0  0  0  0  0  0  0  0  0  0  0
   46.7657   33.0734   44.2749 H   0  0  0  0  0  0  0  0  0  0  0  0
   43.9129   35.7034   46.0354 H   0  0  0  0  0  0  0  0  0  0  0  0
   50.5914   33.2885   43.1225 H   0  0  0  0  0  0  0  0  0  0  0  0
   51.2328   33.9654   41.6081 H   0  0  0  0  0  0  0  0  0  0  0  0
   52.3410   31.9396   42.3437 H   0  0  0  0  0  0  0  0  0  0  0  0
   51.6280   31.5691   40.7926 H   0  0  0  0  0  0  0  0  0  0  0  0
   50.8902   30.8178   43.6414 H   0  0  0  0  0  0  0  0  0  0  0  0
   50.9063   29.7226   42.2770 H   0  0  0  0  0  0  0  0  0  0  0  0
   48.6220   30.0064   42.3493 H   0  0  0  0  0  0  0  0  0  0  0  0
   48.7124   31.3593   43.4652 H   0  0  0  0  0  0  0  0  0  0  0  0
   47.6477   32.0883   41.6319 H   0  0  0  0  0  0  0  0  0  0  0  0
   47.2729   32.5457   38.5113 O   0  0  0  0  0  0  0  0  0  0  0  0
   48.5853   32.3025   38.8980 C   0  0  1  0  0  0  0  0  0  0  0  0
   48.7185   31.3375   40.0196 C   0  0  1  0  0  0  0  0  0  0  0  0
   50.0975   30.7460   39.6789 C   0  0  2  0  0  0  0  0  0  0  0  0
   50.3237   29.8390   40.2362 H   0  0  0  0  0  0  0  0  0  0  0  0
   50.1343   30.6423   38.3035 O   0  0  0  0  0  0  0  0  0  0  0  0
   49.1591   31.4476   37.7563 C   0  0  1  0  0  0  0  0  0  0  0  0
   48.3478   30.7488   37.4086 H   0  0  0  0  0  0  0  0  0  0  0  0
   47.0224   33.4941   38.5408 H   0  0  0  0  0  0  0  0  0  0  0  0
   49.2210   33.1830   38.9611 H   0  0  0  0  0  0  0  0  0  0  0  0
   48.0332   30.4876   39.8486 H   0  0  0  0  0  0  0  0  0  0  0  0
   50.8029   31.5648   39.9456 H   0  0  0  0  0  0  0  0  0  0  0  0
   49.4562   32.0461   36.8943 H   0  0  0  0  0  0  0  0  0  0  0  0
  1  3  1  0
  1  5  1  0
  2  1  1  0
  2  3  1  0
  4  9  2  0
  5  4  1  0
  5  6  2  0
  6  7  1  0
  8  7  2  0
  9  8  1  0
 10 11  1  0
 10  3  1  0
 12 11  1  0
 12 13  1  0
 13 14  1  0
 15 10  1  0
 15 14  1  0
  1 16  1  6
  2 17  1  0
  2 18  1  0
  3 19  1  1
  4 20  1  0
  6 21  1  0
  8 22  1  0
 11 23  1  0
 11 24  1  0
 12 25  1  0
 12 26  1  0
 13 27  1  0
 13 28  1  0
 14 29  1  0
 14 30  1  0
 15 31  1  1
 32 33  1  0
 33 34  1  0
 34 35  1  0
 35 36  1  1
 35 37  1  0
 37 38  1  0
 38 39  1  6
 38 33  1  0
 32 40  1  0
 33 41  1  1
 34 42  1  1
 35 43  1  0
 38 44  1  0
 15 34  1  0
M  ISO  8  16  13  17  13  18  13  19  13  20  14  21  14  22  14  23  13
M  ISO  8  24  13  25  13  26  13  27  13  28  13  29  13  30  13  31  13
M  ISO  2  36  15  39  16
M  END
>  <DihAtoms>  (1) 
9,14,33,32

>  <DihDeg>  (1) 
179.7870391510594

$$$$
