
 OpenBabel03242511033D

 46 49  0  0  1  0  0  0  0  0999 V2000
   37.4730   30.6500   40.6920 C   0  0  0  0  0  3  0  0  0  0  0  0
   36.2620   30.3750   40.2970 C   0  0  0  0  0  3  0  0  0  0  0  0
   39.9250   33.3780   40.4790 C   0  0  0  0  0  0  0  0  0  0  0  0
   39.0930   34.3980   39.9970 C   0  0  0  0  0  0  0  0  0  0  0  0
   37.7430   34.2260   39.7360 C   0  0  0  0  0  0  0  0  0  0  0  0
   37.2190   32.9760   39.9720 C   0  0  0  0  0  0  0  0  0  0  0  0
   38.0450   31.9610   40.4510 C   0  0  0  0  0  0  0  0  0  0  0  0
   39.3370   32.1950   40.6800 N   0  0  0  0  0  0  0  0  0  0  0  0
   39.5070   35.3790   39.8130 H   0  0  0  0  0  0  0  0  0  0  0  0
   37.1660   35.0530   39.3690 H   0  0  0  0  0  0  0  0  0  0  0  0
   36.1670   32.8590   39.7640 H   0  0  0  0  0  0  0  0  0  0  0  0
   44.6730   36.2240   42.8850 C   0  0  0  0  0  0  0  0  0  0  0  0
   45.6780   35.5780   42.1360 C   0  0  0  0  0  0  0  0  0  0  0  0
   45.2780   34.6630   41.1550 C   0  0  0  0  0  0  0  0  0  0  0  0
   43.9460   34.4280   40.9580 N   0  0  0  0  0  0  0  0  0  0  0  0
   43.0180   35.0780   41.7090 C   0  0  0  0  0  0  0  0  0  0  0  0
   43.3840   35.9720   42.6680 N   0  0  0  0  0  0  0  0  0  0  0  0
   41.3310   33.6660   40.7180 C   0  0  0  0  0  0  0  0  0  0  0  0
   42.1850   32.8750   40.2300 O   0  0  0  0  0  0  0  0  0  0  0  0
   41.6340   34.8210   41.4890 N   0  0  0  0  0  0  0  0  0  0  0  0
   45.0660   36.9140   43.6230 H   0  0  0  0  0  0  0  0  0  0  0  0
   46.7440   35.7160   42.2390 H   0  0  0  0  0  0  0  0  0  0  0  0
   45.9710   34.1150   40.5260 H   0  0  0  0  0  0  0  0  0  0  0  0
   40.9210   35.4740   41.8940 H   0  0  0  0  0  0  0  0  0  0  0  0
   35.5250   29.0810   40.4650 C   0  0  0  0  0  0  0  0  0  0  0  0
   35.1350   29.1190   41.4810 H   0  0  0  0  0  0  0  0  0  0  0  0
   34.6340   29.0710   39.7940 H   0  0  0  0  0  0  0  0  0  0  0  0
   36.4330   27.8420   43.0010 Cl  0  0  0  0  0  0  0  0  0  0  0  0
   36.8890   27.2880   41.3920 C   0  0  0  0  0  0  0  0  0  0  0  0
   36.4240   27.9170   40.2500 C   0  0  0  0  0  0  0  0  0  0  0  0
   36.7780   27.4850   38.9880 C   0  0  0  0  0  0  0  0  0  0  0  0
   37.6340   26.3770   38.8620 C   0  0  0  0  0  0  0  0  0  0  0  0
   38.0900   25.7570   40.0150 C   0  0  0  0  0  0  0  0  0  0  0  0
   37.7290   26.1980   41.2860 C   0  0  0  0  0  0  0  0  0  0  0  0
   36.3890   28.0110   38.1470 H   0  0  0  0  0  0  0  0  0  0  0  0
   37.8950   26.0580   37.8690 H   0  0  0  0  0  0  0  0  0  0  0  0
   38.7460   24.9060   39.8950 H   0  0  0  0  0  0  0  0  0  0  0  0
   39.5320   26.0550   42.9930 C   0  0  2  0  0  3  0  0  0  0  0  0
   38.2170   25.5350   42.5120 C   0  0  2  0  0  3  0  0  0  0  0  0
   38.4390   24.0770   42.3780 C   0  0  0  0  0  3  0  0  0  0  0  0
   37.9610   23.7150   41.4450 H   0  0  0  0  0  0  0  0  0  0  0  0
   39.7860   23.8280   42.2930 O   0  0  0  0  0  0  0  0  0  0  0  0
   40.4770   24.9130   42.7710 C   0  0  0  0  0  3  0  0  0  0  0  0
   41.3380   25.1740   42.1030 H   0  0  0  0  0  0  0  0  0  0  0  0
   39.5070   26.4620   44.3270 O   0  0  0  0  0  0  0  0  0  0  0  0
   39.4690   25.6920   44.9290 H   0  0  0  0  0  0  0  0  0  0  0  0
  2 25  1  0  0  0  0
  2  1  2  0  0  0  0
  3  8  1  0  0  0  0
  3 18  1  0  0  0  0
  4  3  2  0  0  0  0
  5  6  2  0  0  0  0
  5  4  1  0  0  0  0
  6  7  1  0  0  0  0
  7  8  2  0  0  0  0
  7  1  1  0  0  0  0
  9  4  1  0  0  0  0
 10  5  1  0  0  0  0
 11  6  1  0  0  0  0
 12 21  1  0  0  0  0
 13 22  1  0  0  0  0
 13 12  2  0  0  0  0
 14 13  1  0  0  0  0
 15 14  2  0  0  0  0
 15 16  1  0  0  0  0
 16 17  2  0  0  0  0
 17 12  1  0  0  0  0
 18 20  1  0  0  0  0
 19 18  2  0  0  0  0
 20 16  1  0  0  0  0
 20 24  1  0  0  0  0
 23 14  1  0  0  0  0
 25 26  1  0  0  0  0
 27 25  1  0  0  0  0
 29 28  1  0  0  0  0
 30 25  1  0  0  0  0
 30 29  2  0  0  0  0
 31 30  1  0  0  0  0
 32 31  2  0  0  0  0
 32 33  1  0  0  0  0
 33 34  2  0  0  0  0
 34 29  1  0  0  0  0
 35 31  1  0  0  0  0
 36 32  1  0  0  0  0
 37 33  1  0  0  0  0
 38 45  1  1  0  0  0
 39 34  1  6  0  0  0
 39 38  1  0  0  0  0
 40 39  1  0  0  0  0
 41 40  1  0  0  0  0
 42 40  1  0  0  0  0
 42 43  1  0  0  0  0
 43 38  1  0  0  0  0
 44 43  1  0  0  0  0
 45 46  1  0  0  0  0
M  END
>  <minimizedAffinity>
-7.47087717

$$$$

 OpenBabel03242511033D

 46 49  0  0  1  0  0  0  0  0999 V2000
   37.3450   32.4610   40.0220 C   0  0  0  0  0  3  0  0  0  0  0  0
   37.4010   31.3820   40.7510 C   0  0  0  0  0  3  0  0  0  0  0  0
   40.6980   33.5700   39.0090 C   0  0  0  0  0  0  0  0  0  0  0  0
   40.6890   34.8610   39.5570 C   0  0  0  0  0  0  0  0  0  0  0  0
   39.6150   35.3880   40.2550 C   0  0  0  0  0  0  0  0  0  0  0  0
   38.5110   34.5800   40.4010 C   0  0  0  0  0  0  0  0  0  0  0  0
   38.5190   33.2980   39.8570 C   0  0  0  0  0  0  0  0  0  0  0  0
   39.5870   32.8520   39.1970 N   0  0  0  0  0  0  0  0  0  0  0  0
   41.5570   35.4930   39.4420 H   0  0  0  0  0  0  0  0  0  0  0  0
   39.6770   36.3850   40.6480 H   0  0  0  0  0  0  0  0  0  0  0  0
   37.6830   35.0060   40.9470 H   0  0  0  0  0  0  0  0  0  0  0  0
   43.9370   30.0710   35.3080 C   0  0  0  0  0  0  0  0  0  0  0  0
   45.1990   30.6480   35.5610 C   0  0  0  0  0  0  0  0  0  0  0  0
   45.2740   31.6620   36.5240 C   0  0  0  0  0  0  0  0  0  0  0  0
   44.1400   32.0540   37.1770 N   0  0  0  0  0  0  0  0  0  0  0  0
   42.9490   31.4640   36.8940 C   0  0  0  0  0  0  0  0  0  0  0  0
   42.8510   30.4770   35.9620 N   0  0  0  0  0  0  0  0  0  0  0  0
   41.8800   33.1140   38.2940 C   0  0  0  0  0  0  0  0  0  0  0  0
   42.9150   33.8350   38.3480 O   0  0  0  0  0  0  0  0  0  0  0  0
   41.7760   31.8860   37.5860 N   0  0  0  0  0  0  0  0  0  0  0  0
   43.9650   29.2960   34.5500 H   0  0  0  0  0  0  0  0  0  0  0  0
   46.1310   30.3870   35.0840 H   0  0  0  0  0  0  0  0  0  0  0  0
   46.1940   32.1690   36.7920 H   0  0  0  0  0  0  0  0  0  0  0  0
   40.9140   31.2910   37.5430 H   0  0  0  0  0  0  0  0  0  0  0  0
   36.2890   30.4140   41.0230 C   0  0  0  0  0  0  0  0  0  0  0  0
   35.6270   30.9430   41.7070 H   0  0  0  0  0  0  0  0  0  0  0  0
   35.7010   30.2520   40.0890 H   0  0  0  0  0  0  0  0  0  0  0  0
   36.0810   28.1180   39.1600 Cl  0  0  0  0  0  0  0  0  0  0  0  0
   36.7410   28.0310   40.7900 C   0  0  0  0  0  0  0  0  0  0  0  0
   36.8070   29.1480   41.6060 C   0  0  0  0  0  0  0  0  0  0  0  0
   37.3240   29.0850   42.8840 C   0  0  0  0  0  0  0  0  0  0  0  0
   37.7950   27.8510   43.3680 C   0  0  0  0  0  0  0  0  0  0  0  0
   37.7220   26.7420   42.5390 C   0  0  0  0  0  0  0  0  0  0  0  0
   37.2000   26.8130   41.2500 C   0  0  0  0  0  0  0  0  0  0  0  0
   37.3480   29.9780   43.4640 H   0  0  0  0  0  0  0  0  0  0  0  0
   38.1940   27.8260   44.3660 H   0  0  0  0  0  0  0  0  0  0  0  0
   38.0910   25.8050   42.9320 H   0  0  0  0  0  0  0  0  0  0  0  0
   36.7510   24.3720   41.0860 C   0  0  2  0  0  3  0  0  0  0  0  0
   37.1240   25.6300   40.3700 C   0  0  2  0  0  3  0  0  0  0  0  0
   38.3930   25.2870   39.6880 C   0  0  0  0  0  3  0  0  0  0  0  0
   39.1020   26.1360   39.7790 H   0  0  0  0  0  0  0  0  0  0  0  0
   38.9550   24.1920   40.2960 O   0  0  0  0  0  0  0  0  0  0  0  0
   37.9940   23.5390   41.0250 C   0  0  0  0  0  3  0  0  0  0  0  0
   38.3810   23.2460   42.0360 H   0  0  0  0  0  0  0  0  0  0  0  0
   35.6560   23.7220   40.5170 O   0  0  0  0  0  0  0  0  0  0  0  0
   35.9010   23.2960   39.6700 H   0  0  0  0  0  0  0  0  0  0  0  0
  1  2  2  0  0  0  0
  2 25  1  0  0  0  0
  3  8  2  0  0  0  0
  3  4  1  0  0  0  0
  4  5  2  0  0  0  0
  5  6  1  0  0  0  0
  5 10  1  0  0  0  0
  6 11  1  0  0  0  0
  7  1  1  0  0  0  0
  7  6  2  0  0  0  0
  8  7  1  0  0  0  0
  9  4  1  0  0  0  0
 12 13  2  0  0  0  0
 12 17  1  0  0  0  0
 13 14  1  0  0  0  0
 14 23  1  0  0  0  0
 14 15  2  0  0  0  0
 16 15  1  0  0  0  0
 16 20  1  0  0  0  0
 17 16  2  0  0  0  0
 18 19  2  0  0  0  0
 18  3  1  0  0  0  0
 20 18  1  0  0  0  0
 21 12  1  0  0  0  0
 22 13  1  0  0  0  0
 24 20  1  0  0  0  0
 25 30  1  0  0  0  0
 25 26  1  0  0  0  0
 27 25  1  0  0  0  0
 28 29  1  0  0  0  0
 29 34  2  0  0  0  0
 29 30  1  0  0  0  0
 30 31  2  0  0  0  0
 31 32  1  0  0  0  0
 31 35  1  0  0  0  0
 32 36  1  0  0  0  0
 33 37  1  0  0  0  0
 33 32  2  0  0  0  0
 34 33  1  0  0  0  0
 38 45  1  6  0  0  0
 39 38  1  0  0  0  0
 39 34  1  1  0  0  0
 40 41  1  0  0  0  0
 40 42  1  0  0  0  0
 40 39  1  0  0  0  0
 42 43  1  0  0  0  0
 43 38  1  0  0  0  0
 43 44  1  0  0  0  0
 46 45  1  0  0  0  0
M  END
>  <minimizedAffinity>
-7.45397568

$$$$

 OpenBabel03242511033D

 46 49  0  0  1  0  0  0  0  0999 V2000
   37.3530   30.8310   39.9190 C   0  0  0  0  0  3  0  0  0  0  0  0
   36.2170   30.6200   40.5220 C   0  0  0  0  0  3  0  0  0  0  0  0
   39.9010   33.4420   40.3590 C   0  0  0  0  0  0  0  0  0  0  0  0
   39.1270   34.5720   40.0570 C   0  0  0  0  0  0  0  0  0  0  0  0
   37.7870   34.5110   39.7120 C   0  0  0  0  0  0  0  0  0  0  0  0
   37.2120   33.2620   39.6700 C   0  0  0  0  0  0  0  0  0  0  0  0
   37.9790   32.1390   39.9690 C   0  0  0  0  0  0  0  0  0  0  0  0
   39.2650   32.2680   40.2950 N   0  0  0  0  0  0  0  0  0  0  0  0
   39.5820   35.5510   40.0920 H   0  0  0  0  0  0  0  0  0  0  0  0
   37.2560   35.4180   39.4930 H   0  0  0  0  0  0  0  0  0  0  0  0
   36.1670   33.2330   39.3990 H   0  0  0  0  0  0  0  0  0  0  0  0
   44.6910   36.0790   42.9150 C   0  0  0  0  0  0  0  0  0  0  0  0
   45.6840   35.2510   42.3520 C   0  0  0  0  0  0  0  0  0  0  0  0
   45.2780   34.2670   41.4430 C   0  0  0  0  0  0  0  0  0  0  0  0
   43.9520   34.1420   41.1360 N   0  0  0  0  0  0  0  0  0  0  0  0
   43.0360   34.9670   41.7080 C   0  0  0  0  0  0  0  0  0  0  0  0
   43.4080   35.9310   42.5950 N   0  0  0  0  0  0  0  0  0  0  0  0
   41.3010   33.6170   40.7110 C   0  0  0  0  0  0  0  0  0  0  0  0
   42.1050   32.6920   40.4060 O   0  0  0  0  0  0  0  0  0  0  0  0
   41.6580   34.8220   41.3750 N   0  0  0  0  0  0  0  0  0  0  0  0
   45.0880   36.8130   43.6080 H   0  0  0  0  0  0  0  0  0  0  0  0
   46.7440   35.2950   42.5490 H   0  0  0  0  0  0  0  0  0  0  0  0
   45.9610   33.5810   40.9550 H   0  0  0  0  0  0  0  0  0  0  0  0
   40.9860   35.5870   41.6270 H   0  0  0  0  0  0  0  0  0  0  0  0
   35.4410   29.3380   40.5690 C   0  0  0  0  0  0  0  0  0  0  0  0
   34.5640   29.5720   41.1710 H   0  0  0  0  0  0  0  0  0  0  0  0
   35.0590   29.0980   39.5480 H   0  0  0  0  0  0  0  0  0  0  0  0
   36.1170   27.2290   38.5990 Cl  0  0  0  0  0  0  0  0  0  0  0  0
   36.6040   27.2160   40.2920 C   0  0  0  0  0  0  0  0  0  0  0  0
   36.2510   28.2390   41.1560 C   0  0  0  0  0  0  0  0  0  0  0  0
   36.6310   28.2330   42.4830 C   0  0  0  0  0  0  0  0  0  0  0  0
   37.3970   27.1580   42.9670 C   0  0  0  0  0  0  0  0  0  0  0  0
   37.7430   26.1420   42.0900 C   0  0  0  0  0  0  0  0  0  0  0  0
   37.3570   26.1540   40.7520 C   0  0  0  0  0  0  0  0  0  0  0  0
   36.3280   29.0480   43.0980 H   0  0  0  0  0  0  0  0  0  0  0  0
   37.6820   27.1750   44.0030 H   0  0  0  0  0  0  0  0  0  0  0  0
   38.3330   25.3260   42.4840 H   0  0  0  0  0  0  0  0  0  0  0  0
   36.7550   23.9350   39.8030 C   0  0  2  0  0  3  0  0  0  0  0  0
   37.7270   25.0700   39.8200 C   0  0  2  0  0  3  0  0  0  0  0  0
   39.0260   24.4210   40.1150 C   0  0  0  0  0  3  0  0  0  0  0  0
   39.5920   25.0410   40.8400 H   0  0  0  0  0  0  0  0  0  0  0  0
   38.8010   23.1930   40.6840 O   0  0  0  0  0  0  0  0  0  0  0  0
   37.5160   22.7980   40.4140 C   0  0  0  0  0  3  0  0  0  0  0  0
   37.0210   22.3730   41.3260 H   0  0  0  0  0  0  0  0  0  0  0  0
   36.2930   23.6280   38.5230 O   0  0  0  0  0  0  0  0  0  0  0  0
   36.9880   23.1840   37.9950 H   0  0  0  0  0  0  0  0  0  0  0  0
  1  7  1  0  0  0  0
  1  2  2  0  0  0  0
  2 25  1  0  0  0  0
  3 18  1  0  0  0  0
  4  9  1  0  0  0  0
  4  3  2  0  0  0  0
  5  4  1  0  0  0  0
  6  5  2  0  0  0  0
  6  7  1  0  0  0  0
  7  8  2  0  0  0  0
  8  3  1  0  0  0  0
 10  5  1  0  0  0  0
 11  6  1  0  0  0  0
 12 21  1  0  0  0  0
 13 22  1  0  0  0  0
 13 12  2  0  0  0  0
 14 13  1  0  0  0  0
 15 14  2  0  0  0  0
 15 16  1  0  0  0  0
 16 17  2  0  0  0  0
 17 12  1  0  0  0  0
 18 20  1  0  0  0  0
 19 18  2  0  0  0  0
 20 24  1  0  0  0  0
 20 16  1  0  0  0  0
 23 14  1  0  0  0  0
 25 30  1  0  0  0  0
 25 26  1  0  0  0  0
 27 25  1  0  0  0  0
 28 29  1  0  0  0  0
 29 34  2  0  0  0  0
 29 30  1  0  0  0  0
 30 31  2  0  0  0  0
 31 32  1  0  0  0  0
 31 35  1  0  0  0  0
 32 36  1  0  0  0  0
 33 37  1  0  0  0  0
 33 32  2  0  0  0  0
 34 33  1  0  0  0  0
 38 45  1  6  0  0  0
 38 39  1  0  0  0  0
 38 43  1  0  0  0  0
 39 40  1  0  0  0  0
 39 34  1  1  0  0  0
 40 42  1  0  0  0  0
 40 41  1  0  0  0  0
 43 42  1  0  0  0  0
 43 44  1  0  0  0  0
 46 45  1  0  0  0  0
M  END
>  <minimizedAffinity>
-7.43452549

$$$$

 OpenBabel03242511033D

 46 49  0  0  1  0  0  0  0  0999 V2000
   37.3270   32.6580   40.1690 C   0  0  0  0  0  3  0  0  0  0  0  0
   37.3570   31.4860   40.7410 C   0  0  0  0  0  3  0  0  0  0  0  0
   40.6930   33.5110   38.9710 C   0  0  0  0  0  0  0  0  0  0  0  0
   40.8250   34.7850   39.5430 C   0  0  0  0  0  0  0  0  0  0  0  0
   39.8420   35.3820   40.3160 C   0  0  0  0  0  0  0  0  0  0  0  0
   38.6860   34.6630   40.5150 C   0  0  0  0  0  0  0  0  0  0  0  0
   38.5540   33.3980   39.9470 C   0  0  0  0  0  0  0  0  0  0  0  0
   39.5390   32.8820   39.2140 N   0  0  0  0  0  0  0  0  0  0  0  0
   41.7350   35.3470   39.3860 H   0  0  0  0  0  0  0  0  0  0  0  0
   40.0120   36.3600   40.7240 H   0  0  0  0  0  0  0  0  0  0  0  0
   37.9310   35.1430   41.1200 H   0  0  0  0  0  0  0  0  0  0  0  0
   43.5400   29.5810   35.3820 C   0  0  0  0  0  0  0  0  0  0  0  0
   44.8050   30.2040   35.3880 C   0  0  0  0  0  0  0  0  0  0  0  0
   44.9720   31.3410   36.1880 C   0  0  0  0  0  0  0  0  0  0  0  0
   43.9180   31.8040   36.9250 N   0  0  0  0  0  0  0  0  0  0  0  0
   42.7190   31.1660   36.8820 C   0  0  0  0  0  0  0  0  0  0  0  0
   42.5340   30.0590   36.1120 N   0  0  0  0  0  0  0  0  0  0  0  0
   41.7880   32.9770   38.1760 C   0  0  0  0  0  0  0  0  0  0  0  0
   42.7990   33.7120   37.9970 O   0  0  0  0  0  0  0  0  0  0  0  0
   41.6330   31.6630   37.6580 N   0  0  0  0  0  0  0  0  0  0  0  0
   43.4950   28.7100   34.7380 H   0  0  0  0  0  0  0  0  0  0  0  0
   45.6770   29.8930   34.8330 H   0  0  0  0  0  0  0  0  0  0  0  0
   45.9030   31.8920   36.2640 H   0  0  0  0  0  0  0  0  0  0  0  0
   40.7900   31.0570   37.8090 H   0  0  0  0  0  0  0  0  0  0  0  0
   36.1900   30.5950   41.0420 C   0  0  0  0  0  0  0  0  0  0  0  0
   36.0730   30.6540   42.1230 H   0  0  0  0  0  0  0  0  0  0  0  0
   35.2630   31.0380   40.6070 H   0  0  0  0  0  0  0  0  0  0  0  0
   37.0470   28.7860   43.2290 Cl  0  0  0  0  0  0  0  0  0  0  0  0
   36.8440   28.3030   41.5470 C   0  0  0  0  0  0  0  0  0  0  0  0
   36.4400   29.2050   40.5770 C   0  0  0  0  0  0  0  0  0  0  0  0
   36.2790   28.8300   39.2590 C   0  0  0  0  0  0  0  0  0  0  0  0
   36.5340   27.4970   38.8930 C   0  0  0  0  0  0  0  0  0  0  0  0
   36.9380   26.6050   39.8760 C   0  0  0  0  0  0  0  0  0  0  0  0
   37.0980   26.9900   41.2050 C   0  0  0  0  0  0  0  0  0  0  0  0
   35.9660   29.5700   38.5590 H   0  0  0  0  0  0  0  0  0  0  0  0
   36.4020   27.2280   37.8610 H   0  0  0  0  0  0  0  0  0  0  0  0
   37.1280   25.5860   39.5720 H   0  0  0  0  0  0  0  0  0  0  0  0
   39.0070   25.8260   42.2950 C   0  0  2  0  0  3  0  0  0  0  0  0
   37.5280   26.0380   42.2490 C   0  0  2  0  0  3  0  0  0  0  0  0
   36.9780   24.6710   42.1000 C   0  0  0  0  0  3  0  0  0  0  0  0
   36.1470   24.6850   41.3660 H   0  0  0  0  0  0  0  0  0  0  0  0
   37.9580   23.8360   41.6230 O   0  0  0  0  0  0  0  0  0  0  0  0
   39.1850   24.4110   41.8370 C   0  0  0  0  0  3  0  0  0  0  0  0
   39.8400   24.3170   40.9330 H   0  0  0  0  0  0  0  0  0  0  0  0
   39.5520   26.0390   43.5610 O   0  0  0  0  0  0  0  0  0  0  0  0
   39.3190   25.3100   44.1720 H   0  0  0  0  0  0  0  0  0  0  0  0
  1  2  2  0  0  0  0
  2 25  1  0  0  0  0
  3  8  2  0  0  0  0
  3  4  1  0  0  0  0
  4  5  2  0  0  0  0
  5  6  1  0  0  0  0
  5 10  1  0  0  0  0
  6 11  1  0  0  0  0
  7  1  1  0  0  0  0
  7  6  2  0  0  0  0
  8  7  1  0  0  0  0
  9  4  1  0  0  0  0
 12 13  2  0  0  0  0
 12 17  1  0  0  0  0
 13 14  1  0  0  0  0
 14 23  1  0  0  0  0
 14 15  2  0  0  0  0
 16 15  1  0  0  0  0
 16 20  1  0  0  0  0
 17 16  2  0  0  0  0
 18  3  1  0  0  0  0
 19 18  2  0  0  0  0
 20 24  1  0  0  0  0
 20 18  1  0  0  0  0
 21 12  1  0  0  0  0
 22 13  1  0  0  0  0
 25 26  1  0  0  0  0
 27 25  1  0  0  0  0
 29 28  1  0  0  0  0
 30 25  1  0  0  0  0
 30 29  2  0  0  0  0
 31 30  1  0  0  0  0
 32 31  2  0  0  0  0
 32 33  1  0  0  0  0
 33 34  2  0  0  0  0
 34 29  1  0  0  0  0
 35 31  1  0  0  0  0
 36 32  1  0  0  0  0
 37 33  1  0  0  0  0
 38 45  1  1  0  0  0
 39 34  1  6  0  0  0
 39 38  1  0  0  0  0
 40 39  1  0  0  0  0
 41 40  1  0  0  0  0
 42 43  1  0  0  0  0
 42 40  1  0  0  0  0
 43 38  1  0  0  0  0
 44 43  1  0  0  0  0
 45 46  1  0  0  0  0
M  END
>  <minimizedAffinity>
-7.35823631

$$$$

 OpenBabel03242511033D

 46 49  0  0  1  0  0  0  0  0999 V2000
   37.1290   30.0580   40.4030 C   0  0  0  0  0  3  0  0  0  0  0  0
   37.4820   31.2820   40.6810 C   0  0  0  0  0  3  0  0  0  0  0  0
   37.6600   26.7010   41.7980 C   0  0  0  0  0  0  0  0  0  0  0  0
   37.7600   27.0300   43.1580 C   0  0  0  0  0  0  0  0  0  0  0  0
   37.6580   28.3240   43.6410 C   0  0  0  0  0  0  0  0  0  0  0  0
   37.4480   29.3190   42.7150 C   0  0  0  0  0  0  0  0  0  0  0  0
   37.3500   28.9940   41.3640 C   0  0  0  0  0  0  0  0  0  0  0  0
   37.4570   27.7270   40.9660 N   0  0  0  0  0  0  0  0  0  0  0  0
   37.9230   26.2460   43.8840 H   0  0  0  0  0  0  0  0  0  0  0  0
   37.7430   28.5030   44.6960 H   0  0  0  0  0  0  0  0  0  0  0  0
   37.3710   30.3210   43.1080 H   0  0  0  0  0  0  0  0  0  0  0  0
   39.5460   22.0300   38.4730 C   0  0  0  0  0  0  0  0  0  0  0  0
   38.7690   21.0310   39.0960 C   0  0  0  0  0  0  0  0  0  0  0  0
   37.8760   21.4260   40.0990 C   0  0  0  0  0  0  0  0  0  0  0  0
   37.7890   22.7460   40.4400 N   0  0  0  0  0  0  0  0  0  0  0  0
   38.5620   23.6690   39.8080 C   0  0  0  0  0  0  0  0  0  0  0  0
   39.4360   23.3080   38.8290 N   0  0  0  0  0  0  0  0  0  0  0  0
   37.7820   25.3080   41.3970 C   0  0  0  0  0  0  0  0  0  0  0  0
   37.2840   24.4320   42.1570 O   0  0  0  0  0  0  0  0  0  0  0  0
   38.4570   25.0410   40.1750 N   0  0  0  0  0  0  0  0  0  0  0  0
   40.2100   21.6410   37.7090 H   0  0  0  0  0  0  0  0  0  0  0  0
   38.7870   19.9740   38.8770 H   0  0  0  0  0  0  0  0  0  0  0  0
   37.2350   20.7370   40.6380 H   0  0  0  0  0  0  0  0  0  0  0  0
   38.8700   25.7730   39.5480 H   0  0  0  0  0  0  0  0  0  0  0  0
   37.3260   32.4900   39.8080 C   0  0  0  0  0  0  0  0  0  0  0  0
   37.1120   32.0870   38.8190 H   0  0  0  0  0  0  0  0  0  0  0  0
   36.4140   33.0550   40.1150 H   0  0  0  0  0  0  0  0  0  0  0  0
   39.4290   31.4780   37.9800 Cl  0  0  0  0  0  0  0  0  0  0  0  0
   39.5820   32.9130   38.9900 C   0  0  0  0  0  0  0  0  0  0  0  0
   38.5550   33.3270   39.8210 C   0  0  0  0  0  0  0  0  0  0  0  0
   38.6710   34.4510   40.6130 C   0  0  0  0  0  0  0  0  0  0  0  0
   39.8640   35.1930   40.5740 C   0  0  0  0  0  0  0  0  0  0  0  0
   40.8830   34.7660   39.7360 C   0  0  0  0  0  0  0  0  0  0  0  0
   40.7600   33.6300   38.9380 C   0  0  0  0  0  0  0  0  0  0  0  0
   37.8460   34.7190   41.2330 H   0  0  0  0  0  0  0  0  0  0  0  0
   39.9310   36.0640   41.1990 H   0  0  0  0  0  0  0  0  0  0  0  0
   41.7910   35.3510   39.7200 H   0  0  0  0  0  0  0  0  0  0  0  0
   42.8160   32.2500   38.7050 C   0  0  2  0  0  3  0  0  0  0  0  0
   41.8470   33.1780   38.0470 C   0  0  2  0  0  3  0  0  0  0  0  0
   42.7010   34.2650   37.5160 C   0  0  0  0  0  3  0  0  0  0  0  0
   42.2080   35.2430   37.6960 H   0  0  0  0  0  0  0  0  0  0  0  0
   43.9040   34.2630   38.1780 O   0  0  0  0  0  0  0  0  0  0  0  0
   44.0820   33.0460   38.7850 C   0  0  0  0  0  3  0  0  0  0  0  0
   44.4640   33.1660   39.8320 H   0  0  0  0  0  0  0  0  0  0  0  0
   42.9910   31.0550   38.0070 O   0  0  0  0  0  0  0  0  0  0  0  0
   43.5140   31.1980   37.1920 H   0  0  0  0  0  0  0  0  0  0  0  0
  1  2  2  0  0  0  0
  1  7  1  0  0  0  0
  3  4  1  0  0  0  0
  4  5  2  0  0  0  0
  4  9  1  0  0  0  0
  5 10  1  0  0  0  0
  6 11  1  0  0  0  0
  6  5  1  0  0  0  0
  7  6  2  0  0  0  0
  8  7  1  0  0  0  0
  8  3  2  0  0  0  0
 12 17  2  0  0  0  0
 12 13  1  0  0  0  0
 13 14  2  0  0  0  0
 14 15  1  0  0  0  0
 14 23  1  0  0  0  0
 16 20  1  0  0  0  0
 16 15  2  0  0  0  0
 17 16  1  0  0  0  0
 18  3  1  0  0  0  0
 18 19  2  0  0  0  0
 20 18  1  0  0  0  0
 21 12  1  0  0  0  0
 22 13  1  0  0  0  0
 24 20  1  0  0  0  0
 25 30  1  0  0  0  0
 25 27  1  0  0  0  0
 25  2  1  0  0  0  0
 26 25  1  0  0  0  0
 28 29  1  0  0  0  0
 29 30  1  0  0  0  0
 30 31  2  0  0  0  0
 31 35  1  0  0  0  0
 32 31  1  0  0  0  0
 32 36  1  0  0  0  0
 33 32  2  0  0  0  0
 34 29  2  0  0  0  0
 34 33  1  0  0  0  0
 37 33  1  0  0  0  0
 38 45  1  6  0  0  0
 38 43  1  0  0  0  0
 39 38  1  0  0  0  0
 39 34  1  1  0  0  0
 40 41  1  0  0  0  0
 40 39  1  0  0  0  0
 40 42  1  0  0  0  0
 42 43  1  0  0  0  0
 43 44  1  0  0  0  0
 46 45  1  0  0  0  0
M  END
>  <minimizedAffinity>
-6.69948578

$$$$

 OpenBabel03242511033D

 46 49  0  0  1  0  0  0  0  0999 V2000
   37.3920   31.6250   40.2490 C   0  0  0  0  0  3  0  0  0  0  0  0
   37.5170   30.7850   39.2590 C   0  0  0  0  0  3  0  0  0  0  0  0
   39.6770   34.4890   40.5120 C   0  0  0  0  0  0  0  0  0  0  0  0
   38.8740   35.4790   39.9280 C   0  0  0  0  0  0  0  0  0  0  0  0
   37.5970   35.2420   39.4460 C   0  0  0  0  0  0  0  0  0  0  0  0
   37.1180   33.9580   39.5600 C   0  0  0  0  0  0  0  0  0  0  0  0
   37.9160   32.9730   40.1390 C   0  0  0  0  0  0  0  0  0  0  0  0
   39.1360   33.2690   40.5830 N   0  0  0  0  0  0  0  0  0  0  0  0
   39.2520   36.4880   39.8410 H   0  0  0  0  0  0  0  0  0  0  0  0
   37.0370   36.0490   39.0120 H   0  0  0  0  0  0  0  0  0  0  0  0
   36.1220   33.7900   39.1800 H   0  0  0  0  0  0  0  0  0  0  0  0
   45.3100   33.5440   42.4650 C   0  0  0  0  0  0  0  0  0  0  0  0
   45.6320   34.8840   42.7650 C   0  0  0  0  0  0  0  0  0  0  0  0
   44.6320   35.8500   42.6000 C   0  0  0  0  0  0  0  0  0  0  0  0
   43.3960   35.4700   42.1600 N   0  0  0  0  0  0  0  0  0  0  0  0
   43.1390   34.1640   41.8850 C   0  0  0  0  0  0  0  0  0  0  0  0
   44.0950   33.2070   42.0370 N   0  0  0  0  0  0  0  0  0  0  0  0
   41.0060   34.8460   40.9850 C   0  0  0  0  0  0  0  0  0  0  0  0
   41.3270   36.0670   40.9730 O   0  0  0  0  0  0  0  0  0  0  0  0
   41.8440   33.7860   41.4270 N   0  0  0  0  0  0  0  0  0  0  0  0
   46.1380   32.8610   42.6180 H   0  0  0  0  0  0  0  0  0  0  0  0
   46.5830   35.2530   43.1160 H   0  0  0  0  0  0  0  0  0  0  0  0
   44.7770   36.9050   42.8030 H   0  0  0  0  0  0  0  0  0  0  0  0
   41.5730   32.7730   41.4340 H   0  0  0  0  0  0  0  0  0  0  0  0
   37.0370   29.3670   39.2080 C   0  0  0  0  0  0  0  0  0  0  0  0
   35.9770   29.4450   38.9710 H   0  0  0  0  0  0  0  0  0  0  0  0
   37.5090   28.8460   38.3410 H   0  0  0  0  0  0  0  0  0  0  0  0
   39.8410   28.4550   39.5230 Cl  0  0  0  0  0  0  0  0  0  0  0  0
   38.5660   28.2150   40.7150 C   0  0  0  0  0  0  0  0  0  0  0  0
   37.2760   28.6700   40.4990 C   0  0  0  0  0  0  0  0  0  0  0  0
   36.2750   28.4840   41.4310 C   0  0  0  0  0  0  0  0  0  0  0  0
   36.5760   27.8150   42.6300 C   0  0  0  0  0  0  0  0  0  0  0  0
   37.8720   27.3660   42.8320 C   0  0  0  0  0  0  0  0  0  0  0  0
   38.8780   27.5570   41.8880 C   0  0  0  0  0  0  0  0  0  0  0  0
   35.3020   28.8560   41.2070 H   0  0  0  0  0  0  0  0  0  0  0  0
   35.7810   27.6820   43.3410 H   0  0  0  0  0  0  0  0  0  0  0  0
   38.0810   26.8550   43.7610 H   0  0  0  0  0  0  0  0  0  0  0  0
   40.4620   25.6450   41.7340 C   0  0  2  0  0  3  0  0  0  0  0  0
   40.2580   27.0780   42.1060 C   0  0  2  0  0  3  0  0  0  0  0  0
   40.7200   27.1490   43.5120 C   0  0  0  0  0  3  0  0  0  0  0  0
   40.0220   27.7810   44.0980 H   0  0  0  0  0  0  0  0  0  0  0  0
   40.7170   25.8890   44.0550 O   0  0  0  0  0  0  0  0  0  0  0  0
   40.7010   24.9610   43.0450 C   0  0  0  0  0  3  0  0  0  0  0  0
   39.9680   24.1400   43.2580 H   0  0  0  0  0  0  0  0  0  0  0  0
   41.5170   25.4540   40.8430 O   0  0  0  0  0  0  0  0  0  0  0  0
   42.3800   25.5740   41.2890 H   0  0  0  0  0  0  0  0  0  0  0  0
  2  1  2  0  0  0  0
  3  8  1  0  0  0  0
  3 18  1  0  0  0  0
  4  3  2  0  0  0  0
  5  6  2  0  0  0  0
  5  4  1  0  0  0  0
  6  7  1  0  0  0  0
  7  1  1  0  0  0  0
  7  8  2  0  0  0  0
  9  4  1  0  0  0  0
 10  5  1  0  0  0  0
 11  6  1  0  0  0  0
 12 21  1  0  0  0  0
 12 13  1  0  0  0  0
 13 22  1  0  0  0  0
 14 13  2  0  0  0  0
 14 23  1  0  0  0  0
 15 14  1  0  0  0  0
 16 17  1  0  0  0  0
 16 15  2  0  0  0  0
 17 12  2  0  0  0  0
 18 20  1  0  0  0  0
 19 18  2  0  0  0  0
 20 24  1  0  0  0  0
 20 16  1  0  0  0  0
 25  2  1  0  0  0  0
 25 30  1  0  0  0  0
 26 25  1  0  0  0  0
 27 25  1  0  0  0  0
 28 29  1  0  0  0  0
 29 34  1  0  0  0  0
 30 29  2  0  0  0  0
 30 31  1  0  0  0  0
 31 32  2  0  0  0  0
 32 33  1  0  0  0  0
 32 36  1  0  0  0  0
 33 37  1  0  0  0  0
 34 33  2  0  0  0  0
 35 31  1  0  0  0  0
 38 45  1  6  0  0  0
 38 39  1  0  0  0  0
 38 43  1  0  0  0  0
 39 34  1  1  0  0  0
 39 40  1  0  0  0  0
 40 42  1  0  0  0  0
 40 41  1  0  0  0  0
 43 44  1  0  0  0  0
 43 42  1  0  0  0  0
 45 46  1  0  0  0  0
M  END
>  <minimizedAffinity>
-6.63045788

$$$$

 OpenBabel03242511033D

 46 49  0  0  1  0  0  0  0  0999 V2000
   38.3480   28.3620   42.6980 C   0  0  0  0  0  3  0  0  0  0  0  0
   37.4340   28.7910   41.8730 C   0  0  0  0  0  3  0  0  0  0  0  0
   38.3020   24.7560   41.9960 C   0  0  0  0  0  0  0  0  0  0  0  0
   39.3240   24.3400   42.8620 C   0  0  0  0  0  0  0  0  0  0  0  0
   40.0360   25.2050   43.6770 C   0  0  0  0  0  0  0  0  0  0  0  0
   39.7010   26.5380   43.6120 C   0  0  0  0  0  0  0  0  0  0  0  0
   38.6860   26.9530   42.7520 C   0  0  0  0  0  0  0  0  0  0  0  0
   38.0400   26.0670   41.9950 N   0  0  0  0  0  0  0  0  0  0  0  0
   39.5850   23.2930   42.9110 H   0  0  0  0  0  0  0  0  0  0  0  0
   40.8060   24.8170   44.3160 H   0  0  0  0  0  0  0  0  0  0  0  0
   40.2650   27.1980   44.2530 H   0  0  0  0  0  0  0  0  0  0  0  0
   37.7070   19.7240   38.7170 C   0  0  0  0  0  0  0  0  0  0  0  0
   36.3830   19.9390   38.2820 C   0  0  0  0  0  0  0  0  0  0  0  0
   35.7590   21.1370   38.6500 C   0  0  0  0  0  0  0  0  0  0  0  0
   36.4430   22.0450   39.4090 N   0  0  0  0  0  0  0  0  0  0  0  0
   37.7180   21.7870   39.8020 C   0  0  0  0  0  0  0  0  0  0  0  0
   38.3440   20.6290   39.4560 N   0  0  0  0  0  0  0  0  0  0  0  0
   37.6170   23.7640   41.1830 C   0  0  0  0  0  0  0  0  0  0  0  0
   36.3660   23.8700   41.0550 O   0  0  0  0  0  0  0  0  0  0  0  0
   38.4150   22.7450   40.5930 N   0  0  0  0  0  0  0  0  0  0  0  0
   38.1160   18.7740   38.3900 H   0  0  0  0  0  0  0  0  0  0  0  0
   35.7870   19.2680   37.6830 H   0  0  0  0  0  0  0  0  0  0  0  0
   34.7460   21.3990   38.3670 H   0  0  0  0  0  0  0  0  0  0  0  0
   39.4540   22.6610   40.7040 H   0  0  0  0  0  0  0  0  0  0  0  0
   36.9680   30.2040   41.6920 C   0  0  0  0  0  0  0  0  0  0  0  0
   35.8840   30.1270   41.6160 H   0  0  0  0  0  0  0  0  0  0  0  0
   37.1710   30.7840   42.6230 H   0  0  0  0  0  0  0  0  0  0  0  0
   39.6420   31.3700   42.2140 Cl  0  0  0  0  0  0  0  0  0  0  0  0
   38.8270   31.3870   40.6530 C   0  0  0  0  0  0  0  0  0  0  0  0
   37.5740   30.8210   40.4830 C   0  0  0  0  0  0  0  0  0  0  0  0
   36.9320   30.8320   39.2620 C   0  0  0  0  0  0  0  0  0  0  0  0
   37.5690   31.4350   38.1630 C   0  0  0  0  0  0  0  0  0  0  0  0
   38.8220   31.9970   38.3490 C   0  0  0  0  0  0  0  0  0  0  0  0
   39.4650   31.9830   39.5840 C   0  0  0  0  0  0  0  0  0  0  0  0
   35.9700   30.3800   39.1940 H   0  0  0  0  0  0  0  0  0  0  0  0
   37.0500   31.4310   37.2220 H   0  0  0  0  0  0  0  0  0  0  0  0
   39.2930   32.4540   37.4900 H   0  0  0  0  0  0  0  0  0  0  0  0
   40.7590   34.0180   40.1930 C   0  0  2  0  0  3  0  0  0  0  0  0
   40.8000   32.5820   39.7790 C   0  0  2  0  0  3  0  0  0  0  0  0
   41.6570   32.5860   38.5700 C   0  0  0  0  0  3  0  0  0  0  0  0
   41.2190   31.9120   37.8060 H   0  0  0  0  0  0  0  0  0  0  0  0
   41.7010   33.8550   38.0480 O   0  0  0  0  0  0  0  0  0  0  0  0
   41.3100   34.7520   39.0090 C   0  0  0  0  0  3  0  0  0  0  0  0
   40.6010   35.5130   38.5900 H   0  0  0  0  0  0  0  0  0  0  0  0
   41.4880   34.2750   41.3540 O   0  0  0  0  0  0  0  0  0  0  0  0
   42.4510   34.2400   41.1800 H   0  0  0  0  0  0  0  0  0  0  0  0
  1  7  1  0  0  0  0
  2  1  2  0  0  0  0
  3  4  1  0  0  0  0
  4  9  1  0  0  0  0
  4  5  2  0  0  0  0
  5 10  1  0  0  0  0
  6  5  1  0  0  0  0
  6 11  1  0  0  0  0
  7  6  2  0  0  0  0
  8  3  2  0  0  0  0
  8  7  1  0  0  0  0
 12 17  1  0  0  0  0
 13 14  1  0  0  0  0
 13 12  2  0  0  0  0
 14 15  2  0  0  0  0
 15 16  1  0  0  0  0
 16 20  1  0  0  0  0
 17 16  2  0  0  0  0
 18  3  1  0  0  0  0
 19 18  2  0  0  0  0
 20 24  1  0  0  0  0
 20 18  1  0  0  0  0
 21 12  1  0  0  0  0
 22 13  1  0  0  0  0
 23 14  1  0  0  0  0
 25  2  1  0  0  0  0
 25 27  1  0  0  0  0
 26 25  1  0  0  0  0
 29 28  1  0  0  0  0
 30 29  1  0  0  0  0
 30 25  1  0  0  0  0
 31 30  2  0  0  0  0
 32 33  2  0  0  0  0
 32 31  1  0  0  0  0
 33 34  1  0  0  0  0
 34 29  2  0  0  0  0
 35 31  1  0  0  0  0
 36 32  1  0  0  0  0
 37 33  1  0  0  0  0
 38 45  1  1  0  0  0
 39 34  1  6  0  0  0
 39 38  1  0  0  0  0
 40 39  1  0  0  0  0
 41 40  1  0  0  0  0
 42 40  1  0  0  0  0
 42 43  1  0  0  0  0
 43 38  1  0  0  0  0
 44 43  1  0  0  0  0
 46 45  1  0  0  0  0
M  END
>  <minimizedAffinity>
-6.58165693

$$$$

 OpenBabel03242511033D

 46 49  0  0  1  0  0  0  0  0999 V2000
   37.1970   29.9950   40.5050 C   0  0  0  0  0  3  0  0  0  0  0  0
   37.5670   31.2310   40.6910 C   0  0  0  0  0  3  0  0  0  0  0  0
   38.9620   27.8570   42.9140 C   0  0  0  0  0  0  0  0  0  0  0  0
   37.8730   27.1330   43.4210 C   0  0  0  0  0  0  0  0  0  0  0  0
   36.5670   27.3200   42.9980 C   0  0  0  0  0  0  0  0  0  0  0  0
   36.3580   28.2740   42.0290 C   0  0  0  0  0  0  0  0  0  0  0  0
   37.4390   28.9940   41.5250 C   0  0  0  0  0  0  0  0  0  0  0  0
   38.6710   28.7630   41.9760 N   0  0  0  0  0  0  0  0  0  0  0  0
   38.0400   26.3840   44.1810 H   0  0  0  0  0  0  0  0  0  0  0  0
   35.7820   26.7290   43.4300 H   0  0  0  0  0  0  0  0  0  0  0  0
   35.3350   28.4070   41.7110 H   0  0  0  0  0  0  0  0  0  0  0  0
   44.7950   28.9080   44.0590 C   0  0  0  0  0  0  0  0  0  0  0  0
   45.1110   27.6440   44.5980 C   0  0  0  0  0  0  0  0  0  0  0  0
   44.1070   26.6680   44.6120 C   0  0  0  0  0  0  0  0  0  0  0  0
   42.8710   26.9680   44.1120 N   0  0  0  0  0  0  0  0  0  0  0  0
   42.6190   28.2040   43.6040 C   0  0  0  0  0  0  0  0  0  0  0  0
   43.5800   29.1680   43.5800 N   0  0  0  0  0  0  0  0  0  0  0  0
   40.2940   27.5810   43.4280 C   0  0  0  0  0  0  0  0  0  0  0  0
   40.4480   26.5500   44.1420 O   0  0  0  0  0  0  0  0  0  0  0  0
   41.3250   28.4980   43.0870 N   0  0  0  0  0  0  0  0  0  0  0  0
   45.6250   29.6050   44.0860 H   0  0  0  0  0  0  0  0  0  0  0  0
   46.0620   27.3410   45.0080 H   0  0  0  0  0  0  0  0  0  0  0  0
   44.2470   25.6670   45.0030 H   0  0  0  0  0  0  0  0  0  0  0  0
   41.1920   29.3530   42.4940 H   0  0  0  0  0  0  0  0  0  0  0  0
   37.3940   32.3820   39.7460 C   0  0  0  0  0  0  0  0  0  0  0  0
   37.2290   31.9160   38.7760 H   0  0  0  0  0  0  0  0  0  0  0  0
   36.4500   32.9250   39.9920 H   0  0  0  0  0  0  0  0  0  0  0  0
   39.5920   31.3590   38.0410 Cl  0  0  0  0  0  0  0  0  0  0  0  0
   39.6560   32.8510   38.9740 C   0  0  0  0  0  0  0  0  0  0  0  0
   38.5880   33.2670   39.7500 C   0  0  0  0  0  0  0  0  0  0  0  0
   38.6340   34.4360   40.4830 C   0  0  0  0  0  0  0  0  0  0  0  0
   39.7980   35.2230   40.4380 C   0  0  0  0  0  0  0  0  0  0  0  0
   40.8590   34.7940   39.6560 C   0  0  0  0  0  0  0  0  0  0  0  0
   40.8060   33.6130   38.9190 C   0  0  0  0  0  0  0  0  0  0  0  0
   37.7800   34.7030   41.0610 H   0  0  0  0  0  0  0  0  0  0  0  0
   39.8100   36.1290   41.0160 H   0  0  0  0  0  0  0  0  0  0  0  0
   41.7440   35.4140   39.6360 H   0  0  0  0  0  0  0  0  0  0  0  0
   42.9330   32.3260   38.8300 C   0  0  2  0  0  3  0  0  0  0  0  0
   41.9380   33.1580   38.0870 C   0  0  2  0  0  3  0  0  0  0  0  0
   42.7530   34.2500   37.5050 C   0  0  0  0  0  3  0  0  0  0  0  0
   42.2080   35.2110   37.6060 H   0  0  0  0  0  0  0  0  0  0  0  0
   43.9350   34.3520   38.1940 O   0  0  0  0  0  0  0  0  0  0  0  0
   44.1560   33.1890   38.8870 C   0  0  0  0  0  3  0  0  0  0  0  0
   44.5030   33.3980   39.9320 H   0  0  0  0  0  0  0  0  0  0  0  0
   43.1860   31.0980   38.2190 O   0  0  0  0  0  0  0  0  0  0  0  0
   43.7240   31.2130   37.4090 H   0  0  0  0  0  0  0  0  0  0  0  0
  1  2  2  0  0  0  0
  1  7  1  0  0  0  0
  3  4  1  0  0  0  0
  3 18  1  0  0  0  0
  4  9  1  0  0  0  0
  5  4  2  0  0  0  0
  5 10  1  0  0  0  0
  6  5  1  0  0  0  0
  7  8  1  0  0  0  0
  7  6  2  0  0  0  0
  8  3  2  0  0  0  0
 11  6  1  0  0  0  0
 12 21  1  0  0  0  0
 12 13  1  0  0  0  0
 13 14  2  0  0  0  0
 13 22  1  0  0  0  0
 14 23  1  0  0  0  0
 15 14  1  0  0  0  0
 16 15  2  0  0  0  0
 17 16  1  0  0  0  0
 17 12  2  0  0  0  0
 18 19  2  0  0  0  0
 20 18  1  0  0  0  0
 20 16  1  0  0  0  0
 24 20  1  0  0  0  0
 25 30  1  0  0  0  0
 25 27  1  0  0  0  0
 25  2  1  0  0  0  0
 26 25  1  0  0  0  0
 28 29  1  0  0  0  0
 29 30  1  0  0  0  0
 30 31  2  0  0  0  0
 31 35  1  0  0  0  0
 32 31  1  0  0  0  0
 32 36  1  0  0  0  0
 33 32  2  0  0  0  0
 34 29  2  0  0  0  0
 34 33  1  0  0  0  0
 37 33  1  0  0  0  0
 38 45  1  6  0  0  0
 38 43  1  0  0  0  0
 39 38  1  0  0  0  0
 39 34  1  1  0  0  0
 40 41  1  0  0  0  0
 40 39  1  0  0  0  0
 40 42  1  0  0  0  0
 42 43  1  0  0  0  0
 43 44  1  0  0  0  0
 46 45  1  0  0  0  0
M  END
>  <minimizedAffinity>
-6.57266378

$$$$

 OpenBabel03242511033D

 46 49  0  0  1  0  0  0  0  0999 V2000
   39.0950   28.1750   43.2930 C   0  0  0  0  0  3  0  0  0  0  0  0
   38.8500   29.1000   42.4060 C   0  0  0  0  0  3  0  0  0  0  0  0
   38.1200   25.0650   41.5990 C   0  0  0  0  0  0  0  0  0  0  0  0
   38.9810   24.1690   42.2480 C   0  0  0  0  0  0  0  0  0  0  0  0
   39.8800   24.5490   43.2320 C   0  0  0  0  0  0  0  0  0  0  0  0
   39.9060   25.8830   43.5680 C   0  0  0  0  0  0  0  0  0  0  0  0
   39.0510   26.7730   42.9230 C   0  0  0  0  0  0  0  0  0  0  0  0
   38.2100   26.3410   41.9850 N   0  0  0  0  0  0  0  0  0  0  0  0
   38.9580   23.1220   41.9820 H   0  0  0  0  0  0  0  0  0  0  0  0
   40.5100   23.8090   43.6870 H   0  0  0  0  0  0  0  0  0  0  0  0
   40.6120   26.1610   44.3360 H   0  0  0  0  0  0  0  0  0  0  0  0
   34.5630   25.3050   36.7280 C   0  0  0  0  0  0  0  0  0  0  0  0
   34.0510   23.9930   36.8050 C   0  0  0  0  0  0  0  0  0  0  0  0
   34.4350   23.2030   37.8950 C   0  0  0  0  0  0  0  0  0  0  0  0
   35.2820   23.7200   38.8340 N   0  0  0  0  0  0  0  0  0  0  0  0
   35.7470   24.9910   38.7110 C   0  0  0  0  0  0  0  0  0  0  0  0
   35.3870   25.7780   37.6600 N   0  0  0  0  0  0  0  0  0  0  0  0
   37.2140   24.5600   40.5790 C   0  0  0  0  0  0  0  0  0  0  0  0
   37.0070   23.3150   40.5390 O   0  0  0  0  0  0  0  0  0  0  0  0
   36.6290   25.5130   39.7010 N   0  0  0  0  0  0  0  0  0  0  0  0
   34.2170   25.8480   35.8560 H   0  0  0  0  0  0  0  0  0  0  0  0
   33.3800   23.5230   36.1020 H   0  0  0  0  0  0  0  0  0  0  0  0
   34.0980   22.1840   38.0470 H   0  0  0  0  0  0  0  0  0  0  0  0
   36.8050   26.5460   39.7370 H   0  0  0  0  0  0  0  0  0  0  0  0
   38.8540   30.5830   42.6190 C   0  0  0  0  0  0  0  0  0  0  0  0
   37.9390   30.9300   42.1410 H   0  0  0  0  0  0  0  0  0  0  0  0
   38.7360   30.8020   43.7060 H   0  0  0  0  0  0  0  0  0  0  0  0
   38.2850   32.0940   40.1320 Cl  0  0  0  0  0  0  0  0  0  0  0  0
   39.8780   31.9320   40.8670 C   0  0  0  0  0  0  0  0  0  0  0  0
   40.0680   31.2090   42.0330 C   0  0  0  0  0  0  0  0  0  0  0  0
   41.3150   31.0800   42.6110 C   0  0  0  0  0  0  0  0  0  0  0  0
   42.4180   31.7000   41.9990 C   0  0  0  0  0  0  0  0  0  0  0  0
   42.2110   32.4210   40.8330 C   0  0  0  0  0  0  0  0  0  0  0  0
   40.9500   32.5470   40.2540 C   0  0  0  0  0  0  0  0  0  0  0  0
   41.3980   30.5110   43.5080 H   0  0  0  0  0  0  0  0  0  0  0  0
   43.3780   31.5870   42.4680 H   0  0  0  0  0  0  0  0  0  0  0  0
   43.0730   32.8900   40.3800 H   0  0  0  0  0  0  0  0  0  0  0  0
   41.1160   32.5740   37.7720 C   0  0  2  0  0  3  0  0  0  0  0  0
   40.7330   33.3160   39.0110 C   0  0  2  0  0  3  0  0  0  0  0  0
   41.5060   34.5760   38.9240 C   0  0  0  0  0  3  0  0  0  0  0  0
   41.9170   34.8270   39.9230 H   0  0  0  0  0  0  0  0  0  0  0  0
   42.5560   34.4060   38.0570 O   0  0  0  0  0  0  0  0  0  0  0  0
   42.3130   33.3160   37.2610 C   0  0  0  0  0  3  0  0  0  0  0  0
   43.2250   32.6720   37.1640 H   0  0  0  0  0  0  0  0  0  0  0  0
   40.0910   32.5190   36.8270 O   0  0  0  0  0  0  0  0  0  0  0  0
   39.9620   33.3880   36.3970 H   0  0  0  0  0  0  0  0  0  0  0  0
  2 25  1  0  0  0  0
  2  1  2  0  0  0  0
  3  8  2  0  0  0  0
  3  4  1  0  0  0  0
  4  5  2  0  0  0  0
  5  6  1  0  0  0  0
  5 10  1  0  0  0  0
  6 11  1  0  0  0  0
  7  1  1  0  0  0  0
  7  6  2  0  0  0  0
  8  7  1  0  0  0  0
  9  4  1  0  0  0  0
 12 13  2  0  0  0  0
 12 17  1  0  0  0  0
 13 14  1  0  0  0  0
 14 23  1  0  0  0  0
 14 15  2  0  0  0  0
 16 15  1  0  0  0  0
 16 20  1  0  0  0  0
 17 16  2  0  0  0  0
 18  3  1  0  0  0  0
 19 18  2  0  0  0  0
 20 24  1  0  0  0  0
 20 18  1  0  0  0  0
 21 12  1  0  0  0  0
 22 13  1  0  0  0  0
 25 27  1  0  0  0  0
 26 25  1  0  0  0  0
 28 29  1  0  0  0  0
 29 30  1  0  0  0  0
 30 31  2  0  0  0  0
 30 25  1  0  0  0  0
 31 35  1  0  0  0  0
 32 36  1  0  0  0  0
 32 31  1  0  0  0  0
 33 32  2  0  0  0  0
 34 33  1  0  0  0  0
 34 29  2  0  0  0  0
 37 33  1  0  0  0  0
 38 45  1  6  0  0  0
 38 39  1  0  0  0  0
 39 34  1  1  0  0  0
 40 39  1  0  0  0  0
 40 41  1  0  0  0  0
 42 40  1  0  0  0  0
 43 38  1  0  0  0  0
 43 42  1  0  0  0  0
 44 43  1  0  0  0  0
 46 45  1  0  0  0  0
M  END
>  <minimizedAffinity>
-6.48814821

$$$$
