
 OpenBabel03242514433D

 21 22  0  0  1  0  0  0  0  0999 V2000
   45.6050   34.9950   43.8720 C   0  0  0  0  0  0  0  0  0  0  0  0
   46.6800   34.4030   43.2150 C   0  0  0  0  0  0  0  0  0  0  0  0
   47.3320   33.3440   43.8510 C   0  0  0  0  0  0  0  0  0  0  0  0
   46.9000   32.9360   45.0700 N   0  0  0  0  0  0  0  0  0  0  0  0
   45.8380   33.5490   45.6750 C   0  0  0  0  0  0  0  0  0  0  0  0
   45.1960   34.5700   45.0810 N   0  0  0  0  0  0  0  0  0  0  0  0
   48.1530   32.8620   43.3940 H   0  0  0  0  0  0  0  0  0  0  0  0
   45.5810   33.1420   46.6430 H   0  0  0  0  0  0  0  0  0  0  0  0
   47.1290   33.7250   40.9340 C   0  0  2  0  0  0  0  0  0  0  0  0
   47.0880   34.9030   41.8940 C   0  0  2  0  0  0  0  0  0  0  0  0
   48.4810   35.4240   41.8160 C   0  0  0  0  0  0  0  0  0  0  0  0
   48.7480   36.0910   42.6520 H   0  0  0  0  0  0  0  0  0  0  0  0
   49.2550   34.2890   41.7330 O   0  0  0  0  0  0  0  0  0  0  0  0
   48.6000   33.5140   40.7800 C   0  0  0  0  0  0  0  0  0  0  0  0
   48.9330   33.8280   39.7720 H   0  0  0  0  0  0  0  0  0  0  0  0
   46.5090   34.1200   39.7560 O   0  0  0  0  0  0  0  0  0  0  0  0
   47.1080   34.0420   38.9700 H   0  0  0  0  0  0  0  0  0  0  0  0
   44.9130   36.1260   43.1870 C   0  0  0  0  0  0  0  0  0  0  0  0
   44.4380   35.7890   42.2220 H   0  0  0  0  0  0  0  0  0  0  0  0
   44.1460   36.5490   43.8950 H   0  0  0  0  0  0  0  0  0  0  0  0
   45.6250   36.9800   43.0060 H   0  0  0  0  0  0  0  0  0  0  0  0
  1  6  1  0  0  0  0
  2  3  1  0  0  0  0
  2  1  2  0  0  0  0
  3  4  2  0  0  0  0
  4  5  1  0  0  0  0
  5  8  1  0  0  0  0
  6  5  2  0  0  0  0
  7  3  1  0  0  0  0
  9 16  1  6  0  0  0
  9 10  1  0  0  0  0
 10  2  1  1  0  0  0
 11 10  1  0  0  0  0
 11 12  1  0  0  0  0
 13 11  1  0  0  0  0
 14  9  1  0  0  0  0
 14 13  1  0  0  0  0
 15 14  1  0  0  0  0
 17 16  1  0  0  0  0
 18  1  1  0  0  0  0
 18 20  1  0  0  0  0
 19 18  1  0  0  0  0
 21 18  1  0  0  0  0
M  END
>  <minimizedAffinity>
-4.37650585

>  <minimizedRMSD>
2.13944483

$$$$
