
 OpenBabel03252503413D

 21 22  0  0  1  0  0  0  0  0999 V2000
   45.3680   34.1080   45.1370 C   0  0  0  0  0  0  0  0  0  0  0  0
   45.2950   33.2920   44.0010 C   0  0  0  0  0  0  0  0  0  0  0  0
   45.7120   31.9730   44.1300 C   0  0  0  0  0  0  0  0  0  0  0  0
   46.1620   31.5510   45.3310 N   0  0  0  0  0  0  0  0  0  0  0  0
   46.2230   32.3560   46.4150 C   0  0  0  0  0  0  0  0  0  0  0  0
   45.8220   33.6490   46.3200 N   0  0  0  0  0  0  0  0  0  0  0  0
   45.0660   35.1540   45.1450 H   0  0  0  0  0  0  0  0  0  0  0  0
   45.6490   31.3620   43.2460 H   0  0  0  0  0  0  0  0  0  0  0  0
   46.5700   30.3540   47.8720 C   0  0  2  0  0  3  0  0  0  0  0  0
   46.7300   31.8310   47.7150 C   0  0  2  0  0  3  0  0  0  0  0  0
   45.7510   32.3500   48.7710 C   0  0  0  0  0  3  0  0  0  0  0  0
   45.4790   33.3850   48.4590 H   0  0  0  0  0  0  0  0  0  0  0  0
   44.6860   31.4720   48.6940 O   0  0  0  0  0  0  0  0  0  0  0  0
   45.2760   30.2090   48.6460 C   0  0  0  0  0  3  0  0  0  0  0  0
   44.5750   29.5000   48.1320 H   0  0  0  0  0  0  0  0  0  0  0  0
   47.6300   29.8450   48.6120 O   0  0  0  0  0  0  0  0  0  0  0  0
   48.0550   29.0590   48.1480 H   0  0  0  0  0  0  0  0  0  0  0  0
   44.7790   33.9240   42.7770 C   0  0  0  0  0  0  0  0  0  0  0  0
   44.3860   33.1180   42.1160 H   0  0  0  0  0  0  0  0  0  0  0  0
   45.6130   34.4780   42.2740 H   0  0  0  0  0  0  0  0  0  0  0  0
   43.9350   34.5880   42.9970 H   0  0  0  0  0  0  0  0  0  0  0  0
  1  7  1  0  0  0  0
  1  6  1  0  0  0  0
  2  3  1  0  0  0  0
  2  1  2  0  0  0  0
  3  4  2  0  0  0  0
  4  5  1  0  0  0  0
  6  5  2  0  0  0  0
  8  3  1  0  0  0  0
  9 16  1  1  0  0  0
  9 14  1  0  0  0  0
 10  5  1  6  0  0  0
 10  9  1  0  0  0  0
 10 11  1  0  0  0  0
 12 11  1  0  0  0  0
 13 11  1  0  0  0  0
 14 13  1  0  0  0  0
 15 14  1  0  0  0  0
 17 16  1  0  0  0  0
 18 21  1  0  0  0  0
 18  2  1  0  0  0  0
 19 18  1  0  0  0  0
 20 18  1  0  0  0  0
M  END
>  <minimizedAffinity>
-3.94087076

>  <minimizedRMSD>
2.04837012

$$$$
