
 OpenBabel03242523223D

 43 46  0  0  1  0  0  0  0  0999 V2000
   47.3650   32.4970   44.4110 C   0  0  0  0  0  0  0  0  0  0  0  0
   48.1550   32.7470   43.3720 C   0  0  0  0  0  0  0  0  0  0  0  0
   48.9300   31.6790   42.9710 C   0  0  0  0  0  0  0  0  0  0  0  0
   48.8150   30.4710   43.6760 N   0  0  0  0  0  0  0  0  0  0  0  0
   48.0210   30.2920   44.6920 C   0  0  0  0  0  0  0  0  0  0  0  0
   47.2280   31.3370   45.1240 N   0  0  0  0  0  0  0  0  0  0  0  0
   49.6470   31.6190   42.1650 H   0  0  0  0  0  0  0  0  0  0  0  0
   48.0290   29.3000   45.1530 H   0  0  0  0  0  0  0  0  0  0  0  0
   48.3620   33.9880   42.7240 C   0  0  1  0  0  0  0  0  0  0  0  0
   49.2140   34.2910   41.7080 C   0  0  0  0  0  0  0  0  0  0  0  0
   47.7760   34.2140   41.3000 C   0  0  1  0  0  0  0  0  0  0  0  0
   48.2040   34.8530   43.4260 H   0  0  0  0  0  0  0  0  0  0  0  0
   49.9120   33.4920   41.3160 H   0  0  0  0  0  0  0  0  0  0  0  0
   49.6780   35.2730   41.4650 H   0  0  0  0  0  0  0  0  0  0  0  0
   47.2080   35.1630   41.2020 H   0  0  0  0  0  0  0  0  0  0  0  0
   46.3040   33.3720   39.4170 C   0  0  1  0  0  3  0  0  0  0  0  0
   47.4130   33.1340   40.3910 C   0  0  1  0  0  3  0  0  0  0  0  0
   48.5950   32.9050   39.4760 C   0  0  0  0  0  3  0  0  0  0  0  0
   49.5360   33.2090   39.9820 H   0  0  0  0  0  0  0  0  0  0  0  0
   48.3560   33.7520   38.4180 O   0  0  0  0  0  0  0  0  0  0  0  0
   47.0020   33.5930   38.1140 C   0  0  0  0  0  3  0  0  0  0  0  0
   46.5850   34.4920   37.6340 H   0  0  0  0  0  0  0  0  0  0  0  0
   45.5800   32.1680   39.2930 O   0  0  0  0  0  0  0  0  0  0  0  0
   45.7510   31.7040   38.4440 H   0  0  0  0  0  0  0  0  0  0  0  0
   46.3820   33.4250   45.0090 C   0  0  0  0  0  0  0  0  0  0  0  0
   45.8780   34.0240   45.9150 O   0  0  0  0  0  0  0  0  0  0  0  0
   44.7320   31.4040   43.3580 Cl  0  0  0  0  0  0  0  0  0  0  0  0
   44.6810   33.1350   43.0600 C   0  0  0  0  0  0  0  0  0  0  0  0
   45.4880   33.9270   43.9170 C   0  0  0  0  0  0  0  0  0  0  0  0
   45.3580   35.2580   43.5900 C   0  0  0  0  0  0  0  0  0  0  0  0
   44.6400   35.8580   42.6520 C   0  0  0  0  0  0  0  0  0  0  0  0
   43.8830   35.0230   41.8570 C   0  0  0  0  0  0  0  0  0  0  0  0
   43.8970   33.6750   42.0540 C   0  0  0  0  0  0  0  0  0  0  0  0
   45.9150   35.9980   44.2110 H   0  0  0  0  0  0  0  0  0  0  0  0
   44.6030   36.9300   42.4660 H   0  0  0  0  0  0  0  0  0  0  0  0
   43.2700   35.4850   41.0620 H   0  0  0  0  0  0  0  0  0  0  0  0
   43.1000   32.9560   41.2030 O   0  0  0  0  0  0  0  0  0  0  0  0
   41.0390   31.7180   40.1550 O   0  0  0  0  0  0  0  0  0  0  0  0
   41.5170   32.3860   41.4200 P   0  0  0  0  0  0  0  0  0  0  0  0
   41.4820   31.3130   42.7320 O   0  0  0  0  0  0  0  0  0  0  0  0
   41.5080   31.7980   43.5770 H   0  0  0  0  0  0  0  0  0  0  0  0
   40.4600   33.6440   41.8350 O   0  0  0  0  0  0  0  0  0  0  0  0
   39.6280   33.2450   42.2020 H   0  0  0  0  0  0  0  0  0  0  0  0
  1 25  1  0  0  0  0
  1  6  1  0  0  0  0
  2  1  2  0  0  0  0
  3  2  1  0  0  0  0
  3  4  2  0  0  0  0
  4  5  1  0  0  0  0
  5  6  2  0  0  0  0
  5  8  1  0  0  0  0
  7  3  1  0  0  0  0
  9  2  1  0  0  0  0
  9 12  1  1  0  0  0
 10  9  1  0  0  0  0
 11 15  1  6  0  0  0
 11 10  1  0  0  0  0
 11  9  1  0  0  0  0
 13 10  1  0  0  0  0
 14 10  1  0  0  0  0
 16 23  1  6  0  0  0
 16 17  1  0  0  0  0
 17 18  1  6  0  0  0
 17 11  1  0  0  0  0
 18 19  1  0  0  0  0
 20 18  1  0  0  0  0
 21 20  1  0  0  0  0
 21 16  1  0  0  0  0
 22 21  1  0  0  0  0
 24 23  1  0  0  0  0
 25 26  2  0  0  0  0
 28 27  1  0  0  0  0
 28 29  1  0  0  0  0
 29 25  1  0  0  0  0
 30 29  2  0  0  0  0
 30 34  1  0  0  0  0
 31 30  1  0  0  0  0
 32 33  1  0  0  0  0
 32 31  2  0  0  0  0
 33 28  2  0  0  0  0
 35 31  1  0  0  0  0
 36 32  1  0  0  0  0
 37 39  1  0  0  0  0
 37 33  1  0  0  0  0
 38 39  2  0  0  0  0
 39 42  1  0  0  0  0
 39 40  1  0  0  0  0
 40 41  1  0  0  0  0
 42 43  1  0  0  0  0
M  END
>  <minimizedAffinity>
-5.53766346

>  <minimizedRMSD>
1.50458765

$$$$
