
 OpenBabel03252509043D

 48 50  0  0  1  0  0  0  0  0999 V2000
   46.7660   34.3600   43.6370 N   0  0  0  0  0  0  0  0  0  0  0  0
   46.3930   35.2620   42.6160 C   0  0  0  0  0  0  0  0  0  0  0  0
   44.8900   35.4000   42.4270 C   0  0  0  0  0  0  0  0  0  0  0  0
   44.1060   35.3040   43.7140 C   0  0  0  0  0  0  0  0  0  0  0  0
   45.0180   35.1680   44.9180 C   0  0  0  0  0  0  0  0  0  0  0  0
   45.8790   33.8850   44.5710 C   0  0  2  0  0  0  0  0  0  0  0  0
   46.8050   35.0620   41.6220 H   0  0  0  0  0  0  0  0  0  0  0  0
   46.7660   36.2700   42.9000 H   0  0  0  0  0  0  0  0  0  0  0  0
   44.7140   36.3520   41.8850 H   0  0  0  0  0  0  0  0  0  0  0  0
   44.5820   34.5810   41.7330 H   0  0  0  0  0  0  0  0  0  0  0  0
   43.4300   34.4330   43.6990 H   0  0  0  0  0  0  0  0  0  0  0  0
   43.4780   36.2000   43.8780 H   0  0  0  0  0  0  0  0  0  0  0  0
   45.6950   36.0100   45.0510 H   0  0  0  0  0  0  0  0  0  0  0  0
   44.3830   34.9120   45.7800 H   0  0  0  0  0  0  0  0  0  0  0  0
   45.1650   33.0990   44.2550 H   0  0  0  0  0  0  0  0  0  0  0  0
   47.9340   33.5720   43.3330 C   0  0  0  0  0  0  0  0  0  0  0  0
   48.3270   33.1990   44.3240 H   0  0  0  0  0  0  0  0  0  0  0  0
   48.7060   34.1650   42.8310 H   0  0  0  0  0  0  0  0  0  0  0  0
   47.4990   32.3760   42.5690 C   0  0  0  0  0  0  0  0  0  0  0  0
   47.6090   31.4090   43.1060 H   0  0  0  0  0  0  0  0  0  0  0  0
   46.4070   32.4210   42.3040 H   0  0  0  0  0  0  0  0  0  0  0  0
   50.0770   31.5580   39.9670 C   0  0  0  0  0  0  0  0  0  0  0  0
   49.3810   31.6210   41.1920 C   0  0  0  0  0  0  0  0  0  0  0  0
   48.2080   32.3250   41.2700 C   0  0  0  0  0  0  0  0  0  0  0  0
   47.7840   32.9200   40.1600 N   0  0  0  0  0  0  0  0  0  0  0  0
   48.4290   32.8700   38.9930 C   0  0  0  0  0  0  0  0  0  0  0  0
   49.5900   32.1850   38.8780 N   0  0  0  0  0  0  0  0  0  0  0  0
   50.9980   30.9740   40.0080 H   0  0  0  0  0  0  0  0  0  0  0  0
   49.7560   31.1240   42.0770 H   0  0  0  0  0  0  0  0  0  0  0  0
   48.0740   33.3610   38.0880 H   0  0  0  0  0  0  0  0  0  0  0  0
   46.4550   33.6250   45.8020 O   0  0  0  0  0  0  0  0  0  0  0  0
   45.5790   31.1750   45.2240 O   0  0  0  0  0  0  0  0  0  0  0  0
   46.1540   32.0550   46.3310 P   0  0  2  0  0  0  0  0  0  0  0  0
   44.8950   32.1990   47.4900 O   0  0  0  0  0  0  0  0  0  0  0  0
   45.2770   32.2050   48.4030 H   0  0  0  0  0  0  0  0  0  0  0  0
   47.4680   31.3540   47.0870 O   0  0  0  0  0  0  0  0  0  0  0  0
   47.0490   30.2020   47.7200 C   0  0  0  0  0  0  0  0  0  0  0  0
   45.9510   30.0680   47.5130 H   0  0  0  0  0  0  0  0  0  0  0  0
   47.2120   30.1520   48.7930 H   0  0  0  0  0  0  0  0  0  0  0  0
   49.9950   28.5120   46.7870 C   0  0  2  0  0  3  0  0  0  0  0  0
   48.9520   29.4620   46.2730 C   0  0  0  0  0  3  0  0  0  0  0  0
   49.2000   30.5340   46.4020 H   0  0  0  0  0  0  0  0  0  0  0  0
   47.7060   29.0220   46.9890 C   0  0  1  0  0  3  0  0  0  0  0  0
   48.0410   28.0180   47.8570 O   0  0  0  0  0  0  0  0  0  0  0  0
   49.3990   28.1010   48.1170 C   0  0  0  0  0  3  0  0  0  0  0  0
   49.7840   27.1070   48.4520 H   0  0  0  0  0  0  0  0  0  0  0  0
   51.1880   29.2120   46.9590 O   0  0  0  0  0  0  0  0  0  0  0  0
   50.9480   30.1540   47.2220 H   0  0  0  0  0  0  0  0  0  0  0  0
  1  6  1  0  0  0  0
  2  8  1  0  0  0  0
  2  1  1  0  0  0  0
  3  2  1  0  0  0  0
  3  4  1  0  0  0  0
  4 12  1  0  0  0  0
  4  5  1  0  0  0  0
  5 13  1  0  0  0  0
  5 14  1  0  0  0  0
  6 15  1  6  0  0  0
  6  5  1  0  0  0  0
  6 31  1  0  0  0  0
  7  2  1  0  0  0  0
  9  3  1  0  0  0  0
 10  3  1  0  0  0  0
 11  4  1  0  0  0  0
 16  1  1  0  0  0  0
 16 17  1  0  0  0  0
 18 16  1  0  0  0  0
 19 20  1  0  0  0  0
 19 16  1  0  0  0  0
 21 19  1  0  0  0  0
 22 28  1  0  0  0  0
 22 23  1  0  0  0  0
 23 24  2  0  0  0  0
 23 29  1  0  0  0  0
 24 19  1  0  0  0  0
 25 24  1  0  0  0  0
 26 25  2  0  0  0  0
 27 26  1  0  0  0  0
 27 22  2  0  0  0  0
 30 26  1  0  0  0  0
 31 33  1  0  0  0  0
 33 32  2  6  0  0  0
 33 36  1  0  0  0  0
 33 34  1  0  0  0  0
 34 35  1  0  0  0  0
 36 37  1  0  0  0  0
 37 39  1  0  0  0  0
 38 37  1  0  0  0  0
 40 47  1  1  0  0  0
 40 45  1  0  0  0  0
 41 42  1  0  0  0  0
 41 40  1  0  0  0  0
 41 43  1  0  0  0  0
 43 37  1  1  0  0  0
 43 44  1  0  0  0  0
 44 45  1  0  0  0  0
 45 46  1  0  0  0  0
 47 48  1  0  0  0  0
M  END
>  <minimizedAffinity>
-4.26523829

>  <minimizedRMSD>
1.47491705

$$$$
