
 OpenBabel03252505363D

 33 35  0  0  1  0  0  0  0  0999 V2000
   44.6870   35.9040   45.1530 C   0  0  0  0  0  0  0  0  0  0  0  0
   45.4160   35.9280   43.9280 C   0  0  0  0  0  0  0  0  0  0  0  0
   46.0900   34.7830   43.5630 C   0  0  0  0  0  0  0  0  0  0  0  0
   46.0300   33.6940   44.3810 N   0  0  0  0  0  0  0  0  0  0  0  0
   45.3240   33.7200   45.5400 C   0  0  0  0  0  0  0  0  0  0  0  0
   44.6540   34.8100   45.9280 N   0  0  0  0  0  0  0  0  0  0  0  0
   45.2990   32.5770   46.3960 N   0  0  0  0  0  0  0  0  0  0  0  0
   44.1240   36.7460   45.5300 H   0  0  0  0  0  0  0  0  0  0  0  0
   44.6490   31.7540   46.3490 H   0  0  0  0  0  0  0  0  0  0  0  0
   46.0770   32.7610   47.0710 H   0  0  0  0  0  0  0  0  0  0  0  0
   46.8520   34.6660   42.3560 C   0  0  0  0  0  0  0  0  0  0  0  0
   48.1930   35.0250   42.4020 C   0  0  0  0  0  0  0  0  0  0  0  0
   49.0200   34.9430   41.2700 C   0  0  0  0  0  0  0  0  0  0  0  0
   48.5010   34.5000   40.0860 C   0  0  0  0  0  0  0  0  0  0  0  0
   47.1900   34.1490   40.0450 C   0  0  0  0  0  0  0  0  0  0  0  0
   46.3610   34.2240   41.1530 C   0  0  0  0  0  0  0  0  0  0  0  0
   48.6290   35.3790   43.3290 H   0  0  0  0  0  0  0  0  0  0  0  0
   50.0680   35.2500   41.4050 H   0  0  0  0  0  0  0  0  0  0  0  0
   49.1960   34.4630   39.2550 H   0  0  0  0  0  0  0  0  0  0  0  0
   46.8080   33.7980   39.0820 H   0  0  0  0  0  0  0  0  0  0  0  0
   44.9330   33.8260   41.0830 C   0  0  0  0  0  0  0  0  0  0  0  0
   44.7520   33.0810   39.9210 F   0  0  0  0  0  0  0  0  0  0  0  0
   44.1430   34.9570   41.0500 F   0  0  0  0  0  0  0  0  0  0  0  0
   44.5010   33.0870   42.1570 F   0  0  0  0  0  0  0  0  0  0  0  0
   45.6990   38.3870   44.1100 C   0  0  1  0  0  3  0  0  0  0  0  0
   45.4520   37.1860   43.2020 C   0  0  2  0  0  3  0  0  0  0  0  0
   44.1840   37.5990   42.5230 C   0  0  0  0  0  3  0  0  0  0  0  0
   43.3020   37.6500   43.1850 H   0  0  0  0  0  0  0  0  0  0  0  0
   44.4790   38.9100   42.1690 O   0  0  0  0  0  0  0  0  0  0  0  0
   45.1810   39.4880   43.2020 C   0  0  0  0  0  3  0  0  0  0  0  0
   44.6400   40.2830   43.7350 H   0  0  0  0  0  0  0  0  0  0  0  0
   44.9290   38.3400   45.2570 O   0  0  0  0  0  0  0  0  0  0  0  0
   45.5260   38.4090   46.0610 H   0  0  0  0  0  0  0  0  0  0  0  0
  1  8  1  0  0  0  0
  1  6  1  0  0  0  0
  2  1  2  0  0  0  0
  3  2  1  0  0  0  0
  3  4  2  0  0  0  0
  4  5  1  0  0  0  0
  5  6  2  0  0  0  0
  5  7  1  0  0  0  0
  7 10  1  0  0  0  0
  9  7  1  0  0  0  0
 11 12  1  0  0  0  0
 11  3  1  0  0  0  0
 12 17  1  0  0  0  0
 13 18  1  0  0  0  0
 13 12  2  0  0  0  0
 14 13  1  0  0  0  0
 15 14  2  0  0  0  0
 15 16  1  0  0  0  0
 16 11  2  0  0  0  0
 19 14  1  0  0  0  0
 20 15  1  0  0  0  0
 21 16  1  0  0  0  0
 21 24  1  0  0  0  0
 22 21  1  0  0  0  0
 23 21  1  0  0  0  0
 25 32  1  1  0  0  0
 26  2  1  1  0  0  0
 26 25  1  0  0  0  0
 27 28  1  0  0  0  0
 27 26  1  0  0  0  0
 29 27  1  0  0  0  0
 29 30  1  0  0  0  0
 30 31  1  0  0  0  0
 30 25  1  0  0  0  0
 32 33  1  0  0  0  0
M  END
>  <minimizedAffinity>
-1.90119421

>  <minimizedRMSD>
0.701731026

$$$$
