REMARK  Name = 
REMARK  3 active torsions:
REMARK  status: ('A' for Active; 'I' for Inactive)
REMARK    1  A    between atoms: C_3  and  C_7
REMARK    2  A    between atoms: C_5  and  C_19
REMARK    3  A    between atoms: O_17  and  C_18
REMARK                            x       y       z     vdW  Elec       q    Type
REMARK                         _______ _______ _______ _____ _____    ______ ____
ROOT
ATOM      1  C   UNL     1      44.627  35.933  44.338  0.00  0.00    +0.000 A 
ATOM      2  C   UNL     1      45.343  35.927  43.129  0.00  0.00    +0.000 A 
ATOM      3  C   UNL     1      46.275  34.892  43.004  0.00  0.00    +0.000 A 
ATOM      4  N   UNL     1      46.434  33.980  44.020  0.00  0.00    +0.000 NA
ATOM      5  C   UNL     1      45.708  34.043  45.164  0.00  0.00    +0.000 A 
ATOM      6  N   UNL     1      44.806  35.026  45.311  0.00  0.00    +0.000 NA
ATOM      7  H   UNL     1      43.880  36.713  44.508  0.00  0.00    +0.000 HD
ATOM      8  H   UNL     1      45.197  36.649  42.360  0.00  0.00    +0.000 HD
ENDROOT
BRANCH   3   9
ATOM      9  C   UNL     1      47.093  34.759  41.750  0.00  0.00    +0.000 C 
ATOM     10  C   UNL     1      48.408  35.504  41.836  0.00  0.00    +0.000 C 
ATOM     11  C   UNL     1      48.302  33.950  41.806  0.00  0.00    +0.000 C 
ATOM     12  H   UNL     1      46.512  34.879  40.816  0.00  0.00    +0.000 HD
ATOM     13  H   UNL     1      48.737  35.962  40.881  0.00  0.00    +0.000 HD
ATOM     14  H   UNL     1      48.704  35.983  42.771  0.00  0.00    +0.000 HD
ATOM     15  H   UNL     1      48.582  33.500  42.802  0.00  0.00    +0.000 HD
ATOM     16  H   UNL     1      48.750  33.459  40.921  0.00  0.00    +0.000 HD
ENDBRANCH   3   9
BRANCH   5  18
ATOM     17  C   UNL     1      47.206  32.128  45.532  0.00  0.00    +0.000 C 
ATOM     18  C   UNL     1      46.066  32.946  46.099  0.00  0.00    +0.000 C 
ATOM     19  C   UNL     1      46.707  33.507  47.362  0.00  0.00    +0.000 C 
ATOM     20  H   UNL     1      46.088  33.260  48.239  0.00  0.00    +0.000 HD
ATOM     21  O   UNL     1      47.959  32.939  47.479  0.00  0.00    +0.000 OA
ATOM     22  C   UNL     1      47.941  31.734  46.818  0.00  0.00    +0.000 C 
ATOM     23  H   UNL     1      47.308  31.045  47.395  0.00  0.00    +0.000 HD
BRANCH  17  24
ATOM     24  O   UNL     1      48.008  32.858  44.692  0.00  0.00    +0.000 OA
ATOM     25  H   UNL     1      48.969  32.564  44.722  0.00  0.00    +0.000 HD
ENDBRANCH  17  24
ENDBRANCH   5  18
TORSDOF 3
