
 OpenBabel03242521463D

 47 50  0  0  1  0  0  0  0  0999 V2000
   45.0560   36.5840   42.7650 C   0  0  0  0  0  0  0  0  0  0  0  0
   44.1240   36.2620   42.2690 H   0  0  0  0  0  0  0  0  0  0  0  0
   45.8680   36.8310   42.0650 H   0  0  0  0  0  0  0  0  0  0  0  0
   45.5280   35.4500   43.6480 C   0  0  0  0  0  0  0  0  0  0  0  0
   46.6070   34.6710   43.2080 C   0  0  0  0  0  0  0  0  0  0  0  0
   47.0670   33.6170   44.0190 C   0  0  0  0  0  0  0  0  0  0  0  0
   46.4480   33.4130   45.1660 N   0  0  0  0  0  0  0  0  0  0  0  0
   45.4060   34.1720   45.5790 C   0  0  0  0  0  0  0  0  0  0  0  0
   44.9440   35.1900   44.8230 N   0  0  0  0  0  0  0  0  0  0  0  0
   47.0220   34.9380   42.2580 H   0  0  0  0  0  0  0  0  0  0  0  0
   44.9290   33.9610   46.5390 H   0  0  0  0  0  0  0  0  0  0  0  0
   49.1460   33.6080   42.6520 C   0  0  2  0  0  0  0  0  0  0  0  0
   48.1880   32.8620   43.4850 C   0  0  2  0  0  0  0  0  0  0  0  0
   47.8020   31.7960   42.5960 O   0  0  0  0  0  0  0  0  0  0  0  0
   49.0600   31.3180   42.2350 C   0  0  0  0  0  0  0  0  0  0  0  0
   50.0520   32.4270   42.2360 C   0  0  1  0  0  0  0  0  0  0  0  0
   48.7010   33.9550   41.6900 H   0  0  0  0  0  0  0  0  0  0  0  0
   48.7300   32.3160   44.3040 H   0  0  0  0  0  0  0  0  0  0  0  0
   49.0340   30.7790   41.2840 H   0  0  0  0  0  0  0  0  0  0  0  0
   49.3800   30.5700   43.0070 H   0  0  0  0  0  0  0  0  0  0  0  0
   50.8200   32.3610   43.0430 H   0  0  0  0  0  0  0  0  0  0  0  0
   49.7990   34.6240   43.2550 O   0  0  0  0  0  0  0  0  0  0  0  0
   49.4740   35.5050   42.9360 H   0  0  0  0  0  0  0  0  0  0  0  0
   50.6080   32.7090   40.9840 O   0  0  0  0  0  0  0  0  0  0  0  0
   51.5710   32.5730   41.0830 H   0  0  0  0  0  0  0  0  0  0  0  0
   45.5530   38.8760   43.8520 C   0  0  0  0  0  0  0  0  0  0  0  0
   46.5770   38.9890   43.1050 O   0  0  0  0  0  0  0  0  0  0  0  0
   44.7800   37.7020   43.6510 N   0  0  0  0  0  0  0  0  0  0  0  0
   43.8880   37.6370   44.2240 H   0  0  0  0  0  0  0  0  0  0  0  0
   45.1680   39.8600   44.8510 C   0  0  0  0  0  0  0  0  0  0  0  0
   45.1100   39.5050   46.1590 C   0  0  0  0  0  0  0  0  0  0  0  0
   44.7340   40.5020   47.0540 C   0  0  0  0  0  0  0  0  0  0  0  0
   44.4230   41.8060   46.6840 C   0  0  0  0  0  0  0  0  0  0  0  0
   44.5050   42.0780   45.3530 C   0  0  0  0  0  0  0  0  0  0  0  0
   44.8650   41.1310   44.4890 N   0  0  0  0  0  0  0  0  0  0  0  0
   45.3380   38.5070   46.5320 H   0  0  0  0  0  0  0  0  0  0  0  0
   44.6700   40.2750   48.1270 H   0  0  0  0  0  0  0  0  0  0  0  0
   44.1360   42.5440   47.4210 H   0  0  0  0  0  0  0  0  0  0  0  0
   43.5240   44.2380   45.9280 C   0  0  1  0  0  3  0  0  0  0  0  0
   44.1930   43.4520   44.8250 C   0  0  1  0  0  3  0  0  0  0  0  0
   45.4330   44.2390   44.5700 C   0  0  0  0  0  3  0  0  0  0  0  0
   46.2450   43.6000   44.1550 H   0  0  0  0  0  0  0  0  0  0  0  0
   45.7780   44.8760   45.7530 O   0  0  0  0  0  0  0  0  0  0  0  0
   44.6330   45.0560   46.4860 C   0  0  0  0  0  3  0  0  0  0  0  0
   44.7560   44.8350   47.5800 H   0  0  0  0  0  0  0  0  0  0  0  0
   42.5660   45.0880   45.3650 O   0  0  0  0  0  0  0  0  0  0  0  0
   42.9360   46.0070   45.2400 H   0  0  0  0  0  0  0  0  0  0  0  0
  1  4  1  0  0  0  0
  1 28  1  0  0  0  0
  2  1  1  0  0  0  0
  3  1  1  0  0  0  0
  4  9  1  0  0  0  0
  5  4  2  0  0  0  0
  5  6  1  0  0  0  0
  6  7  2  0  0  0  0
  7  8  1  0  0  0  0
  8 11  1  0  0  0  0
  9  8  2  0  0  0  0
 10  5  1  0  0  0  0
 12 17  1  6  0  0  0
 12 22  1  0  0  0  0
 12 13  1  0  0  0  0
 13  6  1  0  0  0  0
 13 18  1  1  0  0  0
 14 13  1  0  0  0  0
 15 16  1  0  0  0  0
 15 14  1  0  0  0  0
 15 20  1  0  0  0  0
 16 12  1  0  0  0  0
 16 21  1  1  0  0  0
 19 15  1  0  0  0  0
 23 22  1  0  0  0  0
 24 25  1  0  0  0  0
 24 16  1  0  0  0  0
 26 30  1  0  0  0  0
 27 26  2  0  0  0  0
 28 26  1  0  0  0  0
 28 29  1  0  0  0  0
 30 31  1  0  0  0  0
 31 36  1  0  0  0  0
 31 32  2  0  0  0  0
 32 37  1  0  0  0  0
 33 32  1  0  0  0  0
 33 38  1  0  0  0  0
 34 33  2  0  0  0  0
 35 30  2  0  0  0  0
 35 34  1  0  0  0  0
 39 46  1  6  0  0  0
 39 44  1  0  0  0  0
 40 34  1  1  0  0  0
 40 39  1  0  0  0  0
 41 40  1  0  0  0  0
 41 43  1  0  0  0  0
 42 41  1  0  0  0  0
 43 44  1  0  0  0  0
 44 45  1  0  0  0  0
 47 46  1  0  0  0  0
M  END
>  <minimizedAffinity>
-1.15442967

>  <minimizedRMSD>
0.425288409

$$$$
