
     RDKit          3D

 42 44  0  0  0  0  0  0  0  0999 V2000
   46.8072   34.1109   43.0586 C   0  0  0  0  0  0  0  0  0  0  0  0
   45.6308   33.7094   42.4304 C   0  0  0  0  0  0  0  0  0  0  0  0
   44.9126   32.6604   43.0277 C   0  0  0  0  0  0  0  0  0  0  0  0
   45.3770   32.0926   44.1617 N   0  0  0  0  0  0  0  0  0  0  0  0
   46.5327   32.5205   44.7375 C   0  0  0  0  0  0  0  0  0  0  0  0
   47.2307   33.5185   44.1835 N   0  0  0  0  0  0  0  0  0  0  0  0
   47.6886   29.9398   44.8206 F   0  0  0  0  0  0  0  0  0  0  0  0
   47.6009   30.6688   45.9824 C   0  0  0  0  0  0  0  0  0  0  0  0
   47.0502   31.9156   45.9657 C   0  0  0  0  0  0  0  0  0  0  0  0
   47.0035   32.5773   47.1891 C   0  0  0  0  0  0  0  0  0  0  0  0
   47.4836   32.0025   48.3331 C   0  0  0  0  0  0  0  0  0  0  0  0
   48.0298   30.7368   48.2861 C   0  0  0  0  0  0  0  0  0  0  0  0
   48.1018   30.0256   47.0819 C   0  0  0  0  0  0  0  0  0  0  0  0
   48.6854   28.6440   47.0193 C   0  0  0  0  0  0  0  0  0  0  0  0
   45.2002   34.3805   41.2032 C   0  0  0  0  0  0  0  0  0  0  0  0
   44.9097   35.7079   41.4532 F   0  0  0  0  0  0  0  0  0  0  0  0
   46.2648   34.3571   40.3047 F   0  0  0  0  0  0  0  0  0  0  0  0
   44.1288   33.8226   40.5838 F   0  0  0  0  0  0  0  0  0  0  0  0
   47.5042   35.1215   42.4893 O   0  0  0  0  0  0  0  0  0  0  0  0
   48.8132   35.0508   41.9560 C   0  0  0  0  0  0  0  0  0  0  0  0
   49.7024   35.2888   43.0062 F   0  0  0  0  0  0  0  0  0  0  0  0
   49.0095   33.8424   41.3595 F   0  0  0  0  0  0  0  0  0  0  0  0
   49.0056   36.1027   41.0843 F   0  0  0  0  0  0  0  0  0  0  0  0
   43.9913   32.3247   42.5641 H   0  0  0  0  0  0  0  0  0  0  0  0
   46.5758   33.5703   47.2240 H   0  0  0  0  0  0  0  0  0  0  0  0
   47.4266   32.5560   49.2630 H   0  0  0  0  0  0  0  0  0  0  0  0
   48.4159   30.2664   49.1877 H   0  0  0  0  0  0  0  0  0  0  0  0
   48.0594   27.9638   46.4089 H   0  0  0  0  0  0  0  0  0  0  0  0
   48.7355   28.2995   48.0689 H   0  0  0  0  0  0  0  0  0  0  0  0
   50.8898   31.0277   44.5206 O   0  0  0  0  0  0  0  0  0  0  0  0
   51.2535   29.6852   44.6827 C   0  0  2  0  0  0  0  0  0  0  0  0
   50.0041   28.8392   44.9612 C   0  0  1  0  0  0  0  0  0  0  0  0
   49.1022   29.3805   44.6772 H   0  0  0  0  0  0  0  0  0  0  0  0
   50.0647   28.6348   46.4605 C   0  0  1  0  0  0  0  0  0  0  0  0
   50.8583   29.6796   46.8918 O   0  0  0  0  0  0  0  0  0  0  0  0
   51.9697   29.5475   46.0336 C   0  0  1  0  0  0  0  0  0  0  0  0
   52.2867   28.4901   46.0861 H   0  0  0  0  0  0  0  0  0  0  0  0
   51.6075   31.5482   45.0009 H   0  0  0  0  0  0  0  0  0  0  0  0
   51.8609   29.2926   43.8657 H   0  0  0  0  0  0  0  0  0  0  0  0
   50.0668   27.8917   44.3885 H   0  0  0  0  0  0  0  0  0  0  0  0
   50.5873   27.6577   46.6029 H   0  0  0  0  0  0  0  0  0  0  0  0
   52.7419   30.2925   46.1943 H   0  0  0  0  0  0  0  0  0  0  0  0
  1  6  2  0
  2  3  2  0
  2  1  1  0
  3  4  1  0
  4  5  2  0
  5  9  1  0
  6  5  1  0
  7  8  1  0
  8 13  2  0
  9  8  1  0
  9 10  2  0
 10 11  1  0
 12 11  2  0
 13 12  1  0
 14 13  1  0
 15 16  1  0
 15  2  1  0
 17 15  1  0
 18 15  1  0
 19  1  1  0
 20 19  1  0
 20 21  1  0
 22 20  1  0
 23 20  1  0
  3 24  1  0
 10 25  1  0
 11 26  1  0
 12 27  1  0
 14 28  1  0
 14 29  1  0
 30 31  1  0
 31 32  1  0
 32 33  1  1
 32 34  1  0
 34 35  1  0
 35 36  1  0
 36 37  1  6
 36 31  1  0
 30 38  1  0
 31 39  1  6
 32 40  1  0
 34 41  1  6
 36 42  1  0
 14 34  1  0
M  ISO  8  24  14  25  14  26  14  27  14  28   8  29   8  33   8  37  16
M  END
>  <DihAtoms>  (1) 
12,13,33,31

>  <DihDeg>  (1) 
-179.97412069298196

$$$$
