
 OpenBabel03252507403D

 19 20  0  0  1  0  0  0  0  0999 V2000
   45.8740   33.0130   43.3580 C   0  0  0  0  0  0  0  0  0  0  0  0
   45.4360   31.8010   42.7880 C   0  0  0  0  0  0  0  0  0  0  0  0
   46.3540   30.7510   42.6330 C   0  0  0  0  0  0  0  0  0  0  0  0
   47.6460   30.9790   43.0570 N   0  0  0  0  0  0  0  0  0  0  0  0
   48.0170   32.1460   43.5930 C   0  0  0  0  0  0  0  0  0  0  0  0
   47.1590   33.1580   43.7480 N   0  0  0  0  0  0  0  0  0  0  0  0
   46.0400   29.8200   42.2020 H   0  0  0  0  0  0  0  0  0  0  0  0
   49.0390   32.3210   43.9260 H   0  0  0  0  0  0  0  0  0  0  0  0
   45.1470   35.2370   42.5160 C   0  0  1  0  0  0  0  0  0  0  0  0
   44.9050   34.1000   43.5130 C   0  0  2  0  0  0  0  0  0  0  0  0
   45.0540   34.8340   44.8270 C   0  0  0  0  0  0  0  0  0  0  0  0
   44.5030   34.3010   45.6230 H   0  0  0  0  0  0  0  0  0  0  0  0
   44.4670   36.0670   44.5250 O   0  0  0  0  0  0  0  0  0  0  0  0
   45.1480   36.4760   43.3810 C   0  0  0  0  0  0  0  0  0  0  0  0
   44.6490   37.3450   42.9040 H   0  0  0  0  0  0  0  0  0  0  0  0
   46.3460   35.0630   41.8310 O   0  0  0  0  0  0  0  0  0  0  0  0
   47.0540   35.4410   42.4170 H   0  0  0  0  0  0  0  0  0  0  0  0
   43.7320   31.5990   42.2660 S   0  0  0  0  0  0  0  0  0  0  0  0
   43.6440   31.2990   40.8940 H   0  0  0  0  0  0  0  0  0  0  0  0
  1  6  1  0  0  0  0
  2  1  2  0  0  0  0
  3  2  1  0  0  0  0
  3  4  2  0  0  0  0
  4  5  1  0  0  0  0
  5  6  2  0  0  0  0
  5  8  1  0  0  0  0
  7  3  1  0  0  0  0
  9 16  1  1  0  0  0
  9 14  1  0  0  0  0
  9 10  1  0  0  0  0
 10  1  1  1  0  0  0
 10 11  1  0  0  0  0
 11 12  1  0  0  0  0
 13 11  1  0  0  0  0
 14 13  1  0  0  0  0
 15 14  1  0  0  0  0
 16 17  1  0  0  0  0
 18  2  1  0  0  0  0
 19 18  1  0  0  0  0
M  END
>  <minimizedAffinity>
-3.12129116

>  <minimizedRMSD>
3.31184363

$$$$
