
     RDKit          3D

 47 50  0  0  0  0  0  0  0  0999 V2000
   46.3529   33.5285   44.7054 C   0  0  0  0  0  0  0  0  0  0  0  0
   45.7997   33.9081   45.6974 O   0  0  0  0  0  0  0  0  0  0  0  0
   44.4905   31.8036   42.9477 Cl  0  0  0  0  0  0  0  0  0  0  0  0
   44.5594   33.5553   42.8188 C   0  0  0  0  0  0  0  0  0  0  0  0
   45.4575   34.1992   43.7089 C   0  0  0  0  0  0  0  0  0  0  0  0
   45.4160   35.5612   43.5157 C   0  0  0  0  0  0  0  0  0  0  0  0
   44.7091   36.3010   42.6737 C   0  0  0  0  0  0  0  0  0  0  0  0
   43.8604   35.6052   41.8404 C   0  0  0  0  0  0  0  0  0  0  0  0
   43.7794   34.2460   41.9066 C   0  0  0  0  0  0  0  0  0  0  0  0
   42.8967   33.6740   41.0291 O   0  0  0  0  0  0  0  0  0  0  0  0
   40.6199   33.0731   39.8739 O   0  0  0  0  0  0  0  0  0  0  0  0
   41.2486   33.3205   41.2234 P   0  0  0  0  0  0  0  0  0  0  0  0
   41.0794   31.9731   42.2364 O   0  0  0  0  0  0  0  0  0  0  0  0
   40.4357   34.5834   42.0080 O   0  0  0  0  0  0  0  0  0  0  0  0
   47.3956   32.7876   43.9644 C   0  0  0  0  0  0  0  0  0  0  0  0
   48.2550   33.2989   43.0880 C   0  0  0  0  0  0  0  0  0  0  0  0
   49.0779   32.3707   42.4837 C   0  0  0  0  0  0  0  0  0  0  0  0
   48.9352   31.0217   42.8422 N   0  0  0  0  0  0  0  0  0  0  0  0
   48.0717   30.5855   43.7133 C   0  0  0  0  0  0  0  0  0  0  0  0
   47.2287   31.4820   44.3393 N   0  0  0  0  0  0  0  0  0  0  0  0
   48.4854   34.6653   42.8014 C   0  0  1  0  0  0  0  0  0  0  0  0
   49.5311   35.2376   42.1468 C   0  0  0  0  0  0  0  0  0  0  0  0
   48.2633   35.1896   41.3534 C   0  0  1  0  0  0  0  0  0  0  0  0
   46.0524   36.1954   44.1784 H   0  0  0  0  0  0  0  0  0  0  0  0
   44.7473   37.3861   42.5929 H   0  0  0  0  0  0  0  0  0  0  0  0
   43.2527   36.1856   41.1221 H   0  0  0  0  0  0  0  0  0  0  0  0
   41.2167   32.2205   43.1688 H   0  0  0  0  0  0  0  0  0  0  0  0
   39.5615   34.2397   42.3298 H   0  0  0  0  0  0  0  0  0  0  0  0
   49.8531   32.5222   41.7473 H   0  0  0  0  0  0  0  0  0  0  0  0
   48.0662   29.5074   43.9013 H   0  0  0  0  0  0  0  0  0  0  0  0
   48.0579   35.3333   43.5993 H   0  0  0  0  0  0  0  0  0  0  0  0
   50.3894   34.5871   41.8007 H   0  0  0  0  0  0  0  0  0  0  0  0
   49.9307   36.2713   42.2555 H   0  0  0  0  0  0  0  0  0  0  0  0
   47.6388   36.1074   41.3062 H   0  0  0  0  0  0  0  0  0  0  0  0
   48.8941   32.2057   39.4200 O   0  0  0  0  0  0  0  0  0  0  0  0
   48.0753   32.8654   40.3589 C   0  0  1  0  0  0  0  0  0  0  0  0
   48.2661   34.3367   40.1712 C   0  0  1  0  0  0  0  0  0  0  0  0
   47.0552   34.7109   39.3487 C   0  0  1  0  0  0  0  0  0  0  0  0
   46.7729   35.7672   39.5408 H   0  0  0  0  0  0  0  0  0  0  0  0
   46.0660   33.8830   39.8295 O   0  0  0  0  0  0  0  0  0  0  0  0
   46.6605   32.6233   39.9443 C   0  0  2  0  0  0  0  0  0  0  0  0
   46.1637   32.0091   40.7113 H   0  0  0  0  0  0  0  0  0  0  0  0
   48.3860   31.8177   38.6733 H   0  0  0  0  0  0  0  0  0  0  0  0
   48.2912   32.5169   41.3861 H   0  0  0  0  0  0  0  0  0  0  0  0
   49.1252   34.5470   39.4647 H   0  0  0  0  0  0  0  0  0  0  0  0
   47.2112   34.5202   38.2667 H   0  0  0  0  0  0  0  0  0  0  0  0
   46.5895   32.0983   38.9622 H   0  0  0  0  0  0  0  0  0  0  0  0
  1  2  2  0
  4  3  1  0
  4  5  2  0
  5  1  1  0
  6  5  1  0
  7  6  2  0
  8  9  2  0
  8  7  1  0
  9  4  1  0
 10 12  1  0
 10  9  1  0
 11 12  2  0
 12 14  1  0
 12 13  1  0
 15 20  1  0
 15  1  1  0
 16 15  2  0
 17 18  2  0
 17 16  1  0
 18 19  1  0
 19 20  2  0
 21 16  1  0
 22 21  1  0
 23 22  1  0
 23 21  1  0
  6 24  1  0
  7 25  1  0
  8 26  1  0
 13 27  1  0
 14 28  1  0
 17 29  1  0
 19 30  1  0
 21 31  1  1
 22 32  1  0
 22 33  1  0
 23 34  1  1
 35 36  1  0
 36 37  1  0
 37 38  1  0
 38 39  1  6
 38 40  1  0
 40 41  1  0
 41 42  1  1
 41 36  1  0
 35 43  1  0
 36 44  1  1
 37 45  1  6
 38 46  1  0
 41 47  1  0
 23 37  1  0
M  ISO  8  24  14  25  14  26  14  27   3  28   3  29  14  30  14  31  13
M  ISO  5  32  13  33  13  34  13  39  15  42  16
M  END
>  <DihAtoms>  (1) 
21,22,36,35

>  <DihDeg>  (1) 
124.86165463762673

$$$$
