
 OpenBabel03252505303D

 27 28  0  0  1  0  0  0  0  0999 V2000
   46.8570   32.2780   48.4320 O   0  0  0  0  0  0  0  0  0  0  0  0
   45.8250   32.5210   47.3190 P   0  0  1  0  0  0  0  0  0  0  0  0
   44.5560   33.4760   47.8510 O   0  0  0  0  0  0  0  0  0  0  0  0
   44.8570   34.4090   48.0750 H   0  0  0  0  0  0  0  0  0  0  0  0
   46.6510   33.2570   46.0280 O   0  0  0  0  0  0  0  0  0  0  0  0
   44.4730   35.6530   44.5930 C   0  0  0  0  0  0  0  0  0  0  0  0
   44.8860   35.7710   43.2420 C   0  0  0  0  0  0  0  0  0  0  0  0
   45.9800   34.9510   42.8700 C   0  0  0  0  0  0  0  0  0  0  0  0
   46.5280   34.1420   43.8140 N   0  0  0  0  0  0  0  0  0  0  0  0
   46.0890   34.0820   45.0720 C   0  0  0  0  0  0  0  0  0  0  0  0
   45.0550   34.8420   45.4670 N   0  0  0  0  0  0  0  0  0  0  0  0
   43.6280   36.2910   44.8690 H   0  0  0  0  0  0  0  0  0  0  0  0
   44.3980   36.4400   42.5450 H   0  0  0  0  0  0  0  0  0  0  0  0
   46.3430   34.9930   41.8520 H   0  0  0  0  0  0  0  0  0  0  0  0
   45.2300   31.0150   46.8880 O   0  0  0  0  0  0  0  0  0  0  0  0
   45.0350   30.2750   48.0330 C   0  0  0  0  0  0  0  0  0  0  0  0
   44.0280   30.5160   48.4280 H   0  0  0  0  0  0  0  0  0  0  0  0
   45.7640   30.6130   48.7950 H   0  0  0  0  0  0  0  0  0  0  0  0
   46.4660   27.5880   46.1800 C   0  0  1  0  0  3  0  0  0  0  0  0
   46.6080   28.5200   47.3590 C   0  0  0  0  0  3  0  0  0  0  0  0
   47.2960   28.1430   48.1440 H   0  0  0  0  0  0  0  0  0  0  0  0
   45.2140   28.7900   47.8190 C   0  0  2  0  0  3  0  0  0  0  0  0
   44.3520   28.3810   46.8080 O   0  0  0  0  0  0  0  0  0  0  0  0
   44.9860   27.4150   46.0760 C   0  0  0  0  0  3  0  0  0  0  0  0
   44.6990   26.4090   46.4940 H   0  0  0  0  0  0  0  0  0  0  0  0
   46.9730   28.1380   44.9920 O   0  0  0  0  0  0  0  0  0  0  0  0
   47.8570   28.5890   45.1710 H   0  0  0  0  0  0  0  0  0  0  0  0
  2  3  1  0  0  0  0
  2  1  2  1  0  0  0
  3  4  1  0  0  0  0
  5  2  1  0  0  0  0
  6 12  1  0  0  0  0
  6 11  1  0  0  0  0
  7  6  2  0  0  0  0
  8  7  1  0  0  0  0
  8  9  2  0  0  0  0
  9 10  1  0  0  0  0
 10 11  2  0  0  0  0
 10  5  1  0  0  0  0
 13  7  1  0  0  0  0
 14  8  1  0  0  0  0
 15  2  1  0  0  0  0
 15 16  1  0  0  0  0
 16 17  1  0  0  0  0
 16 18  1  0  0  0  0
 19 26  1  6  0  0  0
 19 20  1  0  0  0  0
 20 22  1  0  0  0  0
 20 21  1  0  0  0  0
 22 16  1  6  0  0  0
 23 22  1  0  0  0  0
 24 19  1  0  0  0  0
 24 25  1  0  0  0  0
 24 23  1  0  0  0  0
 26 27  1  0  0  0  0
M  END
>  <minimizedAffinity>
-4.40589857

>  <minimizedRMSD>
0.677299201

$$$$
