
 OpenBabel03252507583D

 27 29  0  0  1  0  0  0  0  0999 V2000
   37.7100   28.3100   43.1200 C   0  0  1  0  0  0  0  0  0  0  0  0
   38.5310   29.5410   42.9150 C   0  0  0  0  0  0  0  0  0  0  0  0
   37.6610   29.0520   41.8180 C   0  0  2  0  0  0  0  0  0  0  0  0
   36.9210   28.3230   43.8760 H   0  0  0  0  0  0  0  0  0  0  0  0
   39.6370   29.4260   42.8310 H   0  0  0  0  0  0  0  0  0  0  0  0
   38.2680   30.3850   43.5780 H   0  0  0  0  0  0  0  0  0  0  0  0
   38.2280   28.6230   40.9390 H   0  0  0  0  0  0  0  0  0  0  0  0
   38.2870   24.8030   42.2080 C   0  0  0  0  0  0  0  0  0  0  0  0
   39.4890   24.4920   42.8600 C   0  0  0  0  0  0  0  0  0  0  0  0
   40.1130   25.5090   43.6260 C   0  0  0  0  0  0  0  0  0  0  0  0
   39.5050   26.7250   43.6800 N   0  0  0  0  0  0  0  0  0  0  0  0
   38.3360   26.9540   43.0200 C   0  0  0  0  0  0  0  0  0  0  0  0
   37.7210   26.0300   42.2930 N   0  0  0  0  0  0  0  0  0  0  0  0
   39.9610   23.5210   42.8080 H   0  0  0  0  0  0  0  0  0  0  0  0
   41.0390   25.3320   44.1500 H   0  0  0  0  0  0  0  0  0  0  0  0
   37.7330   23.7170   41.4680 C   0  0  0  0  0  0  0  0  0  0  0  0
   36.5790   23.6940   40.9420 O   0  0  0  0  0  0  0  0  0  0  0  0
   38.3450   22.8270   41.3370 H   0  0  0  0  0  0  0  0  0  0  0  0
   35.7120   29.1390   40.2100 C   0  0  2  0  0  3  0  0  0  0  0  0
   36.3970   29.7170   41.3970 C   0  0  2  0  0  3  0  0  0  0  0  0
   36.6470   31.1420   40.9460 C   0  0  0  0  0  3  0  0  0  0  0  0
   35.7750   31.7830   41.0820 H   0  0  0  0  0  0  0  0  0  0  0  0
   37.0180   30.9780   39.6120 O   0  0  0  0  0  0  0  0  0  0  0  0
   36.2590   29.9650   39.0700 C   0  0  0  0  0  3  0  0  0  0  0  0
   35.4200   30.4550   38.5140 H   0  0  0  0  0  0  0  0  0  0  0  0
   34.3120   29.3320   40.2760 O   0  0  0  0  0  0  0  0  0  0  0  0
   34.0590   30.1290   40.7730 H   0  0  0  0  0  0  0  0  0  0  0  0
  1  4  1  1  0  0  0
  2  1  1  0  0  0  0
  2  6  1  0  0  0  0
  3  7  1  6  0  0  0
  3  2  1  0  0  0  0
  3  1  1  0  0  0  0
  5  2  1  0  0  0  0
  8 13  2  0  0  0  0
  8  9  1  0  0  0  0
  9 10  2  0  0  0  0
 10 11  1  0  0  0  0
 10 15  1  0  0  0  0
 12  1  1  0  0  0  0
 12 11  2  0  0  0  0
 13 12  1  0  0  0  0
 14  9  1  0  0  0  0
 16  8  1  0  0  0  0
 17 16  2  0  0  0  0
 18 16  1  0  0  0  0
 19 26  1  1  0  0  0
 19 20  1  0  0  0  0
 20 21  1  6  0  0  0
 20  3  1  0  0  0  0
 21 22  1  0  0  0  0
 23 21  1  0  0  0  0
 24 23  1  0  0  0  0
 24 19  1  0  0  0  0
 25 24  1  0  0  0  0
 26 27  1  0  0  0  0
M  END
>  <minimizedAffinity>
-5.00707293

$$$$

 OpenBabel03252507583D

 27 29  0  0  1  0  0  0  0  0999 V2000
   39.1740   30.3690   42.8190 C   0  0  1  0  0  0  0  0  0  0  0  0
   40.5800   30.6920   42.4290 C   0  0  0  0  0  0  0  0  0  0  0  0
   39.4890   30.8710   41.4420 C   0  0  2  0  0  0  0  0  0  0  0  0
   38.6980   30.9590   43.6050 H   0  0  0  0  0  0  0  0  0  0  0  0
   41.2970   29.8470   42.3070 H   0  0  0  0  0  0  0  0  0  0  0  0
   41.0360   31.5230   42.9980 H   0  0  0  0  0  0  0  0  0  0  0  0
   39.5080   30.1230   40.5940 H   0  0  0  0  0  0  0  0  0  0  0  0
   39.1440   26.7220   43.2200 C   0  0  0  0  0  0  0  0  0  0  0  0
   37.8250   26.3710   42.8950 C   0  0  0  0  0  0  0  0  0  0  0  0
   36.9310   27.4100   42.5330 C   0  0  0  0  0  0  0  0  0  0  0  0
   37.4080   28.6840   42.5240 N   0  0  0  0  0  0  0  0  0  0  0  0
   38.7030   28.9490   42.8520 C   0  0  0  0  0  0  0  0  0  0  0  0
   39.5700   28.0070   43.1970 N   0  0  0  0  0  0  0  0  0  0  0  0
   37.4600   25.3550   42.9060 H   0  0  0  0  0  0  0  0  0  0  0  0
   35.9040   27.2030   42.2720 H   0  0  0  0  0  0  0  0  0  0  0  0
   39.9690   25.6120   43.5670 C   0  0  0  0  0  0  0  0  0  0  0  0
   39.7450   24.4020   43.2610 O   0  0  0  0  0  0  0  0  0  0  0  0
   40.8710   25.8100   44.1420 H   0  0  0  0  0  0  0  0  0  0  0  0
   37.7980   32.1760   40.0870 C   0  0  2  0  0  3  0  0  0  0  0  0
   38.9680   32.1970   41.0050 C   0  0  2  0  0  3  0  0  0  0  0  0
   39.9940   32.9470   40.1800 C   0  0  0  0  0  3  0  0  0  0  0  0
   39.8700   34.0290   40.2420 H   0  0  0  0  0  0  0  0  0  0  0  0
   39.7900   32.4340   38.9000 O   0  0  0  0  0  0  0  0  0  0  0  0
   38.4400   32.2320   38.7210 C   0  0  0  0  0  3  0  0  0  0  0  0
   38.0560   33.1180   38.1540 H   0  0  0  0  0  0  0  0  0  0  0  0
   36.9890   33.3250   40.2540 O   0  0  0  0  0  0  0  0  0  0  0  0
   37.4880   34.1030   40.5560 H   0  0  0  0  0  0  0  0  0  0  0  0
  1 12  1  0  0  0  0
  1  4  1  1  0  0  0
  2  1  1  0  0  0  0
  2  6  1  0  0  0  0
  3  7  1  6  0  0  0
  3  2  1  0  0  0  0
  3  1  1  0  0  0  0
  5  2  1  0  0  0  0
  8 16  1  0  0  0  0
  9 14  1  0  0  0  0
  9  8  2  0  0  0  0
 10  9  1  0  0  0  0
 11 10  2  0  0  0  0
 11 12  1  0  0  0  0
 12 13  2  0  0  0  0
 13  8  1  0  0  0  0
 15 10  1  0  0  0  0
 16 18  1  0  0  0  0
 17 16  2  0  0  0  0
 19 26  1  1  0  0  0
 19 20  1  0  0  0  0
 20 21  1  6  0  0  0
 20  3  1  0  0  0  0
 21 22  1  0  0  0  0
 23 21  1  0  0  0  0
 24 23  1  0  0  0  0
 24 19  1  0  0  0  0
 25 24  1  0  0  0  0
 26 27  1  0  0  0  0
M  END
>  <minimizedAffinity>
-4.90845537

$$$$

 OpenBabel03252507583D

 27 29  0  0  1  0  0  0  0  0999 V2000
   37.2930   28.0480   42.9380 C   0  0  1  0  0  0  0  0  0  0  0  0
   38.1130   29.2970   42.9370 C   0  0  0  0  0  0  0  0  0  0  0  0
   37.3460   28.9270   41.7240 C   0  0  2  0  0  0  0  0  0  0  0  0
   36.4440   27.9760   43.6200 H   0  0  0  0  0  0  0  0  0  0  0  0
   39.2240   29.1960   42.9360 H   0  0  0  0  0  0  0  0  0  0  0  0
   37.7840   30.0630   43.6620 H   0  0  0  0  0  0  0  0  0  0  0  0
   37.9900   28.5970   40.8550 H   0  0  0  0  0  0  0  0  0  0  0  0
   39.8280   25.3970   42.8250 C   0  0  0  0  0  0  0  0  0  0  0  0
   39.1080   24.2780   42.3800 C   0  0  0  0  0  0  0  0  0  0  0  0
   37.7240   24.4400   42.1160 C   0  0  0  0  0  0  0  0  0  0  0  0
   37.1810   25.6730   42.3110 N   0  0  0  0  0  0  0  0  0  0  0  0
   37.9440   26.7130   42.7460 C   0  0  0  0  0  0  0  0  0  0  0  0
   39.2400   26.6030   43.0040 N   0  0  0  0  0  0  0  0  0  0  0  0
   39.5520   23.3060   42.2290 H   0  0  0  0  0  0  0  0  0  0  0  0
   37.1160   23.6180   41.7720 H   0  0  0  0  0  0  0  0  0  0  0  0
   41.2100   25.1380   43.0590 C   0  0  0  0  0  0  0  0  0  0  0  0
   42.1190   25.1240   42.1740 O   0  0  0  0  0  0  0  0  0  0  0  0
   41.5230   24.9350   44.0810 H   0  0  0  0  0  0  0  0  0  0  0  0
   35.4400   29.0690   40.0680 C   0  0  2  0  0  3  0  0  0  0  0  0
   36.1130   29.6290   41.2710 C   0  0  2  0  0  3  0  0  0  0  0  0
   36.4170   31.0450   40.8240 C   0  0  0  0  0  3  0  0  0  0  0  0
   35.5620   31.7120   40.9380 H   0  0  0  0  0  0  0  0  0  0  0  0
   36.8150   30.8670   39.5000 O   0  0  0  0  0  0  0  0  0  0  0  0
   36.0400   29.8760   38.9410 C   0  0  0  0  0  3  0  0  0  0  0  0
   35.2300   30.3910   38.3640 H   0  0  0  0  0  0  0  0  0  0  0  0
   34.0460   29.3050   40.0990 O   0  0  0  0  0  0  0  0  0  0  0  0
   33.8040   30.1100   40.5880 H   0  0  0  0  0  0  0  0  0  0  0  0
  1  4  1  1  0  0  0
  2  1  1  0  0  0  0
  2  6  1  0  0  0  0
  3  7  1  6  0  0  0
  3  2  1  0  0  0  0
  3  1  1  0  0  0  0
  5  2  1  0  0  0  0
  8 13  1  0  0  0  0
  8 16  1  0  0  0  0
  9  8  2  0  0  0  0
 10 11  2  0  0  0  0
 10  9  1  0  0  0  0
 11 12  1  0  0  0  0
 12  1  1  0  0  0  0
 12 13  2  0  0  0  0
 14  9  1  0  0  0  0
 15 10  1  0  0  0  0
 16 18  1  0  0  0  0
 17 16  2  0  0  0  0
 19 26  1  1  0  0  0
 19 20  1  0  0  0  0
 20 21  1  6  0  0  0
 20  3  1  0  0  0  0
 21 22  1  0  0  0  0
 23 21  1  0  0  0  0
 24 23  1  0  0  0  0
 24 19  1  0  0  0  0
 25 24  1  0  0  0  0
 26 27  1  0  0  0  0
M  END
>  <minimizedAffinity>
-4.82846022

$$$$

 OpenBabel03252507583D

 27 29  0  0  1  0  0  0  0  0999 V2000
   37.0840   27.1530   42.6900 C   0  0  1  0  0  0  0  0  0  0  0  0
   38.2390   27.5190   43.5650 C   0  0  0  0  0  0  0  0  0  0  0  0
   38.0220   28.2550   42.2970 C   0  0  2  0  0  0  0  0  0  0  0  0
   36.0710   27.3020   43.0670 H   0  0  0  0  0  0  0  0  0  0  0  0
   39.0860   26.7980   43.6430 H   0  0  0  0  0  0  0  0  0  0  0  0
   37.9560   27.9100   44.5590 H   0  0  0  0  0  0  0  0  0  0  0  0
   38.7950   28.0380   41.5010 H   0  0  0  0  0  0  0  0  0  0  0  0
   36.6490   24.9320   39.8020 C   0  0  0  0  0  0  0  0  0  0  0  0
   37.2930   23.7510   40.2010 C   0  0  0  0  0  0  0  0  0  0  0  0
   37.8880   23.7210   41.4880 C   0  0  0  0  0  0  0  0  0  0  0  0
   37.7980   24.8410   42.2550 N   0  0  0  0  0  0  0  0  0  0  0  0
   37.1570   25.9520   41.8000 C   0  0  0  0  0  0  0  0  0  0  0  0
   36.5870   26.0210   40.6030 N   0  0  0  0  0  0  0  0  0  0  0  0
   37.3560   22.8690   39.5810 H   0  0  0  0  0  0  0  0  0  0  0  0
   38.3980   22.8420   41.8520 H   0  0  0  0  0  0  0  0  0  0  0  0
   36.0770   24.8650   38.4980 C   0  0  0  0  0  0  0  0  0  0  0  0
   35.5360   25.8310   37.8780 O   0  0  0  0  0  0  0  0  0  0  0  0
   36.1020   23.9080   37.9800 H   0  0  0  0  0  0  0  0  0  0  0  0
   36.5400   29.9480   41.1420 C   0  0  2  0  0  3  0  0  0  0  0  0
   37.5210   29.6560   42.2210 C   0  0  2  0  0  3  0  0  0  0  0  0
   38.6400   30.6250   41.8930 C   0  0  0  0  0  3  0  0  0  0  0  0
   38.4490   31.6280   42.2760 H   0  0  0  0  0  0  0  0  0  0  0  0
   38.6990   30.5600   40.5020 O   0  0  0  0  0  0  0  0  0  0  0  0
   37.4170   30.4410   40.0150 C   0  0  0  0  0  3  0  0  0  0  0  0
   37.0970   31.4680   39.7020 H   0  0  0  0  0  0  0  0  0  0  0  0
   35.6560   30.9870   41.5140 O   0  0  0  0  0  0  0  0  0  0  0  0
   36.0500   31.6190   42.1400 H   0  0  0  0  0  0  0  0  0  0  0  0
  1  4  1  1  0  0  0
  1  2  1  0  0  0  0
  2  5  1  0  0  0  0
  2  6  1  0  0  0  0
  3  7  1  6  0  0  0
  3  1  1  0  0  0  0
  3  2  1  0  0  0  0
  8  9  2  0  0  0  0
  8 13  1  0  0  0  0
  9 10  1  0  0  0  0
 10 15  1  0  0  0  0
 10 11  2  0  0  0  0
 12 11  1  0  0  0  0
 12  1  1  0  0  0  0
 13 12  2  0  0  0  0
 14  9  1  0  0  0  0
 16  8  1  0  0  0  0
 17 16  2  0  0  0  0
 18 16  1  0  0  0  0
 19 26  1  1  0  0  0
 19 20  1  0  0  0  0
 20 21  1  6  0  0  0
 20  3  1  0  0  0  0
 21 22  1  0  0  0  0
 23 21  1  0  0  0  0
 24 23  1  0  0  0  0
 24 19  1  0  0  0  0
 25 24  1  0  0  0  0
 26 27  1  0  0  0  0
M  END
>  <minimizedAffinity>
-4.74044609

$$$$

 OpenBabel03252507583D

 27 29  0  0  1  0  0  0  0  0999 V2000
   37.7650   28.1690   42.7340 C   0  0  1  0  0  0  0  0  0  0  0  0
   36.5250   27.4940   43.2240 C   0  0  0  0  0  0  0  0  0  0  0  0
   37.1860   27.0040   41.9910 C   0  0  2  0  0  0  0  0  0  0  0  0
   38.6640   28.1310   43.3530 H   0  0  0  0  0  0  0  0  0  0  0  0
   35.5610   28.0480   43.1470 H   0  0  0  0  0  0  0  0  0  0  0  0
   36.6270   27.0060   44.2110 H   0  0  0  0  0  0  0  0  0  0  0  0
   36.6040   27.2120   41.0440 H   0  0  0  0  0  0  0  0  0  0  0  0
   38.7100   31.3480   41.1640 C   0  0  0  0  0  0  0  0  0  0  0  0
   37.4990   31.8220   40.6370 C   0  0  0  0  0  0  0  0  0  0  0  0
   36.3380   31.0310   40.8250 C   0  0  0  0  0  0  0  0  0  0  0  0
   36.4710   29.8610   41.5060 N   0  0  0  0  0  0  0  0  0  0  0  0
   37.6800   29.4640   41.9890 C   0  0  0  0  0  0  0  0  0  0  0  0
   38.7900   30.1750   41.8340 N   0  0  0  0  0  0  0  0  0  0  0  0
   37.4090   32.7550   40.0990 H   0  0  0  0  0  0  0  0  0  0  0  0
   35.3770   31.3420   40.4440 H   0  0  0  0  0  0  0  0  0  0  0  0
   39.8200   32.2120   40.9300 C   0  0  0  0  0  0  0  0  0  0  0  0
   39.7500   33.4080   40.5130 O   0  0  0  0  0  0  0  0  0  0  0  0
   40.8170   31.8210   41.1220 H   0  0  0  0  0  0  0  0  0  0  0  0
   38.5350   25.3970   40.5780 C   0  0  2  0  0  3  0  0  0  0  0  0
   37.9540   25.7300   41.9060 C   0  0  2  0  0  3  0  0  0  0  0  0
   37.0630   24.5310   42.1630 C   0  0  0  0  0  3  0  0  0  0  0  0
   37.6130   23.6800   42.5670 H   0  0  0  0  0  0  0  0  0  0  0  0
   36.5070   24.2910   40.9070 O   0  0  0  0  0  0  0  0  0  0  0  0
   37.4680   24.5310   39.9510 C   0  0  0  0  0  3  0  0  0  0  0  0
   37.8980   23.5350   39.6720 H   0  0  0  0  0  0  0  0  0  0  0  0
   39.7180   24.6340   40.7080 O   0  0  0  0  0  0  0  0  0  0  0  0
   39.7350   24.0870   41.5120 H   0  0  0  0  0  0  0  0  0  0  0  0
  1  2  1  0  0  0  0
  1  4  1  1  0  0  0
  2  6  1  0  0  0  0
  3  7  1  6  0  0  0
  3  1  1  0  0  0  0
  3  2  1  0  0  0  0
  5  2  1  0  0  0  0
  8 13  1  0  0  0  0
  9 10  1  0  0  0  0
  9  8  2  0  0  0  0
 10 11  2  0  0  0  0
 11 12  1  0  0  0  0
 12  1  1  0  0  0  0
 13 12  2  0  0  0  0
 14  9  1  0  0  0  0
 15 10  1  0  0  0  0
 16 18  1  0  0  0  0
 16  8  1  0  0  0  0
 17 16  2  0  0  0  0
 19 26  1  1  0  0  0
 19 20  1  0  0  0  0
 20  3  1  0  0  0  0
 20 21  1  6  0  0  0
 21 22  1  0  0  0  0
 23 21  1  0  0  0  0
 24 19  1  0  0  0  0
 24 23  1  0  0  0  0
 25 24  1  0  0  0  0
 26 27  1  0  0  0  0
M  END
>  <minimizedAffinity>
-4.62695408

$$$$

 OpenBabel03252507583D

 27 29  0  0  1  0  0  0  0  0999 V2000
   37.9280   27.8560   43.1080 C   0  0  1  0  0  0  0  0  0  0  0  0
   36.6030   27.5790   42.4740 C   0  0  0  0  0  0  0  0  0  0  0  0
   37.7730   26.7400   42.1190 C   0  0  2  0  0  0  0  0  0  0  0  0
   38.0330   27.7240   44.1860 H   0  0  0  0  0  0  0  0  0  0  0  0
   36.2110   28.3150   41.7340 H   0  0  0  0  0  0  0  0  0  0  0  0
   35.8130   27.2640   43.1800 H   0  0  0  0  0  0  0  0  0  0  0  0
   38.1530   26.9040   41.0670 H   0  0  0  0  0  0  0  0  0  0  0  0
   38.9700   30.9990   41.5250 C   0  0  0  0  0  0  0  0  0  0  0  0
   40.3580   31.0180   41.7270 C   0  0  0  0  0  0  0  0  0  0  0  0
   40.9450   29.9300   42.4210 C   0  0  0  0  0  0  0  0  0  0  0  0
   40.1230   28.9340   42.8500 N   0  0  0  0  0  0  0  0  0  0  0  0
   38.7820   28.9830   42.6180 C   0  0  0  0  0  0  0  0  0  0  0  0
   38.1950   29.9830   41.9730 N   0  0  0  0  0  0  0  0  0  0  0  0
   40.9980   31.8160   41.3800 H   0  0  0  0  0  0  0  0  0  0  0  0
   42.0060   29.8870   42.6070 H   0  0  0  0  0  0  0  0  0  0  0  0
   38.4720   32.1300   40.8150 C   0  0  0  0  0  0  0  0  0  0  0  0
   38.7650   33.3410   41.0560 O   0  0  0  0  0  0  0  0  0  0  0  0
   37.7820   31.9510   39.9930 H   0  0  0  0  0  0  0  0  0  0  0  0
   39.2630   24.7000   42.2430 C   0  0  2  0  0  3  0  0  0  0  0  0
   37.9540   25.3300   42.5660 C   0  0  2  0  0  3  0  0  0  0  0  0
   36.9830   24.4010   41.8670 C   0  0  0  0  0  3  0  0  0  0  0  0
   36.7530   23.5150   42.4600 H   0  0  0  0  0  0  0  0  0  0  0  0
   37.6400   24.1170   40.6710 O   0  0  0  0  0  0  0  0  0  0  0  0
   38.9890   24.0090   40.9290 C   0  0  0  0  0  3  0  0  0  0  0  0
   39.2100   22.9150   41.0180 H   0  0  0  0  0  0  0  0  0  0  0  0
   39.6160   23.7230   43.2030 O   0  0  0  0  0  0  0  0  0  0  0  0
   38.8460   23.3010   43.6210 H   0  0  0  0  0  0  0  0  0  0  0  0
  1  4  1  1  0  0  0
  2  1  1  0  0  0  0
  2  6  1  0  0  0  0
  3  7  1  6  0  0  0
  3  2  1  0  0  0  0
  3 20  1  0  0  0  0
  3  1  1  0  0  0  0
  5  2  1  0  0  0  0
  8  9  2  0  0  0  0
  8 13  1  0  0  0  0
  9 10  1  0  0  0  0
 10 15  1  0  0  0  0
 10 11  2  0  0  0  0
 12 11  1  0  0  0  0
 12  1  1  0  0  0  0
 13 12  2  0  0  0  0
 14  9  1  0  0  0  0
 16 17  2  0  0  0  0
 16  8  1  0  0  0  0
 18 16  1  0  0  0  0
 19 20  1  0  0  0  0
 19 26  1  1  0  0  0
 20 21  1  6  0  0  0
 21 22  1  0  0  0  0
 23 24  1  0  0  0  0
 23 21  1  0  0  0  0
 24 25  1  0  0  0  0
 24 19  1  0  0  0  0
 26 27  1  0  0  0  0
M  END
>  <minimizedAffinity>
-4.57396078

$$$$

 OpenBabel03252507583D

 27 29  0  0  1  0  0  0  0  0999 V2000
   35.9130   29.4430   40.4020 C   0  0  1  0  0  0  0  0  0  0  0  0
   36.2010   30.7320   41.1020 C   0  0  0  0  0  0  0  0  0  0  0  0
   37.0410   30.3220   39.9520 C   0  0  2  0  0  0  0  0  0  0  0  0
   34.9620   29.3300   39.8780 H   0  0  0  0  0  0  0  0  0  0  0  0
   36.6210   30.6870   42.1330 H   0  0  0  0  0  0  0  0  0  0  0  0
   35.3910   31.4820   41.0340 H   0  0  0  0  0  0  0  0  0  0  0  0
   38.0940   30.0240   40.2360 H   0  0  0  0  0  0  0  0  0  0  0  0
   36.9250   25.9310   40.7210 C   0  0  0  0  0  0  0  0  0  0  0  0
   37.1610   25.7840   42.0960 C   0  0  0  0  0  0  0  0  0  0  0  0
   36.9700   26.9170   42.9270 C   0  0  0  0  0  0  0  0  0  0  0  0
   36.5700   28.0760   42.3380 N   0  0  0  0  0  0  0  0  0  0  0  0
   36.3590   28.1430   40.9950 C   0  0  0  0  0  0  0  0  0  0  0  0
   36.5260   27.1070   40.1830 N   0  0  0  0  0  0  0  0  0  0  0  0
   37.4790   24.8570   42.5490 H   0  0  0  0  0  0  0  0  0  0  0  0
   37.1360   26.8680   43.9920 H   0  0  0  0  0  0  0  0  0  0  0  0
   37.1380   24.7390   39.9680 C   0  0  0  0  0  0  0  0  0  0  0  0
   36.7310   23.5810   40.2870 O   0  0  0  0  0  0  0  0  0  0  0  0
   37.6960   24.8190   39.0370 H   0  0  0  0  0  0  0  0  0  0  0  0
   37.9770   30.4810   37.6080 C   0  0  2  0  0  3  0  0  0  0  0  0
   36.9850   30.9610   38.6070 C   0  0  2  0  0  3  0  0  0  0  0  0
   37.3130   32.4380   38.6840 C   0  0  0  0  0  3  0  0  0  0  0  0
   36.8470   33.0120   37.8820 H   0  0  0  0  0  0  0  0  0  0  0  0
   38.7060   32.4430   38.6400 O   0  0  0  0  0  0  0  0  0  0  0  0
   39.1180   31.4570   37.7720 C   0  0  0  0  0  3  0  0  0  0  0  0
   39.3360   31.9600   36.7960 H   0  0  0  0  0  0  0  0  0  0  0  0
   37.4770   30.5900   36.2890 O   0  0  0  0  0  0  0  0  0  0  0  0
   36.8330   31.3120   36.1820 H   0  0  0  0  0  0  0  0  0  0  0  0
  1  4  1  6  0  0  0
  1 12  1  0  0  0  0
  1  2  1  0  0  0  0
  2  5  1  0  0  0  0
  3  7  1  1  0  0  0
  3  1  1  0  0  0  0
  3  2  1  0  0  0  0
  6  2  1  0  0  0  0
  8  9  1  0  0  0  0
  9 14  1  0  0  0  0
  9 10  2  0  0  0  0
 10 15  1  0  0  0  0
 11 10  1  0  0  0  0
 12 11  2  0  0  0  0
 13  8  2  0  0  0  0
 13 12  1  0  0  0  0
 16 17  2  0  0  0  0
 16  8  1  0  0  0  0
 18 16  1  0  0  0  0
 19 26  1  6  0  0  0
 19 24  1  0  0  0  0
 19 20  1  0  0  0  0
 20 21  1  1  0  0  0
 20  3  1  0  0  0  0
 22 21  1  0  0  0  0
 23 21  1  0  0  0  0
 24 23  1  0  0  0  0
 25 24  1  0  0  0  0
 27 26  1  0  0  0  0
M  END
>  <minimizedAffinity>
-4.5331502

$$$$

 OpenBabel03252507583D

 27 29  0  0  1  0  0  0  0  0999 V2000
   35.9800   29.7810   39.5030 C   0  0  1  0  0  0  0  0  0  0  0  0
   36.1920   30.6800   40.6780 C   0  0  0  0  0  0  0  0  0  0  0  0
   37.2210   30.6150   39.6130 C   0  0  2  0  0  0  0  0  0  0  0  0
   35.1480   29.9870   38.8270 H   0  0  0  0  0  0  0  0  0  0  0  0
   36.3960   30.2100   41.6680 H   0  0  0  0  0  0  0  0  0  0  0  0
   35.4540   31.4980   40.7700 H   0  0  0  0  0  0  0  0  0  0  0  0
   38.1790   30.1040   39.9310 H   0  0  0  0  0  0  0  0  0  0  0  0
   36.8790   26.5030   40.8850 C   0  0  0  0  0  0  0  0  0  0  0  0
   36.6810   25.6300   39.8050 C   0  0  0  0  0  0  0  0  0  0  0  0
   36.2290   26.1810   38.5790 C   0  0  0  0  0  0  0  0  0  0  0  0
   36.0140   27.5240   38.5290 N   0  0  0  0  0  0  0  0  0  0  0  0
   36.2270   28.3100   39.6190 C   0  0  0  0  0  0  0  0  0  0  0  0
   36.6500   27.8330   40.7840 N   0  0  0  0  0  0  0  0  0  0  0  0
   36.8560   24.5660   39.8600 H   0  0  0  0  0  0  0  0  0  0  0  0
   36.0580   25.5620   37.7130 H   0  0  0  0  0  0  0  0  0  0  0  0
   37.3380   25.8600   42.0720 C   0  0  0  0  0  0  0  0  0  0  0  0
   38.2400   26.2980   42.8480 O   0  0  0  0  0  0  0  0  0  0  0  0
   36.8810   24.9100   42.3430 H   0  0  0  0  0  0  0  0  0  0  0  0
   38.8190   31.7290   38.0000 C   0  0  2  0  0  3  0  0  0  0  0  0
   37.4690   31.7010   38.6240 C   0  0  2  0  0  3  0  0  0  0  0  0
   37.4010   33.0670   39.2760 C   0  0  0  0  0  3  0  0  0  0  0  0
   37.1090   33.8500   38.5760 H   0  0  0  0  0  0  0  0  0  0  0  0
   38.6880   33.2240   39.7860 O   0  0  0  0  0  0  0  0  0  0  0  0
   39.5820   32.6790   38.8920 C   0  0  0  0  0  3  0  0  0  0  0  0
   39.9890   33.5290   38.2880 H   0  0  0  0  0  0  0  0  0  0  0  0
   38.7740   32.2730   36.6950 O   0  0  0  0  0  0  0  0  0  0  0  0
   38.0540   32.9160   36.5730 H   0  0  0  0  0  0  0  0  0  0  0  0
  1  4  1  6  0  0  0
  1  3  1  0  0  0  0
  1 12  1  0  0  0  0
  1  2  1  0  0  0  0
  2  6  1  0  0  0  0
  2  5  1  0  0  0  0
  3  7  1  1  0  0  0
  3  2  1  0  0  0  0
  8 16  1  0  0  0  0
  9 14  1  0  0  0  0
  9  8  2  0  0  0  0
 10  9  1  0  0  0  0
 11 10  2  0  0  0  0
 11 12  1  0  0  0  0
 12 13  2  0  0  0  0
 13  8  1  0  0  0  0
 15 10  1  0  0  0  0
 16 18  1  0  0  0  0
 16 17  2  0  0  0  0
 19 26  1  6  0  0  0
 19 20  1  0  0  0  0
 19 24  1  0  0  0  0
 20 21  1  1  0  0  0
 20  3  1  0  0  0  0
 21 23  1  0  0  0  0
 22 21  1  0  0  0  0
 24 23  1  0  0  0  0
 25 24  1  0  0  0  0
 27 26  1  0  0  0  0
M  END
>  <minimizedAffinity>
-4.53259945

$$$$

 OpenBabel03252507583D

 27 29  0  0  1  0  0  0  0  0999 V2000
   37.5520   31.8680   39.7450 C   0  0  1  0  0  0  0  0  0  0  0  0
   36.7070   31.0360   38.8360 C   0  0  0  0  0  0  0  0  0  0  0  0
   37.3920   30.3960   39.9840 C   0  0  2  0  0  0  0  0  0  0  0  0
   37.0750   32.6510   40.3370 H   0  0  0  0  0  0  0  0  0  0  0  0
   37.0770   30.8480   37.8010 H   0  0  0  0  0  0  0  0  0  0  0  0
   35.6340   31.3040   38.8320 H   0  0  0  0  0  0  0  0  0  0  0  0
   38.2430   29.7130   39.6880 H   0  0  0  0  0  0  0  0  0  0  0  0
   40.9590   33.2240   39.8720 C   0  0  0  0  0  0  0  0  0  0  0  0
   41.4480   32.9940   38.5770 C   0  0  0  0  0  0  0  0  0  0  0  0
   40.5890   32.3590   37.6450 C   0  0  0  0  0  0  0  0  0  0  0  0
   39.3420   32.0120   38.0660 N   0  0  0  0  0  0  0  0  0  0  0  0
   38.9360   32.2670   39.3400 C   0  0  0  0  0  0  0  0  0  0  0  0
   39.7100   32.8580   40.2420 N   0  0  0  0  0  0  0  0  0  0  0  0
   42.4400   33.2760   38.2570 H   0  0  0  0  0  0  0  0  0  0  0  0
   40.9070   32.1560   36.6340 H   0  0  0  0  0  0  0  0  0  0  0  0
   41.8920   33.8700   40.7350 C   0  0  0  0  0  0  0  0  0  0  0  0
   42.5910   33.2990   41.6260 O   0  0  0  0  0  0  0  0  0  0  0  0
   42.0220   34.9450   40.6290 H   0  0  0  0  0  0  0  0  0  0  0  0
   37.5300   29.1900   42.2020 C   0  0  2  0  0  3  0  0  0  0  0  0
   36.6950   29.9210   41.2120 C   0  0  2  0  0  3  0  0  0  0  0  0
   35.6350   28.8910   40.8810 C   0  0  0  0  0  3  0  0  0  0  0  0
   34.8270   28.8720   41.6140 H   0  0  0  0  0  0  0  0  0  0  0  0
   36.3670   27.7070   40.8270 O   0  0  0  0  0  0  0  0  0  0  0  0
   37.3330   27.7460   41.8070 C   0  0  0  0  0  3  0  0  0  0  0  0
   36.9320   27.1620   42.6750 H   0  0  0  0  0  0  0  0  0  0  0  0
   37.0460   29.3680   43.5190 O   0  0  0  0  0  0  0  0  0  0  0  0
   36.0860   29.5220   43.5560 H   0  0  0  0  0  0  0  0  0  0  0  0
  1  3  1  0  0  0  0
  1  4  1  1  0  0  0
  2  1  1  0  0  0  0
  2  3  1  0  0  0  0
  3  7  1  6  0  0  0
  3 20  1  0  0  0  0
  5  2  1  0  0  0  0
  6  2  1  0  0  0  0
  8 13  1  0  0  0  0
  8 16  1  0  0  0  0
  9  8  2  0  0  0  0
 10 11  2  0  0  0  0
 10  9  1  0  0  0  0
 11 12  1  0  0  0  0
 12  1  1  0  0  0  0
 12 13  2  0  0  0  0
 14  9  1  0  0  0  0
 15 10  1  0  0  0  0
 16 17  2  0  0  0  0
 18 16  1  0  0  0  0
 19 26  1  1  0  0  0
 20 21  1  6  0  0  0
 20 19  1  0  0  0  0
 21 22  1  0  0  0  0
 23 21  1  0  0  0  0
 23 24  1  0  0  0  0
 24 19  1  0  0  0  0
 24 25  1  0  0  0  0
 26 27  1  0  0  0  0
M  END
>  <minimizedAffinity>
-4.52458239

$$$$
