
 OpenBabel03242523233D

 43 46  0  0  1  0  0  0  0  0999 V2000
   47.3750   32.7430   44.0570 C   0  0  0  0  0  0  0  0  0  0  0  0
   48.0650   33.0510   42.9640 C   0  0  0  0  0  0  0  0  0  0  0  0
   48.9240   32.0620   42.5300 C   0  0  0  0  0  0  0  0  0  0  0  0
   48.9860   30.8660   43.2610 N   0  0  0  0  0  0  0  0  0  0  0  0
   48.2820   30.6270   44.3300 C   0  0  0  0  0  0  0  0  0  0  0  0
   47.4090   31.5910   44.7960 N   0  0  0  0  0  0  0  0  0  0  0  0
   49.5900   32.0600   41.6800 H   0  0  0  0  0  0  0  0  0  0  0  0
   48.4270   29.6520   44.8060 H   0  0  0  0  0  0  0  0  0  0  0  0
   48.0960   34.2910   42.2840 C   0  0  1  0  0  0  0  0  0  0  0  0
   48.9050   34.6900   41.2660 C   0  0  0  0  0  0  0  0  0  0  0  0
   47.4990   34.3920   40.8500 C   0  0  1  0  0  0  0  0  0  0  0  0
   47.8040   35.1410   42.9600 H   0  0  0  0  0  0  0  0  0  0  0  0
   49.7170   33.9920   40.9010 H   0  0  0  0  0  0  0  0  0  0  0  0
   49.2220   35.7230   40.9990 H   0  0  0  0  0  0  0  0  0  0  0  0
   46.7980   35.2430   40.7220 H   0  0  0  0  0  0  0  0  0  0  0  0
   46.0650   33.1910   39.1380 C   0  0  1  0  0  3  0  0  0  0  0  0
   47.3080   33.2470   39.9680 C   0  0  1  0  0  3  0  0  0  0  0  0
   48.3900   33.3110   38.9150 C   0  0  0  0  0  3  0  0  0  0  0  0
   49.2800   33.8440   39.3110 H   0  0  0  0  0  0  0  0  0  0  0  0
   47.8220   34.0620   37.9100 O   0  0  0  0  0  0  0  0  0  0  0  0
   46.5240   33.5670   37.7660 C   0  0  0  0  0  3  0  0  0  0  0  0
   45.8430   34.3290   37.3590 H   0  0  0  0  0  0  0  0  0  0  0  0
   45.6540   31.8440   39.0760 O   0  0  0  0  0  0  0  0  0  0  0  0
   45.8310   31.4280   38.2030 H   0  0  0  0  0  0  0  0  0  0  0  0
   46.3370   33.5740   44.7030 C   0  0  0  0  0  0  0  0  0  0  0  0
   45.8210   34.1210   45.6340 O   0  0  0  0  0  0  0  0  0  0  0  0
   44.6560   31.4200   43.2640 Cl  0  0  0  0  0  0  0  0  0  0  0  0
   44.5190   33.1310   42.8930 C   0  0  0  0  0  0  0  0  0  0  0  0
   45.3530   33.9910   43.6550 C   0  0  0  0  0  0  0  0  0  0  0  0
   45.1490   35.2990   43.2770 C   0  0  0  0  0  0  0  0  0  0  0  0
   44.3460   35.8290   42.3650 C   0  0  0  0  0  0  0  0  0  0  0  0
   43.5700   34.9310   41.6640 C   0  0  0  0  0  0  0  0  0  0  0  0
   43.6480   33.5950   41.9210 C   0  0  0  0  0  0  0  0  0  0  0  0
   45.7190   36.0880   43.8240 H   0  0  0  0  0  0  0  0  0  0  0  0
   44.2570   36.8890   42.1340 H   0  0  0  0  0  0  0  0  0  0  0  0
   42.8870   35.3330   40.8940 H   0  0  0  0  0  0  0  0  0  0  0  0
   42.8230   32.8090   41.1610 O   0  0  0  0  0  0  0  0  0  0  0  0
   40.7200   31.5050   40.2910 O   0  0  0  0  0  0  0  0  0  0  0  0
   41.2680   32.2240   41.5000 P   0  0  0  0  0  0  0  0  0  0  0  0
   41.3360   31.1960   42.8460 O   0  0  0  0  0  0  0  0  0  0  0  0
   41.4080   31.7100   43.6710 H   0  0  0  0  0  0  0  0  0  0  0  0
   40.2190   33.4790   41.9410 O   0  0  0  0  0  0  0  0  0  0  0  0
   39.4190   33.0810   42.3740 H   0  0  0  0  0  0  0  0  0  0  0  0
  1 25  1  0  0  0  0
  1  6  1  0  0  0  0
  2  1  2  0  0  0  0
  3  2  1  0  0  0  0
  3  4  2  0  0  0  0
  4  5  1  0  0  0  0
  5  6  2  0  0  0  0
  5  8  1  0  0  0  0
  7  3  1  0  0  0  0
  9 12  1  1  0  0  0
  9  2  1  0  0  0  0
 10  9  1  0  0  0  0
 11 15  1  6  0  0  0
 11 10  1  0  0  0  0
 11  9  1  0  0  0  0
 13 10  1  0  0  0  0
 14 10  1  0  0  0  0
 16 23  1  6  0  0  0
 16 17  1  0  0  0  0
 17 18  1  6  0  0  0
 17 11  1  0  0  0  0
 18 19  1  0  0  0  0
 20 18  1  0  0  0  0
 21 20  1  0  0  0  0
 21 16  1  0  0  0  0
 22 21  1  0  0  0  0
 24 23  1  0  0  0  0
 25 26  2  0  0  0  0
 28 27  1  0  0  0  0
 28 29  1  0  0  0  0
 29 25  1  0  0  0  0
 30 29  2  0  0  0  0
 30 34  1  0  0  0  0
 31 30  1  0  0  0  0
 32 33  1  0  0  0  0
 32 31  2  0  0  0  0
 33 28  2  0  0  0  0
 35 31  1  0  0  0  0
 36 32  1  0  0  0  0
 37 39  1  0  0  0  0
 37 33  1  0  0  0  0
 38 39  2  0  0  0  0
 39 42  1  0  0  0  0
 39 40  1  0  0  0  0
 40 41  1  0  0  0  0
 42 43  1  0  0  0  0
M  END
>  <minimizedAffinity>
-5.60647345

>  <minimizedRMSD>
1.47000706

$$$$
