
     RDKit          3D

 29 30  0  0  0  0  0  0  0  0999 V2000
   44.3038   35.7818   44.1907 C   0  0  0  0  0  0  0  0  0  0  0  0
   44.4653   34.9471   43.0883 C   0  0  0  0  0  0  0  0  0  0  0  0
   45.0785   33.7156   43.3011 C   0  0  0  0  0  0  0  0  0  0  0  0
   45.4917   33.3814   44.5696 N   0  0  0  0  0  0  0  0  0  0  0  0
   45.3124   34.2258   45.6067 C   0  0  0  0  0  0  0  0  0  0  0  0
   44.7205   35.4173   45.4073 N   0  0  0  0  0  0  0  0  0  0  0  0
   44.0296   35.3005   41.7532 C   0  0  0  0  0  0  0  0  0  0  0  0
   43.0281   34.7692   41.0958 C   0  0  0  0  0  0  0  0  0  0  0  0
   42.6281   35.1794   39.7162 C   0  0  0  0  0  0  0  0  0  0  0  0
   43.8289   36.7458   44.0486 H   0  0  0  0  0  0  0  0  0  0  0  0
   45.2270   33.0294   42.4723 H   0  0  0  0  0  0  0  0  0  0  0  0
   45.6959   33.8022   46.5266 H   0  0  0  0  0  0  0  0  0  0  0  0
   44.5638   36.0848   41.2047 H   0  0  0  0  0  0  0  0  0  0  0  0
   42.3803   34.0001   41.4343 H   0  0  0  0  0  0  0  0  0  0  0  0
   43.3125   35.9398   39.3148 H   0  0  0  0  0  0  0  0  0  0  0  0
   41.5953   35.5761   39.6741 H   0  0  0  0  0  0  0  0  0  0  0  0
   42.8235   31.8357   37.0503 O   0  0  0  0  0  0  0  0  0  0  0  0
   43.2930   33.1011   36.7665 C   0  0  1  0  0  0  0  0  0  0  0  0
   42.3999   34.1442   37.4530 C   0  0  2  0  0  0  0  0  0  0  0  0
   41.3589   33.9238   37.1977 H   0  0  0  0  0  0  0  0  0  0  0  0
   42.7687   33.9032   38.8845 C   0  0  1  0  0  0  0  0  0  0  0  0
   44.0766   33.4549   38.9251 O   0  0  0  0  0  0  0  0  0  0  0  0
   44.5423   33.3095   37.6325 C   0  0  1  0  0  0  0  0  0  0  0  0
   45.2394   32.4762   37.5325 H   0  0  0  0  0  0  0  0  0  0  0  0
   41.8879   31.6659   36.7716 H   0  0  0  0  0  0  0  0  0  0  0  0
   43.4605   33.3307   35.7169 H   0  0  0  0  0  0  0  0  0  0  0  0
   42.7667   35.1162   37.0655 H   0  0  0  0  0  0  0  0  0  0  0  0
   42.0942   33.1489   39.3084 H   0  0  0  0  0  0  0  0  0  0  0  0
   44.9673   34.3031   37.3296 H   0  0  0  0  0  0  0  0  0  0  0  0
  1  6  2  0
  2  3  2  0
  2  1  1  0
  3  4  1  0
  4  5  2  0
  6  5  1  0
  7  2  1  0
  8  7  2  0
  9  8  1  0
  1 10  1  0
  3 11  1  0
  5 12  1  0
  7 13  1  0
  8 14  1  0
  9 15  1  0
  9 16  1  0
 17 18  1  0
 18 19  1  0
 19 20  1  1
 19 21  1  0
 21 22  1  0
 22 23  1  0
 23 24  1  1
 23 18  1  0
 17 25  1  0
 18 26  1  6
 19 27  1  0
 21 28  1  1
 23 29  1  0
  9 21  1  0
M  ISO  7  10  14  11  14  12  14  15   8  16   8  20   8  24  16
M  END
>  <DihAtoms>  (1) 
7,8,20,18

>  <DihDeg>  (1) 
59.99997530134338

$$$$
