
 OpenBabel03252501443D

 23 24  0  0  1  0  0  0  0  0999 V2000
   44.2400   35.6270   43.7630 C   0  0  0  0  0  0  0  0  0  0  0  0
   44.0040   34.8640   42.6220 C   0  0  0  0  0  0  0  0  0  0  0  0
   44.5220   33.5730   42.5930 C   0  0  0  0  0  0  0  0  0  0  0  0
   45.2250   33.1120   43.6590 N   0  0  0  0  0  0  0  0  0  0  0  0
   45.4300   33.8920   44.7530 C   0  0  0  0  0  0  0  0  0  0  0  0
   44.9400   35.1410   44.8020 N   0  0  0  0  0  0  0  0  0  0  0  0
   43.8490   36.6510   43.8230 H   0  0  0  0  0  0  0  0  0  0  0  0
   44.3910   32.9070   41.7530 H   0  0  0  0  0  0  0  0  0  0  0  0
   45.3390   32.8610   47.0280 C   0  0  1  0  0  3  0  0  0  0  0  0
   46.1800   33.4790   45.9580 C   0  0  1  0  0  3  0  0  0  0  0  0
   47.0260   32.2740   45.5510 C   0  0  0  0  0  3  0  0  0  0  0  0
   47.9100   32.6620   45.0310 H   0  0  0  0  0  0  0  0  0  0  0  0
   47.2830   31.5800   46.7140 O   0  0  0  0  0  0  0  0  0  0  0  0
   46.2140   31.7620   47.5700 C   0  0  0  0  0  3  0  0  0  0  0  0
   46.6420   32.1080   48.5470 H   0  0  0  0  0  0  0  0  0  0  0  0
   44.9340   33.7460   48.0140 O   0  0  0  0  0  0  0  0  0  0  0  0
   44.1120   33.3590   48.4450 H   0  0  0  0  0  0  0  0  0  0  0  0
   43.2520   35.3720   41.4920 C   0  0  0  0  0  3  0  0  0  0  0  0
   42.0050   35.0490   41.1910 C   0  0  0  0  0  3  0  0  0  0  0  0
   41.3120   35.6370   39.9870 C   0  0  0  0  0  0  0  0  0  0  0  0
   41.3250   34.9510   39.1210 H   0  0  0  0  0  0  0  0  0  0  0  0
   41.8880   36.5530   39.7320 H   0  0  0  0  0  0  0  0  0  0  0  0
   40.3120   35.9600   40.2830 H   0  0  0  0  0  0  0  0  0  0  0  0
  1  7  1  0  0  0  0
  1  6  1  0  0  0  0
  2  1  2  0  0  0  0
  3  2  1  0  0  0  0
  3  4  2  0  0  0  0
  4  5  1  0  0  0  0
  5  6  2  0  0  0  0
  8  3  1  0  0  0  0
  9 14  1  0  0  0  0
  9 16  1  1  0  0  0
 10  5  1  6  0  0  0
 10  9  1  0  0  0  0
 11 10  1  0  0  0  0
 11 13  1  0  0  0  0
 12 11  1  0  0  0  0
 13 14  1  0  0  0  0
 14 15  1  0  0  0  0
 16 17  1  0  0  0  0
 18  2  1  0  0  0  0
 19 18  2  0  0  0  0
 20 23  1  0  0  0  0
 20 19  1  0  0  0  0
 21 20  1  0  0  0  0
 22 20  1  0  0  0  0
M  END
>  <minimizedAffinity>
-4.7932148

>  <minimizedRMSD>
1.15353334

$$$$
