
 OpenBabel03242521153D

 28 30  0  0  1  0  0  0  0  0999 V2000
   39.4970   34.1610   40.4620 C   0  0  0  0  0  0  0  0  0  0  0  0
   38.8540   33.1060   41.1590 C   0  0  0  0  0  0  0  0  0  0  0  0
   38.9550   31.8330   40.6020 C   0  0  0  0  0  0  0  0  0  0  0  0
   39.6520   31.6800   39.4420 N   0  0  0  0  0  0  0  0  0  0  0  0
   40.2480   32.6950   38.8050 C   0  0  0  0  0  0  0  0  0  0  0  0
   40.1800   33.9440   39.3030 N   0  0  0  0  0  0  0  0  0  0  0  0
   39.4520   35.1750   40.8480 H   0  0  0  0  0  0  0  0  0  0  0  0
   38.3270   33.3390   42.0740 H   0  0  0  0  0  0  0  0  0  0  0  0
   38.3150   30.7490   41.2870 N   0  0  0  0  0  0  0  0  0  0  0  0
   39.0850   30.0070   42.1250 C   0  0  0  0  0  0  0  0  0  0  0  0
   38.4660   28.9470   42.7970 C   0  0  0  0  0  0  0  0  0  0  0  0
   37.1300   28.7200   42.5750 C   0  0  0  0  0  0  0  0  0  0  0  0
   36.5770   27.7520   43.1940 O   0  0  0  0  0  0  0  0  0  0  0  0
   36.3730   29.4650   41.7410 N   0  0  0  0  0  0  0  0  0  0  0  0
   37.0160   30.4710   41.1180 C   0  0  0  0  0  0  0  0  0  0  0  0
   36.4110   31.2220   40.3240 O   0  0  0  0  0  0  0  0  0  0  0  0
   40.1380   30.2360   42.2580 H   0  0  0  0  0  0  0  0  0  0  0  0
   39.0430   28.3260   43.4780 H   0  0  0  0  0  0  0  0  0  0  0  0
   35.3700   29.3130   41.5590 H   0  0  0  0  0  0  0  0  0  0  0  0
   42.3390   33.1220   37.6100 C   0  0  1  0  0  3  0  0  0  0  0  0
   40.9830   32.4130   37.5430 C   0  0  1  0  0  3  0  0  0  0  0  0
   41.3950   30.9650   37.4740 C   0  0  0  0  0  3  0  0  0  0  0  0
   40.8400   30.3780   38.2600 H   0  0  0  0  0  0  0  0  0  0  0  0
   42.7450   30.9100   37.8620 O   0  0  0  0  0  0  0  0  0  0  0  0
   43.3590   32.0380   37.3260 C   0  0  0  0  0  3  0  0  0  0  0  0
   43.5110   31.8680   36.2390 H   0  0  0  0  0  0  0  0  0  0  0  0
   42.3210   34.1070   36.6100 O   0  0  0  0  0  0  0  0  0  0  0  0
   41.7560   33.7820   35.8510 H   0  0  0  0  0  0  0  0  0  0  0  0
  1  7  1  0  0  0  0
  1  2  1  0  0  0  0
  2  8  1  0  0  0  0
  3  2  2  0  0  0  0
  3  9  1  0  0  0  0
  4  3  1  0  0  0  0
  5  6  1  0  0  0  0
  5  4  2  0  0  0  0
  6  1  2  0  0  0  0
  9 10  1  0  0  0  0
 10 17  1  0  0  0  0
 10 11  2  0  0  0  0
 11 18  1  0  0  0  0
 12 11  1  0  0  0  0
 12 13  2  0  0  0  0
 14 12  1  0  0  0  0
 15  9  1  0  0  0  0
 15 14  1  0  0  0  0
 16 15  2  0  0  0  0
 19 14  1  0  0  0  0
 20 27  1  6  0  0  0
 21 20  1  0  0  0  0
 21  5  1  1  0  0  0
 22 21  1  0  0  0  0
 22 24  1  0  0  0  0
 22 23  1  0  0  0  0
 25 20  1  0  0  0  0
 25 24  1  0  0  0  0
 26 25  1  0  0  0  0
 28 27  1  0  0  0  0
M  END
>  <minimizedAffinity>
-5.89621353

$$$$

 OpenBabel03242521153D

 28 30  0  0  1  0  0  0  0  0999 V2000
   37.6050   27.6130   43.6800 C   0  0  0  0  0  0  0  0  0  0  0  0
   37.6340   28.9490   43.2030 C   0  0  0  0  0  0  0  0  0  0  0  0
   37.8140   29.1220   41.8330 C   0  0  0  0  0  0  0  0  0  0  0  0
   37.9510   28.0190   41.0460 N   0  0  0  0  0  0  0  0  0  0  0  0
   37.9210   26.7690   41.5250 C   0  0  0  0  0  0  0  0  0  0  0  0
   37.7480   26.5490   42.8410 N   0  0  0  0  0  0  0  0  0  0  0  0
   37.4680   27.4160   44.7390 H   0  0  0  0  0  0  0  0  0  0  0  0
   37.5140   29.7530   43.9170 H   0  0  0  0  0  0  0  0  0  0  0  0
   37.8460   30.4620   41.3250 N   0  0  0  0  0  0  0  0  0  0  0  0
   39.0470   31.0990   41.3370 C   0  0  0  0  0  0  0  0  0  0  0  0
   39.0850   32.4070   40.8430 C   0  0  0  0  0  0  0  0  0  0  0  0
   37.9200   32.9680   40.3780 C   0  0  0  0  0  0  0  0  0  0  0  0
   37.9680   34.1610   39.9300 O   0  0  0  0  0  0  0  0  0  0  0  0
   36.7320   32.3260   40.3710 N   0  0  0  0  0  0  0  0  0  0  0  0
   36.7490   31.0700   40.8580 C   0  0  0  0  0  0  0  0  0  0  0  0
   35.7050   30.3860   40.8980 O   0  0  0  0  0  0  0  0  0  0  0  0
   39.9330   30.6010   41.7170 H   0  0  0  0  0  0  0  0  0  0  0  0
   40.0240   32.9560   40.8310 H   0  0  0  0  0  0  0  0  0  0  0  0
   35.8470   32.7260   40.0290 H   0  0  0  0  0  0  0  0  0  0  0  0
   37.3820   24.4110   41.1660 C   0  0  1  0  0  3  0  0  0  0  0  0
   38.0810   25.6370   40.5730 C   0  0  1  0  0  3  0  0  0  0  0  0
   37.2800   25.8730   39.3180 C   0  0  0  0  0  3  0  0  0  0  0  0
   36.9530   26.9500   39.2780 H   0  0  0  0  0  0  0  0  0  0  0  0
   36.0920   25.1330   39.4530 O   0  0  0  0  0  0  0  0  0  0  0  0
   36.4350   23.9400   40.0810 C   0  0  0  0  0  3  0  0  0  0  0  0
   36.9320   23.2840   39.3340 H   0  0  0  0  0  0  0  0  0  0  0  0
   38.3890   23.4700   41.4350 O   0  0  0  0  0  0  0  0  0  0  0  0
   39.1180   23.5810   40.7580 H   0  0  0  0  0  0  0  0  0  0  0  0
  1  7  1  0  0  0  0
  2  1  1  0  0  0  0
  2  8  1  0  0  0  0
  3  2  2  0  0  0  0
  4  5  2  0  0  0  0
  4  3  1  0  0  0  0
  5  6  1  0  0  0  0
  6  1  2  0  0  0  0
  9 10  1  0  0  0  0
  9  3  1  0  0  0  0
 10 17  1  0  0  0  0
 11 10  2  0  0  0  0
 12 11  1  0  0  0  0
 13 12  2  0  0  0  0
 14 12  1  0  0  0  0
 14 15  1  0  0  0  0
 15 16  2  0  0  0  0
 15  9  1  0  0  0  0
 18 11  1  0  0  0  0
 19 14  1  0  0  0  0
 20 27  1  6  0  0  0
 21 20  1  0  0  0  0
 21  5  1  1  0  0  0
 22 24  1  0  0  0  0
 22 21  1  0  0  0  0
 23 22  1  0  0  0  0
 24 25  1  0  0  0  0
 25 20  1  0  0  0  0
 26 25  1  0  0  0  0
 28 27  1  0  0  0  0
M  END
>  <minimizedAffinity>
-5.72275496

$$$$

 OpenBabel03242521153D

 28 30  0  0  1  0  0  0  0  0999 V2000
   36.6320   26.8540   39.1490 C   0  0  0  0  0  0  0  0  0  0  0  0
   36.8690   28.2480   39.0480 C   0  0  0  0  0  0  0  0  0  0  0  0
   37.4380   28.8690   40.1570 C   0  0  0  0  0  0  0  0  0  0  0  0
   37.7280   28.1150   41.2530 N   0  0  0  0  0  0  0  0  0  0  0  0
   37.4920   26.7990   41.3200 C   0  0  0  0  0  0  0  0  0  0  0  0
   36.9440   26.1520   40.2750 N   0  0  0  0  0  0  0  0  0  0  0  0
   36.1890   26.3150   38.3160 H   0  0  0  0  0  0  0  0  0  0  0  0
   36.6010   28.7510   38.1280 H   0  0  0  0  0  0  0  0  0  0  0  0
   37.6890   30.2790   40.0800 N   0  0  0  0  0  0  0  0  0  0  0  0
   38.8380   30.6700   39.4700 C   0  0  0  0  0  0  0  0  0  0  0  0
   39.0890   32.0440   39.3920 C   0  0  0  0  0  0  0  0  0  0  0  0
   38.1690   32.9110   39.9300 C   0  0  0  0  0  0  0  0  0  0  0  0
   38.4080   34.1610   39.8520 O   0  0  0  0  0  0  0  0  0  0  0  0
   37.0290   32.5110   40.5340 N   0  0  0  0  0  0  0  0  0  0  0  0
   36.8360   31.1800   40.5830 C   0  0  0  0  0  0  0  0  0  0  0  0
   35.8140   30.7010   41.1200 O   0  0  0  0  0  0  0  0  0  0  0  0
   39.5270   29.9350   39.0640 H   0  0  0  0  0  0  0  0  0  0  0  0
   39.9960   32.4040   38.9120 H   0  0  0  0  0  0  0  0  0  0  0  0
   36.3260   33.1430   40.9440 H   0  0  0  0  0  0  0  0  0  0  0  0
   38.7840   24.9180   42.2000 C   0  0  1  0  0  3  0  0  0  0  0  0
   37.8480   26.0730   42.5680 C   0  0  1  0  0  3  0  0  0  0  0  0
   38.7340   26.9190   43.4470 C   0  0  0  0  0  3  0  0  0  0  0  0
   38.7150   27.9860   43.0840 H   0  0  0  0  0  0  0  0  0  0  0  0
   40.0530   26.4820   43.2320 O   0  0  0  0  0  0  0  0  0  0  0  0
   39.9950   25.0980   43.0920 C   0  0  0  0  0  3  0  0  0  0  0  0
   39.8550   24.6520   44.1000 H   0  0  0  0  0  0  0  0  0  0  0  0
   38.0850   23.7340   42.4890 O   0  0  0  0  0  0  0  0  0  0  0  0
   37.4800   23.9030   43.2680 H   0  0  0  0  0  0  0  0  0  0  0  0
  1  6  1  0  0  0  0
  2  1  2  0  0  0  0
  2  3  1  0  0  0  0
  3  4  2  0  0  0  0
  4  5  1  0  0  0  0
  6  5  2  0  0  0  0
  7  1  1  0  0  0  0
  8  2  1  0  0  0  0
  9  3  1  0  0  0  0
  9 15  1  0  0  0  0
 10  9  1  0  0  0  0
 11 10  2  0  0  0  0
 11 12  1  0  0  0  0
 12 14  1  0  0  0  0
 13 12  2  0  0  0  0
 14 15  1  0  0  0  0
 14 19  1  0  0  0  0
 15 16  2  0  0  0  0
 17 10  1  0  0  0  0
 18 11  1  0  0  0  0
 20 27  1  1  0  0  0
 20 21  1  0  0  0  0
 20 25  1  0  0  0  0
 21  5  1  6  0  0  0
 21 22  1  0  0  0  0
 23 22  1  0  0  0  0
 24 22  1  0  0  0  0
 25 24  1  0  0  0  0
 25 26  1  0  0  0  0
 27 28  1  0  0  0  0
M  END
>  <minimizedAffinity>
-5.49398947

$$$$

 OpenBabel03242521153D

 28 30  0  0  1  0  0  0  0  0999 V2000
   38.8200   29.5270   42.8230 C   0  0  0  0  0  0  0  0  0  0  0  0
   38.8130   28.1270   42.5990 C   0  0  0  0  0  0  0  0  0  0  0  0
   38.0450   27.6660   41.5330 C   0  0  0  0  0  0  0  0  0  0  0  0
   37.3580   28.5700   40.7820 N   0  0  0  0  0  0  0  0  0  0  0  0
   37.3820   29.8880   41.0170 C   0  0  0  0  0  0  0  0  0  0  0  0
   38.1100   30.3830   42.0350 N   0  0  0  0  0  0  0  0  0  0  0  0
   39.4000   29.9450   43.6400 H   0  0  0  0  0  0  0  0  0  0  0  0
   39.3970   27.4980   43.2570 H   0  0  0  0  0  0  0  0  0  0  0  0
   38.0210   26.2540   41.2850 N   0  0  0  0  0  0  0  0  0  0  0  0
   37.1190   25.5190   41.9850 C   0  0  0  0  0  0  0  0  0  0  0  0
   37.0910   24.1400   41.7480 C   0  0  0  0  0  0  0  0  0  0  0  0
   37.9660   23.6130   40.8300 C   0  0  0  0  0  0  0  0  0  0  0  0
   37.9300   22.3560   40.6220 O   0  0  0  0  0  0  0  0  0  0  0  0
   38.8590   24.3550   40.1380 N   0  0  0  0  0  0  0  0  0  0  0  0
   38.8460   25.6740   40.4040 C   0  0  0  0  0  0  0  0  0  0  0  0
   39.6310   26.4520   39.8210 O   0  0  0  0  0  0  0  0  0  0  0  0
   36.4520   25.9940   42.6980 H   0  0  0  0  0  0  0  0  0  0  0  0
   36.3840   23.5110   42.2850 H   0  0  0  0  0  0  0  0  0  0  0  0
   39.5250   23.9810   39.4460 H   0  0  0  0  0  0  0  0  0  0  0  0
   37.4690   31.9840   39.7590 C   0  0  1  0  0  3  0  0  0  0  0  0
   36.5920   30.7860   40.1330 C   0  0  1  0  0  3  0  0  0  0  0  0
   36.3570   30.1440   38.7890 C   0  0  0  0  0  3  0  0  0  0  0  0
   36.6080   29.0470   38.8460 H   0  0  0  0  0  0  0  0  0  0  0  0
   37.3070   30.6920   37.9090 O   0  0  0  0  0  0  0  0  0  0  0  0
   37.4330   32.0360   38.2460 C   0  0  0  0  0  3  0  0  0  0  0  0
   36.5440   32.5770   37.8570 H   0  0  0  0  0  0  0  0  0  0  0  0
   36.8690   33.1120   40.3430 O   0  0  0  0  0  0  0  0  0  0  0  0
   35.8790   32.9700   40.3660 H   0  0  0  0  0  0  0  0  0  0  0  0
  1  7  1  0  0  0  0
  2  1  1  0  0  0  0
  2  8  1  0  0  0  0
  3  2  2  0  0  0  0
  4  5  2  0  0  0  0
  4  3  1  0  0  0  0
  5  6  1  0  0  0  0
  6  1  2  0  0  0  0
  9  3  1  0  0  0  0
  9 10  1  0  0  0  0
 10 17  1  0  0  0  0
 11 10  2  0  0  0  0
 11 18  1  0  0  0  0
 12 11  1  0  0  0  0
 13 12  2  0  0  0  0
 14 15  1  0  0  0  0
 14 12  1  0  0  0  0
 15  9  1  0  0  0  0
 16 15  2  0  0  0  0
 19 14  1  0  0  0  0
 20 21  1  0  0  0  0
 20 27  1  1  0  0  0
 21  5  1  1  0  0  0
 22 23  1  0  0  0  0
 22 21  1  0  0  0  0
 24 25  1  0  0  0  0
 24 22  1  0  0  0  0
 25 20  1  0  0  0  0
 26 25  1  0  0  0  0
 27 28  1  0  0  0  0
M  END
>  <minimizedAffinity>
-5.31105423

$$$$

 OpenBabel03242521153D

 28 30  0  0  1  0  0  0  0  0999 V2000
   37.0070   27.5880   43.6760 C   0  0  0  0  0  0  0  0  0  0  0  0
   37.3780   28.9050   43.3030 C   0  0  0  0  0  0  0  0  0  0  0  0
   37.7410   29.1020   41.9730 C   0  0  0  0  0  0  0  0  0  0  0  0
   37.7210   28.0370   41.1240 N   0  0  0  0  0  0  0  0  0  0  0  0
   37.3670   26.8040   41.5050 C   0  0  0  0  0  0  0  0  0  0  0  0
   37.0070   26.5620   42.7790 N   0  0  0  0  0  0  0  0  0  0  0  0
   36.7150   27.3740   44.7000 H   0  0  0  0  0  0  0  0  0  0  0  0
   37.3580   29.6790   44.0580 H   0  0  0  0  0  0  0  0  0  0  0  0
   38.1190   30.4250   41.5700 N   0  0  0  0  0  0  0  0  0  0  0  0
   37.2260   31.1210   40.8190 C   0  0  0  0  0  0  0  0  0  0  0  0
   37.5890   32.4130   40.4230 C   0  0  0  0  0  0  0  0  0  0  0  0
   38.8130   32.9000   40.8110 C   0  0  0  0  0  0  0  0  0  0  0  0
   39.1320   34.0780   40.4440 O   0  0  0  0  0  0  0  0  0  0  0  0
   39.6940   32.1980   41.5580 N   0  0  0  0  0  0  0  0  0  0  0  0
   39.2970   30.9610   41.9120 C   0  0  0  0  0  0  0  0  0  0  0  0
   40.0340   30.2270   42.6030 O   0  0  0  0  0  0  0  0  0  0  0  0
   36.2730   30.6810   40.5440 H   0  0  0  0  0  0  0  0  0  0  0  0
   36.9050   33.0080   39.8210 H   0  0  0  0  0  0  0  0  0  0  0  0
   40.6170   32.5430   41.8600 H   0  0  0  0  0  0  0  0  0  0  0  0
   38.7600   25.6950   39.8280 C   0  0  1  0  0  3  0  0  0  0  0  0
   37.3810   25.7130   40.4930 C   0  0  1  0  0  3  0  0  0  0  0  0
   37.3420   24.3620   41.1600 C   0  0  0  0  0  3  0  0  0  0  0  0
   37.0570   24.4840   42.2430 H   0  0  0  0  0  0  0  0  0  0  0  0
   38.6640   23.8830   41.1800 O   0  0  0  0  0  0  0  0  0  0  0  0
   39.2450   24.2670   39.9750 C   0  0  0  0  0  3  0  0  0  0  0  0
   38.8590   23.5990   39.1750 H   0  0  0  0  0  0  0  0  0  0  0  0
   38.5560   26.0490   38.4840 O   0  0  0  0  0  0  0  0  0  0  0  0
   37.6550   25.7190   38.1990 H   0  0  0  0  0  0  0  0  0  0  0  0
  1  7  1  0  0  0  0
  2  1  1  0  0  0  0
  2  8  1  0  0  0  0
  3  2  2  0  0  0  0
  4  5  2  0  0  0  0
  4  3  1  0  0  0  0
  5  6  1  0  0  0  0
  6  1  2  0  0  0  0
  9 15  1  0  0  0  0
  9  3  1  0  0  0  0
 10  9  1  0  0  0  0
 11 12  1  0  0  0  0
 11 10  2  0  0  0  0
 12 14  1  0  0  0  0
 13 12  2  0  0  0  0
 14 19  1  0  0  0  0
 14 15  1  0  0  0  0
 15 16  2  0  0  0  0
 17 10  1  0  0  0  0
 18 11  1  0  0  0  0
 20 27  1  6  0  0  0
 20 25  1  0  0  0  0
 20 21  1  0  0  0  0
 21 22  1  0  0  0  0
 21  5  1  1  0  0  0
 22 24  1  0  0  0  0
 22 23  1  0  0  0  0
 25 24  1  0  0  0  0
 26 25  1  0  0  0  0
 28 27  1  0  0  0  0
M  END
>  <minimizedAffinity>
-5.11857605

$$$$

 OpenBabel03242521153D

 28 30  0  0  1  0  0  0  0  0999 V2000
   35.5820   29.9440   40.6610 C   0  0  0  0  0  0  0  0  0  0  0  0
   36.2130   28.7930   41.1980 C   0  0  0  0  0  0  0  0  0  0  0  0
   37.6060   28.7900   41.2080 C   0  0  0  0  0  0  0  0  0  0  0  0
   38.2670   29.8710   40.7110 N   0  0  0  0  0  0  0  0  0  0  0  0
   37.6440   30.9440   40.2090 C   0  0  0  0  0  0  0  0  0  0  0  0
   36.2990   30.9970   40.1770 N   0  0  0  0  0  0  0  0  0  0  0  0
   34.4970   30.0040   40.6260 H   0  0  0  0  0  0  0  0  0  0  0  0
   35.5900   27.9900   41.5680 H   0  0  0  0  0  0  0  0  0  0  0  0
   38.2690   27.6380   41.7460 N   0  0  0  0  0  0  0  0  0  0  0  0
   38.6150   27.6820   43.0590 C   0  0  0  0  0  0  0  0  0  0  0  0
   39.2620   26.5610   43.5910 C   0  0  0  0  0  0  0  0  0  0  0  0
   39.5080   25.4910   42.7650 C   0  0  0  0  0  0  0  0  0  0  0  0
   40.0970   24.4750   43.2610 O   0  0  0  0  0  0  0  0  0  0  0  0
   39.1580   25.4580   41.4600 N   0  0  0  0  0  0  0  0  0  0  0  0
   38.5390   26.5610   40.9980 C   0  0  0  0  0  0  0  0  0  0  0  0
   38.1730   26.6370   39.8060 O   0  0  0  0  0  0  0  0  0  0  0  0
   38.3940   28.5570   43.6610 H   0  0  0  0  0  0  0  0  0  0  0  0
   39.5580   26.5500   44.6370 H   0  0  0  0  0  0  0  0  0  0  0  0
   39.3320   24.6680   40.8230 H   0  0  0  0  0  0  0  0  0  0  0  0
   38.9410   32.9040   40.8850 C   0  0  1  0  0  3  0  0  0  0  0  0
   38.4670   32.0700   39.6920 C   0  0  1  0  0  3  0  0  0  0  0  0
   39.7710   31.5670   39.1290 C   0  0  0  0  0  3  0  0  0  0  0  0
   39.7180   30.4490   38.9960 H   0  0  0  0  0  0  0  0  0  0  0  0
   40.7460   31.7720   40.1220 O   0  0  0  0  0  0  0  0  0  0  0  0
   40.4460   32.9890   40.7280 C   0  0  0  0  0  3  0  0  0  0  0  0
   40.7600   33.8050   40.0430 H   0  0  0  0  0  0  0  0  0  0  0  0
   38.3250   34.1600   40.7610 O   0  0  0  0  0  0  0  0  0  0  0  0
   38.2070   34.3630   39.7880 H   0  0  0  0  0  0  0  0  0  0  0  0
  1  2  1  0  0  0  0
  2  3  2  0  0  0  0
  2  8  1  0  0  0  0
  3  9  1  0  0  0  0
  4  3  1  0  0  0  0
  5  4  2  0  0  0  0
  6  5  1  0  0  0  0
  6  1  2  0  0  0  0
  7  1  1  0  0  0  0
  9 10  1  0  0  0  0
 10 11  2  0  0  0  0
 10 17  1  0  0  0  0
 11 18  1  0  0  0  0
 12 13  2  0  0  0  0
 12 11  1  0  0  0  0
 14 12  1  0  0  0  0
 15 14  1  0  0  0  0
 15  9  1  0  0  0  0
 16 15  2  0  0  0  0
 19 14  1  0  0  0  0
 20 27  1  6  0  0  0
 21  5  1  1  0  0  0
 21 20  1  0  0  0  0
 22 21  1  0  0  0  0
 22 24  1  0  0  0  0
 23 22  1  0  0  0  0
 24 25  1  0  0  0  0
 25 20  1  0  0  0  0
 26 25  1  0  0  0  0
 28 27  1  0  0  0  0
M  END
>  <minimizedAffinity>
-5.07323599

$$$$

 OpenBabel03242521153D

 28 30  0  0  1  0  0  0  0  0999 V2000
   37.4850   31.6880   39.9840 C   0  0  0  0  0  0  0  0  0  0  0  0
   36.7150   31.0230   38.9970 C   0  0  0  0  0  0  0  0  0  0  0  0
   36.2620   29.7440   39.3110 C   0  0  0  0  0  0  0  0  0  0  0  0
   36.5800   29.2170   40.5250 N   0  0  0  0  0  0  0  0  0  0  0  0
   37.3110   29.8690   41.4380 C   0  0  0  0  0  0  0  0  0  0  0  0
   37.7720   31.1070   41.1830 N   0  0  0  0  0  0  0  0  0  0  0  0
   37.8670   32.6880   39.7950 H   0  0  0  0  0  0  0  0  0  0  0  0
   36.5190   31.5360   38.0650 H   0  0  0  0  0  0  0  0  0  0  0  0
   35.4800   29.0500   38.3300 N   0  0  0  0  0  0  0  0  0  0  0  0
   36.1230   28.6370   37.2070 C   0  0  0  0  0  0  0  0  0  0  0  0
   35.3650   27.9590   36.2460 C   0  0  0  0  0  0  0  0  0  0  0  0
   34.0300   27.7510   36.4890 C   0  0  0  0  0  0  0  0  0  0  0  0
   33.3500   27.1310   35.6060 O   0  0  0  0  0  0  0  0  0  0  0  0
   33.4000   28.1670   37.6100 N   0  0  0  0  0  0  0  0  0  0  0  0
   34.1730   28.8140   38.5020 C   0  0  0  0  0  0  0  0  0  0  0  0
   33.6930   29.2420   39.5730 O   0  0  0  0  0  0  0  0  0  0  0  0
   37.1820   28.8310   37.0730 H   0  0  0  0  0  0  0  0  0  0  0  0
   35.8380   27.6080   35.3310 H   0  0  0  0  0  0  0  0  0  0  0  0
   32.4000   28.0220   37.8130 H   0  0  0  0  0  0  0  0  0  0  0  0
   37.0980   27.7520   42.6460 C   0  0  1  0  0  3  0  0  0  0  0  0
   37.6000   29.1960   42.7340 C   0  0  1  0  0  3  0  0  0  0  0  0
   39.0830   28.9970   42.9170 C   0  0  0  0  0  3  0  0  0  0  0  0
   39.6420   29.6210   42.1630 H   0  0  0  0  0  0  0  0  0  0  0  0
   39.3570   27.6640   42.5640 O   0  0  0  0  0  0  0  0  0  0  0  0
   38.2910   26.9010   43.0300 C   0  0  0  0  0  3  0  0  0  0  0  0
   38.3990   26.7870   44.1300 H   0  0  0  0  0  0  0  0  0  0  0  0
   36.0470   27.6400   43.5710 O   0  0  0  0  0  0  0  0  0  0  0  0
   36.2320   28.2540   44.3390 H   0  0  0  0  0  0  0  0  0  0  0  0
  1  6  1  0  0  0  0
  2  3  1  0  0  0  0
  2  1  2  0  0  0  0
  3  4  2  0  0  0  0
  4  5  1  0  0  0  0
  6  5  2  0  0  0  0
  7  1  1  0  0  0  0
  8  2  1  0  0  0  0
  9 15  1  0  0  0  0
  9  3  1  0  0  0  0
 10  9  1  0  0  0  0
 11 12  1  0  0  0  0
 11 10  2  0  0  0  0
 12 14  1  0  0  0  0
 13 12  2  0  0  0  0
 14 19  1  0  0  0  0
 14 15  1  0  0  0  0
 15 16  2  0  0  0  0
 17 10  1  0  0  0  0
 18 11  1  0  0  0  0
 20 21  1  0  0  0  0
 20 25  1  0  0  0  0
 20 27  1  1  0  0  0
 21  5  1  6  0  0  0
 21 22  1  0  0  0  0
 23 22  1  0  0  0  0
 24 22  1  0  0  0  0
 24 25  1  0  0  0  0
 25 26  1  0  0  0  0
 27 28  1  0  0  0  0
M  END
>  <minimizedAffinity>
-4.99993277

$$$$

 OpenBabel03242521153D

 28 30  0  0  1  0  0  0  0  0999 V2000
   36.4310   28.0910   38.3530 C   0  0  0  0  0  0  0  0  0  0  0  0
   37.4400   28.9310   37.8180 C   0  0  0  0  0  0  0  0  0  0  0  0
   38.2760   29.5680   38.7310 C   0  0  0  0  0  0  0  0  0  0  0  0
   38.0800   29.3510   40.0610 N   0  0  0  0  0  0  0  0  0  0  0  0
   37.1170   28.5520   40.5380 C   0  0  0  0  0  0  0  0  0  0  0  0
   36.2830   27.9140   39.6970 N   0  0  0  0  0  0  0  0  0  0  0  0
   35.7480   27.5690   37.6890 H   0  0  0  0  0  0  0  0  0  0  0  0
   37.5090   29.0320   36.7430 H   0  0  0  0  0  0  0  0  0  0  0  0
   39.3050   30.4220   38.2150 N   0  0  0  0  0  0  0  0  0  0  0  0
   40.5880   29.9920   38.3430 C   0  0  0  0  0  0  0  0  0  0  0  0
   41.5970   30.8210   37.8410 C   0  0  0  0  0  0  0  0  0  0  0  0
   41.2390   32.0100   37.2540 C   0  0  0  0  0  0  0  0  0  0  0  0
   42.1670   32.7560   36.8000 O   0  0  0  0  0  0  0  0  0  0  0  0
   39.9600   32.4280   37.1320 N   0  0  0  0  0  0  0  0  0  0  0  0
   39.0280   31.5940   37.6310 C   0  0  0  0  0  0  0  0  0  0  0  0
   37.8140   31.8830   37.5710 O   0  0  0  0  0  0  0  0  0  0  0  0
   40.8070   29.0410   38.8180 H   0  0  0  0  0  0  0  0  0  0  0  0
   42.6380   30.5170   37.9200 H   0  0  0  0  0  0  0  0  0  0  0  0
   39.6680   33.3150   36.6960 H   0  0  0  0  0  0  0  0  0  0  0  0
   37.6480   27.0600   42.4030 C   0  0  1  0  0  3  0  0  0  0  0  0
   36.9920   28.3870   42.0120 C   0  0  1  0  0  3  0  0  0  0  0  0
   37.8570   29.3850   42.7390 C   0  0  0  0  0  3  0  0  0  0  0  0
   38.1980   30.1830   42.0190 H   0  0  0  0  0  0  0  0  0  0  0  0
   39.0290   28.7050   43.1140 O   0  0  0  0  0  0  0  0  0  0  0  0
   38.6420   27.4220   43.4870 C   0  0  0  0  0  3  0  0  0  0  0  0
   38.1760   27.4780   44.4940 H   0  0  0  0  0  0  0  0  0  0  0  0
   36.6180   26.2350   42.8820 O   0  0  0  0  0  0  0  0  0  0  0  0
   35.9250   26.8100   43.3180 H   0  0  0  0  0  0  0  0  0  0  0  0
  1  6  1  0  0  0  0
  2  1  2  0  0  0  0
  2  3  1  0  0  0  0
  3  4  2  0  0  0  0
  4  5  1  0  0  0  0
  6  5  2  0  0  0  0
  7  1  1  0  0  0  0
  8  2  1  0  0  0  0
  9 10  1  0  0  0  0
  9  3  1  0  0  0  0
 10 17  1  0  0  0  0
 11 18  1  0  0  0  0
 11 10  2  0  0  0  0
 12 11  1  0  0  0  0
 13 12  2  0  0  0  0
 14 12  1  0  0  0  0
 14 15  1  0  0  0  0
 15  9  1  0  0  0  0
 16 15  2  0  0  0  0
 19 14  1  0  0  0  0
 20 27  1  1  0  0  0
 20 25  1  0  0  0  0
 21  5  1  6  0  0  0
 21 20  1  0  0  0  0
 21 22  1  0  0  0  0
 22 24  1  0  0  0  0
 23 22  1  0  0  0  0
 24 25  1  0  0  0  0
 25 26  1  0  0  0  0
 27 28  1  0  0  0  0
M  END
>  <minimizedAffinity>
-4.97042036

$$$$

 OpenBabel03242521153D

 28 30  0  0  1  0  0  0  0  0999 V2000
   37.6680   30.9850   37.1720 C   0  0  0  0  0  0  0  0  0  0  0  0
   37.2680   30.0770   38.1850 C   0  0  0  0  0  0  0  0  0  0  0  0
   37.9230   30.1760   39.4100 C   0  0  0  0  0  0  0  0  0  0  0  0
   38.8900   31.1220   39.5600 N   0  0  0  0  0  0  0  0  0  0  0  0
   39.2480   31.9660   38.5850 C   0  0  0  0  0  0  0  0  0  0  0  0
   38.6450   31.9110   37.3830 N   0  0  0  0  0  0  0  0  0  0  0  0
   37.1930   30.9550   36.1950 H   0  0  0  0  0  0  0  0  0  0  0  0
   36.4860   29.3650   37.9580 H   0  0  0  0  0  0  0  0  0  0  0  0
   37.5370   29.2700   40.4510 N   0  0  0  0  0  0  0  0  0  0  0  0
   38.0730   28.0220   40.4140 C   0  0  0  0  0  0  0  0  0  0  0  0
   37.7010   27.1320   41.4280 C   0  0  0  0  0  0  0  0  0  0  0  0
   36.8240   27.5650   42.3930 C   0  0  0  0  0  0  0  0  0  0  0  0
   36.4930   26.7450   43.3110 O   0  0  0  0  0  0  0  0  0  0  0  0
   36.2980   28.8090   42.4200 N   0  0  0  0  0  0  0  0  0  0  0  0
   36.6870   29.6250   41.4230 C   0  0  0  0  0  0  0  0  0  0  0  0
   36.2600   30.7970   41.3520 O   0  0  0  0  0  0  0  0  0  0  0  0
   38.7610   27.7390   39.6240 H   0  0  0  0  0  0  0  0  0  0  0  0
   38.1050   26.1230   41.4390 H   0  0  0  0  0  0  0  0  0  0  0  0
   35.6390   29.1550   43.1330 H   0  0  0  0  0  0  0  0  0  0  0  0
   40.6430   32.9160   40.3550 C   0  0  1  0  0  3  0  0  0  0  0  0
   40.3190   32.9610   38.8590 C   0  0  1  0  0  3  0  0  0  0  0  0
   41.6260   32.5250   38.2470 C   0  0  0  0  0  3  0  0  0  0  0  0
   41.4390   31.6880   37.5170 H   0  0  0  0  0  0  0  0  0  0  0  0
   42.3830   31.9460   39.2820 O   0  0  0  0  0  0  0  0  0  0  0  0
   42.1420   32.7050   40.4230 C   0  0  0  0  0  3  0  0  0  0  0  0
   42.7120   33.6540   40.3380 H   0  0  0  0  0  0  0  0  0  0  0  0
   40.2590   34.1600   40.8820 O   0  0  0  0  0  0  0  0  0  0  0  0
   40.3850   34.8580   40.1760 H   0  0  0  0  0  0  0  0  0  0  0  0
  1  6  2  0  0  0  0
  1  2  1  0  0  0  0
  2  3  2  0  0  0  0
  3  4  1  0  0  0  0
  3  9  1  0  0  0  0
  5  4  2  0  0  0  0
  6  5  1  0  0  0  0
  7  1  1  0  0  0  0
  8  2  1  0  0  0  0
  9 15  1  0  0  0  0
 10  9  1  0  0  0  0
 10 11  2  0  0  0  0
 11 18  1  0  0  0  0
 11 12  1  0  0  0  0
 12 14  1  0  0  0  0
 12 13  2  0  0  0  0
 14 19  1  0  0  0  0
 15 14  1  0  0  0  0
 16 15  2  0  0  0  0
 17 10  1  0  0  0  0
 20 25  1  0  0  0  0
 20 27  1  6  0  0  0
 21  5  1  1  0  0  0
 21 20  1  0  0  0  0
 22 21  1  0  0  0  0
 22 24  1  0  0  0  0
 23 22  1  0  0  0  0
 24 25  1  0  0  0  0
 26 25  1  0  0  0  0
 28 27  1  0  0  0  0
M  END
>  <minimizedAffinity>
-4.95048618

$$$$
