
 OpenBabel03242515273D

 31 33  0  0  1  0  0  0  0  0999 V2000
   37.4950   29.2510   42.5070 C   0  0  0  0  0  0  0  0  0  0  0  0
   38.5760   28.3770   42.6360 C   0  0  0  0  0  0  0  0  0  0  0  0
   39.6910   28.6540   41.8800 C   0  0  0  0  0  0  0  0  0  0  0  0
   39.6820   29.7330   41.0700 N   0  0  0  0  0  0  0  0  0  0  0  0
   38.6170   30.5570   40.9710 C   0  0  0  0  0  0  0  0  0  0  0  0
   37.4900   30.3320   41.6930 N   0  0  0  0  0  0  0  0  0  0  0  0
   36.5560   29.1310   43.0580 H   0  0  0  0  0  0  0  0  0  0  0  0
   40.5160   27.9770   41.9870 H   0  0  0  0  0  0  0  0  0  0  0  0
   38.3490   32.9970   40.6240 C   0  0  1  0  0  3  0  0  0  0  0  0
   38.8390   31.6870   40.0100 C   0  0  1  0  0  3  0  0  0  0  0  0
   40.2910   31.9910   39.8080 C   0  0  0  0  0  3  0  0  0  0  0  0
   40.7700   31.9880   40.7940 H   0  0  0  0  0  0  0  0  0  0  0  0
   40.2670   33.2970   39.3300 O   0  0  0  0  0  0  0  0  0  0  0  0
   39.2550   33.9790   39.9550 C   0  0  0  0  0  3  0  0  0  0  0  0
   39.7140   34.7230   40.6540 H   0  0  0  0  0  0  0  0  0  0  0  0
   37.0090   33.1960   40.3040 O   0  0  0  0  0  0  0  0  0  0  0  0
   36.5880   32.3010   40.2530 H   0  0  0  0  0  0  0  0  0  0  0  0
   38.3990   27.2620   43.5630 C   0  0  0  0  0  0  0  0  0  0  0  0
   37.4580   27.4660   44.1530 H   0  0  0  0  0  0  0  0  0  0  0  0
   39.1990   27.2120   44.2980 H   0  0  0  0  0  0  0  0  0  0  0  0
   38.2210   26.0330   42.7980 N   0  0  0  0  0  0  0  0  0  0  0  0
   37.1130   25.8740   42.0560 C   0  0  0  0  0  0  0  0  0  0  0  0
   36.9830   24.6880   41.3440 C   0  0  0  0  0  0  0  0  0  0  0  0
   37.9620   23.7170   41.4040 C   0  0  0  0  0  0  0  0  0  0  0  0
   37.8070   22.6580   40.7440 O   0  0  0  0  0  0  0  0  0  0  0  0
   39.0600   23.9270   42.1670 N   0  0  0  0  0  0  0  0  0  0  0  0
   39.1840   25.0820   42.8600 C   0  0  0  0  0  0  0  0  0  0  0  0
   40.2340   25.2150   43.5540 O   0  0  0  0  0  0  0  0  0  0  0  0
   36.3580   26.6370   42.0170 H   0  0  0  0  0  0  0  0  0  0  0  0
   36.0860   24.5710   40.7490 H   0  0  0  0  0  0  0  0  0  0  0  0
   39.7850   23.1700   42.1910 H   0  0  0  0  0  0  0  0  0  0  0  0
  1  2  1  0  0  0  0
  1  7  1  0  0  0  0
  2 18  1  0  0  0  0
  3  8  1  0  0  0  0
  3  2  2  0  0  0  0
  4  3  1  0  0  0  0
  5  4  2  0  0  0  0
  5  6  1  0  0  0  0
  6  1  2  0  0  0  0
  9 16  1  6  0  0  0
 10  9  1  0  0  0  0
 10  5  1  1  0  0  0
 11 10  1  0  0  0  0
 11 12  1  0  0  0  0
 13 11  1  0  0  0  0
 13 14  1  0  0  0  0
 14  9  1  0  0  0  0
 14 15  1  0  0  0  0
 17 16  1  0  0  0  0
 18 19  1  0  0  0  0
 18 20  1  0  0  0  0
 21 27  1  0  0  0  0
 21 18  1  0  0  0  0
 22 21  1  0  0  0  0
 23 24  1  0  0  0  0
 23 22  2  0  0  0  0
 24 26  1  0  0  0  0
 25 24  2  0  0  0  0
 26 31  1  0  0  0  0
 26 27  1  0  0  0  0
 27 28  2  0  0  0  0
 29 22  1  0  0  0  0
 30 23  1  0  0  0  0
M  END
>  <minimizedAffinity>
-5.74241447

$$$$

 OpenBabel03242515273D

 31 33  0  0  1  0  0  0  0  0999 V2000
   36.9200   27.1990   40.5370 C   0  0  0  0  0  0  0  0  0  0  0  0
   36.9800   27.5070   41.8970 C   0  0  0  0  0  0  0  0  0  0  0  0
   36.9040   28.8380   42.2360 C   0  0  0  0  0  0  0  0  0  0  0  0
   36.7790   29.7570   41.2560 N   0  0  0  0  0  0  0  0  0  0  0  0
   36.7250   29.4220   39.9490 C   0  0  0  0  0  0  0  0  0  0  0  0
   36.7960   28.1240   39.5580 N   0  0  0  0  0  0  0  0  0  0  0  0
   36.9710   26.1750   40.1500 H   0  0  0  0  0  0  0  0  0  0  0  0
   36.9490   29.0640   43.2840 H   0  0  0  0  0  0  0  0  0  0  0  0
   37.4020   31.7800   39.5910 C   0  0  1  0  0  3  0  0  0  0  0  0
   36.5850   30.6100   39.0450 C   0  0  1  0  0  3  0  0  0  0  0  0
   37.2410   30.3990   37.7160 C   0  0  0  0  0  3  0  0  0  0  0  0
   38.2210   29.9430   37.8990 H   0  0  0  0  0  0  0  0  0  0  0  0
   37.4350   31.6990   37.2600 O   0  0  0  0  0  0  0  0  0  0  0  0
   37.7420   32.5010   38.3280 C   0  0  0  0  0  3  0  0  0  0  0  0
   38.8190   32.7950   38.2480 H   0  0  0  0  0  0  0  0  0  0  0  0
   36.6170   32.5410   40.4530 O   0  0  0  0  0  0  0  0  0  0  0  0
   35.9900   31.9180   40.8980 H   0  0  0  0  0  0  0  0  0  0  0  0
   37.1160   26.3760   42.8120 C   0  0  0  0  0  0  0  0  0  0  0  0
   36.5920   25.4960   42.3340 H   0  0  0  0  0  0  0  0  0  0  0  0
   36.5990   26.5470   43.7520 H   0  0  0  0  0  0  0  0  0  0  0  0
   38.5310   26.0570   42.9640 N   0  0  0  0  0  0  0  0  0  0  0  0
   39.3470   26.9460   43.5530 C   0  0  0  0  0  0  0  0  0  0  0  0
   40.6880   26.6010   43.6760 C   0  0  0  0  0  0  0  0  0  0  0  0
   41.1520   25.3890   43.2080 C   0  0  0  0  0  0  0  0  0  0  0  0
   42.3720   25.1160   43.3400 O   0  0  0  0  0  0  0  0  0  0  0  0
   40.2880   24.5290   42.6210 N   0  0  0  0  0  0  0  0  0  0  0  0
   38.9840   24.8660   42.5020 C   0  0  0  0  0  0  0  0  0  0  0  0
   38.2290   24.0160   41.9450 O   0  0  0  0  0  0  0  0  0  0  0  0
   38.9740   27.8860   43.9130 H   0  0  0  0  0  0  0  0  0  0  0  0
   41.3370   27.3250   44.1530 H   0  0  0  0  0  0  0  0  0  0  0  0
   40.6720   23.6160   42.2770 H   0  0  0  0  0  0  0  0  0  0  0  0
  1  2  1  0  0  0  0
  2  3  2  0  0  0  0
  2 18  1  0  0  0  0
  3  8  1  0  0  0  0
  4  3  1  0  0  0  0
  5  4  2  0  0  0  0
  6  5  1  0  0  0  0
  6  1  2  0  0  0  0
  7  1  1  0  0  0  0
  9 16  1  1  0  0  0
 10  9  1  0  0  0  0
 10  5  1  1  0  0  0
 11 12  1  0  0  0  0
 11 10  1  0  0  0  0
 13 11  1  0  0  0  0
 13 14  1  0  0  0  0
 14  9  1  0  0  0  0
 15 14  1  0  0  0  0
 16 17  1  0  0  0  0
 18 21  1  0  0  0  0
 18 20  1  0  0  0  0
 19 18  1  0  0  0  0
 21 22  1  0  0  0  0
 22 23  2  0  0  0  0
 22 29  1  0  0  0  0
 23 30  1  0  0  0  0
 24 25  2  0  0  0  0
 24 23  1  0  0  0  0
 26 24  1  0  0  0  0
 27 26  1  0  0  0  0
 27 21  1  0  0  0  0
 28 27  2  0  0  0  0
 31 26  1  0  0  0  0
M  END
>  <minimizedAffinity>
-5.39979792

$$$$

 OpenBabel03242515273D

 31 33  0  0  1  0  0  0  0  0999 V2000
   39.2270   27.6180   41.3470 C   0  0  0  0  0  0  0  0  0  0  0  0
   38.9630   27.8590   42.6960 C   0  0  0  0  0  0  0  0  0  0  0  0
   38.4580   29.0970   43.0170 C   0  0  0  0  0  0  0  0  0  0  0  0
   38.2490   29.9950   42.0310 N   0  0  0  0  0  0  0  0  0  0  0  0
   38.5170   29.7260   40.7360 C   0  0  0  0  0  0  0  0  0  0  0  0
   39.0170   28.5210   40.3620 N   0  0  0  0  0  0  0  0  0  0  0  0
   39.6300   26.6690   40.9740 H   0  0  0  0  0  0  0  0  0  0  0  0
   38.2570   29.2720   44.0560 H   0  0  0  0  0  0  0  0  0  0  0  0
   37.6720   32.0540   40.6320 C   0  0  1  0  0  3  0  0  0  0  0  0
   38.2050   30.8740   39.8220 C   0  0  1  0  0  3  0  0  0  0  0  0
   39.4360   31.4750   39.2180 C   0  0  0  0  0  3  0  0  0  0  0  0
   40.1810   31.5770   40.0150 H   0  0  0  0  0  0  0  0  0  0  0  0
   39.0060   32.7460   38.8490 O   0  0  0  0  0  0  0  0  0  0  0  0
   38.1160   33.2020   39.7850 C   0  0  0  0  0  3  0  0  0  0  0  0
   38.6050   34.0280   40.3610 H   0  0  0  0  0  0  0  0  0  0  0  0
   36.2860   31.9660   40.7360 O   0  0  0  0  0  0  0  0  0  0  0  0
   36.0580   31.0030   40.7580 H   0  0  0  0  0  0  0  0  0  0  0  0
   39.2530   26.7640   43.6180 C   0  0  0  0  0  0  0  0  0  0  0  0
   38.6200   25.8850   43.3010 H   0  0  0  0  0  0  0  0  0  0  0  0
   38.9450   26.9950   44.6350 H   0  0  0  0  0  0  0  0  0  0  0  0
   40.6610   26.4010   43.4940 N   0  0  0  0  0  0  0  0  0  0  0  0
   41.6020   27.3400   43.6790 C   0  0  0  0  0  0  0  0  0  0  0  0
   42.9300   26.9510   43.5510 C   0  0  0  0  0  0  0  0  0  0  0  0
   43.2570   25.6450   43.2450 C   0  0  0  0  0  0  0  0  0  0  0  0
   44.4710   25.3340   43.1390 O   0  0  0  0  0  0  0  0  0  0  0  0
   42.2700   24.7370   43.0690 N   0  0  0  0  0  0  0  0  0  0  0  0
   40.9780   25.1180   43.1940 C   0  0  0  0  0  0  0  0  0  0  0  0
   40.1040   24.2200   43.0170 O   0  0  0  0  0  0  0  0  0  0  0  0
   41.3360   28.3520   43.9160 H   0  0  0  0  0  0  0  0  0  0  0  0
   43.6810   27.7160   43.7020 H   0  0  0  0  0  0  0  0  0  0  0  0
   42.5510   23.7540   42.8380 H   0  0  0  0  0  0  0  0  0  0  0  0
  1  2  1  0  0  0  0
  2  3  2  0  0  0  0
  2 18  1  0  0  0  0
  3  8  1  0  0  0  0
  4  3  1  0  0  0  0
  5  4  2  0  0  0  0
  6  5  1  0  0  0  0
  6  1  2  0  0  0  0
  7  1  1  0  0  0  0
  9 16  1  6  0  0  0
 10  9  1  0  0  0  0
 10  5  1  1  0  0  0
 11 10  1  0  0  0  0
 11 12  1  0  0  0  0
 13 11  1  0  0  0  0
 13 14  1  0  0  0  0
 14 15  1  0  0  0  0
 14  9  1  0  0  0  0
 16 17  1  0  0  0  0
 18 20  1  0  0  0  0
 19 18  1  0  0  0  0
 21 18  1  0  0  0  0
 21 22  1  0  0  0  0
 22 29  1  0  0  0  0
 23 22  2  0  0  0  0
 23 30  1  0  0  0  0
 24 23  1  0  0  0  0
 25 24  2  0  0  0  0
 26 27  1  0  0  0  0
 26 24  1  0  0  0  0
 27 21  1  0  0  0  0
 28 27  2  0  0  0  0
 31 26  1  0  0  0  0
M  END
>  <minimizedAffinity>
-5.38085556

$$$$

 OpenBabel03242515273D

 31 33  0  0  1  0  0  0  0  0999 V2000
   36.6910   29.3400   41.1480 C   0  0  0  0  0  0  0  0  0  0  0  0
   37.6180   30.3700   41.3090 C   0  0  0  0  0  0  0  0  0  0  0  0
   38.7240   30.0960   42.0800 C   0  0  0  0  0  0  0  0  0  0  0  0
   38.8510   28.8700   42.6280 N   0  0  0  0  0  0  0  0  0  0  0  0
   37.9330   27.8960   42.4500 C   0  0  0  0  0  0  0  0  0  0  0  0
   36.8230   28.1120   41.7000 N   0  0  0  0  0  0  0  0  0  0  0  0
   35.7750   29.4430   40.5560 H   0  0  0  0  0  0  0  0  0  0  0  0
   39.4300   30.8940   42.1970 H   0  0  0  0  0  0  0  0  0  0  0  0
   38.1710   25.4420   42.1900 C   0  0  1  0  0  3  0  0  0  0  0  0
   38.2880   26.6200   43.1550 C   0  0  1  0  0  3  0  0  0  0  0  0
   39.7390   26.5510   43.5170 C   0  0  0  0  0  3  0  0  0  0  0  0
   40.3140   26.8930   42.6480 H   0  0  0  0  0  0  0  0  0  0  0  0
   39.9490   25.1850   43.6770 O   0  0  0  0  0  0  0  0  0  0  0  0
   39.1900   24.5090   42.7590 C   0  0  0  0  0  3  0  0  0  0  0  0
   39.8760   24.0650   41.9940 H   0  0  0  0  0  0  0  0  0  0  0  0
   36.8800   24.9230   42.2350 O   0  0  0  0  0  0  0  0  0  0  0  0
   36.2700   25.6810   42.4170 H   0  0  0  0  0  0  0  0  0  0  0  0
   37.3080   31.6310   40.6380 C   0  0  0  0  0  0  0  0  0  0  0  0
   37.2640   32.4300   41.4340 H   0  0  0  0  0  0  0  0  0  0  0  0
   36.3210   31.6180   40.1820 H   0  0  0  0  0  0  0  0  0  0  0  0
   38.3860   31.9500   39.7070 N   0  0  0  0  0  0  0  0  0  0  0  0
   38.6490   31.1120   38.6920 C   0  0  0  0  0  0  0  0  0  0  0  0
   39.6840   31.4540   37.8300 C   0  0  0  0  0  0  0  0  0  0  0  0
   40.4070   32.6140   38.0210 C   0  0  0  0  0  0  0  0  0  0  0  0
   41.3360   32.8870   37.2170 O   0  0  0  0  0  0  0  0  0  0  0  0
   40.1020   33.4250   39.0600 N   0  0  0  0  0  0  0  0  0  0  0  0
   39.0940   33.0890   39.8970 C   0  0  0  0  0  0  0  0  0  0  0  0
   38.8590   33.8910   40.8490 O   0  0  0  0  0  0  0  0  0  0  0  0
   38.0800   30.2120   38.5540 H   0  0  0  0  0  0  0  0  0  0  0  0
   39.8880   30.7710   37.0150 H   0  0  0  0  0  0  0  0  0  0  0  0
   40.6690   34.2980   39.1760 H   0  0  0  0  0  0  0  0  0  0  0  0
  1  2  2  0  0  0  0
  1  6  1  0  0  0  0
  2  3  1  0  0  0  0
  3  8  1  0  0  0  0
  3  4  2  0  0  0  0
  5  4  1  0  0  0  0
  6  5  2  0  0  0  0
  7  1  1  0  0  0  0
  9 16  1  1  0  0  0
  9 14  1  0  0  0  0
  9 10  1  0  0  0  0
 10  5  1  6  0  0  0
 10 11  1  0  0  0  0
 11 13  1  0  0  0  0
 12 11  1  0  0  0  0
 14 13  1  0  0  0  0
 15 14  1  0  0  0  0
 16 17  1  0  0  0  0
 18  2  1  0  0  0  0
 18 19  1  0  0  0  0
 20 18  1  0  0  0  0
 21 27  1  0  0  0  0
 21 18  1  0  0  0  0
 22 21  1  0  0  0  0
 23 24  1  0  0  0  0
 23 22  2  0  0  0  0
 24 26  1  0  0  0  0
 25 24  2  0  0  0  0
 26 31  1  0  0  0  0
 26 27  1  0  0  0  0
 27 28  2  0  0  0  0
 29 22  1  0  0  0  0
 30 23  1  0  0  0  0
M  END
>  <minimizedAffinity>
-5.29813337

$$$$

 OpenBabel03242515273D

 31 33  0  0  1  0  0  0  0  0999 V2000
   37.4880   29.5680   39.0590 C   0  0  0  0  0  0  0  0  0  0  0  0
   36.5590   29.5880   40.1000 C   0  0  0  0  0  0  0  0  0  0  0  0
   36.5230   30.7210   40.8790 C   0  0  0  0  0  0  0  0  0  0  0  0
   37.3710   31.7330   40.6010 N   0  0  0  0  0  0  0  0  0  0  0  0
   38.2570   31.6800   39.5840 C   0  0  0  0  0  0  0  0  0  0  0  0
   38.3360   30.5860   38.7840 N   0  0  0  0  0  0  0  0  0  0  0  0
   37.6070   28.7210   38.3750 H   0  0  0  0  0  0  0  0  0  0  0  0
   35.8050   30.7260   41.6760 H   0  0  0  0  0  0  0  0  0  0  0  0
   39.6550   33.2990   40.8360 C   0  0  1  0  0  3  0  0  0  0  0  0
   39.0920   32.9200   39.4680 C   0  0  1  0  0  3  0  0  0  0  0  0
   40.3520   32.6920   38.6930 C   0  0  0  0  0  3  0  0  0  0  0  0
   40.7900   31.7500   39.0410 H   0  0  0  0  0  0  0  0  0  0  0  0
   41.1640   33.7410   39.1130 O   0  0  0  0  0  0  0  0  0  0  0  0
   40.9230   33.9830   40.4400 C   0  0  0  0  0  3  0  0  0  0  0  0
   41.8190   33.6530   41.0250 H   0  0  0  0  0  0  0  0  0  0  0  0
   38.7670   34.1470   41.4930 O   0  0  0  0  0  0  0  0  0  0  0  0
   37.8550   33.8840   41.2130 H   0  0  0  0  0  0  0  0  0  0  0  0
   35.7260   28.3960   40.2460 C   0  0  0  0  0  0  0  0  0  0  0  0
   35.4510   28.0530   39.2060 H   0  0  0  0  0  0  0  0  0  0  0  0
   34.7830   28.6160   40.7400 H   0  0  0  0  0  0  0  0  0  0  0  0
   36.5060   27.3490   40.8980 N   0  0  0  0  0  0  0  0  0  0  0  0
   36.8970   27.5150   42.1720 C   0  0  0  0  0  0  0  0  0  0  0  0
   37.6380   26.4940   42.7530 C   0  0  0  0  0  0  0  0  0  0  0  0
   37.9550   25.3560   42.0390 C   0  0  0  0  0  0  0  0  0  0  0  0
   38.6270   24.4550   42.6030 O   0  0  0  0  0  0  0  0  0  0  0  0
   37.5370   25.2380   40.7580 N   0  0  0  0  0  0  0  0  0  0  0  0
   36.8150   26.2340   40.1940 C   0  0  0  0  0  0  0  0  0  0  0  0
   36.4550   26.0600   38.9930 O   0  0  0  0  0  0  0  0  0  0  0  0
   36.6450   28.4050   42.7170 H   0  0  0  0  0  0  0  0  0  0  0  0
   37.9480   26.6380   43.7810 H   0  0  0  0  0  0  0  0  0  0  0  0
   37.7930   24.3620   40.2430 H   0  0  0  0  0  0  0  0  0  0  0  0
  1  2  1  0  0  0  0
  2 18  1  0  0  0  0
  2  3  2  0  0  0  0
  3  8  1  0  0  0  0
  4  3  1  0  0  0  0
  5  4  2  0  0  0  0
  6  1  2  0  0  0  0
  6  5  1  0  0  0  0
  7  1  1  0  0  0  0
  9 16  1  6  0  0  0
 10  5  1  1  0  0  0
 10  9  1  0  0  0  0
 11 12  1  0  0  0  0
 11 13  1  0  0  0  0
 11 10  1  0  0  0  0
 13 14  1  0  0  0  0
 14  9  1  0  0  0  0
 14 15  1  0  0  0  0
 17 16  1  0  0  0  0
 18 20  1  0  0  0  0
 18 21  1  0  0  0  0
 19 18  1  0  0  0  0
 21 22  1  0  0  0  0
 22 29  1  0  0  0  0
 22 23  2  0  0  0  0
 23 30  1  0  0  0  0
 24 25  2  0  0  0  0
 24 23  1  0  0  0  0
 26 24  1  0  0  0  0
 27 26  1  0  0  0  0
 27 21  1  0  0  0  0
 28 27  2  0  0  0  0
 31 26  1  0  0  0  0
M  END
>  <minimizedAffinity>
-5.18847799

$$$$

 OpenBabel03242515273D

 31 33  0  0  1  0  0  0  0  0999 V2000
   37.2380   29.1130   39.2760 C   0  0  0  0  0  0  0  0  0  0  0  0
   37.1550   30.2530   40.0770 C   0  0  0  0  0  0  0  0  0  0  0  0
   37.1880   30.0590   41.4380 C   0  0  0  0  0  0  0  0  0  0  0  0
   37.2960   28.8020   41.9170 N   0  0  0  0  0  0  0  0  0  0  0  0
   37.3750   27.7220   41.1120 C   0  0  0  0  0  0  0  0  0  0  0  0
   37.3460   27.8550   39.7610 N   0  0  0  0  0  0  0  0  0  0  0  0
   37.2220   29.1460   38.1810 H   0  0  0  0  0  0  0  0  0  0  0  0
   37.1240   30.9410   42.0450 H   0  0  0  0  0  0  0  0  0  0  0  0
   37.7350   25.2780   40.9010 C   0  0  1  0  0  3  0  0  0  0  0  0
   37.4890   26.4330   41.8700 C   0  0  1  0  0  3  0  0  0  0  0  0
   38.7270   26.3700   42.7090 C   0  0  0  0  0  3  0  0  0  0  0  0
   39.5590   26.7410   42.1010 H   0  0  0  0  0  0  0  0  0  0  0  0
   38.8950   25.0030   42.9050 O   0  0  0  0  0  0  0  0  0  0  0  0
   38.5120   24.3420   41.7680 C   0  0  0  0  0  3  0  0  0  0  0  0
   39.4300   23.9260   41.2780 H   0  0  0  0  0  0  0  0  0  0  0  0
   36.5180   24.7440   40.4850 O   0  0  0  0  0  0  0  0  0  0  0  0
   35.8680   25.4900   40.4610 H   0  0  0  0  0  0  0  0  0  0  0  0
   37.0420   31.5300   39.3760 C   0  0  0  0  0  0  0  0  0  0  0  0
   36.7800   32.3120   40.1480 H   0  0  0  0  0  0  0  0  0  0  0  0
   36.2200   31.5340   38.6650 H   0  0  0  0  0  0  0  0  0  0  0  0
   38.3350   31.8630   38.7870 N   0  0  0  0  0  0  0  0  0  0  0  0
   39.3620   32.1830   39.5900 C   0  0  0  0  0  0  0  0  0  0  0  0
   40.5750   32.4940   38.9870 C   0  0  0  0  0  0  0  0  0  0  0  0
   40.7070   32.4710   37.6140 C   0  0  0  0  0  0  0  0  0  0  0  0
   41.8220   32.7580   37.1080 O   0  0  0  0  0  0  0  0  0  0  0  0
   39.6410   32.1410   36.8490 N   0  0  0  0  0  0  0  0  0  0  0  0
   38.4610   31.8400   37.4380 C   0  0  0  0  0  0  0  0  0  0  0  0
   37.5040   31.5400   36.6650 O   0  0  0  0  0  0  0  0  0  0  0  0
   39.2460   32.1980   40.6580 H   0  0  0  0  0  0  0  0  0  0  0  0
   41.3960   32.7500   39.6440 H   0  0  0  0  0  0  0  0  0  0  0  0
   39.7740   32.1330   35.8090 H   0  0  0  0  0  0  0  0  0  0  0  0
  1  6  2  0  0  0  0
  1  2  1  0  0  0  0
  2  3  2  0  0  0  0
  3  4  1  0  0  0  0
  3  8  1  0  0  0  0
  5  4  2  0  0  0  0
  6  5  1  0  0  0  0
  7  1  1  0  0  0  0
  9 16  1  1  0  0  0
  9 14  1  0  0  0  0
  9 10  1  0  0  0  0
 10  5  1  6  0  0  0
 10 11  1  0  0  0  0
 11 13  1  0  0  0  0
 12 11  1  0  0  0  0
 14 13  1  0  0  0  0
 15 14  1  0  0  0  0
 17 16  1  0  0  0  0
 18  2  1  0  0  0  0
 18 19  1  0  0  0  0
 20 18  1  0  0  0  0
 21 18  1  0  0  0  0
 21 22  1  0  0  0  0
 22 29  1  0  0  0  0
 23 22  2  0  0  0  0
 23 30  1  0  0  0  0
 24 23  1  0  0  0  0
 25 24  2  0  0  0  0
 26 27  1  0  0  0  0
 26 24  1  0  0  0  0
 27 21  1  0  0  0  0
 28 27  2  0  0  0  0
 31 26  1  0  0  0  0
M  END
>  <minimizedAffinity>
-5.150877

$$$$

 OpenBabel03242515273D

 31 33  0  0  1  0  0  0  0  0999 V2000
   36.9620   30.4960   38.9370 C   0  0  0  0  0  0  0  0  0  0  0  0
   36.0560   30.1130   39.9270 C   0  0  0  0  0  0  0  0  0  0  0  0
   34.9650   29.3810   39.5210 C   0  0  0  0  0  0  0  0  0  0  0  0
   34.8310   29.0780   38.2120 N   0  0  0  0  0  0  0  0  0  0  0  0
   35.7290   29.4650   37.2820 C   0  0  0  0  0  0  0  0  0  0  0  0
   36.8230   30.1900   37.6270 N   0  0  0  0  0  0  0  0  0  0  0  0
   37.8650   31.0810   39.1430 H   0  0  0  0  0  0  0  0  0  0  0  0
   34.2750   29.0910   40.2890 H   0  0  0  0  0  0  0  0  0  0  0  0
   36.4500   28.0760   35.3590 C   0  0  1  0  0  3  0  0  0  0  0  0
   35.3700   29.0120   35.8970 C   0  0  1  0  0  3  0  0  0  0  0  0
   34.1760   28.1100   35.8820 C   0  0  0  0  0  3  0  0  0  0  0  0
   34.2950   27.3870   36.6970 H   0  0  0  0  0  0  0  0  0  0  0  0
   34.3150   27.4400   34.6710 O   0  0  0  0  0  0  0  0  0  0  0  0
   35.6470   27.2180   34.4380 C   0  0  0  0  0  3  0  0  0  0  0  0
   35.8450   26.1220   34.5500 H   0  0  0  0  0  0  0  0  0  0  0  0
   37.4260   28.8140   34.6950 O   0  0  0  0  0  0  0  0  0  0  0  0
   37.4900   29.6890   35.1550 H   0  0  0  0  0  0  0  0  0  0  0  0
   36.3700   30.5360   41.2900 C   0  0  0  0  0  0  0  0  0  0  0  0
   35.3900   30.6270   41.8450 H   0  0  0  0  0  0  0  0  0  0  0  0
   36.8140   31.5270   41.3180 H   0  0  0  0  0  0  0  0  0  0  0  0
   37.1800   29.5060   41.9310 N   0  0  0  0  0  0  0  0  0  0  0  0
   36.6280   28.3160   42.2160 C   0  0  0  0  0  0  0  0  0  0  0  0
   37.4360   27.3640   42.8260 C   0  0  0  0  0  0  0  0  0  0  0  0
   38.7550   27.6420   43.1230 C   0  0  0  0  0  0  0  0  0  0  0  0
   39.4520   26.7530   43.6750 O   0  0  0  0  0  0  0  0  0  0  0  0
   39.2630   28.8570   42.8140 N   0  0  0  0  0  0  0  0  0  0  0  0
   38.4750   29.7820   42.2200 C   0  0  0  0  0  0  0  0  0  0  0  0
   39.0120   30.8980   41.9580 O   0  0  0  0  0  0  0  0  0  0  0  0
   35.6000   28.1110   41.9810 H   0  0  0  0  0  0  0  0  0  0  0  0
   36.9800   26.4080   43.0530 H   0  0  0  0  0  0  0  0  0  0  0  0
   40.2680   29.0370   43.0520 H   0  0  0  0  0  0  0  0  0  0  0  0
  1  7  1  0  0  0  0
  1  2  1  0  0  0  0
  2 18  1  0  0  0  0
  3  2  2  0  0  0  0
  3  8  1  0  0  0  0
  4  3  1  0  0  0  0
  5  6  1  0  0  0  0
  5  4  2  0  0  0  0
  6  1  2  0  0  0  0
  9 16  1  6  0  0  0
  9 10  1  0  0  0  0
 10  5  1  1  0  0  0
 11 10  1  0  0  0  0
 11 12  1  0  0  0  0
 13 11  1  0  0  0  0
 14 15  1  0  0  0  0
 14 13  1  0  0  0  0
 14  9  1  0  0  0  0
 16 17  1  0  0  0  0
 18 20  1  0  0  0  0
 18 19  1  0  0  0  0
 18 21  1  0  0  0  0
 21 22  1  0  0  0  0
 21 27  1  0  0  0  0
 22 23  2  0  0  0  0
 23 30  1  0  0  0  0
 23 24  1  0  0  0  0
 24 25  2  0  0  0  0
 26 31  1  0  0  0  0
 26 24  1  0  0  0  0
 27 26  1  0  0  0  0
 28 27  2  0  0  0  0
 29 22  1  0  0  0  0
M  END
>  <minimizedAffinity>
-5.11041641

$$$$

 OpenBabel03242515273D

 31 33  0  0  1  0  0  0  0  0999 V2000
   38.9900   29.6880   41.1690 C   0  0  0  0  0  0  0  0  0  0  0  0
   37.7370   29.6990   40.5550 C   0  0  0  0  0  0  0  0  0  0  0  0
   37.6640   30.2660   39.3040 C   0  0  0  0  0  0  0  0  0  0  0  0
   38.7850   30.7700   38.7470 N   0  0  0  0  0  0  0  0  0  0  0  0
   39.9820   30.7410   39.3720 C   0  0  0  0  0  0  0  0  0  0  0  0
   40.1110   30.1950   40.6080 N   0  0  0  0  0  0  0  0  0  0  0  0
   39.1680   29.2640   42.1630 H   0  0  0  0  0  0  0  0  0  0  0  0
   36.6970   30.2690   38.8400 H   0  0  0  0  0  0  0  0  0  0  0  0
   40.5920   32.6600   37.9250 C   0  0  1  0  0  3  0  0  0  0  0  0
   41.0810   31.3600   38.5600 C   0  0  1  0  0  3  0  0  0  0  0  0
   42.2060   31.8630   39.4100 C   0  0  0  0  0  3  0  0  0  0  0  0
   41.7670   32.3960   40.2610 H   0  0  0  0  0  0  0  0  0  0  0  0
   42.8260   32.7900   38.5780 O   0  0  0  0  0  0  0  0  0  0  0  0
   41.8690   33.4290   37.8350 C   0  0  0  0  0  3  0  0  0  0  0  0
   41.7890   34.4850   38.1990 H   0  0  0  0  0  0  0  0  0  0  0  0
   40.0340   32.3940   36.6770 O   0  0  0  0  0  0  0  0  0  0  0  0
   39.6190   31.4970   36.7310 H   0  0  0  0  0  0  0  0  0  0  0  0
   36.6380   29.1050   41.3140 C   0  0  0  0  0  0  0  0  0  0  0  0
   35.6790   29.4000   40.7970 H   0  0  0  0  0  0  0  0  0  0  0  0
   36.5670   29.5160   42.3180 H   0  0  0  0  0  0  0  0  0  0  0  0
   36.7680   27.6530   41.2760 N   0  0  0  0  0  0  0  0  0  0  0  0
   36.6410   27.0100   40.1040 C   0  0  0  0  0  0  0  0  0  0  0  0
   36.7710   25.6270   40.1140 C   0  0  0  0  0  0  0  0  0  0  0  0
   37.0210   24.9490   41.2910 C   0  0  0  0  0  0  0  0  0  0  0  0
   37.1330   23.6970   41.2560 O   0  0  0  0  0  0  0  0  0  0  0  0
   37.1400   25.6440   42.4450 N   0  0  0  0  0  0  0  0  0  0  0  0
   37.0130   26.9910   42.4330 C   0  0  0  0  0  0  0  0  0  0  0  0
   37.1360   27.5800   43.5470 O   0  0  0  0  0  0  0  0  0  0  0  0
   36.4460   27.5480   39.1960 H   0  0  0  0  0  0  0  0  0  0  0  0
   36.6670   25.1190   39.1640 H   0  0  0  0  0  0  0  0  0  0  0  0
   37.3310   25.1000   43.3210 H   0  0  0  0  0  0  0  0  0  0  0  0
  1  7  1  0  0  0  0
  2  1  2  0  0  0  0
  2 18  1  0  0  0  0
  3  2  1  0  0  0  0
  4  3  2  0  0  0  0
  4  5  1  0  0  0  0
  5  6  2  0  0  0  0
  6  1  1  0  0  0  0
  8  3  1  0  0  0  0
  9 16  1  6  0  0  0
  9 10  1  0  0  0  0
 10  5  1  1  0  0  0
 10 11  1  0  0  0  0
 11 12  1  0  0  0  0
 13 11  1  0  0  0  0
 14  9  1  0  0  0  0
 14 15  1  0  0  0  0
 14 13  1  0  0  0  0
 16 17  1  0  0  0  0
 18 20  1  0  0  0  0
 19 18  1  0  0  0  0
 21 18  1  0  0  0  0
 21 27  1  0  0  0  0
 22 23  2  0  0  0  0
 22 21  1  0  0  0  0
 23 24  1  0  0  0  0
 24 26  1  0  0  0  0
 25 24  2  0  0  0  0
 26 31  1  0  0  0  0
 27 26  1  0  0  0  0
 27 28  2  0  0  0  0
 29 22  1  0  0  0  0
 30 23  1  0  0  0  0
M  END
>  <minimizedAffinity>
-4.94461918

$$$$

 OpenBabel03242515273D

 31 33  0  0  1  0  0  0  0  0999 V2000
   37.8800   28.7270   39.8390 C   0  0  0  0  0  0  0  0  0  0  0  0
   37.1070   29.7420   40.4060 C   0  0  0  0  0  0  0  0  0  0  0  0
   36.7730   29.6000   41.7330 C   0  0  0  0  0  0  0  0  0  0  0  0
   37.2020   28.5090   42.4020 N   0  0  0  0  0  0  0  0  0  0  0  0
   37.9490   27.5470   41.8200 C   0  0  0  0  0  0  0  0  0  0  0  0
   38.3060   27.6350   40.5140 N   0  0  0  0  0  0  0  0  0  0  0  0
   38.2050   28.7340   38.7930 H   0  0  0  0  0  0  0  0  0  0  0  0
   36.1810   30.3850   42.1590 H   0  0  0  0  0  0  0  0  0  0  0  0
   38.3770   25.1110   41.9980 C   0  0  1  0  0  3  0  0  0  0  0  0
   38.3050   26.4330   42.7600 C   0  0  1  0  0  3  0  0  0  0  0  0
   39.7070   26.5440   43.2730 C   0  0  0  0  0  3  0  0  0  0  0  0
   40.3530   26.7910   42.4230 H   0  0  0  0  0  0  0  0  0  0  0  0
   39.9880   25.2430   43.6790 O   0  0  0  0  0  0  0  0  0  0  0  0
   39.3840   24.3690   42.8140 C   0  0  0  0  0  3  0  0  0  0  0  0
   40.1810   23.8690   42.2070 H   0  0  0  0  0  0  0  0  0  0  0  0
   37.1260   24.4990   41.9970 O   0  0  0  0  0  0  0  0  0  0  0  0
   36.4500   25.2230   41.9880 H   0  0  0  0  0  0  0  0  0  0  0  0
   36.7390   30.8460   39.5230 C   0  0  0  0  0  0  0  0  0  0  0  0
   37.6060   31.5690   39.5140 H   0  0  0  0  0  0  0  0  0  0  0  0
   35.8920   31.4100   39.9050 H   0  0  0  0  0  0  0  0  0  0  0  0
   36.5440   30.3270   38.1730 N   0  0  0  0  0  0  0  0  0  0  0  0
   35.5000   29.5220   37.9210 C   0  0  0  0  0  0  0  0  0  0  0  0
   35.3520   29.0510   36.6220 C   0  0  0  0  0  0  0  0  0  0  0  0
   36.2510   29.4040   35.6360 C   0  0  0  0  0  0  0  0  0  0  0  0
   36.0810   28.9570   34.4730 O   0  0  0  0  0  0  0  0  0  0  0  0
   37.2860   30.2200   35.9420 N   0  0  0  0  0  0  0  0  0  0  0  0
   37.4280   30.6770   37.2070 C   0  0  0  0  0  0  0  0  0  0  0  0
   38.4180   31.4350   37.4260 O   0  0  0  0  0  0  0  0  0  0  0  0
   34.8080   29.2530   38.6970 H   0  0  0  0  0  0  0  0  0  0  0  0
   34.5070   28.4020   36.4300 H   0  0  0  0  0  0  0  0  0  0  0  0
   37.9510   30.4700   35.1710 H   0  0  0  0  0  0  0  0  0  0  0  0
  1  2  2  0  0  0  0
  1  6  1  0  0  0  0
  2  3  1  0  0  0  0
  3  8  1  0  0  0  0
  3  4  2  0  0  0  0
  5  4  1  0  0  0  0
  6  5  2  0  0  0  0
  7  1  1  0  0  0  0
  9 16  1  1  0  0  0
  9 10  1  0  0  0  0
  9 14  1  0  0  0  0
 10  5  1  6  0  0  0
 10 11  1  0  0  0  0
 11 13  1  0  0  0  0
 12 11  1  0  0  0  0
 14 13  1  0  0  0  0
 15 14  1  0  0  0  0
 17 16  1  0  0  0  0
 18 20  1  0  0  0  0
 18  2  1  0  0  0  0
 19 18  1  0  0  0  0
 21 18  1  0  0  0  0
 22 21  1  0  0  0  0
 22 29  1  0  0  0  0
 23 22  2  0  0  0  0
 24 26  1  0  0  0  0
 24 23  1  0  0  0  0
 25 24  2  0  0  0  0
 26 27  1  0  0  0  0
 27 28  2  0  0  0  0
 27 21  1  0  0  0  0
 30 23  1  0  0  0  0
 31 26  1  0  0  0  0
M  END
>  <minimizedAffinity>
-4.92737865

$$$$
