
 OpenBabel03242523233D

 43 46  0  0  1  0  0  0  0  0999 V2000
   47.3800   32.7430   44.0780 C   0  0  0  0  0  0  0  0  0  0  0  0
   48.0920   33.0580   43.0000 C   0  0  0  0  0  0  0  0  0  0  0  0
   48.9590   32.0710   42.5770 C   0  0  0  0  0  0  0  0  0  0  0  0
   49.0050   30.8710   43.3010 N   0  0  0  0  0  0  0  0  0  0  0  0
   48.2800   30.6250   44.3540 C   0  0  0  0  0  0  0  0  0  0  0  0
   47.3990   31.5860   44.8090 N   0  0  0  0  0  0  0  0  0  0  0  0
   49.6410   32.0740   41.7400 H   0  0  0  0  0  0  0  0  0  0  0  0
   48.4150   29.6470   44.8270 H   0  0  0  0  0  0  0  0  0  0  0  0
   48.1370   34.3020   42.3290 C   0  0  1  0  0  0  0  0  0  0  0  0
   48.9470   34.6960   41.3090 C   0  0  0  0  0  0  0  0  0  0  0  0
   47.5330   34.4220   40.8990 C   0  0  1  0  0  0  0  0  0  0  0  0
   47.8610   35.1520   43.0130 H   0  0  0  0  0  0  0  0  0  0  0  0
   49.7460   33.9890   40.9350 H   0  0  0  0  0  0  0  0  0  0  0  0
   49.2770   35.7270   41.0480 H   0  0  0  0  0  0  0  0  0  0  0  0
   46.8450   35.2840   40.7810 H   0  0  0  0  0  0  0  0  0  0  0  0
   46.0970   33.2770   39.1520 C   0  0  1  0  0  3  0  0  0  0  0  0
   47.3220   33.2860   40.0100 C   0  0  1  0  0  3  0  0  0  0  0  0
   48.4290   33.3120   38.9820 C   0  0  0  0  0  3  0  0  0  0  0  0
   49.3280   33.8110   39.4010 H   0  0  0  0  0  0  0  0  0  0  0  0
   47.9130   34.0850   37.9670 O   0  0  0  0  0  0  0  0  0  0  0  0
   46.6000   33.6390   37.7920 C   0  0  0  0  0  3  0  0  0  0  0  0
   45.9560   34.4270   37.3720 H   0  0  0  0  0  0  0  0  0  0  0  0
   45.6380   31.9470   39.0780 O   0  0  0  0  0  0  0  0  0  0  0  0
   45.8200   31.5260   38.2080 H   0  0  0  0  0  0  0  0  0  0  0  0
   46.3300   33.5710   44.7090 C   0  0  0  0  0  0  0  0  0  0  0  0
   45.8060   34.1270   45.6300 O   0  0  0  0  0  0  0  0  0  0  0  0
   44.6780   31.3700   43.3090 Cl  0  0  0  0  0  0  0  0  0  0  0  0
   44.5190   33.0730   42.9060 C   0  0  0  0  0  0  0  0  0  0  0  0
   45.3420   33.9570   43.6530 C   0  0  0  0  0  0  0  0  0  0  0  0
   45.1220   35.2550   43.2510 C   0  0  0  0  0  0  0  0  0  0  0  0
   44.3130   35.7580   42.3300 C   0  0  0  0  0  0  0  0  0  0  0  0
   43.5480   34.8380   41.6450 C   0  0  0  0  0  0  0  0  0  0  0  0
   43.6430   33.5080   41.9260 C   0  0  0  0  0  0  0  0  0  0  0  0
   45.6820   36.0610   43.7830 H   0  0  0  0  0  0  0  0  0  0  0  0
   44.2100   36.8120   42.0790 H   0  0  0  0  0  0  0  0  0  0  0  0
   42.8600   35.2170   40.8670 H   0  0  0  0  0  0  0  0  0  0  0  0
   42.8280   32.6980   41.1800 O   0  0  0  0  0  0  0  0  0  0  0  0
   40.7410   31.3540   40.3330 O   0  0  0  0  0  0  0  0  0  0  0  0
   41.2780   32.1030   41.5270 P   0  0  0  0  0  0  0  0  0  0  0  0
   41.3540   31.1040   42.8940 O   0  0  0  0  0  0  0  0  0  0  0  0
   41.4190   31.6360   43.7090 H   0  0  0  0  0  0  0  0  0  0  0  0
   40.2150   33.3560   41.9400 O   0  0  0  0  0  0  0  0  0  0  0  0
   39.4180   32.9580   42.3790 H   0  0  0  0  0  0  0  0  0  0  0  0
  1 25  1  0  0  0  0
  1  6  1  0  0  0  0
  2  1  2  0  0  0  0
  3  2  1  0  0  0  0
  3  4  2  0  0  0  0
  4  5  1  0  0  0  0
  5  6  2  0  0  0  0
  5  8  1  0  0  0  0
  7  3  1  0  0  0  0
  9  2  1  0  0  0  0
  9 12  1  1  0  0  0
 10  9  1  0  0  0  0
 11 15  1  6  0  0  0
 11 10  1  0  0  0  0
 11  9  1  0  0  0  0
 13 10  1  0  0  0  0
 14 10  1  0  0  0  0
 16 23  1  6  0  0  0
 16 17  1  0  0  0  0
 17 18  1  6  0  0  0
 17 11  1  0  0  0  0
 18 19  1  0  0  0  0
 20 18  1  0  0  0  0
 21 20  1  0  0  0  0
 21 16  1  0  0  0  0
 22 21  1  0  0  0  0
 24 23  1  0  0  0  0
 25 26  2  0  0  0  0
 28 27  1  0  0  0  0
 28 29  1  0  0  0  0
 29 25  1  0  0  0  0
 30 29  2  0  0  0  0
 30 34  1  0  0  0  0
 31 30  1  0  0  0  0
 32 33  1  0  0  0  0
 32 31  2  0  0  0  0
 33 28  2  0  0  0  0
 35 31  1  0  0  0  0
 36 32  1  0  0  0  0
 37 39  1  0  0  0  0
 37 33  1  0  0  0  0
 38 39  2  0  0  0  0
 39 42  1  0  0  0  0
 39 40  1  0  0  0  0
 40 41  1  0  0  0  0
 42 43  1  0  0  0  0
M  END
>  <minimizedAffinity>
-5.55290174

>  <minimizedRMSD>
1.0628345

$$$$
