
 OpenBabel03252509043D

 48 50  0  0  1  0  0  0  0  0999 V2000
   46.7290   34.4490   43.5840 N   0  0  0  0  0  0  0  0  0  0  0  0
   46.2860   35.5230   42.7800 C   0  0  0  0  0  0  0  0  0  0  0  0
   44.7770   35.7090   42.7690 C   0  0  0  0  0  0  0  0  0  0  0  0
   44.1170   35.3940   44.0900 C   0  0  0  0  0  0  0  0  0  0  0  0
   45.1370   35.0360   45.1550 C   0  0  0  0  0  0  0  0  0  0  0  0
   45.9230   33.8260   44.5030 C   0  0  2  0  0  0  0  0  0  0  0  0
   46.5950   35.4990   41.7310 H   0  0  0  0  0  0  0  0  0  0  0  0
   46.7130   36.4600   43.1980 H   0  0  0  0  0  0  0  0  0  0  0  0
   44.5770   36.7440   42.4230 H   0  0  0  0  0  0  0  0  0  0  0  0
   44.3800   35.0310   41.9760 H   0  0  0  0  0  0  0  0  0  0  0  0
   43.4180   34.5480   43.9900 H   0  0  0  0  0  0  0  0  0  0  0  0
   43.5340   36.2540   44.4720 H   0  0  0  0  0  0  0  0  0  0  0  0
   45.8480   35.8330   45.3660 H   0  0  0  0  0  0  0  0  0  0  0  0
   44.5800   34.6380   46.0180 H   0  0  0  0  0  0  0  0  0  0  0  0
   45.1590   33.1170   44.1270 H   0  0  0  0  0  0  0  0  0  0  0  0
   47.8400   33.7150   43.0310 C   0  0  0  0  0  0  0  0  0  0  0  0
   48.3220   33.1760   43.8990 H   0  0  0  0  0  0  0  0  0  0  0  0
   48.5710   34.3780   42.5570 H   0  0  0  0  0  0  0  0  0  0  0  0
   47.2980   32.6700   42.1270 C   0  0  0  0  0  0  0  0  0  0  0  0
   47.4640   31.6240   42.4640 H   0  0  0  0  0  0  0  0  0  0  0  0
   46.1820   32.7490   42.0140 H   0  0  0  0  0  0  0  0  0  0  0  0
   49.2380   32.0850   38.9680 C   0  0  0  0  0  0  0  0  0  0  0  0
   48.7100   31.9270   40.2660 C   0  0  0  0  0  0  0  0  0  0  0  0
   47.8380   32.8610   40.7600 C   0  0  0  0  0  0  0  0  0  0  0  0
   47.5320   33.8840   39.9700 N   0  0  0  0  0  0  0  0  0  0  0  0
   48.0220   34.0480   38.7400 C   0  0  0  0  0  0  0  0  0  0  0  0
   48.8860   33.1480   38.2170 N   0  0  0  0  0  0  0  0  0  0  0  0
   49.9230   31.2900   38.6660 H   0  0  0  0  0  0  0  0  0  0  0  0
   48.9810   31.0800   40.8820 H   0  0  0  0  0  0  0  0  0  0  0  0
   47.7660   34.8900   38.0980 H   0  0  0  0  0  0  0  0  0  0  0  0
   46.6070   33.3450   45.6060 O   0  0  0  0  0  0  0  0  0  0  0  0
   45.5580   31.0480   44.7510 O   0  0  0  0  0  0  0  0  0  0  0  0
   46.2440   31.7330   45.9310 P   0  0  2  0  0  0  0  0  0  0  0  0
   45.0620   31.7740   47.1750 O   0  0  0  0  0  0  0  0  0  0  0  0
   45.4940   31.6310   48.0550 H   0  0  0  0  0  0  0  0  0  0  0  0
   47.5550   30.8660   46.4980 O   0  0  0  0  0  0  0  0  0  0  0  0
   47.6200   29.6680   45.8160 C   0  0  0  0  0  0  0  0  0  0  0  0
   47.7570   29.8950   44.7220 H   0  0  0  0  0  0  0  0  0  0  0  0
   46.7720   29.0000   45.9330 H   0  0  0  0  0  0  0  0  0  0  0  0
   49.7310   28.4940   48.3770 C   0  0  2  0  0  3  0  0  0  0  0  0
   49.5260   29.6460   47.4370 C   0  0  0  0  0  3  0  0  0  0  0  0
   48.9180   30.4750   47.8500 H   0  0  0  0  0  0  0  0  0  0  0  0
   48.9380   28.9910   46.2190 C   0  0  1  0  0  3  0  0  0  0  0  0
   48.7570   27.6620   46.4900 O   0  0  0  0  0  0  0  0  0  0  0  0
   48.7120   27.4990   47.8650 C   0  0  0  0  0  3  0  0  0  0  0  0
   48.9860   26.4510   48.1330 H   0  0  0  0  0  0  0  0  0  0  0  0
   49.4280   28.9140   49.6710 O   0  0  0  0  0  0  0  0  0  0  0  0
   48.6920   29.6000   49.5970 H   0  0  0  0  0  0  0  0  0  0  0  0
  1  6  1  0  0  0  0
  2  8  1  0  0  0  0
  2  1  1  0  0  0  0
  3  2  1  0  0  0  0
  3  4  1  0  0  0  0
  4 12  1  0  0  0  0
  4  5  1  0  0  0  0
  5 13  1  0  0  0  0
  5 14  1  0  0  0  0
  6 15  1  6  0  0  0
  6  5  1  0  0  0  0
  6 31  1  0  0  0  0
  7  2  1  0  0  0  0
  9  3  1  0  0  0  0
 10  3  1  0  0  0  0
 11  4  1  0  0  0  0
 16  1  1  0  0  0  0
 16 17  1  0  0  0  0
 18 16  1  0  0  0  0
 19 20  1  0  0  0  0
 19 16  1  0  0  0  0
 21 19  1  0  0  0  0
 22 23  1  0  0  0  0
 23 24  2  0  0  0  0
 23 29  1  0  0  0  0
 24 19  1  0  0  0  0
 25 24  1  0  0  0  0
 26 25  2  0  0  0  0
 27 26  1  0  0  0  0
 27 22  2  0  0  0  0
 28 22  1  0  0  0  0
 30 26  1  0  0  0  0
 31 33  1  0  0  0  0
 33 32  2  6  0  0  0
 33 36  1  0  0  0  0
 33 34  1  0  0  0  0
 34 35  1  0  0  0  0
 37 39  1  0  0  0  0
 37 36  1  0  0  0  0
 38 37  1  0  0  0  0
 40 47  1  1  0  0  0
 41 42  1  0  0  0  0
 41 40  1  0  0  0  0
 43 37  1  1  0  0  0
 43 44  1  0  0  0  0
 43 41  1  0  0  0  0
 44 45  1  0  0  0  0
 45 46  1  0  0  0  0
 45 40  1  0  0  0  0
 48 47  1  0  0  0  0
M  END
>  <minimizedAffinity>
-4.2741437

>  <minimizedRMSD>
0.896139503

$$$$
