
     RDKit          3D

 23 24  0  0  0  0  0  0  0  0999 V2000
   45.0047   35.4814   44.1880 C   0  0  0  0  0  0  0  0  0  0  0  0
   45.9835   34.9295   43.3349 C   0  0  0  0  0  0  0  0  0  0  0  0
   46.7103   33.8371   43.8367 C   0  0  0  0  0  0  0  0  0  0  0  0
   46.4362   33.3833   45.0875 N   0  0  0  0  0  0  0  0  0  0  0  0
   45.4920   33.9461   45.8597 C   0  0  0  0  0  0  0  0  0  0  0  0
   44.7799   34.9834   45.4230 N   0  0  0  0  0  0  0  0  0  0  0  0
   44.2914   36.5423   43.7142 O   0  0  0  0  0  0  0  0  0  0  0  0
   46.1776   35.3023   42.3638 H   0  0  0  0  0  0  0  0  0  0  0  0
   45.3092   33.5511   46.8474 H   0  0  0  0  0  0  0  0  0  0  0  0
   44.4520   37.4458   44.1425 H   0  0  0  0  0  0  0  0  0  0  0  0
   48.2244   34.7799   41.3090 O   0  0  0  0  0  0  0  0  0  0  0  0
   47.6853   33.5367   41.5660 C   0  0  2  0  0  0  0  0  0  0  0  0
   47.7544   33.1844   43.0334 C   0  0  2  0  0  0  0  0  0  0  0  0
   47.5872   31.6761   42.9179 C   0  0  2  0  0  0  0  0  0  0  0  0
   46.5068   31.5074   42.7099 H   0  0  0  0  0  0  0  0  0  0  0  0
   48.4038   31.3260   41.8589 O   0  0  0  0  0  0  0  0  0  0  0  0
   48.5148   32.3902   40.9929 C   0  0  2  0  0  0  0  0  0  0  0  0
   49.5696   32.7553   40.9680 H   0  0  0  0  0  0  0  0  0  0  0  0
   47.8318   35.2268   40.5345 H   0  0  0  0  0  0  0  0  0  0  0  0
   46.6859   33.4595   41.1397 H   0  0  0  0  0  0  0  0  0  0  0  0
   48.7787   33.4474   43.3745 H   0  0  0  0  0  0  0  0  0  0  0  0
   47.8945   31.1945   43.8598 H   0  0  0  0  0  0  0  0  0  0  0  0
   48.2348   32.1601   39.9498 H   0  0  0  0  0  0  0  0  0  0  0  0
  1  6  2  0
  2  3  2  0
  2  1  1  0
  3  4  1  0
  4  5  2  0
  6  5  1  0
  7  1  1  0
  2  8  1  0
  5  9  1  0
  7 10  1  0
 11 12  1  0
 12 13  1  0
 13 14  1  0
 14 15  1  6
 14 16  1  0
 16 17  1  0
 17 18  1  6
 17 12  1  0
 11 19  1  0
 12 20  1  6
 13 21  1  1
 14 22  1  0
 17 23  1  0
  3 13  1  0
M  ISO  5   8  14   9  14  10   3  15  15  18  16
M  END
>  <DihAtoms>  (1) 
1,2,12,11

>  <DihDeg>  (1) 
59.135440461842514

$$$$
