
 OpenBabel03252504373D

 23 24  0  0  1  0  0  0  0  0999 V2000
   47.1440   33.5840   44.1360 C   0  0  0  0  0  0  0  0  0  0  0  0
   47.5770   34.2550   44.9010 H   0  0  0  0  0  0  0  0  0  0  0  0
   46.8910   32.5750   44.5690 H   0  0  0  0  0  0  0  0  0  0  0  0
   44.7470   36.2040   43.4350 C   0  0  1  0  0  0  0  0  0  0  0  0
   45.9350   35.4050   42.8820 C   0  0  0  0  0  0  0  0  0  0  0  0
   45.8890   35.2930   41.7920 H   0  0  0  0  0  0  0  0  0  0  0  0
   45.8000   34.1440   43.6650 C   0  0  2  0  0  0  0  0  0  0  0  0
   44.9330   34.3410   44.7060 O   0  0  0  0  0  0  0  0  0  0  0  0
   44.6970   35.6860   44.8510 C   0  0  0  0  0  0  0  0  0  0  0  0
   43.7060   35.8650   45.3210 H   0  0  0  0  0  0  0  0  0  0  0  0
   45.0330   37.5680   43.3780 O   0  0  0  0  0  0  0  0  0  0  0  0
   44.4490   38.0690   43.9930 H   0  0  0  0  0  0  0  0  0  0  0  0
   48.6530   32.1490   42.8400 C   0  0  0  0  0  0  0  0  0  0  0  0
   48.0370   33.3090   42.9920 C   0  0  0  0  0  0  0  0  0  0  0  0
   49.5190   31.9560   41.6840 C   0  0  0  0  0  0  0  0  0  0  0  0
   50.9050   31.8950   41.9280 C   0  0  0  0  0  0  0  0  0  0  0  0
   51.7760   31.7100   40.8420 C   0  0  0  0  0  0  0  0  0  0  0  0
   51.2250   31.5980   39.6020 N   0  0  0  0  0  0  0  0  0  0  0  0
   49.8900   31.6620   39.4100 C   0  0  0  0  0  0  0  0  0  0  0  0
   49.0650   31.8380   40.4410 N   0  0  0  0  0  0  0  0  0  0  0  0
   51.2910   31.9910   42.9440 H   0  0  0  0  0  0  0  0  0  0  0  0
   52.8450   31.6600   41.0020 H   0  0  0  0  0  0  0  0  0  0  0  0
   49.4490   31.5740   38.4360 H   0  0  0  0  0  0  0  0  0  0  0  0
  1  3  1  0  0  0  0
  1  2  1  0  0  0  0
  4 11  1  1  0  0  0
  4  9  1  0  0  0  0
  5  4  1  0  0  0  0
  5  7  1  0  0  0  0
  6  5  1  0  0  0  0
  7  1  1  1  0  0  0
  7  8  1  0  0  0  0
  8  9  1  0  0  0  0
  9 10  1  0  0  0  0
 11 12  1  0  0  0  0
 13 14  2  0  0  0  0
 14  1  1  0  0  0  0
 15 16  1  0  0  0  0
 15 13  1  0  0  0  0
 16 21  1  0  0  0  0
 17 22  1  0  0  0  0
 17 16  2  0  0  0  0
 18 17  1  0  0  0  0
 19 18  2  0  0  0  0
 19 20  1  0  0  0  0
 20 15  2  0  0  0  0
 23 19  1  0  0  0  0
M  END
>  <minimizedAffinity>
-4.1523037

>  <minimizedRMSD>
6.156775

$$$$
