REMARK  Name = 
REMARK  3 active torsions:
REMARK  status: ('A' for Active; 'I' for Inactive)
REMARK    1  A    between atoms: C_1  and  O_7
REMARK    2  A    between atoms: C_3  and  C_13
REMARK    3  A    between atoms: O_11  and  C_12
REMARK                            x       y       z     vdW  Elec       q    Type
REMARK                         _______ _______ _______ _____ _____    ______ ____
ROOT
ATOM      1  C   UNL     1      45.005  35.481  44.188  0.00  0.00    +0.000 A 
ATOM      2  C   UNL     1      45.983  34.929  43.335  0.00  0.00    +0.000 A 
ATOM      3  C   UNL     1      46.710  33.837  43.837  0.00  0.00    +0.000 A 
ATOM      4  N   UNL     1      46.436  33.383  45.087  0.00  0.00    +0.000 NA
ATOM      5  C   UNL     1      45.492  33.946  45.860  0.00  0.00    +0.000 A 
ATOM      6  N   UNL     1      44.780  34.983  45.423  0.00  0.00    +0.000 NA
ATOM      7  H   UNL     1      46.178  35.302  42.364  0.00  0.00    +0.000 HD
ATOM      8  H   UNL     1      45.309  33.551  46.847  0.00  0.00    +0.000 HD
ENDROOT
BRANCH   3  10
ATOM      9  C   UNL     1      49.155  33.546  43.468  0.00  0.00    +0.000 C 
ATOM     10  C   UNL     1      47.754  33.184  43.033  0.00  0.00    +0.000 C 
ATOM     11  C   UNL     1      47.823  33.680  41.596  0.00  0.00    +0.000 C 
ATOM     12  H   UNL     1      47.747  34.789  41.655  0.00  0.00    +0.000 HD
ATOM     13  O   UNL     1      49.056  33.245  41.147  0.00  0.00    +0.000 OA
ATOM     14  C   UNL     1      49.922  33.140  42.212  0.00  0.00    +0.000 C 
ATOM     15  H   UNL     1      50.216  32.073  42.362  0.00  0.00    +0.000 HD
BRANCH   9  16
ATOM     16  O   UNL     1      49.542  32.847  44.592  0.00  0.00    +0.000 OA
ATOM     17  H   UNL     1      50.190  33.321  45.148  0.00  0.00    +0.000 HD
ENDBRANCH   9  16
ENDBRANCH   3  10
BRANCH   1  18
ATOM     18  O   UNL     1      44.291  36.542  43.714  0.00  0.00    +0.000 OA
ATOM     19  H   UNL     1      44.452  37.446  44.142  0.00  0.00    +0.000 HD
ENDBRANCH   1  18
TORSDOF 3
