
     RDKit          3D

 51 54  0  0  0  0  0  0  0  0999 V2000
   45.6622   32.9259   46.7392 C   0  0  0  0  0  0  0  0  0  0  0  0
   46.3855   32.1581   47.7873 C   0  0  0  0  0  0  0  0  0  0  0  0
   45.9343   31.8310   49.0331 C   0  0  0  0  0  0  0  0  0  0  0  0
   46.9095   31.1419   49.6308 N   0  0  0  0  0  0  0  0  0  0  0  0
   47.9628   31.0133   48.8254 C   0  0  0  0  0  0  0  0  0  0  0  0
   47.6308   31.6511   47.6716 N   0  0  0  0  0  0  0  0  0  0  0  0
   49.2185   30.3746   49.0089 N   0  0  0  0  0  0  0  0  0  0  0  0
   50.3102   31.1580   49.6034 C   0  0  0  0  0  0  0  0  0  0  0  0
   50.4127   30.6456   51.0379 C   0  0  0  0  0  0  0  0  0  0  0  0
   50.4435   29.1401   51.0473 C   0  0  0  0  0  0  0  0  0  0  0  0
   50.7566   28.6083   49.6570 C   0  0  0  0  0  0  0  0  0  0  0  0
   49.6627   29.0352   48.7120 C   0  0  0  0  0  0  0  0  0  0  0  0
   46.1491   33.8743   44.5119 C   0  0  0  0  0  0  0  0  0  0  0  0
   46.5306   33.1627   45.5619 C   0  0  0  0  0  0  0  0  0  0  0  0
   47.1032   34.0345   43.4102 C   0  0  0  0  0  0  0  0  0  0  0  0
   46.9127   34.9997   42.4016 C   0  0  0  0  0  0  0  0  0  0  0  0
   47.8648   35.0822   41.3974 C   0  0  0  0  0  0  0  0  0  0  0  0
   48.9228   34.2507   41.4187 N   0  0  0  0  0  0  0  0  0  0  0  0
   49.0887   33.3214   42.4065 C   0  0  0  0  0  0  0  0  0  0  0  0
   48.1978   33.2264   43.3682 N   0  0  0  0  0  0  0  0  0  0  0  0
   45.3136   33.8895   47.1632 H   0  0  0  0  0  0  0  0  0  0  0  0
   44.7204   32.3678   46.4701 H   0  0  0  0  0  0  0  0  0  0  0  0
   44.9742   32.0767   49.4645 H   0  0  0  0  0  0  0  0  0  0  0  0
   46.8581   30.7545   50.5980 H   0  0  0  0  0  0  0  0  0  0  0  0
   51.2606   31.0279   49.0651 H   0  0  0  0  0  0  0  0  0  0  0  0
   50.0246   32.2335   49.6641 H   0  0  0  0  0  0  0  0  0  0  0  0
   51.2671   31.1208   51.5441 H   0  0  0  0  0  0  0  0  0  0  0  0
   49.4847   31.0360   51.5464 H   0  0  0  0  0  0  0  0  0  0  0  0
   51.1394   28.7467   51.8032 H   0  0  0  0  0  0  0  0  0  0  0  0
   49.4305   28.7825   51.3369 H   0  0  0  0  0  0  0  0  0  0  0  0
   51.7229   28.9982   49.3005 H   0  0  0  0  0  0  0  0  0  0  0  0
   50.8622   27.5162   49.7294 H   0  0  0  0  0  0  0  0  0  0  0  0
   48.8372   28.2715   48.7910 H   0  0  0  0  0  0  0  0  0  0  0  0
   49.9807   28.9693   47.6439 H   0  0  0  0  0  0  0  0  0  0  0  0
   45.1801   34.3147   44.4718 H   0  0  0  0  0  0  0  0  0  0  0  0
   47.5402   32.7223   45.5681 H   0  0  0  0  0  0  0  0  0  0  0  0
   46.0493   35.6377   42.4340 H   0  0  0  0  0  0  0  0  0  0  0  0
   47.7535   35.8106   40.6054 H   0  0  0  0  0  0  0  0  0  0  0  0
   48.7439   30.6493   41.9032 O   0  0  0  0  0  0  0  0  0  0  0  0
   50.0068   31.1554   41.6055 C   0  0  1  0  0  0  0  0  0  0  0  0
   50.2879   32.4450   42.3493 C   0  0  2  0  0  0  0  0  0  0  0  0
   50.6171   31.9171   43.7129 C   0  0  1  0  0  0  0  0  0  0  0  0
   51.2532   32.6204   44.3061 H   0  0  0  0  0  0  0  0  0  0  0  0
   51.2064   30.6744   43.5527 O   0  0  0  0  0  0  0  0  0  0  0  0
   51.0387   30.2471   42.2589 C   0  0  1  0  0  0  0  0  0  0  0  0
   50.7621   29.1784   42.1745 H   0  0  0  0  0  0  0  0  0  0  0  0
   48.7206   30.3277   42.8419 H   0  0  0  0  0  0  0  0  0  0  0  0
   50.2202   31.1870   40.5389 H   0  0  0  0  0  0  0  0  0  0  0  0
   51.1374   32.9553   41.8641 H   0  0  0  0  0  0  0  0  0  0  0  0
   49.6620   31.7543   44.2535 H   0  0  0  0  0  0  0  0  0  0  0  0
   51.9970   30.4156   41.6970 H   0  0  0  0  0  0  0  0  0  0  0  0
  1  2  1  0
  2  3  2  0
  3  4  1  0
  5  7  1  0
  5  4  1  0
  6  2  1  0
  6  5  2  0
  7  8  1  0
  8  9  1  0
  9 10  1  0
 11 10  1  0
 12  7  1  0
 12 11  1  0
 13 14  2  0
 14  1  1  0
 15 13  1  0
 16 15  2  0
 17 18  2  0
 17 16  1  0
 18 19  1  0
 19 20  2  0
 20 15  1  0
  1 21  1  0
  1 22  1  0
  3 23  1  0
  4 24  1  0
  8 25  1  0
  8 26  1  0
  9 27  1  0
  9 28  1  0
 10 29  1  0
 10 30  1  0
 11 31  1  0
 11 32  1  0
 12 33  1  0
 12 34  1  0
 13 35  1  0
 14 36  1  0
 16 37  1  0
 17 38  1  0
 39 40  1  0
 40 41  1  0
 41 42  1  0
 42 43  1  1
 42 44  1  0
 44 45  1  0
 45 46  1  1
 45 40  1  0
 39 47  1  0
 40 48  1  6
 41 49  1  6
 42 50  1  0
 45 51  1  0
 19 41  1  0
M  ISO  8  21   8  22   8  23  14  24   9  25  13  26  13  27  13  28  13
M  ISO  8  29  13  30  13  31  13  32  13  33  13  34  13  37  14  38  14
M  ISO  2  43  15  46  16
M  END
>  <DihAtoms>  (1) 
17,18,40,39

>  <DihDeg>  (1) 
-121.86604077299434

$$$$
