
 OpenBabel03242521133D

 28 30  0  0  1  0  0  0  0  0999 V2000
   44.5690   35.4970   44.9190 C   0  0  0  0  0  0  0  0  0  0  0  0
   45.1470   35.5020   43.6240 C   0  0  0  0  0  0  0  0  0  0  0  0
   46.1720   34.5890   43.3900 C   0  0  0  0  0  0  0  0  0  0  0  0
   46.5530   33.7600   44.4010 N   0  0  0  0  0  0  0  0  0  0  0  0
   45.9900   33.7780   45.6150 C   0  0  0  0  0  0  0  0  0  0  0  0
   44.9950   34.6410   45.8900 N   0  0  0  0  0  0  0  0  0  0  0  0
   43.7660   36.1870   45.1600 H   0  0  0  0  0  0  0  0  0  0  0  0
   44.7670   36.2040   42.8940 H   0  0  0  0  0  0  0  0  0  0  0  0
   46.7730   34.5740   42.0890 N   0  0  0  0  0  0  0  0  0  0  0  0
   47.9660   35.2090   41.9510 C   0  0  0  0  0  0  0  0  0  0  0  0
   48.5580   35.1980   40.6830 C   0  0  0  0  0  0  0  0  0  0  0  0
   47.9070   34.5520   39.6600 C   0  0  0  0  0  0  0  0  0  0  0  0
   48.4560   34.5490   38.5100 O   0  0  0  0  0  0  0  0  0  0  0  0
   46.7200   33.9240   39.8080 N   0  0  0  0  0  0  0  0  0  0  0  0
   46.1940   33.9640   41.0470 C   0  0  0  0  0  0  0  0  0  0  0  0
   45.0990   33.4150   41.2950 O   0  0  0  0  0  0  0  0  0  0  0  0
   48.4310   35.7020   42.7990 H   0  0  0  0  0  0  0  0  0  0  0  0
   49.5130   35.6930   40.5260 H   0  0  0  0  0  0  0  0  0  0  0  0
   46.2140   33.4340   39.0560 H   0  0  0  0  0  0  0  0  0  0  0  0
   45.3310   32.5110   47.6010 C   0  0  1  0  0  0  0  0  0  0  0  0
   46.4850   32.8260   46.6460 C   0  0  1  0  0  0  0  0  0  0  0  0
   46.7620   31.4740   46.0400 C   0  0  0  0  0  0  0  0  0  0  0  0
   46.7750   31.5610   44.9160 H   0  0  0  0  0  0  0  0  0  0  0  0
   45.6490   30.6660   46.3320 O   0  0  0  0  0  0  0  0  0  0  0  0
   45.2420   30.9990   47.6200 C   0  0  0  0  0  0  0  0  0  0  0  0
   45.9520   30.5380   48.3400 H   0  0  0  0  0  0  0  0  0  0  0  0
   45.6970   33.0360   48.8520 O   0  0  0  0  0  0  0  0  0  0  0  0
   46.6920   32.9840   48.9410 H   0  0  0  0  0  0  0  0  0  0  0  0
  1  7  1  0  0  0  0
  1  6  1  0  0  0  0
  2  1  2  0  0  0  0
  3  2  1  0  0  0  0
  3  4  2  0  0  0  0
  4  5  1  0  0  0  0
  5  6  2  0  0  0  0
  8  2  1  0  0  0  0
  9  3  1  0  0  0  0
 10  9  1  0  0  0  0
 10 17  1  0  0  0  0
 11 10  2  0  0  0  0
 12 14  1  0  0  0  0
 12 11  1  0  0  0  0
 13 12  2  0  0  0  0
 14 15  1  0  0  0  0
 15 16  2  0  0  0  0
 15  9  1  0  0  0  0
 18 11  1  0  0  0  0
 19 14  1  0  0  0  0
 20 25  1  0  0  0  0
 20 27  1  1  0  0  0
 21  5  1  6  0  0  0
 21 20  1  0  0  0  0
 22 24  1  0  0  0  0
 22 21  1  0  0  0  0
 23 22  1  0  0  0  0
 24 25  1  0  0  0  0
 25 26  1  0  0  0  0
 27 28  1  0  0  0  0
M  END
>  <minimizedAffinity>
-6.52679443

>  <minimizedRMSD>
0.657191098

$$$$
