
 OpenBabel03252508293D

 39 42  0  0  1  0  0  0  0  0999 V2000
   42.5200   33.1900   40.3260 N   0  0  0  0  0  0  0  0  0  0  0  0
   42.3820   34.1700   41.4080 C   0  0  2  0  0  0  0  0  0  0  0  0
   41.6430   35.3880   40.9760 C   0  0  0  0  0  0  0  0  0  0  0  0
   40.9850   35.2160   39.7010 N   0  0  0  0  0  0  0  0  0  0  0  0
   41.8010   34.6830   38.6710 C   0  0  0  0  0  0  0  0  0  0  0  0
   43.0210   33.9460   39.1880 C   0  0  2  0  0  0  0  0  0  0  0  0
   43.1360   32.4460   40.6420 H   0  0  0  0  0  0  0  0  0  0  0  0
   41.9080   33.6310   42.2670 H   0  0  0  0  0  0  0  0  0  0  0  0
   40.8490   35.5800   41.7260 H   0  0  0  0  0  0  0  0  0  0  0  0
   42.2530   36.2850   40.7670 H   0  0  0  0  0  0  0  0  0  0  0  0
   40.0140   34.8900   39.7460 H   0  0  0  0  0  0  0  0  0  0  0  0
   42.0870   35.5670   38.0330 H   0  0  0  0  0  0  0  0  0  0  0  0
   41.1680   33.9510   38.1160 H   0  0  0  0  0  0  0  0  0  0  0  0
   43.7190   34.7330   39.5430 H   0  0  0  0  0  0  0  0  0  0  0  0
   45.8700   34.5970   42.2040 C   0  0  0  0  0  0  0  0  0  0  0  0
   45.2670   35.7640   42.6900 C   0  0  0  0  0  0  0  0  0  0  0  0
   43.9060   35.7200   42.4490 C   0  0  0  0  0  0  0  0  0  0  0  0
   43.7130   34.5560   41.8350 N   0  0  0  0  0  0  0  0  0  0  0  0
   44.8520   33.9050   41.6930 N   0  0  0  0  0  0  0  0  0  0  0  0
   45.9200   36.5140   43.1690 H   0  0  0  0  0  0  0  0  0  0  0  0
   43.4400   36.6210   42.8330 H   0  0  0  0  0  0  0  0  0  0  0  0
   49.6270   34.7850   42.1880 C   0  0  0  0  0  0  0  0  0  0  0  0
   48.2770   35.2410   42.0570 C   0  0  0  0  0  0  0  0  0  0  0  0
   47.2970   34.2810   42.2880 C   0  0  0  0  0  0  0  0  0  0  0  0
   47.6440   33.0160   42.6110 N   0  0  0  0  0  0  0  0  0  0  0  0
   48.9380   32.6260   42.7240 C   0  0  0  0  0  0  0  0  0  0  0  0
   49.9000   33.5140   42.5110 N   0  0  0  0  0  0  0  0  0  0  0  0
   50.4000   35.5180   42.0120 H   0  0  0  0  0  0  0  0  0  0  0  0
   48.0090   36.2420   41.8020 H   0  0  0  0  0  0  0  0  0  0  0  0
   49.1020   31.6020   42.9840 H   0  0  0  0  0  0  0  0  0  0  0  0
   45.1560   33.0370   38.1730 C   0  0  2  0  0  3  0  0  0  0  0  0
   43.6750   33.0830   38.1940 C   0  0  1  0  0  3  0  0  0  0  0  0
   43.3430   31.6280   38.4270 C   0  0  0  0  0  3  0  0  0  0  0  0
   42.4100   31.4600   38.9510 H   0  0  0  0  0  0  0  0  0  0  0  0
   44.3650   31.2720   39.3410 O   0  0  0  0  0  0  0  0  0  0  0  0
   45.4820   31.6160   38.6060 C   0  0  0  0  0  3  0  0  0  0  0  0
   45.5540   30.9230   37.7390 H   0  0  0  0  0  0  0  0  0  0  0  0
   45.8550   33.8710   38.9740 O   0  0  0  0  0  0  0  0  0  0  0  0
   46.2840   34.5870   38.4300 H   0  0  0  0  0  0  0  0  0  0  0  0
  1  7  1  0  0  0  0
  1  2  1  0  0  0  0
  2 18  1  0  0  0  0
  2  8  1  1  0  0  0
  3  2  1  0  0  0  0
  3  9  1  0  0  0  0
  4 11  1  0  0  0  0
  4  3  1  0  0  0  0
  5  6  1  0  0  0  0
  5  4  1  0  0  0  0
  6 14  1  1  0  0  0
  6  1  1  0  0  0  0
 10  3  1  0  0  0  0
 12  5  1  0  0  0  0
 13  5  1  0  0  0  0
 15 24  1  0  0  0  0
 15 16  1  0  0  0  0
 16 20  1  0  0  0  0
 17 16  2  0  0  0  0
 17 21  1  0  0  0  0
 18 17  1  0  0  0  0
 19 18  1  0  0  0  0
 19 15  2  0  0  0  0
 22 27  1  0  0  0  0
 23 22  2  0  0  0  0
 23 24  1  0  0  0  0
 24 25  2  0  0  0  0
 25 26  1  0  0  0  0
 26 30  1  0  0  0  0
 27 26  2  0  0  0  0
 28 22  1  0  0  0  0
 29 23  1  0  0  0  0
 31 32  1  0  0  0  0
 31 36  1  0  0  0  0
 31 38  1  1  0  0  0
 32 33  1  1  0  0  0
 32  6  1  0  0  0  0
 33 34  1  0  0  0  0
 33 35  1  0  0  0  0
 36 35  1  0  0  0  0
 37 36  1  0  0  0  0
 39 38  1  0  0  0  0
M  END
>  <minimizedAffinity>
-4.93407249

>  <minimizedRMSD>
1.62437189

$$$$
