
     RDKit          3D

 29 30  0  0  0  0  0  0  0  0999 V2000
   44.3038   35.7818   44.1907 C   0  0  0  0  0  0  0  0  0  0  0  0
   44.4653   34.9471   43.0883 C   0  0  0  0  0  0  0  0  0  0  0  0
   45.0785   33.7156   43.3011 C   0  0  0  0  0  0  0  0  0  0  0  0
   45.4917   33.3814   44.5696 N   0  0  0  0  0  0  0  0  0  0  0  0
   45.3124   34.2258   45.6067 C   0  0  0  0  0  0  0  0  0  0  0  0
   44.7205   35.4173   45.4073 N   0  0  0  0  0  0  0  0  0  0  0  0
   44.0296   35.3005   41.7532 C   0  0  0  0  0  0  0  0  0  0  0  0
   43.0281   34.7692   41.0958 C   0  0  0  0  0  0  0  0  0  0  0  0
   42.6281   35.1794   39.7162 C   0  0  0  0  0  0  0  0  0  0  0  0
   43.8289   36.7458   44.0486 H   0  0  0  0  0  0  0  0  0  0  0  0
   45.2270   33.0294   42.4723 H   0  0  0  0  0  0  0  0  0  0  0  0
   45.6959   33.8022   46.5266 H   0  0  0  0  0  0  0  0  0  0  0  0
   44.5638   36.0848   41.2047 H   0  0  0  0  0  0  0  0  0  0  0  0
   42.3803   34.0001   41.4343 H   0  0  0  0  0  0  0  0  0  0  0  0
   43.3125   35.9398   39.3148 H   0  0  0  0  0  0  0  0  0  0  0  0
   41.5953   35.5761   39.6741 H   0  0  0  0  0  0  0  0  0  0  0  0
   42.7656   31.4042   37.7026 O   0  0  0  0  0  0  0  0  0  0  0  0
   41.6116   32.0439   38.1045 C   0  0  1  0  0  0  0  0  0  0  0  0
   41.8803   32.8152   39.4044 C   0  0  2  0  0  0  0  0  0  0  0  0
   42.3514   32.1309   40.1166 H   0  0  0  0  0  0  0  0  0  0  0  0
   42.7687   33.9032   38.8845 C   0  0  1  0  0  0  0  0  0  0  0  0
   42.4203   34.1556   37.5699 O   0  0  0  0  0  0  0  0  0  0  0  0
   41.4415   33.2599   37.1844 C   0  0  1  0  0  0  0  0  0  0  0  0
   41.5252   32.9787   36.1336 H   0  0  0  0  0  0  0  0  0  0  0  0
   43.1405   30.7671   38.3625 H   0  0  0  0  0  0  0  0  0  0  0  0
   40.7159   31.4308   38.1682 H   0  0  0  0  0  0  0  0  0  0  0  0
   40.8812   33.1800   39.7178 H   0  0  0  0  0  0  0  0  0  0  0  0
   43.8138   33.5750   38.9452 H   0  0  0  0  0  0  0  0  0  0  0  0
   40.4561   33.7214   37.4596 H   0  0  0  0  0  0  0  0  0  0  0  0
  1  6  2  0
  2  3  2  0
  2  1  1  0
  3  4  1  0
  4  5  2  0
  6  5  1  0
  7  2  1  0
  8  7  2  0
  9  8  1  0
  1 10  1  0
  3 11  1  0
  5 12  1  0
  7 13  1  0
  8 14  1  0
  9 15  1  0
  9 16  1  0
 17 18  1  0
 18 19  1  0
 19 20  1  1
 19 21  1  0
 21 22  1  0
 22 23  1  0
 23 24  1  6
 23 18  1  0
 17 25  1  0
 18 26  1  1
 19 27  1  0
 21 28  1  6
 23 29  1  0
  9 21  1  0
M  ISO  7  10  14  11  14  12  14  15   8  16   8  20   8  24  16
M  END
>  <DihAtoms>  (1) 
7,8,20,18

>  <DihDeg>  (1) 
59.99997530134338

$$$$
