
 OpenBabel03252505303D

 27 28  0  0  1  0  0  0  0  0999 V2000
   46.8580   32.2790   48.4310 O   0  0  0  0  0  0  0  0  0  0  0  0
   45.8260   32.5210   47.3180 P   0  0  1  0  0  0  0  0  0  0  0  0
   44.5560   33.4760   47.8510 O   0  0  0  0  0  0  0  0  0  0  0  0
   44.8570   34.4090   48.0740 H   0  0  0  0  0  0  0  0  0  0  0  0
   46.6510   33.2570   46.0270 O   0  0  0  0  0  0  0  0  0  0  0  0
   44.4730   35.6540   44.5920 C   0  0  0  0  0  0  0  0  0  0  0  0
   44.8850   35.7710   43.2410 C   0  0  0  0  0  0  0  0  0  0  0  0
   45.9790   34.9510   42.8690 C   0  0  0  0  0  0  0  0  0  0  0  0
   46.5280   34.1420   43.8140 N   0  0  0  0  0  0  0  0  0  0  0  0
   46.0890   34.0820   45.0710 C   0  0  0  0  0  0  0  0  0  0  0  0
   45.0550   34.8420   45.4660 N   0  0  0  0  0  0  0  0  0  0  0  0
   43.6270   36.2910   44.8690 H   0  0  0  0  0  0  0  0  0  0  0  0
   44.3970   36.4400   42.5440 H   0  0  0  0  0  0  0  0  0  0  0  0
   46.3420   34.9940   41.8510 H   0  0  0  0  0  0  0  0  0  0  0  0
   45.2310   31.0150   46.8870 O   0  0  0  0  0  0  0  0  0  0  0  0
   45.0350   30.2760   48.0320 C   0  0  0  0  0  0  0  0  0  0  0  0
   44.0290   30.5170   48.4280 H   0  0  0  0  0  0  0  0  0  0  0  0
   45.7650   30.6140   48.7950 H   0  0  0  0  0  0  0  0  0  0  0  0
   46.4660   27.5880   46.1800 C   0  0  1  0  0  3  0  0  0  0  0  0
   46.6080   28.5200   47.3590 C   0  0  0  0  0  3  0  0  0  0  0  0
   47.2960   28.1420   48.1450 H   0  0  0  0  0  0  0  0  0  0  0  0
   45.2140   28.7910   47.8190 C   0  0  2  0  0  3  0  0  0  0  0  0
   44.3520   28.3820   46.8080 O   0  0  0  0  0  0  0  0  0  0  0  0
   44.9860   27.4150   46.0770 C   0  0  0  0  0  3  0  0  0  0  0  0
   44.6990   26.4100   46.4930 H   0  0  0  0  0  0  0  0  0  0  0  0
   46.9740   28.1380   44.9920 O   0  0  0  0  0  0  0  0  0  0  0  0
   47.8580   28.5890   45.1720 H   0  0  0  0  0  0  0  0  0  0  0  0
  2  3  1  0  0  0  0
  2  1  2  1  0  0  0
  3  4  1  0  0  0  0
  5  2  1  0  0  0  0
  6 12  1  0  0  0  0
  6 11  1  0  0  0  0
  7  6  2  0  0  0  0
  8  7  1  0  0  0  0
  8  9  2  0  0  0  0
  9 10  1  0  0  0  0
 10 11  2  0  0  0  0
 10  5  1  0  0  0  0
 13  7  1  0  0  0  0
 14  8  1  0  0  0  0
 15  2  1  0  0  0  0
 15 16  1  0  0  0  0
 16 17  1  0  0  0  0
 16 18  1  0  0  0  0
 19 26  1  6  0  0  0
 19 20  1  0  0  0  0
 20 22  1  0  0  0  0
 20 21  1  0  0  0  0
 22 16  1  6  0  0  0
 23 22  1  0  0  0  0
 24 19  1  0  0  0  0
 24 25  1  0  0  0  0
 24 23  1  0  0  0  0
 26 27  1  0  0  0  0
M  END
>  <minimizedAffinity>
-4.40625858

>  <minimizedRMSD>
0.95736903

$$$$
