
 OpenBabel03242515473D

 41 44  0  0  1  0  0  0  0  0999 V2000
   37.9240   33.6180   40.0010 C   0  0  0  0  0  0  0  0  0  0  0  0
   38.4440   32.4240   39.5020 C   0  0  0  0  0  0  0  0  0  0  0  0
   39.8050   32.1850   39.4770 C   0  0  0  0  0  0  0  0  0  0  0  0
   40.6800   33.1350   39.9540 C   0  0  0  0  0  0  0  0  0  0  0  0
   40.1770   34.3160   40.4490 C   0  0  0  0  0  0  0  0  0  0  0  0
   38.8350   34.5830   40.4870 C   0  0  0  0  0  0  0  0  0  0  0  0
   41.2990   35.0750   40.8570 O   0  0  0  0  0  0  0  0  0  0  0  0
   42.4270   34.4870   40.3340 C   0  0  2  0  0  0  0  0  0  0  0  0
   42.0690   33.1570   40.0500 O   0  0  0  0  0  0  0  0  0  0  0  0
   36.8790   33.8790   40.0540 H   0  0  0  0  0  0  0  0  0  0  0  0
   40.1060   31.2290   39.0690 H   0  0  0  0  0  0  0  0  0  0  0  0
   38.4610   35.5130   40.8780 H   0  0  0  0  0  0  0  0  0  0  0  0
   42.6790   34.9740   39.3670 H   0  0  0  0  0  0  0  0  0  0  0  0
   43.8540   33.3760   42.0840 C   0  0  1  0  0  3  0  0  0  0  0  0
   43.6250   34.6100   41.2200 C   0  0  2  0  0  3  0  0  0  0  0  0
   43.4720   35.6450   42.3020 C   0  0  0  0  0  3  0  0  0  0  0  0
   43.7500   36.6260   41.8670 H   0  0  0  0  0  0  0  0  0  0  0  0
   44.4150   35.3190   43.2530 O   0  0  0  0  0  0  0  0  0  0  0  0
   44.7150   33.9760   43.1690 C   0  0  0  0  0  3  0  0  0  0  0  0
   45.7770   33.8640   42.8760 H   0  0  0  0  0  0  0  0  0  0  0  0
   42.6380   33.0160   42.6820 O   0  0  0  0  0  0  0  0  0  0  0  0
   42.8700   32.5480   43.5270 H   0  0  0  0  0  0  0  0  0  0  0  0
   37.1620   31.3020   38.9490 S   0  0  0  0  0  0  0  0  0  0  0  0
   37.4030   29.6620   39.7130 C   0  0  0  0  0  0  0  0  0  0  0  0
   38.0820   28.7650   38.9730 C   0  0  0  0  0  0  0  0  0  0  0  0
   38.2340   27.5070   39.5590 C   0  0  0  0  0  0  0  0  0  0  0  0
   37.7340   27.2290   40.7750 N   0  0  0  0  0  0  0  0  0  0  0  0
   37.0630   28.1650   41.4780 C   0  0  0  0  0  0  0  0  0  0  0  0
   36.9190   29.3640   40.9110 N   0  0  0  0  0  0  0  0  0  0  0  0
   38.9190   26.4570   38.8430 N   0  0  0  0  0  0  0  0  0  0  0  0
   38.5580   25.7270   38.1910 H   0  0  0  0  0  0  0  0  0  0  0  0
   39.9530   26.5020   39.0710 H   0  0  0  0  0  0  0  0  0  0  0  0
   38.7660   28.7990   37.6400 C   0  0  0  0  0  0  0  0  0  0  0  0
   38.1510   28.4010   36.8330 H   0  0  0  0  0  0  0  0  0  0  0  0
   38.9810   29.8800   37.4110 H   0  0  0  0  0  0  0  0  0  0  0  0
   39.7850   28.3420   37.7130 H   0  0  0  0  0  0  0  0  0  0  0  0
   36.5190   27.9740   42.7270 O   0  0  0  0  0  0  0  0  0  0  0  0
   37.3870   28.0920   43.8420 C   0  0  0  0  0  0  0  0  0  0  0  0
   38.2310   27.0280   43.9360 F   0  0  0  0  0  0  0  0  0  0  0  0
   38.0910   29.2960   43.6820 F   0  0  0  0  0  0  0  0  0  0  0  0
   36.6180   28.1180   44.9910 F   0  0  0  0  0  0  0  0  0  0  0  0
  1 10  1  0  0  0  0
  1  6  1  0  0  0  0
  2  1  2  0  0  0  0
  3  2  1  0  0  0  0
  3  4  2  0  0  0  0
  4  9  1  0  0  0  0
  4  5  1  0  0  0  0
  5  6  2  0  0  0  0
  5  7  1  0  0  0  0
  6 12  1  0  0  0  0
  8 13  1  6  0  0  0
  8  7  1  0  0  0  0
  8 15  1  0  0  0  0
  9  8  1  0  0  0  0
 11  3  1  0  0  0  0
 14 21  1  1  0  0  0
 14 19  1  0  0  0  0
 15 14  1  0  0  0  0
 15 16  1  1  0  0  0
 16 18  1  0  0  0  0
 17 16  1  0  0  0  0
 19 18  1  0  0  0  0
 20 19  1  0  0  0  0
 21 22  1  0  0  0  0
 23  2  1  0  0  0  0
 23 24  1  0  0  0  0
 24 29  1  0  0  0  0
 25 26  1  0  0  0  0
 25 24  2  0  0  0  0
 26 27  2  0  0  0  0
 27 28  1  0  0  0  0
 28 37  1  0  0  0  0
 29 28  2  0  0  0  0
 30 32  1  0  0  0  0
 30 26  1  0  0  0  0
 31 30  1  0  0  0  0
 33 36  1  0  0  0  0
 33 25  1  0  0  0  0
 34 33  1  0  0  0  0
 35 33  1  0  0  0  0
 37 38  1  0  0  0  0
 38 39  1  0  0  0  0
 38 41  1  0  0  0  0
 40 38  1  0  0  0  0
M  END
>  <minimizedAffinity>
-6.98342562

$$$$

 OpenBabel03242515473D

 41 44  0  0  1  0  0  0  0  0999 V2000
   39.1280   32.5770   39.4070 C   0  0  0  0  0  0  0  0  0  0  0  0
   39.9050   31.4600   39.1020 C   0  0  0  0  0  0  0  0  0  0  0  0
   41.2650   31.4410   39.3410 C   0  0  0  0  0  0  0  0  0  0  0  0
   41.8830   32.5400   39.8940 C   0  0  0  0  0  0  0  0  0  0  0  0
   41.1250   33.6480   40.1990 C   0  0  0  0  0  0  0  0  0  0  0  0
   39.7760   33.6980   39.9740 C   0  0  0  0  0  0  0  0  0  0  0  0
   42.0240   34.5960   40.7430 O   0  0  0  0  0  0  0  0  0  0  0  0
   43.3050   34.1710   40.4780 C   0  0  2  0  0  0  0  0  0  0  0  0
   43.2090   32.7890   40.2360 O   0  0  0  0  0  0  0  0  0  0  0  0
   38.0640   32.6690   39.2510 H   0  0  0  0  0  0  0  0  0  0  0  0
   41.7770   30.5280   39.0680 H   0  0  0  0  0  0  0  0  0  0  0  0
   39.2010   34.5730   40.2190 H   0  0  0  0  0  0  0  0  0  0  0  0
   43.6610   34.6460   39.5380 H   0  0  0  0  0  0  0  0  0  0  0  0
   44.4280   33.4360   42.6070 C   0  0  1  0  0  3  0  0  0  0  0  0
   44.2810   34.5270   41.5530 C   0  0  2  0  0  3  0  0  0  0  0  0
   43.8250   35.6610   42.4330 C   0  0  0  0  0  3  0  0  0  0  0  0
   44.1060   36.6080   41.9290 H   0  0  0  0  0  0  0  0  0  0  0  0
   44.5760   35.5530   43.5840 O   0  0  0  0  0  0  0  0  0  0  0  0
   44.9950   34.2490   43.7440 C   0  0  0  0  0  3  0  0  0  0  0  0
   46.1010   34.2190   43.6810 H   0  0  0  0  0  0  0  0  0  0  0  0
   43.1480   33.0210   43.0020 O   0  0  0  0  0  0  0  0  0  0  0  0
   43.2390   32.6840   43.9320 H   0  0  0  0  0  0  0  0  0  0  0  0
   38.9320   30.1220   38.4150 S   0  0  0  0  0  0  0  0  0  0  0  0
   37.6150   29.6500   39.5860 C   0  0  0  0  0  0  0  0  0  0  0  0
   36.3720   29.5740   39.0730 C   0  0  0  0  0  0  0  0  0  0  0  0
   35.3720   29.2400   39.9870 C   0  0  0  0  0  0  0  0  0  0  0  0
   35.6470   29.0100   41.2820 N   0  0  0  0  0  0  0  0  0  0  0  0
   36.9100   29.0950   41.7470 C   0  0  0  0  0  0  0  0  0  0  0  0
   37.8610   29.4180   40.8690 N   0  0  0  0  0  0  0  0  0  0  0  0
   33.9970   29.1590   39.5530 N   0  0  0  0  0  0  0  0  0  0  0  0
   33.2470   29.8840   39.5250 H   0  0  0  0  0  0  0  0  0  0  0  0
   33.7950   28.1730   39.2260 H   0  0  0  0  0  0  0  0  0  0  0  0
   35.7850   29.7390   37.7030 C   0  0  0  0  0  0  0  0  0  0  0  0
   35.3640   30.7290   37.5330 H   0  0  0  0  0  0  0  0  0  0  0  0
   36.6250   29.5880   36.9690 H   0  0  0  0  0  0  0  0  0  0  0  0
   35.0870   28.8930   37.4750 H   0  0  0  0  0  0  0  0  0  0  0  0
   37.2870   28.8750   43.0520 O   0  0  0  0  0  0  0  0  0  0  0  0
   37.2210   27.5440   43.5360 C   0  0  0  0  0  0  0  0  0  0  0  0
   38.3050   27.2330   44.2970 F   0  0  0  0  0  0  0  0  0  0  0  0
   36.0280   27.4380   44.2680 F   0  0  0  0  0  0  0  0  0  0  0  0
   37.2130   26.6870   42.4510 F   0  0  0  0  0  0  0  0  0  0  0  0
  1  6  1  0  0  0  0
  2  3  1  0  0  0  0
  2  1  2  0  0  0  0
  3  4  2  0  0  0  0
  4  5  1  0  0  0  0
  4  9  1  0  0  0  0
  5  7  1  0  0  0  0
  6  5  2  0  0  0  0
  6 12  1  0  0  0  0
  8 13  1  6  0  0  0
  8  7  1  0  0  0  0
  8 15  1  0  0  0  0
  9  8  1  0  0  0  0
 10  1  1  0  0  0  0
 11  3  1  0  0  0  0
 14 21  1  1  0  0  0
 14 19  1  0  0  0  0
 15 16  1  1  0  0  0
 15 14  1  0  0  0  0
 16 18  1  0  0  0  0
 17 16  1  0  0  0  0
 18 19  1  0  0  0  0
 20 19  1  0  0  0  0
 21 22  1  0  0  0  0
 23  2  1  0  0  0  0
 23 24  1  0  0  0  0
 24 29  1  0  0  0  0
 25 24  2  0  0  0  0
 25 26  1  0  0  0  0
 26 27  2  0  0  0  0
 27 28  1  0  0  0  0
 28 37  1  0  0  0  0
 29 28  2  0  0  0  0
 30 26  1  0  0  0  0
 31 30  1  0  0  0  0
 32 30  1  0  0  0  0
 33 25  1  0  0  0  0
 34 33  1  0  0  0  0
 35 33  1  0  0  0  0
 36 33  1  0  0  0  0
 37 38  1  0  0  0  0
 38 40  1  0  0  0  0
 38 39  1  0  0  0  0
 41 38  1  0  0  0  0
M  END
>  <minimizedAffinity>
-6.82457495

$$$$

 OpenBabel03242515473D

 41 44  0  0  1  0  0  0  0  0999 V2000
   36.8340   31.5690   39.4460 C   0  0  0  0  0  0  0  0  0  0  0  0
   37.6240   30.8260   38.5700 C   0  0  0  0  0  0  0  0  0  0  0  0
   38.9260   31.1910   38.2870 C   0  0  0  0  0  0  0  0  0  0  0  0
   39.4710   32.3100   38.8750 C   0  0  0  0  0  0  0  0  0  0  0  0
   38.7000   33.0510   39.7420 C   0  0  0  0  0  0  0  0  0  0  0  0
   37.4070   32.7150   40.0420 C   0  0  0  0  0  0  0  0  0  0  0  0
   39.5200   34.1180   40.1770 O   0  0  0  0  0  0  0  0  0  0  0  0
   40.6240   34.1710   39.3580 C   0  0  2  0  0  0  0  0  0  0  0  0
   40.7300   32.8950   38.7750 O   0  0  0  0  0  0  0  0  0  0  0  0
   35.8130   31.3510   39.7160 H   0  0  0  0  0  0  0  0  0  0  0  0
   39.4540   30.5490   37.5950 H   0  0  0  0  0  0  0  0  0  0  0  0
   36.8200   33.3080   40.7210 H   0  0  0  0  0  0  0  0  0  0  0  0
   40.4350   34.8940   38.5350 H   0  0  0  0  0  0  0  0  0  0  0  0
   42.4810   33.5200   40.9260 C   0  0  1  0  0  3  0  0  0  0  0  0
   41.8650   34.6140   40.0630 C   0  0  2  0  0  3  0  0  0  0  0  0
   41.6190   35.6560   41.1230 C   0  0  0  0  0  3  0  0  0  0  0  0
   41.6050   36.6450   40.6210 H   0  0  0  0  0  0  0  0  0  0  0  0
   42.7260   35.6090   41.9430 O   0  0  0  0  0  0  0  0  0  0  0  0
   43.3130   34.3640   41.8600 C   0  0  0  0  0  3  0  0  0  0  0  0
   44.3260   34.4750   41.4260 H   0  0  0  0  0  0  0  0  0  0  0  0
   41.4670   32.9360   41.6990 O   0  0  0  0  0  0  0  0  0  0  0  0
   41.9080   32.5860   42.5190 H   0  0  0  0  0  0  0  0  0  0  0  0
   36.7600   29.3980   37.9200 S   0  0  0  0  0  0  0  0  0  0  0  0
   36.9170   27.9980   39.0810 C   0  0  0  0  0  0  0  0  0  0  0  0
   36.4250   26.8210   38.6510 C   0  0  0  0  0  0  0  0  0  0  0  0
   36.5270   25.7680   39.5610 C   0  0  0  0  0  0  0  0  0  0  0  0
   37.0820   25.9330   40.7740 N   0  0  0  0  0  0  0  0  0  0  0  0
   37.5640   27.1330   41.1560 C   0  0  0  0  0  0  0  0  0  0  0  0
   37.4610   28.1360   40.2830 N   0  0  0  0  0  0  0  0  0  0  0  0
   36.0050   24.4660   39.2180 N   0  0  0  0  0  0  0  0  0  0  0  0
   35.0610   24.0480   39.3690 H   0  0  0  0  0  0  0  0  0  0  0  0
   36.7640   23.9040   38.7390 H   0  0  0  0  0  0  0  0  0  0  0  0
   35.8000   26.3420   37.3760 C   0  0  0  0  0  0  0  0  0  0  0  0
   34.7110   26.3290   37.4110 H   0  0  0  0  0  0  0  0  0  0  0  0
   36.1130   27.0620   36.5690 H   0  0  0  0  0  0  0  0  0  0  0  0
   36.2640   25.3760   37.0540 H   0  0  0  0  0  0  0  0  0  0  0  0
   38.1490   27.3970   42.3730 O   0  0  0  0  0  0  0  0  0  0  0  0
   37.3460   28.0180   43.3630 C   0  0  0  0  0  0  0  0  0  0  0  0
   37.6930   27.6150   44.6160 F   0  0  0  0  0  0  0  0  0  0  0  0
   37.5080   29.4040   43.2040 F   0  0  0  0  0  0  0  0  0  0  0  0
   36.0310   27.6470   43.1540 F   0  0  0  0  0  0  0  0  0  0  0  0
  1 10  1  0  0  0  0
  1  6  1  0  0  0  0
  2  1  2  0  0  0  0
  3  2  1  0  0  0  0
  3  4  2  0  0  0  0
  4  5  1  0  0  0  0
  5  6  2  0  0  0  0
  5  7  1  0  0  0  0
  6 12  1  0  0  0  0
  8 13  1  6  0  0  0
  8 15  1  0  0  0  0
  8  7  1  0  0  0  0
  9  4  1  0  0  0  0
  9  8  1  0  0  0  0
 11  3  1  0  0  0  0
 14 21  1  1  0  0  0
 14 19  1  0  0  0  0
 15 14  1  0  0  0  0
 15 16  1  1  0  0  0
 16 18  1  0  0  0  0
 17 16  1  0  0  0  0
 19 18  1  0  0  0  0
 20 19  1  0  0  0  0
 21 22  1  0  0  0  0
 23  2  1  0  0  0  0
 23 24  1  0  0  0  0
 24 29  1  0  0  0  0
 25 24  2  0  0  0  0
 25 26  1  0  0  0  0
 26 27  2  0  0  0  0
 27 28  1  0  0  0  0
 28 37  1  0  0  0  0
 29 28  2  0  0  0  0
 30 31  1  0  0  0  0
 30 26  1  0  0  0  0
 32 30  1  0  0  0  0
 33 34  1  0  0  0  0
 33 25  1  0  0  0  0
 35 33  1  0  0  0  0
 36 33  1  0  0  0  0
 37 38  1  0  0  0  0
 38 39  1  0  0  0  0
 40 38  1  0  0  0  0
 41 38  1  0  0  0  0
M  END
>  <minimizedAffinity>
-6.70572472

$$$$

 OpenBabel03242515473D

 41 44  0  0  1  0  0  0  0  0999 V2000
   36.0480   29.4420   40.8410 C   0  0  0  0  0  0  0  0  0  0  0  0
   36.7840   28.8580   39.8100 C   0  0  0  0  0  0  0  0  0  0  0  0
   37.7260   29.5780   39.1010 C   0  0  0  0  0  0  0  0  0  0  0  0
   37.9560   30.9000   39.4050 C   0  0  0  0  0  0  0  0  0  0  0  0
   37.2340   31.4860   40.4200 C   0  0  0  0  0  0  0  0  0  0  0  0
   36.2940   30.8010   41.1410 C   0  0  0  0  0  0  0  0  0  0  0  0
   37.6850   32.8250   40.4950 O   0  0  0  0  0  0  0  0  0  0  0  0
   38.4200   33.0930   39.3630 C   0  0  2  0  0  0  0  0  0  0  0  0
   38.8280   31.8420   38.8660 O   0  0  0  0  0  0  0  0  0  0  0  0
   35.2970   28.9490   41.4390 H   0  0  0  0  0  0  0  0  0  0  0  0
   38.2430   29.0330   38.3210 H   0  0  0  0  0  0  0  0  0  0  0  0
   35.7400   31.2760   41.9310 H   0  0  0  0  0  0  0  0  0  0  0  0
   37.7580   33.5520   38.5970 H   0  0  0  0  0  0  0  0  0  0  0  0
   40.7430   33.3870   40.2850 C   0  0  1  0  0  3  0  0  0  0  0  0
   39.5500   34.0420   39.6010 C   0  0  2  0  0  3  0  0  0  0  0  0
   39.2390   35.1100   40.6160 C   0  0  0  0  0  3  0  0  0  0  0  0
   38.7190   35.9340   40.0850 H   0  0  0  0  0  0  0  0  0  0  0  0
   40.4640   35.5810   41.0350 O   0  0  0  0  0  0  0  0  0  0  0  0
   41.4250   34.6100   40.8460 C   0  0  0  0  0  3  0  0  0  0  0  0
   42.1600   34.9750   40.1020 H   0  0  0  0  0  0  0  0  0  0  0  0
   40.2780   32.6430   41.3790 O   0  0  0  0  0  0  0  0  0  0  0  0
   41.0260   32.6090   42.0330 H   0  0  0  0  0  0  0  0  0  0  0  0
   36.3700   27.1320   39.5720 S   0  0  0  0  0  0  0  0  0  0  0  0
   37.5870   26.0780   40.4320 C   0  0  0  0  0  0  0  0  0  0  0  0
   37.3480   24.7540   40.3930 C   0  0  0  0  0  0  0  0  0  0  0  0
   38.2720   23.9640   41.0790 C   0  0  0  0  0  0  0  0  0  0  0  0
   39.3200   24.5020   41.7230 N   0  0  0  0  0  0  0  0  0  0  0  0
   39.5180   25.8370   41.7300 C   0  0  0  0  0  0  0  0  0  0  0  0
   38.6300   26.5860   41.0750 N   0  0  0  0  0  0  0  0  0  0  0  0
   38.0980   22.5310   41.1300 N   0  0  0  0  0  0  0  0  0  0  0  0
   37.5940   21.9290   41.8170 H   0  0  0  0  0  0  0  0  0  0  0  0
   38.5910   22.0940   40.3010 H   0  0  0  0  0  0  0  0  0  0  0  0
   36.3100   23.8880   39.7440 C   0  0  0  0  0  0  0  0  0  0  0  0
   35.5010   23.6100   40.4180 H   0  0  0  0  0  0  0  0  0  0  0  0
   35.8680   24.4870   38.8990 H   0  0  0  0  0  0  0  0  0  0  0  0
   36.7950   23.0250   39.2220 H   0  0  0  0  0  0  0  0  0  0  0  0
   40.5610   26.4770   42.3590 O   0  0  0  0  0  0  0  0  0  0  0  0
   40.3030   27.0560   43.6270 C   0  0  0  0  0  0  0  0  0  0  0  0
   39.1360   26.6000   44.1580 F   0  0  0  0  0  0  0  0  0  0  0  0
   41.3990   26.7440   44.4460 F   0  0  0  0  0  0  0  0  0  0  0  0
   40.1820   28.4240   43.4630 F   0  0  0  0  0  0  0  0  0  0  0  0
  1  6  1  0  0  0  0
  1 10  1  0  0  0  0
  2  1  2  0  0  0  0
  3  4  2  0  0  0  0
  3  2  1  0  0  0  0
  4  5  1  0  0  0  0
  5  7  1  0  0  0  0
  5  6  2  0  0  0  0
  6 12  1  0  0  0  0
  8 13  1  6  0  0  0
  8 15  1  0  0  0  0
  8  7  1  0  0  0  0
  9  8  1  0  0  0  0
  9  4  1  0  0  0  0
 11  3  1  0  0  0  0
 14 19  1  0  0  0  0
 14 21  1  1  0  0  0
 15 14  1  0  0  0  0
 15 16  1  1  0  0  0
 16 18  1  0  0  0  0
 17 16  1  0  0  0  0
 19 18  1  0  0  0  0
 20 19  1  0  0  0  0
 21 22  1  0  0  0  0
 23  2  1  0  0  0  0
 23 24  1  0  0  0  0
 24 29  1  0  0  0  0
 25 24  2  0  0  0  0
 25 26  1  0  0  0  0
 26 30  1  0  0  0  0
 26 27  2  0  0  0  0
 27 28  1  0  0  0  0
 28 37  1  0  0  0  0
 29 28  2  0  0  0  0
 30 31  1  0  0  0  0
 32 30  1  0  0  0  0
 33 25  1  0  0  0  0
 33 34  1  0  0  0  0
 35 33  1  0  0  0  0
 36 33  1  0  0  0  0
 37 38  1  0  0  0  0
 38 39  1  0  0  0  0
 38 40  1  0  0  0  0
 41 38  1  0  0  0  0
M  END
>  <minimizedAffinity>
-6.53261089

$$$$

 OpenBabel03242515473D

 41 44  0  0  1  0  0  0  0  0999 V2000
   37.3150   32.1450   40.1080 C   0  0  0  0  0  0  0  0  0  0  0  0
   37.6620   30.7940   40.0870 C   0  0  0  0  0  0  0  0  0  0  0  0
   38.8980   30.3750   39.6360 C   0  0  0  0  0  0  0  0  0  0  0  0
   39.8210   31.2970   39.1970 C   0  0  0  0  0  0  0  0  0  0  0  0
   39.4890   32.6320   39.2140 C   0  0  0  0  0  0  0  0  0  0  0  0
   38.2720   33.0800   39.6530 C   0  0  0  0  0  0  0  0  0  0  0  0
   40.6200   33.3200   38.7130 O   0  0  0  0  0  0  0  0  0  0  0  0
   41.4610   32.3970   38.1380 C   0  0  2  0  0  0  0  0  0  0  0  0
   41.1150   31.1570   38.7030 O   0  0  0  0  0  0  0  0  0  0  0  0
   36.3730   32.5510   40.4430 H   0  0  0  0  0  0  0  0  0  0  0  0
   39.0680   29.3060   39.6600 H   0  0  0  0  0  0  0  0  0  0  0  0
   38.0310   34.1280   39.6580 H   0  0  0  0  0  0  0  0  0  0  0  0
   41.2470   32.3340   37.0490 H   0  0  0  0  0  0  0  0  0  0  0  0
   43.2230   34.1770   37.8840 C   0  0  1  0  0  3  0  0  0  0  0  0
   42.9090   32.7410   38.2860 C   0  0  2  0  0  3  0  0  0  0  0  0
   43.8050   32.0120   37.3190 C   0  0  0  0  0  3  0  0  0  0  0  0
   44.0410   31.0250   37.7640 H   0  0  0  0  0  0  0  0  0  0  0  0
   44.9690   32.7490   37.2760 O   0  0  0  0  0  0  0  0  0  0  0  0
   44.7040   34.0560   37.6260 C   0  0  0  0  0  3  0  0  0  0  0  0
   45.2440   34.2910   38.5650 H   0  0  0  0  0  0  0  0  0  0  0  0
   42.6150   34.4380   36.6470 O   0  0  0  0  0  0  0  0  0  0  0  0
   43.1610   35.1450   36.2120 H   0  0  0  0  0  0  0  0  0  0  0  0
   36.3520   29.7460   40.7140 S   0  0  0  0  0  0  0  0  0  0  0  0
   37.0320   28.1180   41.1820 C   0  0  0  0  0  0  0  0  0  0  0  0
   37.7500   28.0880   42.3200 C   0  0  0  0  0  0  0  0  0  0  0  0
   38.2870   26.8420   42.6490 C   0  0  0  0  0  0  0  0  0  0  0  0
   38.0890   25.7610   41.8760 N   0  0  0  0  0  0  0  0  0  0  0  0
   37.3580   25.8430   40.7460 C   0  0  0  0  0  0  0  0  0  0  0  0
   36.8500   27.0370   40.4350 N   0  0  0  0  0  0  0  0  0  0  0  0
   39.1010   26.6980   43.8340 N   0  0  0  0  0  0  0  0  0  0  0  0
   40.1310   26.7920   43.9690 H   0  0  0  0  0  0  0  0  0  0  0  0
   38.4760   26.4600   44.6550 H   0  0  0  0  0  0  0  0  0  0  0  0
   38.1010   29.0950   43.3730 C   0  0  0  0  0  0  0  0  0  0  0  0
   39.0870   29.5360   43.2340 H   0  0  0  0  0  0  0  0  0  0  0  0
   37.3380   29.9200   43.3010 H   0  0  0  0  0  0  0  0  0  0  0  0
   37.9240   28.6690   44.3930 H   0  0  0  0  0  0  0  0  0  0  0  0
   37.1010   24.7930   39.8950 O   0  0  0  0  0  0  0  0  0  0  0  0
   36.4820   23.6420   40.4460 C   0  0  0  0  0  0  0  0  0  0  0  0
   35.6080   23.0760   39.5700 F   0  0  0  0  0  0  0  0  0  0  0  0
   37.5120   22.7550   40.7930 F   0  0  0  0  0  0  0  0  0  0  0  0
   35.7640   24.0280   41.5630 F   0  0  0  0  0  0  0  0  0  0  0  0
  1 10  1  0  0  0  0
  2  1  1  0  0  0  0
  2 23  1  0  0  0  0
  3 11  1  0  0  0  0
  3  2  2  0  0  0  0
  4  5  2  0  0  0  0
  4  3  1  0  0  0  0
  5  6  1  0  0  0  0
  6 12  1  0  0  0  0
  6  1  2  0  0  0  0
  7  5  1  0  0  0  0
  8 13  1  6  0  0  0
  8 15  1  0  0  0  0
  8  9  1  0  0  0  0
  8  7  1  0  0  0  0
  9  4  1  0  0  0  0
 14 21  1  6  0  0  0
 14 15  1  0  0  0  0
 15 16  1  6  0  0  0
 16 17  1  0  0  0  0
 18 16  1  0  0  0  0
 18 19  1  0  0  0  0
 19 14  1  0  0  0  0
 19 20  1  0  0  0  0
 22 21  1  0  0  0  0
 23 24  1  0  0  0  0
 24 25  1  0  0  0  0
 25 26  2  0  0  0  0
 25 33  1  0  0  0  0
 26 30  1  0  0  0  0
 27 26  1  0  0  0  0
 28 27  2  0  0  0  0
 29 28  1  0  0  0  0
 29 24  2  0  0  0  0
 30 31  1  0  0  0  0
 30 32  1  0  0  0  0
 33 36  1  0  0  0  0
 34 33  1  0  0  0  0
 35 33  1  0  0  0  0
 37 38  1  0  0  0  0
 37 28  1  0  0  0  0
 38 40  1  0  0  0  0
 38 41  1  0  0  0  0
 39 38  1  0  0  0  0
M  END
>  <minimizedAffinity>
-6.5235796

$$$$

 OpenBabel03242515473D

 41 44  0  0  1  0  0  0  0  0999 V2000
   37.1260   31.3150   40.4720 C   0  0  0  0  0  0  0  0  0  0  0  0
   38.3810   31.5400   41.0370 C   0  0  0  0  0  0  0  0  0  0  0  0
   39.0430   30.5520   41.7390 C   0  0  0  0  0  0  0  0  0  0  0  0
   38.4660   29.3120   41.8930 C   0  0  0  0  0  0  0  0  0  0  0  0
   37.2270   29.0790   41.3390 C   0  0  0  0  0  0  0  0  0  0  0  0
   36.5460   30.0370   40.6390 C   0  0  0  0  0  0  0  0  0  0  0  0
   36.9040   27.7390   41.6590 O   0  0  0  0  0  0  0  0  0  0  0  0
   37.7820   27.3060   42.6240 C   0  0  2  0  0  0  0  0  0  0  0  0
   38.9000   28.1550   42.5350 O   0  0  0  0  0  0  0  0  0  0  0  0
   36.5470   32.0330   39.9130 H   0  0  0  0  0  0  0  0  0  0  0  0
   40.0100   30.8270   42.1380 H   0  0  0  0  0  0  0  0  0  0  0  0
   35.5780   29.8360   40.2140 H   0  0  0  0  0  0  0  0  0  0  0  0
   37.3300   27.4610   43.6280 H   0  0  0  0  0  0  0  0  0  0  0  0
   39.2480   25.5830   41.5220 C   0  0  1  0  0  3  0  0  0  0  0  0
   38.1210   25.8540   42.5100 C   0  0  2  0  0  3  0  0  0  0  0  0
   37.0330   25.0280   41.8770 C   0  0  0  0  0  3  0  0  0  0  0  0
   36.3160   24.7510   42.6760 H   0  0  0  0  0  0  0  0  0  0  0  0
   37.6550   23.8760   41.4450 O   0  0  0  0  0  0  0  0  0  0  0  0
   38.9950   24.1240   41.2330 C   0  0  0  0  0  3  0  0  0  0  0  0
   39.5870   23.5170   41.9460 H   0  0  0  0  0  0  0  0  0  0  0  0
   38.9830   26.2840   40.3370 O   0  0  0  0  0  0  0  0  0  0  0  0
   39.4290   25.7780   39.6070 H   0  0  0  0  0  0  0  0  0  0  0  0
   38.9830   33.1970   40.7180 S   0  0  0  0  0  0  0  0  0  0  0  0
   40.1970   33.1620   39.3550 C   0  0  0  0  0  0  0  0  0  0  0  0
   40.9400   34.2740   39.2030 C   0  0  0  0  0  0  0  0  0  0  0  0
   41.8430   34.2430   38.1390 C   0  0  0  0  0  0  0  0  0  0  0  0
   41.9520   33.1710   37.3360 N   0  0  0  0  0  0  0  0  0  0  0  0
   41.1850   32.0790   37.5320 C   0  0  0  0  0  0  0  0  0  0  0  0
   40.3230   32.1160   38.5490 N   0  0  0  0  0  0  0  0  0  0  0  0
   42.6720   35.3930   37.8640 N   0  0  0  0  0  0  0  0  0  0  0  0
   42.5090   36.2200   37.2490 H   0  0  0  0  0  0  0  0  0  0  0  0
   43.5740   35.3080   38.4130 H   0  0  0  0  0  0  0  0  0  0  0  0
   41.0600   35.5720   39.9440 C   0  0  0  0  0  0  0  0  0  0  0  0
   40.4830   36.3780   39.4920 H   0  0  0  0  0  0  0  0  0  0  0  0
   40.6560   35.3940   40.9800 H   0  0  0  0  0  0  0  0  0  0  0  0
   42.1370   35.8180   40.1250 H   0  0  0  0  0  0  0  0  0  0  0  0
   41.2280   30.9380   36.7650 O   0  0  0  0  0  0  0  0  0  0  0  0
   42.3630   30.0990   36.9030 C   0  0  0  0  0  0  0  0  0  0  0  0
   43.0470   30.3670   38.0490 F   0  0  0  0  0  0  0  0  0  0  0  0
   41.8960   28.7760   36.8780 F   0  0  0  0  0  0  0  0  0  0  0  0
   43.2150   30.3430   35.8410 F   0  0  0  0  0  0  0  0  0  0  0  0
  1  6  2  0  0  0  0
  1  2  1  0  0  0  0
  2  3  2  0  0  0  0
  3  4  1  0  0  0  0
  3 11  1  0  0  0  0
  4  9  1  0  0  0  0
  5  7  1  0  0  0  0
  5  4  2  0  0  0  0
  6  5  1  0  0  0  0
  7  8  1  0  0  0  0
  8 13  1  1  0  0  0
  9  8  1  0  0  0  0
 10  1  1  0  0  0  0
 12  6  1  0  0  0  0
 14 21  1  6  0  0  0
 14 15  1  0  0  0  0
 15 16  1  6  0  0  0
 15  8  1  0  0  0  0
 16 17  1  0  0  0  0
 18 16  1  0  0  0  0
 19 18  1  0  0  0  0
 19 14  1  0  0  0  0
 19 20  1  0  0  0  0
 22 21  1  0  0  0  0
 23  2  1  0  0  0  0
 24 23  1  0  0  0  0
 25 24  1  0  0  0  0
 25 33  1  0  0  0  0
 26 25  2  0  0  0  0
 27 28  2  0  0  0  0
 27 26  1  0  0  0  0
 28 29  1  0  0  0  0
 29 24  2  0  0  0  0
 30 26  1  0  0  0  0
 30 32  1  0  0  0  0
 31 30  1  0  0  0  0
 33 36  1  0  0  0  0
 33 35  1  0  0  0  0
 34 33  1  0  0  0  0
 37 38  1  0  0  0  0
 37 28  1  0  0  0  0
 38 39  1  0  0  0  0
 40 38  1  0  0  0  0
 41 38  1  0  0  0  0
M  END
>  <minimizedAffinity>
-6.30446386

$$$$

 OpenBabel03242515473D

 41 44  0  0  1  0  0  0  0  0999 V2000
   36.4370   28.1140   42.1180 C   0  0  0  0  0  0  0  0  0  0  0  0
   37.1910   29.2200   41.7260 C   0  0  0  0  0  0  0  0  0  0  0  0
   38.5410   29.3070   42.0050 C   0  0  0  0  0  0  0  0  0  0  0  0
   39.1720   28.2890   42.6810 C   0  0  0  0  0  0  0  0  0  0  0  0
   38.4380   27.1920   43.0730 C   0  0  0  0  0  0  0  0  0  0  0  0
   37.0990   27.0760   42.8120 C   0  0  0  0  0  0  0  0  0  0  0  0
   39.3460   26.3320   43.7330 O   0  0  0  0  0  0  0  0  0  0  0  0
   40.4980   27.0390   43.9880 C   0  0  2  0  0  0  0  0  0  0  0  0
   40.4940   28.1170   43.0840 O   0  0  0  0  0  0  0  0  0  0  0  0
   35.3830   27.9720   41.9400 H   0  0  0  0  0  0  0  0  0  0  0  0
   39.0350   30.2060   41.6580 H   0  0  0  0  0  0  0  0  0  0  0  0
   36.5420   26.2120   43.1270 H   0  0  0  0  0  0  0  0  0  0  0  0
   40.4450   27.4690   45.0120 H   0  0  0  0  0  0  0  0  0  0  0  0
   42.8890   26.7820   44.7290 C   0  0  1  0  0  3  0  0  0  0  0  0
   41.7350   26.2030   43.9200 C   0  0  2  0  0  3  0  0  0  0  0  0
   42.3750   26.1800   42.5570 C   0  0  0  0  0  3  0  0  0  0  0  0
   41.8670   25.3940   41.9630 H   0  0  0  0  0  0  0  0  0  0  0  0
   43.6750   25.7770   42.7730 O   0  0  0  0  0  0  0  0  0  0  0  0
   44.0490   26.0830   44.0640 C   0  0  0  0  0  3  0  0  0  0  0  0
   44.2500   25.1400   44.6100 H   0  0  0  0  0  0  0  0  0  0  0  0
   43.0080   28.1460   44.4240 O   0  0  0  0  0  0  0  0  0  0  0  0
   43.9610   28.3840   44.5780 H   0  0  0  0  0  0  0  0  0  0  0  0
   36.2120   30.4310   40.8410 S   0  0  0  0  0  0  0  0  0  0  0  0
   36.5670   30.3260   39.0530 C   0  0  0  0  0  0  0  0  0  0  0  0
   37.3280   31.3160   38.5480 C   0  0  0  0  0  0  0  0  0  0  0  0
   37.5680   31.2370   37.1750 C   0  0  0  0  0  0  0  0  0  0  0  0
   37.0690   30.2390   36.4270 N   0  0  0  0  0  0  0  0  0  0  0  0
   36.3140   29.2690   36.9820 C   0  0  0  0  0  0  0  0  0  0  0  0
   36.0870   29.3510   38.2940 N   0  0  0  0  0  0  0  0  0  0  0  0
   38.3470   32.2610   36.5200 N   0  0  0  0  0  0  0  0  0  0  0  0
   38.0560   33.1550   36.0680 H   0  0  0  0  0  0  0  0  0  0  0  0
   39.3690   31.9860   36.5450 H   0  0  0  0  0  0  0  0  0  0  0  0
   38.0310   32.5060   39.1270 C   0  0  0  0  0  0  0  0  0  0  0  0
   37.4650   33.4310   39.0230 H   0  0  0  0  0  0  0  0  0  0  0  0
   38.1660   32.3030   40.2260 H   0  0  0  0  0  0  0  0  0  0  0  0
   39.0820   32.5620   38.7440 H   0  0  0  0  0  0  0  0  0  0  0  0
   35.7650   28.2090   36.2990 O   0  0  0  0  0  0  0  0  0  0  0  0
   34.8250   28.5050   35.2790 C   0  0  0  0  0  0  0  0  0  0  0  0
   35.4390   28.9320   34.1420 F   0  0  0  0  0  0  0  0  0  0  0  0
   34.0850   27.3330   35.0570 F   0  0  0  0  0  0  0  0  0  0  0  0
   34.0090   29.5290   35.7240 F   0  0  0  0  0  0  0  0  0  0  0  0
  1  6  1  0  0  0  0
  2  3  1  0  0  0  0
  2  1  2  0  0  0  0
  3  4  2  0  0  0  0
  4  5  1  0  0  0  0
  4  9  1  0  0  0  0
  5  7  1  0  0  0  0
  6  5  2  0  0  0  0
  6 12  1  0  0  0  0
  7  8  1  0  0  0  0
  8 13  1  1  0  0  0
  9  8  1  0  0  0  0
 10  1  1  0  0  0  0
 11  3  1  0  0  0  0
 14 21  1  6  0  0  0
 15 16  1  6  0  0  0
 15  8  1  0  0  0  0
 15 14  1  0  0  0  0
 16 18  1  0  0  0  0
 17 16  1  0  0  0  0
 18 19  1  0  0  0  0
 19 20  1  0  0  0  0
 19 14  1  0  0  0  0
 21 22  1  0  0  0  0
 23  2  1  0  0  0  0
 24 23  1  0  0  0  0
 25 24  1  0  0  0  0
 25 33  1  0  0  0  0
 26 25  2  0  0  0  0
 27 28  2  0  0  0  0
 27 26  1  0  0  0  0
 28 29  1  0  0  0  0
 29 24  2  0  0  0  0
 30 32  1  0  0  0  0
 30 26  1  0  0  0  0
 31 30  1  0  0  0  0
 33 35  1  0  0  0  0
 34 33  1  0  0  0  0
 36 33  1  0  0  0  0
 37 28  1  0  0  0  0
 38 41  1  0  0  0  0
 38 37  1  0  0  0  0
 39 38  1  0  0  0  0
 40 38  1  0  0  0  0
M  END
>  <minimizedAffinity>
-6.2997632

$$$$

 OpenBabel03242515473D

 41 44  0  0  1  0  0  0  0  0999 V2000
   37.9920   33.9510   39.7020 C   0  0  0  0  0  0  0  0  0  0  0  0
   39.1710   33.7990   40.4330 C   0  0  0  0  0  0  0  0  0  0  0  0
   39.4190   32.6570   41.1690 C   0  0  0  0  0  0  0  0  0  0  0  0
   38.4960   31.6370   41.1930 C   0  0  0  0  0  0  0  0  0  0  0  0
   37.3290   31.7770   40.4750 C   0  0  0  0  0  0  0  0  0  0  0  0
   37.0530   32.8950   39.7360 C   0  0  0  0  0  0  0  0  0  0  0  0
   36.5950   30.5870   40.6910 O   0  0  0  0  0  0  0  0  0  0  0  0
   37.1730   29.9130   41.7410 C   0  0  2  0  0  0  0  0  0  0  0  0
   38.4890   30.4020   41.8340 O   0  0  0  0  0  0  0  0  0  0  0  0
   37.7250   34.8090   39.1050 H   0  0  0  0  0  0  0  0  0  0  0  0
   40.3620   32.6380   41.7010 H   0  0  0  0  0  0  0  0  0  0  0  0
   36.1360   32.9860   39.1820 H   0  0  0  0  0  0  0  0  0  0  0  0
   36.6520   30.1880   42.6840 H   0  0  0  0  0  0  0  0  0  0  0  0
   36.8930   27.7190   42.9420 C   0  0  1  0  0  3  0  0  0  0  0  0
   37.0930   28.4260   41.6070 C   0  0  2  0  0  3  0  0  0  0  0  0
   38.3880   27.7880   41.1810 C   0  0  0  0  0  3  0  0  0  0  0  0
   38.4370   27.8380   40.0740 H   0  0  0  0  0  0  0  0  0  0  0  0
   38.2760   26.4620   41.5410 O   0  0  0  0  0  0  0  0  0  0  0  0
   37.3770   26.3370   42.5780 C   0  0  0  0  0  3  0  0  0  0  0  0
   36.5100   25.7420   42.2290 H   0  0  0  0  0  0  0  0  0  0  0  0
   37.8100   28.2410   43.8660 O   0  0  0  0  0  0  0  0  0  0  0  0
   37.9780   27.5200   44.5300 H   0  0  0  0  0  0  0  0  0  0  0  0
   40.2600   35.2110   40.2670 S   0  0  0  0  0  0  0  0  0  0  0  0
   41.9970   34.6770   40.4440 C   0  0  0  0  0  0  0  0  0  0  0  0
   42.5860   34.2170   39.3240 C   0  0  0  0  0  0  0  0  0  0  0  0
   43.9040   33.7860   39.4820 C   0  0  0  0  0  0  0  0  0  0  0  0
   44.5260   33.8360   40.6720 N   0  0  0  0  0  0  0  0  0  0  0  0
   43.8920   34.3080   41.7650 C   0  0  0  0  0  0  0  0  0  0  0  0
   42.6320   34.7160   41.6080 N   0  0  0  0  0  0  0  0  0  0  0  0
   44.6260   33.2460   38.3540 N   0  0  0  0  0  0  0  0  0  0  0  0
   44.7120   32.2660   38.0050 H   0  0  0  0  0  0  0  0  0  0  0  0
   45.1210   34.0350   37.8500 H   0  0  0  0  0  0  0  0  0  0  0  0
   42.1670   34.0790   37.8920 C   0  0  0  0  0  0  0  0  0  0  0  0
   41.8200   33.0770   37.6410 H   0  0  0  0  0  0  0  0  0  0  0  0
   41.3110   34.7930   37.7330 H   0  0  0  0  0  0  0  0  0  0  0  0
   42.9640   34.4760   37.2130 H   0  0  0  0  0  0  0  0  0  0  0  0
   44.4460   34.3990   43.0210 O   0  0  0  0  0  0  0  0  0  0  0  0
   44.7960   33.1880   43.6700 C   0  0  0  0  0  0  0  0  0  0  0  0
   45.0610   33.3850   44.9900 F   0  0  0  0  0  0  0  0  0  0  0  0
   43.7220   32.3040   43.4860 F   0  0  0  0  0  0  0  0  0  0  0  0
   45.9470   32.6960   43.0810 F   0  0  0  0  0  0  0  0  0  0  0  0
  1  6  2  0  0  0  0
  1  2  1  0  0  0  0
  2  3  2  0  0  0  0
  3  4  1  0  0  0  0
  3 11  1  0  0  0  0
  4  9  1  0  0  0  0
  5  7  1  0  0  0  0
  5  4  2  0  0  0  0
  6  5  1  0  0  0  0
  7  8  1  0  0  0  0
  8  9  1  0  0  0  0
  8 13  1  1  0  0  0
 10  1  1  0  0  0  0
 12  6  1  0  0  0  0
 14 21  1  1  0  0  0
 15 16  1  1  0  0  0
 15  8  1  0  0  0  0
 15 14  1  0  0  0  0
 16 18  1  0  0  0  0
 17 16  1  0  0  0  0
 18 19  1  0  0  0  0
 19 14  1  0  0  0  0
 20 19  1  0  0  0  0
 21 22  1  0  0  0  0
 23  2  1  0  0  0  0
 23 24  1  0  0  0  0
 24 29  1  0  0  0  0
 25 26  1  0  0  0  0
 25 24  2  0  0  0  0
 26 27  2  0  0  0  0
 27 28  1  0  0  0  0
 28 37  1  0  0  0  0
 29 28  2  0  0  0  0
 30 26  1  0  0  0  0
 31 30  1  0  0  0  0
 32 30  1  0  0  0  0
 33 25  1  0  0  0  0
 34 33  1  0  0  0  0
 35 33  1  0  0  0  0
 36 33  1  0  0  0  0
 37 38  1  0  0  0  0
 38 39  1  0  0  0  0
 40 38  1  0  0  0  0
 41 38  1  0  0  0  0
M  END
>  <minimizedAffinity>
-6.27297592

$$$$

 OpenBabel03242515473D

 41 44  0  0  1  0  0  0  0  0999 V2000
   36.4370   30.7290   40.6250 C   0  0  0  0  0  0  0  0  0  0  0  0
   37.2940   29.6420   40.4510 C   0  0  0  0  0  0  0  0  0  0  0  0
   38.6230   29.8190   40.1190 C   0  0  0  0  0  0  0  0  0  0  0  0
   39.1290   31.0880   39.9540 C   0  0  0  0  0  0  0  0  0  0  0  0
   38.2920   32.1670   40.1220 C   0  0  0  0  0  0  0  0  0  0  0  0
   36.9710   32.0260   40.4510 C   0  0  0  0  0  0  0  0  0  0  0  0
   39.0860   33.3150   39.8910 O   0  0  0  0  0  0  0  0  0  0  0  0
   40.2630   32.9100   39.3070 C   0  0  2  0  0  0  0  0  0  0  0  0
   40.4020   31.5480   39.6280 O   0  0  0  0  0  0  0  0  0  0  0  0
   35.3910   30.6740   40.8830 H   0  0  0  0  0  0  0  0  0  0  0  0
   39.2030   28.9120   40.0070 H   0  0  0  0  0  0  0  0  0  0  0  0
   36.3320   32.8820   40.5780 H   0  0  0  0  0  0  0  0  0  0  0  0
   40.1670   32.9790   38.2010 H   0  0  0  0  0  0  0  0  0  0  0  0
   42.2290   33.1450   40.8600 C   0  0  1  0  0  3  0  0  0  0  0  0
   41.4390   33.7430   39.7030 C   0  0  2  0  0  3  0  0  0  0  0  0
   41.0630   35.0660   40.3180 C   0  0  0  0  0  3  0  0  0  0  0  0
   40.8930   35.7820   39.4890 H   0  0  0  0  0  0  0  0  0  0  0  0
   42.1810   35.4760   41.0120 O   0  0  0  0  0  0  0  0  0  0  0  0
   42.9450   34.3790   41.3520 C   0  0  0  0  0  3  0  0  0  0  0  0
   43.9210   34.4490   40.8330 H   0  0  0  0  0  0  0  0  0  0  0  0
   41.3290   32.7690   41.8690 O   0  0  0  0  0  0  0  0  0  0  0  0
   41.8330   32.8130   42.7240 H   0  0  0  0  0  0  0  0  0  0  0  0
   36.4700   28.0760   40.7290 S   0  0  0  0  0  0  0  0  0  0  0  0
   37.6740   26.8410   41.3270 C   0  0  0  0  0  0  0  0  0  0  0  0
   38.1900   27.0690   42.5500 C   0  0  0  0  0  0  0  0  0  0  0  0
   39.1300   26.1320   42.9810 C   0  0  0  0  0  0  0  0  0  0  0  0
   39.4820   25.0820   42.2200 N   0  0  0  0  0  0  0  0  0  0  0  0
   38.9330   24.8960   41.0010 C   0  0  0  0  0  0  0  0  0  0  0  0
   38.0380   25.7970   40.5940 N   0  0  0  0  0  0  0  0  0  0  0  0
   39.7710   26.2920   44.2650 N   0  0  0  0  0  0  0  0  0  0  0  0
   40.6510   26.7850   44.5310 H   0  0  0  0  0  0  0  0  0  0  0  0
   39.1910   25.8030   45.0040 H   0  0  0  0  0  0  0  0  0  0  0  0
   37.9700   28.1050   43.6110 C   0  0  0  0  0  0  0  0  0  0  0  0
   38.7080   28.9050   43.5890 H   0  0  0  0  0  0  0  0  0  0  0  0
   36.9580   28.5600   43.4170 H   0  0  0  0  0  0  0  0  0  0  0  0
   37.8460   27.6170   44.6110 H   0  0  0  0  0  0  0  0  0  0  0  0
   39.2280   23.8530   40.1540 O   0  0  0  0  0  0  0  0  0  0  0  0
   38.2660   22.8190   40.0310 C   0  0  0  0  0  0  0  0  0  0  0  0
   37.4510   22.7620   41.1190 F   0  0  0  0  0  0  0  0  0  0  0  0
   37.5420   23.0770   38.8560 F   0  0  0  0  0  0  0  0  0  0  0  0
   38.9340   21.6120   39.9450 F   0  0  0  0  0  0  0  0  0  0  0  0
  1 10  1  0  0  0  0
  2  1  2  0  0  0  0
  2 23  1  0  0  0  0
  3  2  1  0  0  0  0
  4  3  2  0  0  0  0
  4  5  1  0  0  0  0
  5  6  2  0  0  0  0
  6 12  1  0  0  0  0
  6  1  1  0  0  0  0
  7  5  1  0  0  0  0
  8 13  1  6  0  0  0
  8  9  1  0  0  0  0
  8 15  1  0  0  0  0
  8  7  1  0  0  0  0
  9  4  1  0  0  0  0
 11  3  1  0  0  0  0
 14 19  1  0  0  0  0
 14 21  1  1  0  0  0
 15 16  1  1  0  0  0
 15 14  1  0  0  0  0
 16 18  1  0  0  0  0
 17 16  1  0  0  0  0
 18 19  1  0  0  0  0
 20 19  1  0  0  0  0
 21 22  1  0  0  0  0
 23 24  1  0  0  0  0
 24 25  1  0  0  0  0
 25 26  2  0  0  0  0
 25 33  1  0  0  0  0
 26 30  1  0  0  0  0
 27 26  1  0  0  0  0
 28 27  2  0  0  0  0
 29 28  1  0  0  0  0
 29 24  2  0  0  0  0
 30 31  1  0  0  0  0
 30 32  1  0  0  0  0
 33 36  1  0  0  0  0
 34 33  1  0  0  0  0
 35 33  1  0  0  0  0
 37 28  1  0  0  0  0
 38 37  1  0  0  0  0
 38 39  1  0  0  0  0
 40 38  1  0  0  0  0
 41 38  1  0  0  0  0
M  END
>  <minimizedAffinity>
-6.24738693

$$$$
