
 OpenBabel03252504043D

 19 20  0  0  1  0  0  0  0  0999 V2000
   45.4790   33.4830   46.3600 C   0  0  0  0  0  0  0  0  0  0  0  0
   45.2160   34.4210   45.3560 C   0  0  0  0  0  0  0  0  0  0  0  0
   45.9380   34.2980   44.1760 C   0  0  0  0  0  0  0  0  0  0  0  0
   46.8520   33.2950   44.0400 N   0  0  0  0  0  0  0  0  0  0  0  0
   47.0790   32.4070   45.0330 C   0  0  0  0  0  0  0  0  0  0  0  0
   46.3840   32.5140   46.1880 N   0  0  0  0  0  0  0  0  0  0  0  0
   44.9200   33.5670   47.2910 H   0  0  0  0  0  0  0  0  0  0  0  0
   47.8130   31.6300   44.8790 H   0  0  0  0  0  0  0  0  0  0  0  0
   44.6610   34.8050   42.1050 C   0  0  1  0  0  0  0  0  0  0  0  0
   45.7090   35.2580   43.0730 C   0  0  2  0  0  0  0  0  0  0  0  0
   46.9560   35.3200   42.2090 C   0  0  0  0  0  0  0  0  0  0  0  0
   47.0030   36.2760   41.6480 H   0  0  0  0  0  0  0  0  0  0  0  0
   46.8140   34.2250   41.3820 O   0  0  0  0  0  0  0  0  0  0  0  0
   45.4750   34.1310   41.0380 C   0  0  0  0  0  0  0  0  0  0  0  0
   45.2250   33.0390   41.0080 H   0  0  0  0  0  0  0  0  0  0  0  0
   43.7740   33.8830   42.6750 O   0  0  0  0  0  0  0  0  0  0  0  0
   43.3590   33.4200   41.8870 H   0  0  0  0  0  0  0  0  0  0  0  0
   44.2930   35.4440   45.4750 O   0  0  0  0  0  0  0  0  0  0  0  0
   43.3590   35.3510   45.8380 H   0  0  0  0  0  0  0  0  0  0  0  0
  1  7  1  0  0  0  0
  2 18  1  0  0  0  0
  2  1  2  0  0  0  0
  3  2  1  0  0  0  0
  4  3  2  0  0  0  0
  4  5  1  0  0  0  0
  5  6  2  0  0  0  0
  6  1  1  0  0  0  0
  8  5  1  0  0  0  0
  9 16  1  1  0  0  0
  9 10  1  0  0  0  0
 10  3  1  1  0  0  0
 11 10  1  0  0  0  0
 12 11  1  0  0  0  0
 13 11  1  0  0  0  0
 14 13  1  0  0  0  0
 14  9  1  0  0  0  0
 15 14  1  0  0  0  0
 17 16  1  0  0  0  0
 18 19  1  0  0  0  0
M  END
>  <minimizedAffinity>
-4.35724258

>  <minimizedRMSD>
2.71115708

$$$$
