
     RDKit          3D

 25 26  0  0  0  0  0  0  0  0999 V2000
   44.3840   35.7775   44.4392 C   0  0  0  0  0  0  0  0  0  0  0  0
   44.6640   35.0692   43.2640 C   0  0  0  0  0  0  0  0  0  0  0  0
   45.2884   33.8344   43.3917 C   0  0  0  0  0  0  0  0  0  0  0  0
   45.5894   33.3869   44.6302 N   0  0  0  0  0  0  0  0  0  0  0  0
   45.3095   34.0882   45.7512 C   0  0  0  0  0  0  0  0  0  0  0  0
   44.7001   35.2970   45.6577 N   0  0  0  0  0  0  0  0  0  0  0  0
   44.2637   35.7128   42.0032 C   0  0  0  0  0  0  0  0  0  0  0  0
   43.8982   36.7518   44.4501 H   0  0  0  0  0  0  0  0  0  0  0  0
   45.4955   33.3050   42.4781 H   0  0  0  0  0  0  0  0  0  0  0  0
   44.1490   34.9165   41.2338 H   0  0  0  0  0  0  0  0  0  0  0  0
   45.0570   36.4446   41.7008 H   0  0  0  0  0  0  0  0  0  0  0  0
   43.2870   36.2006   42.0978 H   0  0  0  0  0  0  0  0  0  0  0  0
   46.7534   31.6674   48.0236 O   0  0  0  0  0  0  0  0  0  0  0  0
   45.7640   32.0499   47.1259 C   0  0  2  0  0  0  0  0  0  0  0  0
   45.6669   33.5402   47.0913 C   0  0  2  0  0  0  0  0  0  0  0  0
   44.4360   33.7803   47.9678 C   0  0  2  0  0  0  0  0  0  0  0  0
   44.0327   34.7764   47.6716 H   0  0  0  0  0  0  0  0  0  0  0  0
   43.5865   32.7400   47.6369 O   0  0  0  0  0  0  0  0  0  0  0  0
   44.4040   31.6105   47.6276 C   0  0  1  0  0  0  0  0  0  0  0  0
   43.9516   30.8402   46.9482 H   0  0  0  0  0  0  0  0  0  0  0  0
   47.3936   31.0138   47.6050 H   0  0  0  0  0  0  0  0  0  0  0  0
   45.9656   31.6876   46.0947 H   0  0  0  0  0  0  0  0  0  0  0  0
   46.5511   34.0648   47.4959 H   0  0  0  0  0  0  0  0  0  0  0  0
   44.7671   33.7483   49.0245 H   0  0  0  0  0  0  0  0  0  0  0  0
   44.4761   31.1690   48.6509 H   0  0  0  0  0  0  0  0  0  0  0  0
  1  6  2  0
  2  3  2  0
  2  1  1  0
  3  4  1  0
  4  5  2  0
  6  5  1  0
  7  2  1  0
  1  8  1  0
  3  9  1  0
  7 10  1  0
  7 11  1  0
  7 12  1  0
 13 14  1  0
 14 15  1  0
 15 16  1  0
 16 17  1  6
 16 18  1  0
 18 19  1  0
 19 20  1  6
 19 14  1  0
 13 21  1  0
 14 22  1  6
 15 23  1  1
 16 24  1  0
 19 25  1  0
  5 15  1  0
M  ISO  7   8  14   9  14  10   8  11   8  12   8  17  15  20  16
M  END
>  <DihAtoms>  (1) 
3,4,14,13

>  <DihDeg>  (1) 
49.908770587824776

$$$$
