
 OpenBabel03252504253D

 21 22  0  0  1  0  0  0  0  0999 V2000
   46.5060   34.5170   41.7760 C   0  0  0  0  0  0  0  0  0  0  0  0
   45.8340   34.9290   41.0090 H   0  0  0  0  0  0  0  0  0  0  0  0
   46.5850   33.4190   41.6150 H   0  0  0  0  0  0  0  0  0  0  0  0
   45.2220   35.9230   43.3150 C   0  0  0  0  0  0  0  0  0  0  0  0
   45.9010   34.7010   43.1090 C   0  0  0  0  0  0  0  0  0  0  0  0
   45.9180   33.8170   44.1810 C   0  0  0  0  0  0  0  0  0  0  0  0
   45.3030   34.1660   45.3260 N   0  0  0  0  0  0  0  0  0  0  0  0
   44.6680   35.3370   45.4860 C   0  0  0  0  0  0  0  0  0  0  0  0
   44.6190   36.2350   44.4770 N   0  0  0  0  0  0  0  0  0  0  0  0
   45.1540   36.6820   42.5330 H   0  0  0  0  0  0  0  0  0  0  0  0
   46.4440   32.8910   43.9910 H   0  0  0  0  0  0  0  0  0  0  0  0
   44.1870   35.5910   46.4060 H   0  0  0  0  0  0  0  0  0  0  0  0
   49.3510   33.3590   41.9310 C   0  0  2  0  0  0  0  0  0  0  0  0
   48.8870   34.6470   42.5710 C   0  0  0  0  0  0  0  0  0  0  0  0
   49.7350   35.3550   42.6520 H   0  0  0  0  0  0  0  0  0  0  0  0
   47.8430   35.1410   41.5980 C   0  0  1  0  0  0  0  0  0  0  0  0
   48.3460   34.7110   40.3730 O   0  0  0  0  0  0  0  0  0  0  0  0
   48.7980   33.4120   40.5210 C   0  0  0  0  0  0  0  0  0  0  0  0
   48.0380   32.6340   40.4340 H   0  0  0  0  0  0  0  0  0  0  0  0
   48.8770   32.2760   42.6590 O   0  0  0  0  0  0  0  0  0  0  0  0
   49.4920   32.1860   43.4380 H   0  0  0  0  0  0  0  0  0  0  0  0
  1  5  1  0  0  0  0
  2  1  1  0  0  0  0
  3  1  1  0  0  0  0
  4  9  1  0  0  0  0
  5  4  2  0  0  0  0
  5  6  1  0  0  0  0
  6  7  2  0  0  0  0
  7  8  1  0  0  0  0
  8 12  1  0  0  0  0
  9  8  2  0  0  0  0
 10  4  1  0  0  0  0
 11  6  1  0  0  0  0
 13 14  1  0  0  0  0
 13 20  1  1  0  0  0
 14 15  1  0  0  0  0
 16  1  1  1  0  0  0
 16 14  1  0  0  0  0
 17 18  1  0  0  0  0
 17 16  1  0  0  0  0
 18 13  1  0  0  0  0
 19 18  1  0  0  0  0
 20 21  1  0  0  0  0
M  END
>  <minimizedAffinity>
-4.15434027

>  <minimizedRMSD>
2.46091366

$$$$
