
 OpenBabel03242511353D

 35 37  0  0  1  0  0  0  0  0999 V2000
   37.0150   29.5220   40.3890 C   0  0  0  0  0  3  0  0  0  0  0  0
   36.9920   29.1020   41.6490 C   0  0  0  0  0  3  0  0  0  0  0  0
   37.7350   30.7510   40.0780 C   0  0  0  0  0  0  0  0  0  0  0  0
   37.0370   31.9680   40.2850 C   0  0  0  0  0  0  0  0  0  0  0  0
   37.7020   33.1700   39.9970 C   0  0  0  0  0  0  0  0  0  0  0  0
   38.9700   33.1120   39.5360 N   0  0  0  0  0  0  0  0  0  0  0  0
   39.5950   31.9180   39.3540 C   0  0  0  0  0  0  0  0  0  0  0  0
   38.9780   30.7750   39.6240 N   0  0  0  0  0  0  0  0  0  0  0  0
   36.0110   31.9710   40.6600 H   0  0  0  0  0  0  0  0  0  0  0  0
   37.1830   34.1150   40.1490 H   0  0  0  0  0  0  0  0  0  0  0  0
   41.1840   32.6570   37.5900 C   0  0  1  0  0  3  0  0  0  0  0  0
   40.9850   31.8770   38.8480 C   0  0  2  0  0  3  0  0  0  0  0  0
   41.4180   30.4950   38.4290 C   0  0  0  0  0  3  0  0  0  0  0  0
   40.5290   29.8990   38.1020 H   0  0  0  0  0  0  0  0  0  0  0  0
   42.2600   30.6030   37.3560 O   0  0  0  0  0  0  0  0  0  0  0  0
   42.3900   31.9170   37.0000 C   0  0  0  0  0  3  0  0  0  0  0  0
   43.3260   32.3240   37.4830 H   0  0  0  0  0  0  0  0  0  0  0  0
   40.1490   32.4930   36.6740 O   0  0  0  0  0  0  0  0  0  0  0  0
   40.1820   31.6490   36.1950 H   0  0  0  0  0  0  0  0  0  0  0  0
   36.2860   27.8690   42.0510 C   0  0  0  0  0  0  0  0  0  0  0  0
   36.1220   27.1760   41.1840 H   0  0  0  0  0  0  0  0  0  0  0  0
   35.3210   28.0350   42.5500 H   0  0  0  0  0  0  0  0  0  0  0  0
   39.3380   26.7870   43.6770 C   0  0  1  0  0  0  0  0  0  0  0  0
   38.2270   27.8500   43.6470 C   0  0  0  0  0  0  0  0  0  0  0  0
   37.1210   27.0590   43.0590 C   0  0  2  0  0  0  0  0  0  0  0  0
   37.6310   25.9230   42.4820 O   0  0  0  0  0  0  0  0  0  0  0  0
   38.9960   26.0220   42.4210 C   0  0  0  0  0  0  0  0  0  0  0  0
   39.2590   26.1780   44.5950 H   0  0  0  0  0  0  0  0  0  0  0  0
   38.5450   28.6220   42.9320 H   0  0  0  0  0  0  0  0  0  0  0  0
   38.0240   28.2550   44.6550 H   0  0  0  0  0  0  0  0  0  0  0  0
   36.3820   26.7380   43.8320 H   0  0  0  0  0  0  0  0  0  0  0  0
   39.4580   25.0210   42.5320 H   0  0  0  0  0  0  0  0  0  0  0  0
   39.3850   26.5800   41.5560 H   0  0  0  0  0  0  0  0  0  0  0  0
   40.5810   27.4210   43.5850 O   0  0  0  0  0  0  0  0  0  0  0  0
   40.6550   27.7270   42.6480 H   0  0  0  0  0  0  0  0  0  0  0  0
  1  2  2  0  0  0  0
  2 20  1  0  0  0  0
  3  4  1  0  0  0  0
  3  1  1  0  0  0  0
  4  9  1  0  0  0  0
  5 10  1  0  0  0  0
  5  4  2  0  0  0  0
  6  5  1  0  0  0  0
  7  6  2  0  0  0  0
  7  8  1  0  0  0  0
  8  3  2  0  0  0  0
 11 18  1  6  0  0  0
 11 12  1  0  0  0  0
 12  7  1  6  0  0  0
 13 12  1  0  0  0  0
 14 13  1  0  0  0  0
 15 13  1  0  0  0  0
 16 15  1  0  0  0  0
 16 17  1  0  0  0  0
 16 11  1  0  0  0  0
 19 18  1  0  0  0  0
 20 22  1  0  0  0  0
 20 25  1  0  0  0  0
 21 20  1  0  0  0  0
 23 28  1  1  0  0  0
 24 23  1  0  0  0  0
 24 30  1  0  0  0  0
 25 24  1  0  0  0  0
 25 31  1  1  0  0  0
 26 25  1  0  0  0  0
 27 26  1  0  0  0  0
 27 32  1  0  0  0  0
 27 23  1  0  0  0  0
 29 24  1  0  0  0  0
 33 27  1  0  0  0  0
 34 23  1  0  0  0  0
 35 34  1  0  0  0  0
M  END
>  <minimizedAffinity>
-5.42209053

$$$$

 OpenBabel03242511353D

 35 37  0  0  1  0  0  0  0  0999 V2000
   34.9800   29.0380   39.8060 C   0  0  0  0  0  3  0  0  0  0  0  0
   35.0830   29.1770   38.4880 C   0  0  0  0  0  3  0  0  0  0  0  0
   36.1480   29.3220   40.6290 C   0  0  0  0  0  0  0  0  0  0  0  0
   36.2960   28.5540   41.8130 C   0  0  0  0  0  0  0  0  0  0  0  0
   37.4110   28.8010   42.6280 C   0  0  0  0  0  0  0  0  0  0  0  0
   38.2880   29.7570   42.2500 N   0  0  0  0  0  0  0  0  0  0  0  0
   38.1000   30.4660   41.1060 C   0  0  0  0  0  0  0  0  0  0  0  0
   37.0500   30.2410   40.3260 N   0  0  0  0  0  0  0  0  0  0  0  0
   35.5640   27.7890   42.0820 H   0  0  0  0  0  0  0  0  0  0  0  0
   37.5430   28.2220   43.5410 H   0  0  0  0  0  0  0  0  0  0  0  0
   38.5470   32.9000   40.8580 C   0  0  1  0  0  3  0  0  0  0  0  0
   39.0730   31.5100   40.7110 C   0  0  2  0  0  3  0  0  0  0  0  0
   39.4230   31.4630   39.2450 C   0  0  0  0  0  3  0  0  0  0  0  0
   38.5680   31.0360   38.6620 H   0  0  0  0  0  0  0  0  0  0  0  0
   39.6280   32.7400   38.8000 O   0  0  0  0  0  0  0  0  0  0  0  0
   39.4070   33.6270   39.8180 C   0  0  0  0  0  3  0  0  0  0  0  0
   40.4000   33.8770   40.2920 H   0  0  0  0  0  0  0  0  0  0  0  0
   37.2300   33.0370   40.4300 O   0  0  0  0  0  0  0  0  0  0  0  0
   37.1350   33.0680   39.4630 H   0  0  0  0  0  0  0  0  0  0  0  0
   33.9500   28.9110   37.5810 C   0  0  0  0  0  0  0  0  0  0  0  0
   33.4340   29.8560   37.2620 H   0  0  0  0  0  0  0  0  0  0  0  0
   33.1930   28.2220   37.9820 H   0  0  0  0  0  0  0  0  0  0  0  0
   36.2530   28.3350   34.8450 C   0  0  1  0  0  0  0  0  0  0  0  0
   35.8820   27.9570   36.2890 C   0  0  0  0  0  0  0  0  0  0  0  0
   34.4300   28.2560   36.2740 C   0  0  2  0  0  0  0  0  0  0  0  0
   34.1390   29.0430   35.1880 O   0  0  0  0  0  0  0  0  0  0  0  0
   35.3070   29.4920   34.6300 C   0  0  0  0  0  0  0  0  0  0  0  0
   36.0640   27.4840   34.1670 H   0  0  0  0  0  0  0  0  0  0  0  0
   36.3960   28.6710   36.9460 H   0  0  0  0  0  0  0  0  0  0  0  0
   36.1370   26.9060   36.5130 H   0  0  0  0  0  0  0  0  0  0  0  0
   33.8150   27.3280   36.1890 H   0  0  0  0  0  0  0  0  0  0  0  0
   35.1920   29.5990   33.5330 H   0  0  0  0  0  0  0  0  0  0  0  0
   35.7380   30.3870   35.1040 H   0  0  0  0  0  0  0  0  0  0  0  0
   37.5930   28.7360   34.8070 O   0  0  0  0  0  0  0  0  0  0  0  0
   37.6160   29.6270   35.2340 H   0  0  0  0  0  0  0  0  0  0  0  0
  1  3  1  0  0  0  0
  2  1  2  0  0  0  0
  3  4  1  0  0  0  0
  4  9  1  0  0  0  0
  4  5  2  0  0  0  0
  5 10  1  0  0  0  0
  6  5  1  0  0  0  0
  7  6  2  0  0  0  0
  8  3  2  0  0  0  0
  8  7  1  0  0  0  0
 11 18  1  6  0  0  0
 12 11  1  0  0  0  0
 12  7  1  6  0  0  0
 13 12  1  0  0  0  0
 14 13  1  0  0  0  0
 15 13  1  0  0  0  0
 15 16  1  0  0  0  0
 16 17  1  0  0  0  0
 16 11  1  0  0  0  0
 19 18  1  0  0  0  0
 20 22  1  0  0  0  0
 20  2  1  0  0  0  0
 21 20  1  0  0  0  0
 23 28  1  6  0  0  0
 23 24  1  0  0  0  0
 24 30  1  0  0  0  0
 24 29  1  0  0  0  0
 25 31  1  6  0  0  0
 25 24  1  0  0  0  0
 25 20  1  0  0  0  0
 26 25  1  0  0  0  0
 27 23  1  0  0  0  0
 27 33  1  0  0  0  0
 27 26  1  0  0  0  0
 32 27  1  0  0  0  0
 34 23  1  0  0  0  0
 34 35  1  0  0  0  0
M  END
>  <minimizedAffinity>
-5.34618187

$$$$

 OpenBabel03242511353D

 35 37  0  0  1  0  0  0  0  0999 V2000
   38.2070   31.1960   38.1080 C   0  0  0  0  0  3  0  0  0  0  0  0
   37.0040   30.9420   38.6140 C   0  0  0  0  0  3  0  0  0  0  0  0
   39.0300   32.2120   38.7500 C   0  0  0  0  0  0  0  0  0  0  0  0
   38.3540   33.1670   39.5530 C   0  0  0  0  0  0  0  0  0  0  0  0
   39.1170   34.1590   40.1860 C   0  0  0  0  0  0  0  0  0  0  0  0
   40.4550   34.1610   40.0010 N   0  0  0  0  0  0  0  0  0  0  0  0
   41.0560   33.2240   39.2210 C   0  0  0  0  0  0  0  0  0  0  0  0
   40.3450   32.2790   38.6170 N   0  0  0  0  0  0  0  0  0  0  0  0
   37.2690   33.1300   39.6760 H   0  0  0  0  0  0  0  0  0  0  0  0
   38.6170   34.9020   40.8070 H   0  0  0  0  0  0  0  0  0  0  0  0
   42.9660   34.1160   37.9020 C   0  0  1  0  0  3  0  0  0  0  0  0
   42.5230   33.2440   39.0320 C   0  0  2  0  0  3  0  0  0  0  0  0
   43.0830   31.9030   38.6280 C   0  0  0  0  0  3  0  0  0  0  0  0
   42.3070   31.3170   38.0750 H   0  0  0  0  0  0  0  0  0  0  0  0
   44.1340   32.1030   37.7760 O   0  0  0  0  0  0  0  0  0  0  0  0
   44.2950   33.4420   37.5450 C   0  0  0  0  0  3  0  0  0  0  0  0
   45.0890   33.8290   38.2480 H   0  0  0  0  0  0  0  0  0  0  0  0
   42.1610   34.0000   36.7720 O   0  0  0  0  0  0  0  0  0  0  0  0
   42.3260   33.1920   36.2570 H   0  0  0  0  0  0  0  0  0  0  0  0
   36.1050   29.9280   38.0260 C   0  0  0  0  0  0  0  0  0  0  0  0
   36.6290   29.2920   37.2650 H   0  0  0  0  0  0  0  0  0  0  0  0
   35.1930   30.3350   37.5690 H   0  0  0  0  0  0  0  0  0  0  0  0
   36.0180   28.4190   41.3190 C   0  0  1  0  0  0  0  0  0  0  0  0
   35.5000   29.5680   40.4380 C   0  0  0  0  0  0  0  0  0  0  0  0
   35.6070   28.9430   39.0990 C   0  0  2  0  0  0  0  0  0  0  0  0
   36.4200   27.8410   39.1750 O   0  0  0  0  0  0  0  0  0  0  0  0
   37.0540   27.8300   40.3900 C   0  0  0  0  0  0  0  0  0  0  0  0
   35.1970   27.7190   41.5570 H   0  0  0  0  0  0  0  0  0  0  0  0
   36.2300   30.3850   40.5210 H   0  0  0  0  0  0  0  0  0  0  0  0
   34.4780   29.8740   40.7280 H   0  0  0  0  0  0  0  0  0  0  0  0
   34.6150   28.6020   38.7180 H   0  0  0  0  0  0  0  0  0  0  0  0
   37.2170   26.7880   40.7280 H   0  0  0  0  0  0  0  0  0  0  0  0
   37.9630   28.4460   40.4470 H   0  0  0  0  0  0  0  0  0  0  0  0
   36.5920   28.9520   42.4770 O   0  0  0  0  0  0  0  0  0  0  0  0
   37.4490   29.3540   42.1890 H   0  0  0  0  0  0  0  0  0  0  0  0
  1  2  2  0  0  0  0
  1  3  1  0  0  0  0
  3  4  1  0  0  0  0
  4  9  1  0  0  0  0
  4  5  2  0  0  0  0
  5 10  1  0  0  0  0
  6  5  1  0  0  0  0
  7  6  2  0  0  0  0
  8  3  2  0  0  0  0
  8  7  1  0  0  0  0
 11 18  1  6  0  0  0
 11 12  1  0  0  0  0
 12  7  1  6  0  0  0
 13 12  1  0  0  0  0
 14 13  1  0  0  0  0
 15 13  1  0  0  0  0
 16 15  1  0  0  0  0
 16 11  1  0  0  0  0
 16 17  1  0  0  0  0
 19 18  1  0  0  0  0
 20  2  1  0  0  0  0
 20 25  1  0  0  0  0
 21 20  1  0  0  0  0
 22 20  1  0  0  0  0
 23 28  1  1  0  0  0
 23 34  1  0  0  0  0
 24 29  1  0  0  0  0
 24 30  1  0  0  0  0
 24 23  1  0  0  0  0
 25 31  1  6  0  0  0
 25 26  1  0  0  0  0
 25 24  1  0  0  0  0
 26 27  1  0  0  0  0
 27 33  1  0  0  0  0
 27 32  1  0  0  0  0
 27 23  1  0  0  0  0
 35 34  1  0  0  0  0
M  END
>  <minimizedAffinity>
-5.34268379

$$$$

 OpenBabel03242511353D

 35 37  0  0  1  0  0  0  0  0999 V2000
   34.6360   29.1580   39.6520 C   0  0  0  0  0  3  0  0  0  0  0  0
   34.8300   28.9250   38.3580 C   0  0  0  0  0  3  0  0  0  0  0  0
   35.7950   29.4370   40.4900 C   0  0  0  0  0  0  0  0  0  0  0  0
   36.3920   30.7150   40.3470 C   0  0  0  0  0  0  0  0  0  0  0  0
   37.5100   31.0170   41.1390 C   0  0  0  0  0  0  0  0  0  0  0  0
   37.9650   30.0790   41.9970 N   0  0  0  0  0  0  0  0  0  0  0  0
   37.3570   28.8670   42.0970 C   0  0  0  0  0  0  0  0  0  0  0  0
   36.2990   28.5700   41.3530 N   0  0  0  0  0  0  0  0  0  0  0  0
   35.9920   31.4470   39.6400 H   0  0  0  0  0  0  0  0  0  0  0  0
   37.9830   31.9930   41.0440 H   0  0  0  0  0  0  0  0  0  0  0  0
   39.3530   27.9120   43.2330 C   0  0  1  0  0  3  0  0  0  0  0  0
   37.8720   27.8520   43.0430 C   0  0  2  0  0  3  0  0  0  0  0  0
   37.6780   26.4390   42.5550 C   0  0  0  0  0  3  0  0  0  0  0  0
   37.6660   26.4200   41.4370 H   0  0  0  0  0  0  0  0  0  0  0  0
   38.7370   25.6800   42.9700 O   0  0  0  0  0  0  0  0  0  0  0  0
   39.6320   26.4630   43.6470 C   0  0  0  0  0  3  0  0  0  0  0  0
   39.4240   26.3640   44.7520 H   0  0  0  0  0  0  0  0  0  0  0  0
   40.0500   28.1120   42.0450 O   0  0  0  0  0  0  0  0  0  0  0  0
   40.1190   27.3140   41.4940 H   0  0  0  0  0  0  0  0  0  0  0  0
   33.7130   28.6340   37.4380 C   0  0  0  0  0  0  0  0  0  0  0  0
   33.1020   29.5490   37.2140 H   0  0  0  0  0  0  0  0  0  0  0  0
   33.0340   27.8400   37.7780 H   0  0  0  0  0  0  0  0  0  0  0  0
   36.1330   28.3450   34.7580 C   0  0  1  0  0  0  0  0  0  0  0  0
   35.6660   27.7780   36.1090 C   0  0  0  0  0  0  0  0  0  0  0  0
   34.2330   28.1550   36.0710 C   0  0  2  0  0  0  0  0  0  0  0  0
   34.0390   29.1090   35.1040 O   0  0  0  0  0  0  0  0  0  0  0  0
   35.2550   29.5710   34.6750 C   0  0  0  0  0  0  0  0  0  0  0  0
   35.9420   27.6150   33.9510 H   0  0  0  0  0  0  0  0  0  0  0  0
   36.1760   28.3580   36.8900 H   0  0  0  0  0  0  0  0  0  0  0  0
   35.8590   26.6930   36.1840 H   0  0  0  0  0  0  0  0  0  0  0  0
   33.5800   27.2850   35.8190 H   0  0  0  0  0  0  0  0  0  0  0  0
   35.2050   29.8450   33.6030 H   0  0  0  0  0  0  0  0  0  0  0  0
   35.7010   30.3610   35.2990 H   0  0  0  0  0  0  0  0  0  0  0  0
   37.4900   28.6740   34.8440 O   0  0  0  0  0  0  0  0  0  0  0  0
   37.5310   29.4900   35.4010 H   0  0  0  0  0  0  0  0  0  0  0  0
  1  3  1  0  0  0  0
  2  1  2  0  0  0  0
  3  8  1  0  0  0  0
  4  3  2  0  0  0  0
  4  5  1  0  0  0  0
  5  6  2  0  0  0  0
  6  7  1  0  0  0  0
  8  7  2  0  0  0  0
  9  4  1  0  0  0  0
 10  5  1  0  0  0  0
 11 18  1  6  0  0  0
 11 16  1  0  0  0  0
 12  7  1  6  0  0  0
 12 11  1  0  0  0  0
 13 15  1  0  0  0  0
 13 12  1  0  0  0  0
 14 13  1  0  0  0  0
 15 16  1  0  0  0  0
 16 17  1  0  0  0  0
 19 18  1  0  0  0  0
 20 22  1  0  0  0  0
 20  2  1  0  0  0  0
 21 20  1  0  0  0  0
 23 28  1  6  0  0  0
 23 34  1  0  0  0  0
 23 24  1  0  0  0  0
 24 30  1  0  0  0  0
 24 29  1  0  0  0  0
 25 31  1  6  0  0  0
 25 24  1  0  0  0  0
 25 20  1  0  0  0  0
 26 25  1  0  0  0  0
 27 23  1  0  0  0  0
 27 26  1  0  0  0  0
 27 33  1  0  0  0  0
 32 27  1  0  0  0  0
 34 35  1  0  0  0  0
M  END
>  <minimizedAffinity>
-5.24108839

$$$$

 OpenBabel03242511353D

 35 37  0  0  1  0  0  0  0  0999 V2000
   36.5050   29.7780   40.7860 C   0  0  0  0  0  3  0  0  0  0  0  0
   37.3760   30.7100   40.4100 C   0  0  0  0  0  3  0  0  0  0  0  0
   36.9800   28.6730   41.6070 C   0  0  0  0  0  0  0  0  0  0  0  0
   37.6580   29.0140   42.8050 C   0  0  0  0  0  0  0  0  0  0  0  0
   38.1290   27.9730   43.6200 C   0  0  0  0  0  0  0  0  0  0  0  0
   37.9160   26.6990   43.2260 N   0  0  0  0  0  0  0  0  0  0  0  0
   37.2610   26.4240   42.0680 C   0  0  0  0  0  0  0  0  0  0  0  0
   36.8110   27.4000   41.2890 N   0  0  0  0  0  0  0  0  0  0  0  0
   37.8100   30.0590   43.0880 H   0  0  0  0  0  0  0  0  0  0  0  0
   38.6520   28.2150   44.5440 H   0  0  0  0  0  0  0  0  0  0  0  0
   38.2570   24.1640   41.7740 C   0  0  1  0  0  3  0  0  0  0  0  0
   37.0380   25.0200   41.6540 C   0  0  2  0  0  3  0  0  0  0  0  0
   36.7050   24.8830   40.1900 C   0  0  0  0  0  3  0  0  0  0  0  0
   37.1640   25.7260   39.6140 H   0  0  0  0  0  0  0  0  0  0  0  0
   37.2470   23.7190   39.7210 O   0  0  0  0  0  0  0  0  0  0  0  0
   37.9410   23.0950   40.7220 C   0  0  0  0  0  3  0  0  0  0  0  0
   37.2670   22.3230   41.1930 H   0  0  0  0  0  0  0  0  0  0  0  0
   39.4170   24.7990   41.3400 O   0  0  0  0  0  0  0  0  0  0  0  0
   39.5010   24.8400   40.3730 H   0  0  0  0  0  0  0  0  0  0  0  0
   36.9800   31.8630   39.5780 C   0  0  0  0  0  0  0  0  0  0  0  0
   36.2200   32.5110   40.0910 H   0  0  0  0  0  0  0  0  0  0  0  0
   36.5960   31.6000   38.5830 H   0  0  0  0  0  0  0  0  0  0  0  0
   40.1510   33.4410   40.3400 C   0  0  1  0  0  0  0  0  0  0  0  0
   39.4640   32.1960   39.7530 C   0  0  0  0  0  0  0  0  0  0  0  0
   38.1800   32.7890   39.3100 C   0  0  2  0  0  0  0  0  0  0  0  0
   38.0100   34.0090   39.9130 O   0  0  0  0  0  0  0  0  0  0  0  0
   38.9470   34.1590   40.9020 C   0  0  0  0  0  0  0  0  0  0  0  0
   40.6640   34.0070   39.5410 H   0  0  0  0  0  0  0  0  0  0  0  0
   39.2810   31.5100   40.5910 H   0  0  0  0  0  0  0  0  0  0  0  0
   40.0680   31.7400   38.9480 H   0  0  0  0  0  0  0  0  0  0  0  0
   38.1570   32.9550   38.2060 H   0  0  0  0  0  0  0  0  0  0  0  0
   39.2370   35.2230   40.9970 H   0  0  0  0  0  0  0  0  0  0  0  0
   38.6850   33.6980   41.8660 H   0  0  0  0  0  0  0  0  0  0  0  0
   41.0420   33.0430   41.3420 O   0  0  0  0  0  0  0  0  0  0  0  0
   40.4760   32.7750   42.1090 H   0  0  0  0  0  0  0  0  0  0  0  0
  1  3  1  0  0  0  0
  2  1  2  0  0  0  0
  3  4  1  0  0  0  0
  4  9  1  0  0  0  0
  4  5  2  0  0  0  0
  5 10  1  0  0  0  0
  6  5  1  0  0  0  0
  7  6  2  0  0  0  0
  8  3  2  0  0  0  0
  8  7  1  0  0  0  0
 11 18  1  6  0  0  0
 12 11  1  0  0  0  0
 12  7  1  6  0  0  0
 13 12  1  0  0  0  0
 14 13  1  0  0  0  0
 15 13  1  0  0  0  0
 15 16  1  0  0  0  0
 16 17  1  0  0  0  0
 16 11  1  0  0  0  0
 19 18  1  0  0  0  0
 20 21  1  0  0  0  0
 20  2  1  0  0  0  0
 22 20  1  0  0  0  0
 23 28  1  6  0  0  0
 23 27  1  0  0  0  0
 23 34  1  0  0  0  0
 24 23  1  0  0  0  0
 24 29  1  0  0  0  0
 25 31  1  6  0  0  0
 25 20  1  0  0  0  0
 25 24  1  0  0  0  0
 25 26  1  0  0  0  0
 26 27  1  0  0  0  0
 27 32  1  0  0  0  0
 27 33  1  0  0  0  0
 30 24  1  0  0  0  0
 34 35  1  0  0  0  0
M  END
>  <minimizedAffinity>
-5.20579529

$$$$

 OpenBabel03242511353D

 35 37  0  0  1  0  0  0  0  0999 V2000
   37.1870   25.3700   41.5450 C   0  0  0  0  0  3  0  0  0  0  0  0
   36.6630   25.0760   40.3590 C   0  0  0  0  0  3  0  0  0  0  0  0
   37.3400   26.7730   41.9090 C   0  0  0  0  0  0  0  0  0  0  0  0
   37.3400   27.0760   43.2950 C   0  0  0  0  0  0  0  0  0  0  0  0
   37.4860   28.4170   43.6800 C   0  0  0  0  0  0  0  0  0  0  0  0
   37.6180   29.3540   42.7170 N   0  0  0  0  0  0  0  0  0  0  0  0
   37.6110   29.0130   41.4010 C   0  0  0  0  0  0  0  0  0  0  0  0
   37.4740   27.7470   41.0240 N   0  0  0  0  0  0  0  0  0  0  0  0
   37.2310   26.2870   44.0430 H   0  0  0  0  0  0  0  0  0  0  0  0
   37.4890   28.6700   44.7390 H   0  0  0  0  0  0  0  0  0  0  0  0
   37.0480   31.3280   40.6910 C   0  0  1  0  0  3  0  0  0  0  0  0
   37.7560   30.0550   40.3610 C   0  0  2  0  0  3  0  0  0  0  0  0
   37.1160   29.6740   39.0500 C   0  0  0  0  0  3  0  0  0  0  0  0
   36.2640   28.9710   39.2330 H   0  0  0  0  0  0  0  0  0  0  0  0
   36.6050   30.7990   38.4650 O   0  0  0  0  0  0  0  0  0  0  0  0
   36.8080   31.8780   39.2810 C   0  0  0  0  0  3  0  0  0  0  0  0
   37.7460   32.4070   38.9420 H   0  0  0  0  0  0  0  0  0  0  0  0
   35.7860   31.1260   41.2430 O   0  0  0  0  0  0  0  0  0  0  0  0
   35.1100   30.8800   40.5910 H   0  0  0  0  0  0  0  0  0  0  0  0
   36.4730   23.6820   39.9110 C   0  0  0  0  0  0  0  0  0  0  0  0
   35.7120   23.1400   40.5340 H   0  0  0  0  0  0  0  0  0  0  0  0
   37.3910   23.0800   39.8830 H   0  0  0  0  0  0  0  0  0  0  0  0
   34.1500   24.4930   37.2510 C   0  0  1  0  0  0  0  0  0  0  0  0
   35.4000   24.9460   38.0220 C   0  0  0  0  0  0  0  0  0  0  0  0
   35.9210   23.6350   38.4750 C   0  0  2  0  0  0  0  0  0  0  0  0
   34.9370   22.6880   38.3520 O   0  0  0  0  0  0  0  0  0  0  0  0
   33.7420   23.3080   38.0950 C   0  0  0  0  0  0  0  0  0  0  0  0
   34.4180   24.2190   36.2150 H   0  0  0  0  0  0  0  0  0  0  0  0
   35.0470   25.5190   38.8910 H   0  0  0  0  0  0  0  0  0  0  0  0
   36.0890   25.5230   37.3790 H   0  0  0  0  0  0  0  0  0  0  0  0
   36.7890   23.2970   37.8580 H   0  0  0  0  0  0  0  0  0  0  0  0
   33.1100   22.6690   37.4480 H   0  0  0  0  0  0  0  0  0  0  0  0
   33.2090   23.6800   38.9830 H   0  0  0  0  0  0  0  0  0  0  0  0
   33.1950   25.5150   37.2830 O   0  0  0  0  0  0  0  0  0  0  0  0
   32.8420   25.5190   38.2070 H   0  0  0  0  0  0  0  0  0  0  0  0
  1  3  1  0  0  0  0
  2  1  2  0  0  0  0
  3  4  1  0  0  0  0
  4  5  2  0  0  0  0
  4  9  1  0  0  0  0
  5 10  1  0  0  0  0
  6  5  1  0  0  0  0
  7  6  2  0  0  0  0
  8  7  1  0  0  0  0
  8  3  2  0  0  0  0
 11 18  1  6  0  0  0
 12 11  1  0  0  0  0
 12  7  1  1  0  0  0
 13 14  1  0  0  0  0
 13 12  1  0  0  0  0
 15 13  1  0  0  0  0
 15 16  1  0  0  0  0
 16 11  1  0  0  0  0
 17 16  1  0  0  0  0
 19 18  1  0  0  0  0
 20  2  1  0  0  0  0
 20 21  1  0  0  0  0
 22 20  1  0  0  0  0
 23 28  1  6  0  0  0
 23 34  1  0  0  0  0
 23 24  1  0  0  0  0
 23 27  1  0  0  0  0
 24 25  1  0  0  0  0
 24 29  1  0  0  0  0
 25 31  1  6  0  0  0
 25 20  1  0  0  0  0
 26 25  1  0  0  0  0
 27 26  1  0  0  0  0
 27 33  1  0  0  0  0
 30 24  1  0  0  0  0
 32 27  1  0  0  0  0
 34 35  1  0  0  0  0
M  END
>  <minimizedAffinity>
-5.19888687

$$$$

 OpenBabel03242511353D

 35 37  0  0  1  0  0  0  0  0999 V2000
   37.5390   29.8500   40.2480 C   0  0  0  0  0  3  0  0  0  0  0  0
   36.8660   29.5240   41.3460 C   0  0  0  0  0  3  0  0  0  0  0  0
   38.1500   31.1710   40.1730 C   0  0  0  0  0  0  0  0  0  0  0  0
   37.2710   32.2700   39.9900 C   0  0  0  0  0  0  0  0  0  0  0  0
   37.8260   33.5560   39.9140 C   0  0  0  0  0  0  0  0  0  0  0  0
   39.1660   33.6880   40.0170 N   0  0  0  0  0  0  0  0  0  0  0  0
   39.9650   32.6030   40.1910 C   0  0  0  0  0  0  0  0  0  0  0  0
   39.4530   31.3810   40.2640 N   0  0  0  0  0  0  0  0  0  0  0  0
   36.1910   32.1190   39.9120 H   0  0  0  0  0  0  0  0  0  0  0  0
   37.1680   34.4130   39.7750 H   0  0  0  0  0  0  0  0  0  0  0  0
   42.0470   31.9350   41.3760 C   0  0  1  0  0  3  0  0  0  0  0  0
   41.4320   32.7700   40.3000 C   0  0  2  0  0  3  0  0  0  0  0  0
   41.8370   34.1610   40.7160 C   0  0  0  0  0  3  0  0  0  0  0  0
   41.0250   34.6270   41.3290 H   0  0  0  0  0  0  0  0  0  0  0  0
   42.9520   34.0790   41.5040 O   0  0  0  0  0  0  0  0  0  0  0  0
   43.2970   32.7670   41.6820 C   0  0  0  0  0  3  0  0  0  0  0  0
   44.0920   32.5040   40.9260 H   0  0  0  0  0  0  0  0  0  0  0  0
   41.3010   31.9170   42.5500 O   0  0  0  0  0  0  0  0  0  0  0  0
   41.3890   32.7260   43.0810 H   0  0  0  0  0  0  0  0  0  0  0  0
   36.2170   28.2070   41.5050 C   0  0  0  0  0  0  0  0  0  0  0  0
   36.4110   27.5330   40.6290 H   0  0  0  0  0  0  0  0  0  0  0  0
   35.1320   28.2490   41.6770 H   0  0  0  0  0  0  0  0  0  0  0  0
   38.8390   26.9730   43.6800 C   0  0  1  0  0  0  0  0  0  0  0  0
   37.9250   28.1650   43.3470 C   0  0  0  0  0  0  0  0  0  0  0  0
   36.7840   27.4550   42.7220 C   0  0  2  0  0  0  0  0  0  0  0  0
   37.1690   26.1830   42.3850 O   0  0  0  0  0  0  0  0  0  0  0  0
   38.5300   26.0760   42.5040 C   0  0  0  0  0  0  0  0  0  0  0  0
   38.5540   26.5330   44.6520 H   0  0  0  0  0  0  0  0  0  0  0  0
   38.4460   28.7620   42.5860 H   0  0  0  0  0  0  0  0  0  0  0  0
   37.6710   28.7480   44.2510 H   0  0  0  0  0  0  0  0  0  0  0  0
   35.9160   27.3680   43.4200 H   0  0  0  0  0  0  0  0  0  0  0  0
   38.8080   25.0510   42.8150 H   0  0  0  0  0  0  0  0  0  0  0  0
   39.1040   26.4310   41.6350 H   0  0  0  0  0  0  0  0  0  0  0  0
   40.1700   27.4030   43.6790 O   0  0  0  0  0  0  0  0  0  0  0  0
   40.4030   27.5440   42.7280 H   0  0  0  0  0  0  0  0  0  0  0  0
  1  2  2  0  0  0  0
  2 20  1  0  0  0  0
  3  1  1  0  0  0  0
  3  8  1  0  0  0  0
  4  3  2  0  0  0  0
  5  4  1  0  0  0  0
  5  6  2  0  0  0  0
  6  7  1  0  0  0  0
  7  8  2  0  0  0  0
  9  4  1  0  0  0  0
 10  5  1  0  0  0  0
 11 16  1  0  0  0  0
 11 18  1  1  0  0  0
 12  7  1  1  0  0  0
 12 13  1  0  0  0  0
 12 11  1  0  0  0  0
 13 14  1  0  0  0  0
 13 15  1  0  0  0  0
 15 16  1  0  0  0  0
 17 16  1  0  0  0  0
 18 19  1  0  0  0  0
 20 22  1  0  0  0  0
 20 25  1  0  0  0  0
 21 20  1  0  0  0  0
 23 28  1  1  0  0  0
 24 23  1  0  0  0  0
 24 30  1  0  0  0  0
 25 24  1  0  0  0  0
 25 31  1  1  0  0  0
 26 27  1  0  0  0  0
 26 25  1  0  0  0  0
 27 32  1  0  0  0  0
 27 23  1  0  0  0  0
 29 24  1  0  0  0  0
 33 27  1  0  0  0  0
 34 23  1  0  0  0  0
 35 34  1  0  0  0  0
M  END
>  <minimizedAffinity>
-5.19386196

$$$$

 OpenBabel03242511353D

 35 37  0  0  1  0  0  0  0  0999 V2000
   36.5180   27.0020   38.9110 C   0  0  0  0  0  3  0  0  0  0  0  0
   37.2120   26.9000   40.0400 C   0  0  0  0  0  3  0  0  0  0  0  0
   36.6900   28.1960   38.0940 C   0  0  0  0  0  0  0  0  0  0  0  0
   36.5530   28.0340   36.6910 C   0  0  0  0  0  0  0  0  0  0  0  0
   36.7120   29.1650   35.8750 C   0  0  0  0  0  0  0  0  0  0  0  0
   36.9880   30.3500   36.4610 N   0  0  0  0  0  0  0  0  0  0  0  0
   37.1110   30.4520   37.8110 C   0  0  0  0  0  0  0  0  0  0  0  0
   36.9620   29.3910   38.5930 N   0  0  0  0  0  0  0  0  0  0  0  0
   36.3280   27.0570   36.2570 H   0  0  0  0  0  0  0  0  0  0  0  0
   36.6100   29.0610   34.7960 H   0  0  0  0  0  0  0  0  0  0  0  0
   38.8780   32.0250   38.5780 C   0  0  1  0  0  3  0  0  0  0  0  0
   37.4150   31.7610   38.4320 C   0  0  2  0  0  3  0  0  0  0  0  0
   36.9370   31.8600   39.8590 C   0  0  0  0  0  3  0  0  0  0  0  0
   36.9170   30.8430   40.3260 H   0  0  0  0  0  0  0  0  0  0  0  0
   37.8230   32.6220   40.5690 O   0  0  0  0  0  0  0  0  0  0  0  0
   38.8600   33.0000   39.7600 C   0  0  0  0  0  3  0  0  0  0  0  0
   38.6420   34.0340   39.3640 H   0  0  0  0  0  0  0  0  0  0  0  0
   39.5950   30.9130   39.0090 O   0  0  0  0  0  0  0  0  0  0  0  0
   39.5000   30.7310   39.9590 H   0  0  0  0  0  0  0  0  0  0  0  0
   37.0990   25.7250   40.9260 C   0  0  0  0  0  0  0  0  0  0  0  0
   37.9540   25.0110   40.7900 H   0  0  0  0  0  0  0  0  0  0  0  0
   36.1600   25.1650   40.8260 H   0  0  0  0  0  0  0  0  0  0  0  0
   37.6690   28.0110   43.6790 C   0  0  1  0  0  0  0  0  0  0  0  0
   36.6590   27.5200   42.6280 C   0  0  0  0  0  0  0  0  0  0  0  0
   37.1580   26.1430   42.4060 C   0  0  2  0  0  0  0  0  0  0  0  0
   38.4320   26.0350   42.9030 O   0  0  0  0  0  0  0  0  0  0  0  0
   38.9060   27.2840   43.2060 C   0  0  0  0  0  0  0  0  0  0  0  0
   37.3450   27.7090   44.6910 H   0  0  0  0  0  0  0  0  0  0  0  0
   36.8260   28.1200   41.7230 H   0  0  0  0  0  0  0  0  0  0  0  0
   35.6210   27.5840   43.0010 H   0  0  0  0  0  0  0  0  0  0  0  0
   36.5290   25.3830   42.9310 H   0  0  0  0  0  0  0  0  0  0  0  0
   39.5880   27.2350   44.0770 H   0  0  0  0  0  0  0  0  0  0  0  0
   39.3330   27.8390   42.3580 H   0  0  0  0  0  0  0  0  0  0  0  0
   37.8020   29.3990   43.5740 O   0  0  0  0  0  0  0  0  0  0  0  0
   38.3190   29.5550   42.7450 H   0  0  0  0  0  0  0  0  0  0  0  0
  1  2  2  0  0  0  0
  2 20  1  0  0  0  0
  3  8  1  0  0  0  0
  3  1  1  0  0  0  0
  4  3  2  0  0  0  0
  5  6  2  0  0  0  0
  5  4  1  0  0  0  0
  6  7  1  0  0  0  0
  7  8  2  0  0  0  0
  9  4  1  0  0  0  0
 10  5  1  0  0  0  0
 11 18  1  1  0  0  0
 11 16  1  0  0  0  0
 12  7  1  1  0  0  0
 12 11  1  0  0  0  0
 12 13  1  0  0  0  0
 13 14  1  0  0  0  0
 13 15  1  0  0  0  0
 16 15  1  0  0  0  0
 17 16  1  0  0  0  0
 18 19  1  0  0  0  0
 20 25  1  0  0  0  0
 21 20  1  0  0  0  0
 22 20  1  0  0  0  0
 23 28  1  1  0  0  0
 24 30  1  0  0  0  0
 24 23  1  0  0  0  0
 25 24  1  0  0  0  0
 25 26  1  0  0  0  0
 25 31  1  1  0  0  0
 26 27  1  0  0  0  0
 27 23  1  0  0  0  0
 27 32  1  0  0  0  0
 29 24  1  0  0  0  0
 33 27  1  0  0  0  0
 34 23  1  0  0  0  0
 35 34  1  0  0  0  0
M  END
>  <minimizedAffinity>
-5.14118528

$$$$

 OpenBabel03242511353D

 35 37  0  0  1  0  0  0  0  0999 V2000
   39.5200   32.8850   40.4960 C   0  0  0  0  0  3  0  0  0  0  0  0
   40.1340   32.7370   39.3270 C   0  0  0  0  0  3  0  0  0  0  0  0
   38.5980   31.8460   40.9340 C   0  0  0  0  0  0  0  0  0  0  0  0
   37.2850   31.8920   40.4000 C   0  0  0  0  0  0  0  0  0  0  0  0
   36.3720   30.9060   40.8010 C   0  0  0  0  0  0  0  0  0  0  0  0
   36.7830   29.9610   41.6740 N   0  0  0  0  0  0  0  0  0  0  0  0
   38.0540   29.9600   42.1570 C   0  0  0  0  0  0  0  0  0  0  0  0
   38.9270   30.8880   41.7860 N   0  0  0  0  0  0  0  0  0  0  0  0
   36.9920   32.6740   39.6950 H   0  0  0  0  0  0  0  0  0  0  0  0
   35.3580   30.9240   40.4020 H   0  0  0  0  0  0  0  0  0  0  0  0
   39.8680   28.4120   42.8610 C   0  0  1  0  0  3  0  0  0  0  0  0
   38.4840   28.9160   43.1140 C   0  0  2  0  0  3  0  0  0  0  0  0
   37.6690   27.6520   43.0120 C   0  0  0  0  0  3  0  0  0  0  0  0
   37.2710   27.5370   41.9730 H   0  0  0  0  0  0  0  0  0  0  0  0
   38.4830   26.5810   43.2630 O   0  0  0  0  0  0  0  0  0  0  0  0
   39.7630   27.0130   43.4780 C   0  0  0  0  0  3  0  0  0  0  0  0
   39.9240   27.1040   44.5920 H   0  0  0  0  0  0  0  0  0  0  0  0
   40.1420   28.2160   41.5110 O   0  0  0  0  0  0  0  0  0  0  0  0
   39.7450   27.4080   41.1450 H   0  0  0  0  0  0  0  0  0  0  0  0
   41.0840   33.7410   38.8070 C   0  0  0  0  0  0  0  0  0  0  0  0
   41.0390   34.7020   39.3860 H   0  0  0  0  0  0  0  0  0  0  0  0
   40.9650   33.9750   37.7400 H   0  0  0  0  0  0  0  0  0  0  0  0
   44.4730   33.1320   37.6820 C   0  0  1  0  0  0  0  0  0  0  0  0
   43.5070   34.1610   38.2920 C   0  0  0  0  0  0  0  0  0  0  0  0
   42.5360   33.2540   38.9490 C   0  0  2  0  0  0  0  0  0  0  0  0
   42.6860   31.9870   38.4470 O   0  0  0  0  0  0  0  0  0  0  0  0
   43.4960   32.0310   37.3420 C   0  0  0  0  0  0  0  0  0  0  0  0
   45.2300   32.8300   38.4280 H   0  0  0  0  0  0  0  0  0  0  0  0
   43.0180   34.6740   37.4520 H   0  0  0  0  0  0  0  0  0  0  0  0
   44.0290   34.8560   38.9750 H   0  0  0  0  0  0  0  0  0  0  0  0
   42.7000   33.1980   40.0530 H   0  0  0  0  0  0  0  0  0  0  0  0
   44.0920   31.1010   37.2660 H   0  0  0  0  0  0  0  0  0  0  0  0
   42.9890   32.2940   36.4020 H   0  0  0  0  0  0  0  0  0  0  0  0
   45.0660   33.6810   36.5400 O   0  0  0  0  0  0  0  0  0  0  0  0
   44.3570   33.6880   35.8500 H   0  0  0  0  0  0  0  0  0  0  0  0
  1  3  1  0  0  0  0
  2  1  2  0  0  0  0
  3  8  1  0  0  0  0
  4  5  1  0  0  0  0
  4  3  2  0  0  0  0
  5  6  2  0  0  0  0
  6  7  1  0  0  0  0
  8  7  2  0  0  0  0
  9  4  1  0  0  0  0
 10  5  1  0  0  0  0
 11 18  1  6  0  0  0
 11 12  1  0  0  0  0
 11 16  1  0  0  0  0
 12  7  1  6  0  0  0
 13 12  1  0  0  0  0
 13 15  1  0  0  0  0
 14 13  1  0  0  0  0
 15 16  1  0  0  0  0
 16 17  1  0  0  0  0
 19 18  1  0  0  0  0
 20 25  1  0  0  0  0
 20  2  1  0  0  0  0
 20 21  1  0  0  0  0
 22 20  1  0  0  0  0
 23 24  1  0  0  0  0
 23 28  1  1  0  0  0
 24 25  1  0  0  0  0
 24 30  1  0  0  0  0
 25 31  1  1  0  0  0
 26 25  1  0  0  0  0
 27 23  1  0  0  0  0
 27 26  1  0  0  0  0
 29 24  1  0  0  0  0
 32 27  1  0  0  0  0
 33 27  1  0  0  0  0
 34 23  1  0  0  0  0
 35 34  1  0  0  0  0
M  END
>  <minimizedAffinity>
-5.14065409

$$$$
