
 OpenBabel03252509043D

 48 50  0  0  1  0  0  0  0  0999 V2000
   47.1270   34.1680   43.0620 N   0  0  0  0  0  0  0  0  0  0  0  0
   46.6320   35.3680   42.5050 C   0  0  0  0  0  0  0  0  0  0  0  0
   45.1380   35.5760   42.7070 C   0  0  0  0  0  0  0  0  0  0  0  0
   44.6250   35.0530   44.0270 C   0  0  0  0  0  0  0  0  0  0  0  0
   45.7480   34.5060   44.8880 C   0  0  0  0  0  0  0  0  0  0  0  0
   46.4110   33.4110   43.9550 C   0  0  2  0  0  0  0  0  0  0  0  0
   46.8160   35.5170   41.4380 H   0  0  0  0  0  0  0  0  0  0  0  0
   47.1360   36.2150   43.0190 H   0  0  0  0  0  0  0  0  0  0  0  0
   44.9360   36.6580   42.5630 H   0  0  0  0  0  0  0  0  0  0  0  0
   44.6290   35.0470   41.8660 H   0  0  0  0  0  0  0  0  0  0  0  0
   43.8910   34.2470   43.8720 H   0  0  0  0  0  0  0  0  0  0  0  0
   44.1200   35.8450   44.6130 H   0  0  0  0  0  0  0  0  0  0  0  0
   46.5060   35.2460   45.1410 H   0  0  0  0  0  0  0  0  0  0  0  0
   45.2810   33.9770   45.7330 H   0  0  0  0  0  0  0  0  0  0  0  0
   45.5850   32.7870   43.5610 H   0  0  0  0  0  0  0  0  0  0  0  0
   48.1400   33.5210   42.2670 C   0  0  0  0  0  0  0  0  0  0  0  0
   48.6920   32.8270   42.9660 H   0  0  0  0  0  0  0  0  0  0  0  0
   48.8420   34.2430   41.8350 H   0  0  0  0  0  0  0  0  0  0  0  0
   47.4610   32.6640   41.2620 C   0  0  0  0  0  0  0  0  0  0  0  0
   47.5050   31.5730   41.4680 H   0  0  0  0  0  0  0  0  0  0  0  0
   46.3610   32.8870   41.1940 H   0  0  0  0  0  0  0  0  0  0  0  0
   49.3320   32.2750   38.0320 C   0  0  0  0  0  0  0  0  0  0  0  0
   48.8080   32.0240   39.3160 C   0  0  0  0  0  0  0  0  0  0  0  0
   47.9970   32.9540   39.9120 C   0  0  0  0  0  0  0  0  0  0  0  0
   47.7440   34.0650   39.2280 N   0  0  0  0  0  0  0  0  0  0  0  0
   48.2310   34.3180   38.0110 C   0  0  0  0  0  0  0  0  0  0  0  0
   49.0350   33.4240   37.3920 N   0  0  0  0  0  0  0  0  0  0  0  0
   49.9650   31.4750   37.6440 H   0  0  0  0  0  0  0  0  0  0  0  0
   49.0350   31.1070   39.8450 H   0  0  0  0  0  0  0  0  0  0  0  0
   48.0190   35.2310   37.4570 H   0  0  0  0  0  0  0  0  0  0  0  0
   47.2010   32.7410   44.8730 O   0  0  0  0  0  0  0  0  0  0  0  0
   46.0670   30.5420   43.8810 O   0  0  0  0  0  0  0  0  0  0  0  0
   46.6770   31.1620   45.1360 P   0  0  2  0  0  0  0  0  0  0  0  0
   45.3780   31.2920   46.2510 O   0  0  0  0  0  0  0  0  0  0  0  0
   45.7020   31.1100   47.1680 H   0  0  0  0  0  0  0  0  0  0  0  0
   47.8480   30.1890   45.8250 O   0  0  0  0  0  0  0  0  0  0  0  0
   47.8120   28.9540   45.2100 C   0  0  0  0  0  0  0  0  0  0  0  0
   48.1610   29.0820   44.1470 H   0  0  0  0  0  0  0  0  0  0  0  0
   46.8520   28.4440   45.2050 H   0  0  0  0  0  0  0  0  0  0  0  0
   49.4990   27.9380   48.1280 C   0  0  2  0  0  3  0  0  0  0  0  0
   49.6110   28.8570   46.9460 C   0  0  0  0  0  3  0  0  0  0  0  0
   49.2190   29.8790   47.1180 H   0  0  0  0  0  0  0  0  0  0  0  0
   48.9090   28.0960   45.8560 C   0  0  1  0  0  3  0  0  0  0  0  0
   48.3960   26.9480   46.3940 O   0  0  0  0  0  0  0  0  0  0  0  0
   48.2770   27.1230   47.7630 C   0  0  0  0  0  3  0  0  0  0  0  0
   48.2750   26.1300   48.2760 H   0  0  0  0  0  0  0  0  0  0  0  0
   49.2760   28.7070   49.2690 O   0  0  0  0  0  0  0  0  0  0  0  0
   48.7380   29.5110   48.9890 H   0  0  0  0  0  0  0  0  0  0  0  0
  1  6  1  0  0  0  0
  2  3  1  0  0  0  0
  2  8  1  0  0  0  0
  2  1  1  0  0  0  0
  3  4  1  0  0  0  0
  4 12  1  0  0  0  0
  4  5  1  0  0  0  0
  5 13  1  0  0  0  0
  5 14  1  0  0  0  0
  6 15  1  6  0  0  0
  6 31  1  0  0  0  0
  6  5  1  0  0  0  0
  7  2  1  0  0  0  0
  9  3  1  0  0  0  0
 10  3  1  0  0  0  0
 11  4  1  0  0  0  0
 16 17  1  0  0  0  0
 16  1  1  0  0  0  0
 18 16  1  0  0  0  0
 19 20  1  0  0  0  0
 19 16  1  0  0  0  0
 21 19  1  0  0  0  0
 22 23  1  0  0  0  0
 23 29  1  0  0  0  0
 23 24  2  0  0  0  0
 24 19  1  0  0  0  0
 25 24  1  0  0  0  0
 26 25  2  0  0  0  0
 27 26  1  0  0  0  0
 27 22  2  0  0  0  0
 28 22  1  0  0  0  0
 30 26  1  0  0  0  0
 31 33  1  0  0  0  0
 33 32  2  6  0  0  0
 33 36  1  0  0  0  0
 33 34  1  0  0  0  0
 34 35  1  0  0  0  0
 37 36  1  0  0  0  0
 38 37  1  0  0  0  0
 39 37  1  0  0  0  0
 40 47  1  1  0  0  0
 41 42  1  0  0  0  0
 41 40  1  0  0  0  0
 43 37  1  1  0  0  0
 43 44  1  0  0  0  0
 43 41  1  0  0  0  0
 44 45  1  0  0  0  0
 45 40  1  0  0  0  0
 45 46  1  0  0  0  0
 48 47  1  0  0  0  0
M  END
>  <minimizedAffinity>
-4.01386786

>  <minimizedRMSD>
0.0808944032

$$$$
