
 OpenBabel03252505303D

 27 28  0  0  1  0  0  0  0  0999 V2000
   46.7990   31.5920   48.6080 O   0  0  0  0  0  0  0  0  0  0  0  0
   45.8470   31.9580   47.4570 P   0  0  1  0  0  0  0  0  0  0  0  0
   44.4690   32.7280   48.0180 O   0  0  0  0  0  0  0  0  0  0  0  0
   44.6780   33.6260   48.4210 H   0  0  0  0  0  0  0  0  0  0  0  0
   46.7180   32.9540   46.3900 O   0  0  0  0  0  0  0  0  0  0  0  0
   44.5620   35.3920   44.9920 C   0  0  0  0  0  0  0  0  0  0  0  0
   44.9980   35.5520   43.6530 C   0  0  0  0  0  0  0  0  0  0  0  0
   46.1000   34.7460   43.2750 C   0  0  0  0  0  0  0  0  0  0  0  0
   46.6330   33.9080   44.2030 N   0  0  0  0  0  0  0  0  0  0  0  0
   46.1720   33.8090   45.4500 C   0  0  0  0  0  0  0  0  0  0  0  0
   45.1290   34.5540   45.8510 N   0  0  0  0  0  0  0  0  0  0  0  0
   43.7100   36.0200   45.2740 H   0  0  0  0  0  0  0  0  0  0  0  0
   44.5210   36.2420   42.9690 H   0  0  0  0  0  0  0  0  0  0  0  0
   46.4810   34.8210   42.2650 H   0  0  0  0  0  0  0  0  0  0  0  0
   45.4070   30.5150   46.7290 O   0  0  0  0  0  0  0  0  0  0  0  0
   45.0810   29.6080   47.7120 C   0  0  0  0  0  0  0  0  0  0  0  0
   44.1840   29.9850   48.2410 H   0  0  0  0  0  0  0  0  0  0  0  0
   45.9020   29.5880   48.4550 H   0  0  0  0  0  0  0  0  0  0  0  0
   45.5710   26.0950   48.0500 C   0  0  1  0  0  3  0  0  0  0  0  0
   44.6680   27.2710   48.3280 C   0  0  0  0  0  3  0  0  0  0  0  0
   43.6110   26.9870   48.5150 H   0  0  0  0  0  0  0  0  0  0  0  0
   44.8750   28.2080   47.1830 C   0  0  2  0  0  3  0  0  0  0  0  0
   46.0310   27.8110   46.5210 O   0  0  0  0  0  0  0  0  0  0  0  0
   46.2180   26.4770   46.7600 C   0  0  0  0  0  3  0  0  0  0  0  0
   45.7430   25.8960   45.9190 H   0  0  0  0  0  0  0  0  0  0  0  0
   46.5460   25.9140   49.0460 O   0  0  0  0  0  0  0  0  0  0  0  0
   46.1290   26.0240   49.9580 H   0  0  0  0  0  0  0  0  0  0  0  0
  2  3  1  0  0  0  0
  2  1  2  1  0  0  0
  3  4  1  0  0  0  0
  5  2  1  0  0  0  0
  6 12  1  0  0  0  0
  6 11  1  0  0  0  0
  7  6  2  0  0  0  0
  8  7  1  0  0  0  0
  8  9  2  0  0  0  0
  9 10  1  0  0  0  0
 10 11  2  0  0  0  0
 10  5  1  0  0  0  0
 13  7  1  0  0  0  0
 14  8  1  0  0  0  0
 15  2  1  0  0  0  0
 15 16  1  0  0  0  0
 16 17  1  0  0  0  0
 16 18  1  0  0  0  0
 19 20  1  0  0  0  0
 19 26  1  1  0  0  0
 20 21  1  0  0  0  0
 22 16  1  1  0  0  0
 22 20  1  0  0  0  0
 23 24  1  0  0  0  0
 23 22  1  0  0  0  0
 24 19  1  0  0  0  0
 25 24  1  0  0  0  0
 26 27  1  0  0  0  0
M  END
>  <minimizedAffinity>
-4.65515518

>  <minimizedRMSD>
1.1253041

$$$$
