
 OpenBabel03252505303D

 27 28  0  0  1  0  0  0  0  0999 V2000
   47.3680   31.2730   47.3120 O   0  0  0  0  0  0  0  0  0  0  0  0
   46.2450   31.8410   46.4300 P   0  0  1  0  0  0  0  0  0  0  0  0
   45.0130   32.5050   47.3510 O   0  0  0  0  0  0  0  0  0  0  0  0
   45.3200   33.3170   47.8590 H   0  0  0  0  0  0  0  0  0  0  0  0
   46.9520   33.0060   45.4130 O   0  0  0  0  0  0  0  0  0  0  0  0
   44.5600   35.5320   44.7520 C   0  0  0  0  0  0  0  0  0  0  0  0
   44.8550   35.9930   43.4450 C   0  0  0  0  0  0  0  0  0  0  0  0
   45.9520   35.3560   42.8120 C   0  0  0  0  0  0  0  0  0  0  0  0
   46.6100   34.3820   43.4940 N   0  0  0  0  0  0  0  0  0  0  0  0
   46.2780   33.9980   44.7260 C   0  0  0  0  0  0  0  0  0  0  0  0
   45.2460   34.5740   45.3620 N   0  0  0  0  0  0  0  0  0  0  0  0
   43.7110   36.0310   45.2310 H   0  0  0  0  0  0  0  0  0  0  0  0
   44.2830   36.7770   42.9650 H   0  0  0  0  0  0  0  0  0  0  0  0
   46.2290   35.6630   41.8120 H   0  0  0  0  0  0  0  0  0  0  0  0
   45.6340   30.5500   45.5520 O   0  0  0  0  0  0  0  0  0  0  0  0
   46.0000   29.3800   46.1790 C   0  0  0  0  0  0  0  0  0  0  0  0
   46.2000   29.6100   47.2440 H   0  0  0  0  0  0  0  0  0  0  0  0
   46.9600   29.0370   45.7430 H   0  0  0  0  0  0  0  0  0  0  0  0
   43.5580   27.7110   44.1920 C   0  0  1  0  0  3  0  0  0  0  0  0
   45.0040   27.7710   44.6210 C   0  0  0  0  0  3  0  0  0  0  0  0
   45.5500   26.8160   44.4780 H   0  0  0  0  0  0  0  0  0  0  0  0
   44.9790   28.2780   46.0240 C   0  0  2  0  0  3  0  0  0  0  0  0
   43.7160   28.8110   46.2550 O   0  0  0  0  0  0  0  0  0  0  0  0
   42.8360   28.1990   45.4040 C   0  0  0  0  0  3  0  0  0  0  0  0
   42.3760   27.3220   45.9400 H   0  0  0  0  0  0  0  0  0  0  0  0
   43.2840   28.5470   43.0960 O   0  0  0  0  0  0  0  0  0  0  0  0
   44.0170   28.4630   42.4070 H   0  0  0  0  0  0  0  0  0  0  0  0
  2  1  2  1  0  0  0
  2  3  1  0  0  0  0
  3  4  1  0  0  0  0
  5  2  1  0  0  0  0
  6 12  1  0  0  0  0
  6 11  1  0  0  0  0
  7  6  2  0  0  0  0
  8  7  1  0  0  0  0
  8  9  2  0  0  0  0
  9 10  1  0  0  0  0
 10 11  2  0  0  0  0
 10  5  1  0  0  0  0
 13  7  1  0  0  0  0
 14  8  1  0  0  0  0
 15 16  1  0  0  0  0
 15  2  1  0  0  0  0
 16 17  1  0  0  0  0
 18 16  1  0  0  0  0
 19 26  1  6  0  0  0
 19 20  1  0  0  0  0
 19 24  1  0  0  0  0
 20 22  1  0  0  0  0
 21 20  1  0  0  0  0
 22 16  1  6  0  0  0
 22 23  1  0  0  0  0
 24 25  1  0  0  0  0
 24 23  1  0  0  0  0
 27 26  1  0  0  0  0
M  END
>  <minimizedAffinity>
-3.78300452

>  <minimizedRMSD>
2.11350799

$$$$
