
 OpenBabel03252509043D

 48 50  0  0  1  0  0  0  0  0999 V2000
   46.7110   34.3470   43.4910 N   0  0  0  0  0  0  0  0  0  0  0  0
   46.4700   34.9500   42.2360 C   0  0  0  0  0  0  0  0  0  0  0  0
   45.0010   35.0000   41.8440 C   0  0  0  0  0  0  0  0  0  0  0  0
   44.0680   35.2160   43.0110 C   0  0  0  0  0  0  0  0  0  0  0  0
   44.8290   35.4130   44.3090 C   0  0  0  0  0  0  0  0  0  0  0  0
   45.7160   34.1050   44.4040 C   0  0  2  0  0  0  0  0  0  0  0  0
   46.9950   34.5140   41.3820 H   0  0  0  0  0  0  0  0  0  0  0  0
   46.8130   36.0050   42.2950 H   0  0  0  0  0  0  0  0  0  0  0  0
   44.8970   35.7780   41.0600 H   0  0  0  0  0  0  0  0  0  0  0  0
   44.7720   34.0250   41.3510 H   0  0  0  0  0  0  0  0  0  0  0  0
   43.3920   34.3550   43.1400 H   0  0  0  0  0  0  0  0  0  0  0  0
   43.4310   36.1100   42.8670 H   0  0  0  0  0  0  0  0  0  0  0  0
   45.4910   36.2770   44.3000 H   0  0  0  0  0  0  0  0  0  0  0  0
   44.0930   35.3710   45.1270 H   0  0  0  0  0  0  0  0  0  0  0  0
   45.0390   33.2480   44.2190 H   0  0  0  0  0  0  0  0  0  0  0  0
   47.9020   33.5360   43.5380 C   0  0  0  0  0  0  0  0  0  0  0  0
   47.9990   33.1830   44.6060 H   0  0  0  0  0  0  0  0  0  0  0  0
   48.7940   34.1050   43.2550 H   0  0  0  0  0  0  0  0  0  0  0  0
   47.6700   32.3260   42.7080 C   0  0  0  0  0  0  0  0  0  0  0  0
   47.4390   31.4010   43.2790 H   0  0  0  0  0  0  0  0  0  0  0  0
   46.7890   32.4510   42.0200 H   0  0  0  0  0  0  0  0  0  0  0  0
   51.2030   32.1900   41.4510 C   0  0  0  0  0  0  0  0  0  0  0  0
   50.0830   32.3940   42.2820 C   0  0  0  0  0  0  0  0  0  0  0  0
   48.8290   32.1020   41.8130 C   0  0  0  0  0  0  0  0  0  0  0  0
   48.7390   31.6310   40.5740 N   0  0  0  0  0  0  0  0  0  0  0  0
   49.7890   31.4320   39.7740 C   0  0  0  0  0  0  0  0  0  0  0  0
   51.0420   31.7090   40.2020 N   0  0  0  0  0  0  0  0  0  0  0  0
   52.1560   32.4530   41.9140 H   0  0  0  0  0  0  0  0  0  0  0  0
   50.1930   32.7790   43.2870 H   0  0  0  0  0  0  0  0  0  0  0  0
   49.7060   31.0460   38.7590 H   0  0  0  0  0  0  0  0  0  0  0  0
   46.1390   34.1810   45.7200 O   0  0  0  0  0  0  0  0  0  0  0  0
   45.5790   31.5780   45.5840 O   0  0  0  0  0  0  0  0  0  0  0  0
   46.0070   32.7060   46.5210 P   0  0  2  0  0  0  0  0  0  0  0  0
   44.7010   32.8980   47.6180 O   0  0  0  0  0  0  0  0  0  0  0  0
   45.0480   33.1140   48.5200 H   0  0  0  0  0  0  0  0  0  0  0  0
   47.3690   32.3170   47.4080 O   0  0  0  0  0  0  0  0  0  0  0  0
   47.6850   30.9940   47.1730 C   0  0  0  0  0  0  0  0  0  0  0  0
   48.6040   30.9630   46.5250 H   0  0  0  0  0  0  0  0  0  0  0  0
   46.9110   30.3870   46.7120 H   0  0  0  0  0  0  0  0  0  0  0  0
   50.3520   30.1810   49.3230 C   0  0  2  0  0  3  0  0  0  0  0  0
   49.4060   29.5860   48.3210 C   0  0  0  0  0  3  0  0  0  0  0  0
   49.7890   29.5670   47.2810 H   0  0  0  0  0  0  0  0  0  0  0  0
   48.1560   30.3990   48.5080 C   0  0  1  0  0  3  0  0  0  0  0  0
   48.4110   31.3770   49.4310 O   0  0  0  0  0  0  0  0  0  0  0  0
   49.7820   31.5740   49.4890 C   0  0  0  0  0  3  0  0  0  0  0  0
   50.0610   32.0210   50.4740 H   0  0  0  0  0  0  0  0  0  0  0  0
   51.6280   30.2170   48.7650 O   0  0  0  0  0  0  0  0  0  0  0  0
   51.5180   30.3640   47.7750 H   0  0  0  0  0  0  0  0  0  0  0  0
  1 16  1  0  0  0  0
  1  6  1  0  0  0  0
  2  8  1  0  0  0  0
  2  1  1  0  0  0  0
  3  2  1  0  0  0  0
  3  4  1  0  0  0  0
  4 11  1  0  0  0  0
  4  5  1  0  0  0  0
  5  6  1  0  0  0  0
  5 14  1  0  0  0  0
  6 15  1  6  0  0  0
  6 31  1  0  0  0  0
  7  2  1  0  0  0  0
  9  3  1  0  0  0  0
 10  3  1  0  0  0  0
 12  4  1  0  0  0  0
 13  5  1  0  0  0  0
 16 17  1  0  0  0  0
 18 16  1  0  0  0  0
 19 20  1  0  0  0  0
 19 16  1  0  0  0  0
 21 19  1  0  0  0  0
 22 28  1  0  0  0  0
 22 23  1  0  0  0  0
 23 29  1  0  0  0  0
 24 23  2  0  0  0  0
 24 19  1  0  0  0  0
 25 24  1  0  0  0  0
 26 27  1  0  0  0  0
 26 25  2  0  0  0  0
 27 22  2  0  0  0  0
 30 26  1  0  0  0  0
 31 33  1  0  0  0  0
 33 32  2  6  0  0  0
 33 36  1  0  0  0  0
 33 34  1  0  0  0  0
 34 35  1  0  0  0  0
 37 36  1  0  0  0  0
 38 37  1  0  0  0  0
 39 37  1  0  0  0  0
 40 47  1  6  0  0  0
 40 45  1  0  0  0  0
 41 43  1  0  0  0  0
 41 40  1  0  0  0  0
 42 41  1  0  0  0  0
 43 37  1  6  0  0  0
 43 44  1  0  0  0  0
 44 45  1  0  0  0  0
 45 46  1  0  0  0  0
 48 47  1  0  0  0  0
M  END
>  <minimizedAffinity>
-4.93625879

>  <minimizedRMSD>
3.273947

$$$$
