REMARK  Name = 
REMARK  4 active torsions:
REMARK  status: ('A' for Active; 'I' for Inactive)
REMARK    1  A    between atoms: C_1  and  C_7
REMARK    2  A    between atoms: C_8  and  C_9
REMARK    3  A    between atoms: C_9  and  C_21
REMARK    4  A    between atoms: O_17  and  C_18
REMARK                            x       y       z     vdW  Elec       q    Type
REMARK                         _______ _______ _______ _____ _____    ______ ____
ROOT
ATOM      1  C   UNL     1      45.426  39.212  43.976  0.00  0.00    +0.000 C 
ATOM      2  H   UNL     1      45.094  39.346  45.022  0.00  0.00    +0.000 HD
ATOM      3  H   UNL     1      44.849  39.876  43.272  0.00  0.00    +0.000 HD
ENDROOT
BRANCH   1   7
ATOM      4  C   UNL     1      49.023  38.817  44.075  0.00  0.00    +0.000 C 
ATOM      5  C   UNL     1      47.763  38.655  43.214  0.00  0.00    +0.000 C 
ATOM      6  H   UNL     1      47.969  38.792  42.146  0.00  0.00    +0.000 HD
ATOM      7  C   UNL     1      46.877  39.679  43.836  0.00  0.00    +0.000 C 
ATOM      8  O   UNL     1      47.406  40.076  45.035  0.00  0.00    +0.000 OA
ATOM      9  C   UNL     1      48.410  39.212  45.396  0.00  0.00    +0.000 C 
ATOM     10  H   UNL     1      49.146  39.716  46.058  0.00  0.00    +0.000 HD
BRANCH   4  11
ATOM     11  O   UNL     1      49.701  37.601  44.147  0.00  0.00    +0.000 OA
ATOM     12  H   UNL     1      50.314  37.592  44.919  0.00  0.00    +0.000 HD
ENDBRANCH   4  11
ENDBRANCH   1   7
BRANCH   1  14
ATOM     13  C   UNL     1      44.832  36.845  44.212  0.00  0.00    +0.000 C 
ATOM     14  C   UNL     1      45.255  37.841  43.454  0.00  0.00    +0.000 C 
BRANCH  13  15
ATOM     15  C   UNL     1      44.690  35.520  43.622  0.00  0.00    +0.000 A 
ATOM     16  C   UNL     1      43.943  35.428  42.431  0.00  0.00    +0.000 A 
ATOM     17  C   UNL     1      43.781  34.170  41.828  0.00  0.00    +0.000 A 
ATOM     18  N   UNL     1      44.362  33.099  42.436  0.00  0.00    +0.000 NA
ATOM     19  C   UNL     1      45.070  33.229  43.578  0.00  0.00    +0.000 A 
ATOM     20  N   UNL     1      45.223  34.423  44.149  0.00  0.00    +0.000 NA
ATOM     21  H   UNL     1      43.500  36.321  41.988  0.00  0.00    +0.000 HD
ATOM     22  H   UNL     1      43.212  34.072  40.913  0.00  0.00    +0.000 HD
ATOM     23  H   UNL     1      45.530  32.389  44.062  0.00  0.00    +0.000 HD
ENDBRANCH  13  15
ENDBRANCH   1  14
TORSDOF 4
