
 OpenBabel03252505313D

 27 28  0  0  1  0  0  0  0  0999 V2000
   34.7530   29.0070   39.7140 O   0  0  0  0  0  0  0  0  0  0  0  0
   35.8860   29.4330   40.6620 P   0  0  1  0  0  0  0  0  0  0  0  0
   35.5750   30.9210   41.3660 O   0  0  0  0  0  0  0  0  0  0  0  0
   34.7790   30.8860   41.9810 H   0  0  0  0  0  0  0  0  0  0  0  0
   36.0350   28.2140   41.8380 O   0  0  0  0  0  0  0  0  0  0  0  0
   39.2600   27.9930   43.2840 C   0  0  0  0  0  0  0  0  0  0  0  0
   39.6220   26.6270   43.1820 C   0  0  0  0  0  0  0  0  0  0  0  0
   38.6560   25.7890   42.5710 C   0  0  0  0  0  0  0  0  0  0  0  0
   37.4950   26.3510   42.1450 N   0  0  0  0  0  0  0  0  0  0  0  0
   37.2190   27.6480   42.2740 C   0  0  0  0  0  0  0  0  0  0  0  0
   38.1050   28.4780   42.8470 N   0  0  0  0  0  0  0  0  0  0  0  0
   40.0130   28.6310   43.7570 H   0  0  0  0  0  0  0  0  0  0  0  0
   40.5700   26.2510   43.5460 H   0  0  0  0  0  0  0  0  0  0  0  0
   38.8720   24.7340   42.4630 H   0  0  0  0  0  0  0  0  0  0  0  0
   37.2690   29.5530   39.7240 O   0  0  0  0  0  0  0  0  0  0  0  0
   37.7450   30.8430   39.8050 C   0  0  0  0  0  0  0  0  0  0  0  0
   37.4580   31.2520   40.7930 H   0  0  0  0  0  0  0  0  0  0  0  0
   37.2220   31.4550   39.0440 H   0  0  0  0  0  0  0  0  0  0  0  0
   40.4650   32.0180   37.8270 C   0  0  1  0  0  3  0  0  0  0  0  0
   39.5550   32.2860   38.9990 C   0  0  0  0  0  3  0  0  0  0  0  0
   39.9710   33.0130   39.7280 H   0  0  0  0  0  0  0  0  0  0  0  0
   39.2330   30.9430   39.5660 C   0  0  2  0  0  3  0  0  0  0  0  0
   39.5930   29.9920   38.6180 O   0  0  0  0  0  0  0  0  0  0  0  0
   40.5750   30.5290   37.8310 C   0  0  0  0  0  3  0  0  0  0  0  0
   41.5730   30.2310   38.2590 H   0  0  0  0  0  0  0  0  0  0  0  0
   39.9210   32.4600   36.6080 O   0  0  0  0  0  0  0  0  0  0  0  0
   39.5100   33.3730   36.7270 H   0  0  0  0  0  0  0  0  0  0  0  0
  2  1  2  6  0  0  0
  2  3  1  0  0  0  0
  2  5  1  0  0  0  0
  3  4  1  0  0  0  0
  5 10  1  0  0  0  0
  6 12  1  0  0  0  0
  7  6  1  0  0  0  0
  7 13  1  0  0  0  0
  8  7  2  0  0  0  0
  9 10  2  0  0  0  0
  9  8  1  0  0  0  0
 10 11  1  0  0  0  0
 11  6  2  0  0  0  0
 14  8  1  0  0  0  0
 15 16  1  0  0  0  0
 15  2  1  0  0  0  0
 16 17  1  0  0  0  0
 18 16  1  0  0  0  0
 19 26  1  6  0  0  0
 19 24  1  0  0  0  0
 19 20  1  0  0  0  0
 20 22  1  0  0  0  0
 20 21  1  0  0  0  0
 22 16  1  6  0  0  0
 23 22  1  0  0  0  0
 24 25  1  0  0  0  0
 24 23  1  0  0  0  0
 26 27  1  0  0  0  0
M  END
>  <minimizedAffinity>
-4.92450142

$$$$

 OpenBabel03252505313D

 27 28  0  0  1  0  0  0  0  0999 V2000
   37.8400   31.1440   38.9340 O   0  0  0  0  0  0  0  0  0  0  0  0
   37.6910   31.5880   40.3980 P   0  0  1  0  0  0  0  0  0  0  0  0
   37.1790   33.1800   40.5100 O   0  0  0  0  0  0  0  0  0  0  0  0
   36.2470   33.3000   40.1520 H   0  0  0  0  0  0  0  0  0  0  0  0
   36.5790   30.5300   41.1290 O   0  0  0  0  0  0  0  0  0  0  0  0
   37.6350   28.0250   43.3990 C   0  0  0  0  0  0  0  0  0  0  0  0
   37.4680   26.7990   42.7060 C   0  0  0  0  0  0  0  0  0  0  0  0
   36.9600   26.9140   41.3880 C   0  0  0  0  0  0  0  0  0  0  0  0
   36.6830   28.1550   40.9110 N   0  0  0  0  0  0  0  0  0  0  0  0
   36.8640   29.2700   41.6200 C   0  0  0  0  0  0  0  0  0  0  0  0
   37.3430   29.2070   42.8730 N   0  0  0  0  0  0  0  0  0  0  0  0
   38.0280   27.9250   44.4160 H   0  0  0  0  0  0  0  0  0  0  0  0
   37.7120   25.8450   43.1540 H   0  0  0  0  0  0  0  0  0  0  0  0
   36.8100   26.0140   40.8060 H   0  0  0  0  0  0  0  0  0  0  0  0
   39.2110   31.4550   41.0900 O   0  0  0  0  0  0  0  0  0  0  0  0
   39.8810   32.6450   40.9120 C   0  0  0  0  0  0  0  0  0  0  0  0
   40.2380   32.9890   41.9020 H   0  0  0  0  0  0  0  0  0  0  0  0
   39.1560   33.4040   40.5550 H   0  0  0  0  0  0  0  0  0  0  0  0
   40.9790   32.5210   37.5240 C   0  0  1  0  0  3  0  0  0  0  0  0
   40.6910   33.3920   38.7210 C   0  0  0  0  0  3  0  0  0  0  0  0
   41.2100   34.3730   38.6930 H   0  0  0  0  0  0  0  0  0  0  0  0
   41.0090   32.5480   39.9110 C   0  0  2  0  0  3  0  0  0  0  0  0
   41.1000   31.2300   39.4760 O   0  0  0  0  0  0  0  0  0  0  0  0
   41.4360   31.2440   38.1500 C   0  0  0  0  0  3  0  0  0  0  0  0
   42.5560   31.1700   38.0670 H   0  0  0  0  0  0  0  0  0  0  0  0
   39.8380   32.2930   36.7350 O   0  0  0  0  0  0  0  0  0  0  0  0
   39.3240   33.1520   36.6190 H   0  0  0  0  0  0  0  0  0  0  0  0
  2  1  2  6  0  0  0
  2  3  1  0  0  0  0
  2 15  1  0  0  0  0
  2  5  1  0  0  0  0
  4  3  1  0  0  0  0
  5 10  1  0  0  0  0
  6 12  1  0  0  0  0
  7 13  1  0  0  0  0
  7  6  2  0  0  0  0
  8  7  1  0  0  0  0
  9  8  2  0  0  0  0
  9 10  1  0  0  0  0
 10 11  2  0  0  0  0
 11  6  1  0  0  0  0
 14  8  1  0  0  0  0
 16 15  1  0  0  0  0
 16 17  1  0  0  0  0
 18 16  1  0  0  0  0
 19 26  1  1  0  0  0
 19 24  1  0  0  0  0
 19 20  1  0  0  0  0
 20 22  1  0  0  0  0
 21 20  1  0  0  0  0
 22 16  1  1  0  0  0
 23 22  1  0  0  0  0
 24 23  1  0  0  0  0
 25 24  1  0  0  0  0
 27 26  1  0  0  0  0
M  END
>  <minimizedAffinity>
-4.83204699

$$$$

 OpenBabel03252505313D

 27 28  0  0  1  0  0  0  0  0999 V2000
   34.5550   29.2140   39.8050 O   0  0  0  0  0  0  0  0  0  0  0  0
   35.8440   29.5990   40.5480 P   0  0  1  0  0  0  0  0  0  0  0  0
   35.6820   31.0620   41.3480 O   0  0  0  0  0  0  0  0  0  0  0  0
   35.0100   31.0090   42.0940 H   0  0  0  0  0  0  0  0  0  0  0  0
   36.1880   28.3370   41.6330 O   0  0  0  0  0  0  0  0  0  0  0  0
   39.4330   28.9240   42.9260 C   0  0  0  0  0  0  0  0  0  0  0  0
   39.9100   27.6520   43.3290 C   0  0  0  0  0  0  0  0  0  0  0  0
   39.0150   26.5740   43.1150 C   0  0  0  0  0  0  0  0  0  0  0  0
   37.8060   26.8440   42.5560 N   0  0  0  0  0  0  0  0  0  0  0  0
   37.4200   28.0690   42.2010 C   0  0  0  0  0  0  0  0  0  0  0  0
   38.2370   29.1190   42.3860 N   0  0  0  0  0  0  0  0  0  0  0  0
   40.1320   29.7490   43.0960 H   0  0  0  0  0  0  0  0  0  0  0  0
   40.8900   27.5140   43.7680 H   0  0  0  0  0  0  0  0  0  0  0  0
   39.3200   25.5760   43.4010 H   0  0  0  0  0  0  0  0  0  0  0  0
   37.0380   29.7460   39.3800 O   0  0  0  0  0  0  0  0  0  0  0  0
   36.6930   30.7700   38.5260 C   0  0  0  0  0  0  0  0  0  0  0  0
   35.6490   31.0650   38.7490 H   0  0  0  0  0  0  0  0  0  0  0  0
   36.6980   30.3770   37.4900 H   0  0  0  0  0  0  0  0  0  0  0  0
   39.1720   32.6120   40.3030 C   0  0  1  0  0  3  0  0  0  0  0  0
   38.8960   31.5330   39.2870 C   0  0  0  0  0  3  0  0  0  0  0  0
   39.7510   31.3290   38.6100 H   0  0  0  0  0  0  0  0  0  0  0  0
   37.6370   31.9480   38.6010 C   0  0  2  0  0  3  0  0  0  0  0  0
   37.0450   32.9390   39.3750 O   0  0  0  0  0  0  0  0  0  0  0  0
   38.0290   33.5520   40.1020 C   0  0  0  0  0  3  0  0  0  0  0  0
   38.3850   34.4520   39.5270 H   0  0  0  0  0  0  0  0  0  0  0  0
   39.1730   32.1260   41.6220 O   0  0  0  0  0  0  0  0  0  0  0  0
   39.6770   31.2540   41.6660 H   0  0  0  0  0  0  0  0  0  0  0  0
  2  1  2  6  0  0  0
  2  3  1  0  0  0  0
  2  5  1  0  0  0  0
  3  4  1  0  0  0  0
  5 10  1  0  0  0  0
  6 12  1  0  0  0  0
  6  7  1  0  0  0  0
  7 13  1  0  0  0  0
  8  7  2  0  0  0  0
  8 14  1  0  0  0  0
  9  8  1  0  0  0  0
 10 11  1  0  0  0  0
 10  9  2  0  0  0  0
 11  6  2  0  0  0  0
 15  2  1  0  0  0  0
 16 17  1  0  0  0  0
 16 15  1  0  0  0  0
 18 16  1  0  0  0  0
 19 26  1  1  0  0  0
 20 19  1  0  0  0  0
 21 20  1  0  0  0  0
 22 16  1  1  0  0  0
 22 20  1  0  0  0  0
 22 23  1  0  0  0  0
 23 24  1  0  0  0  0
 24 19  1  0  0  0  0
 25 24  1  0  0  0  0
 26 27  1  0  0  0  0
M  END
>  <minimizedAffinity>
-4.79876614

$$$$

 OpenBabel03252505313D

 27 28  0  0  1  0  0  0  0  0999 V2000
   36.4750   30.3700   41.4290 O   0  0  0  0  0  0  0  0  0  0  0  0
   37.5410   29.5100   42.1280 P   0  0  1  0  0  0  0  0  0  0  0  0
   36.9920   28.9210   43.5980 O   0  0  0  0  0  0  0  0  0  0  0  0
   36.2320   28.2730   43.4820 H   0  0  0  0  0  0  0  0  0  0  0  0
   37.9330   28.2430   41.0640 O   0  0  0  0  0  0  0  0  0  0  0  0
   37.0940   24.9820   42.1640 C   0  0  0  0  0  0  0  0  0  0  0  0
   38.3090   24.2540   42.1320 C   0  0  0  0  0  0  0  0  0  0  0  0
   39.4420   24.9860   41.6980 C   0  0  0  0  0  0  0  0  0  0  0  0
   39.2740   26.2910   41.3580 N   0  0  0  0  0  0  0  0  0  0  0  0
   38.0970   26.9150   41.4110 C   0  0  0  0  0  0  0  0  0  0  0  0
   36.9980   26.2590   41.8160 N   0  0  0  0  0  0  0  0  0  0  0  0
   36.2260   24.4070   42.5000 H   0  0  0  0  0  0  0  0  0  0  0  0
   38.3660   23.2120   42.4190 H   0  0  0  0  0  0  0  0  0  0  0  0
   40.4010   24.4860   41.6510 H   0  0  0  0  0  0  0  0  0  0  0  0
   38.8560   30.5130   42.3990 O   0  0  0  0  0  0  0  0  0  0  0  0
   39.7710   30.3200   41.3890 C   0  0  0  0  0  0  0  0  0  0  0  0
   39.5420   29.3540   40.8990 H   0  0  0  0  0  0  0  0  0  0  0  0
   40.7760   30.2160   41.8440 H   0  0  0  0  0  0  0  0  0  0  0  0
   38.1990   33.1520   39.9040 C   0  0  1  0  0  3  0  0  0  0  0  0
   39.1270   32.6510   40.9810 C   0  0  0  0  0  3  0  0  0  0  0  0
   39.8100   33.4300   41.3790 H   0  0  0  0  0  0  0  0  0  0  0  0
   39.8070   31.4580   40.3960 C   0  0  2  0  0  3  0  0  0  0  0  0
   39.0900   31.0810   39.2660 O   0  0  0  0  0  0  0  0  0  0  0  0
   38.4360   32.1850   38.7910 C   0  0  0  0  0  3  0  0  0  0  0  0
   39.0840   32.6710   38.0080 H   0  0  0  0  0  0  0  0  0  0  0  0
   36.8490   33.1200   40.2950 O   0  0  0  0  0  0  0  0  0  0  0  0
   36.7560   33.4630   41.2370 H   0  0  0  0  0  0  0  0  0  0  0  0
  2  1  2  6  0  0  0
  2 15  1  0  0  0  0
  2  3  1  0  0  0  0
  4  3  1  0  0  0  0
  5 10  1  0  0  0  0
  5  2  1  0  0  0  0
  6 12  1  0  0  0  0
  7  6  1  0  0  0  0
  7 13  1  0  0  0  0
  8  7  2  0  0  0  0
  9 10  2  0  0  0  0
  9  8  1  0  0  0  0
 10 11  1  0  0  0  0
 11  6  2  0  0  0  0
 14  8  1  0  0  0  0
 16 18  1  0  0  0  0
 16 15  1  0  0  0  0
 17 16  1  0  0  0  0
 19 26  1  1  0  0  0
 19 20  1  0  0  0  0
 20 21  1  0  0  0  0
 22 20  1  0  0  0  0
 22 16  1  1  0  0  0
 23 22  1  0  0  0  0
 24 23  1  0  0  0  0
 24 19  1  0  0  0  0
 25 24  1  0  0  0  0
 26 27  1  0  0  0  0
M  END
>  <minimizedAffinity>
-4.59511089

$$$$

 OpenBabel03252505313D

 27 28  0  0  1  0  0  0  0  0999 V2000
   37.7560   29.7290   42.5080 O   0  0  0  0  0  0  0  0  0  0  0  0
   36.9410   29.9480   41.2230 P   0  0  1  0  0  0  0  0  0  0  0  0
   35.7130   31.0650   41.4540 O   0  0  0  0  0  0  0  0  0  0  0  0
   36.0740   31.9850   41.6420 H   0  0  0  0  0  0  0  0  0  0  0  0
   38.0310   30.4680   40.0270 O   0  0  0  0  0  0  0  0  0  0  0  0
   40.3470   32.9830   39.1010 C   0  0  0  0  0  0  0  0  0  0  0  0
   39.9000   34.1600   39.7510 C   0  0  0  0  0  0  0  0  0  0  0  0
   38.7290   34.0100   40.5360 C   0  0  0  0  0  0  0  0  0  0  0  0
   38.1500   32.7820   40.5980 N   0  0  0  0  0  0  0  0  0  0  0  0
   38.6260   31.7140   39.9580 C   0  0  0  0  0  0  0  0  0  0  0  0
   39.7320   31.8120   39.2040 N   0  0  0  0  0  0  0  0  0  0  0  0
   41.2520   33.1100   38.4980 H   0  0  0  0  0  0  0  0  0  0  0  0
   40.4160   35.1060   39.6530 H   0  0  0  0  0  0  0  0  0  0  0  0
   38.3360   34.8720   41.0580 H   0  0  0  0  0  0  0  0  0  0  0  0
   36.2630   28.4660   40.8340 O   0  0  0  0  0  0  0  0  0  0  0  0
   37.0320   27.8740   39.8570 C   0  0  0  0  0  0  0  0  0  0  0  0
   37.6490   28.6620   39.3820 H   0  0  0  0  0  0  0  0  0  0  0  0
   36.3560   27.4840   39.0700 H   0  0  0  0  0  0  0  0  0  0  0  0
   38.6040   26.2110   42.5880 C   0  0  1  0  0  3  0  0  0  0  0  0
   37.3770   26.3160   41.7180 C   0  0  0  0  0  3  0  0  0  0  0  0
   36.7510   25.3990   41.7180 H   0  0  0  0  0  0  0  0  0  0  0  0
   37.8770   26.7340   40.3750 C   0  0  2  0  0  3  0  0  0  0  0  0
   39.1800   27.1900   40.5380 O   0  0  0  0  0  0  0  0  0  0  0  0
   39.7030   26.5890   41.6510 C   0  0  0  0  0  3  0  0  0  0  0  0
   40.2500   25.6590   41.3260 H   0  0  0  0  0  0  0  0  0  0  0  0
   38.5710   27.0980   43.6780 O   0  0  0  0  0  0  0  0  0  0  0  0
   37.6550   27.0920   44.0980 H   0  0  0  0  0  0  0  0  0  0  0  0
  2  3  1  0  0  0  0
  2  1  2  1  0  0  0
  3  4  1  0  0  0  0
  5  2  1  0  0  0  0
  6 11  2  0  0  0  0
  6  7  1  0  0  0  0
  7  8  2  0  0  0  0
  8  9  1  0  0  0  0
  8 14  1  0  0  0  0
 10  5  1  0  0  0  0
 10  9  2  0  0  0  0
 11 10  1  0  0  0  0
 12  6  1  0  0  0  0
 13  7  1  0  0  0  0
 15  2  1  0  0  0  0
 16 15  1  0  0  0  0
 17 16  1  0  0  0  0
 18 16  1  0  0  0  0
 19 26  1  1  0  0  0
 20 21  1  0  0  0  0
 20 19  1  0  0  0  0
 22 16  1  1  0  0  0
 22 23  1  0  0  0  0
 22 20  1  0  0  0  0
 23 24  1  0  0  0  0
 24 19  1  0  0  0  0
 25 24  1  0  0  0  0
 26 27  1  0  0  0  0
M  END
>  <minimizedAffinity>
-4.46265221

$$$$

 OpenBabel03252505313D

 27 28  0  0  1  0  0  0  0  0999 V2000
   39.2940   30.1760   37.6950 O   0  0  0  0  0  0  0  0  0  0  0  0
   38.7690   31.6200   37.7660 P   0  0  1  0  0  0  0  0  0  0  0  0
   38.7180   32.3330   36.2510 O   0  0  0  0  0  0  0  0  0  0  0  0
   38.0450   31.8880   35.6500 H   0  0  0  0  0  0  0  0  0  0  0  0
   37.2230   31.5530   38.4690 O   0  0  0  0  0  0  0  0  0  0  0  0
   35.5130   28.6950   39.6740 C   0  0  0  0  0  0  0  0  0  0  0  0
   35.8290   28.6250   41.0540 C   0  0  0  0  0  0  0  0  0  0  0  0
   36.6840   29.6500   41.5320 C   0  0  0  0  0  0  0  0  0  0  0  0
   37.1160   30.5890   40.6500 N   0  0  0  0  0  0  0  0  0  0  0  0
   36.7790   30.5940   39.3610 C   0  0  0  0  0  0  0  0  0  0  0  0
   35.9720   29.6420   38.8660 N   0  0  0  0  0  0  0  0  0  0  0  0
   34.8530   27.8980   39.3160 H   0  0  0  0  0  0  0  0  0  0  0  0
   35.4450   27.8430   41.6970 H   0  0  0  0  0  0  0  0  0  0  0  0
   36.9630   29.6530   42.5770 H   0  0  0  0  0  0  0  0  0  0  0  0
   39.8460   32.4680   38.7310 O   0  0  0  0  0  0  0  0  0  0  0  0
   40.7000   31.5700   39.3310 C   0  0  0  0  0  0  0  0  0  0  0  0
   40.4530   30.5580   38.9540 H   0  0  0  0  0  0  0  0  0  0  0  0
   40.4890   31.5620   40.4190 H   0  0  0  0  0  0  0  0  0  0  0  0
   43.2020   33.5100   37.6970 C   0  0  1  0  0  3  0  0  0  0  0  0
   42.3010   33.3750   38.8990 C   0  0  0  0  0  3  0  0  0  0  0  0
   42.6470   33.9520   39.7820 H   0  0  0  0  0  0  0  0  0  0  0  0
   42.1580   31.9070   39.1250 C   0  0  2  0  0  3  0  0  0  0  0  0
   42.6010   31.2620   37.9760 O   0  0  0  0  0  0  0  0  0  0  0  0
   43.4890   32.0880   37.3420 C   0  0  0  0  0  3  0  0  0  0  0  0
   44.5280   31.8220   37.6870 H   0  0  0  0  0  0  0  0  0  0  0  0
   42.5740   34.1600   36.6200 O   0  0  0  0  0  0  0  0  0  0  0  0
   42.0600   34.9600   36.9550 H   0  0  0  0  0  0  0  0  0  0  0  0
  2  1  2  6  0  0  0
  2  5  1  0  0  0  0
  2 15  1  0  0  0  0
  3  2  1  0  0  0  0
  4  3  1  0  0  0  0
  5 10  1  0  0  0  0
  6  7  1  0  0  0  0
  7  8  2  0  0  0  0
  7 13  1  0  0  0  0
  8 14  1  0  0  0  0
  9  8  1  0  0  0  0
 10  9  2  0  0  0  0
 11 10  1  0  0  0  0
 11  6  2  0  0  0  0
 12  6  1  0  0  0  0
 15 16  1  0  0  0  0
 16 18  1  0  0  0  0
 17 16  1  0  0  0  0
 19 26  1  6  0  0  0
 19 20  1  0  0  0  0
 20 22  1  0  0  0  0
 20 21  1  0  0  0  0
 22 16  1  6  0  0  0
 23 22  1  0  0  0  0
 24 25  1  0  0  0  0
 24 19  1  0  0  0  0
 24 23  1  0  0  0  0
 26 27  1  0  0  0  0
M  END
>  <minimizedAffinity>
-4.45940208

$$$$

 OpenBabel03252505313D

 27 28  0  0  1  0  0  0  0  0999 V2000
   35.5260   29.8220   38.9570 O   0  0  0  0  0  0  0  0  0  0  0  0
   36.5170   30.5490   39.8790 P   0  0  1  0  0  0  0  0  0  0  0  0
   35.7860   31.0430   41.3030 O   0  0  0  0  0  0  0  0  0  0  0  0
   35.4980   30.2620   41.8680 H   0  0  0  0  0  0  0  0  0  0  0  0
   37.7950   29.4710   40.1840 O   0  0  0  0  0  0  0  0  0  0  0  0
   39.5300   27.7630   42.7570 C   0  0  0  0  0  0  0  0  0  0  0  0
   38.5310   27.3640   43.6790 C   0  0  0  0  0  0  0  0  0  0  0  0
   37.2070   27.7350   43.3350 C   0  0  0  0  0  0  0  0  0  0  0  0
   37.0110   28.4240   42.1810 N   0  0  0  0  0  0  0  0  0  0  0  0
   38.0010   28.7690   41.3570 C   0  0  0  0  0  0  0  0  0  0  0  0
   39.2700   28.4380   41.6440 N   0  0  0  0  0  0  0  0  0  0  0  0
   40.5480   27.4720   43.0320 H   0  0  0  0  0  0  0  0  0  0  0  0
   38.7630   26.8140   44.5820 H   0  0  0  0  0  0  0  0  0  0  0  0
   36.3980   27.4590   43.9980 H   0  0  0  0  0  0  0  0  0  0  0  0
   37.0420   31.9010   39.0390 O   0  0  0  0  0  0  0  0  0  0  0  0
   37.3240   32.8990   39.9450 C   0  0  0  0  0  0  0  0  0  0  0  0
   36.7930   32.6660   40.8880 H   0  0  0  0  0  0  0  0  0  0  0  0
   36.8940   33.8470   39.5650 H   0  0  0  0  0  0  0  0  0  0  0  0
   40.6580   31.6620   39.7120 C   0  0  1  0  0  3  0  0  0  0  0  0
   39.5650   32.4630   39.0500 C   0  0  0  0  0  3  0  0  0  0  0  0
   39.9360   33.1690   38.2780 H   0  0  0  0  0  0  0  0  0  0  0  0
   38.8050   33.0970   40.1670 C   0  0  2  0  0  3  0  0  0  0  0  0
   39.1660   32.4450   41.3410 O   0  0  0  0  0  0  0  0  0  0  0  0
   40.4140   31.9130   41.1640 C   0  0  0  0  0  3  0  0  0  0  0  0
   41.1720   32.6550   41.5440 H   0  0  0  0  0  0  0  0  0  0  0  0
   40.5630   30.2870   39.4350 O   0  0  0  0  0  0  0  0  0  0  0  0
   40.3580   30.1460   38.4590 H   0  0  0  0  0  0  0  0  0  0  0  0
  2  1  2  6  0  0  0
  2  5  1  0  0  0  0
  2  3  1  0  0  0  0
  3  4  1  0  0  0  0
  5 10  1  0  0  0  0
  6 12  1  0  0  0  0
  6  7  1  0  0  0  0
  7 13  1  0  0  0  0
  8  7  2  0  0  0  0
  8 14  1  0  0  0  0
  9  8  1  0  0  0  0
 10 11  1  0  0  0  0
 10  9  2  0  0  0  0
 11  6  2  0  0  0  0
 15  2  1  0  0  0  0
 15 16  1  0  0  0  0
 16 17  1  0  0  0  0
 18 16  1  0  0  0  0
 19 26  1  1  0  0  0
 19 24  1  0  0  0  0
 20 19  1  0  0  0  0
 20 22  1  0  0  0  0
 21 20  1  0  0  0  0
 22 16  1  6  0  0  0
 22 23  1  0  0  0  0
 24 23  1  0  0  0  0
 24 25  1  0  0  0  0
 27 26  1  0  0  0  0
M  END
>  <minimizedAffinity>
-4.42002869

$$$$

 OpenBabel03252505313D

 27 28  0  0  1  0  0  0  0  0999 V2000
   37.1000   28.4860   39.7520 O   0  0  0  0  0  0  0  0  0  0  0  0
   36.4170   29.0890   40.9900 P   0  0  1  0  0  0  0  0  0  0  0  0
   34.8540   29.5890   40.6510 O   0  0  0  0  0  0  0  0  0  0  0  0
   34.2530   28.8140   40.4270 H   0  0  0  0  0  0  0  0  0  0  0  0
   36.4330   27.8940   42.1990 O   0  0  0  0  0  0  0  0  0  0  0  0
   39.5160   26.9720   43.6790 C   0  0  0  0  0  0  0  0  0  0  0  0
   39.7250   25.6230   43.2970 C   0  0  0  0  0  0  0  0  0  0  0  0
   38.7090   25.0600   42.4850 C   0  0  0  0  0  0  0  0  0  0  0  0
   37.6480   25.8400   42.1480 N   0  0  0  0  0  0  0  0  0  0  0  0
   37.5150   27.1060   42.5450 C   0  0  0  0  0  0  0  0  0  0  0  0
   38.4540   27.6790   43.3150 N   0  0  0  0  0  0  0  0  0  0  0  0
   40.3070   27.3960   44.3060 H   0  0  0  0  0  0  0  0  0  0  0  0
   40.5980   25.0630   43.6050 H   0  0  0  0  0  0  0  0  0  0  0  0
   38.8090   24.0330   42.1590 H   0  0  0  0  0  0  0  0  0  0  0  0
   37.3310   30.4230   41.4340 O   0  0  0  0  0  0  0  0  0  0  0  0
   36.8510   31.5260   40.7650 C   0  0  0  0  0  0  0  0  0  0  0  0
   36.5390   32.2750   41.5190 H   0  0  0  0  0  0  0  0  0  0  0  0
   35.9360   31.2300   40.2140 H   0  0  0  0  0  0  0  0  0  0  0  0
   38.6190   31.2670   37.6820 C   0  0  1  0  0  3  0  0  0  0  0  0
   37.3950   31.7930   38.3890 C   0  0  0  0  0  3  0  0  0  0  0  0
   36.9020   32.6350   37.8590 H   0  0  0  0  0  0  0  0  0  0  0  0
   37.8420   32.1010   39.7790 C   0  0  2  0  0  3  0  0  0  0  0  0
   39.0690   31.4760   39.9720 O   0  0  0  0  0  0  0  0  0  0  0  0
   39.6620   31.3210   38.7490 C   0  0  0  0  0  3  0  0  0  0  0  0
   40.3340   32.2060   38.5670 H   0  0  0  0  0  0  0  0  0  0  0  0
   38.4560   29.9460   37.2290 O   0  0  0  0  0  0  0  0  0  0  0  0
   37.5470   29.8370   36.8080 H   0  0  0  0  0  0  0  0  0  0  0  0
  2  1  2  6  0  0  0
  2 15  1  0  0  0  0
  2  5  1  0  0  0  0
  3  2  1  0  0  0  0
  4  3  1  0  0  0  0
  5 10  1  0  0  0  0
  6 12  1  0  0  0  0
  7 13  1  0  0  0  0
  7  6  2  0  0  0  0
  8  7  1  0  0  0  0
  9  8  2  0  0  0  0
  9 10  1  0  0  0  0
 10 11  2  0  0  0  0
 11  6  1  0  0  0  0
 14  8  1  0  0  0  0
 16 15  1  0  0  0  0
 16 17  1  0  0  0  0
 18 16  1  0  0  0  0
 19 26  1  1  0  0  0
 19 20  1  0  0  0  0
 19 24  1  0  0  0  0
 20 22  1  0  0  0  0
 21 20  1  0  0  0  0
 22 23  1  0  0  0  0
 22 16  1  1  0  0  0
 24 23  1  0  0  0  0
 25 24  1  0  0  0  0
 27 26  1  0  0  0  0
M  END
>  <minimizedAffinity>
-4.41141033

$$$$

 OpenBabel03252505313D

 27 28  0  0  1  0  0  0  0  0999 V2000
   38.9000   27.1690   43.2810 O   0  0  0  0  0  0  0  0  0  0  0  0
   37.9090   28.1250   42.5990 P   0  0  1  0  0  0  0  0  0  0  0  0
   37.2910   29.2480   43.6790 O   0  0  0  0  0  0  0  0  0  0  0  0
   38.0020   29.8760   44.0150 H   0  0  0  0  0  0  0  0  0  0  0  0
   38.7460   28.8870   41.3300 O   0  0  0  0  0  0  0  0  0  0  0  0
   36.8950   31.7710   40.4360 C   0  0  0  0  0  0  0  0  0  0  0  0
   37.2450   32.0360   39.0880 C   0  0  0  0  0  0  0  0  0  0  0  0
   38.1740   31.1320   38.5160 C   0  0  0  0  0  0  0  0  0  0  0  0
   38.6400   30.1140   39.2860 N   0  0  0  0  0  0  0  0  0  0  0  0
   38.2680   29.9240   40.5520 C   0  0  0  0  0  0  0  0  0  0  0  0
   37.3900   30.7570   41.1340 N   0  0  0  0  0  0  0  0  0  0  0  0
   36.1770   32.4750   40.8680 H   0  0  0  0  0  0  0  0  0  0  0  0
   36.8300   32.8700   38.5370 H   0  0  0  0  0  0  0  0  0  0  0  0
   38.4810   31.2790   37.4890 H   0  0  0  0  0  0  0  0  0  0  0  0
   36.6540   27.1760   42.0240 O   0  0  0  0  0  0  0  0  0  0  0  0
   36.8490   26.9560   40.6790 C   0  0  0  0  0  0  0  0  0  0  0  0
   37.6180   27.6700   40.3230 H   0  0  0  0  0  0  0  0  0  0  0  0
   35.9120   27.2080   40.1440 H   0  0  0  0  0  0  0  0  0  0  0  0
   38.2110   23.8300   41.7100 C   0  0  1  0  0  3  0  0  0  0  0  0
   36.9690   24.6690   41.5520 C   0  0  0  0  0  3  0  0  0  0  0  0
   36.0320   24.0740   41.5130 H   0  0  0  0  0  0  0  0  0  0  0  0
   37.2190   25.5270   40.3570 C   0  0  2  0  0  3  0  0  0  0  0  0
   38.5800   25.4740   40.0830 O   0  0  0  0  0  0  0  0  0  0  0  0
   39.0680   24.2960   40.5790 C   0  0  0  0  0  3  0  0  0  0  0  0
   39.0450   23.5290   39.7550 H   0  0  0  0  0  0  0  0  0  0  0  0
   38.8630   24.0540   42.9360 O   0  0  0  0  0  0  0  0  0  0  0  0
   38.1870   24.0960   43.6820 H   0  0  0  0  0  0  0  0  0  0  0  0
  2  1  2  1  0  0  0
  2  3  1  0  0  0  0
  3  4  1  0  0  0  0
  5  2  1  0  0  0  0
  6 12  1  0  0  0  0
  6 11  1  0  0  0  0
  7  6  2  0  0  0  0
  8  7  1  0  0  0  0
  8  9  2  0  0  0  0
  9 10  1  0  0  0  0
 10 11  2  0  0  0  0
 10  5  1  0  0  0  0
 13  7  1  0  0  0  0
 14  8  1  0  0  0  0
 15  2  1  0  0  0  0
 16 15  1  0  0  0  0
 17 16  1  0  0  0  0
 18 16  1  0  0  0  0
 19 26  1  1  0  0  0
 20 19  1  0  0  0  0
 21 20  1  0  0  0  0
 22 16  1  1  0  0  0
 22 20  1  0  0  0  0
 23 22  1  0  0  0  0
 23 24  1  0  0  0  0
 24 19  1  0  0  0  0
 25 24  1  0  0  0  0
 26 27  1  0  0  0  0
M  END
>  <minimizedAffinity>
-4.3961544

$$$$
