
 OpenBabel03242523223D

 43 46  0  0  1  0  0  0  0  0999 V2000
   47.1210   32.7250   44.3480 C   0  0  0  0  0  0  0  0  0  0  0  0
   47.9250   32.9890   43.3230 C   0  0  0  0  0  0  0  0  0  0  0  0
   48.7390   31.9400   42.9490 C   0  0  0  0  0  0  0  0  0  0  0  0
   48.6440   30.7360   43.6620 N   0  0  0  0  0  0  0  0  0  0  0  0
   47.8330   30.5420   44.6620 C   0  0  0  0  0  0  0  0  0  0  0  0
   47.0010   31.5670   45.0670 N   0  0  0  0  0  0  0  0  0  0  0  0
   49.4750   31.8940   42.1590 H   0  0  0  0  0  0  0  0  0  0  0  0
   47.8600   29.5540   45.1320 H   0  0  0  0  0  0  0  0  0  0  0  0
   48.1110   34.2300   42.6690 C   0  0  1  0  0  0  0  0  0  0  0  0
   49.0360   34.5740   41.7330 C   0  0  0  0  0  0  0  0  0  0  0  0
   47.6530   34.3900   41.1900 C   0  0  1  0  0  0  0  0  0  0  0  0
   47.8260   35.0930   43.3310 H   0  0  0  0  0  0  0  0  0  0  0  0
   49.8210   33.8190   41.4290 H   0  0  0  0  0  0  0  0  0  0  0  0
   49.4530   35.5820   41.5120 H   0  0  0  0  0  0  0  0  0  0  0  0
   47.0340   35.2950   41.0150 H   0  0  0  0  0  0  0  0  0  0  0  0
   46.3320   33.3540   39.2900 C   0  0  1  0  0  3  0  0  0  0  0  0
   47.4550   33.2720   40.2760 C   0  0  1  0  0  3  0  0  0  0  0  0
   48.6650   33.2150   39.3740 C   0  0  0  0  0  3  0  0  0  0  0  0
   49.5480   33.6460   39.8900 H   0  0  0  0  0  0  0  0  0  0  0  0
   48.3210   34.0220   38.3140 O   0  0  0  0  0  0  0  0  0  0  0  0
   47.0040   33.6730   37.9960 C   0  0  0  0  0  3  0  0  0  0  0  0
   46.4700   34.5070   37.5130 H   0  0  0  0  0  0  0  0  0  0  0  0
   45.7870   32.0600   39.1580 O   0  0  0  0  0  0  0  0  0  0  0  0
   46.0300   31.6260   38.3100 H   0  0  0  0  0  0  0  0  0  0  0  0
   46.0980   33.6290   44.9160 C   0  0  0  0  0  0  0  0  0  0  0  0
   45.5280   34.1840   45.8110 O   0  0  0  0  0  0  0  0  0  0  0  0
   44.4500   31.7220   43.1320 Cl  0  0  0  0  0  0  0  0  0  0  0  0
   44.4990   33.4580   42.8690 C   0  0  0  0  0  0  0  0  0  0  0  0
   45.2930   34.1940   43.7860 C   0  0  0  0  0  0  0  0  0  0  0  0
   45.2450   35.5350   43.4800 C   0  0  0  0  0  0  0  0  0  0  0  0
   44.6120   36.1870   42.5160 C   0  0  0  0  0  0  0  0  0  0  0  0
   43.8620   35.4050   41.6630 C   0  0  0  0  0  0  0  0  0  0  0  0
   43.8000   34.0540   41.8320 C   0  0  0  0  0  0  0  0  0  0  0  0
   45.8010   36.2360   44.1470 H   0  0  0  0  0  0  0  0  0  0  0  0
   44.6370   37.2630   42.3510 H   0  0  0  0  0  0  0  0  0  0  0  0
   43.3190   35.9110   40.8440 H   0  0  0  0  0  0  0  0  0  0  0  0
   43.0200   33.3910   40.9220 O   0  0  0  0  0  0  0  0  0  0  0  0
   40.7710   33.2180   39.5830 O   0  0  0  0  0  0  0  0  0  0  0  0
   41.3590   33.0490   40.9630 P   0  0  0  0  0  0  0  0  0  0  0  0
   41.1240   31.4740   41.5410 O   0  0  0  0  0  0  0  0  0  0  0  0
   41.2360   31.4400   42.5090 H   0  0  0  0  0  0  0  0  0  0  0  0
   40.5480   34.0590   42.0550 O   0  0  0  0  0  0  0  0  0  0  0  0
   39.6560   33.6650   42.2420 H   0  0  0  0  0  0  0  0  0  0  0  0
  1 25  1  0  0  0  0
  1  6  1  0  0  0  0
  2  1  2  0  0  0  0
  3  2  1  0  0  0  0
  3  4  2  0  0  0  0
  4  5  1  0  0  0  0
  5  6  2  0  0  0  0
  5  8  1  0  0  0  0
  7  3  1  0  0  0  0
  9  2  1  0  0  0  0
  9 12  1  1  0  0  0
 10  9  1  0  0  0  0
 11 15  1  6  0  0  0
 11 10  1  0  0  0  0
 11  9  1  0  0  0  0
 13 10  1  0  0  0  0
 14 10  1  0  0  0  0
 16 23  1  6  0  0  0
 16 17  1  0  0  0  0
 17 18  1  6  0  0  0
 17 11  1  0  0  0  0
 18 19  1  0  0  0  0
 20 18  1  0  0  0  0
 21 20  1  0  0  0  0
 21 16  1  0  0  0  0
 22 21  1  0  0  0  0
 24 23  1  0  0  0  0
 25 26  2  0  0  0  0
 28 27  1  0  0  0  0
 28 29  1  0  0  0  0
 29 25  1  0  0  0  0
 30 29  2  0  0  0  0
 30 34  1  0  0  0  0
 31 30  1  0  0  0  0
 32 33  1  0  0  0  0
 32 31  2  0  0  0  0
 33 28  2  0  0  0  0
 35 31  1  0  0  0  0
 36 32  1  0  0  0  0
 37 39  1  0  0  0  0
 37 33  1  0  0  0  0
 38 39  2  0  0  0  0
 39 40  1  0  0  0  0
 39 42  1  0  0  0  0
 40 41  1  0  0  0  0
 42 43  1  0  0  0  0
M  END
>  <minimizedAffinity>
-5.67844391

>  <minimizedRMSD>
1.26612699

$$$$
