
     RDKit          3D

 29 30  0  0  0  0  0  0  0  0999 V2000
   44.6896   35.5197   43.6217 C   0  0  0  0  0  0  0  0  0  0  0  0
   43.9429   35.4280   42.4307 C   0  0  0  0  0  0  0  0  0  0  0  0
   43.7809   34.1697   41.8278 C   0  0  0  0  0  0  0  0  0  0  0  0
   44.3616   33.0992   42.4364 N   0  0  0  0  0  0  0  0  0  0  0  0
   45.0700   33.2287   43.5782 C   0  0  0  0  0  0  0  0  0  0  0  0
   45.2230   34.4226   44.1492 N   0  0  0  0  0  0  0  0  0  0  0  0
   44.8316   36.8447   44.2120 C   0  0  0  0  0  0  0  0  0  0  0  0
   45.2555   37.8411   43.4537 C   0  0  0  0  0  0  0  0  0  0  0  0
   45.4258   39.2123   43.9763 C   0  0  0  0  0  0  0  0  0  0  0  0
   43.5003   36.3210   41.9881 H   0  0  0  0  0  0  0  0  0  0  0  0
   43.2122   34.0715   40.9126 H   0  0  0  0  0  0  0  0  0  0  0  0
   45.5296   32.3891   44.0620 H   0  0  0  0  0  0  0  0  0  0  0  0
   44.6127   37.1007   45.2593 H   0  0  0  0  0  0  0  0  0  0  0  0
   45.5056   37.7309   42.4126 H   0  0  0  0  0  0  0  0  0  0  0  0
   45.0943   39.3460   45.0217 H   0  0  0  0  0  0  0  0  0  0  0  0
   44.8485   39.8757   43.2718 H   0  0  0  0  0  0  0  0  0  0  0  0
   49.6944   37.8362   44.8625 O   0  0  0  0  0  0  0  0  0  0  0  0
   49.0083   38.9746   44.4423 C   0  0  1  0  0  0  0  0  0  0  0  0
   47.8254   38.5646   43.5546 C   0  0  1  0  0  0  0  0  0  0  0  0
   48.1159   38.4433   42.5047 H   0  0  0  0  0  0  0  0  0  0  0  0
   46.8768   39.6795   43.8359 C   0  0  2  0  0  0  0  0  0  0  0  0
   47.3003   40.3743   44.9369 O   0  0  0  0  0  0  0  0  0  0  0  0
   48.2833   39.6587   45.5750 C   0  0  2  0  0  0  0  0  0  0  0  0
   48.9556   40.3344   46.1463 H   0  0  0  0  0  0  0  0  0  0  0  0
   50.2425   38.0367   45.6580 H   0  0  0  0  0  0  0  0  0  0  0  0
   49.6444   39.7056   43.9116 H   0  0  0  0  0  0  0  0  0  0  0  0
   47.4283   37.6147   43.9761 H   0  0  0  0  0  0  0  0  0  0  0  0
   46.8967   40.3848   42.9618 H   0  0  0  0  0  0  0  0  0  0  0  0
   47.8482   38.8614   46.2418 H   0  0  0  0  0  0  0  0  0  0  0  0
  1  6  1  0
  1  7  1  0
  2  1  2  0
  3  2  1  0
  3  4  2  0
  4  5  1  0
  5  6  2  0
  8  9  1  0
  8  7  2  0
  2 10  1  0
  3 11  1  0
  5 12  1  0
  7 13  1  0
  8 14  1  0
  9 15  1  0
  9 16  1  0
 17 18  1  0
 18 19  1  0
 19 20  1  6
 19 21  1  0
 21 22  1  0
 22 23  1  0
 23 24  1  1
 23 18  1  0
 17 25  1  0
 18 26  1  6
 19 27  1  0
 21 28  1  6
 23 29  1  0
  9 21  1  0
M  ISO  7  10  14  11  14  12  14  15   8  16   8  20   8  24  16
M  END
>  <DihAtoms>  (1) 
7,8,20,18

>  <DihDeg>  (1) 
-60.00613199770404

$$$$
