
     RDKit          3D

 29 30  0  0  0  0  0  0  0  0999 V2000
   44.3038   35.7818   44.1907 C   0  0  0  0  0  0  0  0  0  0  0  0
   44.4653   34.9471   43.0883 C   0  0  0  0  0  0  0  0  0  0  0  0
   45.0785   33.7156   43.3011 C   0  0  0  0  0  0  0  0  0  0  0  0
   45.4917   33.3814   44.5696 N   0  0  0  0  0  0  0  0  0  0  0  0
   45.3124   34.2258   45.6067 C   0  0  0  0  0  0  0  0  0  0  0  0
   44.7205   35.4173   45.4073 N   0  0  0  0  0  0  0  0  0  0  0  0
   44.0296   35.3005   41.7532 C   0  0  0  0  0  0  0  0  0  0  0  0
   43.0281   34.7692   41.0958 C   0  0  0  0  0  0  0  0  0  0  0  0
   42.6281   35.1794   39.7162 C   0  0  0  0  0  0  0  0  0  0  0  0
   43.8289   36.7458   44.0486 H   0  0  0  0  0  0  0  0  0  0  0  0
   45.2270   33.0294   42.4723 H   0  0  0  0  0  0  0  0  0  0  0  0
   45.6959   33.8022   46.5266 H   0  0  0  0  0  0  0  0  0  0  0  0
   44.5638   36.0848   41.2047 H   0  0  0  0  0  0  0  0  0  0  0  0
   42.3803   34.0001   41.4343 H   0  0  0  0  0  0  0  0  0  0  0  0
   43.3125   35.9398   39.3148 H   0  0  0  0  0  0  0  0  0  0  0  0
   41.5953   35.5761   39.6741 H   0  0  0  0  0  0  0  0  0  0  0  0
   43.4254   31.7669   37.2575 O   0  0  0  0  0  0  0  0  0  0  0  0
   44.2714   32.2538   38.2321 C   0  0  1  0  0  0  0  0  0  0  0  0
   44.1439   33.7820   38.3036 C   0  0  2  0  0  0  0  0  0  0  0  0
   44.2579   34.1821   37.2915 H   0  0  0  0  0  0  0  0  0  0  0  0
   42.7687   33.9032   38.8845 C   0  0  1  0  0  0  0  0  0  0  0  0
   42.5344   32.7945   39.6777 O   0  0  0  0  0  0  0  0  0  0  0  0
   43.6135   31.9370   39.5816 C   0  0  1  0  0  0  0  0  0  0  0  0
   43.3186   30.8884   39.6442 H   0  0  0  0  0  0  0  0  0  0  0  0
   43.5847   32.1284   36.3487 H   0  0  0  0  0  0  0  0  0  0  0  0
   45.3080   31.9300   38.1785 H   0  0  0  0  0  0  0  0  0  0  0  0
   44.9435   34.0908   39.0069 H   0  0  0  0  0  0  0  0  0  0  0  0
   42.0359   33.9499   38.0693 H   0  0  0  0  0  0  0  0  0  0  0  0
   44.3490   32.2553   40.3673 H   0  0  0  0  0  0  0  0  0  0  0  0
  1  6  2  0
  2  3  2  0
  2  1  1  0
  3  4  1  0
  4  5  2  0
  6  5  1  0
  7  2  1  0
  8  7  2  0
  9  8  1  0
  1 10  1  0
  3 11  1  0
  5 12  1  0
  7 13  1  0
  8 14  1  0
  9 15  1  0
  9 16  1  0
 17 18  1  0
 18 19  1  0
 19 20  1  6
 19 21  1  0
 21 22  1  0
 22 23  1  0
 23 24  1  6
 23 18  1  0
 17 25  1  0
 18 26  1  1
 19 27  1  0
 21 28  1  6
 23 29  1  0
  9 21  1  0
M  ISO  7  10  14  11  14  12  14  15   8  16   8  20   8  24  16
M  END
>  <DihAtoms>  (1) 
7,8,20,18

>  <DihDeg>  (1) 
59.99997530134338

$$$$
