
 OpenBabel03252500423D

 28 30  0  0  1  0  0  0  0  0999 V2000
   36.6120   28.3120   41.1410 C   0  0  1  0  0  0  0  0  0  0  0  0
   35.3760   29.0630   40.7020 C   0  0  0  0  0  0  0  0  0  0  0  0
   36.6270   29.8030   41.0860 C   0  0  2  0  0  0  0  0  0  0  0  0
   37.1180   27.8540   40.2770 H   0  0  0  0  0  0  0  0  0  0  0  0
   34.5240   29.1060   41.4480 H   0  0  0  0  0  0  0  0  0  0  0  0
   35.0410   29.0320   39.6730 H   0  0  0  0  0  0  0  0  0  0  0  0
   36.6040   30.2960   42.1090 H   0  0  0  0  0  0  0  0  0  0  0  0
   36.9870   31.7260   39.4700 C   0  0  2  0  0  3  0  0  0  0  0  0
   37.5220   30.4710   40.1250 C   0  0  1  0  0  3  0  0  0  0  0  0
   38.8070   31.0260   40.6910 C   0  0  0  0  0  3  0  0  0  0  0  0
   39.5360   30.1940   40.7910 H   0  0  0  0  0  0  0  0  0  0  0  0
   39.2230   32.0290   39.8250 O   0  0  0  0  0  0  0  0  0  0  0  0
   38.3120   32.1330   38.7800 C   0  0  0  0  0  3  0  0  0  0  0  0
   38.2700   33.1360   38.3620 H   0  0  0  0  0  0  0  0  0  0  0  0
   36.7390   32.6840   40.4530 O   0  0  0  0  0  0  0  0  0  0  0  0
   37.5930   33.0800   40.7640 H   0  0  0  0  0  0  0  0  0  0  0  0
   36.5480   27.6680   42.4870 C   0  0  0  0  0  0  0  0  0  0  0  0
   35.6160   27.0440   42.6100 H   0  0  0  0  0  0  0  0  0  0  0  0
   36.4830   28.4840   43.2590 H   0  0  0  0  0  0  0  0  0  0  0  0
   37.6790   26.7560   42.7360 C   0  0  0  0  0  0  0  0  0  0  0  0
   37.5700   25.5340   42.1050 C   0  0  0  0  0  0  0  0  0  0  0  0
   38.5680   24.5570   42.2590 C   0  0  0  0  0  0  0  0  0  0  0  0
   39.6230   24.9020   43.0570 N   0  0  0  0  0  0  0  0  0  0  0  0
   39.7050   26.1140   43.6680 C   0  0  0  0  0  0  0  0  0  0  0  0
   38.7460   27.0280   43.5090 N   0  0  0  0  0  0  0  0  0  0  0  0
   36.8790   25.0340   41.4430 H   0  0  0  0  0  0  0  0  0  0  0  0
   38.7110   23.5740   41.8910 H   0  0  0  0  0  0  0  0  0  0  0  0
   40.5440   26.3760   44.2970 H   0  0  0  0  0  0  0  0  0  0  0  0
  1  4  1  6  0  0  0
  1 17  1  0  0  0  0
  2  3  1  0  0  0  0
  2  1  1  0  0  0  0
  2  5  1  0  0  0  0
  3  1  1  0  0  0  0
  3  7  1  1  0  0  0
  6  2  1  0  0  0  0
  8  9  1  0  0  0  0
  8 15  1  1  0  0  0
  9 10  1  1  0  0  0
  9  3  1  0  0  0  0
 10 11  1  0  0  0  0
 12 10  1  0  0  0  0
 13  8  1  0  0  0  0
 13 12  1  0  0  0  0
 14 13  1  0  0  0  0
 15 16  1  0  0  0  0
 17 18  1  0  0  0  0
 17 20  1  0  0  0  0
 17 19  1  0  0  0  0
 20 25  1  0  0  0  0
 21 22  1  0  0  0  0
 21 20  2  0  0  0  0
 22 23  2  0  0  0  0
 23 24  1  0  0  0  0
 24 28  1  0  0  0  0
 25 24  2  0  0  0  0
 26 21  1  0  0  0  0
 27 22  1  0  0  0  0
M  END
>  <minimizedAffinity>
-4.88688087

$$$$

 OpenBabel03252500423D

 28 30  0  0  1  0  0  0  0  0999 V2000
   36.8390   28.7210   41.0990 C   0  0  1  0  0  0  0  0  0  0  0  0
   35.7140   29.6300   40.6620 C   0  0  0  0  0  0  0  0  0  0  0  0
   36.9580   30.1960   41.2860 C   0  0  2  0  0  0  0  0  0  0  0  0
   37.4090   28.3590   40.2300 H   0  0  0  0  0  0  0  0  0  0  0  0
   34.7860   29.6300   41.3140 H   0  0  0  0  0  0  0  0  0  0  0  0
   35.4970   29.7840   39.6120 H   0  0  0  0  0  0  0  0  0  0  0  0
   36.8520   30.5280   42.3680 H   0  0  0  0  0  0  0  0  0  0  0  0
   37.5200   32.0310   39.6260 C   0  0  2  0  0  3  0  0  0  0  0  0
   38.0000   30.9260   40.5410 C   0  0  1  0  0  3  0  0  0  0  0  0
   38.9820   31.7140   41.3750 C   0  0  0  0  0  3  0  0  0  0  0  0
   39.7520   31.0160   41.7670 H   0  0  0  0  0  0  0  0  0  0  0  0
   39.4980   32.7050   40.5500 O   0  0  0  0  0  0  0  0  0  0  0  0
   38.9240   32.5900   39.2880 C   0  0  0  0  0  3  0  0  0  0  0  0
   38.8750   33.5420   38.7640 H   0  0  0  0  0  0  0  0  0  0  0  0
   36.8750   33.0060   40.3870 O   0  0  0  0  0  0  0  0  0  0  0  0
   37.5430   33.5520   40.8750 H   0  0  0  0  0  0  0  0  0  0  0  0
   36.5790   27.8870   42.3110 C   0  0  0  0  0  0  0  0  0  0  0  0
   35.6400   27.2700   42.2020 H   0  0  0  0  0  0  0  0  0  0  0  0
   36.4000   28.5810   43.1780 H   0  0  0  0  0  0  0  0  0  0  0  0
   37.6630   26.9250   42.5830 C   0  0  0  0  0  0  0  0  0  0  0  0
   38.6940   27.4350   43.3460 C   0  0  0  0  0  0  0  0  0  0  0  0
   39.8020   26.6380   43.6760 C   0  0  0  0  0  0  0  0  0  0  0  0
   39.7790   25.3570   43.2000 N   0  0  0  0  0  0  0  0  0  0  0  0
   38.7500   24.8800   42.4510 C   0  0  0  0  0  0  0  0  0  0  0  0
   37.7070   25.6540   42.1470 N   0  0  0  0  0  0  0  0  0  0  0  0
   38.9430   28.3660   43.8330 H   0  0  0  0  0  0  0  0  0  0  0  0
   40.6910   26.7920   44.2310 H   0  0  0  0  0  0  0  0  0  0  0  0
   38.7420   23.8650   42.0790 H   0  0  0  0  0  0  0  0  0  0  0  0
  1  4  1  6  0  0  0
  1  3  1  0  0  0  0
  1 17  1  0  0  0  0
  2  1  1  0  0  0  0
  2  3  1  0  0  0  0
  2  5  1  0  0  0  0
  3  7  1  1  0  0  0
  6  2  1  0  0  0  0
  8 15  1  1  0  0  0
  8  9  1  0  0  0  0
  9  3  1  0  0  0  0
  9 10  1  1  0  0  0
 10 11  1  0  0  0  0
 12 10  1  0  0  0  0
 13  8  1  0  0  0  0
 13 12  1  0  0  0  0
 14 13  1  0  0  0  0
 15 16  1  0  0  0  0
 17 20  1  0  0  0  0
 17 19  1  0  0  0  0
 18 17  1  0  0  0  0
 20 21  1  0  0  0  0
 21 22  2  0  0  0  0
 21 26  1  0  0  0  0
 22 27  1  0  0  0  0
 23 22  1  0  0  0  0
 24 23  2  0  0  0  0
 25 24  1  0  0  0  0
 25 20  2  0  0  0  0
 28 24  1  0  0  0  0
M  END
>  <minimizedAffinity>
-4.8541708

$$$$

 OpenBabel03252500423D

 28 30  0  0  1  0  0  0  0  0999 V2000
   37.4800   30.7330   39.7260 C   0  0  1  0  0  0  0  0  0  0  0  0
   37.0750   31.3740   38.4180 C   0  0  0  0  0  0  0  0  0  0  0  0
   37.6580   32.2020   39.5300 C   0  0  2  0  0  0  0  0  0  0  0  0
   38.4230   30.1770   39.6130 H   0  0  0  0  0  0  0  0  0  0  0  0
   35.9620   31.4930   38.2410 H   0  0  0  0  0  0  0  0  0  0  0  0
   37.6340   31.1890   37.5100 H   0  0  0  0  0  0  0  0  0  0  0  0
   36.9100   32.8320   40.1100 H   0  0  0  0  0  0  0  0  0  0  0  0
   39.1850   34.1440   40.1060 C   0  0  2  0  0  3  0  0  0  0  0  0
   39.0220   32.7590   39.5200 C   0  0  1  0  0  3  0  0  0  0  0  0
   40.0440   32.0240   40.3550 C   0  0  0  0  0  3  0  0  0  0  0  0
   40.4000   31.1430   39.7800 H   0  0  0  0  0  0  0  0  0  0  0  0
   41.0470   32.9380   40.6500 O   0  0  0  0  0  0  0  0  0  0  0  0
   40.7330   34.1610   40.0690 C   0  0  0  0  0  3  0  0  0  0  0  0
   41.1510   35.0030   40.6160 H   0  0  0  0  0  0  0  0  0  0  0  0
   38.8190   34.1170   41.4520 O   0  0  0  0  0  0  0  0  0  0  0  0
   39.5330   33.6870   41.9890 H   0  0  0  0  0  0  0  0  0  0  0  0
   36.3650   30.2810   40.6110 C   0  0  0  0  0  0  0  0  0  0  0  0
   35.5460   29.7710   40.0260 H   0  0  0  0  0  0  0  0  0  0  0  0
   35.8980   31.1940   41.0740 H   0  0  0  0  0  0  0  0  0  0  0  0
   36.8040   29.3060   41.6260 C   0  0  0  0  0  0  0  0  0  0  0  0
   37.9470   29.6720   42.3060 C   0  0  0  0  0  0  0  0  0  0  0  0
   38.4900   28.8350   43.2950 C   0  0  0  0  0  0  0  0  0  0  0  0
   37.8180   27.6670   43.5250 N   0  0  0  0  0  0  0  0  0  0  0  0
   36.6920   27.3310   42.8400 C   0  0  0  0  0  0  0  0  0  0  0  0
   36.1930   28.1400   41.9040 N   0  0  0  0  0  0  0  0  0  0  0  0
   38.6350   30.5030   42.3240 H   0  0  0  0  0  0  0  0  0  0  0  0
   39.3310   28.8900   43.9380 H   0  0  0  0  0  0  0  0  0  0  0  0
   36.1680   26.4050   43.0300 H   0  0  0  0  0  0  0  0  0  0  0  0
  1  4  1  6  0  0  0
  1 17  1  0  0  0  0
  2  3  1  0  0  0  0
  2  1  1  0  0  0  0
  3  1  1  0  0  0  0
  3  7  1  1  0  0  0
  5  2  1  0  0  0  0
  6  2  1  0  0  0  0
  8 15  1  1  0  0  0
  9  3  1  0  0  0  0
  9  8  1  0  0  0  0
  9 10  1  1  0  0  0
 10 12  1  0  0  0  0
 11 10  1  0  0  0  0
 13  8  1  0  0  0  0
 13 14  1  0  0  0  0
 13 12  1  0  0  0  0
 15 16  1  0  0  0  0
 17 19  1  0  0  0  0
 17 20  1  0  0  0  0
 18 17  1  0  0  0  0
 20 25  2  0  0  0  0
 20 21  1  0  0  0  0
 21 26  1  0  0  0  0
 21 22  2  0  0  0  0
 22 23  1  0  0  0  0
 22 27  1  0  0  0  0
 24 28  1  0  0  0  0
 24 23  2  0  0  0  0
 25 24  1  0  0  0  0
M  END
>  <minimizedAffinity>
-4.81468391

$$$$

 OpenBabel03252500423D

 28 30  0  0  1  0  0  0  0  0999 V2000
   37.5990   30.6760   39.4020 C   0  0  1  0  0  0  0  0  0  0  0  0
   37.1990   31.5870   38.2640 C   0  0  0  0  0  0  0  0  0  0  0  0
   37.7780   32.1510   39.5310 C   0  0  2  0  0  0  0  0  0  0  0  0
   38.5420   30.1560   39.1720 H   0  0  0  0  0  0  0  0  0  0  0  0
   36.0870   31.7430   38.1130 H   0  0  0  0  0  0  0  0  0  0  0  0
   37.7610   31.6040   37.3390 H   0  0  0  0  0  0  0  0  0  0  0  0
   37.0290   32.6400   40.2320 H   0  0  0  0  0  0  0  0  0  0  0  0
   39.2590   34.1090   40.1730 C   0  0  2  0  0  3  0  0  0  0  0  0
   39.1430   32.6950   39.6480 C   0  0  1  0  0  3  0  0  0  0  0  0
   40.0510   31.9990   40.6330 C   0  0  0  0  0  3  0  0  0  0  0  0
   40.4580   31.0840   40.1520 H   0  0  0  0  0  0  0  0  0  0  0  0
   41.0280   32.9190   40.9920 O   0  0  0  0  0  0  0  0  0  0  0  0
   40.8010   34.1110   40.3120 C   0  0  0  0  0  3  0  0  0  0  0  0
   41.1660   34.9780   40.8580 H   0  0  0  0  0  0  0  0  0  0  0  0
   38.7410   34.1600   41.4670 O   0  0  0  0  0  0  0  0  0  0  0  0
   39.3830   33.7550   42.1050 H   0  0  0  0  0  0  0  0  0  0  0  0
   36.4810   30.0430   40.1630 C   0  0  0  0  0  0  0  0  0  0  0  0
   35.8910   29.3230   39.5230 H   0  0  0  0  0  0  0  0  0  0  0  0
   35.7630   30.8550   40.4650 H   0  0  0  0  0  0  0  0  0  0  0  0
   36.9510   29.2590   41.3200 C   0  0  0  0  0  0  0  0  0  0  0  0
   36.5910   27.9270   41.2850 C   0  0  0  0  0  0  0  0  0  0  0  0
   36.9600   27.0590   42.3260 C   0  0  0  0  0  0  0  0  0  0  0  0
   37.6810   27.6180   43.3430 N   0  0  0  0  0  0  0  0  0  0  0  0
   38.0230   28.9340   43.3520 C   0  0  0  0  0  0  0  0  0  0  0  0
   37.6620   29.7420   42.3530 N   0  0  0  0  0  0  0  0  0  0  0  0
   36.0570   27.2600   40.6260 H   0  0  0  0  0  0  0  0  0  0  0  0
   36.8100   26.0290   42.5250 H   0  0  0  0  0  0  0  0  0  0  0  0
   38.5940   29.3660   44.1620 H   0  0  0  0  0  0  0  0  0  0  0  0
  1  4  1  6  0  0  0
  1  3  1  0  0  0  0
  1 17  1  0  0  0  0
  2  1  1  0  0  0  0
  2  3  1  0  0  0  0
  3  9  1  0  0  0  0
  3  7  1  1  0  0  0
  5  2  1  0  0  0  0
  6  2  1  0  0  0  0
  8 13  1  0  0  0  0
  8 15  1  1  0  0  0
  9  8  1  0  0  0  0
  9 10  1  1  0  0  0
 10 12  1  0  0  0  0
 11 10  1  0  0  0  0
 13 14  1  0  0  0  0
 13 12  1  0  0  0  0
 15 16  1  0  0  0  0
 17 19  1  0  0  0  0
 17 20  1  0  0  0  0
 18 17  1  0  0  0  0
 20 25  1  0  0  0  0
 21 20  2  0  0  0  0
 21 22  1  0  0  0  0
 22 27  1  0  0  0  0
 22 23  2  0  0  0  0
 23 24  1  0  0  0  0
 24 28  1  0  0  0  0
 25 24  2  0  0  0  0
 26 21  1  0  0  0  0
M  END
>  <minimizedAffinity>
-4.69400263

$$$$

 OpenBabel03252500423D

 28 30  0  0  1  0  0  0  0  0999 V2000
   37.1320   27.2380   40.1330 C   0  0  1  0  0  0  0  0  0  0  0  0
   35.9170   27.6490   39.3340 C   0  0  0  0  0  0  0  0  0  0  0  0
   36.4410   28.5240   40.4380 C   0  0  2  0  0  0  0  0  0  0  0  0
   38.0520   27.3840   39.5460 H   0  0  0  0  0  0  0  0  0  0  0  0
   34.9570   27.0890   39.5570 H   0  0  0  0  0  0  0  0  0  0  0  0
   36.0050   27.9470   38.2970 H   0  0  0  0  0  0  0  0  0  0  0  0
   35.8410   28.5010   41.4030 H   0  0  0  0  0  0  0  0  0  0  0  0
   36.3270   31.0510   40.2300 C   0  0  2  0  0  3  0  0  0  0  0  0
   37.1630   29.7910   40.2190 C   0  0  1  0  0  3  0  0  0  0  0  0
   38.1760   30.1660   41.2740 C   0  0  0  0  0  3  0  0  0  0  0  0
   39.1120   29.5990   41.0820 H   0  0  0  0  0  0  0  0  0  0  0  0
   38.3350   31.5430   41.1990 O   0  0  0  0  0  0  0  0  0  0  0  0
   37.5160   32.0420   40.1920 C   0  0  0  0  0  3  0  0  0  0  0  0
   37.2050   33.0680   40.3760 H   0  0  0  0  0  0  0  0  0  0  0  0
   35.7290   31.1920   41.4830 O   0  0  0  0  0  0  0  0  0  0  0  0
   36.3990   31.5000   42.1450 H   0  0  0  0  0  0  0  0  0  0  0  0
   36.9410   26.1040   41.0860 C   0  0  0  0  0  0  0  0  0  0  0  0
   36.8520   25.1150   40.5500 H   0  0  0  0  0  0  0  0  0  0  0  0
   35.9630   26.2610   41.6200 H   0  0  0  0  0  0  0  0  0  0  0  0
   38.0690   25.9540   42.0250 C   0  0  0  0  0  0  0  0  0  0  0  0
   38.6340   24.6950   42.0310 C   0  0  0  0  0  0  0  0  0  0  0  0
   39.7110   24.3990   42.8840 C   0  0  0  0  0  0  0  0  0  0  0  0
   40.1420   25.4240   43.6800 N   0  0  0  0  0  0  0  0  0  0  0  0
   39.5660   26.6550   43.6520 C   0  0  0  0  0  0  0  0  0  0  0  0
   38.5430   26.9150   42.8350 N   0  0  0  0  0  0  0  0  0  0  0  0
   38.4980   23.7540   41.5210 H   0  0  0  0  0  0  0  0  0  0  0  0
   40.2990   23.5380   43.0690 H   0  0  0  0  0  0  0  0  0  0  0  0
   39.9150   27.4580   44.2860 H   0  0  0  0  0  0  0  0  0  0  0  0
  1  4  1  6  0  0  0
  1  3  1  0  0  0  0
  1 17  1  0  0  0  0
  2  5  1  0  0  0  0
  2  1  1  0  0  0  0
  2  3  1  0  0  0  0
  3  7  1  1  0  0  0
  6  2  1  0  0  0  0
  8 15  1  1  0  0  0
  9  8  1  0  0  0  0
  9  3  1  0  0  0  0
  9 10  1  1  0  0  0
 11 10  1  0  0  0  0
 12 10  1  0  0  0  0
 13  8  1  0  0  0  0
 13 14  1  0  0  0  0
 13 12  1  0  0  0  0
 15 16  1  0  0  0  0
 17 19  1  0  0  0  0
 17 20  1  0  0  0  0
 18 17  1  0  0  0  0
 20 21  2  0  0  0  0
 20 25  1  0  0  0  0
 21 22  1  0  0  0  0
 22 27  1  0  0  0  0
 22 23  2  0  0  0  0
 24 23  1  0  0  0  0
 24 28  1  0  0  0  0
 25 24  2  0  0  0  0
 26 21  1  0  0  0  0
M  END
>  <minimizedAffinity>
-4.6639595

$$$$

 OpenBabel03252500423D

 28 30  0  0  1  0  0  0  0  0999 V2000
   38.0610   27.3240   42.5290 C   0  0  1  0  0  0  0  0  0  0  0  0
   36.5980   27.4630   42.8810 C   0  0  0  0  0  0  0  0  0  0  0  0
   37.3650   28.6280   42.3230 C   0  0  2  0  0  0  0  0  0  0  0  0
   38.1860   26.7610   41.5910 H   0  0  0  0  0  0  0  0  0  0  0  0
   36.3500   27.5130   43.9860 H   0  0  0  0  0  0  0  0  0  0  0  0
   35.8340   26.9660   42.2950 H   0  0  0  0  0  0  0  0  0  0  0  0
   37.6580   29.4240   43.0790 H   0  0  0  0  0  0  0  0  0  0  0  0
   35.9050   29.8440   40.6420 C   0  0  2  0  0  3  0  0  0  0  0  0
   37.2090   29.1420   40.9500 C   0  0  1  0  0  3  0  0  0  0  0  0
   38.1700   30.2300   40.5370 C   0  0  0  0  0  3  0  0  0  0  0  0
   39.1340   29.7590   40.2490 H   0  0  0  0  0  0  0  0  0  0  0  0
   37.5610   30.9260   39.5010 O   0  0  0  0  0  0  0  0  0  0  0  0
   36.3180   30.3590   39.2420 C   0  0  0  0  0  3  0  0  0  0  0  0
   35.6070   31.0770   38.8380 H   0  0  0  0  0  0  0  0  0  0  0  0
   35.7860   30.9680   41.4610 O   0  0  0  0  0  0  0  0  0  0  0  0
   36.3790   31.6910   41.1320 H   0  0  0  0  0  0  0  0  0  0  0  0
   39.0080   27.2170   43.6790 C   0  0  0  0  0  0  0  0  0  0  0  0
   38.6410   26.4890   44.4590 H   0  0  0  0  0  0  0  0  0  0  0  0
   39.0550   28.2210   44.1840 H   0  0  0  0  0  0  0  0  0  0  0  0
   40.3420   26.7350   43.2750 C   0  0  0  0  0  0  0  0  0  0  0  0
   41.2150   27.7360   42.9000 C   0  0  0  0  0  0  0  0  0  0  0  0
   42.5200   27.4260   42.4800 C   0  0  0  0  0  0  0  0  0  0  0  0
   42.8460   26.0990   42.4720 N   0  0  0  0  0  0  0  0  0  0  0  0
   41.9650   25.1330   42.8470 C   0  0  0  0  0  0  0  0  0  0  0  0
   40.7300   25.4490   43.2430 N   0  0  0  0  0  0  0  0  0  0  0  0
   41.2140   28.8130   42.8260 H   0  0  0  0  0  0  0  0  0  0  0  0
   43.3520   27.9950   42.1530 H   0  0  0  0  0  0  0  0  0  0  0  0
   42.2340   24.0870   42.8380 H   0  0  0  0  0  0  0  0  0  0  0  0
  1  4  1  6  0  0  0
  1  2  1  0  0  0  0
  1 17  1  0  0  0  0
  2  5  1  0  0  0  0
  3  1  1  0  0  0  0
  3  2  1  0  0  0  0
  3  7  1  1  0  0  0
  6  2  1  0  0  0  0
  8  9  1  0  0  0  0
  8 15  1  1  0  0  0
  9 10  1  1  0  0  0
  9  3  1  0  0  0  0
 11 10  1  0  0  0  0
 12 10  1  0  0  0  0
 13 12  1  0  0  0  0
 13  8  1  0  0  0  0
 14 13  1  0  0  0  0
 16 15  1  0  0  0  0
 17 19  1  0  0  0  0
 17 18  1  0  0  0  0
 20 17  1  0  0  0  0
 21 20  2  0  0  0  0
 22 21  1  0  0  0  0
 23 22  2  0  0  0  0
 23 24  1  0  0  0  0
 24 25  2  0  0  0  0
 25 20  1  0  0  0  0
 26 21  1  0  0  0  0
 27 22  1  0  0  0  0
 28 24  1  0  0  0  0
M  END
>  <minimizedAffinity>
-4.54889965

$$$$

 OpenBabel03252500423D

 28 30  0  0  1  0  0  0  0  0999 V2000
   37.0590   29.2720   38.7460 C   0  0  1  0  0  0  0  0  0  0  0  0
   36.6910   30.1900   37.6040 C   0  0  0  0  0  0  0  0  0  0  0  0
   36.8640   30.7300   38.9950 C   0  0  2  0  0  0  0  0  0  0  0  0
   38.1230   28.9920   38.6950 H   0  0  0  0  0  0  0  0  0  0  0  0
   35.6240   30.1190   37.2270 H   0  0  0  0  0  0  0  0  0  0  0  0
   37.4030   30.4220   36.8230 H   0  0  0  0  0  0  0  0  0  0  0  0
   35.9000   30.9720   39.5460 H   0  0  0  0  0  0  0  0  0  0  0  0
   37.8640   33.0390   39.3220 C   0  0  2  0  0  3  0  0  0  0  0  0
   38.0170   31.5380   39.4330 C   0  0  1  0  0  3  0  0  0  0  0  0
   38.3770   31.4410   40.8950 C   0  0  0  0  0  3  0  0  0  0  0  0
   38.9690   30.5140   41.0520 H   0  0  0  0  0  0  0  0  0  0  0  0
   39.0700   32.6020   41.2120 O   0  0  0  0  0  0  0  0  0  0  0  0
   39.1690   33.3960   40.0750 C   0  0  0  0  0  3  0  0  0  0  0  0
   39.2330   34.4560   40.3110 H   0  0  0  0  0  0  0  0  0  0  0  0
   36.8080   33.4520   40.1360 O   0  0  0  0  0  0  0  0  0  0  0  0
   37.0890   33.4410   41.0860 H   0  0  0  0  0  0  0  0  0  0  0  0
   35.9900   28.3390   39.2130 C   0  0  0  0  0  0  0  0  0  0  0  0
   35.7020   27.5970   38.4130 H   0  0  0  0  0  0  0  0  0  0  0  0
   35.0680   28.9470   39.4250 H   0  0  0  0  0  0  0  0  0  0  0  0
   36.4050   27.5340   40.3770 C   0  0  0  0  0  0  0  0  0  0  0  0
   36.3460   28.2070   41.5800 C   0  0  0  0  0  0  0  0  0  0  0  0
   36.7220   27.5710   42.7750 C   0  0  0  0  0  0  0  0  0  0  0  0
   37.1380   26.2740   42.6570 N   0  0  0  0  0  0  0  0  0  0  0  0
   37.1870   25.6350   41.4580 C   0  0  0  0  0  0  0  0  0  0  0  0
   36.8250   26.2580   40.3340 N   0  0  0  0  0  0  0  0  0  0  0  0
   36.0590   29.1850   41.9370 H   0  0  0  0  0  0  0  0  0  0  0  0
   36.7630   27.8630   43.7930 H   0  0  0  0  0  0  0  0  0  0  0  0
   37.5170   24.6100   41.3750 H   0  0  0  0  0  0  0  0  0  0  0  0
  1  4  1  1  0  0  0
  1  3  1  0  0  0  0
  1 17  1  0  0  0  0
  2  1  1  0  0  0  0
  2  3  1  0  0  0  0
  3  9  1  0  0  0  0
  3  7  1  1  0  0  0
  5  2  1  0  0  0  0
  6  2  1  0  0  0  0
  8  9  1  0  0  0  0
  8 13  1  0  0  0  0
  8 15  1  1  0  0  0
  9 10  1  1  0  0  0
 10 11  1  0  0  0  0
 10 12  1  0  0  0  0
 13 14  1  0  0  0  0
 13 12  1  0  0  0  0
 15 16  1  0  0  0  0
 17 19  1  0  0  0  0
 17 20  1  0  0  0  0
 18 17  1  0  0  0  0
 20 21  1  0  0  0  0
 21 26  1  0  0  0  0
 21 22  2  0  0  0  0
 22 27  1  0  0  0  0
 23 22  1  0  0  0  0
 24 23  2  0  0  0  0
 25 20  2  0  0  0  0
 25 24  1  0  0  0  0
 28 24  1  0  0  0  0
M  END
>  <minimizedAffinity>
-4.54732132

$$$$

 OpenBabel03252500423D

 28 30  0  0  1  0  0  0  0  0999 V2000
   36.9730   28.1220   42.0980 C   0  0  1  0  0  0  0  0  0  0  0  0
   36.5400   27.2260   43.2360 C   0  0  0  0  0  0  0  0  0  0  0  0
   37.2620   26.6590   42.0460 C   0  0  2  0  0  0  0  0  0  0  0  0
   37.8550   28.7160   42.3830 H   0  0  0  0  0  0  0  0  0  0  0  0
   35.4310   26.9980   43.3000 H   0  0  0  0  0  0  0  0  0  0  0  0
   37.0200   27.2830   44.2040 H   0  0  0  0  0  0  0  0  0  0  0  0
   36.6110   26.0940   41.3060 H   0  0  0  0  0  0  0  0  0  0  0  0
   38.9750   25.0160   42.9420 C   0  0  2  0  0  3  0  0  0  0  0  0
   38.6660   26.2100   42.0660 C   0  0  1  0  0  3  0  0  0  0  0  0
   39.2160   25.6970   40.7570 C   0  0  0  0  0  3  0  0  0  0  0  0
   39.5040   26.5670   40.1300 H   0  0  0  0  0  0  0  0  0  0  0  0
   40.2800   24.8620   41.0740 O   0  0  0  0  0  0  0  0  0  0  0  0
   40.4330   24.8240   42.4550 C   0  0  0  0  0  3  0  0  0  0  0  0
   40.8650   23.8880   42.8020 H   0  0  0  0  0  0  0  0  0  0  0  0
   38.2530   23.9140   42.4830 O   0  0  0  0  0  0  0  0  0  0  0  0
   38.6700   23.5550   41.6590 H   0  0  0  0  0  0  0  0  0  0  0  0
   35.8840   28.6460   41.2210 C   0  0  0  0  0  0  0  0  0  0  0  0
   34.9800   28.9630   41.8170 H   0  0  0  0  0  0  0  0  0  0  0  0
   35.5420   27.8070   40.5540 H   0  0  0  0  0  0  0  0  0  0  0  0
   36.2950   29.8350   40.4510 C   0  0  0  0  0  0  0  0  0  0  0  0
   36.3980   29.6210   39.0920 C   0  0  0  0  0  0  0  0  0  0  0  0
   36.7900   30.6600   38.2320 C   0  0  0  0  0  0  0  0  0  0  0  0
   37.0540   31.8620   38.8280 N   0  0  0  0  0  0  0  0  0  0  0  0
   36.9450   32.0450   40.1710 C   0  0  0  0  0  0  0  0  0  0  0  0
   36.5700   31.0440   40.9700 N   0  0  0  0  0  0  0  0  0  0  0  0
   36.2450   28.8100   38.3960 H   0  0  0  0  0  0  0  0  0  0  0  0
   36.9390   30.7460   37.1860 H   0  0  0  0  0  0  0  0  0  0  0  0
   37.1550   32.9990   40.6320 H   0  0  0  0  0  0  0  0  0  0  0  0
  1  4  1  1  0  0  0
  1  2  1  0  0  0  0
  2  5  1  0  0  0  0
  2  6  1  0  0  0  0
  3  7  1  6  0  0  0
  3  9  1  0  0  0  0
  3  1  1  0  0  0  0
  3  2  1  0  0  0  0
  8 15  1  6  0  0  0
  9 10  1  6  0  0  0
  9  8  1  0  0  0  0
 10 12  1  0  0  0  0
 11 10  1  0  0  0  0
 12 13  1  0  0  0  0
 13 14  1  0  0  0  0
 13  8  1  0  0  0  0
 16 15  1  0  0  0  0
 17 18  1  0  0  0  0
 17  1  1  0  0  0  0
 19 17  1  0  0  0  0
 20 25  1  0  0  0  0
 20 17  1  0  0  0  0
 21 20  2  0  0  0  0
 22 23  2  0  0  0  0
 22 21  1  0  0  0  0
 23 24  1  0  0  0  0
 24 28  1  0  0  0  0
 24 25  2  0  0  0  0
 26 21  1  0  0  0  0
 27 22  1  0  0  0  0
M  END
>  <minimizedAffinity>
-4.5434742

$$$$

 OpenBabel03252500423D

 28 30  0  0  1  0  0  0  0  0999 V2000
   36.1230   30.0360   40.8240 C   0  0  1  0  0  0  0  0  0  0  0  0
   35.0750   29.0170   40.4400 C   0  0  0  0  0  0  0  0  0  0  0  0
   36.5230   28.6260   40.5420 C   0  0  2  0  0  0  0  0  0  0  0  0
   36.0800   30.2530   41.9020 H   0  0  0  0  0  0  0  0  0  0  0  0
   34.6550   29.1000   39.3900 H   0  0  0  0  0  0  0  0  0  0  0  0
   34.3500   28.6630   41.1620 H   0  0  0  0  0  0  0  0  0  0  0  0
   37.0620   28.4960   39.5500 H   0  0  0  0  0  0  0  0  0  0  0  0
   38.5200   27.3600   41.4630 C   0  0  2  0  0  3  0  0  0  0  0  0
   37.0870   27.8140   41.6350 C   0  0  1  0  0  3  0  0  0  0  0  0
   37.2110   28.5000   42.9740 C   0  0  0  0  0  3  0  0  0  0  0  0
   36.2190   28.4820   43.4730 H   0  0  0  0  0  0  0  0  0  0  0  0
   38.2000   27.8230   43.6770 O   0  0  0  0  0  0  0  0  0  0  0  0
   38.6860   26.7840   42.8910 C   0  0  0  0  0  3  0  0  0  0  0  0
   39.7200   26.5360   43.1190 H   0  0  0  0  0  0  0  0  0  0  0  0
   39.3470   28.4800   41.3860 O   0  0  0  0  0  0  0  0  0  0  0  0
   39.4660   28.8760   42.2870 H   0  0  0  0  0  0  0  0  0  0  0  0
   36.4470   31.0680   39.7940 C   0  0  0  0  0  0  0  0  0  0  0  0
   35.5890   31.7830   39.6330 H   0  0  0  0  0  0  0  0  0  0  0  0
   36.6060   30.5410   38.8130 H   0  0  0  0  0  0  0  0  0  0  0  0
   37.6030   31.9040   40.1700 C   0  0  0  0  0  0  0  0  0  0  0  0
   37.4830   33.2290   39.8060 C   0  0  0  0  0  0  0  0  0  0  0  0
   38.5120   34.1440   40.0880 C   0  0  0  0  0  0  0  0  0  0  0  0
   39.6050   33.6340   40.7320 N   0  0  0  0  0  0  0  0  0  0  0  0
   39.6960   32.3230   41.0790 C   0  0  0  0  0  0  0  0  0  0  0  0
   38.7070   31.4700   40.8010 N   0  0  0  0  0  0  0  0  0  0  0  0
   36.7570   33.8640   39.3200 H   0  0  0  0  0  0  0  0  0  0  0  0
   38.6550   35.1800   39.9180 H   0  0  0  0  0  0  0  0  0  0  0  0
   40.5640   31.9300   41.5880 H   0  0  0  0  0  0  0  0  0  0  0  0
  1  4  1  1  0  0  0
  2  3  1  0  0  0  0
  2  1  1  0  0  0  0
  2  6  1  0  0  0  0
  3  7  1  6  0  0  0
  3  1  1  0  0  0  0
  3  9  1  0  0  0  0
  5  2  1  0  0  0  0
  8 15  1  1  0  0  0
  8  9  1  0  0  0  0
  8 13  1  0  0  0  0
  9 10  1  1  0  0  0
 10 11  1  0  0  0  0
 10 12  1  0  0  0  0
 13 14  1  0  0  0  0
 13 12  1  0  0  0  0
 15 16  1  0  0  0  0
 17 20  1  0  0  0  0
 17  1  1  0  0  0  0
 18 17  1  0  0  0  0
 19 17  1  0  0  0  0
 20 25  1  0  0  0  0
 21 22  1  0  0  0  0
 21 20  2  0  0  0  0
 22 23  2  0  0  0  0
 23 24  1  0  0  0  0
 24 28  1  0  0  0  0
 25 24  2  0  0  0  0
 26 21  1  0  0  0  0
 27 22  1  0  0  0  0
M  END
>  <minimizedAffinity>
-4.53792906

$$$$
