
 OpenBabel03252509303D

 21 22  0  0  1  0  0  0  0  0999 V2000
   46.8640   34.9640   41.9370 C   0  0  0  0  0  0  0  0  0  0  0  0
   47.9400   35.1860   42.0700 H   0  0  0  0  0  0  0  0  0  0  0  0
   46.4670   35.7740   41.2910 H   0  0  0  0  0  0  0  0  0  0  0  0
   44.5270   35.8660   44.6770 C   0  0  0  0  0  0  0  0  0  0  0  0
   45.2080   35.9130   43.4450 C   0  0  0  0  0  0  0  0  0  0  0  0
   46.1550   34.9210   43.2120 C   0  0  0  0  0  0  0  0  0  0  0  0
   46.3780   33.9680   44.1650 N   0  0  0  0  0  0  0  0  0  0  0  0
   45.6840   33.9780   45.3430 C   0  0  0  0  0  0  0  0  0  0  0  0
   44.7680   34.9210   45.5890 N   0  0  0  0  0  0  0  0  0  0  0  0
   43.7970   36.6460   44.8330 H   0  0  0  0  0  0  0  0  0  0  0  0
   44.9830   36.6950   42.7350 H   0  0  0  0  0  0  0  0  0  0  0  0
   45.8410   33.2360   46.1140 H   0  0  0  0  0  0  0  0  0  0  0  0
   46.3440   33.1680   38.8480 C   0  0  2  0  0  3  0  0  0  0  0  0
   47.3620   33.7060   39.8180 C   0  0  0  0  0  3  0  0  0  0  0  0
   47.6890   34.7020   39.4690 H   0  0  0  0  0  0  0  0  0  0  0  0
   46.6680   33.6800   41.1320 C   0  0  2  0  0  3  0  0  0  0  0  0
   45.3470   33.3940   40.9580 O   0  0  0  0  0  0  0  0  0  0  0  0
   45.0600   33.3000   39.6220 C   0  0  0  0  0  3  0  0  0  0  0  0
   44.4570   32.3770   39.4310 H   0  0  0  0  0  0  0  0  0  0  0  0
   46.5880   31.8510   38.4770 O   0  0  0  0  0  0  0  0  0  0  0  0
   47.2760   31.8150   37.7780 H   0  0  0  0  0  0  0  0  0  0  0  0
  1  2  1  0  0  0  0
  1  6  1  0  0  0  0
  3  1  1  0  0  0  0
  4 10  1  0  0  0  0
  4  9  1  0  0  0  0
  5  4  2  0  0  0  0
  6  5  1  0  0  0  0
  6  7  2  0  0  0  0
  7  8  1  0  0  0  0
  8  9  2  0  0  0  0
  8 12  1  0  0  0  0
 11  5  1  0  0  0  0
 13 20  1  1  0  0  0
 13 18  1  0  0  0  0
 13 14  1  0  0  0  0
 14 16  1  0  0  0  0
 15 14  1  0  0  0  0
 16  1  1  6  0  0  0
 17 16  1  0  0  0  0
 18 17  1  0  0  0  0
 19 18  1  0  0  0  0
 21 20  1  0  0  0  0
M  END
>  <minimizedAffinity>
-3.73988914

>  <minimizedRMSD>
0.974187732

$$$$
