
 OpenBabel03252503003D

 22 23  0  0  1  0  0  0  0  0999 V2000
   43.1900   33.9780   40.3980 C   0  0  0  0  0  0  0  0  0  0  0  0
   43.6090   33.9300   39.3770 H   0  0  0  0  0  0  0  0  0  0  0  0
   43.5620   33.0660   40.9440 H   0  0  0  0  0  0  0  0  0  0  0  0
   40.9020   34.5110   38.1850 C   0  0  1  0  0  3  0  0  0  0  0  0
   41.4260   33.2710   38.9070 C   0  0  0  0  0  3  0  0  0  0  0  0
   42.3480   32.9860   38.3580 H   0  0  0  0  0  0  0  0  0  0  0  0
   41.7060   33.8340   40.2910 C   0  0  2  0  0  3  0  0  0  0  0  0
   41.1120   35.0860   40.3420 O   0  0  0  0  0  0  0  0  0  0  0  0
   40.1530   35.1550   39.3570 C   0  0  0  0  0  3  0  0  0  0  0  0
   39.9420   36.1860   39.0450 H   0  0  0  0  0  0  0  0  0  0  0  0
   41.9670   35.3310   37.8650 O   0  0  0  0  0  0  0  0  0  0  0  0
   42.3770   35.0960   37.0080 H   0  0  0  0  0  0  0  0  0  0  0  0
   43.7570   35.4190   41.2940 S   0  0  0  0  0  0  0  0  0  0  0  0
   44.3150   35.7830   43.9720 C   0  0  0  0  0  0  0  0  0  0  0  0
   44.3920   34.8960   42.9040 C   0  0  0  0  0  0  0  0  0  0  0  0
   44.9410   33.6400   43.0560 C   0  0  0  0  0  0  0  0  0  0  0  0
   45.4030   33.3260   44.3150 N   0  0  0  0  0  0  0  0  0  0  0  0
   45.3140   34.2010   45.3200 C   0  0  0  0  0  0  0  0  0  0  0  0
   44.7920   35.4110   45.1990 N   0  0  0  0  0  0  0  0  0  0  0  0
   43.8920   36.7760   43.9050 H   0  0  0  0  0  0  0  0  0  0  0  0
   45.0080   32.9360   42.2210 H   0  0  0  0  0  0  0  0  0  0  0  0
   45.6950   33.9130   46.3110 H   0  0  0  0  0  0  0  0  0  0  0  0
  1  3  1  0  0  0  0
  1 13  1  0  0  0  0
  2  1  1  0  0  0  0
  4 11  1  1  0  0  0
  4  5  1  0  0  0  0
  4  9  1  0  0  0  0
  5  7  1  0  0  0  0
  6  5  1  0  0  0  0
  7  8  1  0  0  0  0
  7  1  1  6  0  0  0
  9  8  1  0  0  0  0
 10  9  1  0  0  0  0
 12 11  1  0  0  0  0
 13 15  1  0  0  0  0
 14 19  1  0  0  0  0
 15 16  1  0  0  0  0
 15 14  2  0  0  0  0
 16 17  2  0  0  0  0
 17 18  1  0  0  0  0
 18 22  1  0  0  0  0
 19 18  2  0  0  0  0
 20 14  1  0  0  0  0
 21 16  1  0  0  0  0
M  END
>  <minimizedAffinity>
-3.92584848

>  <minimizedRMSD>
1.63853061

$$$$
