
 OpenBabel03252503003D

 22 23  0  0  1  0  0  0  0  0999 V2000
   43.3100   34.0900   40.5940 C   0  0  0  0  0  0  0  0  0  0  0  0
   43.7240   34.0120   39.5720 H   0  0  0  0  0  0  0  0  0  0  0  0
   43.6170   33.1540   41.1390 H   0  0  0  0  0  0  0  0  0  0  0  0
   41.0740   34.5560   38.3140 C   0  0  1  0  0  3  0  0  0  0  0  0
   41.4970   33.3650   39.1720 C   0  0  0  0  0  3  0  0  0  0  0  0
   42.3940   32.9490   38.6660 H   0  0  0  0  0  0  0  0  0  0  0  0
   41.8200   34.0530   40.4890 C   0  0  2  0  0  3  0  0  0  0  0  0
   41.3260   35.3470   40.3960 O   0  0  0  0  0  0  0  0  0  0  0  0
   40.3780   35.3810   39.4020 C   0  0  0  0  0  3  0  0  0  0  0  0
   40.2500   36.3850   38.9760 H   0  0  0  0  0  0  0  0  0  0  0  0
   42.2010   35.2490   37.9160 O   0  0  0  0  0  0  0  0  0  0  0  0
   42.5920   34.8890   37.0930 H   0  0  0  0  0  0  0  0  0  0  0  0
   43.9810   35.4870   41.4880 S   0  0  0  0  0  0  0  0  0  0  0  0
   44.3070   35.7710   44.2130 C   0  0  0  0  0  0  0  0  0  0  0  0
   44.5170   34.9330   43.1240 C   0  0  0  0  0  0  0  0  0  0  0  0
   45.1220   33.7030   43.2730 C   0  0  0  0  0  0  0  0  0  0  0  0
   45.5020   33.3630   44.5530 N   0  0  0  0  0  0  0  0  0  0  0  0
   45.2870   34.1910   45.5790 C   0  0  0  0  0  0  0  0  0  0  0  0
   44.7080   35.3750   45.4600 N   0  0  0  0  0  0  0  0  0  0  0  0
   43.8360   36.7420   44.1490 H   0  0  0  0  0  0  0  0  0  0  0  0
   45.2930   33.0380   42.4210 H   0  0  0  0  0  0  0  0  0  0  0  0
   45.6040   33.8830   46.5860 H   0  0  0  0  0  0  0  0  0  0  0  0
  1  3  1  0  0  0  0
  1 13  1  0  0  0  0
  2  1  1  0  0  0  0
  4 11  1  1  0  0  0
  4  5  1  0  0  0  0
  4  9  1  0  0  0  0
  5  7  1  0  0  0  0
  6  5  1  0  0  0  0
  7  1  1  6  0  0  0
  8  7  1  0  0  0  0
  9  8  1  0  0  0  0
 10  9  1  0  0  0  0
 12 11  1  0  0  0  0
 13 15  1  0  0  0  0
 14 19  1  0  0  0  0
 15 16  1  0  0  0  0
 15 14  2  0  0  0  0
 16 17  2  0  0  0  0
 17 18  1  0  0  0  0
 18 22  1  0  0  0  0
 19 18  2  0  0  0  0
 20 14  1  0  0  0  0
 21 16  1  0  0  0  0
M  END
>  <minimizedAffinity>
-3.94605398

>  <minimizedRMSD>
2.33414483

$$$$
