
     RDKit          3D

 25 26  0  0  0  0  0  0  0  0999 V2000
   44.5681   36.0012   44.4938 C   0  0  0  0  0  0  0  0  0  0  0  0
   45.3045   35.9240   43.2954 C   0  0  0  0  0  0  0  0  0  0  0  0
   46.1920   34.8614   43.1703 C   0  0  0  0  0  0  0  0  0  0  0  0
   46.3095   33.9591   44.1898 N   0  0  0  0  0  0  0  0  0  0  0  0
   45.5648   34.0899   45.3302 C   0  0  0  0  0  0  0  0  0  0  0  0
   44.7047   35.1038   45.4730 N   0  0  0  0  0  0  0  0  0  0  0  0
   46.9583   34.7756   41.9305 C   0  0  0  0  0  0  0  0  0  0  0  0
   43.8861   36.8353   44.5661 H   0  0  0  0  0  0  0  0  0  0  0  0
   45.1639   36.6709   42.5279 H   0  0  0  0  0  0  0  0  0  0  0  0
   45.6378   33.3907   46.1523 H   0  0  0  0  0  0  0  0  0  0  0  0
   47.9790   34.3845   42.1020 H   0  0  0  0  0  0  0  0  0  0  0  0
   47.0917   35.7804   41.4792 H   0  0  0  0  0  0  0  0  0  0  0  0
   43.6858   32.6226   39.4009 O   0  0  0  0  0  0  0  0  0  0  0  0
   44.0952   32.9597   40.6866 C   0  0  2  0  0  0  0  0  0  0  0  0
   44.7903   34.2944   40.7525 C   0  0  2  0  0  0  0  0  0  0  0  0
   44.3665   34.8710   41.5931 H   0  0  0  0  0  0  0  0  0  0  0  0
   46.2324   33.9541   40.8671 C   0  0  2  0  0  0  0  0  0  0  0  0
   46.3807   32.6148   41.0785 O   0  0  0  0  0  0  0  0  0  0  0  0
   45.1537   32.0209   41.1993 C   0  0  2  0  0  0  0  0  0  0  0  0
   45.1180   31.0991   40.5660 H   0  0  0  0  0  0  0  0  0  0  0  0
   42.8426   33.0752   39.1832 H   0  0  0  0  0  0  0  0  0  0  0  0
   43.1937   32.9618   41.3332 H   0  0  0  0  0  0  0  0  0  0  0  0
   44.6114   34.8771   39.8248 H   0  0  0  0  0  0  0  0  0  0  0  0
   46.7903   34.1868   39.9151 H   0  0  0  0  0  0  0  0  0  0  0  0
   44.9643   31.8161   42.2656 H   0  0  0  0  0  0  0  0  0  0  0  0
  1  6  2  0
  2  1  1  0
  3  2  2  0
  3  4  1  0
  4  5  2  0
  5  6  1  0
  7  3  1  0
  1  8  1  0
  2  9  1  0
  5 10  1  0
  7 11  1  0
  7 12  1  0
 13 14  1  0
 14 15  1  0
 15 16  1  1
 15 17  1  0
 17 18  1  0
 18 19  1  0
 19 20  1  6
 19 14  1  0
 13 21  1  0
 14 22  1  1
 15 23  1  0
 17 24  1  6
 19 25  1  0
  7 17  1  0
M  ISO  7   8  14   9  14  10  14  11   8  12   8  16   8  20  16
M  END
>  <DihAtoms>  (1) 
2,6,16,14

>  <DihDeg>  (1) 
-59.9999166860849

$$$$
