
 OpenBabel03252502593D

 22 23  0  0  1  0  0  0  0  0999 V2000
   43.3150   34.1760   40.5180 C   0  0  0  0  0  0  0  0  0  0  0  0
   43.3900   34.3970   39.4380 H   0  0  0  0  0  0  0  0  0  0  0  0
   44.0320   33.3330   40.7260 H   0  0  0  0  0  0  0  0  0  0  0  0
   40.3250   34.6450   39.3980 C   0  0  1  0  0  3  0  0  0  0  0  0
   41.2850   33.4590   39.4240 C   0  0  0  0  0  3  0  0  0  0  0  0
   41.9800   33.6300   38.5740 H   0  0  0  0  0  0  0  0  0  0  0  0
   41.9440   33.6430   40.7820 C   0  0  2  0  0  3  0  0  0  0  0  0
   41.1960   34.5930   41.4620 O   0  0  0  0  0  0  0  0  0  0  0  0
   39.9510   34.6660   40.8840 C   0  0  0  0  0  3  0  0  0  0  0  0
   39.4630   35.6340   41.0540 H   0  0  0  0  0  0  0  0  0  0  0  0
   41.0400   35.7980   39.1280 O   0  0  0  0  0  0  0  0  0  0  0  0
   41.1460   35.9570   38.1680 H   0  0  0  0  0  0  0  0  0  0  0  0
   43.8030   35.5690   41.5280 S   0  0  0  0  0  0  0  0  0  0  0  0
   44.2900   35.7560   44.2380 C   0  0  0  0  0  0  0  0  0  0  0  0
   44.4300   34.9560   43.1100 C   0  0  0  0  0  0  0  0  0  0  0  0
   45.0350   33.7180   43.1810 C   0  0  0  0  0  0  0  0  0  0  0  0
   45.4860   33.3320   44.4230 N   0  0  0  0  0  0  0  0  0  0  0  0
   45.3370   34.1240   45.4880 C   0  0  0  0  0  0  0  0  0  0  0  0
   44.7600   35.3140   45.4450 N   0  0  0  0  0  0  0  0  0  0  0  0
   43.8220   36.7310   44.2350 H   0  0  0  0  0  0  0  0  0  0  0  0
   45.1500   33.0830   42.2970 H   0  0  0  0  0  0  0  0  0  0  0  0
   45.7100   33.7800   46.4640 H   0  0  0  0  0  0  0  0  0  0  0  0
  1  3  1  0  0  0  0
  1 13  1  0  0  0  0
  2  1  1  0  0  0  0
  4 11  1  1  0  0  0
  4  5  1  0  0  0  0
  4  9  1  0  0  0  0
  5  7  1  0  0  0  0
  6  5  1  0  0  0  0
  7  1  1  6  0  0  0
  7  8  1  0  0  0  0
  9 10  1  0  0  0  0
  9  8  1  0  0  0  0
 12 11  1  0  0  0  0
 13 15  1  0  0  0  0
 14 19  1  0  0  0  0
 15 16  1  0  0  0  0
 15 14  2  0  0  0  0
 16 17  2  0  0  0  0
 17 18  1  0  0  0  0
 18 22  1  0  0  0  0
 19 18  2  0  0  0  0
 20 14  1  0  0  0  0
 21 16  1  0  0  0  0
M  END
>  <minimizedAffinity>
-3.84086204

>  <minimizedRMSD>
0.917935967

$$$$
