
 OpenBabel03252503003D

 22 23  0  0  1  0  0  0  0  0999 V2000
   42.5350   34.2520   40.9280 C   0  0  0  0  0  0  0  0  0  0  0  0
   42.9320   33.4700   40.2550 H   0  0  0  0  0  0  0  0  0  0  0  0
   42.1480   33.7230   41.8440 H   0  0  0  0  0  0  0  0  0  0  0  0
   40.8210   33.8110   38.2290 C   0  0  1  0  0  3  0  0  0  0  0  0
   40.5100   33.7260   39.7210 C   0  0  0  0  0  3  0  0  0  0  0  0
   40.8800   32.7280   40.0370 H   0  0  0  0  0  0  0  0  0  0  0  0
   41.3500   34.8720   40.2630 C   0  0  2  0  0  3  0  0  0  0  0  0
   41.7640   35.6150   39.1680 O   0  0  0  0  0  0  0  0  0  0  0  0
   40.9330   35.3360   38.1090 C   0  0  0  0  0  3  0  0  0  0  0  0
   41.4090   35.5230   37.1380 H   0  0  0  0  0  0  0  0  0  0  0  0
   42.0750   33.2780   37.9980 O   0  0  0  0  0  0  0  0  0  0  0  0
   42.0510   32.3080   37.8630 H   0  0  0  0  0  0  0  0  0  0  0  0
   43.8050   35.3970   41.4540 S   0  0  0  0  0  0  0  0  0  0  0  0
   44.2570   35.7500   44.1530 C   0  0  0  0  0  0  0  0  0  0  0  0
   44.4200   34.8860   43.0760 C   0  0  0  0  0  0  0  0  0  0  0  0
   45.0380   33.6620   43.2270 C   0  0  0  0  0  0  0  0  0  0  0  0
   45.4790   33.3560   44.4950 N   0  0  0  0  0  0  0  0  0  0  0  0
   45.3070   34.2080   45.5100 C   0  0  0  0  0  0  0  0  0  0  0  0
   44.7180   35.3860   45.3890 N   0  0  0  0  0  0  0  0  0  0  0  0
   43.7780   36.7170   44.0870 H   0  0  0  0  0  0  0  0  0  0  0  0
   45.1720   32.9770   42.3840 H   0  0  0  0  0  0  0  0  0  0  0  0
   45.6740   33.9270   46.5080 H   0  0  0  0  0  0  0  0  0  0  0  0
  1 13  1  0  0  0  0
  1  3  1  0  0  0  0
  2  1  1  0  0  0  0
  4 11  1  1  0  0  0
  4  5  1  0  0  0  0
  5  6  1  0  0  0  0
  5  7  1  0  0  0  0
  7  1  1  6  0  0  0
  8  7  1  0  0  0  0
  9  4  1  0  0  0  0
  9  8  1  0  0  0  0
 10  9  1  0  0  0  0
 12 11  1  0  0  0  0
 13 15  1  0  0  0  0
 14 19  1  0  0  0  0
 15 16  1  0  0  0  0
 15 14  2  0  0  0  0
 16 17  2  0  0  0  0
 17 18  1  0  0  0  0
 18 22  1  0  0  0  0
 19 18  2  0  0  0  0
 20 14  1  0  0  0  0
 21 16  1  0  0  0  0
M  END
>  <minimizedAffinity>
-3.98675799

>  <minimizedRMSD>
2.48615503

$$$$
