
 OpenBabel03252502593D

 22 23  0  0  1  0  0  0  0  0999 V2000
   41.9970   34.3260   40.6710 C   0  0  0  0  0  0  0  0  0  0  0  0
   41.6290   33.3620   40.2760 H   0  0  0  0  0  0  0  0  0  0  0  0
   41.6310   34.4020   41.7340 H   0  0  0  0  0  0  0  0  0  0  0  0
   40.3120   34.6350   37.9350 C   0  0  1  0  0  3  0  0  0  0  0  0
   40.0020   34.8530   39.4150 C   0  0  0  0  0  3  0  0  0  0  0  0
   39.7860   33.8400   39.8160 H   0  0  0  0  0  0  0  0  0  0  0  0
   41.3220   35.4210   39.9100 C   0  0  2  0  0  3  0  0  0  0  0  0
   42.0690   35.7380   38.7850 O   0  0  0  0  0  0  0  0  0  0  0  0
   41.2160   35.8530   37.7120 C   0  0  0  0  0  3  0  0  0  0  0  0
   41.7190   35.6770   36.7530 H   0  0  0  0  0  0  0  0  0  0  0  0
   41.0920   33.5000   37.8000 O   0  0  0  0  0  0  0  0  0  0  0  0
   40.5570   32.6840   37.7320 H   0  0  0  0  0  0  0  0  0  0  0  0
   43.7840   34.4040   40.7030 S   0  0  0  0  0  0  0  0  0  0  0  0
   44.2050   35.6810   43.1120 C   0  0  0  0  0  0  0  0  0  0  0  0
   44.3370   34.4810   42.4220 C   0  0  0  0  0  0  0  0  0  0  0  0
   44.8790   33.3650   43.0250 C   0  0  0  0  0  0  0  0  0  0  0  0
   45.2770   33.5130   44.3350 N   0  0  0  0  0  0  0  0  0  0  0  0
   45.1370   34.6800   44.9700 C   0  0  0  0  0  0  0  0  0  0  0  0
   44.6200   35.7640   44.4140 N   0  0  0  0  0  0  0  0  0  0  0  0
   43.7850   36.5820   42.6860 H   0  0  0  0  0  0  0  0  0  0  0  0
   44.9880   32.4180   42.4890 H   0  0  0  0  0  0  0  0  0  0  0  0
   45.4670   34.7590   46.0160 H   0  0  0  0  0  0  0  0  0  0  0  0
  1 13  1  0  0  0  0
  1  3  1  0  0  0  0
  2  1  1  0  0  0  0
  4 11  1  1  0  0  0
  4  5  1  0  0  0  0
  5  6  1  0  0  0  0
  5  7  1  0  0  0  0
  7  1  1  1  0  0  0
  8  7  1  0  0  0  0
  9  4  1  0  0  0  0
  9  8  1  0  0  0  0
 10  9  1  0  0  0  0
 12 11  1  0  0  0  0
 13 15  1  0  0  0  0
 14 19  1  0  0  0  0
 15 16  1  0  0  0  0
 15 14  2  0  0  0  0
 16 17  2  0  0  0  0
 17 18  1  0  0  0  0
 18 22  1  0  0  0  0
 19 18  2  0  0  0  0
 20 14  1  0  0  0  0
 21 16  1  0  0  0  0
M  END
>  <minimizedAffinity>
-4.10147572

>  <minimizedRMSD>
3.21041703

$$$$
