
 OpenBabel03252503003D

 22 23  0  0  1  0  0  0  0  0999 V2000
   43.0890   33.9320   40.2560 C   0  0  0  0  0  0  0  0  0  0  0  0
   42.6580   32.9280   40.0980 H   0  0  0  0  0  0  0  0  0  0  0  0
   44.0640   33.9580   39.6920 H   0  0  0  0  0  0  0  0  0  0  0  0
   45.5960   34.9370   42.0250 C   0  0  1  0  0  3  0  0  0  0  0  0
   44.1480   35.3950   41.8600 C   0  0  0  0  0  3  0  0  0  0  0  0
   44.1430   36.0040   40.9300 H   0  0  0  0  0  0  0  0  0  0  0  0
   43.4330   34.0620   41.7050 C   0  0  2  0  0  3  0  0  0  0  0  0
   44.3430   33.0770   42.0590 O   0  0  0  0  0  0  0  0  0  0  0  0
   45.3350   33.6520   42.8200 C   0  0  0  0  0  3  0  0  0  0  0  0
   46.2750   33.0850   42.7850 H   0  0  0  0  0  0  0  0  0  0  0  0
   46.0980   34.5740   40.7900 O   0  0  0  0  0  0  0  0  0  0  0  0
   46.4720   35.3330   40.2990 H   0  0  0  0  0  0  0  0  0  0  0  0
   42.0440   35.2260   39.5980 S   0  0  0  0  0  0  0  0  0  0  0  0
   40.0720   34.3500   37.8790 C   0  0  0  0  0  0  0  0  0  0  0  0
   40.4200   34.5290   39.2130 C   0  0  0  0  0  0  0  0  0  0  0  0
   39.5540   34.1880   40.2310 C   0  0  0  0  0  0  0  0  0  0  0  0
   38.3390   33.6670   39.8470 N   0  0  0  0  0  0  0  0  0  0  0  0
   38.0340   33.5080   38.5560 C   0  0  0  0  0  0  0  0  0  0  0  0
   38.8470   33.8270   37.5620 N   0  0  0  0  0  0  0  0  0  0  0  0
   40.7150   34.5980   37.0450 H   0  0  0  0  0  0  0  0  0  0  0  0
   39.8200   34.3270   41.2830 H   0  0  0  0  0  0  0  0  0  0  0  0
   37.0520   33.0890   38.2890 H   0  0  0  0  0  0  0  0  0  0  0  0
  2  1  1  0  0  0  0
  3  1  1  0  0  0  0
  4 11  1  6  0  0  0
  4  9  1  0  0  0  0
  5  4  1  0  0  0  0
  6  5  1  0  0  0  0
  7  1  1  6  0  0  0
  7  5  1  0  0  0  0
  7  8  1  0  0  0  0
  8  9  1  0  0  0  0
 10  9  1  0  0  0  0
 12 11  1  0  0  0  0
 13  1  1  0  0  0  0
 14 15  1  0  0  0  0
 15 13  1  0  0  0  0
 15 16  2  0  0  0  0
 16 21  1  0  0  0  0
 17 16  1  0  0  0  0
 18 17  2  0  0  0  0
 19 14  2  0  0  0  0
 19 18  1  0  0  0  0
 20 14  1  0  0  0  0
 22 18  1  0  0  0  0
M  END
>  <minimizedAffinity>
-3.51490092

>  <minimizedRMSD>
5.78122282

$$$$
