
 OpenBabel03252509303D

 21 22  0  0  1  0  0  0  0  0999 V2000
   37.1880   26.6780   42.5340 C   0  0  0  0  0  0  0  0  0  0  0  0
   36.8060   26.0680   43.3750 H   0  0  0  0  0  0  0  0  0  0  0  0
   36.7570   26.2280   41.6160 H   0  0  0  0  0  0  0  0  0  0  0  0
   40.7340   26.5070   43.6190 C   0  0  0  0  0  0  0  0  0  0  0  0
   39.3260   26.5040   43.6790 C   0  0  0  0  0  0  0  0  0  0  0  0
   38.6460   26.6790   42.4790 C   0  0  0  0  0  0  0  0  0  0  0  0
   39.3540   26.8410   41.3220 N   0  0  0  0  0  0  0  0  0  0  0  0
   40.7220   26.8350   41.3310 C   0  0  0  0  0  0  0  0  0  0  0  0
   41.3980   26.6690   42.4720 N   0  0  0  0  0  0  0  0  0  0  0  0
   41.2380   26.3690   44.5640 H   0  0  0  0  0  0  0  0  0  0  0  0
   38.8270   26.3710   44.6270 H   0  0  0  0  0  0  0  0  0  0  0  0
   41.3070   26.9610   40.4300 H   0  0  0  0  0  0  0  0  0  0  0  0
   36.5580   29.9340   41.1030 C   0  0  2  0  0  3  0  0  0  0  0  0
   36.0330   28.5360   41.2940 C   0  0  0  0  0  3  0  0  0  0  0  0
   36.3100   27.9320   40.4130 H   0  0  0  0  0  0  0  0  0  0  0  0
   36.6180   28.0950   42.5870 C   0  0  2  0  0  3  0  0  0  0  0  0
   37.5520   28.9960   43.0090 O   0  0  0  0  0  0  0  0  0  0  0  0
   37.7110   29.9800   42.0690 C   0  0  0  0  0  3  0  0  0  0  0  0
   37.6920   30.9810   42.5670 H   0  0  0  0  0  0  0  0  0  0  0  0
   35.6120   30.9140   41.3850 O   0  0  0  0  0  0  0  0  0  0  0  0
   35.0090   31.0340   40.6200 H   0  0  0  0  0  0  0  0  0  0  0  0
  1  2  1  0  0  0  0
  3  1  1  0  0  0  0
  4  5  1  0  0  0  0
  4 10  1  0  0  0  0
  5 11  1  0  0  0  0
  6  1  1  0  0  0  0
  6  5  2  0  0  0  0
  7  8  2  0  0  0  0
  7  6  1  0  0  0  0
  8  9  1  0  0  0  0
  9  4  2  0  0  0  0
 12  8  1  0  0  0  0
 13 14  1  0  0  0  0
 13 20  1  1  0  0  0
 13 18  1  0  0  0  0
 14 16  1  0  0  0  0
 15 14  1  0  0  0  0
 16  1  1  6  0  0  0
 16 17  1  0  0  0  0
 18 19  1  0  0  0  0
 18 17  1  0  0  0  0
 21 20  1  0  0  0  0
M  END
>  <minimizedAffinity>
-4.29398251

$$$$

 OpenBabel03252509303D

 21 22  0  0  1  0  0  0  0  0999 V2000
   36.6710   31.0350   40.5080 C   0  0  0  0  0  0  0  0  0  0  0  0
   36.4080   31.9670   41.0430 H   0  0  0  0  0  0  0  0  0  0  0  0
   35.7740   30.7640   39.9160 H   0  0  0  0  0  0  0  0  0  0  0  0
   36.5970   27.7820   42.2950 C   0  0  0  0  0  0  0  0  0  0  0  0
   36.2450   28.8140   41.4030 C   0  0  0  0  0  0  0  0  0  0  0  0
   37.0310   29.9620   41.4290 C   0  0  0  0  0  0  0  0  0  0  0  0
   38.0850   30.0360   42.2960 N   0  0  0  0  0  0  0  0  0  0  0  0
   38.3740   28.9970   43.1370 C   0  0  0  0  0  0  0  0  0  0  0  0
   37.6330   27.8840   43.1310 N   0  0  0  0  0  0  0  0  0  0  0  0
   35.9720   26.9020   42.2550 H   0  0  0  0  0  0  0  0  0  0  0  0
   35.3990   28.6920   40.7440 H   0  0  0  0  0  0  0  0  0  0  0  0
   39.2020   29.0290   43.8330 H   0  0  0  0  0  0  0  0  0  0  0  0
   37.8150   31.6990   37.1470 C   0  0  2  0  0  3  0  0  0  0  0  0
   37.3820   32.3030   38.4570 C   0  0  0  0  0  3  0  0  0  0  0  0
   36.3050   32.5360   38.3980 H   0  0  0  0  0  0  0  0  0  0  0  0
   37.7680   31.2920   39.4760 C   0  0  2  0  0  3  0  0  0  0  0  0
   38.1610   30.1390   38.8640 O   0  0  0  0  0  0  0  0  0  0  0  0
   38.0010   30.2500   37.5080 C   0  0  0  0  0  3  0  0  0  0  0  0
   38.9250   29.8920   36.9900 H   0  0  0  0  0  0  0  0  0  0  0  0
   38.9870   32.2600   36.6510 O   0  0  0  0  0  0  0  0  0  0  0  0
   38.7920   33.1080   36.1970 H   0  0  0  0  0  0  0  0  0  0  0  0
  1  2  1  0  0  0  0
  1  6  1  0  0  0  0
  3  1  1  0  0  0  0
  4  9  1  0  0  0  0
  5  6  1  0  0  0  0
  5  4  2  0  0  0  0
  6  7  2  0  0  0  0
  7  8  1  0  0  0  0
  8 12  1  0  0  0  0
  9  8  2  0  0  0  0
 10  4  1  0  0  0  0
 11  5  1  0  0  0  0
 13 20  1  1  0  0  0
 13 18  1  0  0  0  0
 13 14  1  0  0  0  0
 14 16  1  0  0  0  0
 15 14  1  0  0  0  0
 16  1  1  1  0  0  0
 17 16  1  0  0  0  0
 18 17  1  0  0  0  0
 19 18  1  0  0  0  0
 21 20  1  0  0  0  0
M  END
>  <minimizedAffinity>
-4.22916698

$$$$

 OpenBabel03252509303D

 21 22  0  0  1  0  0  0  0  0999 V2000
   37.9700   27.2260   43.2550 C   0  0  0  0  0  0  0  0  0  0  0  0
   39.0130   27.3550   43.6010 H   0  0  0  0  0  0  0  0  0  0  0  0
   37.4260   26.7650   44.1050 H   0  0  0  0  0  0  0  0  0  0  0  0
   36.9700   24.4730   40.9750 C   0  0  0  0  0  0  0  0  0  0  0  0
   37.0420   25.2830   42.1260 C   0  0  0  0  0  0  0  0  0  0  0  0
   37.8900   26.3840   42.0660 C   0  0  0  0  0  0  0  0  0  0  0  0
   38.5970   26.6270   40.9230 N   0  0  0  0  0  0  0  0  0  0  0  0
   38.4820   25.8020   39.8390 C   0  0  0  0  0  0  0  0  0  0  0  0
   37.6740   24.7370   39.8720 N   0  0  0  0  0  0  0  0  0  0  0  0
   36.3050   23.6250   41.0470 H   0  0  0  0  0  0  0  0  0  0  0  0
   36.4560   25.0330   42.9980 H   0  0  0  0  0  0  0  0  0  0  0  0
   39.0300   25.9710   38.9220 H   0  0  0  0  0  0  0  0  0  0  0  0
   36.5940   29.8240   41.1560 C   0  0  2  0  0  3  0  0  0  0  0  0
   36.3030   28.5690   41.9360 C   0  0  0  0  0  3  0  0  0  0  0  0
   36.3620   27.7070   41.2490 H   0  0  0  0  0  0  0  0  0  0  0  0
   37.2970   28.5810   43.0410 C   0  0  2  0  0  3  0  0  0  0  0  0
   38.2140   29.5700   42.8340 O   0  0  0  0  0  0  0  0  0  0  0  0
   37.9750   30.1860   41.6340 C   0  0  0  0  0  3  0  0  0  0  0  0
   38.0020   31.2950   41.7690 H   0  0  0  0  0  0  0  0  0  0  0  0
   35.6800   30.8420   41.4040 O   0  0  0  0  0  0  0  0  0  0  0  0
   34.8640   30.7020   40.8780 H   0  0  0  0  0  0  0  0  0  0  0  0
  1  2  1  0  0  0  0
  1  3  1  0  0  0  0
  4 10  1  0  0  0  0
  4  5  1  0  0  0  0
  5 11  1  0  0  0  0
  6  5  2  0  0  0  0
  6  1  1  0  0  0  0
  7  6  1  0  0  0  0
  8  9  1  0  0  0  0
  8  7  2  0  0  0  0
  9  4  2  0  0  0  0
 12  8  1  0  0  0  0
 13 20  1  1  0  0  0
 13 18  1  0  0  0  0
 13 14  1  0  0  0  0
 14 16  1  0  0  0  0
 15 14  1  0  0  0  0
 16  1  1  6  0  0  0
 17 16  1  0  0  0  0
 18 19  1  0  0  0  0
 18 17  1  0  0  0  0
 21 20  1  0  0  0  0
M  END
>  <minimizedAffinity>
-4.20602369

$$$$

 OpenBabel03252509303D

 21 22  0  0  1  0  0  0  0  0999 V2000
   36.5050   26.8340   39.6660 C   0  0  0  0  0  0  0  0  0  0  0  0
   35.4980   26.5100   39.3410 H   0  0  0  0  0  0  0  0  0  0  0  0
   37.0030   27.2260   38.7550 H   0  0  0  0  0  0  0  0  0  0  0  0
   37.7310   24.3300   42.1170 C   0  0  0  0  0  0  0  0  0  0  0  0
   36.9880   25.3900   41.5630 C   0  0  0  0  0  0  0  0  0  0  0  0
   37.2710   25.7350   40.2450 C   0  0  0  0  0  0  0  0  0  0  0  0
   38.2340   25.0470   39.5620 N   0  0  0  0  0  0  0  0  0  0  0  0
   38.9210   24.0250   40.1580 C   0  0  0  0  0  0  0  0  0  0  0  0
   38.6660   23.6760   41.4230 N   0  0  0  0  0  0  0  0  0  0  0  0
   37.4930   24.0820   43.1400 H   0  0  0  0  0  0  0  0  0  0  0  0
   36.2410   25.8940   42.1580 H   0  0  0  0  0  0  0  0  0  0  0  0
   39.6870   23.4640   39.6400 H   0  0  0  0  0  0  0  0  0  0  0  0
   35.9550   30.3340   40.3680 C   0  0  2  0  0  3  0  0  0  0  0  0
   35.3220   28.9720   40.2580 C   0  0  0  0  0  3  0  0  0  0  0  0
   34.9040   28.8580   39.2430 H   0  0  0  0  0  0  0  0  0  0  0  0
   36.4130   28.0280   40.6150 C   0  0  2  0  0  3  0  0  0  0  0  0
   37.6000   28.6950   40.6980 O   0  0  0  0  0  0  0  0  0  0  0  0
   37.4240   30.0080   40.3500 C   0  0  0  0  0  3  0  0  0  0  0  0
   37.9220   30.6670   41.1030 H   0  0  0  0  0  0  0  0  0  0  0  0
   35.5920   31.0100   41.5270 O   0  0  0  0  0  0  0  0  0  0  0  0
   34.7100   31.4270   41.4150 H   0  0  0  0  0  0  0  0  0  0  0  0
  1  6  1  0  0  0  0
  2  1  1  0  0  0  0
  3  1  1  0  0  0  0
  4 10  1  0  0  0  0
  5  4  1  0  0  0  0
  5 11  1  0  0  0  0
  6  5  2  0  0  0  0
  7  8  2  0  0  0  0
  7  6  1  0  0  0  0
  8  9  1  0  0  0  0
  9  4  2  0  0  0  0
 12  8  1  0  0  0  0
 13 20  1  1  0  0  0
 14 13  1  0  0  0  0
 14 16  1  0  0  0  0
 15 14  1  0  0  0  0
 16  1  1  6  0  0  0
 16 17  1  0  0  0  0
 18 13  1  0  0  0  0
 18 17  1  0  0  0  0
 18 19  1  0  0  0  0
 21 20  1  0  0  0  0
M  END
>  <minimizedAffinity>
-4.01226759

$$$$

 OpenBabel03252509303D

 21 22  0  0  1  0  0  0  0  0999 V2000
   36.7830   27.3730   42.6130 C   0  0  0  0  0  0  0  0  0  0  0  0
   35.8050   27.0790   43.0410 H   0  0  0  0  0  0  0  0  0  0  0  0
   37.4600   27.5130   43.4800 H   0  0  0  0  0  0  0  0  0  0  0  0
   35.5670   29.8580   40.1370 C   0  0  0  0  0  0  0  0  0  0  0  0
   35.6540   28.6740   40.8950 C   0  0  0  0  0  0  0  0  0  0  0  0
   36.6860   28.5980   41.8250 C   0  0  0  0  0  0  0  0  0  0  0  0
   37.5490   29.6490   41.9600 N   0  0  0  0  0  0  0  0  0  0  0  0
   37.4100   30.7720   41.1920 C   0  0  0  0  0  0  0  0  0  0  0  0
   36.4260   30.8680   40.2920 N   0  0  0  0  0  0  0  0  0  0  0  0
   34.7580   29.8920   39.4230 H   0  0  0  0  0  0  0  0  0  0  0  0
   34.9400   27.8790   40.7390 H   0  0  0  0  0  0  0  0  0  0  0  0
   38.0780   31.6180   41.2780 H   0  0  0  0  0  0  0  0  0  0  0  0
   38.1620   24.0480   42.3190 C   0  0  2  0  0  3  0  0  0  0  0  0
   36.9140   24.8890   42.2500 C   0  0  0  0  0  3  0  0  0  0  0  0
   36.4150   24.8590   43.2330 H   0  0  0  0  0  0  0  0  0  0  0  0
   37.3940   26.2250   41.8110 C   0  0  2  0  0  3  0  0  0  0  0  0
   38.7570   26.2650   41.8370 O   0  0  0  0  0  0  0  0  0  0  0  0
   39.2500   25.0880   42.3350 C   0  0  0  0  0  3  0  0  0  0  0  0
   40.0760   24.7190   41.6780 H   0  0  0  0  0  0  0  0  0  0  0  0
   38.2940   23.1810   41.2400 O   0  0  0  0  0  0  0  0  0  0  0  0
   37.7440   22.3800   41.3780 H   0  0  0  0  0  0  0  0  0  0  0  0
  1  2  1  0  0  0  0
  1  3  1  0  0  0  0
  4  9  2  0  0  0  0
  4  5  1  0  0  0  0
  5  6  2  0  0  0  0
  6  7  1  0  0  0  0
  6  1  1  0  0  0  0
  8 12  1  0  0  0  0
  8  7  2  0  0  0  0
  9  8  1  0  0  0  0
 10  4  1  0  0  0  0
 11  5  1  0  0  0  0
 13 20  1  6  0  0  0
 13 18  1  0  0  0  0
 14 13  1  0  0  0  0
 14 15  1  0  0  0  0
 16 17  1  0  0  0  0
 16 14  1  0  0  0  0
 16  1  1  1  0  0  0
 17 18  1  0  0  0  0
 19 18  1  0  0  0  0
 20 21  1  0  0  0  0
M  END
>  <minimizedAffinity>
-4.000875

$$$$

 OpenBabel03252509303D

 21 22  0  0  1  0  0  0  0  0999 V2000
   39.0810   29.7350   40.7530 C   0  0  0  0  0  0  0  0  0  0  0  0
   39.1790   29.4000   39.7040 H   0  0  0  0  0  0  0  0  0  0  0  0
   40.1180   29.8430   41.1330 H   0  0  0  0  0  0  0  0  0  0  0  0
   37.4080   28.1780   43.6790 C   0  0  0  0  0  0  0  0  0  0  0  0
   38.1360   29.1020   42.9030 C   0  0  0  0  0  0  0  0  0  0  0  0
   38.3270   28.7830   41.5620 C   0  0  0  0  0  0  0  0  0  0  0  0
   37.8130   27.6170   41.0680 N   0  0  0  0  0  0  0  0  0  0  0  0
   37.1150   26.7620   41.8750 C   0  0  0  0  0  0  0  0  0  0  0  0
   36.9190   27.0460   43.1670 N   0  0  0  0  0  0  0  0  0  0  0  0
   37.2730   28.4480   44.7150 H   0  0  0  0  0  0  0  0  0  0  0  0
   38.5150   30.0050   43.3560 H   0  0  0  0  0  0  0  0  0  0  0  0
   36.6980   25.8330   41.5100 H   0  0  0  0  0  0  0  0  0  0  0  0
   37.6280   32.6760   39.2410 C   0  0  2  0  0  3  0  0  0  0  0  0
   37.3530   31.3390   39.8770 C   0  0  0  0  0  3  0  0  0  0  0  0
   37.2590   30.5820   39.0790 H   0  0  0  0  0  0  0  0  0  0  0  0
   38.4830   31.1400   40.8220 C   0  0  2  0  0  3  0  0  0  0  0  0
   39.4330   32.0990   40.6230 O   0  0  0  0  0  0  0  0  0  0  0  0
   39.0810   32.8940   39.5640 C   0  0  0  0  0  3  0  0  0  0  0  0
   39.2050   33.9690   39.8430 H   0  0  0  0  0  0  0  0  0  0  0  0
   36.8290   33.6940   39.7520 O   0  0  0  0  0  0  0  0  0  0  0  0
   35.9430   33.6740   39.3320 H   0  0  0  0  0  0  0  0  0  0  0  0
  1  3  1  0  0  0  0
  1  6  1  0  0  0  0
  2  1  1  0  0  0  0
  4 10  1  0  0  0  0
  5 11  1  0  0  0  0
  5  4  2  0  0  0  0
  6  5  1  0  0  0  0
  7  6  2  0  0  0  0
  7  8  1  0  0  0  0
  8  9  2  0  0  0  0
  9  4  1  0  0  0  0
 12  8  1  0  0  0  0
 13 18  1  0  0  0  0
 13 20  1  1  0  0  0
 13 14  1  0  0  0  0
 14 16  1  0  0  0  0
 15 14  1  0  0  0  0
 16  1  1  6  0  0  0
 17 16  1  0  0  0  0
 18 19  1  0  0  0  0
 18 17  1  0  0  0  0
 21 20  1  0  0  0  0
M  END
>  <minimizedAffinity>
-3.93250322

$$$$

 OpenBabel03252509303D

 21 22  0  0  1  0  0  0  0  0999 V2000
   36.9320   28.0390   41.2970 C   0  0  0  0  0  0  0  0  0  0  0  0
   35.8970   27.9370   41.6750 H   0  0  0  0  0  0  0  0  0  0  0  0
   36.9000   27.7120   40.2380 H   0  0  0  0  0  0  0  0  0  0  0  0
   38.7890   25.0830   42.5610 C   0  0  0  0  0  0  0  0  0  0  0  0
   37.8780   25.8590   41.8180 C   0  0  0  0  0  0  0  0  0  0  0  0
   37.8740   27.2280   42.0630 C   0  0  0  0  0  0  0  0  0  0  0  0
   38.7330   27.7480   42.9900 N   0  0  0  0  0  0  0  0  0  0  0  0
   39.5940   26.9390   43.6790 C   0  0  0  0  0  0  0  0  0  0  0  0
   39.6160   25.6200   43.4610 N   0  0  0  0  0  0  0  0  0  0  0  0
   38.7720   24.0230   42.3520 H   0  0  0  0  0  0  0  0  0  0  0  0
   37.2260   25.3850   41.1000 H   0  0  0  0  0  0  0  0  0  0  0  0
   40.2830   27.3240   44.4180 H   0  0  0  0  0  0  0  0  0  0  0  0
   36.6200   31.4210   40.0700 C   0  0  2  0  0  3  0  0  0  0  0  0
   36.1990   30.4380   41.1300 C   0  0  0  0  0  3  0  0  0  0  0  0
   35.2430   29.9780   40.8240 H   0  0  0  0  0  0  0  0  0  0  0  0
   37.3510   29.5070   41.2490 C   0  0  2  0  0  3  0  0  0  0  0  0
   38.2460   29.7410   40.2470 O   0  0  0  0  0  0  0  0  0  0  0  0
   37.7630   30.7040   39.4020 C   0  0  0  0  0  3  0  0  0  0  0  0
   38.5600   31.4610   39.1990 H   0  0  0  0  0  0  0  0  0  0  0  0
   37.0160   32.6470   40.5920 O   0  0  0  0  0  0  0  0  0  0  0  0
   36.2310   33.2000   40.7960 H   0  0  0  0  0  0  0  0  0  0  0  0
  1  2  1  0  0  0  0
  1  6  1  0  0  0  0
  3  1  1  0  0  0  0
  4  9  1  0  0  0  0
  5  6  1  0  0  0  0
  5  4  2  0  0  0  0
  6  7  2  0  0  0  0
  7  8  1  0  0  0  0
  8 12  1  0  0  0  0
  9  8  2  0  0  0  0
 10  4  1  0  0  0  0
 11  5  1  0  0  0  0
 13 20  1  1  0  0  0
 13 14  1  0  0  0  0
 14 16  1  0  0  0  0
 15 14  1  0  0  0  0
 16  1  1  6  0  0  0
 17 16  1  0  0  0  0
 18 13  1  0  0  0  0
 18 17  1  0  0  0  0
 19 18  1  0  0  0  0
 20 21  1  0  0  0  0
M  END
>  <minimizedAffinity>
-3.92532158

$$$$

 OpenBabel03252509303D

 21 22  0  0  1  0  0  0  0  0999 V2000
   38.9780   28.2830   42.4690 C   0  0  0  0  0  0  0  0  0  0  0  0
   39.1270   28.6600   43.4990 H   0  0  0  0  0  0  0  0  0  0  0  0
   39.9130   28.5250   41.9230 H   0  0  0  0  0  0  0  0  0  0  0  0
   36.7850   30.8480   40.9230 C   0  0  0  0  0  0  0  0  0  0  0  0
   37.9040   30.2590   41.5450 C   0  0  0  0  0  0  0  0  0  0  0  0
   37.8240   28.8990   41.8240 C   0  0  0  0  0  0  0  0  0  0  0  0
   36.6920   28.2090   41.4910 N   0  0  0  0  0  0  0  0  0  0  0  0
   35.6390   28.8400   40.8880 C   0  0  0  0  0  0  0  0  0  0  0  0
   35.6930   30.1470   40.6100 N   0  0  0  0  0  0  0  0  0  0  0  0
   36.8730   31.9040   40.7170 H   0  0  0  0  0  0  0  0  0  0  0  0
   38.7680   30.8620   41.7820 H   0  0  0  0  0  0  0  0  0  0  0  0
   34.7320   28.3190   40.6140 H   0  0  0  0  0  0  0  0  0  0  0  0
   40.3390   24.9920   43.0720 C   0  0  2  0  0  3  0  0  0  0  0  0
   39.5310   26.1280   43.6410 C   0  0  0  0  0  3  0  0  0  0  0  0
   40.2030   26.7800   44.2250 H   0  0  0  0  0  0  0  0  0  0  0  0
   38.8930   26.7570   42.4560 C   0  0  2  0  0  3  0  0  0  0  0  0
   39.4180   26.2350   41.3100 O   0  0  0  0  0  0  0  0  0  0  0  0
   40.4220   25.3550   41.6140 C   0  0  0  0  0  3  0  0  0  0  0  0
   40.2880   24.4140   41.0270 H   0  0  0  0  0  0  0  0  0  0  0  0
   39.7400   23.7510   43.2600 O   0  0  0  0  0  0  0  0  0  0  0  0
   39.9150   23.4230   44.1690 H   0  0  0  0  0  0  0  0  0  0  0  0
  1  2  1  0  0  0  0
  3  1  1  0  0  0  0
  4  5  1  0  0  0  0
  5 11  1  0  0  0  0
  5  6  2  0  0  0  0
  6  1  1  0  0  0  0
  7  6  1  0  0  0  0
  8  7  2  0  0  0  0
  9  8  1  0  0  0  0
  9  4  2  0  0  0  0
 10  4  1  0  0  0  0
 12  8  1  0  0  0  0
 13 20  1  6  0  0  0
 13 14  1  0  0  0  0
 14 15  1  0  0  0  0
 16  1  1  6  0  0  0
 16 14  1  0  0  0  0
 17 18  1  0  0  0  0
 17 16  1  0  0  0  0
 18 13  1  0  0  0  0
 19 18  1  0  0  0  0
 20 21  1  0  0  0  0
M  END
>  <minimizedAffinity>
-3.87313175

$$$$

 OpenBabel03252509303D

 21 22  0  0  1  0  0  0  0  0999 V2000
   37.5760   33.6170   39.8280 C   0  0  0  0  0  0  0  0  0  0  0  0
   36.7420   34.1920   40.2730 H   0  0  0  0  0  0  0  0  0  0  0  0
   37.8740   34.1760   38.9170 H   0  0  0  0  0  0  0  0  0  0  0  0
   37.1630   30.4550   37.9280 C   0  0  0  0  0  0  0  0  0  0  0  0
   37.5480   31.7730   38.2430 C   0  0  0  0  0  0  0  0  0  0  0  0
   37.1810   32.2520   39.4960 C   0  0  0  0  0  0  0  0  0  0  0  0
   36.4800   31.4440   40.3460 N   0  0  0  0  0  0  0  0  0  0  0  0
   36.1370   30.1720   39.9800 C   0  0  0  0  0  0  0  0  0  0  0  0
   36.4780   29.6900   38.7800 N   0  0  0  0  0  0  0  0  0  0  0  0
   37.4600   30.1070   36.9490 H   0  0  0  0  0  0  0  0  0  0  0  0
   38.1010   32.3590   37.5240 H   0  0  0  0  0  0  0  0  0  0  0  0
   35.5830   29.5120   40.6330 H   0  0  0  0  0  0  0  0  0  0  0  0
   41.1080   33.1990   40.4560 C   0  0  2  0  0  3  0  0  0  0  0  0
   40.0210   34.1590   40.0510 C   0  0  0  0  0  3  0  0  0  0  0  0
   39.9720   34.1890   38.9480 H   0  0  0  0  0  0  0  0  0  0  0  0
   38.8040   33.6500   40.7360 C   0  0  2  0  0  3  0  0  0  0  0  0
   39.0550   32.4280   41.2860 O   0  0  0  0  0  0  0  0  0  0  0  0
   40.3220   32.0200   40.9660 C   0  0  0  0  0  3  0  0  0  0  0  0
   40.8400   31.6450   41.8830 H   0  0  0  0  0  0  0  0  0  0  0  0
   41.9530   33.7150   41.4320 O   0  0  0  0  0  0  0  0  0  0  0  0
   42.6230   34.3040   41.0250 H   0  0  0  0  0  0  0  0  0  0  0  0
  1  2  1  0  0  0  0
  3  1  1  0  0  0  0
  4  5  2  0  0  0  0
  4  9  1  0  0  0  0
  5  6  1  0  0  0  0
  6  1  1  0  0  0  0
  6  7  2  0  0  0  0
  8  7  1  0  0  0  0
  8 12  1  0  0  0  0
  9  8  2  0  0  0  0
 10  4  1  0  0  0  0
 11  5  1  0  0  0  0
 13 18  1  0  0  0  0
 13 20  1  1  0  0  0
 14 13  1  0  0  0  0
 14 16  1  0  0  0  0
 15 14  1  0  0  0  0
 16  1  1  6  0  0  0
 16 17  1  0  0  0  0
 18 17  1  0  0  0  0
 18 19  1  0  0  0  0
 21 20  1  0  0  0  0
M  END
>  <minimizedAffinity>
-3.85127497

$$$$
