REMARK  Name = 
REMARK  3 active torsions:
REMARK  status: ('A' for Active; 'I' for Inactive)
REMARK    1  A    between atoms: C_3  and  C_7
REMARK    2  A    between atoms: C_7  and  C_17
REMARK    3  A    between atoms: O_13  and  C_14
REMARK                            x       y       z     vdW  Elec       q    Type
REMARK                         _______ _______ _______ _____ _____    ______ ____
ROOT
ATOM      1  C   UNL     1      46.958  34.776  41.931  0.00  0.00    +0.000 C 
ATOM      2  H   UNL     1      47.979  34.385  42.102  0.00  0.00    +0.000 HD
ATOM      3  H   UNL     1      47.092  35.780  41.479  0.00  0.00    +0.000 HD
ENDROOT
BRANCH   1   6
ATOM      4  C   UNL     1      44.568  36.001  44.494  0.00  0.00    +0.000 A 
ATOM      5  C   UNL     1      45.304  35.924  43.295  0.00  0.00    +0.000 A 
ATOM      6  C   UNL     1      46.192  34.861  43.170  0.00  0.00    +0.000 A 
ATOM      7  N   UNL     1      46.309  33.959  44.190  0.00  0.00    +0.000 NA
ATOM      8  C   UNL     1      45.565  34.090  45.330  0.00  0.00    +0.000 A 
ATOM      9  N   UNL     1      44.705  35.104  45.473  0.00  0.00    +0.000 NA
ATOM     10  H   UNL     1      43.886  36.835  44.566  0.00  0.00    +0.000 HD
ATOM     11  H   UNL     1      45.164  36.671  42.528  0.00  0.00    +0.000 HD
ATOM     12  H   UNL     1      45.638  33.391  46.152  0.00  0.00    +0.000 HD
ENDBRANCH   1   6
BRANCH   1  16
ATOM     13  C   UNL     1      46.885  32.779  38.922  0.00  0.00    +0.000 C 
ATOM     14  C   UNL     1      47.004  32.764  40.424  0.00  0.00    +0.000 C 
ATOM     15  H   UNL     1      48.075  32.761  40.691  0.00  0.00    +0.000 HD
ATOM     16  C   UNL     1      46.232  33.954  40.867  0.00  0.00    +0.000 C 
ATOM     17  O   UNL     1      45.890  34.717  39.789  0.00  0.00    +0.000 OA
ATOM     18  C   UNL     1      46.434  34.189  38.650  0.00  0.00    +0.000 C 
ATOM     19  H   UNL     1      45.656  34.142  37.848  0.00  0.00    +0.000 HD
BRANCH  13  20
ATOM     20  O   UNL     1      45.974  31.845  38.440  0.00  0.00    +0.000 OA
ATOM     21  H   UNL     1      46.388  30.956  38.400  0.00  0.00    +0.000 HD
ENDBRANCH  13  20
ENDBRANCH   1  16
TORSDOF 3
