
     RDKit          3D

 26 27  0  0  0  0  0  0  0  0999 V2000
   44.2550   35.7339   44.2445 C   0  0  0  0  0  0  0  0  0  0  0  0
   44.4421   34.9215   43.1318 C   0  0  0  0  0  0  0  0  0  0  0  0
   45.0815   33.7039   43.2337 C   0  0  0  0  0  0  0  0  0  0  0  0
   45.5173   33.3491   44.4910 N   0  0  0  0  0  0  0  0  0  0  0  0
   45.3224   34.1520   45.5405 C   0  0  0  0  0  0  0  0  0  0  0  0
   44.7118   35.3240   45.4684 N   0  0  0  0  0  0  0  0  0  0  0  0
   43.8309   35.4939   41.5288 S   0  0  0  0  0  0  0  0  0  0  0  0
   43.8450   34.1227   40.3804 C   0  0  0  0  0  0  0  0  0  0  0  0
   43.7594   36.6950   44.2185 H   0  0  0  0  0  0  0  0  0  0  0  0
   45.2344   33.0601   42.3626 H   0  0  0  0  0  0  0  0  0  0  0  0
   45.6849   33.8329   46.5293 H   0  0  0  0  0  0  0  0  0  0  0  0
   43.6648   34.4486   39.3399 H   0  0  0  0  0  0  0  0  0  0  0  0
   44.8747   33.6673   40.4016 H   0  0  0  0  0  0  0  0  0  0  0  0
   40.9041   35.0856   40.7874 O   0  0  0  0  0  0  0  0  0  0  0  0
   40.6471   33.7430   40.5827 C   0  0  1  0  0  0  0  0  0  0  0  0
   41.7412   33.1553   39.6948 C   0  0  2  0  0  0  0  0  0  0  0  0
   41.9277   33.9265   38.9175 H   0  0  0  0  0  0  0  0  0  0  0  0
   42.8846   33.0202   40.6881 C   0  0  2  0  0  0  0  0  0  0  0  0
   42.3425   33.2124   41.9503 O   0  0  0  0  0  0  0  0  0  0  0  0
   40.9852   32.9991   41.8800 C   0  0  1  0  0  0  0  0  0  0  0  0
   40.4348   33.5208   42.6737 H   0  0  0  0  0  0  0  0  0  0  0  0
   40.5321   35.6512   40.0807 H   0  0  0  0  0  0  0  0  0  0  0  0
   39.6361   33.5089   40.2349 H   0  0  0  0  0  0  0  0  0  0  0  0
   41.4412   32.1821   39.2460 H   0  0  0  0  0  0  0  0  0  0  0  0
   43.3022   32.0055   40.6447 H   0  0  0  0  0  0  0  0  0  0  0  0
   40.6870   31.9466   41.7325 H   0  0  0  0  0  0  0  0  0  0  0  0
  1  6  2  0
  2  3  2  0
  2  1  1  0
  3  4  1  0
  4  5  2  0
  6  5  1  0
  7  2  1  0
  8  7  1  0
  1  9  1  0
  3 10  1  0
  5 11  1  0
  8 12  1  0
  8 13  1  0
 14 15  1  0
 15 16  1  0
 16 17  1  6
 16 18  1  0
 18 19  1  0
 19 20  1  0
 20 21  1  1
 20 15  1  0
 14 22  1  0
 15 23  1  6
 16 24  1  0
 18 25  1  1
 20 26  1  0
  8 18  1  0
M  ISO  7   9  14  10  14  11  14  12   8  13   8  17   8  21  16
M  END
>  <DihAtoms>  (1) 
6,7,17,15

>  <DihDeg>  (1) 
179.98046968912013

$$$$
