
     RDKit          3D

 41 43  0  0  0  0  0  0  0  0999 V2000
   46.3230   35.0042   41.8946 C   0  0  0  0  0  0  0  0  0  0  0  0
   44.8612   34.9458   41.6888 C   0  0  0  0  0  0  0  0  0  0  0  0
   43.9837   35.4328   42.7059 C   0  0  0  0  0  0  0  0  0  0  0  0
   42.3188   35.1448   41.9779 S   0  0  0  0  0  0  0  0  0  0  0  0
   43.1010   34.4100   40.4130 C   0  0  0  0  0  0  0  0  0  0  0  0
   44.2174   34.4898   40.6520 N   0  0  0  0  0  0  0  0  0  0  0  0
   42.3503   33.9391   39.3379 O   0  0  0  0  0  0  0  0  0  0  0  0
   40.4012   34.3992   37.6003 O   0  0  0  0  0  0  0  0  0  0  0  0
   41.4891   35.0755   38.4238 P   0  0  0  0  0  0  0  0  0  0  0  0
   40.7599   36.1575   39.5031 O   0  0  0  0  0  0  0  0  0  0  0  0
   42.5587   35.9356   37.4261 O   0  0  0  0  0  0  0  0  0  0  0  0
   47.1305   34.3326   40.8185 C   0  0  0  0  0  0  0  0  0  0  0  0
   48.4670   33.8987   41.2734 C   0  0  0  0  0  0  0  0  0  0  0  0
   48.9298   32.6958   40.7794 C   0  0  0  0  0  0  0  0  0  0  0  0
   50.1813   32.2348   41.1710 C   0  0  0  0  0  0  0  0  0  0  0  0
   50.9126   32.9978   42.0383 N   0  0  0  0  0  0  0  0  0  0  0  0
   50.4264   34.1652   42.4975 C   0  0  0  0  0  0  0  0  0  0  0  0
   49.2356   34.5878   42.1152 N   0  0  0  0  0  0  0  0  0  0  0  0
   47.9322   31.7419   39.6412 S   0  0  0  0  0  0  0  0  0  0  0  0
   46.5998   36.0861   41.8723 H   0  0  0  0  0  0  0  0  0  0  0  0
   46.6238   34.6352   42.8994 H   0  0  0  0  0  0  0  0  0  0  0  0
   44.2371   35.8621   43.6617 H   0  0  0  0  0  0  0  0  0  0  0  0
   39.8277   35.9062   39.7231 H   0  0  0  0  0  0  0  0  0  0  0  0
   42.3321   36.9059   37.4177 H   0  0  0  0  0  0  0  0  0  0  0  0
   46.5185   33.4694   40.4843 H   0  0  0  0  0  0  0  0  0  0  0  0
   47.2255   34.9979   39.9187 H   0  0  0  0  0  0  0  0  0  0  0  0
   50.5952   31.3222   40.8329 H   0  0  0  0  0  0  0  0  0  0  0  0
   50.9607   34.8075   43.1835 H   0  0  0  0  0  0  0  0  0  0  0  0
   48.0963   31.2831   37.0088 O   0  0  0  0  0  0  0  0  0  0  0  0
   48.5169   30.0937   37.5885 C   0  0  2  0  0  0  0  0  0  0  0  0
   48.7315   30.2439   39.1039 C   0  0  1  0  0  0  0  0  0  0  0  0
   50.2422   30.3808   39.1235 C   0  0  2  0  0  0  0  0  0  0  0  0
   50.7135   29.9878   40.0251 H   0  0  0  0  0  0  0  0  0  0  0  0
   50.7274   29.5989   38.0681 O   0  0  0  0  0  0  0  0  0  0  0  0
   49.8414   29.7117   37.0146 C   0  0  1  0  0  0  0  0  0  0  0  0
   49.8235   28.7003   36.5274 H   0  0  0  0  0  0  0  0  0  0  0  0
   48.7170   31.9750   37.3078 H   0  0  0  0  0  0  0  0  0  0  0  0
   47.7746   29.2602   37.4324 H   0  0  0  0  0  0  0  0  0  0  0  0
   48.4141   29.3384   39.6344 H   0  0  0  0  0  0  0  0  0  0  0  0
   50.5391   31.4257   38.9757 H   0  0  0  0  0  0  0  0  0  0  0  0
   50.2132   30.4192   36.2264 H   0  0  0  0  0  0  0  0  0  0  0  0
  2  1  1  0
  2  3  2  0
  4  3  1  0
  5  6  2  0
  5  4  1  0
  6  2  1  0
  7  5  1  0
  8  9  2  0
  9  7  1  0
  9 10  1  0
 11  9  1  0
 12 13  1  0
 12  1  1  0
 13 18  2  0
 14 15  2  0
 14 13  1  0
 15 16  1  0
 16 17  2  0
 18 17  1  0
 19 14  1  0
  1 20  1  0
  1 21  1  0
  3 22  1  0
 10 23  1  0
 11 24  1  0
 12 25  1  0
 12 26  1  0
 15 27  1  0
 17 28  1  0
 29 30  1  0
 30 31  1  0
 31 32  1  0
 32 33  1  1
 32 34  1  0
 34 35  1  0
 35 36  1  6
 35 30  1  0
 29 37  1  0
 30 38  1  1
 31 39  1  1
 32 40  1  0
 35 41  1  0
 19 31  1  0
M  ISO  8  20   8  21   8  22  14  23   3  24   3  25   8  26   8  27  14
M  ISO  3  28  14  33  15  36  16
M  END
>  <DihAtoms>  (1) 
13,18,30,29

>  <DihDeg>  (1) 
178.5275517966689

$$$$
