
 OpenBabel03252507453D

 37 39  0  0  1  0  0  0  0  0999 V2000
   47.5390   34.5380   40.7940 C   0  0  0  0  0  0  0  0  0  0  0  0
   46.8620   33.9100   40.1780 H   0  0  0  0  0  0  0  0  0  0  0  0
   47.7760   35.4330   40.1580 H   0  0  0  0  0  0  0  0  0  0  0  0
   48.7800   33.8130   41.1340 C   0  0  0  0  0  0  0  0  0  0  0  0
   49.0610   32.6820   40.3950 C   0  0  0  0  0  0  0  0  0  0  0  0
   50.2150   31.9580   40.6690 C   0  0  0  0  0  0  0  0  0  0  0  0
   51.0360   32.3980   41.6700 N   0  0  0  0  0  0  0  0  0  0  0  0
   50.7260   33.5050   42.3700 C   0  0  0  0  0  0  0  0  0  0  0  0
   49.6270   34.1810   42.0950 N   0  0  0  0  0  0  0  0  0  0  0  0
   50.4890   31.0820   40.1430 H   0  0  0  0  0  0  0  0  0  0  0  0
   51.3380   33.8970   43.1700 H   0  0  0  0  0  0  0  0  0  0  0  0
   47.9540   32.1570   39.0910 S   0  0  0  0  0  0  0  0  0  0  0  0
   49.3880   32.0730   36.8090 C   0  0  2  0  0  3  0  0  0  0  0  0
   48.3180   32.9160   37.5220 C   0  0  1  0  0  3  0  0  0  0  0  0
   47.1750   32.7410   36.5400 C   0  0  0  0  0  3  0  0  0  0  0  0
   46.4970   33.5940   36.4890 H   0  0  0  0  0  0  0  0  0  0  0  0
   47.7530   32.6380   35.2690 O   0  0  0  0  0  0  0  0  0  0  0  0
   48.9300   31.9260   35.3950 C   0  0  0  0  0  3  0  0  0  0  0  0
   49.6430   32.3890   34.6610 H   0  0  0  0  0  0  0  0  0  0  0  0
   49.5140   30.8130   37.3790 O   0  0  0  0  0  0  0  0  0  0  0  0
   48.6130   30.4410   37.4360 H   0  0  0  0  0  0  0  0  0  0  0  0
   46.7320   34.9380   41.9970 C   0  0  0  0  0  0  0  0  0  0  0  0
   47.0080   35.9950   42.2290 H   0  0  0  0  0  0  0  0  0  0  0  0
   47.0330   34.3440   42.8870 H   0  0  0  0  0  0  0  0  0  0  0  0
   45.2700   34.9290   41.7840 C   0  0  0  0  0  0  0  0  0  0  0  0
   44.4160   35.6020   42.7110 C   0  0  0  0  0  0  0  0  0  0  0  0
   42.7410   35.3030   42.0110 S   0  0  0  0  0  0  0  0  0  0  0  0
   43.4890   34.3130   40.5750 C   0  0  0  0  0  0  0  0  0  0  0  0
   44.6060   34.3660   40.8140 N   0  0  0  0  0  0  0  0  0  0  0  0
   44.6880   36.1480   43.6000 H   0  0  0  0  0  0  0  0  0  0  0  0
   42.7180   33.7350   39.5680 O   0  0  0  0  0  0  0  0  0  0  0  0
   40.7640   33.9870   37.7940 O   0  0  0  0  0  0  0  0  0  0  0  0
   41.8000   34.7690   38.5910 P   0  0  0  0  0  0  0  0  0  0  0  0
   40.9950   35.8570   39.6080 O   0  0  0  0  0  0  0  0  0  0  0  0
   40.0770   35.5610   39.8330 H   0  0  0  0  0  0  0  0  0  0  0  0
   42.8260   35.6430   37.5590 O   0  0  0  0  0  0  0  0  0  0  0  0
   42.5410   36.5950   37.5000 H   0  0  0  0  0  0  0  0  0  0  0  0
  1  4  1  0  0  0  0
  1 22  1  0  0  0  0
  2  1  1  0  0  0  0
  3  1  1  0  0  0  0
  4  9  1  0  0  0  0
  5  6  1  0  0  0  0
  5  4  2  0  0  0  0
  6  7  2  0  0  0  0
  7  8  1  0  0  0  0
  8 11  1  0  0  0  0
  9  8  2  0  0  0  0
 10  6  1  0  0  0  0
 12  5  1  0  0  0  0
 13 20  1  1  0  0  0
 13 14  1  0  0  0  0
 14 12  1  1  0  0  0
 15 14  1  0  0  0  0
 16 15  1  0  0  0  0
 17 18  1  0  0  0  0
 17 15  1  0  0  0  0
 18 13  1  0  0  0  0
 19 18  1  0  0  0  0
 20 21  1  0  0  0  0
 22 23  1  0  0  0  0
 22 24  1  0  0  0  0
 25 22  1  0  0  0  0
 25 26  2  0  0  0  0
 26 30  1  0  0  0  0
 27 26  1  0  0  0  0
 28 29  2  0  0  0  0
 28 27  1  0  0  0  0
 29 25  1  0  0  0  0
 31 28  1  0  0  0  0
 32 33  2  0  0  0  0
 33 31  1  0  0  0  0
 33 34  1  0  0  0  0
 34 35  1  0  0  0  0
 36 33  1  0  0  0  0
 37 36  1  0  0  0  0
M  END
>  <minimizedAffinity>
-4.95025969

>  <minimizedRMSD>
2.23202324

$$$$
