
 OpenBabel03252507443D

 37 39  0  0  1  0  0  0  0  0999 V2000
   47.4680   34.4140   40.7200 C   0  0  0  0  0  0  0  0  0  0  0  0
   46.7740   33.7280   40.1920 H   0  0  0  0  0  0  0  0  0  0  0  0
   47.6700   35.2490   39.9960 H   0  0  0  0  0  0  0  0  0  0  0  0
   48.7300   33.7320   41.0720 C   0  0  0  0  0  0  0  0  0  0  0  0
   49.0470   32.6010   40.3470 C   0  0  0  0  0  0  0  0  0  0  0  0
   50.2220   31.9150   40.6340 C   0  0  0  0  0  0  0  0  0  0  0  0
   51.0260   32.3920   41.6320 N   0  0  0  0  0  0  0  0  0  0  0  0
   50.6810   33.4980   42.3170 C   0  0  0  0  0  0  0  0  0  0  0  0
   49.5620   34.1370   42.0310 N   0  0  0  0  0  0  0  0  0  0  0  0
   50.5240   31.0420   40.1200 H   0  0  0  0  0  0  0  0  0  0  0  0
   51.2780   33.9180   43.1140 H   0  0  0  0  0  0  0  0  0  0  0  0
   47.9610   32.0260   39.0480 S   0  0  0  0  0  0  0  0  0  0  0  0
   47.8180   31.2730   36.4630 C   0  0  2  0  0  3  0  0  0  0  0  0
   48.7410   32.0080   37.4470 C   0  0  1  0  0  3  0  0  0  0  0  0
   48.7320   33.3840   36.8080 C   0  0  0  0  0  3  0  0  0  0  0  0
   49.6540   33.9480   36.9510 H   0  0  0  0  0  0  0  0  0  0  0  0
   48.6190   33.1820   35.4260 O   0  0  0  0  0  0  0  0  0  0  0  0
   47.7790   32.1040   35.2230 C   0  0  0  0  0  3  0  0  0  0  0  0
   48.1930   31.5650   34.3300 H   0  0  0  0  0  0  0  0  0  0  0  0
   46.5290   31.1450   36.9640 O   0  0  0  0  0  0  0  0  0  0  0  0
   46.2540   32.0350   37.2580 H   0  0  0  0  0  0  0  0  0  0  0  0
   46.7070   34.9170   41.9150 C   0  0  0  0  0  0  0  0  0  0  0  0
   47.0110   35.9810   42.0610 H   0  0  0  0  0  0  0  0  0  0  0  0
   47.0240   34.3810   42.8350 H   0  0  0  0  0  0  0  0  0  0  0  0
   45.2390   34.9250   41.7460 C   0  0  0  0  0  0  0  0  0  0  0  0
   44.4230   35.6240   42.6870 C   0  0  0  0  0  0  0  0  0  0  0  0
   42.7240   35.3360   42.0430 S   0  0  0  0  0  0  0  0  0  0  0  0
   43.4140   34.3130   40.6020 C   0  0  0  0  0  0  0  0  0  0  0  0
   44.5390   34.3550   40.8060 N   0  0  0  0  0  0  0  0  0  0  0  0
   44.7290   36.1810   43.5580 H   0  0  0  0  0  0  0  0  0  0  0  0
   42.6060   33.7290   39.6290 O   0  0  0  0  0  0  0  0  0  0  0  0
   40.7080   33.9730   37.7930 O   0  0  0  0  0  0  0  0  0  0  0  0
   41.7020   34.7610   38.6370 P   0  0  0  0  0  0  0  0  0  0  0  0
   40.8430   35.8190   39.6410 O   0  0  0  0  0  0  0  0  0  0  0  0
   39.9240   35.5030   39.8310 H   0  0  0  0  0  0  0  0  0  0  0  0
   42.7470   35.6690   37.6530 O   0  0  0  0  0  0  0  0  0  0  0  0
   42.4460   36.6170   37.5990 H   0  0  0  0  0  0  0  0  0  0  0  0
  1  4  1  0  0  0  0
  1 22  1  0  0  0  0
  2  1  1  0  0  0  0
  3  1  1  0  0  0  0
  4  9  1  0  0  0  0
  5  6  1  0  0  0  0
  5  4  2  0  0  0  0
  6  7  2  0  0  0  0
  7  8  1  0  0  0  0
  8 11  1  0  0  0  0
  9  8  2  0  0  0  0
 10  6  1  0  0  0  0
 12  5  1  0  0  0  0
 13 20  1  1  0  0  0
 13 14  1  0  0  0  0
 14 12  1  1  0  0  0
 15 16  1  0  0  0  0
 15 14  1  0  0  0  0
 17 15  1  0  0  0  0
 18 17  1  0  0  0  0
 18 13  1  0  0  0  0
 19 18  1  0  0  0  0
 20 21  1  0  0  0  0
 22 23  1  0  0  0  0
 22 24  1  0  0  0  0
 25 22  1  0  0  0  0
 25 26  2  0  0  0  0
 26 30  1  0  0  0  0
 27 26  1  0  0  0  0
 28 29  2  0  0  0  0
 28 27  1  0  0  0  0
 29 25  1  0  0  0  0
 31 28  1  0  0  0  0
 32 33  2  0  0  0  0
 33 31  1  0  0  0  0
 33 34  1  0  0  0  0
 34 35  1  0  0  0  0
 36 33  1  0  0  0  0
 37 36  1  0  0  0  0
M  END
>  <minimizedAffinity>
-5.01454306

>  <minimizedRMSD>
1.56237185

$$$$
