
 OpenBabel03252509023D

 45 47  0  0  1  0  0  0  0  0999 V2000
   36.8420   29.0960   40.2750 N   0  0  0  0  0  0  0  0  0  0  0  0
   35.8510   28.1850   39.7990 C   0  0  0  0  0  0  0  0  0  0  0  0
   34.9930   28.7140   38.6790 C   0  0  0  0  0  0  0  0  0  0  0  0
   35.6870   29.6610   37.7450 C   0  0  0  0  0  0  0  0  0  0  0  0
   37.1490   29.8140   38.0870 C   0  0  0  0  0  0  0  0  0  0  0  0
   37.1230   30.2670   39.5900 C   0  0  2  0  0  0  0  0  0  0  0  0
   36.4190   27.3180   39.3490 H   0  0  0  0  0  0  0  0  0  0  0  0
   35.1950   27.7550   40.5550 H   0  0  0  0  0  0  0  0  0  0  0  0
   34.5120   27.8700   38.1770 H   0  0  0  0  0  0  0  0  0  0  0  0
   34.1710   29.2930   39.1840 H   0  0  0  0  0  0  0  0  0  0  0  0
   35.6400   29.2020   36.7290 H   0  0  0  0  0  0  0  0  0  0  0  0
   35.2340   30.6530   37.7070 H   0  0  0  0  0  0  0  0  0  0  0  0
   37.5920   30.6010   37.4740 H   0  0  0  0  0  0  0  0  0  0  0  0
   37.6530   28.8400   38.0270 H   0  0  0  0  0  0  0  0  0  0  0  0
   36.3830   31.0870   39.6010 H   0  0  0  0  0  0  0  0  0  0  0  0
   37.0250   29.0620   41.7010 C   0  0  0  0  0  0  0  0  0  0  0  0
   36.5260   29.9090   42.2120 H   0  0  0  0  0  0  0  0  0  0  0  0
   38.1160   29.1590   41.8900 H   0  0  0  0  0  0  0  0  0  0  0  0
   36.5230   27.7470   42.2170 C   0  0  0  0  0  0  0  0  0  0  0  0
   35.8350   27.8410   43.0790 H   0  0  0  0  0  0  0  0  0  0  0  0
   35.9500   27.1990   41.4240 H   0  0  0  0  0  0  0  0  0  0  0  0
   38.8310   24.7980   42.5280 C   0  0  0  0  0  0  0  0  0  0  0  0
   37.7370   25.5990   42.1730 C   0  0  0  0  0  0  0  0  0  0  0  0
   37.6910   26.8980   42.5980 C   0  0  0  0  0  0  0  0  0  0  0  0
   38.7050   27.3550   43.3420 N   0  0  0  0  0  0  0  0  0  0  0  0
   39.7570   26.5730   43.6790 C   0  0  0  0  0  0  0  0  0  0  0  0
   39.8270   25.2910   43.2740 N   0  0  0  0  0  0  0  0  0  0  0  0
   38.8940   23.7670   42.2060 H   0  0  0  0  0  0  0  0  0  0  0  0
   36.9730   25.1280   41.5690 H   0  0  0  0  0  0  0  0  0  0  0  0
   40.4700   27.1220   44.2810 H   0  0  0  0  0  0  0  0  0  0  0  0
   38.4300   30.6770   39.7900 O   0  0  0  0  0  0  0  0  0  0  0  0
   39.2250   32.4380   41.5990 O   0  0  0  0  0  0  0  0  0  0  0  0
   38.5550   32.2910   40.2380 P   0  0  2  0  0  0  0  0  0  0  0  0
   36.9540   32.8550   40.4580 O   0  0  0  0  0  0  0  0  0  0  0  0
   36.5010   32.8540   39.5750 H   0  0  0  0  0  0  0  0  0  0  0  0
   39.2680   33.2240   39.0610 O   0  0  0  0  0  0  0  0  0  0  0  0
   40.9330   32.2440   37.6730 C   0  0  2  0  0  3  0  0  0  0  0  0
   40.6200   32.8890   38.9860 C   0  0  1  0  0  3  0  0  0  0  0  0
   41.4420   34.1610   38.9420 C   0  0  0  0  0  3  0  0  0  0  0  0
   41.6990   34.5380   39.9500 H   0  0  0  0  0  0  0  0  0  0  0  0
   42.6200   33.7250   38.3310 O   0  0  0  0  0  0  0  0  0  0  0  0
   42.1350   33.0350   37.2010 C   0  0  0  0  0  3  0  0  0  0  0  0
   42.8830   32.3680   36.7550 H   0  0  0  0  0  0  0  0  0  0  0  0
   39.8740   32.4490   36.7920 O   0  0  0  0  0  0  0  0  0  0  0  0
   39.9980   33.3560   36.3880 H   0  0  0  0  0  0  0  0  0  0  0  0
  1 16  1  0  0  0  0
  2  1  1  0  0  0  0
  2  8  1  0  0  0  0
  3 10  1  0  0  0  0
  3  2  1  0  0  0  0
  4  5  1  0  0  0  0
  4  3  1  0  0  0  0
  5  6  1  0  0  0  0
  6 15  1  1  0  0  0
  6 31  1  0  0  0  0
  6  1  1  0  0  0  0
  7  2  1  0  0  0  0
  9  3  1  0  0  0  0
 11  4  1  0  0  0  0
 12  4  1  0  0  0  0
 13  5  1  0  0  0  0
 14  5  1  0  0  0  0
 16 18  1  0  0  0  0
 16 17  1  0  0  0  0
 16 19  1  0  0  0  0
 19 24  1  0  0  0  0
 19 20  1  0  0  0  0
 21 19  1  0  0  0  0
 22 27  1  0  0  0  0
 23 22  2  0  0  0  0
 23 24  1  0  0  0  0
 24 25  2  0  0  0  0
 25 26  1  0  0  0  0
 26 30  1  0  0  0  0
 27 26  2  0  0  0  0
 28 22  1  0  0  0  0
 29 23  1  0  0  0  0
 31 33  1  0  0  0  0
 33 34  1  0  0  0  0
 33 32  2  1  0  0  0
 35 34  1  0  0  0  0
 36 33  1  0  0  0  0
 37 44  1  6  0  0  0
 37 38  1  0  0  0  0
 38 36  1  6  0  0  0
 39 38  1  0  0  0  0
 39 40  1  0  0  0  0
 41 39  1  0  0  0  0
 42 37  1  0  0  0  0
 42 41  1  0  0  0  0
 43 42  1  0  0  0  0
 45 44  1  0  0  0  0
M  END
>  <minimizedAffinity>
-5.93966246

$$$$

 OpenBabel03252509023D

 45 47  0  0  1  0  0  0  0  0999 V2000
   36.3920   27.5030   39.2690 N   0  0  0  0  0  0  0  0  0  0  0  0
   35.6070   26.8810   38.2510 C   0  0  0  0  0  0  0  0  0  0  0  0
   34.5520   27.7670   37.6380 C   0  0  0  0  0  0  0  0  0  0  0  0
   34.9170   29.2190   37.5560 C   0  0  0  0  0  0  0  0  0  0  0  0
   36.3260   29.4710   38.0360 C   0  0  0  0  0  0  0  0  0  0  0  0
   36.3260   28.8690   39.4860 C   0  0  2  0  0  0  0  0  0  0  0  0
   36.3210   26.6490   37.4080 H   0  0  0  0  0  0  0  0  0  0  0  0
   35.1400   25.9340   38.5200 H   0  0  0  0  0  0  0  0  0  0  0  0
   34.2420   27.3330   36.6830 H   0  0  0  0  0  0  0  0  0  0  0  0
   33.6640   27.6890   38.3260 H   0  0  0  0  0  0  0  0  0  0  0  0
   34.8910   29.4960   36.4750 H   0  0  0  0  0  0  0  0  0  0  0  0
   34.2420   29.8750   38.1060 H   0  0  0  0  0  0  0  0  0  0  0  0
   36.5150   30.5450   38.0840 H   0  0  0  0  0  0  0  0  0  0  0  0
   37.0390   28.9010   37.4240 H   0  0  0  0  0  0  0  0  0  0  0  0
   35.4170   29.2990   39.9450 H   0  0  0  0  0  0  0  0  0  0  0  0
   36.7020   26.6360   40.3740 C   0  0  0  0  0  0  0  0  0  0  0  0
   35.8890   25.9140   40.5870 H   0  0  0  0  0  0  0  0  0  0  0  0
   36.8140   27.2820   41.2710 H   0  0  0  0  0  0  0  0  0  0  0  0
   37.9910   25.9280   40.0800 C   0  0  0  0  0  0  0  0  0  0  0  0
   37.8540   24.9290   39.6220 H   0  0  0  0  0  0  0  0  0  0  0  0
   38.6130   26.5160   39.3550 H   0  0  0  0  0  0  0  0  0  0  0  0
   39.7090   24.4260   43.0650 C   0  0  0  0  0  0  0  0  0  0  0  0
   38.9760   24.5550   41.8770 C   0  0  0  0  0  0  0  0  0  0  0  0
   38.7720   25.7980   41.3450 C   0  0  0  0  0  0  0  0  0  0  0  0
   39.2880   26.8520   41.9890 N   0  0  0  0  0  0  0  0  0  0  0  0
   39.9930   26.7180   43.1350 C   0  0  0  0  0  0  0  0  0  0  0  0
   40.2090   25.5050   43.6800 N   0  0  0  0  0  0  0  0  0  0  0  0
   39.8850   23.4560   43.5080 H   0  0  0  0  0  0  0  0  0  0  0  0
   38.6050   23.6370   41.4410 H   0  0  0  0  0  0  0  0  0  0  0  0
   40.3250   27.6810   43.5010 H   0  0  0  0  0  0  0  0  0  0  0  0
   37.5110   29.3640   40.0020 O   0  0  0  0  0  0  0  0  0  0  0  0
   37.2100   29.4250   42.6320 O   0  0  0  0  0  0  0  0  0  0  0  0
   37.2930   30.2950   41.3830 P   0  0  2  0  0  0  0  0  0  0  0  0
   35.7520   31.0240   41.2340 O   0  0  0  0  0  0  0  0  0  0  0  0
   35.7840   31.6660   40.4780 H   0  0  0  0  0  0  0  0  0  0  0  0
   38.4210   31.5100   41.5150 O   0  0  0  0  0  0  0  0  0  0  0  0
   38.7470   33.4480   40.1750 C   0  0  2  0  0  3  0  0  0  0  0  0
   38.7490   31.9530   40.2340 C   0  0  1  0  0  3  0  0  0  0  0  0
   40.1960   31.6070   39.9470 C   0  0  0  0  0  3  0  0  0  0  0  0
   40.3140   30.5950   39.5130 H   0  0  0  0  0  0  0  0  0  0  0  0
   40.5280   32.5400   38.9620 O   0  0  0  0  0  0  0  0  0  0  0  0
   40.0850   33.7500   39.5330 C   0  0  0  0  0  3  0  0  0  0  0  0
   39.9850   34.5580   38.7970 H   0  0  0  0  0  0  0  0  0  0  0  0
   38.7330   33.9630   41.4700 O   0  0  0  0  0  0  0  0  0  0  0  0
   39.6790   33.9660   41.7960 H   0  0  0  0  0  0  0  0  0  0  0  0
  1  6  1  0  0  0  0
  1 16  1  0  0  0  0
  2  8  1  0  0  0  0
  2  1  1  0  0  0  0
  3  2  1  0  0  0  0
  3 10  1  0  0  0  0
  4  3  1  0  0  0  0
  4  5  1  0  0  0  0
  4 12  1  0  0  0  0
  5 13  1  0  0  0  0
  5  6  1  0  0  0  0
  6 15  1  1  0  0  0
  6 31  1  0  0  0  0
  7  2  1  0  0  0  0
  9  3  1  0  0  0  0
 11  4  1  0  0  0  0
 14  5  1  0  0  0  0
 16 17  1  0  0  0  0
 16 18  1  0  0  0  0
 19 16  1  0  0  0  0
 19 24  1  0  0  0  0
 20 19  1  0  0  0  0
 21 19  1  0  0  0  0
 22 28  1  0  0  0  0
 22 27  1  0  0  0  0
 23 22  2  0  0  0  0
 24 23  1  0  0  0  0
 24 25  2  0  0  0  0
 25 26  1  0  0  0  0
 26 30  1  0  0  0  0
 26 27  2  0  0  0  0
 29 23  1  0  0  0  0
 31 33  1  0  0  0  0
 33 36  1  0  0  0  0
 33 32  2  1  0  0  0
 34 33  1  0  0  0  0
 35 34  1  0  0  0  0
 37 38  1  0  0  0  0
 37 44  1  1  0  0  0
 38 36  1  1  0  0  0
 39 38  1  0  0  0  0
 40 39  1  0  0  0  0
 41 42  1  0  0  0  0
 41 39  1  0  0  0  0
 42 37  1  0  0  0  0
 43 42  1  0  0  0  0
 44 45  1  0  0  0  0
M  END
>  <minimizedAffinity>
-5.48788261

$$$$

 OpenBabel03252509023D

 45 47  0  0  1  0  0  0  0  0999 V2000
   37.2500   29.3320   42.0640 N   0  0  0  0  0  0  0  0  0  0  0  0
   36.4290   28.1650   42.0240 C   0  0  0  0  0  0  0  0  0  0  0  0
   37.1840   26.8630   41.9520 C   0  0  0  0  0  0  0  0  0  0  0  0
   38.5030   26.8570   42.6670 C   0  0  0  0  0  0  0  0  0  0  0  0
   38.7520   28.1570   43.3920 C   0  0  0  0  0  0  0  0  0  0  0  0
   38.6180   29.2350   42.2580 C   0  0  2  0  0  0  0  0  0  0  0  0
   35.8860   28.1340   43.0140 H   0  0  0  0  0  0  0  0  0  0  0  0
   35.6550   28.1520   41.2570 H   0  0  0  0  0  0  0  0  0  0  0  0
   36.5150   26.0520   42.2510 H   0  0  0  0  0  0  0  0  0  0  0  0
   37.4020   26.7080   40.8580 H   0  0  0  0  0  0  0  0  0  0  0  0
   38.4410   26.0600   43.4460 H   0  0  0  0  0  0  0  0  0  0  0  0
   39.3550   26.6540   42.0170 H   0  0  0  0  0  0  0  0  0  0  0  0
   39.7670   28.1700   43.7930 H   0  0  0  0  0  0  0  0  0  0  0  0
   37.9590   28.3330   44.1320 H   0  0  0  0  0  0  0  0  0  0  0  0
   39.2500   28.8350   41.4450 H   0  0  0  0  0  0  0  0  0  0  0  0
   36.7310   30.4350   41.3000 C   0  0  0  0  0  0  0  0  0  0  0  0
   37.5190   30.9580   40.7230 H   0  0  0  0  0  0  0  0  0  0  0  0
   36.3150   31.1650   42.0280 H   0  0  0  0  0  0  0  0  0  0  0  0
   35.6480   29.9240   40.3990 C   0  0  0  0  0  0  0  0  0  0  0  0
   35.3310   28.8880   40.6280 H   0  0  0  0  0  0  0  0  0  0  0  0
   34.7250   30.5550   40.4860 H   0  0  0  0  0  0  0  0  0  0  0  0
   35.9200   29.3310   36.6980 C   0  0  0  0  0  0  0  0  0  0  0  0
   35.4830   29.2600   38.0280 C   0  0  0  0  0  0  0  0  0  0  0  0
   36.1170   30.0040   38.9840 C   0  0  0  0  0  0  0  0  0  0  0  0
   37.1400   30.7790   38.6040 N   0  0  0  0  0  0  0  0  0  0  0  0
   37.5550   30.8410   37.3170 C   0  0  0  0  0  0  0  0  0  0  0  0
   36.9470   30.1180   36.3570 N   0  0  0  0  0  0  0  0  0  0  0  0
   35.4370   28.7530   35.9220 H   0  0  0  0  0  0  0  0  0  0  0  0
   34.6470   28.6010   38.2240 H   0  0  0  0  0  0  0  0  0  0  0  0
   38.3910   31.5200   37.2120 H   0  0  0  0  0  0  0  0  0  0  0  0
   39.1300   30.3640   42.8730 O   0  0  0  0  0  0  0  0  0  0  0  0
   41.3050   29.8440   41.4560 O   0  0  0  0  0  0  0  0  0  0  0  0
   40.5080   30.9610   42.1190 P   0  0  2  0  0  0  0  0  0  0  0  0
   41.5170   31.5610   43.3640 O   0  0  0  0  0  0  0  0  0  0  0  0
   41.0700   32.3480   43.7730 H   0  0  0  0  0  0  0  0  0  0  0  0
   40.1710   32.2180   41.0840 O   0  0  0  0  0  0  0  0  0  0  0  0
   40.4910   32.6670   38.7700 C   0  0  2  0  0  3  0  0  0  0  0  0
   41.1100   32.2070   40.0520 C   0  0  1  0  0  3  0  0  0  0  0  0
   42.1540   33.2720   40.3230 C   0  0  0  0  0  3  0  0  0  0  0  0
   42.9900   32.9000   40.9460 H   0  0  0  0  0  0  0  0  0  0  0  0
   42.6490   33.5260   39.0430 O   0  0  0  0  0  0  0  0  0  0  0  0
   41.4690   33.7220   38.2970 C   0  0  0  0  0  3  0  0  0  0  0  0
   41.6290   33.6400   37.2140 H   0  0  0  0  0  0  0  0  0  0  0  0
   39.2630   33.2670   39.0380 O   0  0  0  0  0  0  0  0  0  0  0  0
   39.4490   34.2150   39.3000 H   0  0  0  0  0  0  0  0  0  0  0  0
  1  6  1  0  0  0  0
  2  1  1  0  0  0  0
  2  7  1  0  0  0  0
  3  2  1  0  0  0  0
  3  9  1  0  0  0  0
  3  4  1  0  0  0  0
  4  5  1  0  0  0  0
  4 11  1  0  0  0  0
  5 13  1  0  0  0  0
  5 14  1  0  0  0  0
  6 15  1  6  0  0  0
  6 31  1  0  0  0  0
  6  5  1  0  0  0  0
  8  2  1  0  0  0  0
 10  3  1  0  0  0  0
 12  4  1  0  0  0  0
 16 18  1  0  0  0  0
 16  1  1  0  0  0  0
 17 16  1  0  0  0  0
 19 21  1  0  0  0  0
 19 20  1  0  0  0  0
 19 16  1  0  0  0  0
 22 23  1  0  0  0  0
 23 29  1  0  0  0  0
 23 24  2  0  0  0  0
 24 19  1  0  0  0  0
 25 24  1  0  0  0  0
 26 25  2  0  0  0  0
 27 22  2  0  0  0  0
 27 26  1  0  0  0  0
 28 22  1  0  0  0  0
 30 26  1  0  0  0  0
 33 32  2  6  0  0  0
 33 31  1  0  0  0  0
 33 34  1  0  0  0  0
 34 35  1  0  0  0  0
 36 33  1  0  0  0  0
 37 44  1  1  0  0  0
 37 38  1  0  0  0  0
 38 39  1  0  0  0  0
 38 36  1  1  0  0  0
 39 40  1  0  0  0  0
 41 39  1  0  0  0  0
 42 37  1  0  0  0  0
 42 41  1  0  0  0  0
 43 42  1  0  0  0  0
 44 45  1  0  0  0  0
M  END
>  <minimizedAffinity>
-5.29735422

$$$$

 OpenBabel03252509023D

 45 47  0  0  1  0  0  0  0  0999 V2000
   38.3840   26.0070   39.7960 N   0  0  0  0  0  0  0  0  0  0  0  0
   38.7350   24.7320   39.2570 C   0  0  0  0  0  0  0  0  0  0  0  0
   38.8260   23.6210   40.2720 C   0  0  0  0  0  0  0  0  0  0  0  0
   37.8750   23.7390   41.4260 C   0  0  0  0  0  0  0  0  0  0  0  0
   36.9520   24.9240   41.2710 C   0  0  0  0  0  0  0  0  0  0  0  0
   37.9410   26.1320   41.1020 C   0  0  2  0  0  0  0  0  0  0  0  0
   37.8820   24.4380   38.5780 H   0  0  0  0  0  0  0  0  0  0  0  0
   39.6340   24.7040   38.6420 H   0  0  0  0  0  0  0  0  0  0  0  0
   38.7720   22.6620   39.7490 H   0  0  0  0  0  0  0  0  0  0  0  0
   39.8670   23.6930   40.6960 H   0  0  0  0  0  0  0  0  0  0  0  0
   37.2330   22.8260   41.4060 H   0  0  0  0  0  0  0  0  0  0  0  0
   38.3660   23.8070   42.3970 H   0  0  0  0  0  0  0  0  0  0  0  0
   36.3630   25.0560   42.1800 H   0  0  0  0  0  0  0  0  0  0  0  0
   36.3660   24.8260   40.3480 H   0  0  0  0  0  0  0  0  0  0  0  0
   38.6600   25.9960   41.9300 H   0  0  0  0  0  0  0  0  0  0  0  0
   39.0850   27.1060   39.1890 C   0  0  0  0  0  0  0  0  0  0  0  0
   40.1050   27.2370   39.6020 H   0  0  0  0  0  0  0  0  0  0  0  0
   38.5120   28.0270   39.4290 H   0  0  0  0  0  0  0  0  0  0  0  0
   39.1250   26.8890   37.7060 C   0  0  0  0  0  0  0  0  0  0  0  0
   40.1420   26.9630   37.2740 H   0  0  0  0  0  0  0  0  0  0  0  0
   38.7520   25.8650   37.4430 H   0  0  0  0  0  0  0  0  0  0  0  0
   36.8870   28.5360   35.1770 C   0  0  0  0  0  0  0  0  0  0  0  0
   37.7330   27.6080   35.8010 C   0  0  0  0  0  0  0  0  0  0  0  0
   38.2260   27.8810   37.0470 C   0  0  0  0  0  0  0  0  0  0  0  0
   37.8760   29.0370   37.6250 N   0  0  0  0  0  0  0  0  0  0  0  0
   37.0610   29.9270   37.0140 C   0  0  0  0  0  0  0  0  0  0  0  0
   36.5610   29.6820   35.7870 N   0  0  0  0  0  0  0  0  0  0  0  0
   36.4830   28.3470   34.1920 H   0  0  0  0  0  0  0  0  0  0  0  0
   37.9500   26.7070   35.2440 H   0  0  0  0  0  0  0  0  0  0  0  0
   36.8970   30.7950   37.6390 H   0  0  0  0  0  0  0  0  0  0  0  0
   37.0970   27.2180   41.2550 O   0  0  0  0  0  0  0  0  0  0  0  0
   38.4900   27.4640   43.4930 O   0  0  0  0  0  0  0  0  0  0  0  0
   37.2790   27.9940   42.7340 P   0  0  2  0  0  0  0  0  0  0  0  0
   35.9230   27.5530   43.6800 O   0  0  0  0  0  0  0  0  0  0  0  0
   35.1130   27.9500   43.2650 H   0  0  0  0  0  0  0  0  0  0  0  0
   37.2820   29.6500   42.5870 O   0  0  0  0  0  0  0  0  0  0  0  0
   36.5230   30.7090   40.5970 C   0  0  2  0  0  3  0  0  0  0  0  0
   37.6360   29.9790   41.2790 C   0  0  1  0  0  3  0  0  0  0  0  0
   38.7450   31.0120   41.3130 C   0  0  0  0  0  3  0  0  0  0  0  0
   39.7520   30.5560   41.3590 H   0  0  0  0  0  0  0  0  0  0  0  0
   38.6070   31.6270   40.0660 O   0  0  0  0  0  0  0  0  0  0  0  0
   37.2280   31.9210   40.0270 C   0  0  0  0  0  3  0  0  0  0  0  0
   36.8670   32.1360   39.0130 H   0  0  0  0  0  0  0  0  0  0  0  0
   35.5910   31.1240   41.5460 O   0  0  0  0  0  0  0  0  0  0  0  0
   35.9290   31.9820   41.9350 H   0  0  0  0  0  0  0  0  0  0  0  0
  1  6  1  0  0  0  0
  2  1  1  0  0  0  0
  2  3  1  0  0  0  0
  3 10  1  0  0  0  0
  3  4  1  0  0  0  0
  4 12  1  0  0  0  0
  5  4  1  0  0  0  0
  5 13  1  0  0  0  0
  6 31  1  0  0  0  0
  6  5  1  0  0  0  0
  6 15  1  1  0  0  0
  7  2  1  0  0  0  0
  8  2  1  0  0  0  0
  9  3  1  0  0  0  0
 11  4  1  0  0  0  0
 14  5  1  0  0  0  0
 16 18  1  0  0  0  0
 16 17  1  0  0  0  0
 16  1  1  0  0  0  0
 19 16  1  0  0  0  0
 20 19  1  0  0  0  0
 21 19  1  0  0  0  0
 22 27  2  0  0  0  0
 22 23  1  0  0  0  0
 23 24  2  0  0  0  0
 24 25  1  0  0  0  0
 24 19  1  0  0  0  0
 26 25  2  0  0  0  0
 26 30  1  0  0  0  0
 27 26  1  0  0  0  0
 28 22  1  0  0  0  0
 29 23  1  0  0  0  0
 31 33  1  0  0  0  0
 33 32  2  1  0  0  0
 33 34  1  0  0  0  0
 35 34  1  0  0  0  0
 36 33  1  0  0  0  0
 37 38  1  0  0  0  0
 37 44  1  1  0  0  0
 38 39  1  0  0  0  0
 38 36  1  1  0  0  0
 39 40  1  0  0  0  0
 41 39  1  0  0  0  0
 42 41  1  0  0  0  0
 42 37  1  0  0  0  0
 43 42  1  0  0  0  0
 44 45  1  0  0  0  0
M  END
>  <minimizedAffinity>
-5.28535843

$$$$

 OpenBabel03252509023D

 45 47  0  0  1  0  0  0  0  0999 V2000
   37.2520   27.8750   39.4110 N   0  0  0  0  0  0  0  0  0  0  0  0
   36.9710   26.6060   40.0030 C   0  0  0  0  0  0  0  0  0  0  0  0
   37.0250   26.5860   41.5090 C   0  0  0  0  0  0  0  0  0  0  0  0
   36.5990   27.8620   42.1730 C   0  0  0  0  0  0  0  0  0  0  0  0
   36.1160   28.8810   41.1700 C   0  0  0  0  0  0  0  0  0  0  0  0
   37.3300   29.0210   40.1850 C   0  0  2  0  0  0  0  0  0  0  0  0
   35.8960   26.3760   39.7450 H   0  0  0  0  0  0  0  0  0  0  0  0
   37.5560   25.7660   39.6310 H   0  0  0  0  0  0  0  0  0  0  0  0
   36.4930   25.7010   41.8670 H   0  0  0  0  0  0  0  0  0  0  0  0
   38.1100   26.4280   41.7640 H   0  0  0  0  0  0  0  0  0  0  0  0
   35.7270   27.6090   42.8220 H   0  0  0  0  0  0  0  0  0  0  0  0
   37.3760   28.3200   42.7860 H   0  0  0  0  0  0  0  0  0  0  0  0
   35.9360   29.8350   41.6690 H   0  0  0  0  0  0  0  0  0  0  0  0
   35.2600   28.4810   40.6110 H   0  0  0  0  0  0  0  0  0  0  0  0
   38.1950   29.1590   40.8570 H   0  0  0  0  0  0  0  0  0  0  0  0
   38.0320   27.7930   38.2050 C   0  0  0  0  0  0  0  0  0  0  0  0
   39.0430   27.3780   38.3820 H   0  0  0  0  0  0  0  0  0  0  0  0
   38.1620   28.8320   37.8330 H   0  0  0  0  0  0  0  0  0  0  0  0
   37.2780   26.9730   37.2020 C   0  0  0  0  0  0  0  0  0  0  0  0
   37.9270   26.3280   36.5780 H   0  0  0  0  0  0  0  0  0  0  0  0
   36.5570   26.2820   37.7120 H   0  0  0  0  0  0  0  0  0  0  0  0
   36.3660   29.3640   34.4510 C   0  0  0  0  0  0  0  0  0  0  0  0
   37.1050   28.5060   35.2770 C   0  0  0  0  0  0  0  0  0  0  0  0
   36.4860   27.8860   36.3270 C   0  0  0  0  0  0  0  0  0  0  0  0
   35.1840   28.1290   36.5230 N   0  0  0  0  0  0  0  0  0  0  0  0
   34.4800   28.9600   35.7210 C   0  0  0  0  0  0  0  0  0  0  0  0
   35.0660   29.5820   34.6800 N   0  0  0  0  0  0  0  0  0  0  0  0
   36.8300   29.8670   33.6130 H   0  0  0  0  0  0  0  0  0  0  0  0
   38.1500   28.3820   35.0260 H   0  0  0  0  0  0  0  0  0  0  0  0
   33.4480   29.0250   36.0420 H   0  0  0  0  0  0  0  0  0  0  0  0
   36.9850   30.1510   39.4630 O   0  0  0  0  0  0  0  0  0  0  0  0
   38.7750   31.2190   41.0960 O   0  0  0  0  0  0  0  0  0  0  0  0
   37.8270   31.5240   39.9420 P   0  0  2  0  0  0  0  0  0  0  0  0
   36.6630   32.6020   40.5830 O   0  0  0  0  0  0  0  0  0  0  0  0
   36.0700   32.8940   39.8430 H   0  0  0  0  0  0  0  0  0  0  0  0
   38.5800   32.2830   38.6690 O   0  0  0  0  0  0  0  0  0  0  0  0
   40.7400   32.2200   37.6740 C   0  0  2  0  0  3  0  0  0  0  0  0
   39.9470   32.3500   38.9360 C   0  0  1  0  0  3  0  0  0  0  0  0
   40.2900   33.7480   39.4080 C   0  0  0  0  0  3  0  0  0  0  0  0
   40.1770   33.8690   40.5020 H   0  0  0  0  0  0  0  0  0  0  0  0
   41.6510   33.8320   39.1040 O   0  0  0  0  0  0  0  0  0  0  0  0
   41.6860   33.3990   37.7620 C   0  0  0  0  0  3  0  0  0  0  0  0
   42.6920   33.1110   37.4330 H   0  0  0  0  0  0  0  0  0  0  0  0
   39.8970   32.3880   36.5780 O   0  0  0  0  0  0  0  0  0  0  0  0
   39.8010   33.3730   36.4290 H   0  0  0  0  0  0  0  0  0  0  0  0
  1  2  1  0  0  0  0
  1  6  1  0  0  0  0
  2  3  1  0  0  0  0
  3 10  1  0  0  0  0
  3  9  1  0  0  0  0
  3  4  1  0  0  0  0
  4 12  1  0  0  0  0
  4 11  1  0  0  0  0
  5 13  1  0  0  0  0
  5  4  1  0  0  0  0
  6 15  1  1  0  0  0
  6  5  1  0  0  0  0
  7  2  1  0  0  0  0
  8  2  1  0  0  0  0
 14  5  1  0  0  0  0
 16 17  1  0  0  0  0
 16  1  1  0  0  0  0
 18 16  1  0  0  0  0
 19 21  1  0  0  0  0
 19 16  1  0  0  0  0
 20 19  1  0  0  0  0
 22 27  2  0  0  0  0
 22 23  1  0  0  0  0
 23 24  2  0  0  0  0
 24 25  1  0  0  0  0
 24 19  1  0  0  0  0
 26 30  1  0  0  0  0
 26 25  2  0  0  0  0
 27 26  1  0  0  0  0
 28 22  1  0  0  0  0
 29 23  1  0  0  0  0
 31 33  1  0  0  0  0
 31  6  1  0  0  0  0
 33 34  1  0  0  0  0
 33 32  2  1  0  0  0
 35 34  1  0  0  0  0
 36 33  1  0  0  0  0
 37 44  1  6  0  0  0
 37 42  1  0  0  0  0
 37 38  1  0  0  0  0
 38 36  1  6  0  0  0
 38 39  1  0  0  0  0
 39 40  1  0  0  0  0
 41 39  1  0  0  0  0
 42 41  1  0  0  0  0
 43 42  1  0  0  0  0
 45 44  1  0  0  0  0
M  END
>  <minimizedAffinity>
-5.24256086

$$$$

 OpenBabel03252509023D

 45 47  0  0  1  0  0  0  0  0999 V2000
   37.7460   28.4850   38.3530 N   0  0  0  0  0  0  0  0  0  0  0  0
   37.1930   27.3870   37.6260 C   0  0  0  0  0  0  0  0  0  0  0  0
   35.6930   27.2720   37.7010 C   0  0  0  0  0  0  0  0  0  0  0  0
   34.9630   28.5790   37.8020 C   0  0  0  0  0  0  0  0  0  0  0  0
   35.9070   29.7550   37.7180 C   0  0  0  0  0  0  0  0  0  0  0  0
   36.9330   29.4770   38.8740 C   0  0  2  0  0  0  0  0  0  0  0  0
   37.4180   27.5910   36.5390 H   0  0  0  0  0  0  0  0  0  0  0  0
   37.6200   26.4080   37.8430 H   0  0  0  0  0  0  0  0  0  0  0  0
   35.3480   26.6360   36.8810 H   0  0  0  0  0  0  0  0  0  0  0  0
   35.4860   26.7060   38.6510 H   0  0  0  0  0  0  0  0  0  0  0  0
   34.2920   28.6410   36.9130 H   0  0  0  0  0  0  0  0  0  0  0  0
   34.3640   28.6800   38.7080 H   0  0  0  0  0  0  0  0  0  0  0  0
   35.3650   30.6800   37.9220 H   0  0  0  0  0  0  0  0  0  0  0  0
   36.4480   29.7340   36.7630 H   0  0  0  0  0  0  0  0  0  0  0  0
   36.2890   29.2460   39.7420 H   0  0  0  0  0  0  0  0  0  0  0  0
   38.9840   28.1770   39.0180 C   0  0  0  0  0  0  0  0  0  0  0  0
   39.3920   29.0440   39.5750 H   0  0  0  0  0  0  0  0  0  0  0  0
   39.7200   27.9170   38.2270 H   0  0  0  0  0  0  0  0  0  0  0  0
   38.7610   27.0070   39.9270 C   0  0  0  0  0  0  0  0  0  0  0  0
   38.0490   26.2600   39.5230 H   0  0  0  0  0  0  0  0  0  0  0  0
   39.7180   26.4520   40.1070 H   0  0  0  0  0  0  0  0  0  0  0  0
   36.6180   27.5010   42.9740 C   0  0  0  0  0  0  0  0  0  0  0  0
   37.0820   27.0380   41.7350 C   0  0  0  0  0  0  0  0  0  0  0  0
   38.2720   27.5040   41.2460 C   0  0  0  0  0  0  0  0  0  0  0  0
   38.9500   28.3930   41.9810 N   0  0  0  0  0  0  0  0  0  0  0  0
   38.4930   28.8350   43.1760 C   0  0  0  0  0  0  0  0  0  0  0  0
   37.3250   28.3910   43.6790 N   0  0  0  0  0  0  0  0  0  0  0  0
   35.6810   27.1500   43.3840 H   0  0  0  0  0  0  0  0  0  0  0  0
   36.4540   26.3200   41.2260 H   0  0  0  0  0  0  0  0  0  0  0  0
   39.1800   29.5470   43.6140 H   0  0  0  0  0  0  0  0  0  0  0  0
   37.5960   30.6890   38.9660 O   0  0  0  0  0  0  0  0  0  0  0  0
   36.2280   30.7970   41.2300 O   0  0  0  0  0  0  0  0  0  0  0  0
   37.3180   31.4860   40.4180 P   0  0  2  0  0  0  0  0  0  0  0  0
   36.6800   33.0200   40.0100 O   0  0  0  0  0  0  0  0  0  0  0  0
   37.3890   33.5390   39.5490 H   0  0  0  0  0  0  0  0  0  0  0  0
   38.7160   31.7290   41.2860 O   0  0  0  0  0  0  0  0  0  0  0  0
   40.0600   33.4000   40.2570 C   0  0  2  0  0  3  0  0  0  0  0  0
   39.7640   31.9400   40.3910 C   0  0  1  0  0  3  0  0  0  0  0  0
   41.0430   31.3910   40.9910 C   0  0  0  0  0  3  0  0  0  0  0  0
   41.1980   30.3200   40.7570 H   0  0  0  0  0  0  0  0  0  0  0  0
   42.0200   32.1250   40.3150 O   0  0  0  0  0  0  0  0  0  0  0  0
   41.5590   33.4490   40.4660 C   0  0  0  0  0  3  0  0  0  0  0  0
   42.0240   34.1460   39.7580 H   0  0  0  0  0  0  0  0  0  0  0  0
   39.4300   34.0970   41.2860 O   0  0  0  0  0  0  0  0  0  0  0  0
   40.0260   34.0390   42.0890 H   0  0  0  0  0  0  0  0  0  0  0  0
  1  6  1  0  0  0  0
  1 16  1  0  0  0  0
  2  3  1  0  0  0  0
  2  8  1  0  0  0  0
  2  1  1  0  0  0  0
  3  4  1  0  0  0  0
  3 10  1  0  0  0  0
  4 12  1  0  0  0  0
  5  4  1  0  0  0  0
  5 13  1  0  0  0  0
  5  6  1  0  0  0  0
  6 31  1  0  0  0  0
  6 15  1  1  0  0  0
  7  2  1  0  0  0  0
  9  3  1  0  0  0  0
 11  4  1  0  0  0  0
 14  5  1  0  0  0  0
 16 17  1  0  0  0  0
 16 19  1  0  0  0  0
 18 16  1  0  0  0  0
 19 21  1  0  0  0  0
 19 24  1  0  0  0  0
 20 19  1  0  0  0  0
 22 28  1  0  0  0  0
 22 27  1  0  0  0  0
 23 22  2  0  0  0  0
 24 23  1  0  0  0  0
 24 25  2  0  0  0  0
 25 26  1  0  0  0  0
 26 30  1  0  0  0  0
 26 27  2  0  0  0  0
 29 23  1  0  0  0  0
 31 33  1  0  0  0  0
 33 32  2  1  0  0  0
 33 36  1  0  0  0  0
 34 33  1  0  0  0  0
 35 34  1  0  0  0  0
 37 38  1  0  0  0  0
 37 42  1  0  0  0  0
 37 44  1  1  0  0  0
 38 39  1  0  0  0  0
 38 36  1  1  0  0  0
 40 39  1  0  0  0  0
 41 42  1  0  0  0  0
 41 39  1  0  0  0  0
 43 42  1  0  0  0  0
 44 45  1  0  0  0  0
M  END
>  <minimizedAffinity>
-5.19751692

$$$$

 OpenBabel03252509023D

 45 47  0  0  1  0  0  0  0  0999 V2000
   36.9510   30.1280   38.6480 N   0  0  0  0  0  0  0  0  0  0  0  0
   35.7940   29.4470   38.1630 C   0  0  0  0  0  0  0  0  0  0  0  0
   35.7380   29.2830   36.6660 C   0  0  0  0  0  0  0  0  0  0  0  0
   37.0720   29.1160   35.9990 C   0  0  0  0  0  0  0  0  0  0  0  0
   38.1970   29.0600   37.0030 C   0  0  0  0  0  0  0  0  0  0  0  0
   38.0250   30.3930   37.8140 C   0  0  2  0  0  0  0  0  0  0  0  0
   35.8610   28.3950   38.5700 H   0  0  0  0  0  0  0  0  0  0  0  0
   34.8340   29.8380   38.4970 H   0  0  0  0  0  0  0  0  0  0  0  0
   35.0210   28.4940   36.4250 H   0  0  0  0  0  0  0  0  0  0  0  0
   35.2950   30.2440   36.2800 H   0  0  0  0  0  0  0  0  0  0  0  0
   37.0500   28.1270   35.4830 H   0  0  0  0  0  0  0  0  0  0  0  0
   37.2990   29.8930   35.2680 H   0  0  0  0  0  0  0  0  0  0  0  0
   39.1570   29.0670   36.4840 H   0  0  0  0  0  0  0  0  0  0  0  0
   38.0460   28.2150   37.6890 H   0  0  0  0  0  0  0  0  0  0  0  0
   37.9190   31.1630   37.0280 H   0  0  0  0  0  0  0  0  0  0  0  0
   36.6840   31.0190   39.7450 C   0  0  0  0  0  0  0  0  0  0  0  0
   36.1380   31.9290   39.4270 H   0  0  0  0  0  0  0  0  0  0  0  0
   37.6680   31.3470   40.1430 H   0  0  0  0  0  0  0  0  0  0  0  0
   35.9210   30.2700   40.7950 C   0  0  0  0  0  0  0  0  0  0  0  0
   35.2950   30.9190   41.4380 H   0  0  0  0  0  0  0  0  0  0  0  0
   35.2200   29.5300   40.3290 H   0  0  0  0  0  0  0  0  0  0  0  0
   37.4790   27.5050   42.8080 C   0  0  0  0  0  0  0  0  0  0  0  0
   36.5770   28.2270   42.0140 C   0  0  0  0  0  0  0  0  0  0  0  0
   36.8850   29.5070   41.6410 C   0  0  0  0  0  0  0  0  0  0  0  0
   38.0490   30.0210   42.0570 N   0  0  0  0  0  0  0  0  0  0  0  0
   38.9120   29.3170   42.8240 C   0  0  0  0  0  0  0  0  0  0  0  0
   38.6330   28.0550   43.2040 N   0  0  0  0  0  0  0  0  0  0  0  0
   37.2610   26.4920   43.1170 H   0  0  0  0  0  0  0  0  0  0  0  0
   35.6670   27.7140   41.7350 H   0  0  0  0  0  0  0  0  0  0  0  0
   39.7920   29.9030   43.0550 H   0  0  0  0  0  0  0  0  0  0  0  0
   39.2160   30.4580   38.5160 O   0  0  0  0  0  0  0  0  0  0  0  0
   39.9090   32.9600   39.0370 O   0  0  0  0  0  0  0  0  0  0  0  0
   40.1580   31.7850   38.0980 P   0  0  2  0  0  0  0  0  0  0  0  0
   39.6040   32.3050   36.5650 O   0  0  0  0  0  0  0  0  0  0  0  0
   39.8210   31.5990   35.9010 H   0  0  0  0  0  0  0  0  0  0  0  0
   41.7690   31.4010   37.9550 O   0  0  0  0  0  0  0  0  0  0  0  0
   42.8600   30.4050   36.0900 C   0  0  2  0  0  3  0  0  0  0  0  0
   41.8820   30.2280   37.2080 C   0  0  1  0  0  3  0  0  0  0  0  0
   42.5350   29.1600   38.0610 C   0  0  0  0  0  3  0  0  0  0  0  0
   41.8020   28.5840   38.6580 H   0  0  0  0  0  0  0  0  0  0  0  0
   43.0710   28.3050   37.0960 O   0  0  0  0  0  0  0  0  0  0  0  0
   43.7610   29.1990   36.2520 C   0  0  0  0  0  3  0  0  0  0  0  0
   44.0010   28.7640   35.2730 H   0  0  0  0  0  0  0  0  0  0  0  0
   43.6030   31.5650   36.3040 O   0  0  0  0  0  0  0  0  0  0  0  0
   44.3460   31.3270   36.9310 H   0  0  0  0  0  0  0  0  0  0  0  0
  1 16  1  0  0  0  0
  2  8  1  0  0  0  0
  2  7  1  0  0  0  0
  2  1  1  0  0  0  0
  3  2  1  0  0  0  0
  4  3  1  0  0  0  0
  4  5  1  0  0  0  0
  5 14  1  0  0  0  0
  5  6  1  0  0  0  0
  6 15  1  6  0  0  0
  6 31  1  0  0  0  0
  6  1  1  0  0  0  0
  9  3  1  0  0  0  0
 10  3  1  0  0  0  0
 11  4  1  0  0  0  0
 12  4  1  0  0  0  0
 13  5  1  0  0  0  0
 16 18  1  0  0  0  0
 16 19  1  0  0  0  0
 17 16  1  0  0  0  0
 19 20  1  0  0  0  0
 19 24  1  0  0  0  0
 21 19  1  0  0  0  0
 22 28  1  0  0  0  0
 22 27  1  0  0  0  0
 23 22  2  0  0  0  0
 24 23  1  0  0  0  0
 24 25  2  0  0  0  0
 25 26  1  0  0  0  0
 26 30  1  0  0  0  0
 26 27  2  0  0  0  0
 29 23  1  0  0  0  0
 33 31  1  0  0  0  0
 33 32  2  1  0  0  0
 34 33  1  0  0  0  0
 35 34  1  0  0  0  0
 36 33  1  0  0  0  0
 37 42  1  0  0  0  0
 37 44  1  1  0  0  0
 37 38  1  0  0  0  0
 38 36  1  1  0  0  0
 38 39  1  0  0  0  0
 39 40  1  0  0  0  0
 41 39  1  0  0  0  0
 42 41  1  0  0  0  0
 43 42  1  0  0  0  0
 44 45  1  0  0  0  0
M  END
>  <minimizedAffinity>
-5.19437742

$$$$

 OpenBabel03252509023D

 45 47  0  0  1  0  0  0  0  0999 V2000
   38.1340   28.6710   42.4120 N   0  0  0  0  0  0  0  0  0  0  0  0
   39.0970   27.9470   43.1790 C   0  0  0  0  0  0  0  0  0  0  0  0
   40.5320   28.3140   42.9010 C   0  0  0  0  0  0  0  0  0  0  0  0
   40.7570   29.7510   42.5330 C   0  0  0  0  0  0  0  0  0  0  0  0
   39.4810   30.5540   42.6090 C   0  0  0  0  0  0  0  0  0  0  0  0
   38.5050   29.7720   41.6590 C   0  0  2  0  0  0  0  0  0  0  0  0
   38.9220   28.2450   44.2550 H   0  0  0  0  0  0  0  0  0  0  0  0
   39.0120   26.8610   43.1500 H   0  0  0  0  0  0  0  0  0  0  0  0
   41.1500   27.9680   43.7330 H   0  0  0  0  0  0  0  0  0  0  0  0
   40.8270   27.6960   42.0080 H   0  0  0  0  0  0  0  0  0  0  0  0
   41.4490   30.1730   43.3000 H   0  0  0  0  0  0  0  0  0  0  0  0
   41.1950   29.8890   41.5440 H   0  0  0  0  0  0  0  0  0  0  0  0
   39.6510   31.5580   42.2150 H   0  0  0  0  0  0  0  0  0  0  0  0
   39.0740   30.5180   43.6280 H   0  0  0  0  0  0  0  0  0  0  0  0
   39.1030   29.6210   40.7410 H   0  0  0  0  0  0  0  0  0  0  0  0
   37.0190   27.8730   41.9780 C   0  0  0  0  0  0  0  0  0  0  0  0
   36.9690   27.7800   40.8750 H   0  0  0  0  0  0  0  0  0  0  0  0
   36.0970   28.4000   42.3070 H   0  0  0  0  0  0  0  0  0  0  0  0
   37.1100   26.5270   42.6320 C   0  0  0  0  0  0  0  0  0  0  0  0
   37.9970   26.4100   43.2850 H   0  0  0  0  0  0  0  0  0  0  0  0
   36.2190   26.3400   43.2860 H   0  0  0  0  0  0  0  0  0  0  0  0
   37.6260   23.2410   40.8840 C   0  0  0  0  0  0  0  0  0  0  0  0
   37.6120   24.2340   41.8740 C   0  0  0  0  0  0  0  0  0  0  0  0
   37.1220   25.4750   41.5740 C   0  0  0  0  0  0  0  0  0  0  0  0
   36.6720   25.6910   40.3320 N   0  0  0  0  0  0  0  0  0  0  0  0
   36.6910   24.7270   39.3830 C   0  0  0  0  0  0  0  0  0  0  0  0
   37.1670   23.4960   39.6540 N   0  0  0  0  0  0  0  0  0  0  0  0
   38.0070   22.2510   41.0940 H   0  0  0  0  0  0  0  0  0  0  0  0
   38.0000   23.9500   42.8430 H   0  0  0  0  0  0  0  0  0  0  0  0
   36.2860   25.0950   38.4490 H   0  0  0  0  0  0  0  0  0  0  0  0
   37.4620   30.6710   41.5160 O   0  0  0  0  0  0  0  0  0  0  0  0
   38.8350   31.6470   39.4730 O   0  0  0  0  0  0  0  0  0  0  0  0
   37.4270   31.4100   40.0080 P   0  0  2  0  0  0  0  0  0  0  0  0
   36.7660   32.9690   40.2510 O   0  0  0  0  0  0  0  0  0  0  0  0
   35.8170   32.8650   40.5230 H   0  0  0  0  0  0  0  0  0  0  0  0
   36.4520   30.6050   38.9290 O   0  0  0  0  0  0  0  0  0  0  0  0
   36.8980   28.3910   38.1800 C   0  0  2  0  0  3  0  0  0  0  0  0
   37.2580   29.8400   38.0860 C   0  0  1  0  0  3  0  0  0  0  0  0
   36.9260   30.1760   36.6460 C   0  0  0  0  0  3  0  0  0  0  0  0
   37.5150   31.0300   36.2610 H   0  0  0  0  0  0  0  0  0  0  0  0
   37.3460   29.0260   35.9740 O   0  0  0  0  0  0  0  0  0  0  0  0
   36.7370   28.0000   36.7260 C   0  0  0  0  0  3  0  0  0  0  0  0
   37.1820   27.0140   36.5420 H   0  0  0  0  0  0  0  0  0  0  0  0
   35.6720   28.2600   38.8290 O   0  0  0  0  0  0  0  0  0  0  0  0
   34.9580   28.4030   38.1420 H   0  0  0  0  0  0  0  0  0  0  0  0
  1  2  1  0  0  0  0
  2  7  1  0  0  0  0
  3  2  1  0  0  0  0
  3  9  1  0  0  0  0
  4  5  1  0  0  0  0
  4  3  1  0  0  0  0
  4 11  1  0  0  0  0
  5 14  1  0  0  0  0
  6 15  1  6  0  0  0
  6  1  1  0  0  0  0
  6  5  1  0  0  0  0
  8  2  1  0  0  0  0
 10  3  1  0  0  0  0
 12  4  1  0  0  0  0
 13  5  1  0  0  0  0
 16 18  1  0  0  0  0
 16  1  1  0  0  0  0
 16 19  1  0  0  0  0
 17 16  1  0  0  0  0
 19 20  1  0  0  0  0
 19 21  1  0  0  0  0
 22 28  1  0  0  0  0
 22 23  1  0  0  0  0
 23 29  1  0  0  0  0
 24 23  2  0  0  0  0
 24 19  1  0  0  0  0
 25 24  1  0  0  0  0
 26 27  1  0  0  0  0
 26 25  2  0  0  0  0
 27 22  2  0  0  0  0
 30 26  1  0  0  0  0
 31  6  1  0  0  0  0
 33 32  2  6  0  0  0
 33 34  1  0  0  0  0
 33 31  1  0  0  0  0
 34 35  1  0  0  0  0
 36 33  1  0  0  0  0
 37 44  1  1  0  0  0
 38 37  1  0  0  0  0
 38 36  1  1  0  0  0
 39 38  1  0  0  0  0
 40 39  1  0  0  0  0
 41 39  1  0  0  0  0
 41 42  1  0  0  0  0
 42 37  1  0  0  0  0
 43 42  1  0  0  0  0
 45 44  1  0  0  0  0
M  END
>  <minimizedAffinity>
-5.11758327

$$$$

 OpenBabel03252509023D

 45 47  0  0  1  0  0  0  0  0999 V2000
   36.4330   30.0720   39.8110 N   0  0  0  0  0  0  0  0  0  0  0  0
   36.5490   30.3810   38.4220 C   0  0  0  0  0  0  0  0  0  0  0  0
   37.2510   29.3320   37.5980 C   0  0  0  0  0  0  0  0  0  0  0  0
   37.0440   27.9210   38.0630 C   0  0  0  0  0  0  0  0  0  0  0  0
   36.0860   27.8500   39.2280 C   0  0  0  0  0  0  0  0  0  0  0  0
   36.7360   28.8080   40.2890 C   0  0  2  0  0  0  0  0  0  0  0  0
   35.4930   30.4090   38.0220 H   0  0  0  0  0  0  0  0  0  0  0  0
   36.9870   31.3490   38.1830 H   0  0  0  0  0  0  0  0  0  0  0  0
   37.0060   29.4920   36.5450 H   0  0  0  0  0  0  0  0  0  0  0  0
   38.3490   29.5560   37.7070 H   0  0  0  0  0  0  0  0  0  0  0  0
   36.5640   27.3720   37.2180 H   0  0  0  0  0  0  0  0  0  0  0  0
   37.9650   27.4090   38.3420 H   0  0  0  0  0  0  0  0  0  0  0  0
   36.0560   26.8330   39.6220 H   0  0  0  0  0  0  0  0  0  0  0  0
   35.1110   28.2650   38.9380 H   0  0  0  0  0  0  0  0  0  0  0  0
   37.7910   28.4830   40.3190 H   0  0  0  0  0  0  0  0  0  0  0  0
   36.6170   31.2070   40.6760 C   0  0  0  0  0  0  0  0  0  0  0  0
   37.2290   30.9650   41.5670 H   0  0  0  0  0  0  0  0  0  0  0  0
   35.6100   31.5040   41.0390 H   0  0  0  0  0  0  0  0  0  0  0  0
   37.2320   32.3190   39.8820 C   0  0  0  0  0  0  0  0  0  0  0  0
   37.1440   32.1840   38.7860 H   0  0  0  0  0  0  0  0  0  0  0  0
   36.7350   33.2970   40.1120 H   0  0  0  0  0  0  0  0  0  0  0  0
   40.5460   31.6980   41.5400 C   0  0  0  0  0  0  0  0  0  0  0  0
   39.1950   31.5860   41.1840 C   0  0  0  0  0  0  0  0  0  0  0  0
   38.6710   32.4440   40.2570 C   0  0  0  0  0  0  0  0  0  0  0  0
   39.4810   33.3660   39.7230 N   0  0  0  0  0  0  0  0  0  0  0  0
   40.7840   33.4670   40.0740 C   0  0  0  0  0  0  0  0  0  0  0  0
   41.3240   32.6340   40.9840 N   0  0  0  0  0  0  0  0  0  0  0  0
   40.9870   31.0330   42.2700 H   0  0  0  0  0  0  0  0  0  0  0  0
   38.6320   30.8040   41.6770 H   0  0  0  0  0  0  0  0  0  0  0  0
   41.2690   34.2710   39.5350 H   0  0  0  0  0  0  0  0  0  0  0  0
   36.0140   28.5040   41.4300 O   0  0  0  0  0  0  0  0  0  0  0  0
   36.1690   27.1160   43.6800 O   0  0  0  0  0  0  0  0  0  0  0  0
   36.9750   27.9510   42.6920 P   0  0  2  0  0  0  0  0  0  0  0  0
   37.4660   29.3380   43.5660 O   0  0  0  0  0  0  0  0  0  0  0  0
   38.0660   29.8750   42.9850 H   0  0  0  0  0  0  0  0  0  0  0  0
   38.3440   27.1760   42.1550 O   0  0  0  0  0  0  0  0  0  0  0  0
   40.1260   26.7720   43.6790 C   0  0  2  0  0  3  0  0  0  0  0  0
   39.4540   27.7540   42.7720 C   0  0  1  0  0  3  0  0  0  0  0  0
   40.5150   28.0260   41.7250 C   0  0  0  0  0  3  0  0  0  0  0  0
   40.3970   29.0170   41.2450 H   0  0  0  0  0  0  0  0  0  0  0  0
   41.6810   28.0550   42.4930 O   0  0  0  0  0  0  0  0  0  0  0  0
   41.5740   26.8680   43.2460 C   0  0  0  0  0  3  0  0  0  0  0  0
   42.2380   26.8560   44.1200 H   0  0  0  0  0  0  0  0  0  0  0  0
   39.6500   25.4910   43.4090 O   0  0  0  0  0  0  0  0  0  0  0  0
   40.1700   25.1410   42.6290 H   0  0  0  0  0  0  0  0  0  0  0  0
  1  6  1  0  0  0  0
  1 16  1  0  0  0  0
  2  1  1  0  0  0  0
  3 10  1  0  0  0  0
  3  4  1  0  0  0  0
  3  2  1  0  0  0  0
  4 12  1  0  0  0  0
  4  5  1  0  0  0  0
  5 13  1  0  0  0  0
  5  6  1  0  0  0  0
  6 15  1  1  0  0  0
  6 31  1  0  0  0  0
  7  2  1  0  0  0  0
  8  2  1  0  0  0  0
  9  3  1  0  0  0  0
 11  4  1  0  0  0  0
 14  5  1  0  0  0  0
 16 18  1  0  0  0  0
 16 17  1  0  0  0  0
 19 21  1  0  0  0  0
 19 24  1  0  0  0  0
 19 16  1  0  0  0  0
 20 19  1  0  0  0  0
 22 28  1  0  0  0  0
 23 22  1  0  0  0  0
 23 29  1  0  0  0  0
 24 23  2  0  0  0  0
 25 26  2  0  0  0  0
 25 24  1  0  0  0  0
 26 27  1  0  0  0  0
 27 22  2  0  0  0  0
 30 26  1  0  0  0  0
 31 33  1  0  0  0  0
 33 34  1  0  0  0  0
 33 32  2  1  0  0  0
 35 34  1  0  0  0  0
 36 33  1  0  0  0  0
 37 44  1  6  0  0  0
 38 36  1  6  0  0  0
 38 37  1  0  0  0  0
 39 41  1  0  0  0  0
 39 38  1  0  0  0  0
 40 39  1  0  0  0  0
 41 42  1  0  0  0  0
 42 37  1  0  0  0  0
 42 43  1  0  0  0  0
 45 44  1  0  0  0  0
M  END
>  <minimizedAffinity>
-5.07015514

$$$$
