
 OpenBabel03252508593D

 45 47  0  0  1  0  0  0  0  0999 V2000
   46.8600   34.4140   43.5070 N   0  0  0  0  0  0  0  0  0  0  0  0
   46.3710   35.4570   42.6640 C   0  0  0  0  0  0  0  0  0  0  0  0
   44.8740   35.6310   42.6780 C   0  0  0  0  0  0  0  0  0  0  0  0
   44.2140   35.3210   43.9890 C   0  0  0  0  0  0  0  0  0  0  0  0
   45.2250   34.9800   45.0580 C   0  0  0  0  0  0  0  0  0  0  0  0
   46.0310   33.7910   44.4250 C   0  0  2  0  0  0  0  0  0  0  0  0
   46.7810   36.4190   43.0920 H   0  0  0  0  0  0  0  0  0  0  0  0
   46.6990   35.4250   41.6260 H   0  0  0  0  0  0  0  0  0  0  0  0
   44.6320   36.6210   42.2830 H   0  0  0  0  0  0  0  0  0  0  0  0
   44.4830   34.8860   41.9290 H   0  0  0  0  0  0  0  0  0  0  0  0
   43.7010   36.2560   44.3180 H   0  0  0  0  0  0  0  0  0  0  0  0
   43.4830   34.5150   43.9350 H   0  0  0  0  0  0  0  0  0  0  0  0
   44.7110   34.6380   45.9580 H   0  0  0  0  0  0  0  0  0  0  0  0
   45.9120   35.8240   45.2070 H   0  0  0  0  0  0  0  0  0  0  0  0
   45.2430   33.1080   44.0620 H   0  0  0  0  0  0  0  0  0  0  0  0
   47.9530   33.6720   42.9380 C   0  0  0  0  0  0  0  0  0  0  0  0
   48.6380   33.2680   43.7110 H   0  0  0  0  0  0  0  0  0  0  0  0
   48.5390   34.3840   42.3180 H   0  0  0  0  0  0  0  0  0  0  0  0
   47.3940   32.5750   42.0840 C   0  0  0  0  0  0  0  0  0  0  0  0
   47.6400   31.5590   42.4480 H   0  0  0  0  0  0  0  0  0  0  0  0
   46.2750   32.6270   42.0490 H   0  0  0  0  0  0  0  0  0  0  0  0
   49.3720   32.0790   38.9280 C   0  0  0  0  0  0  0  0  0  0  0  0
   48.8960   31.9260   40.2370 C   0  0  0  0  0  0  0  0  0  0  0  0
   47.8970   32.7440   40.6890 C   0  0  0  0  0  0  0  0  0  0  0  0
   47.4110   33.6670   39.8500 N   0  0  0  0  0  0  0  0  0  0  0  0
   47.8780   33.8080   38.5880 C   0  0  0  0  0  0  0  0  0  0  0  0
   48.8610   33.0150   38.1190 N   0  0  0  0  0  0  0  0  0  0  0  0
   50.1610   31.4470   38.5450 H   0  0  0  0  0  0  0  0  0  0  0  0
   49.3600   31.1480   40.8280 H   0  0  0  0  0  0  0  0  0  0  0  0
   47.3610   34.6050   38.0710 H   0  0  0  0  0  0  0  0  0  0  0  0
   46.7400   33.3130   45.5140 O   0  0  0  0  0  0  0  0  0  0  0  0
   45.6250   31.0060   44.8480 O   0  0  0  0  0  0  0  0  0  0  0  0
   46.2490   31.7820   46.0010 P   0  0  2  0  0  0  0  0  0  0  0  0
   44.9830   32.0180   47.1280 O   0  0  0  0  0  0  0  0  0  0  0  0
   45.3640   32.4490   47.9370 H   0  0  0  0  0  0  0  0  0  0  0  0
   47.4620   30.9400   46.7660 O   0  0  0  0  0  0  0  0  0  0  0  0
   48.6410   28.8780   46.6140 C   0  0  2  0  0  3  0  0  0  0  0  0
   47.3350   29.5880   46.4460 C   0  0  1  0  0  3  0  0  0  0  0  0
   46.4510   28.9170   47.4790 C   0  0  0  0  0  3  0  0  0  0  0  0
   45.3770   28.9720   47.2220 H   0  0  0  0  0  0  0  0  0  0  0  0
   46.8510   27.5830   47.3810 O   0  0  0  0  0  0  0  0  0  0  0  0
   48.2550   27.6830   47.4590 C   0  0  0  0  0  3  0  0  0  0  0  0
   48.7680   26.7800   47.1030 H   0  0  0  0  0  0  0  0  0  0  0  0
   49.5170   29.6860   47.3350 O   0  0  0  0  0  0  0  0  0  0  0  0
   49.3100   29.5550   48.3050 H   0  0  0  0  0  0  0  0  0  0  0  0
  1  6  1  0  0  0  0
  2  3  1  0  0  0  0
  2  7  1  0  0  0  0
  2  1  1  0  0  0  0
  3  4  1  0  0  0  0
  4 11  1  0  0  0  0
  4  5  1  0  0  0  0
  5 14  1  0  0  0  0
  5 13  1  0  0  0  0
  6 15  1  6  0  0  0
  6  5  1  0  0  0  0
  6 31  1  0  0  0  0
  8  2  1  0  0  0  0
  9  3  1  0  0  0  0
 10  3  1  0  0  0  0
 12  4  1  0  0  0  0
 16  1  1  0  0  0  0
 16 17  1  0  0  0  0
 18 16  1  0  0  0  0
 19 20  1  0  0  0  0
 19 16  1  0  0  0  0
 21 19  1  0  0  0  0
 22 23  1  0  0  0  0
 23 24  2  0  0  0  0
 23 29  1  0  0  0  0
 24 19  1  0  0  0  0
 25 24  1  0  0  0  0
 26 25  2  0  0  0  0
 27 26  1  0  0  0  0
 27 22  2  0  0  0  0
 28 22  1  0  0  0  0
 30 26  1  0  0  0  0
 31 33  1  0  0  0  0
 33 32  2  6  0  0  0
 33 36  1  0  0  0  0
 33 34  1  0  0  0  0
 34 35  1  0  0  0  0
 37 44  1  1  0  0  0
 37 42  1  0  0  0  0
 38 37  1  0  0  0  0
 38 36  1  1  0  0  0
 38 39  1  0  0  0  0
 40 39  1  0  0  0  0
 41 42  1  0  0  0  0
 41 39  1  0  0  0  0
 43 42  1  0  0  0  0
 44 45  1  0  0  0  0
M  END
>  <minimizedAffinity>
-4.24631262

>  <minimizedRMSD>
0.925739646

$$$$
