
     RDKit          3D

 34 35  0  0  0  0  0  0  0  0999 V2000
   42.4863   33.8201   41.1275 S   0  0  0  0  0  0  0  0  0  0  0  0
   39.8276   34.0681   40.4232 C   0  0  0  0  0  0  0  0  0  0  0  0
   41.1317   34.0666   39.9650 C   0  0  0  0  0  0  0  0  0  0  0  0
   41.4224   34.2546   38.6039 C   0  0  0  0  0  0  0  0  0  0  0  0
   40.3554   34.4351   37.7798 N   0  0  0  0  0  0  0  0  0  0  0  0
   39.1113   34.4296   38.2629 C   0  0  0  0  0  0  0  0  0  0  0  0
   38.8033   34.2549   39.5420 N   0  0  0  0  0  0  0  0  0  0  0  0
   43.7279   35.0797   40.8917 C   0  0  0  0  0  0  0  0  0  0  0  0
   43.5617   36.0528   41.9848 N   0  0  0  0  0  0  0  0  0  0  0  0
   44.8473   35.9154   43.1263 S   0  0  0  0  0  0  0  0  0  0  0  0
   45.9801   35.1083   42.6329 O   0  0  0  0  0  0  0  0  0  0  0  0
   45.2851   37.3519   43.4107 O   0  0  0  0  0  0  0  0  0  0  0  0
   44.2358   35.3570   44.5732 O   0  0  0  0  0  0  0  0  0  0  0  0
   39.6343   33.9203   41.4809 H   0  0  0  0  0  0  0  0  0  0  0  0
   42.4609   34.2495   38.2649 H   0  0  0  0  0  0  0  0  0  0  0  0
   38.4005   34.5893   37.4501 H   0  0  0  0  0  0  0  0  0  0  0  0
   43.6951   35.5723   39.9113 H   0  0  0  0  0  0  0  0  0  0  0  0
   44.7695   34.6621   41.0193 H   0  0  0  0  0  0  0  0  0  0  0  0
   43.5484   36.9917   41.5628 H   0  0  0  0  0  0  0  0  0  0  0  0
   46.5633   35.4531   41.9273 H   0  0  0  0  0  0  0  0  0  0  0  0
   44.7210   37.8679   44.0537 H   0  0  0  0  0  0  0  0  0  0  0  0
   44.5176   33.9431   47.2815 O   0  0  0  0  0  0  0  0  0  0  0  0
   45.4396   34.1322   46.2921 C   0  0  2  0  0  0  0  0  0  0  0  0
   44.8635   34.1821   44.8915 C   0  0  2  0  0  0  0  0  0  0  0  0
   46.1555   33.9716   44.1166 C   0  0  1  0  0  0  0  0  0  0  0  0
   45.9454   33.5345   43.1202 H   0  0  0  0  0  0  0  0  0  0  0  0
   46.9444   33.1331   44.8776 O   0  0  0  0  0  0  0  0  0  0  0  0
   46.3410   32.9058   46.0883 C   0  0  2  0  0  0  0  0  0  0  0  0
   45.6398   32.0473   45.9672 H   0  0  0  0  0  0  0  0  0  0  0  0
   44.3236   33.0118   47.4797 H   0  0  0  0  0  0  0  0  0  0  0  0
   46.1330   34.9656   46.4903 H   0  0  0  0  0  0  0  0  0  0  0  0
   44.2498   33.2827   44.7365 H   0  0  0  0  0  0  0  0  0  0  0  0
   46.6949   34.9339   43.9996 H   0  0  0  0  0  0  0  0  0  0  0  0
   47.0340   32.7879   46.9439 H   0  0  0  0  0  0  0  0  0  0  0  0
  3  2  2  0
  3  1  1  0
  4  3  1  0
  5  6  1  0
  5  4  2  0
  6  7  2  0
  7  2  1  0
  8  1  1  0
  8  9  1  0
  9 10  1  0
 10 12  1  0
 10 13  1  0
 11 10  1  0
  2 14  1  0
  4 15  1  0
  6 16  1  0
  8 17  1  0
  8 18  1  0
  9 19  1  0
 11 20  1  0
 12 21  1  0
 22 23  1  0
 23 24  1  0
 24 25  1  0
 25 26  1  6
 25 27  1  0
 27 28  1  0
 28 29  1  6
 28 23  1  0
 22 30  1  0
 23 31  1  1
 24 32  1  1
 25 33  1  0
 28 34  1  0
 13 24  1  0
M  ISO  8  14  14  15  14  16  14  17   8  18   8  19   5  20   3  21   3
M  ISO  2  26  15  29  16
M  END
>  <DihAtoms>  (1) 
9,12,23,22

>  <DihDeg>  (1) 
-126.15265153715622

$$$$
