
     RDKit          3D

 34 35  0  0  0  0  0  0  0  0999 V2000
   42.4863   33.8201   41.1275 S   0  0  0  0  0  0  0  0  0  0  0  0
   39.8276   34.0681   40.4232 C   0  0  0  0  0  0  0  0  0  0  0  0
   41.1317   34.0666   39.9650 C   0  0  0  0  0  0  0  0  0  0  0  0
   41.4224   34.2546   38.6039 C   0  0  0  0  0  0  0  0  0  0  0  0
   40.3554   34.4351   37.7798 N   0  0  0  0  0  0  0  0  0  0  0  0
   39.1113   34.4296   38.2629 C   0  0  0  0  0  0  0  0  0  0  0  0
   38.8033   34.2549   39.5420 N   0  0  0  0  0  0  0  0  0  0  0  0
   43.7279   35.0797   40.8917 C   0  0  0  0  0  0  0  0  0  0  0  0
   43.5617   36.0528   41.9848 N   0  0  0  0  0  0  0  0  0  0  0  0
   44.8473   35.9154   43.1263 S   0  0  0  0  0  0  0  0  0  0  0  0
   45.9801   35.1083   42.6329 O   0  0  0  0  0  0  0  0  0  0  0  0
   45.2851   37.3519   43.4107 O   0  0  0  0  0  0  0  0  0  0  0  0
   44.2358   35.3570   44.5732 O   0  0  0  0  0  0  0  0  0  0  0  0
   39.6343   33.9203   41.4809 H   0  0  0  0  0  0  0  0  0  0  0  0
   42.4609   34.2495   38.2649 H   0  0  0  0  0  0  0  0  0  0  0  0
   38.4005   34.5893   37.4501 H   0  0  0  0  0  0  0  0  0  0  0  0
   43.6951   35.5723   39.9113 H   0  0  0  0  0  0  0  0  0  0  0  0
   44.7695   34.6621   41.0193 H   0  0  0  0  0  0  0  0  0  0  0  0
   43.5484   36.9917   41.5628 H   0  0  0  0  0  0  0  0  0  0  0  0
   46.5633   35.4531   41.9273 H   0  0  0  0  0  0  0  0  0  0  0  0
   44.7210   37.8679   44.0537 H   0  0  0  0  0  0  0  0  0  0  0  0
   46.9896   34.3010   43.7276 O   0  0  0  0  0  0  0  0  0  0  0  0
   45.7923   33.6505   43.8188 C   0  0  2  0  0  0  0  0  0  0  0  0
   44.8635   34.1821   44.8915 C   0  0  2  0  0  0  0  0  0  0  0  0
   43.9090   32.9996   44.9591 C   0  0  1  0  0  0  0  0  0  0  0  0
   43.4181   32.9513   45.9514 H   0  0  0  0  0  0  0  0  0  0  0  0
   44.6590   31.8675   44.7131 O   0  0  0  0  0  0  0  0  0  0  0  0
   45.9391   32.2272   44.3760 C   0  0  2  0  0  0  0  0  0  0  0  0
   46.5231   32.3435   45.3188 H   0  0  0  0  0  0  0  0  0  0  0  0
   47.6855   33.9483   44.3069 H   0  0  0  0  0  0  0  0  0  0  0  0
   45.2845   33.5257   42.8486 H   0  0  0  0  0  0  0  0  0  0  0  0
   45.4110   34.2035   45.8451 H   0  0  0  0  0  0  0  0  0  0  0  0
   43.1409   33.0793   44.1625 H   0  0  0  0  0  0  0  0  0  0  0  0
   46.4320   31.5695   43.6339 H   0  0  0  0  0  0  0  0  0  0  0  0
  3  2  2  0
  3  1  1  0
  4  3  1  0
  5  6  1  0
  5  4  2  0
  6  7  2  0
  7  2  1  0
  8  1  1  0
  8  9  1  0
  9 10  1  0
 10 12  1  0
 10 13  1  0
 11 10  1  0
  2 14  1  0
  4 15  1  0
  6 16  1  0
  8 17  1  0
  8 18  1  0
  9 19  1  0
 11 20  1  0
 12 21  1  0
 22 23  1  0
 23 24  1  0
 24 25  1  0
 25 26  1  1
 25 27  1  0
 27 28  1  0
 28 29  1  1
 28 23  1  0
 22 30  1  0
 23 31  1  6
 24 32  1  1
 25 33  1  0
 28 34  1  0
 13 24  1  0
M  ISO  8  14  14  15  14  16  14  17   8  18   8  19   5  20   3  21   3
M  ISO  2  26  15  29  16
M  END
>  <DihAtoms>  (1) 
9,12,23,22

>  <DihDeg>  (1) 
-126.15265153715622

$$$$
