
 OpenBabel03252503013D

 30 31  0  0  1  0  0  0  0  0999 V2000
   43.4690   35.8850   42.4810 N   0  0  0  0  0  0  0  0  0  0  0  0
   43.1730   36.8530   42.2910 H   0  0  0  0  0  0  0  0  0  0  0  0
   43.7110   35.2350   41.1820 C   0  0  0  0  0  0  0  0  0  0  0  0
   43.5560   35.9340   40.3500 H   0  0  0  0  0  0  0  0  0  0  0  0
   44.8070   34.9590   41.1850 H   0  0  0  0  0  0  0  0  0  0  0  0
   42.6730   33.7830   41.1280 S   0  0  0  0  0  0  0  0  0  0  0  0
   40.0710   34.4850   40.5310 C   0  0  0  0  0  0  0  0  0  0  0  0
   41.2830   34.0630   40.0180 C   0  0  0  0  0  0  0  0  0  0  0  0
   41.4500   33.8460   38.6410 C   0  0  0  0  0  0  0  0  0  0  0  0
   40.3610   34.0750   37.8580 N   0  0  0  0  0  0  0  0  0  0  0  0
   39.2090   34.4830   38.3930 C   0  0  0  0  0  0  0  0  0  0  0  0
   39.0180   34.6970   39.6890 N   0  0  0  0  0  0  0  0  0  0  0  0
   39.9710   34.6450   41.6000 H   0  0  0  0  0  0  0  0  0  0  0  0
   42.4180   33.5110   38.2580 H   0  0  0  0  0  0  0  0  0  0  0  0
   38.4630   34.6090   37.6070 H   0  0  0  0  0  0  0  0  0  0  0  0
   44.8930   35.8610   43.4510 S   0  0  0  0  0  0  0  0  0  0  0  0
   46.1340   35.7340   42.6620 O   0  0  0  0  0  0  0  0  0  0  0  0
   46.4490   36.4790   42.1110 H   0  0  0  0  0  0  0  0  0  0  0  0
   44.8730   37.1800   44.2250 O   0  0  0  0  0  0  0  0  0  0  0  0
   44.2820   37.2120   45.0300 H   0  0  0  0  0  0  0  0  0  0  0  0
   44.7420   34.6770   44.6150 O   0  0  0  0  0  0  0  0  0  0  0  0
   45.7770   32.5910   43.9220 C   0  0  2  0  0  3  0  0  0  0  0  0
   45.8880   33.9260   44.6300 C   0  0  2  0  0  3  0  0  0  0  0  0
   46.2390   33.4090   46.0170 C   0  0  0  0  0  3  0  0  0  0  0  0
   46.7920   34.1780   46.5910 H   0  0  0  0  0  0  0  0  0  0  0  0
   47.0000   32.2710   45.8370 O   0  0  0  0  0  0  0  0  0  0  0  0
   47.0490   31.9570   44.5030 C   0  0  0  0  0  3  0  0  0  0  0  0
   47.8920   32.5270   44.0470 H   0  0  0  0  0  0  0  0  0  0  0  0
   45.8060   32.6640   42.5580 O   0  0  0  0  0  0  0  0  0  0  0  0
   46.6970   32.6370   42.1720 H   0  0  0  0  0  0  0  0  0  0  0  0
  1 16  1  0  0  0  0
  2  1  1  0  0  0  0
  3  5  1  0  0  0  0
  3  1  1  0  0  0  0
  4  3  1  0  0  0  0
  6  3  1  0  0  0  0
  7 13  1  0  0  0  0
  8  7  1  0  0  0  0
  8  6  1  0  0  0  0
  9  8  2  0  0  0  0
 10 11  2  0  0  0  0
 10  9  1  0  0  0  0
 11 12  1  0  0  0  0
 12  7  2  0  0  0  0
 14  9  1  0  0  0  0
 15 11  1  0  0  0  0
 16 19  1  0  0  0  0
 16 21  1  0  0  0  0
 17 16  1  0  0  0  0
 18 17  1  0  0  0  0
 19 20  1  0  0  0  0
 22 29  1  6  0  0  0
 22 27  1  0  0  0  0
 22 23  1  0  0  0  0
 23 21  1  1  0  0  0
 23 24  1  0  0  0  0
 24 25  1  0  0  0  0
 26 24  1  0  0  0  0
 27 26  1  0  0  0  0
 28 27  1  0  0  0  0
 30 29  1  0  0  0  0
M  END
>  <minimizedAffinity>
-4.72719479

>  <minimizedRMSD>
1.03733039

$$$$
