
 OpenBabel03252506163D

 39 41  0  0  1  0  0  0  0  0999 V2000
   39.9130   29.3580   41.1900 F   0  0  0  0  0  0  0  0  0  0  0  0
   38.9720   28.7190   41.8440 C   0  0  0  0  0  0  0  0  0  0  0  0
   39.3530   27.8180   42.8320 C   0  0  0  0  0  0  0  0  0  0  0  0
   38.4250   27.0780   43.5960 C   0  0  0  0  0  0  0  0  0  0  0  0
   37.0580   27.2590   43.3530 C   0  0  0  0  0  0  0  0  0  0  0  0
   36.7340   28.1660   42.3620 C   0  0  0  0  0  0  0  0  0  0  0  0
   37.6110   28.8770   41.6240 C   0  0  0  0  0  0  0  0  0  0  0  0
   38.8070   26.3890   44.3540 H   0  0  0  0  0  0  0  0  0  0  0  0
   36.4180   26.6710   43.9640 H   0  0  0  0  0  0  0  0  0  0  0  0
   35.6390   28.1990   42.2970 H   0  0  0  0  0  0  0  0  0  0  0  0
   42.5250   26.0760   43.3890 C   0  0  0  0  0  0  0  0  0  0  0  0
   43.4050   27.1430   43.6790 C   0  0  0  0  0  0  0  0  0  0  0  0
   42.8860   28.4810   43.6800 C   0  0  0  0  0  0  0  0  0  0  0  0
   41.5550   28.6310   43.3950 N   0  0  0  0  0  0  0  0  0  0  0  0
   40.7730   27.5970   43.1300 C   0  0  0  0  0  0  0  0  0  0  0  0
   41.2420   26.3260   43.1240 N   0  0  0  0  0  0  0  0  0  0  0  0
   44.4440   26.9880   43.8980 H   0  0  0  0  0  0  0  0  0  0  0  0
   43.5290   29.3210   43.8970 H   0  0  0  0  0  0  0  0  0  0  0  0
   43.0680   24.7830   43.3950 N   0  0  0  0  0  0  0  0  0  0  0  0
   43.1120   24.0790   44.1750 H   0  0  0  0  0  0  0  0  0  0  0  0
   43.5490   24.2090   42.6620 H   0  0  0  0  0  0  0  0  0  0  0  0
   37.1580   29.7420   40.6720 O   0  0  0  0  0  0  0  0  0  0  0  0
   38.1200   28.3750   38.6230 O   0  0  0  0  0  0  0  0  0  0  0  0
   37.3560   29.6330   39.0130 P   0  0  2  0  0  0  0  0  0  0  0  0
   38.2040   30.9840   38.4390 O   0  0  0  0  0  0  0  0  0  0  0  0
   37.6470   32.9390   39.5660 C   0  0  2  0  0  3  0  0  0  0  0  0
   38.6580   31.8150   39.4420 C   0  0  2  0  0  3  0  0  0  0  0  0
   39.9090   32.5590   39.0800 C   0  0  0  0  0  3  0  0  0  0  0  0
   40.0430   32.6040   37.9800 H   0  0  0  0  0  0  0  0  0  0  0  0
   39.8150   33.8320   39.5730 O   0  0  0  0  0  0  0  0  0  0  0  0
   38.5160   34.1030   39.9020 C   0  0  0  0  0  3  0  0  0  0  0  0
   38.1420   35.0480   39.4090 H   0  0  0  0  0  0  0  0  0  0  0  0
   36.7040   32.6590   40.5540 O   0  0  0  0  0  0  0  0  0  0  0  0
   35.8240   33.0400   40.4040 H   0  0  0  0  0  0  0  0  0  0  0  0
   35.8950   29.6470   38.1680 O   0  0  0  0  0  0  0  0  0  0  0  0
   34.9430   28.8420   38.8190 C   0  0  0  0  0  0  0  0  0  0  0  0
   34.4370   29.6590   39.8360 F   0  0  0  0  0  0  0  0  0  0  0  0
   33.8970   28.5430   37.9750 F   0  0  0  0  0  0  0  0  0  0  0  0
   35.4520   27.6650   39.2990 F   0  0  0  0  0  0  0  0  0  0  0  0
  1  2  1  0  0  0  0
  2  3  1  0  0  0  0
  3 15  1  0  0  0  0
  3  4  2  0  0  0  0
  4  8  1  0  0  0  0
  5  4  1  0  0  0  0
  5  9  1  0  0  0  0
  6  5  2  0  0  0  0
  7  2  2  0  0  0  0
  7  6  1  0  0  0  0
 10  6  1  0  0  0  0
 11 19  1  0  0  0  0
 11 12  1  0  0  0  0
 12 13  2  0  0  0  0
 12 17  1  0  0  0  0
 13 18  1  0  0  0  0
 14 13  1  0  0  0  0
 15 14  2  0  0  0  0
 16 15  1  0  0  0  0
 16 11  2  0  0  0  0
 19 20  1  0  0  0  0
 21 19  1  0  0  0  0
 22  7  1  0  0  0  0
 24 23  2  6  0  0  0
 24 22  1  0  0  0  0
 25 24  1  0  0  0  0
 26 31  1  0  0  0  0
 26 33  1  1  0  0  0
 27 25  1  6  0  0  0
 27 26  1  0  0  0  0
 28 27  1  0  0  0  0
 28 30  1  0  0  0  0
 29 28  1  0  0  0  0
 30 31  1  0  0  0  0
 32 31  1  0  0  0  0
 34 33  1  0  0  0  0
 35 36  1  0  0  0  0
 35 24  1  0  0  0  0
 36 39  1  0  0  0  0
 36 37  1  0  0  0  0
 38 36  1  0  0  0  0
M  END
>  <minimizedAffinity>
-6.18474054

$$$$

 OpenBabel03252506163D

 39 41  0  0  1  0  0  0  0  0999 V2000
   36.8090   31.5500   38.2090 F   0  0  0  0  0  0  0  0  0  0  0  0
   36.5070   30.6680   39.1320 C   0  0  0  0  0  0  0  0  0  0  0  0
   35.8130   29.5250   38.7480 C   0  0  0  0  0  0  0  0  0  0  0  0
   35.4380   28.5120   39.6560 C   0  0  0  0  0  0  0  0  0  0  0  0
   35.7820   28.6590   41.0060 C   0  0  0  0  0  0  0  0  0  0  0  0
   36.4710   29.8100   41.3340 C   0  0  0  0  0  0  0  0  0  0  0  0
   36.8330   30.7860   40.4760 C   0  0  0  0  0  0  0  0  0  0  0  0
   34.8940   27.6450   39.2730 H   0  0  0  0  0  0  0  0  0  0  0  0
   35.4690   27.8590   41.6310 H   0  0  0  0  0  0  0  0  0  0  0  0
   36.6690   29.7750   42.4120 H   0  0  0  0  0  0  0  0  0  0  0  0
   36.1260   29.0690   35.1280 C   0  0  0  0  0  0  0  0  0  0  0  0
   34.7780   28.9410   34.7250 C   0  0  0  0  0  0  0  0  0  0  0  0
   33.7520   29.0150   35.7260 C   0  0  0  0  0  0  0  0  0  0  0  0
   34.1580   29.2070   37.0190 N   0  0  0  0  0  0  0  0  0  0  0  0
   35.4360   29.3210   37.3440 C   0  0  0  0  0  0  0  0  0  0  0  0
   36.4200   29.2540   36.4160 N   0  0  0  0  0  0  0  0  0  0  0  0
   34.4950   28.7910   33.7010 H   0  0  0  0  0  0  0  0  0  0  0  0
   32.7100   28.9220   35.4550 H   0  0  0  0  0  0  0  0  0  0  0  0
   37.1010   28.9880   34.1240 N   0  0  0  0  0  0  0  0  0  0  0  0
   37.5550   29.7570   33.5690 H   0  0  0  0  0  0  0  0  0  0  0  0
   37.6070   28.1820   33.6840 H   0  0  0  0  0  0  0  0  0  0  0  0
   37.5120   31.8770   40.9310 O   0  0  0  0  0  0  0  0  0  0  0  0
   39.3830   33.6800   40.4370 O   0  0  0  0  0  0  0  0  0  0  0  0
   39.1440   32.2120   40.7590 P   0  0  2  0  0  0  0  0  0  0  0  0
   39.8020   31.2680   39.5140 O   0  0  0  0  0  0  0  0  0  0  0  0
   40.6810   31.5140   37.3760 C   0  0  2  0  0  3  0  0  0  0  0  0
   40.8310   31.8900   38.8370 C   0  0  2  0  0  3  0  0  0  0  0  0
   42.1840   31.3320   39.1670 C   0  0  0  0  0  3  0  0  0  0  0  0
   42.1030   30.3110   39.5900 H   0  0  0  0  0  0  0  0  0  0  0  0
   42.9250   31.2860   38.0180 O   0  0  0  0  0  0  0  0  0  0  0  0
   42.1020   31.4150   36.9340 C   0  0  0  0  0  3  0  0  0  0  0  0
   42.2410   30.5740   36.1930 H   0  0  0  0  0  0  0  0  0  0  0  0
   39.9600   32.4820   36.6800 O   0  0  0  0  0  0  0  0  0  0  0  0
   39.4410   32.1500   35.9300 H   0  0  0  0  0  0  0  0  0  0  0  0
   40.0490   31.8160   42.1280 O   0  0  0  0  0  0  0  0  0  0  0  0
   39.9500   30.4410   42.4030 C   0  0  0  0  0  0  0  0  0  0  0  0
   41.1540   30.1290   43.0440 F   0  0  0  0  0  0  0  0  0  0  0  0
   38.9330   30.1930   43.2980 F   0  0  0  0  0  0  0  0  0  0  0  0
   39.7360   29.6710   41.2910 F   0  0  0  0  0  0  0  0  0  0  0  0
  1  2  1  0  0  0  0
  2  7  1  0  0  0  0
  3  2  2  0  0  0  0
  3  4  1  0  0  0  0
  4  5  2  0  0  0  0
  5  6  1  0  0  0  0
  5  9  1  0  0  0  0
  6 10  1  0  0  0  0
  7 22  1  0  0  0  0
  7  6  2  0  0  0  0
  8  4  1  0  0  0  0
 11 16  1  0  0  0  0
 12 11  2  0  0  0  0
 12 13  1  0  0  0  0
 13 14  2  0  0  0  0
 14 15  1  0  0  0  0
 15  3  1  0  0  0  0
 16 15  2  0  0  0  0
 17 12  1  0  0  0  0
 18 13  1  0  0  0  0
 19 11  1  0  0  0  0
 20 19  1  0  0  0  0
 21 19  1  0  0  0  0
 24 23  2  6  0  0  0
 24 22  1  0  0  0  0
 24 35  1  0  0  0  0
 25 24  1  0  0  0  0
 26 33  1  6  0  0  0
 26 27  1  0  0  0  0
 27 28  1  0  0  0  0
 27 25  1  1  0  0  0
 28 29  1  0  0  0  0
 30 28  1  0  0  0  0
 31 26  1  0  0  0  0
 31 30  1  0  0  0  0
 32 31  1  0  0  0  0
 34 33  1  0  0  0  0
 35 36  1  0  0  0  0
 36 37  1  0  0  0  0
 36 38  1  0  0  0  0
 39 36  1  0  0  0  0
M  END
>  <minimizedAffinity>
-6.00848913

$$$$

 OpenBabel03252506163D

 39 41  0  0  1  0  0  0  0  0999 V2000
   39.6410   30.5580   38.2850 F   0  0  0  0  0  0  0  0  0  0  0  0
   38.9780   31.5490   38.8350 C   0  0  0  0  0  0  0  0  0  0  0  0
   39.6970   32.6530   39.2810 C   0  0  0  0  0  0  0  0  0  0  0  0
   39.0870   33.7730   39.8870 C   0  0  0  0  0  0  0  0  0  0  0  0
   37.6950   33.7770   40.0440 C   0  0  0  0  0  0  0  0  0  0  0  0
   37.0300   32.6570   39.5840 C   0  0  0  0  0  0  0  0  0  0  0  0
   37.6020   31.5800   39.0060 C   0  0  0  0  0  0  0  0  0  0  0  0
   39.7230   34.6000   40.2100 H   0  0  0  0  0  0  0  0  0  0  0  0
   37.3050   34.6500   40.5060 H   0  0  0  0  0  0  0  0  0  0  0  0
   35.9610   32.8130   39.7710 H   0  0  0  0  0  0  0  0  0  0  0  0
   42.9950   33.4610   37.9130 C   0  0  0  0  0  0  0  0  0  0  0  0
   43.8630   32.8140   38.8220 C   0  0  0  0  0  0  0  0  0  0  0  0
   43.2910   32.0910   39.9210 C   0  0  0  0  0  0  0  0  0  0  0  0
   41.9250   32.0780   40.0130 N   0  0  0  0  0  0  0  0  0  0  0  0
   41.1560   32.7010   39.1330 C   0  0  0  0  0  0  0  0  0  0  0  0
   41.6750   33.3890   38.0890 N   0  0  0  0  0  0  0  0  0  0  0  0
   44.9310   32.8460   38.7190 H   0  0  0  0  0  0  0  0  0  0  0  0
   43.9230   31.5850   40.6360 H   0  0  0  0  0  0  0  0  0  0  0  0
   43.5900   34.1600   36.8530 N   0  0  0  0  0  0  0  0  0  0  0  0
   43.8100   33.8360   35.8780 H   0  0  0  0  0  0  0  0  0  0  0  0
   43.9530   35.1400   36.7600 H   0  0  0  0  0  0  0  0  0  0  0  0
   36.8280   30.5350   38.5950 O   0  0  0  0  0  0  0  0  0  0  0  0
   35.3000   29.6580   40.5670 O   0  0  0  0  0  0  0  0  0  0  0  0
   36.3030   29.2310   39.5040 P   0  0  2  0  0  0  0  0  0  0  0  0
   37.6200   28.4880   40.2690 O   0  0  0  0  0  0  0  0  0  0  0  0
   37.9440   28.5780   42.5700 C   0  0  2  0  0  3  0  0  0  0  0  0
   37.2810   27.8270   41.4310 C   0  0  2  0  0  3  0  0  0  0  0  0
   37.9050   26.4680   41.5480 C   0  0  0  0  0  3  0  0  0  0  0  0
   38.7950   26.3790   40.8930 H   0  0  0  0  0  0  0  0  0  0  0  0
   38.2830   26.2750   42.8490 O   0  0  0  0  0  0  0  0  0  0  0  0
   38.2980   27.4730   43.5070 C   0  0  0  0  0  3  0  0  0  0  0  0
   39.2890   27.6680   44.0110 H   0  0  0  0  0  0  0  0  0  0  0  0
   37.0730   29.5110   43.1300 O   0  0  0  0  0  0  0  0  0  0  0  0
   37.4970   30.3000   43.5030 H   0  0  0  0  0  0  0  0  0  0  0  0
   35.5980   28.0130   38.5720 O   0  0  0  0  0  0  0  0  0  0  0  0
   34.4560   28.4980   37.9110 C   0  0  0  0  0  0  0  0  0  0  0  0
   33.9830   27.3980   37.1860 F   0  0  0  0  0  0  0  0  0  0  0  0
   33.4770   28.8430   38.8150 F   0  0  0  0  0  0  0  0  0  0  0  0
   34.7000   29.5840   37.1130 F   0  0  0  0  0  0  0  0  0  0  0  0
  1  2  1  0  0  0  0
  2  7  2  0  0  0  0
  2  3  1  0  0  0  0
  3  4  2  0  0  0  0
  4  5  1  0  0  0  0
  4  8  1  0  0  0  0
  5  9  1  0  0  0  0
  6 10  1  0  0  0  0
  6  5  2  0  0  0  0
  7  6  1  0  0  0  0
 11 16  2  0  0  0  0
 11 12  1  0  0  0  0
 12 13  2  0  0  0  0
 13 14  1  0  0  0  0
 13 18  1  0  0  0  0
 15  3  1  0  0  0  0
 15 14  2  0  0  0  0
 16 15  1  0  0  0  0
 17 12  1  0  0  0  0
 19 11  1  0  0  0  0
 20 19  1  0  0  0  0
 21 19  1  0  0  0  0
 22  7  1  0  0  0  0
 22 24  1  0  0  0  0
 24 25  1  0  0  0  0
 24 23  2  1  0  0  0
 26 33  1  1  0  0  0
 26 31  1  0  0  0  0
 27 25  1  6  0  0  0
 27 28  1  0  0  0  0
 27 26  1  0  0  0  0
 28 30  1  0  0  0  0
 29 28  1  0  0  0  0
 30 31  1  0  0  0  0
 31 32  1  0  0  0  0
 33 34  1  0  0  0  0
 35 24  1  0  0  0  0
 36 35  1  0  0  0  0
 36 38  1  0  0  0  0
 37 36  1  0  0  0  0
 39 36  1  0  0  0  0
M  END
>  <minimizedAffinity>
-5.99378729

$$$$

 OpenBabel03252506163D

 39 41  0  0  1  0  0  0  0  0999 V2000
   39.6470   28.1140   40.3870 F   0  0  0  0  0  0  0  0  0  0  0  0
   38.7520   27.9140   41.3250 C   0  0  0  0  0  0  0  0  0  0  0  0
   39.1980   27.5660   42.5960 C   0  0  0  0  0  0  0  0  0  0  0  0
   38.3230   27.3290   43.6790 C   0  0  0  0  0  0  0  0  0  0  0  0
   36.9440   27.4490   43.4670 C   0  0  0  0  0  0  0  0  0  0  0  0
   36.5550   27.7970   42.1880 C   0  0  0  0  0  0  0  0  0  0  0  0
   37.3810   28.0250   41.1460 C   0  0  0  0  0  0  0  0  0  0  0  0
   38.7550   27.0600   44.6460 H   0  0  0  0  0  0  0  0  0  0  0  0
   36.3470   27.2570   44.3240 H   0  0  0  0  0  0  0  0  0  0  0  0
   35.4600   27.8570   42.1850 H   0  0  0  0  0  0  0  0  0  0  0  0
   42.4510   26.0190   43.2510 C   0  0  0  0  0  0  0  0  0  0  0  0
   43.2960   27.1440   43.3820 C   0  0  0  0  0  0  0  0  0  0  0  0
   42.7250   28.4530   43.2410 C   0  0  0  0  0  0  0  0  0  0  0  0
   41.3820   28.5200   42.9850 N   0  0  0  0  0  0  0  0  0  0  0  0
   40.6330   27.4340   42.8710 C   0  0  0  0  0  0  0  0  0  0  0  0
   41.1520   26.1900   43.0010 N   0  0  0  0  0  0  0  0  0  0  0  0
   44.3470   27.0530   43.5830 H   0  0  0  0  0  0  0  0  0  0  0  0
   43.3400   29.3360   43.3340 H   0  0  0  0  0  0  0  0  0  0  0  0
   43.0450   24.7560   43.3930 N   0  0  0  0  0  0  0  0  0  0  0  0
   43.1390   24.1540   44.2490 H   0  0  0  0  0  0  0  0  0  0  0  0
   43.5270   24.1160   42.7170 H   0  0  0  0  0  0  0  0  0  0  0  0
   36.8660   28.3600   39.9280 O   0  0  0  0  0  0  0  0  0  0  0  0
   34.3350   29.1170   39.7900 O   0  0  0  0  0  0  0  0  0  0  0  0
   35.7710   29.5790   39.5820 P   0  0  2  0  0  0  0  0  0  0  0  0
   35.9510   30.0810   37.9720 O   0  0  0  0  0  0  0  0  0  0  0  0
   37.0790   29.4450   36.0420 C   0  0  2  0  0  3  0  0  0  0  0  0
   36.0490   29.0360   37.0780 C   0  0  2  0  0  3  0  0  0  0  0  0
   34.8190   28.8510   36.2390 C   0  0  0  0  0  3  0  0  0  0  0  0
   34.2090   29.7770   36.2140 H   0  0  0  0  0  0  0  0  0  0  0  0
   35.2050   28.5320   34.9670 O   0  0  0  0  0  0  0  0  0  0  0  0
   36.5280   28.8320   34.7980 C   0  0  0  0  0  3  0  0  0  0  0  0
   36.7020   29.4980   33.9040 H   0  0  0  0  0  0  0  0  0  0  0  0
   38.3430   28.9630   36.3740 O   0  0  0  0  0  0  0  0  0  0  0  0
   39.0860   29.5120   36.0750 H   0  0  0  0  0  0  0  0  0  0  0  0
   36.0160   30.9730   40.5010 O   0  0  0  0  0  0  0  0  0  0  0  0
   37.3350   31.4360   40.3500 C   0  0  0  0  0  0  0  0  0  0  0  0
   37.2040   32.8260   40.2500 F   0  0  0  0  0  0  0  0  0  0  0  0
   38.0780   31.1750   41.4790 F   0  0  0  0  0  0  0  0  0  0  0  0
   37.9890   30.8950   39.2750 F   0  0  0  0  0  0  0  0  0  0  0  0
  1  2  1  0  0  0  0
  2  3  1  0  0  0  0
  3 15  1  0  0  0  0
  3  4  2  0  0  0  0
  4  8  1  0  0  0  0
  5  4  1  0  0  0  0
  5  9  1  0  0  0  0
  6  5  2  0  0  0  0
  7  2  2  0  0  0  0
  7  6  1  0  0  0  0
 10  6  1  0  0  0  0
 11 12  1  0  0  0  0
 11 19  1  0  0  0  0
 12 17  1  0  0  0  0
 13 18  1  0  0  0  0
 13 12  2  0  0  0  0
 14 13  1  0  0  0  0
 15 14  2  0  0  0  0
 15 16  1  0  0  0  0
 16 11  2  0  0  0  0
 19 20  1  0  0  0  0
 21 19  1  0  0  0  0
 22  7  1  0  0  0  0
 24 23  2  1  0  0  0
 24 22  1  0  0  0  0
 24 35  1  0  0  0  0
 25 24  1  0  0  0  0
 26 33  1  1  0  0  0
 26 27  1  0  0  0  0
 27 25  1  1  0  0  0
 28 27  1  0  0  0  0
 29 28  1  0  0  0  0
 30 28  1  0  0  0  0
 31 30  1  0  0  0  0
 31 26  1  0  0  0  0
 32 31  1  0  0  0  0
 34 33  1  0  0  0  0
 36 35  1  0  0  0  0
 36 38  1  0  0  0  0
 37 36  1  0  0  0  0
 39 36  1  0  0  0  0
M  END
>  <minimizedAffinity>
-5.88514805

$$$$

 OpenBabel03252506163D

 39 41  0  0  1  0  0  0  0  0999 V2000
   39.4010   30.6970   39.1350 F   0  0  0  0  0  0  0  0  0  0  0  0
   39.9670   30.8280   40.3120 C   0  0  0  0  0  0  0  0  0  0  0  0
   41.3080   31.1940   40.3590 C   0  0  0  0  0  0  0  0  0  0  0  0
   42.0150   31.3640   41.5700 C   0  0  0  0  0  0  0  0  0  0  0  0
   41.3380   31.1590   42.7780 C   0  0  0  0  0  0  0  0  0  0  0  0
   40.0090   30.7980   42.6740 C   0  0  0  0  0  0  0  0  0  0  0  0
   39.3230   30.6300   41.5250 C   0  0  0  0  0  0  0  0  0  0  0  0
   43.0690   31.6530   41.5200 H   0  0  0  0  0  0  0  0  0  0  0  0
   41.9310   31.3040   43.6470 H   0  0  0  0  0  0  0  0  0  0  0  0
   39.6230   30.6810   43.6940 H   0  0  0  0  0  0  0  0  0  0  0  0
   42.6310   32.9020   37.4040 C   0  0  0  0  0  0  0  0  0  0  0  0
   43.4430   31.9030   36.8190 C   0  0  0  0  0  0  0  0  0  0  0  0
   43.5280   30.6240   37.4640 C   0  0  0  0  0  0  0  0  0  0  0  0
   42.8070   30.4590   38.6160 N   0  0  0  0  0  0  0  0  0  0  0  0
   42.0610   31.4280   39.1220 C   0  0  0  0  0  0  0  0  0  0  0  0
   41.9660   32.6420   38.5300 N   0  0  0  0  0  0  0  0  0  0  0  0
   43.9960   32.0680   35.9140 H   0  0  0  0  0  0  0  0  0  0  0  0
   44.1390   29.8370   37.0460 H   0  0  0  0  0  0  0  0  0  0  0  0
   42.5740   34.1400   36.7470 N   0  0  0  0  0  0  0  0  0  0  0  0
   41.8870   34.4870   36.0320 H   0  0  0  0  0  0  0  0  0  0  0  0
   43.1720   35.0000   36.7960 H   0  0  0  0  0  0  0  0  0  0  0  0
   38.0090   30.2690   41.5610 O   0  0  0  0  0  0  0  0  0  0  0  0
   37.2990   28.8070   43.6470 O   0  0  0  0  0  0  0  0  0  0  0  0
   37.3570   28.8340   42.1260 P   0  0  2  0  0  0  0  0  0  0  0  0
   38.2910   27.5230   41.5950 O   0  0  0  0  0  0  0  0  0  0  0  0
   39.8830   26.1870   42.6370 C   0  0  2  0  0  3  0  0  0  0  0  0
   38.4060   26.5150   42.5300 C   0  0  2  0  0  3  0  0  0  0  0  0
   37.8280   25.2090   42.0720 C   0  0  0  0  0  3  0  0  0  0  0  0
   37.7500   25.1720   40.9660 H   0  0  0  0  0  0  0  0  0  0  0  0
   38.6470   24.1990   42.4980 O   0  0  0  0  0  0  0  0  0  0  0  0
   39.8570   24.7140   42.8690 C   0  0  0  0  0  3  0  0  0  0  0  0
   40.7150   24.2030   42.3430 H   0  0  0  0  0  0  0  0  0  0  0  0
   40.4790   26.8940   43.6800 O   0  0  0  0  0  0  0  0  0  0  0  0
   41.4160   27.1100   43.5490 H   0  0  0  0  0  0  0  0  0  0  0  0
   35.8060   28.5310   41.5330 O   0  0  0  0  0  0  0  0  0  0  0  0
   35.5330   29.3550   40.4270 C   0  0  0  0  0  0  0  0  0  0  0  0
   36.4660   28.9590   39.4620 F   0  0  0  0  0  0  0  0  0  0  0  0
   34.2810   29.0930   39.9180 F   0  0  0  0  0  0  0  0  0  0  0  0
   35.6070   30.6940   40.7050 F   0  0  0  0  0  0  0  0  0  0  0  0
  1  2  1  0  0  0  0
  2  3  2  0  0  0  0
  2  7  1  0  0  0  0
  3  4  1  0  0  0  0
  4  5  2  0  0  0  0
  5  9  1  0  0  0  0
  6  5  1  0  0  0  0
  6 10  1  0  0  0  0
  7 22  1  0  0  0  0
  7  6  2  0  0  0  0
  8  4  1  0  0  0  0
 11 16  1  0  0  0  0
 12 11  2  0  0  0  0
 12 13  1  0  0  0  0
 13 14  2  0  0  0  0
 14 15  1  0  0  0  0
 15  3  1  0  0  0  0
 16 15  2  0  0  0  0
 17 12  1  0  0  0  0
 18 13  1  0  0  0  0
 19 21  1  0  0  0  0
 19 11  1  0  0  0  0
 20 19  1  0  0  0  0
 22 24  1  0  0  0  0
 24 23  2  1  0  0  0
 25 24  1  0  0  0  0
 26 31  1  0  0  0  0
 26 33  1  1  0  0  0
 27 25  1  6  0  0  0
 27 26  1  0  0  0  0
 28 30  1  0  0  0  0
 28 27  1  0  0  0  0
 29 28  1  0  0  0  0
 30 31  1  0  0  0  0
 32 31  1  0  0  0  0
 34 33  1  0  0  0  0
 35 24  1  0  0  0  0
 36 39  1  0  0  0  0
 36 35  1  0  0  0  0
 37 36  1  0  0  0  0
 38 36  1  0  0  0  0
M  END
>  <minimizedAffinity>
-5.8765192

$$$$

 OpenBabel03252506163D

 39 41  0  0  1  0  0  0  0  0999 V2000
   38.8970   27.5560   39.7480 F   0  0  0  0  0  0  0  0  0  0  0  0
   38.4340   27.9320   40.9170 C   0  0  0  0  0  0  0  0  0  0  0  0
   37.8300   26.9740   41.7240 C   0  0  0  0  0  0  0  0  0  0  0  0
   37.2980   27.2680   42.9990 C   0  0  0  0  0  0  0  0  0  0  0  0
   37.3830   28.5820   43.4760 C   0  0  0  0  0  0  0  0  0  0  0  0
   37.9930   29.4940   42.6350 C   0  0  0  0  0  0  0  0  0  0  0  0
   38.5030   29.2250   41.4150 C   0  0  0  0  0  0  0  0  0  0  0  0
   36.8390   26.4570   43.5700 H   0  0  0  0  0  0  0  0  0  0  0  0
   36.9640   28.7300   44.4400 H   0  0  0  0  0  0  0  0  0  0  0  0
   37.9870   30.4630   43.1480 H   0  0  0  0  0  0  0  0  0  0  0  0
   36.4440   23.9420   40.2120 C   0  0  0  0  0  0  0  0  0  0  0  0
   37.4800   23.0030   40.4200 C   0  0  0  0  0  0  0  0  0  0  0  0
   38.6720   23.4340   41.0930 C   0  0  0  0  0  0  0  0  0  0  0  0
   38.7210   24.7430   41.4930 N   0  0  0  0  0  0  0  0  0  0  0  0
   37.7210   25.5820   41.2730 C   0  0  0  0  0  0  0  0  0  0  0  0
   36.5890   25.1960   40.6400 N   0  0  0  0  0  0  0  0  0  0  0  0
   37.4070   21.9840   40.0920 H   0  0  0  0  0  0  0  0  0  0  0  0
   39.4850   22.7450   41.2700 H   0  0  0  0  0  0  0  0  0  0  0  0
   35.2960   23.4850   39.5480 N   0  0  0  0  0  0  0  0  0  0  0  0
   34.4010   23.1030   39.9450 H   0  0  0  0  0  0  0  0  0  0  0  0
   35.0430   23.4090   38.5330 H   0  0  0  0  0  0  0  0  0  0  0  0
   39.0790   30.2210   40.6830 O   0  0  0  0  0  0  0  0  0  0  0  0
   37.3300   30.1330   38.7020 O   0  0  0  0  0  0  0  0  0  0  0  0
   38.6470   30.7480   39.1540 P   0  0  2  0  0  0  0  0  0  0  0  0
   39.8520   30.3340   38.0350 O   0  0  0  0  0  0  0  0  0  0  0  0
   41.3460   31.8280   37.0650 C   0  0  2  0  0  3  0  0  0  0  0  0
   41.0600   30.9550   38.2720 C   0  0  2  0  0  3  0  0  0  0  0  0
   42.2270   30.0130   38.2600 C   0  0  0  0  0  3  0  0  0  0  0  0
   41.9830   29.0810   37.7130 H   0  0  0  0  0  0  0  0  0  0  0  0
   43.2790   30.6340   37.6450 O   0  0  0  0  0  0  0  0  0  0  0  0
   42.8290   31.7220   36.9500 C   0  0  0  0  0  3  0  0  0  0  0  0
   43.1540   31.6990   35.8690 H   0  0  0  0  0  0  0  0  0  0  0  0
   40.9070   33.1330   37.2750 O   0  0  0  0  0  0  0  0  0  0  0  0
   40.6270   33.6080   36.4760 H   0  0  0  0  0  0  0  0  0  0  0  0
   38.5120   32.4270   39.0440 O   0  0  0  0  0  0  0  0  0  0  0  0
   37.7430   32.9290   40.1090 C   0  0  0  0  0  0  0  0  0  0  0  0
   38.6810   33.2300   41.1020 F   0  0  0  0  0  0  0  0  0  0  0  0
   37.1270   34.1080   39.7550 F   0  0  0  0  0  0  0  0  0  0  0  0
   36.7780   32.0610   40.5490 F   0  0  0  0  0  0  0  0  0  0  0  0
  1  2  1  0  0  0  0
  2  7  2  0  0  0  0
  2  3  1  0  0  0  0
  3  4  2  0  0  0  0
  4  5  1  0  0  0  0
  4  8  1  0  0  0  0
  5  9  1  0  0  0  0
  6 10  1  0  0  0  0
  6  5  2  0  0  0  0
  7  6  1  0  0  0  0
 11 12  2  0  0  0  0
 11 16  1  0  0  0  0
 12 13  1  0  0  0  0
 13 18  1  0  0  0  0
 13 14  2  0  0  0  0
 15 14  1  0  0  0  0
 15  3  1  0  0  0  0
 16 15  2  0  0  0  0
 17 12  1  0  0  0  0
 19 20  1  0  0  0  0
 19 11  1  0  0  0  0
 21 19  1  0  0  0  0
 22  7  1  0  0  0  0
 24 23  2  6  0  0  0
 24 22  1  0  0  0  0
 25 24  1  0  0  0  0
 26 33  1  1  0  0  0
 26 27  1  0  0  0  0
 27 25  1  6  0  0  0
 28 27  1  0  0  0  0
 29 28  1  0  0  0  0
 30 28  1  0  0  0  0
 31 26  1  0  0  0  0
 31 30  1  0  0  0  0
 32 31  1  0  0  0  0
 34 33  1  0  0  0  0
 35 24  1  0  0  0  0
 35 36  1  0  0  0  0
 36 39  1  0  0  0  0
 36 37  1  0  0  0  0
 38 36  1  0  0  0  0
M  END
>  <minimizedAffinity>
-5.80051374

$$$$

 OpenBabel03252506163D

 39 41  0  0  1  0  0  0  0  0999 V2000
   37.9770   27.8110   38.6230 F   0  0  0  0  0  0  0  0  0  0  0  0
   37.7930   28.9740   39.2020 C   0  0  0  0  0  0  0  0  0  0  0  0
   36.9070   29.8700   38.6120 C   0  0  0  0  0  0  0  0  0  0  0  0
   36.6330   31.1460   39.1500 C   0  0  0  0  0  0  0  0  0  0  0  0
   37.2790   31.5300   40.3320 C   0  0  0  0  0  0  0  0  0  0  0  0
   38.1480   30.6040   40.8760 C   0  0  0  0  0  0  0  0  0  0  0  0
   38.4190   29.3830   40.3710 C   0  0  0  0  0  0  0  0  0  0  0  0
   35.9230   31.7900   38.6250 H   0  0  0  0  0  0  0  0  0  0  0  0
   37.0260   32.5020   40.6780 H   0  0  0  0  0  0  0  0  0  0  0  0
   38.5640   31.0460   41.7900 H   0  0  0  0  0  0  0  0  0  0  0  0
   36.2790   29.2500   35.0590 C   0  0  0  0  0  0  0  0  0  0  0  0
   34.9210   28.8570   35.0600 C   0  0  0  0  0  0  0  0  0  0  0  0
   34.2210   28.8080   36.3110 C   0  0  0  0  0  0  0  0  0  0  0  0
   34.9280   29.1500   37.4330 N   0  0  0  0  0  0  0  0  0  0  0  0
   36.2000   29.5120   37.3780 C   0  0  0  0  0  0  0  0  0  0  0  0
   36.8790   29.5650   36.2070 N   0  0  0  0  0  0  0  0  0  0  0  0
   34.3980   28.5940   34.1600 H   0  0  0  0  0  0  0  0  0  0  0  0
   33.1830   28.5110   36.3500 H   0  0  0  0  0  0  0  0  0  0  0  0
   36.9310   29.2830   33.8180 N   0  0  0  0  0  0  0  0  0  0  0  0
   37.0570   30.0850   33.1500 H   0  0  0  0  0  0  0  0  0  0  0  0
   37.4380   28.5540   33.2600 H   0  0  0  0  0  0  0  0  0  0  0  0
   39.3020   28.5620   41.0080 O   0  0  0  0  0  0  0  0  0  0  0  0
   39.5370   27.1440   43.2280 O   0  0  0  0  0  0  0  0  0  0  0  0
   38.9700   27.1330   41.8160 P   0  0  2  0  0  0  0  0  0  0  0  0
   39.6360   25.8210   40.9740 O   0  0  0  0  0  0  0  0  0  0  0  0
   38.7190   23.6940   41.1680 C   0  0  2  0  0  3  0  0  0  0  0  0
   38.6900   25.0000   40.3970 C   0  0  2  0  0  3  0  0  0  0  0  0
   39.0530   24.5520   39.0120 C   0  0  0  0  0  3  0  0  0  0  0  0
   40.1440   24.6430   38.8360 H   0  0  0  0  0  0  0  0  0  0  0  0
   38.6810   23.2440   38.8670 O   0  0  0  0  0  0  0  0  0  0  0  0
   38.4450   22.6940   40.0960 C   0  0  0  0  0  3  0  0  0  0  0  0
   39.0390   21.7480   40.2590 H   0  0  0  0  0  0  0  0  0  0  0  0
   37.7600   23.6870   42.1790 O   0  0  0  0  0  0  0  0  0  0  0  0
   37.9890   23.1590   42.9610 H   0  0  0  0  0  0  0  0  0  0  0  0
   37.3190   26.7930   41.9120 O   0  0  0  0  0  0  0  0  0  0  0  0
   36.6760   27.7150   42.7570 C   0  0  0  0  0  0  0  0  0  0  0  0
   35.8220   28.4260   41.9060 F   0  0  0  0  0  0  0  0  0  0  0  0
   35.8870   27.0660   43.6800 F   0  0  0  0  0  0  0  0  0  0  0  0
   37.5380   28.5350   43.4360 F   0  0  0  0  0  0  0  0  0  0  0  0
  1  2  1  0  0  0  0
  2  7  1  0  0  0  0
  3  4  1  0  0  0  0
  3  2  2  0  0  0  0
  4  5  2  0  0  0  0
  5  9  1  0  0  0  0
  5  6  1  0  0  0  0
  6 10  1  0  0  0  0
  7  6  2  0  0  0  0
  7 22  1  0  0  0  0
  8  4  1  0  0  0  0
 11 12  2  0  0  0  0
 11 16  1  0  0  0  0
 12 13  1  0  0  0  0
 13 18  1  0  0  0  0
 13 14  2  0  0  0  0
 15 14  1  0  0  0  0
 15  3  1  0  0  0  0
 16 15  2  0  0  0  0
 17 12  1  0  0  0  0
 19 11  1  0  0  0  0
 20 19  1  0  0  0  0
 21 19  1  0  0  0  0
 22 24  1  0  0  0  0
 24 35  1  0  0  0  0
 24 23  2  1  0  0  0
 25 24  1  0  0  0  0
 26 33  1  1  0  0  0
 27 25  1  1  0  0  0
 27 26  1  0  0  0  0
 28 27  1  0  0  0  0
 29 28  1  0  0  0  0
 30 28  1  0  0  0  0
 30 31  1  0  0  0  0
 31 32  1  0  0  0  0
 31 26  1  0  0  0  0
 33 34  1  0  0  0  0
 35 36  1  0  0  0  0
 36 39  1  0  0  0  0
 36 38  1  0  0  0  0
 37 36  1  0  0  0  0
M  END
>  <minimizedAffinity>
-5.7555027

$$$$

 OpenBabel03252506163D

 39 41  0  0  1  0  0  0  0  0999 V2000
   40.2810   30.5670   40.4900 F   0  0  0  0  0  0  0  0  0  0  0  0
   39.2300   31.3250   40.2790 C   0  0  0  0  0  0  0  0  0  0  0  0
   39.4360   32.6230   39.8260 C   0  0  0  0  0  0  0  0  0  0  0  0
   38.3790   33.5230   39.5660 C   0  0  0  0  0  0  0  0  0  0  0  0
   37.0630   33.0900   39.7710 C   0  0  0  0  0  0  0  0  0  0  0  0
   36.9140   31.7930   40.2210 C   0  0  0  0  0  0  0  0  0  0  0  0
   37.9150   30.9250   40.4750 C   0  0  0  0  0  0  0  0  0  0  0  0
   38.6260   34.5270   39.2110 H   0  0  0  0  0  0  0  0  0  0  0  0
   36.3200   33.8180   39.5560 H   0  0  0  0  0  0  0  0  0  0  0  0
   35.8390   31.6050   40.3260 H   0  0  0  0  0  0  0  0  0  0  0  0
   42.3920   33.8530   38.0500 C   0  0  0  0  0  0  0  0  0  0  0  0
   43.3130   34.0510   39.1040 C   0  0  0  0  0  0  0  0  0  0  0  0
   42.8970   33.7530   40.4450 C   0  0  0  0  0  0  0  0  0  0  0  0
   41.6190   33.2910   40.6100 N   0  0  0  0  0  0  0  0  0  0  0  0
   40.7950   33.1220   39.5880 C   0  0  0  0  0  0  0  0  0  0  0  0
   41.1670   33.3970   38.3160 N   0  0  0  0  0  0  0  0  0  0  0  0
   44.3080   34.4160   38.9370 H   0  0  0  0  0  0  0  0  0  0  0  0
   43.5730   33.8930   41.2750 H   0  0  0  0  0  0  0  0  0  0  0  0
   42.8330   34.1580   36.7540 N   0  0  0  0  0  0  0  0  0  0  0  0
   43.2680   33.5310   36.0310 H   0  0  0  0  0  0  0  0  0  0  0  0
   42.8440   35.0450   36.1960 H   0  0  0  0  0  0  0  0  0  0  0  0
   37.6320   29.6670   40.9190 O   0  0  0  0  0  0  0  0  0  0  0  0
   38.6850   27.8440   39.3180 O   0  0  0  0  0  0  0  0  0  0  0  0
   37.3980   28.2860   40.0010 P   0  0  2  0  0  0  0  0  0  0  0  0
   36.2230   28.5710   38.8130 O   0  0  0  0  0  0  0  0  0  0  0  0
   36.9500   29.7070   36.9190 C   0  0  2  0  0  3  0  0  0  0  0  0
   36.6730   28.3460   37.5280 C   0  0  2  0  0  3  0  0  0  0  0  0
   35.6160   27.8020   36.6130 C   0  0  0  0  0  3  0  0  0  0  0  0
   34.6010   28.0190   37.0010 H   0  0  0  0  0  0  0  0  0  0  0  0
   35.7630   28.3880   35.3850 O   0  0  0  0  0  0  0  0  0  0  0  0
   36.5580   29.4950   35.4950 C   0  0  0  0  0  3  0  0  0  0  0  0
   36.0650   30.4150   35.0660 H   0  0  0  0  0  0  0  0  0  0  0  0
   38.2890   30.0600   37.0690 O   0  0  0  0  0  0  0  0  0  0  0  0
   38.4590   31.0130   37.1420 H   0  0  0  0  0  0  0  0  0  0  0  0
   36.8030   26.9870   40.8980 O   0  0  0  0  0  0  0  0  0  0  0  0
   37.3390   26.9990   42.1980 C   0  0  0  0  0  0  0  0  0  0  0  0
   36.5160   27.8840   42.9030 F   0  0  0  0  0  0  0  0  0  0  0  0
   37.2140   25.7630   42.7910 F   0  0  0  0  0  0  0  0  0  0  0  0
   38.6590   27.3630   42.2460 F   0  0  0  0  0  0  0  0  0  0  0  0
  2  7  1  0  0  0  0
  2  1  1  0  0  0  0
  3  2  2  0  0  0  0
  4  5  2  0  0  0  0
  4  3  1  0  0  0  0
  5  6  1  0  0  0  0
  6 10  1  0  0  0  0
  6  7  2  0  0  0  0
  7 22  1  0  0  0  0
  8  4  1  0  0  0  0
  9  5  1  0  0  0  0
 11 16  2  0  0  0  0
 11 12  1  0  0  0  0
 12 13  2  0  0  0  0
 13 14  1  0  0  0  0
 13 18  1  0  0  0  0
 15  3  1  0  0  0  0
 15 14  2  0  0  0  0
 16 15  1  0  0  0  0
 17 12  1  0  0  0  0
 19 11  1  0  0  0  0
 20 19  1  0  0  0  0
 21 19  1  0  0  0  0
 24 23  2  6  0  0  0
 24 35  1  0  0  0  0
 24 22  1  0  0  0  0
 25 24  1  0  0  0  0
 26 33  1  6  0  0  0
 26 27  1  0  0  0  0
 27 25  1  1  0  0  0
 28 29  1  0  0  0  0
 28 27  1  0  0  0  0
 30 31  1  0  0  0  0
 30 28  1  0  0  0  0
 31 26  1  0  0  0  0
 32 31  1  0  0  0  0
 33 34  1  0  0  0  0
 35 36  1  0  0  0  0
 36 39  1  0  0  0  0
 36 38  1  0  0  0  0
 36 37  1  0  0  0  0
M  END
>  <minimizedAffinity>
-5.73541832

$$$$

 OpenBabel03252506163D

 39 41  0  0  1  0  0  0  0  0999 V2000
   40.0730   30.3440   39.1490 F   0  0  0  0  0  0  0  0  0  0  0  0
   39.1220   31.2170   39.3830 C   0  0  0  0  0  0  0  0  0  0  0  0
   39.4770   32.5550   39.5200 C   0  0  0  0  0  0  0  0  0  0  0  0
   38.5370   33.5770   39.7720 C   0  0  0  0  0  0  0  0  0  0  0  0
   37.1850   33.2330   39.8890 C   0  0  0  0  0  0  0  0  0  0  0  0
   36.8870   31.8910   39.7440 C   0  0  0  0  0  0  0  0  0  0  0  0
   37.7760   30.9060   39.5050 C   0  0  0  0  0  0  0  0  0  0  0  0
   38.8990   34.6050   39.8660 H   0  0  0  0  0  0  0  0  0  0  0  0
   36.5350   34.0510   40.0780 H   0  0  0  0  0  0  0  0  0  0  0  0
   35.8000   31.7860   39.8540 H   0  0  0  0  0  0  0  0  0  0  0  0
   42.6020   33.7430   38.0260 C   0  0  0  0  0  0  0  0  0  0  0  0
   43.4800   33.7450   39.1330 C   0  0  0  0  0  0  0  0  0  0  0  0
   42.9770   33.3290   40.4110 C   0  0  0  0  0  0  0  0  0  0  0  0
   41.6620   32.9530   40.4680 N   0  0  0  0  0  0  0  0  0  0  0  0
   40.8800   32.9690   39.4000 C   0  0  0  0  0  0  0  0  0  0  0  0
   41.3350   33.3580   38.1850 N   0  0  0  0  0  0  0  0  0  0  0  0
   44.5070   34.0470   39.0520 H   0  0  0  0  0  0  0  0  0  0  0  0
   43.6190   33.3180   41.2790 H   0  0  0  0  0  0  0  0  0  0  0  0
   43.1280   34.1590   36.7950 N   0  0  0  0  0  0  0  0  0  0  0  0
   43.5510   33.5870   36.0210 H   0  0  0  0  0  0  0  0  0  0  0  0
   43.2330   35.1010   36.3460 H   0  0  0  0  0  0  0  0  0  0  0  0
   37.3490   29.6160   39.3850 O   0  0  0  0  0  0  0  0  0  0  0  0
   35.1980   29.0450   40.8130 O   0  0  0  0  0  0  0  0  0  0  0  0
   36.6480   28.6560   40.5640 P   0  0  2  0  0  0  0  0  0  0  0  0
   37.5060   28.8040   42.0190 O   0  0  0  0  0  0  0  0  0  0  0  0
   38.5240   27.0340   43.1330 C   0  0  2  0  0  3  0  0  0  0  0  0
   38.6780   28.0760   42.0420 C   0  0  2  0  0  3  0  0  0  0  0  0
   39.8590   28.8640   42.5270 C   0  0  0  0  0  3  0  0  0  0  0  0
   39.5370   29.7450   43.1190 H   0  0  0  0  0  0  0  0  0  0  0  0
   40.6290   28.0510   43.3140 O   0  0  0  0  0  0  0  0  0  0  0  0
   39.9090   26.9480   43.6790 C   0  0  0  0  0  3  0  0  0  0  0  0
   39.8980   26.7990   44.7970 H   0  0  0  0  0  0  0  0  0  0  0  0
   38.0660   25.8260   42.6110 O   0  0  0  0  0  0  0  0  0  0  0  0
   37.5250   25.2930   43.2160 H   0  0  0  0  0  0  0  0  0  0  0  0
   36.6980   27.0100   40.1960 O   0  0  0  0  0  0  0  0  0  0  0  0
   36.3950   26.8000   38.8390 C   0  0  0  0  0  0  0  0  0  0  0  0
   35.9560   25.4720   38.7840 F   0  0  0  0  0  0  0  0  0  0  0  0
   35.3430   27.5960   38.4430 F   0  0  0  0  0  0  0  0  0  0  0  0
   37.4490   27.0370   37.9960 F   0  0  0  0  0  0  0  0  0  0  0  0
  1  2  1  0  0  0  0
  2  7  2  0  0  0  0
  2  3  1  0  0  0  0
  3  4  2  0  0  0  0
  4  8  1  0  0  0  0
  4  5  1  0  0  0  0
  5  9  1  0  0  0  0
  6 10  1  0  0  0  0
  6  5  2  0  0  0  0
  7  6  1  0  0  0  0
 11 16  2  0  0  0  0
 11 12  1  0  0  0  0
 12 13  2  0  0  0  0
 13 14  1  0  0  0  0
 13 18  1  0  0  0  0
 15  3  1  0  0  0  0
 15 14  2  0  0  0  0
 16 15  1  0  0  0  0
 17 12  1  0  0  0  0
 19 11  1  0  0  0  0
 20 19  1  0  0  0  0
 21 19  1  0  0  0  0
 22  7  1  0  0  0  0
 22 24  1  0  0  0  0
 24 23  2  1  0  0  0
 24 25  1  0  0  0  0
 26 33  1  6  0  0  0
 26 31  1  0  0  0  0
 27 25  1  1  0  0  0
 27 28  1  0  0  0  0
 27 26  1  0  0  0  0
 28 29  1  0  0  0  0
 28 30  1  0  0  0  0
 30 31  1  0  0  0  0
 31 32  1  0  0  0  0
 33 34  1  0  0  0  0
 35 24  1  0  0  0  0
 36 35  1  0  0  0  0
 37 36  1  0  0  0  0
 38 36  1  0  0  0  0
 39 36  1  0  0  0  0
M  END
>  <minimizedAffinity>
-5.70627308

$$$$
