
 OpenBabel03252503013D

 30 31  0  0  1  0  0  0  0  0999 V2000
   43.3300   35.3590   43.1030 N   0  0  0  0  0  0  0  0  0  0  0  0
   42.6310   35.9840   43.5280 H   0  0  0  0  0  0  0  0  0  0  0  0
   43.1050   35.3720   41.6470 C   0  0  0  0  0  0  0  0  0  0  0  0
   42.3960   36.1590   41.3590 H   0  0  0  0  0  0  0  0  0  0  0  0
   44.1040   35.6430   41.1930 H   0  0  0  0  0  0  0  0  0  0  0  0
   42.6030   33.7230   41.1860 S   0  0  0  0  0  0  0  0  0  0  0  0
   39.9840   32.8510   41.2380 C   0  0  0  0  0  0  0  0  0  0  0  0
   40.8810   33.7290   40.6590 C   0  0  0  0  0  0  0  0  0  0  0  0
   40.4720   34.6300   39.6630 C   0  0  0  0  0  0  0  0  0  0  0  0
   39.1590   34.5830   39.3100 N   0  0  0  0  0  0  0  0  0  0  0  0
   38.3260   33.7200   39.8950 C   0  0  0  0  0  0  0  0  0  0  0  0
   38.6800   32.8560   40.8380 N   0  0  0  0  0  0  0  0  0  0  0  0
   40.3290   32.1650   42.0060 H   0  0  0  0  0  0  0  0  0  0  0  0
   41.1990   35.3140   39.2190 H   0  0  0  0  0  0  0  0  0  0  0  0
   37.3240   33.8370   39.4780 H   0  0  0  0  0  0  0  0  0  0  0  0
   44.9280   35.8840   43.4790 S   0  0  0  0  0  0  0  0  0  0  0  0
   45.9430   35.3880   42.5290 O   0  0  0  0  0  0  0  0  0  0  0  0
   45.9780   35.7370   41.6160 H   0  0  0  0  0  0  0  0  0  0  0  0
   44.8630   37.4120   43.4580 O   0  0  0  0  0  0  0  0  0  0  0  0
   44.4880   37.8510   44.2730 H   0  0  0  0  0  0  0  0  0  0  0  0
   45.2750   35.4910   45.0610 O   0  0  0  0  0  0  0  0  0  0  0  0
   45.6400   33.6190   46.5660 C   0  0  2  0  0  0  0  0  0  0  0  0
   45.3480   34.1270   45.1700 C   0  0  2  0  0  0  0  0  0  0  0  0
   46.5610   33.5420   44.4650 C   0  0  0  0  0  0  0  0  0  0  0  0
   46.3550   33.3980   43.3860 H   0  0  0  0  0  0  0  0  0  0  0  0
   46.8430   32.3430   45.0870 O   0  0  0  0  0  0  0  0  0  0  0  0
   46.0220   32.1830   46.1740 C   0  0  0  0  0  0  0  0  0  0  0  0
   45.0720   31.7170   45.8230 H   0  0  0  0  0  0  0  0  0  0  0  0
   44.5770   33.6600   47.4230 O   0  0  0  0  0  0  0  0  0  0  0  0
   44.0130   32.8690   47.4040 H   0  0  0  0  0  0  0  0  0  0  0  0
  1 16  1  0  0  0  0
  1  2  1  0  0  0  0
  3  1  1  0  0  0  0
  4  3  1  0  0  0  0
  5  3  1  0  0  0  0
  6  3  1  0  0  0  0
  7 13  1  0  0  0  0
  8  6  1  0  0  0  0
  8  7  2  0  0  0  0
  9  8  1  0  0  0  0
 10  9  2  0  0  0  0
 10 11  1  0  0  0  0
 11 12  2  0  0  0  0
 12  7  1  0  0  0  0
 14  9  1  0  0  0  0
 15 11  1  0  0  0  0
 16 21  1  0  0  0  0
 17 16  1  0  0  0  0
 18 17  1  0  0  0  0
 19 16  1  0  0  0  0
 19 20  1  0  0  0  0
 22 29  1  1  0  0  0
 23 21  1  1  0  0  0
 23 22  1  0  0  0  0
 24 26  1  0  0  0  0
 24 23  1  0  0  0  0
 25 24  1  0  0  0  0
 26 27  1  0  0  0  0
 27 22  1  0  0  0  0
 28 27  1  0  0  0  0
 30 29  1  0  0  0  0
M  END
>  <minimizedAffinity>
-5.31614065

>  <minimizedRMSD>
1.11666811

$$$$
