
 OpenBabel03252503013D

 30 31  0  0  1  0  0  0  0  0999 V2000
   43.4510   35.2940   42.7850 N   0  0  0  0  0  0  0  0  0  0  0  0
   42.6850   35.8010   43.2510 H   0  0  0  0  0  0  0  0  0  0  0  0
   43.4600   35.7100   41.3720 C   0  0  0  0  0  0  0  0  0  0  0  0
   42.7000   36.4780   41.1770 H   0  0  0  0  0  0  0  0  0  0  0  0
   44.4690   36.1930   41.2090 H   0  0  0  0  0  0  0  0  0  0  0  0
   43.2790   34.2280   40.3950 S   0  0  0  0  0  0  0  0  0  0  0  0
   40.8110   33.4810   39.4100 C   0  0  0  0  0  0  0  0  0  0  0  0
   41.8540   34.3820   39.3040 C   0  0  0  0  0  0  0  0  0  0  0  0
   41.8230   35.4180   38.3580 C   0  0  0  0  0  0  0  0  0  0  0  0
   40.7190   35.4770   37.5650 N   0  0  0  0  0  0  0  0  0  0  0  0
   39.7330   34.5880   37.7000 C   0  0  0  0  0  0  0  0  0  0  0  0
   39.7320   33.5970   38.5830 N   0  0  0  0  0  0  0  0  0  0  0  0
   40.8630   32.6890   40.1510 H   0  0  0  0  0  0  0  0  0  0  0  0
   42.6600   36.1180   38.2920 H   0  0  0  0  0  0  0  0  0  0  0  0
   38.9440   34.8030   36.9780 H   0  0  0  0  0  0  0  0  0  0  0  0
   44.9620   35.6460   43.5360 S   0  0  0  0  0  0  0  0  0  0  0  0
   46.0890   35.6910   42.5840 O   0  0  0  0  0  0  0  0  0  0  0  0
   46.1670   36.4270   41.9440 H   0  0  0  0  0  0  0  0  0  0  0  0
   44.7670   37.0030   44.2130 O   0  0  0  0  0  0  0  0  0  0  0  0
   44.2910   36.9950   45.0920 H   0  0  0  0  0  0  0  0  0  0  0  0
   45.2140   34.5740   44.7870 O   0  0  0  0  0  0  0  0  0  0  0  0
   46.9190   33.6670   43.3120 C   0  0  2  0  0  3  0  0  0  0  0  0
   45.7790   33.4320   44.2810 C   0  0  2  0  0  3  0  0  0  0  0  0
   44.8480   32.6770   43.3440 C   0  0  0  0  0  3  0  0  0  0  0  0
   44.1610   32.0260   43.9190 H   0  0  0  0  0  0  0  0  0  0  0  0
   45.6500   31.9390   42.4960 O   0  0  0  0  0  0  0  0  0  0  0  0
   46.9660   32.2520   42.7200 C   0  0  0  0  0  3  0  0  0  0  0  0
   47.3380   31.6040   43.5480 H   0  0  0  0  0  0  0  0  0  0  0  0
   48.0990   34.0280   43.8960 O   0  0  0  0  0  0  0  0  0  0  0  0
   48.6630   33.2830   44.1600 H   0  0  0  0  0  0  0  0  0  0  0  0
  1  2  1  0  0  0  0
  1 16  1  0  0  0  0
  3  1  1  0  0  0  0
  4  3  1  0  0  0  0
  5  3  1  0  0  0  0
  6  3  1  0  0  0  0
  7 13  1  0  0  0  0
  8  7  1  0  0  0  0
  8  6  1  0  0  0  0
  9  8  2  0  0  0  0
 10 11  2  0  0  0  0
 10  9  1  0  0  0  0
 11 12  1  0  0  0  0
 12  7  2  0  0  0  0
 14  9  1  0  0  0  0
 15 11  1  0  0  0  0
 16 19  1  0  0  0  0
 16 21  1  0  0  0  0
 17 16  1  0  0  0  0
 18 17  1  0  0  0  0
 19 20  1  0  0  0  0
 22 29  1  1  0  0  0
 22 23  1  0  0  0  0
 23 21  1  6  0  0  0
 24 25  1  0  0  0  0
 24 23  1  0  0  0  0
 26 27  1  0  0  0  0
 26 24  1  0  0  0  0
 27 22  1  0  0  0  0
 27 28  1  0  0  0  0
 29 30  1  0  0  0  0
M  END
>  <minimizedAffinity>
-4.82622671

>  <minimizedRMSD>
1.2605871

$$$$
