REMARK  Name = 
REMARK  8 active torsions:
REMARK  status: ('A' for Active; 'I' for Inactive)
REMARK    1  A    between atoms: C_3  and  C_12
REMARK    2  A    between atoms: C_7  and  O_15
REMARK    3  A    between atoms: C_8  and  N_14
REMARK    4  A    between atoms: O_15  and  P_17
REMARK    5  A    between atoms: P_17  and  O_18
REMARK    6  A    between atoms: P_17  and  O_19
REMARK    7  A    between atoms: O_19  and  C_30
REMARK    8  A    between atoms: O_28  and  C_29
REMARK                            x       y       z     vdW  Elec       q    Type
REMARK                         _______ _______ _______ _____ _____    ______ ____
ROOT
ATOM      1  F   UNL     1      45.140  33.502  41.156  0.00  0.00    +0.000 F 
ATOM      2  C   UNL     1      46.323  34.080  41.046  0.00  0.00    +0.000 A 
ATOM      3  C   UNL     1      46.828  34.798  42.111  0.00  0.00    +0.000 A 
ATOM      4  C   UNL     1      48.071  35.442  42.085  0.00  0.00    +0.000 A 
ATOM      5  C   UNL     1      48.852  35.363  40.931  0.00  0.00    +0.000 A 
ATOM      6  C   UNL     1      48.313  34.634  39.884  0.00  0.00    +0.000 A 
ATOM      7  C   UNL     1      47.108  34.006  39.900  0.00  0.00    +0.000 A 
ATOM      8  H   UNL     1      48.398  35.993  42.975  0.00  0.00    +0.000 HD
ATOM      9  H   UNL     1      49.785  35.873  40.972  0.00  0.00    +0.000 HD
ATOM     10  H   UNL     1      49.026  34.651  39.065  0.00  0.00    +0.000 HD
ENDROOT
BRANCH   3  15
ATOM     11  C   UNL     1      45.453  34.022  45.422  0.00  0.00    +0.000 A 
ATOM     12  C   UNL     1      44.613  35.124  45.660  0.00  0.00    +0.000 A 
ATOM     13  C   UNL     1      44.520  36.143  44.671  0.00  0.00    +0.000 A 
ATOM     14  N   UNL     1      45.269  35.973  43.539  0.00  0.00    +0.000 NA
ATOM     15  C   UNL     1      46.053  34.911  43.352  0.00  0.00    +0.000 A 
ATOM     16  N   UNL     1      46.143  33.947  44.285  0.00  0.00    +0.000 NA
ATOM     17  H   UNL     1      44.028  35.243  46.561  0.00  0.00    +0.000 HD
ATOM     18  H   UNL     1      43.887  37.006  44.814  0.00  0.00    +0.000 HD
BRANCH  11  19
ATOM     19  N   UNL     1      45.530  33.020  46.420  0.00  0.00    +0.000 N 
ATOM     20  H   UNL     1      45.597  32.002  46.175  0.00  0.00    +0.000 HD
ATOM     21  H   UNL     1      45.522  33.269  47.434  0.00  0.00    +0.000 HD
ENDBRANCH  11  19
ENDBRANCH   3  15
BRANCH   7  22
ATOM     22  O   UNL     1      46.681  33.315  38.799  0.00  0.00    +0.000 OA
BRANCH  22  24
ATOM     23  O   UNL     1      48.085  34.658  37.002  0.00  0.00    +0.000 OA
ATOM     24  P   UNL     1      47.349  33.381  37.249  0.00  0.00    +0.000 P 
BRANCH  24  25
ATOM     25  O   UNL     1      46.058  33.208  36.123  0.00  0.00    +0.000 OA
ATOM     26  H   UNL     1      45.874  32.268  35.928  0.00  0.00    +0.000 HD
ENDBRANCH  24  25
BRANCH  24  27
ATOM     27  O   UNL     1      48.351  32.073  36.944  0.00  0.00    +0.000 OA
BRANCH  27  29
ATOM     28  C   UNL     1      50.139  31.016  35.914  0.00  0.00    +0.000 C 
ATOM     29  C   UNL     1      49.531  32.347  36.323  0.00  0.00    +0.000 C 
ATOM     30  C   UNL     1      49.449  33.021  35.007  0.00  0.00    +0.000 C 
ATOM     31  H   UNL     1      48.793  33.906  34.970  0.00  0.00    +0.000 HD
ATOM     32  O   UNL     1      49.110  32.057  34.083  0.00  0.00    +0.000 OA
ATOM     33  C   UNL     1      49.550  30.840  34.539  0.00  0.00    +0.000 C 
ATOM     34  H   UNL     1      50.308  30.483  33.802  0.00  0.00    +0.000 HD
BRANCH  28  35
ATOM     35  O   UNL     1      51.519  31.140  35.753  0.00  0.00    +0.000 OA
ATOM     36  H   UNL     1      51.989  30.291  35.805  0.00  0.00    +0.000 HD
ENDBRANCH  28  35
ENDBRANCH  27  29
ENDBRANCH  24  27
ENDBRANCH  22  24
ENDBRANCH   7  22
TORSDOF 8
