
     RDKit          3D

 48 51  0  0  0  0  0  0  0  0999 V2000
   47.0589   34.8070   41.9565 C   0  0  2  0  0  0  0  0  0  0  0  0
   46.3012   34.1826   40.7827 C   0  0  0  0  0  0  0  0  0  0  0  0
   47.5070   34.0064   39.8342 C   0  0  0  0  0  0  0  0  0  0  0  0
   48.6474   33.6315   40.7276 C   0  0  1  0  0  0  0  0  0  0  0  0
   48.1372   33.7738   42.1319 C   0  0  0  0  0  0  0  0  0  0  0  0
   44.5463   35.9922   44.4987 C   0  0  0  0  0  0  0  0  0  0  0  0
   45.2845   35.9715   43.3160 C   0  0  0  0  0  0  0  0  0  0  0  0
   46.1929   34.9316   43.1586 C   0  0  0  0  0  0  0  0  0  0  0  0
   46.3415   33.9592   44.1597 N   0  0  0  0  0  0  0  0  0  0  0  0
   45.5929   34.0358   45.2887 C   0  0  0  0  0  0  0  0  0  0  0  0
   44.7018   35.0458   45.4558 N   0  0  0  0  0  0  0  0  0  0  0  0
   49.1297   32.2073   40.5698 C   0  0  2  0  0  0  0  0  0  0  0  0
   49.7746   31.6229   41.7394 C   0  0  0  0  0  0  0  0  0  0  0  0
   50.5555   31.8845   40.4927 C   0  0  1  0  0  0  0  0  0  0  0  0
   50.9253   30.7626   39.7099 O   0  0  0  0  0  0  0  0  0  0  0  0
   52.0285   30.2045   37.4157 O   0  0  0  0  0  0  0  0  0  0  0  0
   51.8770   31.3071   38.4348 P   0  0  1  0  0  0  0  0  0  0  0  0
   51.1071   32.6245   37.6518 O   0  0  0  0  0  0  0  0  0  0  0  0
   53.3918   31.8292   38.8744 O   0  0  0  0  0  0  0  0  0  0  0  0
   47.4913   35.7600   41.6140 H   0  0  0  0  0  0  0  0  0  0  0  0
   45.9009   33.2141   41.0786 H   0  0  0  0  0  0  0  0  0  0  0  0
   45.5904   34.9059   40.3821 H   0  0  0  0  0  0  0  0  0  0  0  0
   47.2991   33.2841   39.0432 H   0  0  0  0  0  0  0  0  0  0  0  0
   47.6757   35.0256   39.3973 H   0  0  0  0  0  0  0  0  0  0  0  0
   49.5399   34.2749   40.5492 H   0  0  0  0  0  0  0  0  0  0  0  0
   47.7700   32.8481   42.5746 H   0  0  0  0  0  0  0  0  0  0  0  0
   48.9648   34.2415   42.7300 H   0  0  0  0  0  0  0  0  0  0  0  0
   43.8356   36.7972   44.6321 H   0  0  0  0  0  0  0  0  0  0  0  0
   45.1864   36.7097   42.5325 H   0  0  0  0  0  0  0  0  0  0  0  0
   45.7898   33.2365   45.9899 H   0  0  0  0  0  0  0  0  0  0  0  0
   48.4391   31.5742   39.9858 H   0  0  0  0  0  0  0  0  0  0  0  0
   50.0569   32.2462   42.6367 H   0  0  0  0  0  0  0  0  0  0  0  0
   49.5319   30.5876   42.0383 H   0  0  0  0  0  0  0  0  0  0  0  0
   51.2638   32.7234   40.4028 H   0  0  0  0  0  0  0  0  0  0  0  0
   50.3351   32.2303   37.1695 H   0  0  0  0  0  0  0  0  0  0  0  0
   53.5490   31.1424   41.8330 O   0  0  0  0  0  0  0  0  0  0  0  0
   53.3072   30.3113   40.7428 C   0  0  1  0  0  0  0  0  0  0  0  0
   54.0609   30.8043   39.5008 C   0  0  1  0  0  0  0  0  0  0  0  0
   54.0929   29.5147   38.7127 C   0  0  1  0  0  0  0  0  0  0  0  0
   53.0843   29.3426   38.2412 H   0  0  0  0  0  0  0  0  0  0  0  0
   54.2508   28.4914   39.6348 O   0  0  0  0  0  0  0  0  0  0  0  0
   53.9752   28.9659   40.8978 C   0  0  2  0  0  0  0  0  0  0  0  0
   53.4438   28.2821   41.5590 H   0  0  0  0  0  0  0  0  0  0  0  0
   52.7625   31.7377   41.9259 H   0  0  0  0  0  0  0  0  0  0  0  0
   52.2314   30.1958   40.5070 H   0  0  0  0  0  0  0  0  0  0  0  0
   55.0815   31.0558   39.8313 H   0  0  0  0  0  0  0  0  0  0  0  0
   54.8151   29.4950   37.8955 H   0  0  0  0  0  0  0  0  0  0  0  0
   54.9746   29.1920   41.3717 H   0  0  0  0  0  0  0  0  0  0  0  0
  1  5  1  0
  1  8  1  0
  2  1  1  0
  3  4  1  0
  3  2  1  0
  4  5  1  0
  6 11  2  0
  7  6  1  0
  8  7  2  0
  8  9  1  0
  9 10  2  0
 10 11  1  0
 12  4  1  0
 12 13  1  0
 14 12  1  0
 14 13  1  0
 15 14  1  0
 16 17  2  0
 17 19  1  1
 17 15  1  0
 18 17  1  0
  1 20  1  6
  2 21  1  0
  2 22  1  0
  3 23  1  0
  3 24  1  0
  4 25  1  1
  5 26  1  0
  5 27  1  0
  6 28  1  0
  7 29  1  0
 10 30  1  0
 12 31  1  6
 13 32  1  0
 13 33  1  0
 14 34  1  1
 18 35  1  0
 36 37  1  0
 37 38  1  0
 38 39  1  0
 39 40  1  6
 39 41  1  0
 41 42  1  0
 42 43  1  1
 42 37  1  0
 36 44  1  0
 37 45  1  6
 38 46  1  1
 39 47  1  0
 42 48  1  0
 19 38  1  0
M  ISO  8  20  13  21  13  22  13  23  13  24  13  25  13  26  13  27  13
M  ISO  8  28  14  29  14  30  14  31  13  32  13  33  13  34  13  35   3
M  ISO  2  40  15  43  16
M  END
>  <DihAtoms>  (1) 
16,18,37,36

>  <DihDeg>  (1) 
121.36304424125635

$$$$
