
 OpenBabel03242517433D

 19 20  0  0  1  0  0  0  0  0999 V2000
   43.7620   35.2940   41.2060 S   0  0  0  0  0  0  0  0  0  0  0  0
   44.2700   35.8110   43.8760 C   0  0  0  0  0  0  0  0  0  0  0  0
   44.3700   34.8690   42.8450 C   0  0  0  0  0  0  0  0  0  0  0  0
   44.9380   33.6100   43.0950 C   0  0  0  0  0  0  0  0  0  0  0  0
   45.3660   33.3920   44.3710 N   0  0  0  0  0  0  0  0  0  0  0  0
   45.2590   34.3110   45.3460 C   0  0  0  0  0  0  0  0  0  0  0  0
   44.7210   35.5060   45.1090 N   0  0  0  0  0  0  0  0  0  0  0  0
   43.8180   36.7790   43.6300 H   0  0  0  0  0  0  0  0  0  0  0  0
   45.0050   32.9110   42.3010 H   0  0  0  0  0  0  0  0  0  0  0  0
   45.6180   34.0810   46.3440 H   0  0  0  0  0  0  0  0  0  0  0  0
   41.7000   35.1060   39.5120 C   0  0  2  0  0  0  0  0  0  0  0  0
   42.0780   34.7770   40.9430 C   0  0  2  0  0  0  0  0  0  0  0  0
   41.0430   35.5180   41.7230 C   0  0  0  0  0  0  0  0  0  0  0  0
   41.5390   36.2090   42.4120 H   0  0  0  0  0  0  0  0  0  0  0  0
   40.1980   36.1500   40.8190 O   0  0  0  0  0  0  0  0  0  0  0  0
   40.2110   35.3280   39.6740 C   0  0  0  0  0  0  0  0  0  0  0  0
   39.6980   34.3580   39.8800 H   0  0  0  0  0  0  0  0  0  0  0  0
   42.0060   34.1050   38.6080 O   0  0  0  0  0  0  0  0  0  0  0  0
   41.7400   33.2300   38.9280 H   0  0  0  0  0  0  0  0  0  0  0  0
  1  3  1  0  0  0  0
  2  7  1  0  0  0  0
  3  4  1  0  0  0  0
  3  2  2  0  0  0  0
  4  5  2  0  0  0  0
  5  6  1  0  0  0  0
  6 10  1  0  0  0  0
  7  6  2  0  0  0  0
  8  2  1  0  0  0  0
  9  4  1  0  0  0  0
 11 18  1  6  0  0  0
 11 16  1  0  0  0  0
 11 12  1  0  0  0  0
 12  1  1  1  0  0  0
 12 13  1  0  0  0  0
 13 14  1  0  0  0  0
 15 13  1  0  0  0  0
 16 17  1  0  0  0  0
 16 15  1  0  0  0  0
 18 19  1  0  0  0  0
M  END
>  <minimizedAffinity>
-3.99666095

>  <minimizedRMSD>
3.20557404

$$$$
