
 OpenBabel03252507543D

 44 47  0  0  1  0  0  0  0  0999 V2000
   47.0590   34.8150   42.1400 C   0  0  2  0  0  0  0  0  0  0  0  0
   46.2740   34.3490   40.9130 C   0  0  0  0  0  0  0  0  0  0  0  0
   47.4770   34.1570   39.9630 C   0  0  0  0  0  0  0  0  0  0  0  0
   48.5720   33.6240   40.8340 C   0  0  1  0  0  0  0  0  0  0  0  0
   48.0520   33.6910   42.2400 C   0  0  0  0  0  0  0  0  0  0  0  0
   47.5680   35.7570   41.8810 H   0  0  0  0  0  0  0  0  0  0  0  0
   45.7970   33.3930   41.1240 H   0  0  0  0  0  0  0  0  0  0  0  0
   45.6260   35.1550   40.5660 H   0  0  0  0  0  0  0  0  0  0  0  0
   47.2270   33.5190   39.1140 H   0  0  0  0  0  0  0  0  0  0  0  0
   47.7300   35.1930   39.6130 H   0  0  0  0  0  0  0  0  0  0  0  0
   49.5140   34.2090   40.7170 H   0  0  0  0  0  0  0  0  0  0  0  0
   47.6090   32.7640   42.6020 H   0  0  0  0  0  0  0  0  0  0  0  0
   48.9040   34.0440   42.8820 H   0  0  0  0  0  0  0  0  0  0  0  0
   44.5010   35.9100   44.6790 C   0  0  0  0  0  0  0  0  0  0  0  0
   45.2430   35.9160   43.4970 C   0  0  0  0  0  0  0  0  0  0  0  0
   46.1870   34.9090   43.3410 C   0  0  0  0  0  0  0  0  0  0  0  0
   46.3660   33.9400   44.3410 N   0  0  0  0  0  0  0  0  0  0  0  0
   45.6130   33.9900   45.4680 C   0  0  0  0  0  0  0  0  0  0  0  0
   44.6880   34.9690   45.6350 N   0  0  0  0  0  0  0  0  0  0  0  0
   43.7640   36.6910   44.8110 H   0  0  0  0  0  0  0  0  0  0  0  0
   45.1210   36.6530   42.7140 H   0  0  0  0  0  0  0  0  0  0  0  0
   45.8350   33.1960   46.1690 H   0  0  0  0  0  0  0  0  0  0  0  0
   48.9470   32.1840   40.5640 C   0  0  2  0  0  0  0  0  0  0  0  0
   49.6380   31.4950   41.6470 C   0  0  0  0  0  0  0  0  0  0  0  0
   50.3390   31.7790   40.3590 C   0  0  1  0  0  0  0  0  0  0  0  0
   48.1740   31.6290   40.0040 H   0  0  0  0  0  0  0  0  0  0  0  0
   50.0260   32.0470   42.5510 H   0  0  0  0  0  0  0  0  0  0  0  0
   49.3500   30.4620   41.9090 H   0  0  0  0  0  0  0  0  0  0  0  0
   51.0910   32.5760   40.2580 H   0  0  0  0  0  0  0  0  0  0  0  0
   50.5740   30.6840   39.4920 O   0  0  0  0  0  0  0  0  0  0  0  0
   51.8280   30.1100   37.2800 O   0  0  0  0  0  0  0  0  0  0  0  0
   51.7470   31.1420   38.3780 P   0  0  1  0  0  0  0  0  0  0  0  0
   51.3090   32.6310   37.6480 O   0  0  0  0  0  0  0  0  0  0  0  0
   50.5440   32.4190   37.0530 H   0  0  0  0  0  0  0  0  0  0  0  0
   53.2670   31.3500   39.0170 O   0  0  0  0  0  0  0  0  0  0  0  0
   55.1400   29.9330   38.4820 C   0  0  1  0  0  3  0  0  0  0  0  0
   53.8290   30.1180   39.2580 C   0  0  1  0  0  3  0  0  0  0  0  0
   54.3570   29.9460   40.6640 C   0  0  0  0  0  3  0  0  0  0  0  0
   54.8790   30.8910   40.9840 H   0  0  0  0  0  0  0  0  0  0  0  0
   55.3490   28.9800   40.5980 O   0  0  0  0  0  0  0  0  0  0  0  0
   55.7230   28.7940   39.2850 C   0  0  0  0  0  3  0  0  0  0  0  0
   56.7850   28.6290   39.1100 H   0  0  0  0  0  0  0  0  0  0  0  0
   54.8870   29.5640   37.1630 O   0  0  0  0  0  0  0  0  0  0  0  0
   54.9910   30.3790   36.6090 H   0  0  0  0  0  0  0  0  0  0  0  0
  1  6  1  6  0  0  0
  1  5  1  0  0  0  0
  1 16  1  0  0  0  0
  2  7  1  0  0  0  0
  2  1  1  0  0  0  0
  3  4  1  0  0  0  0
  3  2  1  0  0  0  0
  4 11  1  6  0  0  0
  4  5  1  0  0  0  0
  5 12  1  0  0  0  0
  5 13  1  0  0  0  0
  8  2  1  0  0  0  0
  9  3  1  0  0  0  0
 10  3  1  0  0  0  0
 14 20  1  0  0  0  0
 14 19  1  0  0  0  0
 15 14  2  0  0  0  0
 16 15  1  0  0  0  0
 16 17  2  0  0  0  0
 17 18  1  0  0  0  0
 18 19  2  0  0  0  0
 18 22  1  0  0  0  0
 21 15  1  0  0  0  0
 23 26  1  6  0  0  0
 23  4  1  0  0  0  0
 23 24  1  0  0  0  0
 24 28  1  0  0  0  0
 24 27  1  0  0  0  0
 25 29  1  1  0  0  0
 25 23  1  0  0  0  0
 25 24  1  0  0  0  0
 30 25  1  0  0  0  0
 32 31  2  6  0  0  0
 32 35  1  0  0  0  0
 32 30  1  0  0  0  0
 33 32  1  0  0  0  0
 34 33  1  0  0  0  0
 36 43  1  6  0  0  0
 36 37  1  0  0  0  0
 36 41  1  0  0  0  0
 37 35  1  1  0  0  0
 37 38  1  0  0  0  0
 38 39  1  0  0  0  0
 40 38  1  0  0  0  0
 41 40  1  0  0  0  0
 42 41  1  0  0  0  0
 44 43  1  0  0  0  0
M  END
>  <minimizedAffinity>
-5.12733698

>  <minimizedRMSD>
0.6436854

$$$$
