
 OpenBabel03242523533D

 43 46  0  0  1  0  0  0  0  0999 V2000
   38.9560   32.6110   39.4220 C   0  0  1  0  0  0  0  0  0  0  0  0
   38.5880   31.2800   40.0760 C   0  0  1  0  0  0  0  0  0  0  0  0
   39.1250   30.2210   39.3160 O   0  0  0  0  0  0  0  0  0  0  0  0
   39.1480   30.4940   37.9450 C   0  0  0  0  0  0  0  0  0  0  0  0
   40.1520   31.5730   37.6190 C   0  0  2  0  0  0  0  0  0  0  0  0
   40.3670   32.4010   38.8970 C   0  0  1  0  0  0  0  0  0  0  0  0
   38.9190   33.3740   40.2170 H   0  0  0  0  0  0  0  0  0  0  0  0
   37.4950   31.2100   40.1450 H   0  0  0  0  0  0  0  0  0  0  0  0
   39.4260   29.5310   37.4710 H   0  0  0  0  0  0  0  0  0  0  0  0
   38.1250   30.7110   37.5330 H   0  0  0  0  0  0  0  0  0  0  0  0
   41.1060   31.1830   37.2400 H   0  0  0  0  0  0  0  0  0  0  0  0
   40.9590   31.7380   39.5570 H   0  0  0  0  0  0  0  0  0  0  0  0
   38.0910   32.8940   38.3660 O   0  0  0  0  0  0  0  0  0  0  0  0
   37.8290   33.8350   38.4810 H   0  0  0  0  0  0  0  0  0  0  0  0
   39.5490   32.4700   36.7210 O   0  0  0  0  0  0  0  0  0  0  0  0
   40.2510   32.8670   36.1750 H   0  0  0  0  0  0  0  0  0  0  0  0
   39.2830   31.2290   41.2840 O   0  0  0  0  0  0  0  0  0  0  0  0
   39.6040   30.1210   41.9540 C   0  0  0  0  0  0  0  0  0  0  0  0
   38.6240   29.2290   42.3860 C   0  0  0  0  0  0  0  0  0  0  0  0
   39.0230   28.0940   43.0770 C   0  0  0  0  0  0  0  0  0  0  0  0
   40.3700   27.8700   43.3210 N   0  0  0  0  0  0  0  0  0  0  0  0
   41.2770   28.7540   42.8870 C   0  0  0  0  0  0  0  0  0  0  0  0
   40.9080   29.8700   42.2110 N   0  0  0  0  0  0  0  0  0  0  0  0
   37.5700   29.3930   42.2020 H   0  0  0  0  0  0  0  0  0  0  0  0
   42.3190   28.5670   43.0830 H   0  0  0  0  0  0  0  0  0  0  0  0
   37.9930   27.1060   43.5710 C   0  0  0  0  0  0  0  0  0  0  0  0
   36.5400   27.4870   43.4130 C   0  0  0  0  0  0  0  0  0  0  0  0
   37.2140   26.3540   42.6220 C   0  0  0  0  0  0  0  0  0  0  0  0
   38.2120   26.7770   44.6080 H   0  0  0  0  0  0  0  0  0  0  0  0
   36.2870   28.4030   42.8510 H   0  0  0  0  0  0  0  0  0  0  0  0
   35.7930   27.1830   44.1630 H   0  0  0  0  0  0  0  0  0  0  0  0
   37.3460   26.5620   41.5470 H   0  0  0  0  0  0  0  0  0  0  0  0
   36.9260   25.3110   42.8990 H   0  0  0  0  0  0  0  0  0  0  0  0
   41.0270   33.5720   38.6030 O   0  0  0  0  0  0  0  0  0  0  0  0
   43.1430   34.1480   37.8040 C   0  0  1  0  0  3  0  0  0  0  0  0
   42.3600   33.5680   38.9700 C   0  0  2  0  0  3  0  0  0  0  0  0
   42.8370   32.1300   38.9210 C   0  0  0  0  0  3  0  0  0  0  0  0
   42.2510   31.5830   38.1490 H   0  0  0  0  0  0  0  0  0  0  0  0
   44.1640   32.1560   38.5070 O   0  0  0  0  0  0  0  0  0  0  0  0
   44.3340   33.2500   37.6780 C   0  0  0  0  0  3  0  0  0  0  0  0
   44.5520   32.9670   36.6290 H   0  0  0  0  0  0  0  0  0  0  0  0
   42.4100   34.0590   36.6300 O   0  0  0  0  0  0  0  0  0  0  0  0
   41.6050   34.6280   36.6280 H   0  0  0  0  0  0  0  0  0  0  0  0
  1  2  1  0  0  0  0
  1  7  1  1  0  0  0
  2  8  1  1  0  0  0
  2 17  1  0  0  0  0
  3  2  1  0  0  0  0
  4  3  1  0  0  0  0
  5 11  1  6  0  0  0
  5  4  1  0  0  0  0
  5  6  1  0  0  0  0
  6  1  1  0  0  0  0
  6 12  1  1  0  0  0
  9  4  1  0  0  0  0
 10  4  1  0  0  0  0
 13 14  1  0  0  0  0
 13  1  1  0  0  0  0
 15  5  1  0  0  0  0
 16 15  1  0  0  0  0
 17 18  1  0  0  0  0
 18 23  2  0  0  0  0
 18 19  1  0  0  0  0
 19 20  2  0  0  0  0
 20 21  1  0  0  0  0
 20 26  1  0  0  0  0
 22 25  1  0  0  0  0
 22 21  2  0  0  0  0
 23 22  1  0  0  0  0
 24 19  1  0  0  0  0
 26 29  1  0  0  0  0
 27 26  1  0  0  0  0
 27 31  1  0  0  0  0
 28 33  1  0  0  0  0
 28 27  1  0  0  0  0
 28 26  1  0  0  0  0
 30 27  1  0  0  0  0
 32 28  1  0  0  0  0
 34  6  1  0  0  0  0
 35 42  1  6  0  0  0
 35 36  1  0  0  0  0
 36 34  1  6  0  0  0
 37 36  1  0  0  0  0
 38 37  1  0  0  0  0
 39 37  1  0  0  0  0
 40 35  1  0  0  0  0
 40 39  1  0  0  0  0
 41 40  1  0  0  0  0
 43 42  1  0  0  0  0
M  END
>  <minimizedAffinity>
-6.46388102

$$$$

 OpenBabel03242523533D

 43 46  0  0  1  0  0  0  0  0999 V2000
   38.9150   31.0090   41.0240 C   0  0  1  0  0  0  0  0  0  0  0  0
   38.3310   29.8280   41.7970 C   0  0  1  0  0  0  0  0  0  0  0  0
   36.9820   29.6520   41.4340 O   0  0  0  0  0  0  0  0  0  0  0  0
   36.3340   30.8580   41.1500 C   0  0  0  0  0  0  0  0  0  0  0  0
   36.8600   31.4730   39.8750 C   0  0  2  0  0  0  0  0  0  0  0  0
   38.2760   30.9180   39.6480 C   0  0  1  0  0  0  0  0  0  0  0  0
   40.0050   30.8540   40.9850 H   0  0  0  0  0  0  0  0  0  0  0  0
   38.4360   30.0220   42.8710 H   0  0  0  0  0  0  0  0  0  0  0  0
   35.2630   30.5860   41.0510 H   0  0  0  0  0  0  0  0  0  0  0  0
   36.3530   31.5700   42.0190 H   0  0  0  0  0  0  0  0  0  0  0  0
   36.2210   31.2850   39.0030 H   0  0  0  0  0  0  0  0  0  0  0  0
   38.1120   29.8680   39.3370 H   0  0  0  0  0  0  0  0  0  0  0  0
   38.5660   32.2140   41.6330 O   0  0  0  0  0  0  0  0  0  0  0  0
   39.3940   32.7440   41.6700 H   0  0  0  0  0  0  0  0  0  0  0  0
   37.0570   32.8460   40.1050 O   0  0  0  0  0  0  0  0  0  0  0  0
   36.9490   33.3120   39.2570 H   0  0  0  0  0  0  0  0  0  0  0  0
   38.9730   28.6860   41.3150 O   0  0  0  0  0  0  0  0  0  0  0  0
   39.1470   27.5460   41.9850 C   0  0  0  0  0  0  0  0  0  0  0  0
   38.4010   26.4100   41.6810 C   0  0  0  0  0  0  0  0  0  0  0  0
   38.6290   25.2540   42.4150 C   0  0  0  0  0  0  0  0  0  0  0  0
   39.5830   25.2510   43.4220 N   0  0  0  0  0  0  0  0  0  0  0  0
   40.2770   26.3680   43.6800 C   0  0  0  0  0  0  0  0  0  0  0  0
   40.0680   27.5070   42.9750 N   0  0  0  0  0  0  0  0  0  0  0  0
   37.6530   26.3990   40.8980 H   0  0  0  0  0  0  0  0  0  0  0  0
   41.0140   26.3510   44.4640 H   0  0  0  0  0  0  0  0  0  0  0  0
   37.8350   24.0020   42.1250 C   0  0  0  0  0  0  0  0  0  0  0  0
   36.6330   24.1410   41.2220 C   0  0  0  0  0  0  0  0  0  0  0  0
   37.9160   23.3940   40.8220 C   0  0  0  0  0  0  0  0  0  0  0  0
   37.5770   23.4610   43.0580 H   0  0  0  0  0  0  0  0  0  0  0  0
   36.4470   25.1100   40.7260 H   0  0  0  0  0  0  0  0  0  0  0  0
   35.7360   23.5230   41.3800 H   0  0  0  0  0  0  0  0  0  0  0  0
   38.5120   23.8940   40.0410 H   0  0  0  0  0  0  0  0  0  0  0  0
   37.8480   22.2800   40.7660 H   0  0  0  0  0  0  0  0  0  0  0  0
   38.9290   31.6530   38.6860 O   0  0  0  0  0  0  0  0  0  0  0  0
   40.8470   32.2650   37.5030 C   0  0  1  0  0  3  0  0  0  0  0  0
   40.2980   31.4620   38.6710 C   0  0  2  0  0  3  0  0  0  0  0  0
   40.5520   30.0550   38.1700 C   0  0  0  0  0  3  0  0  0  0  0  0
   39.7290   29.7650   37.4790 H   0  0  0  0  0  0  0  0  0  0  0  0
   41.7300   30.0920   37.4320 O   0  0  0  0  0  0  0  0  0  0  0  0
   41.8400   31.3470   36.8610 C   0  0  0  0  0  3  0  0  0  0  0  0
   41.7570   31.3270   35.7560 H   0  0  0  0  0  0  0  0  0  0  0  0
   39.8460   32.5300   36.5800 O   0  0  0  0  0  0  0  0  0  0  0  0
   39.1480   33.1360   36.9230 H   0  0  0  0  0  0  0  0  0  0  0  0
  1  7  1  6  0  0  0
  1 13  1  0  0  0  0
  1  2  1  0  0  0  0
  2  8  1  1  0  0  0
  3  2  1  0  0  0  0
  4  3  1  0  0  0  0
  4 10  1  0  0  0  0
  5 11  1  6  0  0  0
  5 15  1  0  0  0  0
  5  4  1  0  0  0  0
  6 12  1  6  0  0  0
  6  5  1  0  0  0  0
  6  1  1  0  0  0  0
  9  4  1  0  0  0  0
 13 14  1  0  0  0  0
 16 15  1  0  0  0  0
 17  2  1  0  0  0  0
 17 18  1  0  0  0  0
 18 23  1  0  0  0  0
 19 18  2  0  0  0  0
 19 20  1  0  0  0  0
 20 21  2  0  0  0  0
 21 22  1  0  0  0  0
 22 25  1  0  0  0  0
 23 22  2  0  0  0  0
 24 19  1  0  0  0  0
 26 20  1  0  0  0  0
 26 29  1  0  0  0  0
 27 31  1  0  0  0  0
 27 26  1  0  0  0  0
 28 27  1  0  0  0  0
 28 26  1  0  0  0  0
 30 27  1  0  0  0  0
 32 28  1  0  0  0  0
 33 28  1  0  0  0  0
 34  6  1  0  0  0  0
 35 42  1  6  0  0  0
 35 36  1  0  0  0  0
 36 34  1  6  0  0  0
 37 36  1  0  0  0  0
 38 37  1  0  0  0  0
 39 37  1  0  0  0  0
 40 39  1  0  0  0  0
 40 35  1  0  0  0  0
 41 40  1  0  0  0  0
 42 43  1  0  0  0  0
M  END
>  <minimizedAffinity>
-5.99543142

$$$$

 OpenBabel03242523533D

 43 46  0  0  1  0  0  0  0  0999 V2000
   37.7710   31.4750   40.7380 C   0  0  1  0  0  0  0  0  0  0  0  0
   37.2900   30.2310   39.9920 C   0  0  1  0  0  0  0  0  0  0  0  0
   37.6720   30.3200   38.6390 O   0  0  0  0  0  0  0  0  0  0  0  0
   37.6610   31.6320   38.1570 C   0  0  0  0  0  0  0  0  0  0  0  0
   38.7620   32.4530   38.7840 C   0  0  2  0  0  0  0  0  0  0  0  0
   39.1250   31.7890   40.1220 C   0  0  1  0  0  0  0  0  0  0  0  0
   37.8550   31.1940   41.8000 H   0  0  0  0  0  0  0  0  0  0  0  0
   36.2010   30.1550   40.0980 H   0  0  0  0  0  0  0  0  0  0  0  0
   37.8110   31.5310   37.0630 H   0  0  0  0  0  0  0  0  0  0  0  0
   36.6510   32.1150   38.2470 H   0  0  0  0  0  0  0  0  0  0  0  0
   39.6490   32.5570   38.1450 H   0  0  0  0  0  0  0  0  0  0  0  0
   39.6710   30.8690   39.8330 H   0  0  0  0  0  0  0  0  0  0  0  0
   36.8950   32.5390   40.5320 O   0  0  0  0  0  0  0  0  0  0  0  0
   36.7430   32.9350   41.4200 H   0  0  0  0  0  0  0  0  0  0  0  0
   38.2200   33.6980   39.1500 O   0  0  0  0  0  0  0  0  0  0  0  0
   38.9350   34.3580   39.1190 H   0  0  0  0  0  0  0  0  0  0  0  0
   38.0300   29.1600   40.4940 O   0  0  0  0  0  0  0  0  0  0  0  0
   37.6370   28.3200   41.4530 C   0  0  0  0  0  0  0  0  0  0  0  0
   37.5280   26.9520   41.2140 C   0  0  0  0  0  0  0  0  0  0  0  0
   37.1150   26.1320   42.2550 C   0  0  0  0  0  0  0  0  0  0  0  0
   36.8230   26.6800   43.4950 N   0  0  0  0  0  0  0  0  0  0  0  0
   36.9420   28.0010   43.6790 C   0  0  0  0  0  0  0  0  0  0  0  0
   37.3440   28.8200   42.6760 N   0  0  0  0  0  0  0  0  0  0  0  0
   37.7520   26.5120   40.2510 H   0  0  0  0  0  0  0  0  0  0  0  0
   36.7130   28.4130   44.6470 H   0  0  0  0  0  0  0  0  0  0  0  0
   36.9730   24.6430   42.0360 C   0  0  0  0  0  0  0  0  0  0  0  0
   36.4880   24.1880   40.6800 C   0  0  0  0  0  0  0  0  0  0  0  0
   37.9170   23.9540   41.1960 C   0  0  0  0  0  0  0  0  0  0  0  0
   36.3910   24.1680   42.8520 H   0  0  0  0  0  0  0  0  0  0  0  0
   36.3660   24.9370   39.8780 H   0  0  0  0  0  0  0  0  0  0  0  0
   35.8520   23.2960   40.5800 H   0  0  0  0  0  0  0  0  0  0  0  0
   38.6930   24.5430   40.6780 H   0  0  0  0  0  0  0  0  0  0  0  0
   38.1840   22.9040   41.4690 H   0  0  0  0  0  0  0  0  0  0  0  0
   39.8950   32.6370   40.8840 O   0  0  0  0  0  0  0  0  0  0  0  0
   42.0300   31.9500   41.5350 C   0  0  1  0  0  3  0  0  0  0  0  0
   41.2190   32.6950   40.4880 C   0  0  2  0  0  3  0  0  0  0  0  0
   41.7020   34.1100   40.7350 C   0  0  0  0  0  3  0  0  0  0  0  0
   41.1370   34.5380   41.5940 H   0  0  0  0  0  0  0  0  0  0  0  0
   43.0380   34.0250   41.1080 O   0  0  0  0  0  0  0  0  0  0  0  0
   43.2260   32.8210   41.7610 C   0  0  0  0  0  3  0  0  0  0  0  0
   43.4710   32.9460   42.8350 H   0  0  0  0  0  0  0  0  0  0  0  0
   41.3270   31.8650   42.7280 O   0  0  0  0  0  0  0  0  0  0  0  0
   40.5200   31.3010   42.6670 H   0  0  0  0  0  0  0  0  0  0  0  0
  1  7  1  1  0  0  0
  2  8  1  1  0  0  0
  2 17  1  0  0  0  0
  2  1  1  0  0  0  0
  3  2  1  0  0  0  0
  4 10  1  0  0  0  0
  4  3  1  0  0  0  0
  4  5  1  0  0  0  0
  5 11  1  6  0  0  0
  5 15  1  0  0  0  0
  5  6  1  0  0  0  0
  6 12  1  6  0  0  0
  6  1  1  0  0  0  0
  6 34  1  0  0  0  0
  9  4  1  0  0  0  0
 13  1  1  0  0  0  0
 13 14  1  0  0  0  0
 16 15  1  0  0  0  0
 17 18  1  0  0  0  0
 18 23  1  0  0  0  0
 19 18  2  0  0  0  0
 19 20  1  0  0  0  0
 20 21  2  0  0  0  0
 21 22  1  0  0  0  0
 22 25  1  0  0  0  0
 23 22  2  0  0  0  0
 24 19  1  0  0  0  0
 26 20  1  0  0  0  0
 26 29  1  0  0  0  0
 27 28  1  0  0  0  0
 27 26  1  0  0  0  0
 28 33  1  0  0  0  0
 28 26  1  0  0  0  0
 30 27  1  0  0  0  0
 31 27  1  0  0  0  0
 32 28  1  0  0  0  0
 35 40  1  0  0  0  0
 35 42  1  1  0  0  0
 36 37  1  0  0  0  0
 36 34  1  1  0  0  0
 36 35  1  0  0  0  0
 37 39  1  0  0  0  0
 37 38  1  0  0  0  0
 39 40  1  0  0  0  0
 40 41  1  0  0  0  0
 43 42  1  0  0  0  0
M  END
>  <minimizedAffinity>
-5.92246389

$$$$

 OpenBabel03242523533D

 43 46  0  0  1  0  0  0  0  0999 V2000
   37.3250   31.4590   40.0140 C   0  0  1  0  0  0  0  0  0  0  0  0
   37.5480   31.5760   38.5070 C   0  0  1  0  0  0  0  0  0  0  0  0
   38.8840   31.9460   38.2590 O   0  0  0  0  0  0  0  0  0  0  0  0
   39.4050   32.7920   39.2420 C   0  0  0  0  0  0  0  0  0  0  0  0
   39.5850   32.0620   40.5520 C   0  0  2  0  0  0  0  0  0  0  0  0
   38.6200   30.8650   40.5460 C   0  0  1  0  0  0  0  0  0  0  0  0
   36.4700   30.7790   40.1560 H   0  0  0  0  0  0  0  0  0  0  0  0
   36.8450   32.3140   38.1030 H   0  0  0  0  0  0  0  0  0  0  0  0
   40.3800   33.1300   38.8350 H   0  0  0  0  0  0  0  0  0  0  0  0
   38.8140   33.7420   39.3490 H   0  0  0  0  0  0  0  0  0  0  0  0
   40.6170   31.7330   40.7310 H   0  0  0  0  0  0  0  0  0  0  0  0
   39.0720   30.1510   39.8300 H   0  0  0  0  0  0  0  0  0  0  0  0
   37.1100   32.7160   40.5770 O   0  0  0  0  0  0  0  0  0  0  0  0
   36.3340   32.6120   41.1720 H   0  0  0  0  0  0  0  0  0  0  0  0
   39.1040   32.8910   41.5800 O   0  0  0  0  0  0  0  0  0  0  0  0
   39.5940   32.6760   42.3940 H   0  0  0  0  0  0  0  0  0  0  0  0
   37.4430   30.2830   37.9920 O   0  0  0  0  0  0  0  0  0  0  0  0
   36.5180   29.8600   37.1280 C   0  0  0  0  0  0  0  0  0  0  0  0
   35.2700   29.4230   37.5650 C   0  0  0  0  0  0  0  0  0  0  0  0
   34.3510   28.9960   36.6160 C   0  0  0  0  0  0  0  0  0  0  0  0
   34.6870   29.0130   35.2700 N   0  0  0  0  0  0  0  0  0  0  0  0
   35.9000   29.4410   34.8970 C   0  0  0  0  0  0  0  0  0  0  0  0
   36.8110   29.8620   35.8080 N   0  0  0  0  0  0  0  0  0  0  0  0
   34.9950   29.4050   38.6120 H   0  0  0  0  0  0  0  0  0  0  0  0
   36.1470   29.4490   33.8490 H   0  0  0  0  0  0  0  0  0  0  0  0
   32.9890   28.5050   37.0470 C   0  0  0  0  0  0  0  0  0  0  0  0
   31.8400   29.4800   36.9460 C   0  0  0  0  0  0  0  0  0  0  0  0
   31.9820   28.2360   36.0530 C   0  0  0  0  0  0  0  0  0  0  0  0
   33.0270   28.0300   38.0490 H   0  0  0  0  0  0  0  0  0  0  0  0
   32.0110   30.4590   36.4660 H   0  0  0  0  0  0  0  0  0  0  0  0
   31.0210   29.4630   37.6820 H   0  0  0  0  0  0  0  0  0  0  0  0
   32.2100   28.4560   34.9970 H   0  0  0  0  0  0  0  0  0  0  0  0
   31.2710   27.3970   36.2490 H   0  0  0  0  0  0  0  0  0  0  0  0
   38.5070   30.3360   41.8100 O   0  0  0  0  0  0  0  0  0  0  0  0
   37.6480   28.3650   42.7210 C   0  0  1  0  0  3  0  0  0  0  0  0
   38.7490   28.9760   41.8700 C   0  0  2  0  0  3  0  0  0  0  0  0
   39.9390   28.7690   42.7860 C   0  0  0  0  0  3  0  0  0  0  0  0
   39.9570   29.5870   43.5420 H   0  0  0  0  0  0  0  0  0  0  0  0
   39.7290   27.5730   43.4620 O   0  0  0  0  0  0  0  0  0  0  0  0
   38.3650   27.3950   43.6080 C   0  0  0  0  0  3  0  0  0  0  0  0
   38.0340   27.4510   44.6650 H   0  0  0  0  0  0  0  0  0  0  0  0
   37.0590   29.3300   43.5240 O   0  0  0  0  0  0  0  0  0  0  0  0
   36.5580   30.0100   43.0150 H   0  0  0  0  0  0  0  0  0  0  0  0
  1  7  1  1  0  0  0
  1  6  1  0  0  0  0
  1 13  1  0  0  0  0
  2  8  1  6  0  0  0
  2  1  1  0  0  0  0
  3  2  1  0  0  0  0
  3  4  1  0  0  0  0
  4 10  1  0  0  0  0
  4  5  1  0  0  0  0
  5 11  1  1  0  0  0
  5 15  1  0  0  0  0
  6 12  1  6  0  0  0
  6  5  1  0  0  0  0
  6 34  1  0  0  0  0
  9  4  1  0  0  0  0
 13 14  1  0  0  0  0
 15 16  1  0  0  0  0
 17  2  1  0  0  0  0
 18 19  1  0  0  0  0
 18 17  1  0  0  0  0
 19 24  1  0  0  0  0
 20 26  1  0  0  0  0
 20 19  2  0  0  0  0
 21 20  1  0  0  0  0
 22 21  2  0  0  0  0
 22 23  1  0  0  0  0
 23 18  2  0  0  0  0
 25 22  1  0  0  0  0
 26 29  1  0  0  0  0
 27 26  1  0  0  0  0
 27 31  1  0  0  0  0
 28 33  1  0  0  0  0
 28 27  1  0  0  0  0
 28 26  1  0  0  0  0
 30 27  1  0  0  0  0
 32 28  1  0  0  0  0
 35 42  1  1  0  0  0
 35 40  1  0  0  0  0
 36 34  1  1  0  0  0
 36 35  1  0  0  0  0
 36 37  1  0  0  0  0
 37 39  1  0  0  0  0
 37 38  1  0  0  0  0
 39 40  1  0  0  0  0
 40 41  1  0  0  0  0
 43 42  1  0  0  0  0
M  END
>  <minimizedAffinity>
-5.8704586

$$$$

 OpenBabel03242523533D

 43 46  0  0  1  0  0  0  0  0999 V2000
   40.9640   31.7130   39.8680 C   0  0  1  0  0  0  0  0  0  0  0  0
   41.8230   31.8610   41.1240 C   0  0  1  0  0  0  0  0  0  0  0  0
   42.1570   33.2180   41.3040 O   0  0  0  0  0  0  0  0  0  0  0  0
   42.3290   33.9000   40.0960 C   0  0  0  0  0  0  0  0  0  0  0  0
   41.0170   34.0590   39.3660 C   0  0  2  0  0  0  0  0  0  0  0  0
   40.0780   32.9480   39.8640 C   0  0  1  0  0  0  0  0  0  0  0  0
   40.3820   30.7860   39.9920 H   0  0  0  0  0  0  0  0  0  0  0  0
   42.7190   31.2390   41.0140 H   0  0  0  0  0  0  0  0  0  0  0  0
   42.7480   34.8860   40.3860 H   0  0  0  0  0  0  0  0  0  0  0  0
   43.1330   33.4450   39.4560 H   0  0  0  0  0  0  0  0  0  0  0  0
   40.5590   35.0480   39.4990 H   0  0  0  0  0  0  0  0  0  0  0  0
   39.8020   33.2620   40.8900 H   0  0  0  0  0  0  0  0  0  0  0  0
   41.7640   31.6960   38.7270 O   0  0  0  0  0  0  0  0  0  0  0  0
   41.4330   30.9480   38.1800 H   0  0  0  0  0  0  0  0  0  0  0  0
   41.2340   33.7500   38.0120 O   0  0  0  0  0  0  0  0  0  0  0  0
   40.5910   34.2540   37.4820 H   0  0  0  0  0  0  0  0  0  0  0  0
   40.9950   31.5600   42.2050 O   0  0  0  0  0  0  0  0  0  0  0  0
   40.5440   30.3470   42.5290 C   0  0  0  0  0  0  0  0  0  0  0  0
   39.1820   30.1020   42.6860 C   0  0  0  0  0  0  0  0  0  0  0  0
   38.7760   28.8180   43.0220 C   0  0  0  0  0  0  0  0  0  0  0  0
   39.7200   27.8160   43.1920 N   0  0  0  0  0  0  0  0  0  0  0  0
   41.0200   28.0980   43.0300 C   0  0  0  0  0  0  0  0  0  0  0  0
   41.4370   29.3450   42.7020 N   0  0  0  0  0  0  0  0  0  0  0  0
   38.4350   30.8750   42.5570 H   0  0  0  0  0  0  0  0  0  0  0  0
   41.7420   27.3100   43.1650 H   0  0  0  0  0  0  0  0  0  0  0  0
   37.3090   28.5110   43.2120 C   0  0  0  0  0  0  0  0  0  0  0  0
   36.5140   28.1500   41.9790 C   0  0  0  0  0  0  0  0  0  0  0  0
   36.8460   27.1520   43.1010 C   0  0  0  0  0  0  0  0  0  0  0  0
   36.8020   29.3040   43.7990 H   0  0  0  0  0  0  0  0  0  0  0  0
   37.0470   28.0150   41.0210 H   0  0  0  0  0  0  0  0  0  0  0  0
   35.4590   28.4460   41.8830 H   0  0  0  0  0  0  0  0  0  0  0  0
   37.5680   26.3690   42.8180 H   0  0  0  0  0  0  0  0  0  0  0  0
   35.9980   26.8390   43.7580 H   0  0  0  0  0  0  0  0  0  0  0  0
   38.9840   32.8400   39.0380 O   0  0  0  0  0  0  0  0  0  0  0  0
   38.6360   31.1580   37.4550 C   0  0  1  0  0  3  0  0  0  0  0  0
   38.5000   31.5500   38.9180 C   0  0  2  0  0  3  0  0  0  0  0  0
   36.9910   31.6220   39.0350 C   0  0  0  0  0  3  0  0  0  0  0  0
   36.6470   32.6100   38.6530 H   0  0  0  0  0  0  0  0  0  0  0  0
   36.4710   30.6410   38.1970 O   0  0  0  0  0  0  0  0  0  0  0  0
   37.3430   30.4750   37.1370 C   0  0  0  0  0  3  0  0  0  0  0  0
   36.9110   30.7990   36.1690 H   0  0  0  0  0  0  0  0  0  0  0  0
   38.7370   32.2860   36.6550 O   0  0  0  0  0  0  0  0  0  0  0  0
   39.5690   32.7950   36.7990 H   0  0  0  0  0  0  0  0  0  0  0  0
  1  7  1  1  0  0  0
  1  2  1  0  0  0  0
  2  8  1  6  0  0  0
  2  3  1  0  0  0  0
  2 17  1  0  0  0  0
  4  9  1  0  0  0  0
  4  3  1  0  0  0  0
  5 11  1  1  0  0  0
  5  6  1  0  0  0  0
  5  4  1  0  0  0  0
  6  1  1  0  0  0  0
  6 12  1  1  0  0  0
 10  4  1  0  0  0  0
 13  1  1  0  0  0  0
 14 13  1  0  0  0  0
 15  5  1  0  0  0  0
 16 15  1  0  0  0  0
 17 18  1  0  0  0  0
 18 19  2  0  0  0  0
 18 23  1  0  0  0  0
 19 20  1  0  0  0  0
 20 21  2  0  0  0  0
 20 26  1  0  0  0  0
 22 25  1  0  0  0  0
 22 21  1  0  0  0  0
 23 22  2  0  0  0  0
 24 19  1  0  0  0  0
 26 29  1  0  0  0  0
 27 28  1  0  0  0  0
 27 26  1  0  0  0  0
 28 26  1  0  0  0  0
 28 33  1  0  0  0  0
 30 27  1  0  0  0  0
 31 27  1  0  0  0  0
 32 28  1  0  0  0  0
 34  6  1  0  0  0  0
 35 42  1  6  0  0  0
 35 36  1  0  0  0  0
 36 37  1  0  0  0  0
 36 34  1  6  0  0  0
 38 37  1  0  0  0  0
 39 37  1  0  0  0  0
 40 35  1  0  0  0  0
 40 39  1  0  0  0  0
 41 40  1  0  0  0  0
 42 43  1  0  0  0  0
M  END
>  <minimizedAffinity>
-5.86573982

$$$$

 OpenBabel03242523533D

 43 46  0  0  1  0  0  0  0  0999 V2000
   38.1750   32.2540   39.2500 C   0  0  1  0  0  0  0  0  0  0  0  0
   37.6130   30.8950   39.6690 C   0  0  1  0  0  0  0  0  0  0  0  0
   38.3100   29.8730   38.9950 O   0  0  0  0  0  0  0  0  0  0  0  0
   38.7070   30.2460   37.7070 C   0  0  0  0  0  0  0  0  0  0  0  0
   39.7870   31.3000   37.7510 C   0  0  2  0  0  0  0  0  0  0  0  0
   39.6690   32.0200   39.1040 C   0  0  1  0  0  0  0  0  0  0  0  0
   37.9430   32.9560   40.0670 H   0  0  0  0  0  0  0  0  0  0  0  0
   36.5420   30.8700   39.4390 H   0  0  0  0  0  0  0  0  0  0  0  0
   39.0810   29.3090   37.2450 H   0  0  0  0  0  0  0  0  0  0  0  0
   37.8380   30.5380   37.0570 H   0  0  0  0  0  0  0  0  0  0  0  0
   40.7980   30.8960   37.6080 H   0  0  0  0  0  0  0  0  0  0  0  0
   40.0470   31.2840   39.8410 H   0  0  0  0  0  0  0  0  0  0  0  0
   37.6320   32.6520   38.0290 O   0  0  0  0  0  0  0  0  0  0  0  0
   37.3710   33.5930   38.1480 H   0  0  0  0  0  0  0  0  0  0  0  0
   39.4690   32.2870   36.8030 O   0  0  0  0  0  0  0  0  0  0  0  0
   40.3010   32.6910   36.4980 H   0  0  0  0  0  0  0  0  0  0  0  0
   37.9570   30.7240   41.0100 O   0  0  0  0  0  0  0  0  0  0  0  0
   37.8840   29.5810   41.6950 C   0  0  0  0  0  0  0  0  0  0  0  0
   39.0090   29.0350   42.3090 C   0  0  0  0  0  0  0  0  0  0  0  0
   38.8670   27.8440   43.0080 C   0  0  0  0  0  0  0  0  0  0  0  0
   37.6260   27.2290   43.0820 N   0  0  0  0  0  0  0  0  0  0  0  0
   36.5720   27.7910   42.4760 C   0  0  0  0  0  0  0  0  0  0  0  0
   36.6890   28.9530   41.7880 N   0  0  0  0  0  0  0  0  0  0  0  0
   39.9830   29.5050   42.2580 H   0  0  0  0  0  0  0  0  0  0  0  0
   35.6150   27.3030   42.5420 H   0  0  0  0  0  0  0  0  0  0  0  0
   40.0630   27.2120   43.6800 C   0  0  0  0  0  0  0  0  0  0  0  0
   40.3020   25.7430   43.4230 C   0  0  0  0  0  0  0  0  0  0  0  0
   41.2170   26.8600   42.8940 C   0  0  0  0  0  0  0  0  0  0  0  0
   40.0850   27.4400   44.7650 H   0  0  0  0  0  0  0  0  0  0  0  0
   39.6730   25.2220   42.6800 H   0  0  0  0  0  0  0  0  0  0  0  0
   40.7230   25.0960   44.2080 H   0  0  0  0  0  0  0  0  0  0  0  0
   41.1770   27.0040   41.8020 H   0  0  0  0  0  0  0  0  0  0  0  0
   42.2200   26.9540   43.3770 H   0  0  0  0  0  0  0  0  0  0  0  0
   40.4110   33.1790   39.0950 O   0  0  0  0  0  0  0  0  0  0  0  0
   42.2660   34.1610   40.1180 C   0  0  1  0  0  3  0  0  0  0  0  0
   40.8960   33.5410   40.3390 C   0  0  2  0  0  3  0  0  0  0  0  0
   41.2930   32.2670   41.0570 C   0  0  0  0  0  3  0  0  0  0  0  0
   41.6040   31.5100   40.3010 H   0  0  0  0  0  0  0  0  0  0  0  0
   42.4050   32.5680   41.8360 O   0  0  0  0  0  0  0  0  0  0  0  0
   43.1140   33.5720   41.2020 C   0  0  0  0  0  3  0  0  0  0  0  0
   44.1060   33.2350   40.8380 H   0  0  0  0  0  0  0  0  0  0  0  0
   42.7900   33.7650   38.8970 O   0  0  0  0  0  0  0  0  0  0  0  0
   42.2900   34.1180   38.1230 H   0  0  0  0  0  0  0  0  0  0  0  0
  1  2  1  0  0  0  0
  1  7  1  1  0  0  0
  2  8  1  6  0  0  0
  2 17  1  0  0  0  0
  3  2  1  0  0  0  0
  4  5  1  0  0  0  0
  4  3  1  0  0  0  0
  5 11  1  6  0  0  0
  5  6  1  0  0  0  0
  6  1  1  0  0  0  0
  6 12  1  1  0  0  0
  9  4  1  0  0  0  0
 10  4  1  0  0  0  0
 13 14  1  0  0  0  0
 13  1  1  0  0  0  0
 15  5  1  0  0  0  0
 16 15  1  0  0  0  0
 17 18  1  0  0  0  0
 18 23  2  0  0  0  0
 18 19  1  0  0  0  0
 19 20  2  0  0  0  0
 20 21  1  0  0  0  0
 20 26  1  0  0  0  0
 22 25  1  0  0  0  0
 22 21  2  0  0  0  0
 23 22  1  0  0  0  0
 24 19  1  0  0  0  0
 26 29  1  0  0  0  0
 27 26  1  0  0  0  0
 27 31  1  0  0  0  0
 28 33  1  0  0  0  0
 28 27  1  0  0  0  0
 28 26  1  0  0  0  0
 30 27  1  0  0  0  0
 32 28  1  0  0  0  0
 34  6  1  0  0  0  0
 35 42  1  6  0  0  0
 35 36  1  0  0  0  0
 35 40  1  0  0  0  0
 36 34  1  6  0  0  0
 36 37  1  0  0  0  0
 37 39  1  0  0  0  0
 38 37  1  0  0  0  0
 40 39  1  0  0  0  0
 41 40  1  0  0  0  0
 43 42  1  0  0  0  0
M  END
>  <minimizedAffinity>
-5.78586292

$$$$

 OpenBabel03242523533D

 43 46  0  0  1  0  0  0  0  0999 V2000
   38.5790   30.3700   39.5520 C   0  0  1  0  0  0  0  0  0  0  0  0
   37.8690   30.7700   40.8450 C   0  0  1  0  0  0  0  0  0  0  0  0
   36.9130   31.7660   40.5650 O   0  0  0  0  0  0  0  0  0  0  0  0
   37.3120   32.6270   39.5370 C   0  0  0  0  0  0  0  0  0  0  0  0
   37.3310   31.9150   38.2060 C   0  0  2  0  0  0  0  0  0  0  0  0
   37.4920   30.4130   38.4910 C   0  0  1  0  0  0  0  0  0  0  0  0
   38.9660   29.3500   39.7070 H   0  0  0  0  0  0  0  0  0  0  0  0
   38.6170   31.1210   41.5650 H   0  0  0  0  0  0  0  0  0  0  0  0
   36.5600   33.4420   39.5450 H   0  0  0  0  0  0  0  0  0  0  0  0
   38.2790   33.1510   39.7670 H   0  0  0  0  0  0  0  0  0  0  0  0
   36.4390   32.1060   37.5950 H   0  0  0  0  0  0  0  0  0  0  0  0
   36.5070   30.1040   38.8940 H   0  0  0  0  0  0  0  0  0  0  0  0
   39.5840   31.2850   39.2430 O   0  0  0  0  0  0  0  0  0  0  0  0
   40.3720   30.7450   39.0060 H   0  0  0  0  0  0  0  0  0  0  0  0
   38.5170   32.2720   37.5410 O   0  0  0  0  0  0  0  0  0  0  0  0
   38.3530   32.2190   36.5830 H   0  0  0  0  0  0  0  0  0  0  0  0
   37.1130   29.6640   41.2370 O   0  0  0  0  0  0  0  0  0  0  0  0
   37.5830   28.5720   41.8430 C   0  0  0  0  0  0  0  0  0  0  0  0
   37.0130   27.3210   41.6200 C   0  0  0  0  0  0  0  0  0  0  0  0
   37.5490   26.2240   42.2800 C   0  0  0  0  0  0  0  0  0  0  0  0
   38.6270   26.3910   43.1370 N   0  0  0  0  0  0  0  0  0  0  0  0
   39.1430   27.6130   43.3220 C   0  0  0  0  0  0  0  0  0  0  0  0
   38.6340   28.6970   42.6870 N   0  0  0  0  0  0  0  0  0  0  0  0
   36.1720   27.1780   40.9540 H   0  0  0  0  0  0  0  0  0  0  0  0
   39.9790   27.7280   43.9890 H   0  0  0  0  0  0  0  0  0  0  0  0
   36.9550   24.8500   42.0740 C   0  0  0  0  0  0  0  0  0  0  0  0
   36.6380   24.4410   40.6560 C   0  0  0  0  0  0  0  0  0  0  0  0
   37.7590   23.8060   41.4940 C   0  0  0  0  0  0  0  0  0  0  0  0
   36.0890   24.6790   42.7460 H   0  0  0  0  0  0  0  0  0  0  0  0
   36.9500   25.1020   39.8270 H   0  0  0  0  0  0  0  0  0  0  0  0
   35.7700   23.8010   40.4350 H   0  0  0  0  0  0  0  0  0  0  0  0
   38.7790   24.0530   41.1540 H   0  0  0  0  0  0  0  0  0  0  0  0
   37.5870   22.7620   41.8500 H   0  0  0  0  0  0  0  0  0  0  0  0
   37.8200   29.7400   37.3370 O   0  0  0  0  0  0  0  0  0  0  0  0
   38.3500   27.7940   36.1600 C   0  0  1  0  0  3  0  0  0  0  0  0
   38.0790   28.3950   37.5290 C   0  0  2  0  0  3  0  0  0  0  0  0
   36.7610   27.7240   37.8590 C   0  0  0  0  0  3  0  0  0  0  0  0
   35.9380   28.2840   37.3600 H   0  0  0  0  0  0  0  0  0  0  0  0
   36.8040   26.4500   37.3040 O   0  0  0  0  0  0  0  0  0  0  0  0
   37.5960   26.5010   36.1720 C   0  0  0  0  0  3  0  0  0  0  0  0
   37.0250   26.3260   35.2380 H   0  0  0  0  0  0  0  0  0  0  0  0
   37.8170   28.5950   35.1610 O   0  0  0  0  0  0  0  0  0  0  0  0
   38.2640   29.4710   35.0820 H   0  0  0  0  0  0  0  0  0  0  0  0
  1  7  1  1  0  0  0
  1  2  1  0  0  0  0
  2 17  1  0  0  0  0
  2  8  1  1  0  0  0
  3  2  1  0  0  0  0
  4  9  1  0  0  0  0
  4 10  1  0  0  0  0
  4  3  1  0  0  0  0
  5 11  1  6  0  0  0
  5  6  1  0  0  0  0
  5  4  1  0  0  0  0
  6 12  1  1  0  0  0
  6  1  1  0  0  0  0
 13  1  1  0  0  0  0
 14 13  1  0  0  0  0
 15  5  1  0  0  0  0
 16 15  1  0  0  0  0
 17 18  1  0  0  0  0
 18 23  1  0  0  0  0
 19 18  2  0  0  0  0
 19 20  1  0  0  0  0
 20 21  2  0  0  0  0
 21 22  1  0  0  0  0
 22 25  1  0  0  0  0
 23 22  2  0  0  0  0
 24 19  1  0  0  0  0
 26 20  1  0  0  0  0
 26 29  1  0  0  0  0
 27 28  1  0  0  0  0
 27 26  1  0  0  0  0
 28 33  1  0  0  0  0
 28 26  1  0  0  0  0
 30 27  1  0  0  0  0
 31 27  1  0  0  0  0
 32 28  1  0  0  0  0
 34  6  1  0  0  0  0
 35 42  1  6  0  0  0
 35 40  1  0  0  0  0
 35 36  1  0  0  0  0
 36 34  1  6  0  0  0
 36 37  1  0  0  0  0
 38 37  1  0  0  0  0
 39 37  1  0  0  0  0
 40 39  1  0  0  0  0
 41 40  1  0  0  0  0
 43 42  1  0  0  0  0
M  END
>  <minimizedAffinity>
-5.74910355

$$$$

 OpenBabel03242523533D

 43 46  0  0  1  0  0  0  0  0999 V2000
   38.8430   31.5840   39.9340 C   0  0  1  0  0  0  0  0  0  0  0  0
   39.5890   32.3780   41.0060 C   0  0  1  0  0  0  0  0  0  0  0  0
   38.9660   33.6300   41.1790 O   0  0  0  0  0  0  0  0  0  0  0  0
   38.4300   34.1390   39.9920 C   0  0  0  0  0  0  0  0  0  0  0  0
   37.2420   33.3270   39.5370 C   0  0  2  0  0  0  0  0  0  0  0  0
   37.3790   31.9260   40.1560 C   0  0  1  0  0  0  0  0  0  0  0  0
   39.0530   30.5200   40.1260 H   0  0  0  0  0  0  0  0  0  0  0  0
   40.6360   32.4900   40.6980 H   0  0  0  0  0  0  0  0  0  0  0  0
   38.1340   35.1780   40.2400 H   0  0  0  0  0  0  0  0  0  0  0  0
   39.2070   34.2650   39.1900 H   0  0  0  0  0  0  0  0  0  0  0  0
   36.2760   33.7790   39.8000 H   0  0  0  0  0  0  0  0  0  0  0  0
   37.1470   32.0770   41.2290 H   0  0  0  0  0  0  0  0  0  0  0  0
   39.2400   31.9890   38.6600 O   0  0  0  0  0  0  0  0  0  0  0  0
   39.3980   31.1600   38.1550 H   0  0  0  0  0  0  0  0  0  0  0  0
   37.3690   33.1090   38.1540 O   0  0  0  0  0  0  0  0  0  0  0  0
   36.4750   33.0140   37.7810 H   0  0  0  0  0  0  0  0  0  0  0  0
   39.3720   31.7110   42.2120 O   0  0  0  0  0  0  0  0  0  0  0  0
   39.7220   30.4520   42.4820 C   0  0  0  0  0  0  0  0  0  0  0  0
   38.7740   29.5070   42.8650 C   0  0  0  0  0  0  0  0  0  0  0  0
   39.2010   28.2130   43.1310 C   0  0  0  0  0  0  0  0  0  0  0  0
   40.5450   27.8900   43.0110 N   0  0  0  0  0  0  0  0  0  0  0  0
   41.4210   28.8320   42.6390 C   0  0  0  0  0  0  0  0  0  0  0  0
   41.0240   30.1020   42.3760 N   0  0  0  0  0  0  0  0  0  0  0  0
   37.7220   29.7470   42.9630 H   0  0  0  0  0  0  0  0  0  0  0  0
   42.4610   28.5670   42.5500 H   0  0  0  0  0  0  0  0  0  0  0  0
   38.2070   27.1590   43.5590 C   0  0  0  0  0  0  0  0  0  0  0  0
   36.7480   27.5460   43.5600 C   0  0  0  0  0  0  0  0  0  0  0  0
   37.3600   26.5370   42.5750 C   0  0  0  0  0  0  0  0  0  0  0  0
   38.5010   26.6940   44.5230 H   0  0  0  0  0  0  0  0  0  0  0  0
   36.4560   28.5280   43.1480 H   0  0  0  0  0  0  0  0  0  0  0  0
   36.0570   27.1380   44.3130 H   0  0  0  0  0  0  0  0  0  0  0  0
   37.4140   26.8910   41.5320 H   0  0  0  0  0  0  0  0  0  0  0  0
   37.0910   25.4640   42.7270 H   0  0  0  0  0  0  0  0  0  0  0  0
   36.5090   31.0490   39.5520 O   0  0  0  0  0  0  0  0  0  0  0  0
   36.9170   29.1410   38.2680 C   0  0  1  0  0  3  0  0  0  0  0  0
   36.8800   29.7220   39.6720 C   0  0  2  0  0  3  0  0  0  0  0  0
   35.6940   28.9710   40.2400 C   0  0  0  0  0  3  0  0  0  0  0  0
   34.7570   29.4800   39.9180 H   0  0  0  0  0  0  0  0  0  0  0  0
   35.7040   27.7030   39.6700 O   0  0  0  0  0  0  0  0  0  0  0  0
   36.2580   27.8040   38.4080 C   0  0  0  0  0  3  0  0  0  0  0  0
   35.5290   27.5970   37.5990 H   0  0  0  0  0  0  0  0  0  0  0  0
   36.1540   29.9100   37.4020 O   0  0  0  0  0  0  0  0  0  0  0  0
   36.5250   30.8110   37.2500 H   0  0  0  0  0  0  0  0  0  0  0  0
  1  7  1  1  0  0  0
  1  6  1  0  0  0  0
  1  2  1  0  0  0  0
  2  8  1  6  0  0  0
  2  3  1  0  0  0  0
  2 17  1  0  0  0  0
  4  9  1  0  0  0  0
  4  3  1  0  0  0  0
  5 11  1  1  0  0  0
  5  4  1  0  0  0  0
  5  6  1  0  0  0  0
  6 12  1  1  0  0  0
 10  4  1  0  0  0  0
 13  1  1  0  0  0  0
 14 13  1  0  0  0  0
 15  5  1  0  0  0  0
 16 15  1  0  0  0  0
 17 18  1  0  0  0  0
 18 19  1  0  0  0  0
 19 24  1  0  0  0  0
 19 20  2  0  0  0  0
 20 26  1  0  0  0  0
 21 20  1  0  0  0  0
 22 21  2  0  0  0  0
 23 18  2  0  0  0  0
 23 22  1  0  0  0  0
 25 22  1  0  0  0  0
 26 27  1  0  0  0  0
 26 29  1  0  0  0  0
 27 31  1  0  0  0  0
 28 33  1  0  0  0  0
 28 26  1  0  0  0  0
 28 27  1  0  0  0  0
 30 27  1  0  0  0  0
 32 28  1  0  0  0  0
 34  6  1  0  0  0  0
 35 42  1  6  0  0  0
 35 40  1  0  0  0  0
 35 36  1  0  0  0  0
 36 34  1  6  0  0  0
 36 37  1  0  0  0  0
 38 37  1  0  0  0  0
 39 37  1  0  0  0  0
 40 39  1  0  0  0  0
 41 40  1  0  0  0  0
 43 42  1  0  0  0  0
M  END
>  <minimizedAffinity>
-5.73921204

$$$$

 OpenBabel03242523533D

 43 46  0  0  1  0  0  0  0  0999 V2000
   37.6870   29.1310   41.9900 C   0  0  1  0  0  0  0  0  0  0  0  0
   37.3650   27.7080   41.5340 C   0  0  1  0  0  0  0  0  0  0  0  0
   36.4180   27.7530   40.4930 O   0  0  0  0  0  0  0  0  0  0  0  0
   35.5080   28.8060   40.6320 C   0  0  0  0  0  0  0  0  0  0  0  0
   36.1800   30.1410   40.4190 C   0  0  2  0  0  0  0  0  0  0  0  0
   37.6780   29.9520   40.7110 C   0  0  1  0  0  0  0  0  0  0  0  0
   38.6870   29.0960   42.4520 H   0  0  0  0  0  0  0  0  0  0  0  0
   36.9900   27.1390   42.3930 H   0  0  0  0  0  0  0  0  0  0  0  0
   34.7390   28.6170   39.8550 H   0  0  0  0  0  0  0  0  0  0  0  0
   34.9350   28.7540   41.5970 H   0  0  0  0  0  0  0  0  0  0  0  0
   36.0260   30.5540   39.4140 H   0  0  0  0  0  0  0  0  0  0  0  0
   38.0550   29.3730   39.8450 H   0  0  0  0  0  0  0  0  0  0  0  0
   36.7070   29.5990   42.8640 O   0  0  0  0  0  0  0  0  0  0  0  0
   37.1940   30.0080   43.6150 H   0  0  0  0  0  0  0  0  0  0  0  0
   35.7370   31.0150   41.4270 O   0  0  0  0  0  0  0  0  0  0  0  0
   35.7740   31.9220   41.0760 H   0  0  0  0  0  0  0  0  0  0  0  0
   38.5230   27.2160   40.9310 O   0  0  0  0  0  0  0  0  0  0  0  0
   39.4710   26.4960   41.5330 C   0  0  0  0  0  0  0  0  0  0  0  0
   40.8090   26.6110   41.1610 C   0  0  0  0  0  0  0  0  0  0  0  0
   41.7480   25.8350   41.8270 C   0  0  0  0  0  0  0  0  0  0  0  0
   41.3430   24.9720   42.8350 N   0  0  0  0  0  0  0  0  0  0  0  0
   40.0460   24.8940   43.1580 C   0  0  0  0  0  0  0  0  0  0  0  0
   39.1130   25.6440   42.5200 N   0  0  0  0  0  0  0  0  0  0  0  0
   41.1370   27.2800   40.3760 H   0  0  0  0  0  0  0  0  0  0  0  0
   39.7460   24.2210   43.9420 H   0  0  0  0  0  0  0  0  0  0  0  0
   43.2080   25.9210   41.4490 C   0  0  0  0  0  0  0  0  0  0  0  0
   43.9730   27.1350   41.9220 C   0  0  0  0  0  0  0  0  0  0  0  0
   44.2170   25.7130   42.4550 C   0  0  0  0  0  0  0  0  0  0  0  0
   43.3570   25.7500   40.3640 H   0  0  0  0  0  0  0  0  0  0  0  0
   43.4770   27.8440   42.6070 H   0  0  0  0  0  0  0  0  0  0  0  0
   44.7740   27.5710   41.3060 H   0  0  0  0  0  0  0  0  0  0  0  0
   43.8980   25.5560   43.4990 H   0  0  0  0  0  0  0  0  0  0  0  0
   45.1680   25.2190   42.1410 H   0  0  0  0  0  0  0  0  0  0  0  0
   38.2990   31.1730   40.8340 O   0  0  0  0  0  0  0  0  0  0  0  0
   40.5860   31.6420   40.8070 C   0  0  1  0  0  3  0  0  0  0  0  0
   39.3570   31.3520   39.9610 C   0  0  2  0  0  3  0  0  0  0  0  0
   39.1690   32.6990   39.2940 C   0  0  0  0  0  3  0  0  0  0  0  0
   38.6280   33.3750   39.9940 H   0  0  0  0  0  0  0  0  0  0  0  0
   40.4370   33.2310   39.0870 O   0  0  0  0  0  0  0  0  0  0  0  0
   41.2670   32.7670   40.0900 C   0  0  0  0  0  3  0  0  0  0  0  0
   41.6070   33.5700   40.7750 H   0  0  0  0  0  0  0  0  0  0  0  0
   40.2180   32.0920   42.0660 O   0  0  0  0  0  0  0  0  0  0  0  0
   39.7650   31.4050   42.6090 H   0  0  0  0  0  0  0  0  0  0  0  0
  1  7  1  1  0  0  0
  1 13  1  0  0  0  0
  2  1  1  0  0  0  0
  2  8  1  1  0  0  0
  3  4  1  0  0  0  0
  3  2  1  0  0  0  0
  4 10  1  0  0  0  0
  5 11  1  6  0  0  0
  5  4  1  0  0  0  0
  5  6  1  0  0  0  0
  5 15  1  0  0  0  0
  6 12  1  6  0  0  0
  6 34  1  0  0  0  0
  6  1  1  0  0  0  0
  9  4  1  0  0  0  0
 13 14  1  0  0  0  0
 16 15  1  0  0  0  0
 17 18  1  0  0  0  0
 17  2  1  0  0  0  0
 18 23  1  0  0  0  0
 19 18  2  0  0  0  0
 19 20  1  0  0  0  0
 20 21  2  0  0  0  0
 21 22  1  0  0  0  0
 22 25  1  0  0  0  0
 23 22  2  0  0  0  0
 24 19  1  0  0  0  0
 26 20  1  0  0  0  0
 26 27  1  0  0  0  0
 26 28  1  0  0  0  0
 27 28  1  0  0  0  0
 27 30  1  0  0  0  0
 28 32  1  0  0  0  0
 29 26  1  0  0  0  0
 31 27  1  0  0  0  0
 33 28  1  0  0  0  0
 35 42  1  1  0  0  0
 36 35  1  0  0  0  0
 36 34  1  1  0  0  0
 37 36  1  0  0  0  0
 37 38  1  0  0  0  0
 39 37  1  0  0  0  0
 39 40  1  0  0  0  0
 40 41  1  0  0  0  0
 40 35  1  0  0  0  0
 42 43  1  0  0  0  0
M  END
>  <minimizedAffinity>
-5.63163233

$$$$
