REMARK  Name = 
REMARK  8 active torsions:
REMARK  status: ('A' for Active; 'I' for Inactive)
REMARK    1  A    between atoms: C_1  and  C_8
REMARK    2  A    between atoms: C_4  and  C_12
REMARK    3  A    between atoms: C_14  and  O_15
REMARK    4  A    between atoms: O_15  and  P_17
REMARK    5  A    between atoms: P_17  and  O_18
REMARK    6  A    between atoms: P_17  and  O_19
REMARK    7  A    between atoms: O_19  and  C_38
REMARK    8  A    between atoms: O_36  and  C_37
REMARK                            x       y       z     vdW  Elec       q    Type
REMARK                         _______ _______ _______ _____ _____    ______ ____
ROOT
ATOM      1  C   UNL     1      47.059  34.807  41.956  0.00  0.00    +0.000 C 
ATOM      2  C   UNL     1      46.301  34.183  40.783  0.00  0.00    +0.000 C 
ATOM      3  C   UNL     1      47.507  34.006  39.834  0.00  0.00    +0.000 C 
ATOM      4  C   UNL     1      48.647  33.632  40.728  0.00  0.00    +0.000 C 
ATOM      5  C   UNL     1      48.137  33.774  42.132  0.00  0.00    +0.000 C 
ATOM      6  H   UNL     1      47.491  35.760  41.614  0.00  0.00    +0.000 HD
ATOM      7  H   UNL     1      45.901  33.214  41.079  0.00  0.00    +0.000 HD
ATOM      8  H   UNL     1      45.590  34.906  40.382  0.00  0.00    +0.000 HD
ATOM      9  H   UNL     1      47.299  33.284  39.043  0.00  0.00    +0.000 HD
ATOM     10  H   UNL     1      47.676  35.026  39.397  0.00  0.00    +0.000 HD
ATOM     11  H   UNL     1      49.540  34.275  40.549  0.00  0.00    +0.000 HD
ATOM     12  H   UNL     1      47.770  32.848  42.575  0.00  0.00    +0.000 HD
ATOM     13  H   UNL     1      48.965  34.242  42.730  0.00  0.00    +0.000 HD
ENDROOT
BRANCH   1  16
ATOM     14  C   UNL     1      44.546  35.992  44.499  0.00  0.00    +0.000 A 
ATOM     15  C   UNL     1      45.285  35.971  43.316  0.00  0.00    +0.000 A 
ATOM     16  C   UNL     1      46.193  34.932  43.159  0.00  0.00    +0.000 A 
ATOM     17  N   UNL     1      46.342  33.959  44.160  0.00  0.00    +0.000 NA
ATOM     18  C   UNL     1      45.593  34.036  45.289  0.00  0.00    +0.000 A 
ATOM     19  N   UNL     1      44.702  35.046  45.456  0.00  0.00    +0.000 NA
ATOM     20  H   UNL     1      43.836  36.797  44.632  0.00  0.00    +0.000 HD
ATOM     21  H   UNL     1      45.186  36.710  42.532  0.00  0.00    +0.000 HD
ATOM     22  H   UNL     1      45.790  33.236  45.990  0.00  0.00    +0.000 HD
ENDBRANCH   1  16
BRANCH   4  23
ATOM     23  C   UNL     1      49.130  32.207  40.570  0.00  0.00    +0.000 C 
ATOM     24  C   UNL     1      49.775  31.623  41.739  0.00  0.00    +0.000 C 
ATOM     25  C   UNL     1      50.556  31.884  40.493  0.00  0.00    +0.000 C 
ATOM     26  H   UNL     1      48.439  31.574  39.986  0.00  0.00    +0.000 HD
ATOM     27  H   UNL     1      50.057  32.246  42.637  0.00  0.00    +0.000 HD
ATOM     28  H   UNL     1      49.532  30.588  42.038  0.00  0.00    +0.000 HD
ATOM     29  H   UNL     1      51.264  32.723  40.403  0.00  0.00    +0.000 HD
BRANCH  25  30
ATOM     30  O   UNL     1      50.925  30.763  39.710  0.00  0.00    +0.000 OA
BRANCH  30  32
ATOM     31  O   UNL     1      52.029  30.204  37.416  0.00  0.00    +0.000 OA
ATOM     32  P   UNL     1      51.877  31.307  38.435  0.00  0.00    +0.000 P 
BRANCH  32  33
ATOM     33  O   UNL     1      51.107  32.624  37.652  0.00  0.00    +0.000 OA
ATOM     34  H   UNL     1      50.335  32.230  37.169  0.00  0.00    +0.000 HD
ENDBRANCH  32  33
BRANCH  32  35
ATOM     35  O   UNL     1      53.392  31.829  38.874  0.00  0.00    +0.000 OA
BRANCH  35  37
ATOM     36  C   UNL     1      53.094  29.847  40.210  0.00  0.00    +0.000 C 
ATOM     37  C   UNL     1      54.061  30.804  39.501  0.00  0.00    +0.000 C 
ATOM     38  C   UNL     1      54.716  29.825  38.554  0.00  0.00    +0.000 C 
ATOM     39  H   UNL     1      54.020  29.619  37.693  0.00  0.00    +0.000 HD
ATOM     40  O   UNL     1      54.825  28.624  39.239  0.00  0.00    +0.000 OA
ATOM     41  C   UNL     1      54.013  28.657  40.351  0.00  0.00    +0.000 C 
ATOM     42  H   UNL     1      53.498  27.727  40.593  0.00  0.00    +0.000 HD
BRANCH  36  43
ATOM     43  O   UNL     1      52.708  30.357  41.446  0.00  0.00    +0.000 OA
ATOM     44  H   UNL     1      51.806  30.749  41.331  0.00  0.00    +0.000 HD
ENDBRANCH  36  43
ENDBRANCH  35  37
ENDBRANCH  32  35
ENDBRANCH  30  32
ENDBRANCH  25  30
ENDBRANCH   4  23
TORSDOF 8
