
 OpenBabel03252506123D

 36 38  0  0  1  0  0  0  0  0999 V2000
   45.0580   33.4580   41.1400 F   0  0  0  0  0  0  0  0  0  0  0  0
   46.2520   34.0050   40.9950 C   0  0  0  0  0  0  0  0  0  0  0  0
   46.7770   34.7690   42.0180 C   0  0  0  0  0  0  0  0  0  0  0  0
   48.0330   35.3850   41.9520 C   0  0  0  0  0  0  0  0  0  0  0  0
   48.8060   35.2270   40.8020 C   0  0  0  0  0  0  0  0  0  0  0  0
   48.2480   34.4540   39.7980 C   0  0  0  0  0  0  0  0  0  0  0  0
   47.0300   33.8530   39.8520 C   0  0  0  0  0  0  0  0  0  0  0  0
   48.3750   35.9770   42.8100 H   0  0  0  0  0  0  0  0  0  0  0  0
   49.7500   35.7190   40.8120 H   0  0  0  0  0  0  0  0  0  0  0  0
   48.9570   34.4120   38.9760 H   0  0  0  0  0  0  0  0  0  0  0  0
   45.4360   34.2250   45.3880 C   0  0  0  0  0  0  0  0  0  0  0  0
   44.5850   35.3330   45.5520 C   0  0  0  0  0  0  0  0  0  0  0  0
   44.4740   36.2750   44.4910 C   0  0  0  0  0  0  0  0  0  0  0  0
   45.2160   36.0300   43.3680 N   0  0  0  0  0  0  0  0  0  0  0  0
   46.0100   34.9650   43.2530 C   0  0  0  0  0  0  0  0  0  0  0  0
   46.1180   34.0740   44.2540 N   0  0  0  0  0  0  0  0  0  0  0  0
   44.0060   35.5120   46.4460 H   0  0  0  0  0  0  0  0  0  0  0  0
   43.8320   37.1390   44.5750 H   0  0  0  0  0  0  0  0  0  0  0  0
   45.5320   33.3000   46.4570 N   0  0  0  0  0  0  0  0  0  0  0  0
   45.6080   32.2680   46.2870 H   0  0  0  0  0  0  0  0  0  0  0  0
   45.5290   33.6230   47.4500 H   0  0  0  0  0  0  0  0  0  0  0  0
   46.5840   33.1120   38.7920 O   0  0  0  0  0  0  0  0  0  0  0  0
   47.7830   34.5900   36.9530 O   0  0  0  0  0  0  0  0  0  0  0  0
   46.9410   33.3740   37.1610 P   0  0  2  0  0  0  0  0  0  0  0  0
   45.4440   33.5330   36.3250 O   0  0  0  0  0  0  0  0  0  0  0  0
   45.0980   32.6650   36.0380 H   0  0  0  0  0  0  0  0  0  0  0  0
   47.6740   32.0400   36.4600 O   0  0  0  0  0  0  0  0  0  0  0  0
   49.5740   31.0140   35.6160 C   0  0  1  0  0  3  0  0  0  0  0  0
   48.7520   32.2910   35.6670 C   0  0  1  0  0  3  0  0  0  0  0  0
   48.4820   32.4940   34.2250 C   0  0  0  0  0  3  0  0  0  0  0  0
   47.6730   33.2070   33.9920 H   0  0  0  0  0  0  0  0  0  0  0  0
   48.2820   31.2480   33.6740 O   0  0  0  0  0  0  0  0  0  0  0  0
   48.9610   30.3220   34.4270 C   0  0  0  0  0  3  0  0  0  0  0  0
   49.7330   29.8780   33.7560 H   0  0  0  0  0  0  0  0  0  0  0  0
   50.8970   31.3000   35.2830 O   0  0  0  0  0  0  0  0  0  0  0  0
   51.5180   30.5970   35.5380 H   0  0  0  0  0  0  0  0  0  0  0  0
  2  1  1  0  0  0  0
  2  3  1  0  0  0  0
  3 15  1  0  0  0  0
  4  3  2  0  0  0  0
  4  8  1  0  0  0  0
  5  9  1  0  0  0  0
  5  4  1  0  0  0  0
  6  7  1  0  0  0  0
  6  5  2  0  0  0  0
  7  2  2  0  0  0  0
 10  6  1  0  0  0  0
 11 12  1  0  0  0  0
 11 19  1  0  0  0  0
 12 17  1  0  0  0  0
 13 18  1  0  0  0  0
 13 12  2  0  0  0  0
 14 13  1  0  0  0  0
 15 14  2  0  0  0  0
 15 16  1  0  0  0  0
 16 11  2  0  0  0  0
 19 21  1  0  0  0  0
 20 19  1  0  0  0  0
 22  7  1  0  0  0  0
 24 23  2  6  0  0  0
 24 22  1  0  0  0  0
 25 24  1  0  0  0  0
 26 25  1  0  0  0  0
 27 24  1  0  0  0  0
 28 35  1  6  0  0  0
 28 29  1  0  0  0  0
 29 27  1  1  0  0  0
 30 29  1  0  0  0  0
 31 30  1  0  0  0  0
 32 30  1  0  0  0  0
 32 33  1  0  0  0  0
 33 28  1  0  0  0  0
 34 33  1  0  0  0  0
 35 36  1  0  0  0  0
M  END
>  <minimizedAffinity>
-6.5408287

>  <minimizedRMSD>
0.62312448

$$$$
