
 OpenBabel03252507543D

 44 47  0  0  1  0  0  0  0  0999 V2000
   47.0020   34.8980   42.1210 C   0  0  2  0  0  0  0  0  0  0  0  0
   46.2570   34.2670   40.9430 C   0  0  0  0  0  0  0  0  0  0  0  0
   47.4590   34.1550   39.9800 C   0  0  0  0  0  0  0  0  0  0  0  0
   48.6220   33.8090   40.8560 C   0  0  1  0  0  0  0  0  0  0  0  0
   48.1210   33.9050   42.2670 C   0  0  0  0  0  0  0  0  0  0  0  0
   47.3930   35.8740   41.7930 H   0  0  0  0  0  0  0  0  0  0  0  0
   45.8980   33.2780   41.2250 H   0  0  0  0  0  0  0  0  0  0  0  0
   45.5140   34.9690   40.5630 H   0  0  0  0  0  0  0  0  0  0  0  0
   47.2710   33.4400   39.1770 H   0  0  0  0  0  0  0  0  0  0  0  0
   47.5840   35.1890   39.5610 H   0  0  0  0  0  0  0  0  0  0  0  0
   49.4870   34.4900   40.6810 H   0  0  0  0  0  0  0  0  0  0  0  0
   47.7950   32.9580   42.6960 H   0  0  0  0  0  0  0  0  0  0  0  0
   48.9360   34.3940   42.8660 H   0  0  0  0  0  0  0  0  0  0  0  0
   44.4770   35.9420   44.7140 C   0  0  0  0  0  0  0  0  0  0  0  0
   45.2050   35.9720   43.5240 C   0  0  0  0  0  0  0  0  0  0  0  0
   46.1440   34.9670   43.3340 C   0  0  0  0  0  0  0  0  0  0  0  0
   46.3330   33.9760   44.3100 N   0  0  0  0  0  0  0  0  0  0  0  0
   45.5930   34.0020   45.4470 C   0  0  0  0  0  0  0  0  0  0  0  0
   44.6720   34.9780   45.6460 N   0  0  0  0  0  0  0  0  0  0  0  0
   43.7430   36.7200   44.8720 H   0  0  0  0  0  0  0  0  0  0  0  0
   45.0750   36.7260   42.7590 H   0  0  0  0  0  0  0  0  0  0  0  0
   45.8220   33.1920   46.1270 H   0  0  0  0  0  0  0  0  0  0  0  0
   49.1590   32.4080   40.6660 C   0  0  2  0  0  0  0  0  0  0  0  0
   50.2060   31.9990   41.5940 C   0  0  0  0  0  0  0  0  0  0  0  0
   50.5030   32.1650   40.1390 C   0  0  1  0  0  0  0  0  0  0  0  0
   48.3770   31.6720   40.4070 H   0  0  0  0  0  0  0  0  0  0  0  0
   50.7090   32.7360   42.2860 H   0  0  0  0  0  0  0  0  0  0  0  0
   50.1750   30.9920   42.0450 H   0  0  0  0  0  0  0  0  0  0  0  0
   51.0580   33.0300   39.7430 H   0  0  0  0  0  0  0  0  0  0  0  0
   50.6970   30.9880   39.3770 O   0  0  0  0  0  0  0  0  0  0  0  0
   49.8300   30.5440   36.9590 O   0  0  0  0  0  0  0  0  0  0  0  0
   50.7660   31.4220   37.7540 P   0  0  1  0  0  0  0  0  0  0  0  0
   50.2360   33.0410   37.5590 O   0  0  0  0  0  0  0  0  0  0  0  0
   49.2570   33.0200   37.7180 H   0  0  0  0  0  0  0  0  0  0  0  0
   52.2790   31.3270   37.0740 O   0  0  0  0  0  0  0  0  0  0  0  0
   53.1730   29.1540   37.6000 C   0  0  1  0  0  3  0  0  0  0  0  0
   53.1180   30.6510   37.9280 C   0  0  1  0  0  3  0  0  0  0  0  0
   54.5810   30.9890   37.7510 C   0  0  0  0  0  3  0  0  0  0  0  0
   54.8150   31.0650   36.6510 H   0  0  0  0  0  0  0  0  0  0  0  0
   55.2980   29.8930   38.2070 O   0  0  0  0  0  0  0  0  0  0  0  0
   54.4560   28.8090   38.3170 C   0  0  0  0  0  3  0  0  0  0  0  0
   54.8790   27.8460   38.0290 H   0  0  0  0  0  0  0  0  0  0  0  0
   52.0770   28.4870   38.1410 O   0  0  0  0  0  0  0  0  0  0  0  0
   51.4290   28.3460   37.4050 H   0  0  0  0  0  0  0  0  0  0  0  0
  1  6  1  6  0  0  0
  1  5  1  0  0  0  0
  1 16  1  0  0  0  0
  2  7  1  0  0  0  0
  2  1  1  0  0  0  0
  3  4  1  0  0  0  0
  3  2  1  0  0  0  0
  4 11  1  6  0  0  0
  4  5  1  0  0  0  0
  5 12  1  0  0  0  0
  5 13  1  0  0  0  0
  8  2  1  0  0  0  0
  9  3  1  0  0  0  0
 10  3  1  0  0  0  0
 14 20  1  0  0  0  0
 14 19  1  0  0  0  0
 15 14  2  0  0  0  0
 16 15  1  0  0  0  0
 16 17  2  0  0  0  0
 17 18  1  0  0  0  0
 18 19  2  0  0  0  0
 18 22  1  0  0  0  0
 21 15  1  0  0  0  0
 23 26  1  6  0  0  0
 23  4  1  0  0  0  0
 23 24  1  0  0  0  0
 24 28  1  0  0  0  0
 24 27  1  0  0  0  0
 25 29  1  6  0  0  0
 25 23  1  0  0  0  0
 25 24  1  0  0  0  0
 30 25  1  0  0  0  0
 32 31  2  6  0  0  0
 32 30  1  0  0  0  0
 33 34  1  0  0  0  0
 33 32  1  0  0  0  0
 35 32  1  0  0  0  0
 36 37  1  0  0  0  0
 36 43  1  1  0  0  0
 36 41  1  0  0  0  0
 37 35  1  6  0  0  0
 38 37  1  0  0  0  0
 38 40  1  0  0  0  0
 39 38  1  0  0  0  0
 40 41  1  0  0  0  0
 42 41  1  0  0  0  0
 44 43  1  0  0  0  0
M  END
>  <minimizedAffinity>
-5.04929018

>  <minimizedRMSD>
1.0664314

$$$$
