
     RDKit          3D

 40 42  0  0  0  0  0  0  0  0999 V2000
   45.1399   33.5022   41.1559 F   0  0  0  0  0  0  0  0  0  0  0  0
   46.3227   34.0798   41.0463 C   0  0  0  0  0  0  0  0  0  0  0  0
   46.8280   34.7984   42.1111 C   0  0  0  0  0  0  0  0  0  0  0  0
   48.0711   35.4424   42.0849 C   0  0  0  0  0  0  0  0  0  0  0  0
   48.8523   35.3632   40.9309 C   0  0  0  0  0  0  0  0  0  0  0  0
   48.3135   34.6341   39.8844 C   0  0  0  0  0  0  0  0  0  0  0  0
   47.1084   34.0063   39.8995 C   0  0  0  0  0  0  0  0  0  0  0  0
   45.4527   34.0220   45.4217 C   0  0  0  0  0  0  0  0  0  0  0  0
   44.6134   35.1238   45.6595 C   0  0  0  0  0  0  0  0  0  0  0  0
   44.5200   36.1429   44.6713 C   0  0  0  0  0  0  0  0  0  0  0  0
   45.2687   35.9730   43.5390 N   0  0  0  0  0  0  0  0  0  0  0  0
   46.0535   34.9112   43.3524 C   0  0  0  0  0  0  0  0  0  0  0  0
   46.1428   33.9475   44.2851 N   0  0  0  0  0  0  0  0  0  0  0  0
   45.5298   33.0197   46.4198 N   0  0  0  0  0  0  0  0  0  0  0  0
   46.6815   33.3147   38.7988 O   0  0  0  0  0  0  0  0  0  0  0  0
   48.0848   34.6585   37.0017 O   0  0  0  0  0  0  0  0  0  0  0  0
   47.3487   33.3811   37.2489 P   0  0  2  0  0  0  0  0  0  0  0  0
   46.0580   33.2081   36.1230 O   0  0  0  0  0  0  0  0  0  0  0  0
   48.3514   32.0730   36.9437 O   0  0  0  0  0  0  0  0  0  0  0  0
   48.3976   35.9933   42.9753 H   0  0  0  0  0  0  0  0  0  0  0  0
   49.7852   35.8725   40.9725 H   0  0  0  0  0  0  0  0  0  0  0  0
   49.0255   34.6508   39.0647 H   0  0  0  0  0  0  0  0  0  0  0  0
   44.0277   35.2430   46.5607 H   0  0  0  0  0  0  0  0  0  0  0  0
   43.8872   37.0060   44.8139 H   0  0  0  0  0  0  0  0  0  0  0  0
   45.5969   32.0015   46.1755 H   0  0  0  0  0  0  0  0  0  0  0  0
   45.5218   33.2687   47.4335 H   0  0  0  0  0  0  0  0  0  0  0  0
   45.8740   32.2677   35.9282 H   0  0  0  0  0  0  0  0  0  0  0  0
   50.9077   31.3037   34.6643 O   0  0  0  0  0  0  0  0  0  0  0  0
   49.5865   31.4859   35.0716 C   0  0  1  0  0  0  0  0  0  0  0  0
   49.5307   32.3471   36.3226 C   0  0  1  0  0  0  0  0  0  0  0  0
   49.6716   33.6956   35.7281 C   0  0  1  0  0  0  0  0  0  0  0  0
   49.3937   34.5340   36.3877 H   0  0  0  0  0  0  0  0  0  0  0  0
   48.9731   33.6858   34.5414 O   0  0  0  0  0  0  0  0  0  0  0  0
   48.9379   32.3986   34.0647 C   0  0  1  0  0  0  0  0  0  0  0  0
   49.4872   32.4084   33.0936 H   0  0  0  0  0  0  0  0  0  0  0  0
   51.0269   30.5323   34.0854 H   0  0  0  0  0  0  0  0  0  0  0  0
   49.0416   30.5288   35.1959 H   0  0  0  0  0  0  0  0  0  0  0  0
   50.3761   32.0341   36.9634 H   0  0  0  0  0  0  0  0  0  0  0  0
   50.7388   33.8539   35.4587 H   0  0  0  0  0  0  0  0  0  0  0  0
   47.8679   32.1441   33.8716 H   0  0  0  0  0  0  0  0  0  0  0  0
  2  1  1  0
  2  3  2  0
  3 12  1  0
  4  3  1  0
  5  4  2  0
  6  7  2  0
  6  5  1  0
  7  2  1  0
  8  9  2  0
  8 14  1  0
 10  9  1  0
 11 10  2  0
 12 11  1  0
 12 13  2  0
 13  8  1  0
 15  7  1  0
 16 17  2  0
 17 15  1  1
 18 17  1  0
 19 17  1  0
  4 20  1  0
  5 21  1  0
  6 22  1  0
  9 23  1  0
 10 24  1  0
 14 25  1  0
 14 26  1  0
 18 27  1  0
 28 29  1  0
 29 30  1  0
 30 31  1  0
 31 32  1  1
 31 33  1  0
 33 34  1  0
 34 35  1  6
 34 29  1  0
 28 36  1  0
 29 37  1  1
 30 38  1  1
 31 39  1  0
 34 40  1  0
 19 30  1  0
M  ISO  8  20  14  21  14  22  14  23  14  24  14  27   3  32  15  35  16
M  END
>  <DihAtoms>  (1) 
16,18,29,28

>  <DihDeg>  (1) 
115.61363987787148

$$$$
