
 OpenBabel03252505283D

 24 25  0  0  1  0  0  0  0  0999 V2000
   36.9690   28.8100   40.4420 O   0  0  0  0  0  0  0  0  0  0  0  0
   37.1290   30.0840   41.2850 P   0  0  1  0  0  0  0  0  0  0  0  0
   35.6970   30.9350   41.4130 O   0  0  0  0  0  0  0  0  0  0  0  0
   35.1040   30.6560   42.1380 H   0  0  0  0  0  0  0  0  0  0  0  0
   37.7130   29.6040   42.7880 O   0  0  0  0  0  0  0  0  0  0  0  0
   40.9510   28.1310   43.0040 C   0  0  0  0  0  0  0  0  0  0  0  0
   40.7140   26.8260   43.4490 C   0  0  0  0  0  0  0  0  0  0  0  0
   39.3710   26.4560   43.6790 C   0  0  0  0  0  0  0  0  0  0  0  0
   38.4100   27.3810   43.4560 N   0  0  0  0  0  0  0  0  0  0  0  0
   38.6710   28.6280   43.0290 C   0  0  0  0  0  0  0  0  0  0  0  0
   39.9360   29.0040   42.8030 N   0  0  0  0  0  0  0  0  0  0  0  0
   41.9940   28.4220   42.8240 H   0  0  0  0  0  0  0  0  0  0  0  0
   41.5040   26.1270   43.6120 H   0  0  0  0  0  0  0  0  0  0  0  0
   39.1240   25.4630   44.0230 H   0  0  0  0  0  0  0  0  0  0  0  0
   38.2610   31.0300   40.4560 O   0  0  0  0  0  0  0  0  0  0  0  0
   38.4490   33.3530   40.5130 C   0  0  1  0  0  3  0  0  0  0  0  0
   38.7570   32.0560   41.2320 C   0  0  2  0  0  3  0  0  0  0  0  0
   40.2750   32.0240   41.0120 C   0  0  0  0  0  3  0  0  0  0  0  0
   40.7050   32.8160   41.6840 H   0  0  0  0  0  0  0  0  0  0  0  0
   40.4460   32.4130   39.7120 O   0  0  0  0  0  0  0  0  0  0  0  0
   39.3510   33.1260   39.2940 C   0  0  0  0  0  3  0  0  0  0  0  0
   38.7650   32.4320   38.6450 H   0  0  0  0  0  0  0  0  0  0  0  0
   37.1110   33.3900   40.1840 O   0  0  0  0  0  0  0  0  0  0  0  0
   36.8370   34.3050   39.8920 H   0  0  0  0  0  0  0  0  0  0  0  0
  2  1  2  6  0  0  0
  2  3  1  0  0  0  0
  2  5  1  0  0  0  0
  3  4  1  0  0  0  0
  5 10  1  0  0  0  0
  6  7  1  0  0  0  0
  7 13  1  0  0  0  0
  7  8  2  0  0  0  0
  8 14  1  0  0  0  0
  9  8  1  0  0  0  0
 10  9  2  0  0  0  0
 11  6  2  0  0  0  0
 11 10  1  0  0  0  0
 12  6  1  0  0  0  0
 15  2  1  0  0  0  0
 16 23  1  6  0  0  0
 16 17  1  0  0  0  0
 17 15  1  6  0  0  0
 18 17  1  0  0  0  0
 18 19  1  0  0  0  0
 20 18  1  0  0  0  0
 21 20  1  0  0  0  0
 21 16  1  0  0  0  0
 22 21  1  0  0  0  0
 24 23  1  0  0  0  0
M  END
>  <minimizedAffinity>
-4.95343971

$$$$

 OpenBabel03252505283D

 24 25  0  0  1  0  0  0  0  0999 V2000
   37.1750   33.4280   39.2190 O   0  0  0  0  0  0  0  0  0  0  0  0
   37.9360   32.4770   40.1530 P   0  0  1  0  0  0  0  0  0  0  0  0
   38.7010   33.2950   41.3930 O   0  0  0  0  0  0  0  0  0  0  0  0
   38.1550   33.4660   42.1850 H   0  0  0  0  0  0  0  0  0  0  0  0
   36.8170   31.3610   40.7310 O   0  0  0  0  0  0  0  0  0  0  0  0
   38.5990   29.1800   42.9140 C   0  0  0  0  0  0  0  0  0  0  0  0
   37.8260   28.0140   42.9520 C   0  0  0  0  0  0  0  0  0  0  0  0
   36.6410   27.9980   42.1850 C   0  0  0  0  0  0  0  0  0  0  0  0
   36.3340   29.1040   41.4680 N   0  0  0  0  0  0  0  0  0  0  0  0
   37.0990   30.2090   41.4530 C   0  0  0  0  0  0  0  0  0  0  0  0
   38.2270   30.2490   42.1730 N   0  0  0  0  0  0  0  0  0  0  0  0
   39.5200   29.1950   43.5090 H   0  0  0  0  0  0  0  0  0  0  0  0
   38.1070   27.1630   43.5330 H   0  0  0  0  0  0  0  0  0  0  0  0
   36.0030   27.1280   42.1730 H   0  0  0  0  0  0  0  0  0  0  0  0
   39.1040   31.7340   39.1790 O   0  0  0  0  0  0  0  0  0  0  0  0
   40.5910   32.2870   37.4700 C   0  0  1  0  0  3  0  0  0  0  0  0
   40.1610   32.5730   38.8950 C   0  0  2  0  0  3  0  0  0  0  0  0
   41.3630   31.9610   39.6270 C   0  0  0  0  0  3  0  0  0  0  0  0
   42.2240   32.6640   39.4570 H   0  0  0  0  0  0  0  0  0  0  0  0
   41.6150   30.7920   38.9640 O   0  0  0  0  0  0  0  0  0  0  0  0
   41.0930   30.8560   37.6970 C   0  0  0  0  0  3  0  0  0  0  0  0
   40.1640   30.2380   37.7170 H   0  0  0  0  0  0  0  0  0  0  0  0
   39.4930   32.3380   36.6400 O   0  0  0  0  0  0  0  0  0  0  0  0
   39.7680   32.3540   35.6790 H   0  0  0  0  0  0  0  0  0  0  0  0
  2  1  2  6  0  0  0
  2  5  1  0  0  0  0
  2  3  1  0  0  0  0
  3  4  1  0  0  0  0
  5 10  1  0  0  0  0
  6  7  1  0  0  0  0
  6 12  1  0  0  0  0
  7 13  1  0  0  0  0
  8  7  2  0  0  0  0
  9  8  1  0  0  0  0
 10  9  2  0  0  0  0
 10 11  1  0  0  0  0
 11  6  2  0  0  0  0
 14  8  1  0  0  0  0
 15  2  1  0  0  0  0
 16 23  1  6  0  0  0
 16 21  1  0  0  0  0
 16 17  1  0  0  0  0
 17 15  1  1  0  0  0
 17 18  1  0  0  0  0
 19 18  1  0  0  0  0
 20 18  1  0  0  0  0
 21 22  1  0  0  0  0
 21 20  1  0  0  0  0
 24 23  1  0  0  0  0
M  END
>  <minimizedAffinity>
-4.81768847

$$$$

 OpenBabel03252505283D

 24 25  0  0  1  0  0  0  0  0999 V2000
   36.7860   31.2150   38.5930 O   0  0  0  0  0  0  0  0  0  0  0  0
   37.2170   31.8380   39.9280 P   0  0  1  0  0  0  0  0  0  0  0  0
   36.8350   33.4630   40.0150 O   0  0  0  0  0  0  0  0  0  0  0  0
   35.9330   33.6680   40.3300 H   0  0  0  0  0  0  0  0  0  0  0  0
   36.4690   30.9510   41.1460 O   0  0  0  0  0  0  0  0  0  0  0  0
   36.7800   27.4040   41.3060 C   0  0  0  0  0  0  0  0  0  0  0  0
   37.5680   27.1720   42.4390 C   0  0  0  0  0  0  0  0  0  0  0  0
   38.0020   28.3010   43.1670 C   0  0  0  0  0  0  0  0  0  0  0  0
   37.6290   29.5240   42.7240 N   0  0  0  0  0  0  0  0  0  0  0  0
   36.8710   29.7130   41.6310 C   0  0  0  0  0  0  0  0  0  0  0  0
   36.4480   28.6580   40.9230 N   0  0  0  0  0  0  0  0  0  0  0  0
   36.4410   26.5280   40.7380 H   0  0  0  0  0  0  0  0  0  0  0  0
   37.8390   26.1880   42.7530 H   0  0  0  0  0  0  0  0  0  0  0  0
   38.6120   28.1870   44.0500 H   0  0  0  0  0  0  0  0  0  0  0  0
   38.8990   31.6640   39.9810 O   0  0  0  0  0  0  0  0  0  0  0  0
   40.4350   33.3890   40.3060 C   0  0  1  0  0  3  0  0  0  0  0  0
   39.4750   32.4260   40.9760 C   0  0  2  0  0  3  0  0  0  0  0  0
   40.5020   31.5010   41.6420 C   0  0  0  0  0  3  0  0  0  0  0  0
   40.9410   32.0860   42.4970 H   0  0  0  0  0  0  0  0  0  0  0  0
   41.4710   31.3170   40.6950 O   0  0  0  0  0  0  0  0  0  0  0  0
   41.4340   32.3470   39.7890 C   0  0  0  0  0  3  0  0  0  0  0  0
   40.9490   31.9310   38.8730 H   0  0  0  0  0  0  0  0  0  0  0  0
   39.7850   34.0510   39.2880 O   0  0  0  0  0  0  0  0  0  0  0  0
   40.3240   34.8270   38.9610 H   0  0  0  0  0  0  0  0  0  0  0  0
  2  1  2  6  0  0  0
  2 15  1  0  0  0  0
  2  3  1  0  0  0  0
  2  5  1  0  0  0  0
  3  4  1  0  0  0  0
  5 10  1  0  0  0  0
  6  7  1  0  0  0  0
  7 13  1  0  0  0  0
  7  8  2  0  0  0  0
  8 14  1  0  0  0  0
  9  8  1  0  0  0  0
 10  9  2  0  0  0  0
 11  6  2  0  0  0  0
 11 10  1  0  0  0  0
 12  6  1  0  0  0  0
 16 23  1  6  0  0  0
 16 17  1  0  0  0  0
 17 15  1  6  0  0  0
 17 18  1  0  0  0  0
 18 19  1  0  0  0  0
 20 18  1  0  0  0  0
 21 16  1  0  0  0  0
 21 20  1  0  0  0  0
 22 21  1  0  0  0  0
 24 23  1  0  0  0  0
M  END
>  <minimizedAffinity>
-4.65991831

$$$$

 OpenBabel03252505283D

 24 25  0  0  1  0  0  0  0  0999 V2000
   37.2760   29.2820   40.1390 O   0  0  0  0  0  0  0  0  0  0  0  0
   37.1160   30.3680   41.2120 P   0  0  1  0  0  0  0  0  0  0  0  0
   35.5420   30.9190   41.3160 O   0  0  0  0  0  0  0  0  0  0  0  0
   34.9510   30.4040   41.8990 H   0  0  0  0  0  0  0  0  0  0  0  0
   37.6460   29.7020   42.6630 O   0  0  0  0  0  0  0  0  0  0  0  0
   38.7150   26.3210   43.0200 C   0  0  0  0  0  0  0  0  0  0  0  0
   40.1100   26.4020   43.1020 C   0  0  0  0  0  0  0  0  0  0  0  0
   40.6890   27.6870   43.0300 C   0  0  0  0  0  0  0  0  0  0  0  0
   39.8630   28.7490   42.8860 N   0  0  0  0  0  0  0  0  0  0  0  0
   38.5260   28.6380   42.8100 C   0  0  0  0  0  0  0  0  0  0  0  0
   37.9520   27.4300   42.8760 N   0  0  0  0  0  0  0  0  0  0  0  0
   38.2630   25.3240   43.0760 H   0  0  0  0  0  0  0  0  0  0  0  0
   40.7250   25.5360   43.2160 H   0  0  0  0  0  0  0  0  0  0  0  0
   41.7590   27.8140   43.0880 H   0  0  0  0  0  0  0  0  0  0  0  0
   38.1140   31.6400   40.7140 O   0  0  0  0  0  0  0  0  0  0  0  0
   40.4020   31.9020   41.0810 C   0  0  1  0  0  3  0  0  0  0  0  0
   39.3400   31.1990   40.2610 C   0  0  2  0  0  3  0  0  0  0  0  0
   39.5570   31.9270   38.9280 C   0  0  0  0  0  3  0  0  0  0  0  0
   40.5250   31.5350   38.5120 H   0  0  0  0  0  0  0  0  0  0  0  0
   39.7280   33.2390   39.2720 O   0  0  0  0  0  0  0  0  0  0  0  0
   40.1320   33.3260   40.5810 C   0  0  0  0  0  3  0  0  0  0  0  0
   39.2330   33.6530   41.1560 H   0  0  0  0  0  0  0  0  0  0  0  0
   40.1240   31.7490   42.4220 O   0  0  0  0  0  0  0  0  0  0  0  0
   40.9020   32.0240   42.9860 H   0  0  0  0  0  0  0  0  0  0  0  0
  2  1  2  6  0  0  0
  2  3  1  0  0  0  0
  2  5  1  0  0  0  0
  3  4  1  0  0  0  0
  5 10  1  0  0  0  0
  6 12  1  0  0  0  0
  6  7  1  0  0  0  0
  7 13  1  0  0  0  0
  8 14  1  0  0  0  0
  8  7  2  0  0  0  0
  9  8  1  0  0  0  0
 10 11  1  0  0  0  0
 10  9  2  0  0  0  0
 11  6  2  0  0  0  0
 15  2  1  0  0  0  0
 16 23  1  1  0  0  0
 17 15  1  1  0  0  0
 17 16  1  0  0  0  0
 18 20  1  0  0  0  0
 18 17  1  0  0  0  0
 19 18  1  0  0  0  0
 20 21  1  0  0  0  0
 21 16  1  0  0  0  0
 21 22  1  0  0  0  0
 23 24  1  0  0  0  0
M  END
>  <minimizedAffinity>
-4.53637457

$$$$

 OpenBabel03252505283D

 24 25  0  0  1  0  0  0  0  0999 V2000
   37.2270   29.2960   40.1300 O   0  0  0  0  0  0  0  0  0  0  0  0
   37.1050   30.3780   41.2130 P   0  0  1  0  0  0  0  0  0  0  0  0
   35.5410   30.9460   41.3580 O   0  0  0  0  0  0  0  0  0  0  0  0
   34.9590   30.4340   41.9530 H   0  0  0  0  0  0  0  0  0  0  0  0
   37.6630   29.6970   42.6470 O   0  0  0  0  0  0  0  0  0  0  0  0
   40.6080   27.7270   43.0270 C   0  0  0  0  0  0  0  0  0  0  0  0
   40.1490   26.4050   43.0260 C   0  0  0  0  0  0  0  0  0  0  0  0
   38.7580   26.2040   42.8880 C   0  0  0  0  0  0  0  0  0  0  0  0
   37.9680   27.2960   42.7660 N   0  0  0  0  0  0  0  0  0  0  0  0
   38.4410   28.5530   42.7700 C   0  0  0  0  0  0  0  0  0  0  0  0
   39.7560   28.7700   42.9010 N   0  0  0  0  0  0  0  0  0  0  0  0
   41.6880   27.8860   43.1340 H   0  0  0  0  0  0  0  0  0  0  0  0
   40.8090   25.5720   43.1250 H   0  0  0  0  0  0  0  0  0  0  0  0
   38.3420   25.2080   42.8800 H   0  0  0  0  0  0  0  0  0  0  0  0
   38.1060   31.6410   40.6990 O   0  0  0  0  0  0  0  0  0  0  0  0
   40.3930   31.8840   41.0810 C   0  0  1  0  0  3  0  0  0  0  0  0
   39.3310   31.1920   40.2520 C   0  0  2  0  0  3  0  0  0  0  0  0
   39.5630   31.9220   38.9220 C   0  0  0  0  0  3  0  0  0  0  0  0
   40.5300   31.5240   38.5110 H   0  0  0  0  0  0  0  0  0  0  0  0
   39.7420   33.2320   39.2720 O   0  0  0  0  0  0  0  0  0  0  0  0
   40.1370   33.3110   40.5830 C   0  0  0  0  0  3  0  0  0  0  0  0
   39.2370   33.6440   41.1530 H   0  0  0  0  0  0  0  0  0  0  0  0
   40.1050   31.7300   42.4190 O   0  0  0  0  0  0  0  0  0  0  0  0
   40.8810   31.9970   42.9890 H   0  0  0  0  0  0  0  0  0  0  0  0
  2  1  2  6  0  0  0
  2  3  1  0  0  0  0
  2  5  1  0  0  0  0
  3  4  1  0  0  0  0
  5 10  1  0  0  0  0
  6 12  1  0  0  0  0
  7  6  1  0  0  0  0
  7 13  1  0  0  0  0
  8  7  2  0  0  0  0
  9 10  2  0  0  0  0
  9  8  1  0  0  0  0
 10 11  1  0  0  0  0
 11  6  2  0  0  0  0
 14  8  1  0  0  0  0
 15  2  1  0  0  0  0
 16 23  1  1  0  0  0
 17 15  1  1  0  0  0
 17 16  1  0  0  0  0
 18 20  1  0  0  0  0
 18 17  1  0  0  0  0
 19 18  1  0  0  0  0
 20 21  1  0  0  0  0
 21 16  1  0  0  0  0
 21 22  1  0  0  0  0
 23 24  1  0  0  0  0
M  END
>  <minimizedAffinity>
-4.53502321

$$$$

 OpenBabel03252505283D

 24 25  0  0  1  0  0  0  0  0999 V2000
   37.6780   31.7140   38.3740 O   0  0  0  0  0  0  0  0  0  0  0  0
   37.6900   32.7630   39.4940 P   0  0  1  0  0  0  0  0  0  0  0  0
   36.8860   34.1600   39.0530 O   0  0  0  0  0  0  0  0  0  0  0  0
   35.9210   34.1590   39.2080 H   0  0  0  0  0  0  0  0  0  0  0  0
   36.9990   32.0410   40.8480 O   0  0  0  0  0  0  0  0  0  0  0  0
   35.5970   28.7640   40.8440 C   0  0  0  0  0  0  0  0  0  0  0  0
   36.5450   27.9770   41.5060 C   0  0  0  0  0  0  0  0  0  0  0  0
   37.7140   28.6210   41.9670 C   0  0  0  0  0  0  0  0  0  0  0  0
   37.8380   29.9500   41.7390 N   0  0  0  0  0  0  0  0  0  0  0  0
   36.9080   30.6780   41.1000 C   0  0  0  0  0  0  0  0  0  0  0  0
   35.7910   30.0900   40.6520 N   0  0  0  0  0  0  0  0  0  0  0  0
   34.6880   28.2660   40.4850 H   0  0  0  0  0  0  0  0  0  0  0  0
   36.4060   26.9300   41.6640 H   0  0  0  0  0  0  0  0  0  0  0  0
   38.4820   28.0680   42.4850 H   0  0  0  0  0  0  0  0  0  0  0  0
   39.3230   33.1240   39.7520 O   0  0  0  0  0  0  0  0  0  0  0  0
   40.8780   31.9440   41.0270 C   0  0  1  0  0  3  0  0  0  0  0  0
   40.1210   32.0000   39.7160 C   0  0  2  0  0  3  0  0  0  0  0  0
   41.2870   32.3680   38.7900 C   0  0  0  0  0  3  0  0  0  0  0  0
   41.9190   31.4430   38.7000 H   0  0  0  0  0  0  0  0  0  0  0  0
   41.9930   33.3150   39.4800 O   0  0  0  0  0  0  0  0  0  0  0  0
   41.7260   33.2050   40.8210 C   0  0  0  0  0  3  0  0  0  0  0  0
   41.0340   34.0450   41.0650 H   0  0  0  0  0  0  0  0  0  0  0  0
   39.9920   32.0660   42.0750 O   0  0  0  0  0  0  0  0  0  0  0  0
   40.4280   31.8350   42.9440 H   0  0  0  0  0  0  0  0  0  0  0  0
  2  1  2  6  0  0  0
  2 15  1  0  0  0  0
  2  5  1  0  0  0  0
  3  4  1  0  0  0  0
  3  2  1  0  0  0  0
  5 10  1  0  0  0  0
  6  7  1  0  0  0  0
  7 13  1  0  0  0  0
  7  8  2  0  0  0  0
  8 14  1  0  0  0  0
  9  8  1  0  0  0  0
 10  9  2  0  0  0  0
 11  6  2  0  0  0  0
 11 10  1  0  0  0  0
 12  6  1  0  0  0  0
 16 23  1  1  0  0  0
 17 15  1  1  0  0  0
 17 16  1  0  0  0  0
 18 20  1  0  0  0  0
 18 17  1  0  0  0  0
 19 18  1  0  0  0  0
 20 21  1  0  0  0  0
 21 16  1  0  0  0  0
 21 22  1  0  0  0  0
 23 24  1  0  0  0  0
M  END
>  <minimizedAffinity>
-4.39406538

$$$$

 OpenBabel03252505283D

 24 25  0  0  1  0  0  0  0  0999 V2000
   38.2510   31.0290   41.5760 O   0  0  0  0  0  0  0  0  0  0  0  0
   37.0640   30.2790   40.9540 P   0  0  1  0  0  0  0  0  0  0  0  0
   35.5970   30.8900   41.4680 O   0  0  0  0  0  0  0  0  0  0  0  0
   35.2510   31.6470   40.9560 H   0  0  0  0  0  0  0  0  0  0  0  0
   37.2400   30.3870   39.2840 O   0  0  0  0  0  0  0  0  0  0  0  0
   36.0680   29.4370   36.0550 C   0  0  0  0  0  0  0  0  0  0  0  0
   34.8030   28.8860   36.2900 C   0  0  0  0  0  0  0  0  0  0  0  0
   34.3510   28.8500   37.6270 C   0  0  0  0  0  0  0  0  0  0  0  0
   35.1660   29.3470   38.5860 N   0  0  0  0  0  0  0  0  0  0  0  0
   36.3760   29.8690   38.3270 C   0  0  0  0  0  0  0  0  0  0  0  0
   36.8280   29.9140   37.0680 N   0  0  0  0  0  0  0  0  0  0  0  0
   36.4210   29.4670   35.0170 H   0  0  0  0  0  0  0  0  0  0  0  0
   34.1920   28.5060   35.5010 H   0  0  0  0  0  0  0  0  0  0  0  0
   33.3840   28.4380   37.8710 H   0  0  0  0  0  0  0  0  0  0  0  0
   37.2150   28.6810   41.4880 O   0  0  0  0  0  0  0  0  0  0  0  0
   38.7290   27.8710   43.0660 C   0  0  1  0  0  3  0  0  0  0  0  0
   37.4190   28.5990   42.8500 C   0  0  2  0  0  3  0  0  0  0  0  0
   36.4610   27.5020   43.3310 C   0  0  0  0  0  3  0  0  0  0  0  0
   36.5680   27.4610   44.4500 H   0  0  0  0  0  0  0  0  0  0  0  0
   36.9630   26.3450   42.8010 O   0  0  0  0  0  0  0  0  0  0  0  0
   38.2940   26.5090   42.5110 C   0  0  0  0  0  3  0  0  0  0  0  0
   38.3520   26.6310   41.4030 H   0  0  0  0  0  0  0  0  0  0  0  0
   39.7150   28.4620   42.3060 O   0  0  0  0  0  0  0  0  0  0  0  0
   40.6210   28.1370   42.5740 H   0  0  0  0  0  0  0  0  0  0  0  0
  2  3  1  0  0  0  0
  2 15  1  0  0  0  0
  2  1  2  1  0  0  0
  4  3  1  0  0  0  0
  5  2  1  0  0  0  0
  6  7  2  0  0  0  0
  6 11  1  0  0  0  0
  7  8  1  0  0  0  0
  8 14  1  0  0  0  0
  8  9  2  0  0  0  0
 10  9  1  0  0  0  0
 10  5  1  0  0  0  0
 11 10  2  0  0  0  0
 12  6  1  0  0  0  0
 13  7  1  0  0  0  0
 16 23  1  6  0  0  0
 17 15  1  6  0  0  0
 17 16  1  0  0  0  0
 17 18  1  0  0  0  0
 18 19  1  0  0  0  0
 20 18  1  0  0  0  0
 21 20  1  0  0  0  0
 21 16  1  0  0  0  0
 22 21  1  0  0  0  0
 23 24  1  0  0  0  0
M  END
>  <minimizedAffinity>
-4.37516737

$$$$

 OpenBabel03252505283D

 24 25  0  0  1  0  0  0  0  0999 V2000
   40.4180   30.0700   37.8580 O   0  0  0  0  0  0  0  0  0  0  0  0
   40.0150   31.5310   38.0950 P   0  0  1  0  0  0  0  0  0  0  0  0
   39.5580   32.2940   36.6800 O   0  0  0  0  0  0  0  0  0  0  0  0
   38.6210   32.1860   36.4260 H   0  0  0  0  0  0  0  0  0  0  0  0
   38.7720   31.5160   39.2310 O   0  0  0  0  0  0  0  0  0  0  0  0
   35.8800   29.7800   40.3790 C   0  0  0  0  0  0  0  0  0  0  0  0
   35.2510   29.3360   39.2100 C   0  0  0  0  0  0  0  0  0  0  0  0
   35.8660   29.6590   37.9810 C   0  0  0  0  0  0  0  0  0  0  0  0
   37.0160   30.3720   38.0150 N   0  0  0  0  0  0  0  0  0  0  0  0
   37.5950   30.7840   39.1560 C   0  0  0  0  0  0  0  0  0  0  0  0
   37.0300   30.4910   40.3340 N   0  0  0  0  0  0  0  0  0  0  0  0
   35.4040   29.5300   41.3350 H   0  0  0  0  0  0  0  0  0  0  0  0
   34.3430   28.7750   39.2300 H   0  0  0  0  0  0  0  0  0  0  0  0
   35.4300   29.3440   37.0460 H   0  0  0  0  0  0  0  0  0  0  0  0
   41.4010   32.2850   38.7060 O   0  0  0  0  0  0  0  0  0  0  0  0
   42.4480   34.1610   37.8000 C   0  0  1  0  0  3  0  0  0  0  0  0
   41.3110   33.6610   38.6670 C   0  0  2  0  0  3  0  0  0  0  0  0
   41.8330   34.1330   40.0300 C   0  0  0  0  0  3  0  0  0  0  0  0
   41.7120   35.2510   40.0420 H   0  0  0  0  0  0  0  0  0  0  0  0
   43.1680   33.8380   40.0120 O   0  0  0  0  0  0  0  0  0  0  0  0
   43.6010   33.7300   38.7140 C   0  0  0  0  0  3  0  0  0  0  0  0
   43.7120   32.6360   38.5200 H   0  0  0  0  0  0  0  0  0  0  0  0
   42.4420   33.4860   36.6000 O   0  0  0  0  0  0  0  0  0  0  0  0
   43.0460   33.9260   35.9350 H   0  0  0  0  0  0  0  0  0  0  0  0
  2  1  2  6  0  0  0
  2 15  1  0  0  0  0
  2  5  1  0  0  0  0
  3  2  1  0  0  0  0
  4  3  1  0  0  0  0
  6 12  1  0  0  0  0
  7 13  1  0  0  0  0
  7  6  2  0  0  0  0
  8  9  2  0  0  0  0
  8  7  1  0  0  0  0
  9 10  1  0  0  0  0
 10  5  1  0  0  0  0
 10 11  2  0  0  0  0
 11  6  1  0  0  0  0
 14  8  1  0  0  0  0
 16 23  1  6  0  0  0
 16 17  1  0  0  0  0
 16 21  1  0  0  0  0
 17 15  1  1  0  0  0
 17 18  1  0  0  0  0
 18 19  1  0  0  0  0
 20 18  1  0  0  0  0
 21 20  1  0  0  0  0
 22 21  1  0  0  0  0
 24 23  1  0  0  0  0
M  END
>  <minimizedAffinity>
-4.36465979

$$$$

 OpenBabel03252505283D

 24 25  0  0  1  0  0  0  0  0999 V2000
   38.0000   30.1620   40.7510 O   0  0  0  0  0  0  0  0  0  0  0  0
   36.8380   31.0620   40.3090 P   0  0  1  0  0  0  0  0  0  0  0  0
   35.5720   31.0330   41.3990 O   0  0  0  0  0  0  0  0  0  0  0  0
   35.6400   31.6630   42.1420 H   0  0  0  0  0  0  0  0  0  0  0  0
   37.4660   32.6120   40.1160 O   0  0  0  0  0  0  0  0  0  0  0  0
   40.3750   32.4720   38.0620 C   0  0  0  0  0  0  0  0  0  0  0  0
   41.2320   33.4380   38.6010 C   0  0  0  0  0  0  0  0  0  0  0  0
   40.7680   34.1600   39.7230 C   0  0  0  0  0  0  0  0  0  0  0  0
   39.5350   33.8710   40.1980 N   0  0  0  0  0  0  0  0  0  0  0  0
   38.7360   32.9360   39.6570 C   0  0  0  0  0  0  0  0  0  0  0  0
   39.1520   32.2390   38.5920 N   0  0  0  0  0  0  0  0  0  0  0  0
   40.7320   31.9100   37.1900 H   0  0  0  0  0  0  0  0  0  0  0  0
   42.1980   33.6340   38.1930 H   0  0  0  0  0  0  0  0  0  0  0  0
   41.3830   34.9180   40.1840 H   0  0  0  0  0  0  0  0  0  0  0  0
   36.3110   30.4220   38.8340 O   0  0  0  0  0  0  0  0  0  0  0  0
   37.1850   29.3360   36.9640 C   0  0  1  0  0  3  0  0  0  0  0  0
   37.0170   29.2940   38.4690 C   0  0  2  0  0  3  0  0  0  0  0  0
   36.0060   28.1440   38.5580 C   0  0  0  0  0  3  0  0  0  0  0  0
   36.5770   27.2050   38.3220 H   0  0  0  0  0  0  0  0  0  0  0  0
   35.1190   28.3830   37.5450 O   0  0  0  0  0  0  0  0  0  0  0  0
   35.7050   29.1790   36.5940 C   0  0  0  0  0  3  0  0  0  0  0  0
   35.2750   30.1980   36.7420 H   0  0  0  0  0  0  0  0  0  0  0  0
   37.6980   30.5590   36.5920 O   0  0  0  0  0  0  0  0  0  0  0  0
   38.0050   30.5480   35.6410 H   0  0  0  0  0  0  0  0  0  0  0  0
  2  1  2  1  0  0  0
  2  3  1  0  0  0  0
  3  4  1  0  0  0  0
  5  2  1  0  0  0  0
  6 11  2  0  0  0  0
  6  7  1  0  0  0  0
  7  8  2  0  0  0  0
  8 14  1  0  0  0  0
  8  9  1  0  0  0  0
 10  5  1  0  0  0  0
 10  9  2  0  0  0  0
 11 10  1  0  0  0  0
 12  6  1  0  0  0  0
 13  7  1  0  0  0  0
 15  2  1  0  0  0  0
 16 23  1  1  0  0  0
 16 17  1  0  0  0  0
 17 18  1  0  0  0  0
 17 15  1  6  0  0  0
 19 18  1  0  0  0  0
 20 18  1  0  0  0  0
 21 22  1  0  0  0  0
 21 16  1  0  0  0  0
 21 20  1  0  0  0  0
 24 23  1  0  0  0  0
M  END
>  <minimizedAffinity>
-4.28420496

$$$$
