
 OpenBabel03252507543D

 44 47  0  0  1  0  0  0  0  0999 V2000
   47.0610   34.8140   42.1370 C   0  0  2  0  0  0  0  0  0  0  0  0
   46.2770   34.3430   40.9100 C   0  0  0  0  0  0  0  0  0  0  0  0
   47.4810   34.1530   39.9610 C   0  0  0  0  0  0  0  0  0  0  0  0
   48.5770   33.6250   40.8330 C   0  0  1  0  0  0  0  0  0  0  0  0
   48.0570   33.6930   42.2390 C   0  0  0  0  0  0  0  0  0  0  0  0
   47.5670   35.7560   41.8760 H   0  0  0  0  0  0  0  0  0  0  0  0
   45.8030   33.3860   41.1240 H   0  0  0  0  0  0  0  0  0  0  0  0
   45.6280   35.1470   40.5620 H   0  0  0  0  0  0  0  0  0  0  0  0
   47.2330   33.5130   39.1130 H   0  0  0  0  0  0  0  0  0  0  0  0
   47.7310   35.1890   39.6090 H   0  0  0  0  0  0  0  0  0  0  0  0
   49.5170   34.2110   40.7140 H   0  0  0  0  0  0  0  0  0  0  0  0
   47.6170   32.7640   42.6030 H   0  0  0  0  0  0  0  0  0  0  0  0
   48.9090   34.0480   42.8800 H   0  0  0  0  0  0  0  0  0  0  0  0
   44.5030   35.9080   44.6750 C   0  0  0  0  0  0  0  0  0  0  0  0
   45.2450   35.9140   43.4940 C   0  0  0  0  0  0  0  0  0  0  0  0
   46.1890   34.9070   43.3380 C   0  0  0  0  0  0  0  0  0  0  0  0
   46.3690   33.9390   44.3380 N   0  0  0  0  0  0  0  0  0  0  0  0
   45.6150   33.9880   45.4650 C   0  0  0  0  0  0  0  0  0  0  0  0
   44.6890   34.9670   45.6310 N   0  0  0  0  0  0  0  0  0  0  0  0
   43.7650   36.6870   44.8070 H   0  0  0  0  0  0  0  0  0  0  0  0
   45.1220   36.6500   42.7100 H   0  0  0  0  0  0  0  0  0  0  0  0
   45.8390   33.1950   46.1660 H   0  0  0  0  0  0  0  0  0  0  0  0
   48.9560   32.1850   40.5660 C   0  0  2  0  0  0  0  0  0  0  0  0
   49.6570   31.5030   41.6460 C   0  0  0  0  0  0  0  0  0  0  0  0
   50.3480   31.7840   40.3520 C   0  0  1  0  0  0  0  0  0  0  0  0
   48.1820   31.6250   40.0120 H   0  0  0  0  0  0  0  0  0  0  0  0
   50.0490   32.0590   42.5460 H   0  0  0  0  0  0  0  0  0  0  0  0
   49.3750   30.4690   41.9140 H   0  0  0  0  0  0  0  0  0  0  0  0
   51.0970   32.5850   40.2440 H   0  0  0  0  0  0  0  0  0  0  0  0
   50.5820   30.6880   39.4870 O   0  0  0  0  0  0  0  0  0  0  0  0
   51.8420   30.1050   37.2820 O   0  0  0  0  0  0  0  0  0  0  0  0
   51.7610   31.1400   38.3770 P   0  0  1  0  0  0  0  0  0  0  0  0
   51.3320   32.6290   37.6430 O   0  0  0  0  0  0  0  0  0  0  0  0
   50.5670   32.4190   37.0460 H   0  0  0  0  0  0  0  0  0  0  0  0
   53.2790   31.3420   39.0220 O   0  0  0  0  0  0  0  0  0  0  0  0
   55.1110   29.8310   38.6190 C   0  0  1  0  0  3  0  0  0  0  0  0
   53.7960   30.1140   39.3590 C   0  0  1  0  0  3  0  0  0  0  0  0
   54.2980   30.0240   40.7820 C   0  0  0  0  0  3  0  0  0  0  0  0
   54.8460   30.9730   41.0430 H   0  0  0  0  0  0  0  0  0  0  0  0
   55.2570   29.0230   40.8000 O   0  0  0  0  0  0  0  0  0  0  0  0
   55.6440   28.7350   39.5110 C   0  0  0  0  0  3  0  0  0  0  0  0
   56.7030   28.5240   39.3670 H   0  0  0  0  0  0  0  0  0  0  0  0
   54.8670   29.3800   37.3270 O   0  0  0  0  0  0  0  0  0  0  0  0
   55.0060   30.1490   36.7170 H   0  0  0  0  0  0  0  0  0  0  0  0
  1  6  1  6  0  0  0
  1  5  1  0  0  0  0
  1 16  1  0  0  0  0
  2  7  1  0  0  0  0
  2  1  1  0  0  0  0
  3  4  1  0  0  0  0
  3  2  1  0  0  0  0
  4 11  1  6  0  0  0
  4  5  1  0  0  0  0
  5 12  1  0  0  0  0
  5 13  1  0  0  0  0
  8  2  1  0  0  0  0
  9  3  1  0  0  0  0
 10  3  1  0  0  0  0
 14 20  1  0  0  0  0
 14 19  1  0  0  0  0
 15 14  2  0  0  0  0
 16 15  1  0  0  0  0
 16 17  2  0  0  0  0
 17 18  1  0  0  0  0
 18 19  2  0  0  0  0
 18 22  1  0  0  0  0
 21 15  1  0  0  0  0
 23 26  1  6  0  0  0
 23  4  1  0  0  0  0
 23 24  1  0  0  0  0
 24 28  1  0  0  0  0
 24 27  1  0  0  0  0
 25 29  1  1  0  0  0
 25 23  1  0  0  0  0
 25 24  1  0  0  0  0
 30 25  1  0  0  0  0
 32 31  2  6  0  0  0
 32 35  1  0  0  0  0
 32 30  1  0  0  0  0
 33 32  1  0  0  0  0
 34 33  1  0  0  0  0
 36 43  1  6  0  0  0
 36 37  1  0  0  0  0
 36 41  1  0  0  0  0
 37 35  1  6  0  0  0
 37 38  1  0  0  0  0
 38 40  1  0  0  0  0
 38 39  1  0  0  0  0
 41 40  1  0  0  0  0
 42 41  1  0  0  0  0
 44 43  1  0  0  0  0
M  END
>  <minimizedAffinity>
-5.12564945

>  <minimizedRMSD>
0.557301641

$$$$
