
 OpenBabel03252501033D

 31 33  0  0  1  0  0  0  0  0999 V2000
   47.9670   35.6120   41.8490 C   0  0  1  0  0  0  0  0  0  0  0  0
   49.3560   35.0930   41.9320 C   0  0  0  0  0  0  0  0  0  0  0  0
   48.5930   35.0950   40.6160 C   0  0  1  0  0  0  0  0  0  0  0  0
   47.7270   36.7030   41.9040 H   0  0  0  0  0  0  0  0  0  0  0  0
   50.1610   35.8370   42.1070 H   0  0  0  0  0  0  0  0  0  0  0  0
   49.6080   34.0910   42.2780 H   0  0  0  0  0  0  0  0  0  0  0  0
   49.0780   35.7850   39.8950 H   0  0  0  0  0  0  0  0  0  0  0  0
   46.2650   33.0990   44.0750 C   0  0  0  0  0  0  0  0  0  0  0  0
   47.2870   33.8810   43.5170 C   0  0  0  0  0  0  0  0  0  0  0  0
   46.9300   34.7540   42.4940 C   0  0  0  0  0  0  0  0  0  0  0  0
   45.6380   34.8250   42.0720 N   0  0  0  0  0  0  0  0  0  0  0  0
   44.6710   34.0590   42.6270 C   0  0  0  0  0  0  0  0  0  0  0  0
   44.9900   33.1940   43.6310 N   0  0  0  0  0  0  0  0  0  0  0  0
   46.5130   32.4110   44.8710 H   0  0  0  0  0  0  0  0  0  0  0  0
   48.2630   33.7630   43.9080 H   0  0  0  0  0  0  0  0  0  0  0  0
   43.6440   34.0610   42.3500 H   0  0  0  0  0  0  0  0  0  0  0  0
   48.0700   33.9920   40.0660 O   0  0  0  0  0  0  0  0  0  0  0  0
   48.6670   34.9750   37.6760 O   0  0  0  0  0  0  0  0  0  0  0  0
   48.0420   33.8280   38.4390 P   0  0  2  0  0  0  0  0  0  0  0  0
   46.4870   33.6460   37.7960 O   0  0  0  0  0  0  0  0  0  0  0  0
   46.1990   32.7330   37.9490 H   0  0  0  0  0  0  0  0  0  0  0  0
   48.8930   32.4550   37.9820 O   0  0  0  0  0  0  0  0  0  0  0  0
   50.9510   31.5710   38.5920 C   0  0  1  0  0  0  0  0  0  0  0  0
   49.5210   31.8130   39.0400 C   0  0  2  0  0  0  0  0  0  0  0  0
   49.0040   30.3790   39.1990 C   0  0  0  0  0  0  0  0  0  0  0  0
   48.6340   30.2020   40.2400 H   0  0  0  0  0  0  0  0  0  0  0  0
   50.1020   29.5380   39.0240 O   0  0  0  0  0  0  0  0  0  0  0  0
   50.7860   30.1750   37.9800 C   0  0  0  0  0  0  0  0  0  0  0  0
   51.7590   29.7020   37.7470 H   0  0  0  0  0  0  0  0  0  0  0  0
   51.3600   32.4310   37.5950 O   0  0  0  0  0  0  0  0  0  0  0  0
   51.1650   33.3680   37.8920 H   0  0  0  0  0  0  0  0  0  0  0  0
  1  4  1  1  0  0  0
  1  2  1  0  0  0  0
  1 10  1  0  0  0  0
  2  5  1  0  0  0  0
  2  6  1  0  0  0  0
  3  7  1  6  0  0  0
  3  1  1  0  0  0  0
  3  2  1  0  0  0  0
  8 14  1  0  0  0  0
  9 15  1  0  0  0  0
  9  8  2  0  0  0  0
 10  9  1  0  0  0  0
 11 10  2  0  0  0  0
 11 12  1  0  0  0  0
 12 13  2  0  0  0  0
 13  8  1  0  0  0  0
 16 12  1  0  0  0  0
 17  3  1  0  0  0  0
 19 18  2  6  0  0  0
 19 17  1  0  0  0  0
 20 21  1  0  0  0  0
 20 19  1  0  0  0  0
 22 19  1  0  0  0  0
 23 30  1  6  0  0  0
 23 24  1  0  0  0  0
 24 22  1  6  0  0  0
 24 25  1  0  0  0  0
 25 26  1  0  0  0  0
 27 25  1  0  0  0  0
 28 23  1  0  0  0  0
 28 27  1  0  0  0  0
 29 28  1  0  0  0  0
 30 31  1  0  0  0  0
M  END
>  <minimizedAffinity>
-4.52229881

>  <minimizedRMSD>
3.17140865

$$$$
