
 OpenBabel03252508073D

 44 47  0  0  1  0  0  0  0  0999 V2000
   45.3780   35.9050   42.7690 C   0  0  0  0  0  0  0  0  0  0  0  0
   45.5820   34.5350   42.8280 C   0  0  0  0  0  0  0  0  0  0  0  0
   45.2850   33.8430   43.9760 C   0  0  0  0  0  0  0  0  0  0  0  0
   44.7830   34.5780   45.0340 N   0  0  0  0  0  0  0  0  0  0  0  0
   44.5890   35.8920   44.9720 C   0  0  0  0  0  0  0  0  0  0  0  0
   44.8920   36.5450   43.8300 N   0  0  0  0  0  0  0  0  0  0  0  0
   45.6140   36.4620   41.8570 H   0  0  0  0  0  0  0  0  0  0  0  0
   44.1980   36.4460   45.8090 H   0  0  0  0  0  0  0  0  0  0  0  0
   45.4340   32.4560   44.1950 C   0  0  0  0  0  0  0  0  0  0  0  0
   44.9220   31.4690   43.3470 C   0  0  0  0  0  0  0  0  0  0  0  0
   45.0070   30.1230   43.5910 C   0  0  0  0  0  0  0  0  0  0  0  0
   45.6290   29.6770   44.7320 C   0  0  0  0  0  0  0  0  0  0  0  0
   46.1570   30.6620   45.6070 C   0  0  0  0  0  0  0  0  0  0  0  0
   46.7770   30.2300   46.7520 C   0  0  0  0  0  0  0  0  0  0  0  0
   47.3140   31.1330   47.6480 C   0  0  0  0  0  0  0  0  0  0  0  0
   47.2220   32.5100   47.3760 C   0  0  0  0  0  0  0  0  0  0  0  0
   46.5780   32.9040   46.1900 C   0  0  0  0  0  0  0  0  0  0  0  0
   46.0520   31.9840   45.3240 C   0  0  0  0  0  0  0  0  0  0  0  0
   44.4280   31.8170   42.4400 H   0  0  0  0  0  0  0  0  0  0  0  0
   44.5730   29.4430   42.8610 H   0  0  0  0  0  0  0  0  0  0  0  0
   45.7110   28.6220   44.9530 H   0  0  0  0  0  0  0  0  0  0  0  0
   46.8440   29.1550   46.9530 H   0  0  0  0  0  0  0  0  0  0  0  0
   47.7840   30.7220   48.5250 H   0  0  0  0  0  0  0  0  0  0  0  0
   47.6680   33.1250   48.1260 H   0  0  0  0  0  0  0  0  0  0  0  0
   46.6290   33.9710   46.1530 H   0  0  0  0  0  0  0  0  0  0  0  0
   46.0790   33.9290   41.7080 O   0  0  0  0  0  0  0  0  0  0  0  0
   47.9330   32.0820   41.5860 O   0  0  0  0  0  0  0  0  0  0  0  0
   47.7120   33.5480   41.4630 P   0  0  1  0  0  0  0  0  0  0  0  0
   48.2080   33.9940   39.9050 O   0  0  0  0  0  0  0  0  0  0  0  0
   47.3480   33.5900   37.6910 C   0  0  1  0  0  3  0  0  0  0  0  0
   47.9630   33.0160   38.9760 C   0  0  1  0  0  3  0  0  0  0  0  0
   49.2210   32.4080   38.3910 C   0  0  0  0  0  3  0  0  0  0  0  0
   49.9250   33.2810   38.2630 H   0  0  0  0  0  0  0  0  0  0  0  0
   48.9240   31.9980   37.1000 O   0  0  0  0  0  0  0  0  0  0  0  0
   47.6510   32.4070   36.7880 C   0  0  0  0  0  3  0  0  0  0  0  0
   47.4710   32.6170   35.7320 H   0  0  0  0  0  0  0  0  0  0  0  0
   45.9820   33.7870   37.8450 O   0  0  0  0  0  0  0  0  0  0  0  0
   45.8460   34.7530   38.0780 H   0  0  0  0  0  0  0  0  0  0  0  0
   48.6240   34.4000   42.5850 O   0  0  0  0  0  0  0  0  0  0  0  0
   49.7770   35.1260   42.3350 C   0  0  0  0  0  0  0  0  0  0  0  0
   49.3740   36.2190   41.8970 O   0  0  0  0  0  0  0  0  0  0  0  0
   50.9500   34.3580   42.6710 N   0  0  0  0  0  0  0  0  0  0  0  0
   51.1190   34.2250   43.7020 H   0  0  0  0  0  0  0  0  0  0  0  0
   51.6620   33.9110   42.0520 H   0  0  0  0  0  0  0  0  0  0  0  0
  1  2  2  0  0  0  0
  1  6  1  0  0  0  0
  2  3  1  0  0  0  0
  3  9  1  0  0  0  0
  3  4  2  0  0  0  0
  5  4  1  0  0  0  0
  5  8  1  0  0  0  0
  6  5  2  0  0  0  0
  7  1  1  0  0  0  0
  9 18  1  0  0  0  0
 10 11  1  0  0  0  0
 10  9  2  0  0  0  0
 11 12  2  0  0  0  0
 12 21  1  0  0  0  0
 12 13  1  0  0  0  0
 13 14  1  0  0  0  0
 14 22  1  0  0  0  0
 14 15  2  0  0  0  0
 15 23  1  0  0  0  0
 16 15  1  0  0  0  0
 16 24  1  0  0  0  0
 17 16  2  0  0  0  0
 18 13  2  0  0  0  0
 18 17  1  0  0  0  0
 19 10  1  0  0  0  0
 20 11  1  0  0  0  0
 25 17  1  0  0  0  0
 26  2  1  0  0  0  0
 28 27  2  1  0  0  0
 28 26  1  0  0  0  0
 28 39  1  0  0  0  0
 29 28  1  0  0  0  0
 30 37  1  1  0  0  0
 30 31  1  0  0  0  0
 31 29  1  1  0  0  0
 32 31  1  0  0  0  0
 33 32  1  0  0  0  0
 34 32  1  0  0  0  0
 35 34  1  0  0  0  0
 35 30  1  0  0  0  0
 36 35  1  0  0  0  0
 37 38  1  0  0  0  0
 40 39  1  0  0  0  0
 40 42  1  0  0  0  0
 41 40  2  0  0  0  0
 42 43  1  0  0  0  0
 44 42  1  0  0  0  0
M  END
>  <minimizedAffinity>
-5.97804308

>  <minimizedRMSD>
0.539416075

$$$$
