
 OpenBabel03252502253D

 34 36  0  0  1  0  0  0  0  0999 V2000
   36.5790   28.8450   40.0870 N   0  0  0  0  0  0  0  0  0  0  0  0
   35.1320   29.0220   39.9800 C   0  0  0  0  0  0  0  0  0  0  0  0
   34.7970   28.5450   38.5690 C   0  0  0  0  0  0  0  0  0  0  0  0
   35.4180   29.4510   37.5530 C   0  0  0  0  0  0  0  0  0  0  0  0
   36.8080   29.9090   37.8880 C   0  0  0  0  0  0  0  0  0  0  0  0
   37.4570   29.1610   39.0150 C   0  0  1  0  0  0  0  0  0  0  0  0
   34.8930   30.1000   40.0550 H   0  0  0  0  0  0  0  0  0  0  0  0
   34.5960   28.3960   40.7210 H   0  0  0  0  0  0  0  0  0  0  0  0
   35.1820   27.5060   38.4840 H   0  0  0  0  0  0  0  0  0  0  0  0
   33.6910   28.5820   38.4820 H   0  0  0  0  0  0  0  0  0  0  0  0
   35.3520   28.9560   36.5580 H   0  0  0  0  0  0  0  0  0  0  0  0
   34.7770   30.3660   37.4750 H   0  0  0  0  0  0  0  0  0  0  0  0
   36.8730   31.0000   38.0900 H   0  0  0  0  0  0  0  0  0  0  0  0
   37.4340   29.7500   36.9850 H   0  0  0  0  0  0  0  0  0  0  0  0
   37.9220   28.2190   38.6440 H   0  0  0  0  0  0  0  0  0  0  0  0
   38.2580   26.6740   42.6110 C   0  0  0  0  0  0  0  0  0  0  0  0
   37.7150   27.0550   41.3700 C   0  0  0  0  0  0  0  0  0  0  0  0
   37.1620   28.3420   41.2930 C   0  0  0  0  0  0  0  0  0  0  0  0
   37.1890   29.1300   42.4120 N   0  0  0  0  0  0  0  0  0  0  0  0
   37.7230   28.7180   43.5840 C   0  0  0  0  0  0  0  0  0  0  0  0
   38.2600   27.4810   43.6780 N   0  0  0  0  0  0  0  0  0  0  0  0
   38.6970   25.6800   42.7110 H   0  0  0  0  0  0  0  0  0  0  0  0
   37.7050   26.4260   40.5170 H   0  0  0  0  0  0  0  0  0  0  0  0
   37.6820   29.4350   44.3930 H   0  0  0  0  0  0  0  0  0  0  0  0
   38.5030   29.9820   39.4930 O   0  0  0  0  0  0  0  0  0  0  0  0
   37.8830   32.0930   40.4660 C   0  0  1  0  0  3  0  0  0  0  0  0
   38.2420   31.3000   39.2050 C   0  0  1  0  0  3  0  0  0  0  0  0
   39.4850   31.9970   38.7580 C   0  0  0  0  0  3  0  0  0  0  0  0
   39.2770   32.5080   37.7960 H   0  0  0  0  0  0  0  0  0  0  0  0
   39.7850   33.0010   39.6760 O   0  0  0  0  0  0  0  0  0  0  0  0
   38.5390   33.4250   40.1040 C   0  0  0  0  0  3  0  0  0  0  0  0
   38.5780   34.1020   40.9750 H   0  0  0  0  0  0  0  0  0  0  0  0
   36.5330   32.3050   40.6030 O   0  0  0  0  0  0  0  0  0  0  0  0
   36.1150   31.7130   41.2790 H   0  0  0  0  0  0  0  0  0  0  0  0
  1 18  1  0  0  0  0
  2  7  1  0  0  0  0
  2  1  1  0  0  0  0
  2  8  1  0  0  0  0
  3  2  1  0  0  0  0
  4  5  1  0  0  0  0
  4  3  1  0  0  0  0
  5 13  1  0  0  0  0
  5  6  1  0  0  0  0
  6 15  1  6  0  0  0
  6 25  1  0  0  0  0
  6  1  1  0  0  0  0
  9  3  1  0  0  0  0
 10  3  1  0  0  0  0
 11  4  1  0  0  0  0
 12  4  1  0  0  0  0
 14  5  1  0  0  0  0
 16 22  1  0  0  0  0
 16 21  1  0  0  0  0
 17 16  2  0  0  0  0
 18 17  1  0  0  0  0
 18 19  2  0  0  0  0
 19 20  1  0  0  0  0
 20 21  2  0  0  0  0
 20 24  1  0  0  0  0
 23 17  1  0  0  0  0
 26 33  1  6  0  0  0
 27 25  1  1  0  0  0
 27 26  1  0  0  0  0
 28 27  1  0  0  0  0
 28 30  1  0  0  0  0
 29 28  1  0  0  0  0
 30 31  1  0  0  0  0
 31 26  1  0  0  0  0
 31 32  1  0  0  0  0
 33 34  1  0  0  0  0
M  END
>  <minimizedAffinity>
-5.11005735

$$$$

 OpenBabel03252502253D

 34 36  0  0  1  0  0  0  0  0999 V2000
   36.9170   30.5760   39.3420 N   0  0  0  0  0  0  0  0  0  0  0  0
   36.9080   29.8580   38.0690 C   0  0  0  0  0  0  0  0  0  0  0  0
   35.4290   29.5820   37.8030 C   0  0  0  0  0  0  0  0  0  0  0  0
   34.8820   28.6440   38.8310 C   0  0  0  0  0  0  0  0  0  0  0  0
   35.3660   28.8950   40.2310 C   0  0  0  0  0  0  0  0  0  0  0  0
   36.0690   30.2060   40.4210 C   0  0  1  0  0  0  0  0  0  0  0  0
   37.4300   28.8900   38.1950 H   0  0  0  0  0  0  0  0  0  0  0  0
   37.3220   30.4830   37.2530 H   0  0  0  0  0  0  0  0  0  0  0  0
   34.9130   30.5660   37.8270 H   0  0  0  0  0  0  0  0  0  0  0  0
   35.3770   29.1140   36.7980 H   0  0  0  0  0  0  0  0  0  0  0  0
   33.7720   28.6450   38.7500 H   0  0  0  0  0  0  0  0  0  0  0  0
   35.2010   27.6070   38.5510 H   0  0  0  0  0  0  0  0  0  0  0  0
   36.0070   28.0770   40.6260 H   0  0  0  0  0  0  0  0  0  0  0  0
   34.4740   28.9010   40.8910 H   0  0  0  0  0  0  0  0  0  0  0  0
   35.3330   31.0240   40.5940 H   0  0  0  0  0  0  0  0  0  0  0  0
   38.2750   33.9860   39.9960 C   0  0  0  0  0  0  0  0  0  0  0  0
   37.3130   32.9750   39.8200 C   0  0  0  0  0  0  0  0  0  0  0  0
   37.7960   31.6870   39.5420 C   0  0  0  0  0  0  0  0  0  0  0  0
   39.1500   31.5040   39.4640 N   0  0  0  0  0  0  0  0  0  0  0  0
   40.0370   32.5090   39.6420 C   0  0  0  0  0  0  0  0  0  0  0  0
   39.5900   33.7570   39.9100 N   0  0  0  0  0  0  0  0  0  0  0  0
   37.9390   35.0010   40.2140 H   0  0  0  0  0  0  0  0  0  0  0  0
   36.2680   33.1430   39.8850 H   0  0  0  0  0  0  0  0  0  0  0  0
   41.0780   32.2330   39.5550 H   0  0  0  0  0  0  0  0  0  0  0  0
   36.8380   30.0820   41.6000 O   0  0  0  0  0  0  0  0  0  0  0  0
   38.8750   28.8030   41.6330 C   0  0  1  0  0  3  0  0  0  0  0  0
   37.3440   28.8090   41.7060 C   0  0  1  0  0  3  0  0  0  0  0  0
   37.1080   28.2610   43.0750 C   0  0  0  0  0  3  0  0  0  0  0  0
   36.6200   27.2700   42.9790 H   0  0  0  0  0  0  0  0  0  0  0  0
   38.3420   28.0310   43.6790 O   0  0  0  0  0  0  0  0  0  0  0  0
   39.1550   27.6680   42.6190 C   0  0  0  0  0  3  0  0  0  0  0  0
   40.2260   27.6210   42.8810 H   0  0  0  0  0  0  0  0  0  0  0  0
   39.3540   28.4260   40.4030 O   0  0  0  0  0  0  0  0  0  0  0  0
   39.6800   29.1910   39.8630 H   0  0  0  0  0  0  0  0  0  0  0  0
  1 18  1  0  0  0  0
  1  6  1  0  0  0  0
  2  7  1  0  0  0  0
  2  1  1  0  0  0  0
  3  9  1  0  0  0  0
  3  2  1  0  0  0  0
  3  4  1  0  0  0  0
  4  5  1  0  0  0  0
  5  6  1  0  0  0  0
  5 13  1  0  0  0  0
  5 14  1  0  0  0  0
  6 15  1  1  0  0  0
  6 25  1  0  0  0  0
  8  2  1  0  0  0  0
 10  3  1  0  0  0  0
 11  4  1  0  0  0  0
 12  4  1  0  0  0  0
 16 22  1  0  0  0  0
 17 23  1  0  0  0  0
 17 16  2  0  0  0  0
 18 17  1  0  0  0  0
 19 18  2  0  0  0  0
 19 20  1  0  0  0  0
 20 21  2  0  0  0  0
 21 16  1  0  0  0  0
 24 20  1  0  0  0  0
 26 33  1  6  0  0  0
 26 27  1  0  0  0  0
 26 31  1  0  0  0  0
 27 25  1  1  0  0  0
 27 28  1  0  0  0  0
 28 30  1  0  0  0  0
 29 28  1  0  0  0  0
 31 32  1  0  0  0  0
 31 30  1  0  0  0  0
 34 33  1  0  0  0  0
M  END
>  <minimizedAffinity>
-4.80771685

$$$$

 OpenBabel03252502253D

 34 36  0  0  1  0  0  0  0  0999 V2000
   36.7500   29.1250   39.8870 N   0  0  0  0  0  0  0  0  0  0  0  0
   35.2910   29.0800   39.9740 C   0  0  0  0  0  0  0  0  0  0  0  0
   34.8550   28.4430   38.6560 C   0  0  0  0  0  0  0  0  0  0  0  0
   35.1920   29.3410   37.5080 C   0  0  0  0  0  0  0  0  0  0  0  0
   36.5260   30.0230   37.6150 C   0  0  0  0  0  0  0  0  0  0  0  0
   37.4220   29.4750   38.6850 C   0  0  1  0  0  0  0  0  0  0  0  0
   34.8990   30.1140   40.0120 H   0  0  0  0  0  0  0  0  0  0  0  0
   34.9590   28.4470   40.8200 H   0  0  0  0  0  0  0  0  0  0  0  0
   35.3830   27.4680   38.5840 H   0  0  0  0  0  0  0  0  0  0  0  0
   33.7550   28.3120   38.7230 H   0  0  0  0  0  0  0  0  0  0  0  0
   35.0760   28.7610   36.5650 H   0  0  0  0  0  0  0  0  0  0  0  0
   34.4110   30.1440   37.4630 H   0  0  0  0  0  0  0  0  0  0  0  0
   36.4450   31.1250   37.7360 H   0  0  0  0  0  0  0  0  0  0  0  0
   37.0470   29.8810   36.6450 H   0  0  0  0  0  0  0  0  0  0  0  0
   37.9760   28.5830   38.3120 H   0  0  0  0  0  0  0  0  0  0  0  0
   38.2860   29.1290   43.2850 C   0  0  0  0  0  0  0  0  0  0  0  0
   37.4400   29.5270   42.2330 C   0  0  0  0  0  0  0  0  0  0  0  0
   37.5540   28.8160   41.0290 C   0  0  0  0  0  0  0  0  0  0  0  0
   38.4660   27.7970   40.9600 N   0  0  0  0  0  0  0  0  0  0  0  0
   39.2580   27.4520   42.0000 C   0  0  0  0  0  0  0  0  0  0  0  0
   39.1630   28.1260   43.1680 N   0  0  0  0  0  0  0  0  0  0  0  0
   38.2270   29.6580   44.2370 H   0  0  0  0  0  0  0  0  0  0  0  0
   36.7410   30.3210   42.3120 H   0  0  0  0  0  0  0  0  0  0  0  0
   39.9360   26.6300   41.8160 H   0  0  0  0  0  0  0  0  0  0  0  0
   38.3800   30.4770   38.9580 O   0  0  0  0  0  0  0  0  0  0  0  0
   39.8880   31.8590   37.6930 C   0  0  1  0  0  3  0  0  0  0  0  0
   39.3780   30.4500   38.0150 C   0  0  1  0  0  3  0  0  0  0  0  0
   40.6080   29.8080   38.5680 C   0  0  0  0  0  3  0  0  0  0  0  0
   40.9340   29.0100   37.8710 H   0  0  0  0  0  0  0  0  0  0  0  0
   41.6320   30.7520   38.5850 O   0  0  0  0  0  0  0  0  0  0  0  0
   41.3650   31.5330   37.4740 C   0  0  0  0  0  3  0  0  0  0  0  0
   41.9750   32.4520   37.4250 H   0  0  0  0  0  0  0  0  0  0  0  0
   39.3830   32.3580   36.5170 O   0  0  0  0  0  0  0  0  0  0  0  0
   38.6650   33.0270   36.6570 H   0  0  0  0  0  0  0  0  0  0  0  0
  1  2  1  0  0  0  0
  1 18  1  0  0  0  0
  2  7  1  0  0  0  0
  2  8  1  0  0  0  0
  3 10  1  0  0  0  0
  3  2  1  0  0  0  0
  4  5  1  0  0  0  0
  4  3  1  0  0  0  0
  5 13  1  0  0  0  0
  5  6  1  0  0  0  0
  6 15  1  6  0  0  0
  6 25  1  0  0  0  0
  6  1  1  0  0  0  0
  9  3  1  0  0  0  0
 11  4  1  0  0  0  0
 12  4  1  0  0  0  0
 14  5  1  0  0  0  0
 16 22  1  0  0  0  0
 17 23  1  0  0  0  0
 17 16  2  0  0  0  0
 18 17  1  0  0  0  0
 19 18  2  0  0  0  0
 19 20  1  0  0  0  0
 20 21  2  0  0  0  0
 21 16  1  0  0  0  0
 24 20  1  0  0  0  0
 26 33  1  6  0  0  0
 26 27  1  0  0  0  0
 27 28  1  0  0  0  0
 27 25  1  1  0  0  0
 28 30  1  0  0  0  0
 29 28  1  0  0  0  0
 31 26  1  0  0  0  0
 31 30  1  0  0  0  0
 32 31  1  0  0  0  0
 33 34  1  0  0  0  0
M  END
>  <minimizedAffinity>
-4.75951242

$$$$

 OpenBabel03252502253D

 34 36  0  0  1  0  0  0  0  0999 V2000
   38.2700   28.0630   40.8460 N   0  0  0  0  0  0  0  0  0  0  0  0
   38.5270   26.8820   41.6680 C   0  0  0  0  0  0  0  0  0  0  0  0
   37.3020   26.7800   42.5750 C   0  0  0  0  0  0  0  0  0  0  0  0
   37.2460   27.9500   43.5050 C   0  0  0  0  0  0  0  0  0  0  0  0
   37.6220   29.2650   42.8840 C   0  0  0  0  0  0  0  0  0  0  0  0
   37.7000   29.2470   41.3870 C   0  0  1  0  0  0  0  0  0  0  0  0
   39.4180   27.0670   42.2980 H   0  0  0  0  0  0  0  0  0  0  0  0
   38.6050   25.9690   41.0450 H   0  0  0  0  0  0  0  0  0  0  0  0
   36.4150   26.7420   41.9070 H   0  0  0  0  0  0  0  0  0  0  0  0
   37.4220   25.8410   43.1540 H   0  0  0  0  0  0  0  0  0  0  0  0
   36.2410   27.9680   43.9830 H   0  0  0  0  0  0  0  0  0  0  0  0
   37.9700   27.7580   44.3390 H   0  0  0  0  0  0  0  0  0  0  0  0
   38.5640   29.6890   43.2930 H   0  0  0  0  0  0  0  0  0  0  0  0
   36.8360   29.9980   43.1640 H   0  0  0  0  0  0  0  0  0  0  0  0
   36.6890   29.3940   40.9400 H   0  0  0  0  0  0  0  0  0  0  0  0
   40.1070   28.0030   37.6010 C   0  0  0  0  0  0  0  0  0  0  0  0
   39.9170   27.9980   38.9950 C   0  0  0  0  0  0  0  0  0  0  0  0
   38.5920   28.0610   39.4510 C   0  0  0  0  0  0  0  0  0  0  0  0
   37.5870   28.1200   38.5240 N   0  0  0  0  0  0  0  0  0  0  0  0
   37.8200   28.1220   37.1920 C   0  0  0  0  0  0  0  0  0  0  0  0
   39.0910   28.0630   36.7330 N   0  0  0  0  0  0  0  0  0  0  0  0
   41.1230   27.9560   37.2070 H   0  0  0  0  0  0  0  0  0  0  0  0
   40.7140   27.9520   39.6940 H   0  0  0  0  0  0  0  0  0  0  0  0
   36.9400   28.1720   36.5650 H   0  0  0  0  0  0  0  0  0  0  0  0
   38.4860   30.3590   41.0120 O   0  0  0  0  0  0  0  0  0  0  0  0
   38.5180   32.7000   40.4590 C   0  0  1  0  0  3  0  0  0  0  0  0
   37.7030   31.4830   40.9110 C   0  0  1  0  0  3  0  0  0  0  0  0
   36.7260   31.3450   39.7890 C   0  0  0  0  0  3  0  0  0  0  0  0
   35.7110   31.5660   40.1770 H   0  0  0  0  0  0  0  0  0  0  0  0
   37.0020   32.3240   38.8380 O   0  0  0  0  0  0  0  0  0  0  0  0
   37.4590   33.3880   39.5970 C   0  0  0  0  0  3  0  0  0  0  0  0
   37.9000   34.2020   38.9960 H   0  0  0  0  0  0  0  0  0  0  0  0
   38.8420   33.5440   41.4920 O   0  0  0  0  0  0  0  0  0  0  0  0
   39.7860   33.4580   41.7810 H   0  0  0  0  0  0  0  0  0  0  0  0
  1  6  1  0  0  0  0
  1  2  1  0  0  0  0
  2  7  1  0  0  0  0
  2  3  1  0  0  0  0
  3 10  1  0  0  0  0
  3  4  1  0  0  0  0
  4 11  1  0  0  0  0
  4 12  1  0  0  0  0
  5 14  1  0  0  0  0
  5 13  1  0  0  0  0
  5  4  1  0  0  0  0
  6 15  1  6  0  0  0
  6  5  1  0  0  0  0
  8  2  1  0  0  0  0
  9  3  1  0  0  0  0
 16 17  1  0  0  0  0
 17 18  2  0  0  0  0
 17 23  1  0  0  0  0
 18  1  1  0  0  0  0
 19 18  1  0  0  0  0
 20 19  2  0  0  0  0
 21 20  1  0  0  0  0
 21 16  2  0  0  0  0
 22 16  1  0  0  0  0
 24 20  1  0  0  0  0
 25  6  1  0  0  0  0
 26 27  1  0  0  0  0
 26 33  1  1  0  0  0
 27 25  1  6  0  0  0
 28 29  1  0  0  0  0
 28 27  1  0  0  0  0
 30 31  1  0  0  0  0
 30 28  1  0  0  0  0
 31 26  1  0  0  0  0
 32 31  1  0  0  0  0
 33 34  1  0  0  0  0
M  END
>  <minimizedAffinity>
-4.667418

$$$$

 OpenBabel03252502253D

 34 36  0  0  1  0  0  0  0  0999 V2000
   37.7410   31.7250   39.4340 N   0  0  0  0  0  0  0  0  0  0  0  0
   37.0160   32.9370   39.8110 C   0  0  0  0  0  0  0  0  0  0  0  0
   38.0790   34.0340   39.7920 C   0  0  0  0  0  0  0  0  0  0  0  0
   39.0960   33.7890   40.8610 C   0  0  0  0  0  0  0  0  0  0  0  0
   39.4940   32.3510   41.0330 C   0  0  0  0  0  0  0  0  0  0  0  0
   39.0440   31.4440   39.9260 C   0  0  1  0  0  0  0  0  0  0  0  0
   36.6410   32.8280   40.8460 H   0  0  0  0  0  0  0  0  0  0  0  0
   36.2240   33.1760   39.0740 H   0  0  0  0  0  0  0  0  0  0  0  0
   38.5350   34.0170   38.7790 H   0  0  0  0  0  0  0  0  0  0  0  0
   37.5460   34.9870   39.9880 H   0  0  0  0  0  0  0  0  0  0  0  0
   39.9650   34.4600   40.6760 H   0  0  0  0  0  0  0  0  0  0  0  0
   38.6570   34.1300   41.8340 H   0  0  0  0  0  0  0  0  0  0  0  0
   39.1760   31.9220   42.0070 H   0  0  0  0  0  0  0  0  0  0  0  0
   40.6030   32.3170   41.0560 H   0  0  0  0  0  0  0  0  0  0  0  0
   39.7630   31.4780   39.0750 H   0  0  0  0  0  0  0  0  0  0  0  0
   36.9960   29.5680   36.4850 C   0  0  0  0  0  0  0  0  0  0  0  0
   37.6650   30.5290   37.2650 C   0  0  0  0  0  0  0  0  0  0  0  0
   37.1490   30.7710   38.5470 C   0  0  0  0  0  0  0  0  0  0  0  0
   36.0460   30.0670   38.9470 N   0  0  0  0  0  0  0  0  0  0  0  0
   35.4370   29.1510   38.1600 C   0  0  0  0  0  0  0  0  0  0  0  0
   35.9200   28.9050   36.9220 N   0  0  0  0  0  0  0  0  0  0  0  0
   37.3670   29.3520   35.4820 H   0  0  0  0  0  0  0  0  0  0  0  0
   38.5180   31.0630   36.9310 H   0  0  0  0  0  0  0  0  0  0  0  0
   34.5750   28.6640   38.5940 H   0  0  0  0  0  0  0  0  0  0  0  0
   39.0750   30.1310   40.4450 O   0  0  0  0  0  0  0  0  0  0  0  0
   37.4480   29.3640   42.0430 C   0  0  1  0  0  3  0  0  0  0  0  0
   38.7440   30.1390   41.7780 C   0  0  1  0  0  3  0  0  0  0  0  0
   39.7320   29.3460   42.5710 C   0  0  0  0  0  3  0  0  0  0  0  0
   40.0940   29.9730   43.4110 H   0  0  0  0  0  0  0  0  0  0  0  0
   39.0710   28.2650   43.1490 O   0  0  0  0  0  0  0  0  0  0  0  0
   37.8040   28.7620   43.4020 C   0  0  0  0  0  3  0  0  0  0  0  0
   37.0770   27.9870   43.6990 H   0  0  0  0  0  0  0  0  0  0  0  0
   36.3580   30.1810   42.2100 O   0  0  0  0  0  0  0  0  0  0  0  0
   35.7680   30.2080   41.4150 H   0  0  0  0  0  0  0  0  0  0  0  0
  1  2  1  0  0  0  0
  1  6  1  0  0  0  0
  2  7  1  0  0  0  0
  3  2  1  0  0  0  0
  3 10  1  0  0  0  0
  3  4  1  0  0  0  0
  4  5  1  0  0  0  0
  4 12  1  0  0  0  0
  5 14  1  0  0  0  0
  5 13  1  0  0  0  0
  6 15  1  6  0  0  0
  6 25  1  0  0  0  0
  6  5  1  0  0  0  0
  8  2  1  0  0  0  0
  9  3  1  0  0  0  0
 11  4  1  0  0  0  0
 16 21  2  0  0  0  0
 16 17  1  0  0  0  0
 17 18  2  0  0  0  0
 18 19  1  0  0  0  0
 18  1  1  0  0  0  0
 20 24  1  0  0  0  0
 20 19  2  0  0  0  0
 21 20  1  0  0  0  0
 22 16  1  0  0  0  0
 23 17  1  0  0  0  0
 26 33  1  1  0  0  0
 26 31  1  0  0  0  0
 27 25  1  6  0  0  0
 27 26  1  0  0  0  0
 27 28  1  0  0  0  0
 28 30  1  0  0  0  0
 28 29  1  0  0  0  0
 30 31  1  0  0  0  0
 31 32  1  0  0  0  0
 34 33  1  0  0  0  0
M  END
>  <minimizedAffinity>
-4.64290857

$$$$

 OpenBabel03252502253D

 34 36  0  0  1  0  0  0  0  0999 V2000
   37.0300   29.6770   38.7470 N   0  0  0  0  0  0  0  0  0  0  0  0
   36.3860   29.7200   37.4350 C   0  0  0  0  0  0  0  0  0  0  0  0
   34.9790   29.1820   37.6870 C   0  0  0  0  0  0  0  0  0  0  0  0
   35.0370   27.7440   38.0920 C   0  0  0  0  0  0  0  0  0  0  0  0
   36.1590   27.4010   39.0300 C   0  0  0  0  0  0  0  0  0  0  0  0
   36.8470   28.5860   39.6390 C   0  0  1  0  0  0  0  0  0  0  0  0
   36.9120   29.0250   36.7510 H   0  0  0  0  0  0  0  0  0  0  0  0
   36.3240   30.7580   37.0530 H   0  0  0  0  0  0  0  0  0  0  0  0
   34.5350   29.8170   38.4840 H   0  0  0  0  0  0  0  0  0  0  0  0
   34.4310   29.2830   36.7270 H   0  0  0  0  0  0  0  0  0  0  0  0
   34.0380   27.4510   38.4860 H   0  0  0  0  0  0  0  0  0  0  0  0
   35.1830   27.1340   37.1640 H   0  0  0  0  0  0  0  0  0  0  0  0
   36.9210   26.7310   38.5760 H   0  0  0  0  0  0  0  0  0  0  0  0
   35.7230   26.8100   39.8630 H   0  0  0  0  0  0  0  0  0  0  0  0
   36.2890   28.9460   40.5340 H   0  0  0  0  0  0  0  0  0  0  0  0
   39.8330   32.1170   39.0450 C   0  0  0  0  0  0  0  0  0  0  0  0
   39.0880   31.0400   38.5310 C   0  0  0  0  0  0  0  0  0  0  0  0
   37.8760   30.7480   39.1750 C   0  0  0  0  0  0  0  0  0  0  0  0
   37.5050   31.5190   40.2440 N   0  0  0  0  0  0  0  0  0  0  0  0
   38.2570   32.5460   40.7010 C   0  0  0  0  0  0  0  0  0  0  0  0
   39.4270   32.8420   40.0940 N   0  0  0  0  0  0  0  0  0  0  0  0
   40.7810   32.3760   38.5720 H   0  0  0  0  0  0  0  0  0  0  0  0
   39.3980   30.4570   37.7020 H   0  0  0  0  0  0  0  0  0  0  0  0
   37.8520   33.0760   41.5520 H   0  0  0  0  0  0  0  0  0  0  0  0
   38.1070   28.1320   40.0880 O   0  0  0  0  0  0  0  0  0  0  0  0
   36.7820   28.4730   42.0660 C   0  0  1  0  0  3  0  0  0  0  0  0
   38.1070   28.0040   41.4550 C   0  0  1  0  0  3  0  0  0  0  0  0
   38.1240   26.5630   41.8490 C   0  0  0  0  0  3  0  0  0  0  0  0
   38.9520   26.4040   42.5690 H   0  0  0  0  0  0  0  0  0  0  0  0
   36.9480   26.2790   42.5390 O   0  0  0  0  0  0  0  0  0  0  0  0
   36.6740   27.4600   43.2060 C   0  0  0  0  0  3  0  0  0  0  0  0
   35.6730   27.4830   43.6690 H   0  0  0  0  0  0  0  0  0  0  0  0
   36.8570   29.7280   42.6160 O   0  0  0  0  0  0  0  0  0  0  0  0
   36.4390   30.4250   42.0490 H   0  0  0  0  0  0  0  0  0  0  0  0
  1 18  1  0  0  0  0
  1  6  1  0  0  0  0
  2  3  1  0  0  0  0
  2  1  1  0  0  0  0
  3  4  1  0  0  0  0
  3  9  1  0  0  0  0
  4 11  1  0  0  0  0
  4  5  1  0  0  0  0
  5  6  1  0  0  0  0
  5 14  1  0  0  0  0
  6 25  1  0  0  0  0
  6 15  1  1  0  0  0
  7  2  1  0  0  0  0
  8  2  1  0  0  0  0
 10  3  1  0  0  0  0
 12  4  1  0  0  0  0
 13  5  1  0  0  0  0
 16 21  1  0  0  0  0
 17 16  2  0  0  0  0
 17 18  1  0  0  0  0
 18 19  2  0  0  0  0
 19 20  1  0  0  0  0
 20 24  1  0  0  0  0
 21 20  2  0  0  0  0
 22 16  1  0  0  0  0
 23 17  1  0  0  0  0
 26 33  1  1  0  0  0
 26 31  1  0  0  0  0
 27 25  1  6  0  0  0
 27 28  1  0  0  0  0
 27 26  1  0  0  0  0
 28 30  1  0  0  0  0
 28 29  1  0  0  0  0
 30 31  1  0  0  0  0
 31 32  1  0  0  0  0
 34 33  1  0  0  0  0
M  END
>  <minimizedAffinity>
-4.61861372

$$$$

 OpenBabel03252502253D

 34 36  0  0  1  0  0  0  0  0999 V2000
   39.3730   27.0740   42.1290 N   0  0  0  0  0  0  0  0  0  0  0  0
   39.3660   25.9150   43.0210 C   0  0  0  0  0  0  0  0  0  0  0  0
   38.4840   24.8940   42.3050 C   0  0  0  0  0  0  0  0  0  0  0  0
   37.0740   25.3880   42.2300 C   0  0  0  0  0  0  0  0  0  0  0  0
   36.9380   26.8530   41.9250 C   0  0  0  0  0  0  0  0  0  0  0  0
   38.2010   27.5120   41.4560 C   0  0  1  0  0  0  0  0  0  0  0  0
   38.8790   26.1950   43.9740 H   0  0  0  0  0  0  0  0  0  0  0  0
   40.3860   25.5010   43.1470 H   0  0  0  0  0  0  0  0  0  0  0  0
   38.9230   24.7460   41.2960 H   0  0  0  0  0  0  0  0  0  0  0  0
   38.5270   23.9670   42.9130 H   0  0  0  0  0  0  0  0  0  0  0  0
   36.5160   24.7430   41.5140 H   0  0  0  0  0  0  0  0  0  0  0  0
   36.5970   25.2110   43.2280 H   0  0  0  0  0  0  0  0  0  0  0  0
   36.5140   27.4380   42.7690 H   0  0  0  0  0  0  0  0  0  0  0  0
   36.1920   26.9510   41.1080 H   0  0  0  0  0  0  0  0  0  0  0  0
   38.3390   27.3590   40.3610 H   0  0  0  0  0  0  0  0  0  0  0  0
   42.4120   29.1820   42.6020 C   0  0  0  0  0  0  0  0  0  0  0  0
   41.2350   28.4910   42.9440 C   0  0  0  0  0  0  0  0  0  0  0  0
   40.5790   27.8120   41.9070 C   0  0  0  0  0  0  0  0  0  0  0  0
   41.1200   27.8640   40.6510 N   0  0  0  0  0  0  0  0  0  0  0  0
   42.2550   28.5420   40.3710 C   0  0  0  0  0  0  0  0  0  0  0  0
   42.9020   29.2040   41.3570 N   0  0  0  0  0  0  0  0  0  0  0  0
   42.9520   29.7230   43.3810 H   0  0  0  0  0  0  0  0  0  0  0  0
   40.8360   28.4670   43.9260 H   0  0  0  0  0  0  0  0  0  0  0  0
   42.5780   28.5050   39.3390 H   0  0  0  0  0  0  0  0  0  0  0  0
   38.0320   28.8990   41.6650 O   0  0  0  0  0  0  0  0  0  0  0  0
   36.8520   30.8800   40.9780 C   0  0  1  0  0  3  0  0  0  0  0  0
   37.2800   29.4440   40.6530 C   0  0  1  0  0  3  0  0  0  0  0  0
   38.1130   29.6510   39.4310 C   0  0  0  0  0  3  0  0  0  0  0  0
   37.5980   29.1810   38.5690 H   0  0  0  0  0  0  0  0  0  0  0  0
   38.1670   31.0150   39.1570 O   0  0  0  0  0  0  0  0  0  0  0  0
   36.9290   31.4750   39.5720 C   0  0  0  0  0  3  0  0  0  0  0  0
   36.8530   32.5750   39.5980 H   0  0  0  0  0  0  0  0  0  0  0  0
   35.5520   30.9690   41.4080 O   0  0  0  0  0  0  0  0  0  0  0  0
   35.4750   31.0960   42.3880 H   0  0  0  0  0  0  0  0  0  0  0  0
  1  2  1  0  0  0  0
  2  8  1  0  0  0  0
  2  7  1  0  0  0  0
  3 10  1  0  0  0  0
  3  2  1  0  0  0  0
  4  3  1  0  0  0  0
  4 12  1  0  0  0  0
  5  4  1  0  0  0  0
  5 13  1  0  0  0  0
  6 15  1  6  0  0  0
  6 25  1  0  0  0  0
  6  5  1  0  0  0  0
  6  1  1  0  0  0  0
  9  3  1  0  0  0  0
 11  4  1  0  0  0  0
 14  5  1  0  0  0  0
 16 17  1  0  0  0  0
 16 22  1  0  0  0  0
 17 23  1  0  0  0  0
 18  1  1  0  0  0  0
 18 17  2  0  0  0  0
 19 18  1  0  0  0  0
 20 19  2  0  0  0  0
 20 21  1  0  0  0  0
 21 16  2  0  0  0  0
 24 20  1  0  0  0  0
 26 33  1  6  0  0  0
 27 26  1  0  0  0  0
 27 25  1  1  0  0  0
 28 27  1  0  0  0  0
 29 28  1  0  0  0  0
 30 28  1  0  0  0  0
 30 31  1  0  0  0  0
 31 32  1  0  0  0  0
 31 26  1  0  0  0  0
 33 34  1  0  0  0  0
M  END
>  <minimizedAffinity>
-4.61608648

$$$$

 OpenBabel03252502253D

 34 36  0  0  1  0  0  0  0  0999 V2000
   37.6880   29.2530   41.2190 N   0  0  0  0  0  0  0  0  0  0  0  0
   37.1330   29.1210   42.5650 C   0  0  0  0  0  0  0  0  0  0  0  0
   37.7250   27.8160   43.0910 C   0  0  0  0  0  0  0  0  0  0  0  0
   37.2140   26.6550   42.2980 C   0  0  0  0  0  0  0  0  0  0  0  0
   37.1150   26.9010   40.8200 C   0  0  0  0  0  0  0  0  0  0  0  0
   37.8150   28.1390   40.3450 C   0  0  1  0  0  0  0  0  0  0  0  0
   36.0340   29.0060   42.4930 H   0  0  0  0  0  0  0  0  0  0  0  0
   37.4500   29.9610   43.2140 H   0  0  0  0  0  0  0  0  0  0  0  0
   38.8290   27.9130   43.0130 H   0  0  0  0  0  0  0  0  0  0  0  0
   37.3940   27.7270   44.1470 H   0  0  0  0  0  0  0  0  0  0  0  0
   37.8290   25.7620   42.5490 H   0  0  0  0  0  0  0  0  0  0  0  0
   36.1810   26.4200   42.6650 H   0  0  0  0  0  0  0  0  0  0  0  0
   36.0680   26.9080   40.4460 H   0  0  0  0  0  0  0  0  0  0  0  0
   37.5920   26.0370   40.3100 H   0  0  0  0  0  0  0  0  0  0  0  0
   38.8980   27.9370   40.1780 H   0  0  0  0  0  0  0  0  0  0  0  0
   37.7920   32.8100   40.1070 C   0  0  0  0  0  0  0  0  0  0  0  0
   37.2440   31.6090   40.5930 C   0  0  0  0  0  0  0  0  0  0  0  0
   38.1250   30.5270   40.7360 C   0  0  0  0  0  0  0  0  0  0  0  0
   39.4390   30.7100   40.4000 N   0  0  0  0  0  0  0  0  0  0  0  0
   39.9200   31.8860   39.9370 C   0  0  0  0  0  0  0  0  0  0  0  0
   39.0850   32.9400   39.7920 N   0  0  0  0  0  0  0  0  0  0  0  0
   37.1390   33.6750   39.9820 H   0  0  0  0  0  0  0  0  0  0  0  0
   36.2200   31.4920   40.8450 H   0  0  0  0  0  0  0  0  0  0  0  0
   40.9760   31.9000   39.7080 H   0  0  0  0  0  0  0  0  0  0  0  0
   37.2530   28.4630   39.0900 O   0  0  0  0  0  0  0  0  0  0  0  0
   34.9510   29.1580   39.0170 C   0  0  1  0  0  3  0  0  0  0  0  0
   35.9600   28.0040   39.0160 C   0  0  1  0  0  3  0  0  0  0  0  0
   35.6990   27.3800   37.6840 C   0  0  0  0  0  3  0  0  0  0  0  0
   35.2710   26.3700   37.8450 H   0  0  0  0  0  0  0  0  0  0  0  0
   34.7150   28.1210   37.0330 O   0  0  0  0  0  0  0  0  0  0  0  0
   33.9100   28.5630   38.0680 C   0  0  0  0  0  3  0  0  0  0  0  0
   33.1700   29.3220   37.7590 H   0  0  0  0  0  0  0  0  0  0  0  0
   34.3550   29.3500   40.2380 O   0  0  0  0  0  0  0  0  0  0  0  0
   34.7190   30.1310   40.7280 H   0  0  0  0  0  0  0  0  0  0  0  0
  1  2  1  0  0  0  0
  2  3  1  0  0  0  0
  2  8  1  0  0  0  0
  3 10  1  0  0  0  0
  4 11  1  0  0  0  0
  4 12  1  0  0  0  0
  4  3  1  0  0  0  0
  5  4  1  0  0  0  0
  6 15  1  6  0  0  0
  6  5  1  0  0  0  0
  6  1  1  0  0  0  0
  7  2  1  0  0  0  0
  9  3  1  0  0  0  0
 13  5  1  0  0  0  0
 14  5  1  0  0  0  0
 16 17  1  0  0  0  0
 17 18  2  0  0  0  0
 17 23  1  0  0  0  0
 18  1  1  0  0  0  0
 19 18  1  0  0  0  0
 20 19  2  0  0  0  0
 21 20  1  0  0  0  0
 21 16  2  0  0  0  0
 22 16  1  0  0  0  0
 24 20  1  0  0  0  0
 25  6  1  0  0  0  0
 26 33  1  1  0  0  0
 27 26  1  0  0  0  0
 27 25  1  6  0  0  0
 28 29  1  0  0  0  0
 28 27  1  0  0  0  0
 30 28  1  0  0  0  0
 30 31  1  0  0  0  0
 31 26  1  0  0  0  0
 32 31  1  0  0  0  0
 33 34  1  0  0  0  0
M  END
>  <minimizedAffinity>
-4.59754848

$$$$

 OpenBabel03252502253D

 34 36  0  0  1  0  0  0  0  0999 V2000
   37.6480   30.8580   39.9140 N   0  0  0  0  0  0  0  0  0  0  0  0
   37.4810   32.1910   40.4880 C   0  0  0  0  0  0  0  0  0  0  0  0
   38.7420   32.9440   40.0660 C   0  0  0  0  0  0  0  0  0  0  0  0
   39.9480   32.3420   40.7140 C   0  0  0  0  0  0  0  0  0  0  0  0
   39.9460   30.8420   40.7740 C   0  0  0  0  0  0  0  0  0  0  0  0
   38.9000   30.1860   39.9220 C   0  0  1  0  0  0  0  0  0  0  0  0
   37.4720   32.1110   41.5920 H   0  0  0  0  0  0  0  0  0  0  0  0
   36.5890   32.6990   40.0720 H   0  0  0  0  0  0  0  0  0  0  0  0
   38.7940   32.8790   38.9580 H   0  0  0  0  0  0  0  0  0  0  0  0
   38.6090   33.9900   40.4110 H   0  0  0  0  0  0  0  0  0  0  0  0
   40.8540   32.7550   40.2160 H   0  0  0  0  0  0  0  0  0  0  0  0
   39.9900   32.7160   41.7690 H   0  0  0  0  0  0  0  0  0  0  0  0
   39.8740   30.4440   41.8090 H   0  0  0  0  0  0  0  0  0  0  0  0
   40.9350   30.4960   40.4050 H   0  0  0  0  0  0  0  0  0  0  0  0
   39.2580   30.0830   38.8720 H   0  0  0  0  0  0  0  0  0  0  0  0
   35.3450   29.2230   37.4780 C   0  0  0  0  0  0  0  0  0  0  0  0
   36.4910   29.8940   37.9460 C   0  0  0  0  0  0  0  0  0  0  0  0
   36.5370   30.1800   39.3180 C   0  0  0  0  0  0  0  0  0  0  0  0
   35.4820   29.7930   40.0990 N   0  0  0  0  0  0  0  0  0  0  0  0
   34.4010   29.1490   39.6030 C   0  0  0  0  0  0  0  0  0  0  0  0
   34.3380   28.8650   38.2820 N   0  0  0  0  0  0  0  0  0  0  0  0
   35.2720   28.9830   36.4170 H   0  0  0  0  0  0  0  0  0  0  0  0
   37.2960   30.1840   37.3190 H   0  0  0  0  0  0  0  0  0  0  0  0
   33.6360   28.8990   40.3250 H   0  0  0  0  0  0  0  0  0  0  0  0
   38.7270   28.8800   40.4330 O   0  0  0  0  0  0  0  0  0  0  0  0
   37.5730   28.4550   42.5000 C   0  0  1  0  0  3  0  0  0  0  0  0
   38.8680   28.8810   41.7990 C   0  0  1  0  0  3  0  0  0  0  0  0
   39.8090   27.8060   42.2330 C   0  0  0  0  0  3  0  0  0  0  0  0
   40.5820   28.2570   42.8880 H   0  0  0  0  0  0  0  0  0  0  0  0
   39.1100   26.8970   43.0230 O   0  0  0  0  0  0  0  0  0  0  0  0
   38.1800   27.6880   43.6750 C   0  0  0  0  0  3  0  0  0  0  0  0
   37.4110   27.1100   44.2160 H   0  0  0  0  0  0  0  0  0  0  0  0
   36.8610   29.5150   43.0050 O   0  0  0  0  0  0  0  0  0  0  0  0
   36.0720   29.7500   42.4520 H   0  0  0  0  0  0  0  0  0  0  0  0
  1  6  1  0  0  0  0
  1  2  1  0  0  0  0
  2  7  1  0  0  0  0
  3 10  1  0  0  0  0
  3  2  1  0  0  0  0
  3  4  1  0  0  0  0
  4  5  1  0  0  0  0
  4 12  1  0  0  0  0
  5 13  1  0  0  0  0
  6 15  1  6  0  0  0
  6 25  1  0  0  0  0
  6  5  1  0  0  0  0
  8  2  1  0  0  0  0
  9  3  1  0  0  0  0
 11  4  1  0  0  0  0
 14  5  1  0  0  0  0
 16 17  2  0  0  0  0
 16 21  1  0  0  0  0
 17 18  1  0  0  0  0
 18  1  1  0  0  0  0
 18 19  2  0  0  0  0
 20 19  1  0  0  0  0
 20 24  1  0  0  0  0
 21 20  2  0  0  0  0
 22 16  1  0  0  0  0
 23 17  1  0  0  0  0
 26 33  1  1  0  0  0
 26 31  1  0  0  0  0
 27 25  1  6  0  0  0
 27 28  1  0  0  0  0
 27 26  1  0  0  0  0
 28 29  1  0  0  0  0
 28 30  1  0  0  0  0
 30 31  1  0  0  0  0
 31 32  1  0  0  0  0
 34 33  1  0  0  0  0
M  END
>  <minimizedAffinity>
-4.56398869

$$$$
