
 OpenBabel03242520483D

 19 20  0  0  1  0  0  0  0  0999 V2000
   47.2000   34.2420   42.3960 O   0  0  0  0  0  0  0  0  0  0  0  0
   44.6110   36.0710   44.3480 C   0  0  0  0  0  0  0  0  0  0  0  0
   45.4650   35.7830   43.2730 C   0  0  0  0  0  0  0  0  0  0  0  0
   46.3030   34.6690   43.3550 C   0  0  0  0  0  0  0  0  0  0  0  0
   46.2470   33.9110   44.4880 N   0  0  0  0  0  0  0  0  0  0  0  0
   45.4100   34.2180   45.5100 C   0  0  0  0  0  0  0  0  0  0  0  0
   44.5980   35.2900   45.4390 N   0  0  0  0  0  0  0  0  0  0  0  0
   44.0050   36.9370   44.2060 H   0  0  0  0  0  0  0  0  0  0  0  0
   45.5390   36.3560   42.3630 H   0  0  0  0  0  0  0  0  0  0  0  0
   45.4410   33.5450   46.3750 H   0  0  0  0  0  0  0  0  0  0  0  0
   49.4840   34.7010   42.0040 C   0  0  2  0  0  0  0  0  0  0  0  0
   48.0360   35.0450   41.6280 C   0  0  1  0  0  0  0  0  0  0  0  0
   48.0550   34.4780   40.2120 C   0  0  0  0  0  0  0  0  0  0  0  0
   48.7920   34.9980   39.5840 H   0  0  0  0  0  0  0  0  0  0  0  0
   48.5450   33.1940   40.4920 O   0  0  0  0  0  0  0  0  0  0  0  0
   49.5730   33.3220   41.4040 C   0  0  0  0  0  0  0  0  0  0  0  0
   50.5850   33.1500   40.9830 H   0  0  0  0  0  0  0  0  0  0  0  0
   49.7170   34.7630   43.3520 O   0  0  0  0  0  0  0  0  0  0  0  0
   50.3120   34.0170   43.6500 H   0  0  0  0  0  0  0  0  0  0  0  0
  1  4  1  0  0  0  0
  2  7  1  0  0  0  0
  3  4  1  0  0  0  0
  3  2  2  0  0  0  0
  4  5  2  0  0  0  0
  5  6  1  0  0  0  0
  6 10  1  0  0  0  0
  7  6  2  0  0  0  0
  8  2  1  0  0  0  0
  9  3  1  0  0  0  0
 11 18  1  1  0  0  0
 12 11  1  0  0  0  0
 12  1  1  1  0  0  0
 13 15  1  0  0  0  0
 13 12  1  0  0  0  0
 14 13  1  0  0  0  0
 15 16  1  0  0  0  0
 16 11  1  0  0  0  0
 17 16  1  0  0  0  0
 18 19  1  0  0  0  0
M  END
>  <minimizedAffinity>
-4.54555464

>  <minimizedRMSD>
1.63341498

$$$$
