
 OpenBabel03252502573D

 37 39  0  0  1  0  0  0  0  0999 V2000
   40.0510   29.6260   41.1020 Br  0  0  0  0  0  0  0  0  0  0  0  0
   38.2280   29.3780   40.4970 C   0  0  0  0  0  0  0  0  0  0  0  0
   37.3570   28.8710   41.4310 C   0  0  0  0  0  0  0  0  0  0  0  0
   36.0560   28.7060   40.9610 C   0  0  0  0  0  0  0  0  0  0  0  0
   35.6570   29.0180   39.6720 C   0  0  0  0  0  0  0  0  0  0  0  0
   36.5860   29.5160   38.8120 C   0  0  0  0  0  0  0  0  0  0  0  0
   37.8910   29.7050   39.2080 C   0  0  0  0  0  0  0  0  0  0  0  0
   35.2760   28.3120   41.6110 H   0  0  0  0  0  0  0  0  0  0  0  0
   34.6290   28.8700   39.3560 H   0  0  0  0  0  0  0  0  0  0  0  0
   36.2500   29.7560   37.8000 H   0  0  0  0  0  0  0  0  0  0  0  0
   37.6310   28.5010   42.8080 C   0  0  0  0  0  0  0  0  0  0  0  0
   36.7010   28.4670   43.4060 H   0  0  0  0  0  0  0  0  0  0  0  0
   38.2500   29.3290   43.2610 H   0  0  0  0  0  0  0  0  0  0  0  0
   40.0660   25.8970   43.8670 C   0  0  0  0  0  0  0  0  0  0  0  0
   39.6270   24.7750   43.1730 C   0  0  0  0  0  0  0  0  0  0  0  0
   38.5100   24.9140   42.3550 C   0  0  0  0  0  0  0  0  0  0  0  0
   37.9080   26.1200   42.2710 N   0  0  0  0  0  0  0  0  0  0  0  0
   38.3590   27.2180   42.9640 C   0  0  0  0  0  0  0  0  0  0  0  0
   39.4410   27.0510   43.7490 N   0  0  0  0  0  0  0  0  0  0  0  0
   40.9450   25.7290   44.4920 H   0  0  0  0  0  0  0  0  0  0  0  0
   40.0720   23.7900   43.2070 H   0  0  0  0  0  0  0  0  0  0  0  0
   38.0770   24.1030   41.7650 H   0  0  0  0  0  0  0  0  0  0  0  0
   38.8280   30.2150   38.3130 O   0  0  0  0  0  0  0  0  0  0  0  0
   38.2310   32.6540   39.0240 O   0  0  0  0  0  0  0  0  0  0  0  0
   39.1140   31.8640   38.0770 P   0  0  2  0  0  0  0  0  0  0  0  0
   38.7470   32.2210   36.4830 O   0  0  0  0  0  0  0  0  0  0  0  0
   37.8920   32.7010   36.3570 H   0  0  0  0  0  0  0  0  0  0  0  0
   40.7210   32.2670   38.4270 O   0  0  0  0  0  0  0  0  0  0  0  0
   42.4420   33.6400   37.6840 C   0  0  1  0  0  3  0  0  0  0  0  0
   41.4700   32.5190   37.3120 C   0  0  1  0  0  3  0  0  0  0  0  0
   42.4060   31.3960   36.9410 C   0  0  0  0  0  3  0  0  0  0  0  0
   42.1740   31.0280   35.9020 H   0  0  0  0  0  0  0  0  0  0  0  0
   43.6690   31.9770   36.8290 O   0  0  0  0  0  0  0  0  0  0  0  0
   43.6980   32.8050   37.9510 C   0  0  0  0  0  3  0  0  0  0  0  0
   43.5340   32.1370   38.8390 H   0  0  0  0  0  0  0  0  0  0  0  0
   42.6900   34.4080   36.5640 O   0  0  0  0  0  0  0  0  0  0  0  0
   43.0270   33.7640   35.8670 H   0  0  0  0  0  0  0  0  0  0  0  0
  2  1  1  0  0  0  0
  2  3  1  0  0  0  0
  3 11  1  0  0  0  0
  4  3  2  0  0  0  0
  4  8  1  0  0  0  0
  5  4  1  0  0  0  0
  6  7  1  0  0  0  0
  6  5  2  0  0  0  0
  7  2  2  0  0  0  0
  9  5  1  0  0  0  0
 10  6  1  0  0  0  0
 11 18  1  0  0  0  0
 11 13  1  0  0  0  0
 11 12  1  0  0  0  0
 14 20  1  0  0  0  0
 15 21  1  0  0  0  0
 15 14  2  0  0  0  0
 16 15  1  0  0  0  0
 17 16  2  0  0  0  0
 17 18  1  0  0  0  0
 18 19  2  0  0  0  0
 19 14  1  0  0  0  0
 22 16  1  0  0  0  0
 23  7  1  0  0  0  0
 25 23  1  0  0  0  0
 25 28  1  0  0  0  0
 25 24  2  1  0  0  0
 26 25  1  0  0  0  0
 27 26  1  0  0  0  0
 29 36  1  6  0  0  0
 29 34  1  0  0  0  0
 30 29  1  0  0  0  0
 30 28  1  1  0  0  0
 31 30  1  0  0  0  0
 32 31  1  0  0  0  0
 33 31  1  0  0  0  0
 33 34  1  0  0  0  0
 34 35  1  0  0  0  0
 37 36  1  0  0  0  0
M  END
>  <minimizedAffinity>
-6.2759223

$$$$

 OpenBabel03252502573D

 37 39  0  0  1  0  0  0  0  0999 V2000
   39.7030   30.3150   38.2680 Br  0  0  0  0  0  0  0  0  0  0  0  0
   39.1080   32.0040   39.0020 C   0  0  0  0  0  0  0  0  0  0  0  0
   40.0950   32.9310   39.2340 C   0  0  0  0  0  0  0  0  0  0  0  0
   39.6300   34.1340   39.7630 C   0  0  0  0  0  0  0  0  0  0  0  0
   38.2980   34.3900   40.0390 C   0  0  0  0  0  0  0  0  0  0  0  0
   37.3850   33.4140   39.7790 C   0  0  0  0  0  0  0  0  0  0  0  0
   37.7730   32.2010   39.2550 C   0  0  0  0  0  0  0  0  0  0  0  0
   40.3200   34.9460   39.9880 H   0  0  0  0  0  0  0  0  0  0  0  0
   37.9880   35.3450   40.4510 H   0  0  0  0  0  0  0  0  0  0  0  0
   36.3390   33.6370   40.0030 H   0  0  0  0  0  0  0  0  0  0  0  0
   41.5210   32.8040   38.9960 C   0  0  0  0  0  0  0  0  0  0  0  0
   41.8470   33.4530   38.1610 H   0  0  0  0  0  0  0  0  0  0  0  0
   41.7100   31.7470   38.6470 H   0  0  0  0  0  0  0  0  0  0  0  0
   43.9750   34.3150   41.3470 C   0  0  0  0  0  0  0  0  0  0  0  0
   43.8890   33.4760   42.4520 C   0  0  0  0  0  0  0  0  0  0  0  0
   42.9990   32.4080   42.3880 C   0  0  0  0  0  0  0  0  0  0  0  0
   42.2660   32.2340   41.2670 N   0  0  0  0  0  0  0  0  0  0  0  0
   42.3670   33.0750   40.1840 C   0  0  0  0  0  0  0  0  0  0  0  0
   43.2360   34.1000   40.2760 N   0  0  0  0  0  0  0  0  0  0  0  0
   44.6880   35.1340   41.4540 H   0  0  0  0  0  0  0  0  0  0  0  0
   44.4510   33.5720   43.3700 H   0  0  0  0  0  0  0  0  0  0  0  0
   42.8470   31.6860   43.1940 H   0  0  0  0  0  0  0  0  0  0  0  0
   36.8260   31.2150   38.9970 O   0  0  0  0  0  0  0  0  0  0  0  0
   35.1760   29.2610   39.5190 O   0  0  0  0  0  0  0  0  0  0  0  0
   36.2250   30.1480   40.1630 P   0  0  2  0  0  0  0  0  0  0  0  0
   35.5570   31.0640   41.3950 O   0  0  0  0  0  0  0  0  0  0  0  0
   34.5680   31.0850   41.3990 H   0  0  0  0  0  0  0  0  0  0  0  0
   37.4440   29.1370   40.7610 O   0  0  0  0  0  0  0  0  0  0  0  0
   36.7490   27.6590   42.4140 C   0  0  1  0  0  3  0  0  0  0  0  0
   37.4170   29.0030   42.1210 C   0  0  1  0  0  3  0  0  0  0  0  0
   38.7800   28.8240   42.7430 C   0  0  0  0  0  3  0  0  0  0  0  0
   38.9770   29.6490   43.4830 H   0  0  0  0  0  0  0  0  0  0  0  0
   38.6910   27.6710   43.5230 O   0  0  0  0  0  0  0  0  0  0  0  0
   37.9970   26.8100   42.6740 C   0  0  0  0  0  3  0  0  0  0  0  0
   38.6100   26.7300   41.7370 H   0  0  0  0  0  0  0  0  0  0  0  0
   36.0590   27.7520   43.6070 O   0  0  0  0  0  0  0  0  0  0  0  0
   36.7400   28.0480   44.2870 H   0  0  0  0  0  0  0  0  0  0  0  0
  1  2  1  0  0  0  0
  2  3  2  0  0  0  0
  2  7  1  0  0  0  0
  3  4  1  0  0  0  0
  4  8  1  0  0  0  0
  4  5  2  0  0  0  0
  5  9  1  0  0  0  0
  6 10  1  0  0  0  0
  6  5  1  0  0  0  0
  7  6  2  0  0  0  0
 11  3  1  0  0  0  0
 11 18  1  0  0  0  0
 12 11  1  0  0  0  0
 13 11  1  0  0  0  0
 14 20  1  0  0  0  0
 14 15  1  0  0  0  0
 15 21  1  0  0  0  0
 16 15  2  0  0  0  0
 16 22  1  0  0  0  0
 17 16  1  0  0  0  0
 18 19  1  0  0  0  0
 18 17  2  0  0  0  0
 19 14  2  0  0  0  0
 23  7  1  0  0  0  0
 23 25  1  0  0  0  0
 25 24  2  6  0  0  0
 25 28  1  0  0  0  0
 25 26  1  0  0  0  0
 26 27  1  0  0  0  0
 29 34  1  0  0  0  0
 29 36  1  1  0  0  0
 30 28  1  6  0  0  0
 30 29  1  0  0  0  0
 30 31  1  0  0  0  0
 31 32  1  0  0  0  0
 31 33  1  0  0  0  0
 34 33  1  0  0  0  0
 35 34  1  0  0  0  0
 36 37  1  0  0  0  0
M  END
>  <minimizedAffinity>
-6.02792263

$$$$

 OpenBabel03252502573D

 37 39  0  0  1  0  0  0  0  0999 V2000
   39.2290   29.8990   42.5400 Br  0  0  0  0  0  0  0  0  0  0  0  0
   37.6300   29.7160   41.4620 C   0  0  0  0  0  0  0  0  0  0  0  0
   36.7910   28.6870   41.8160 C   0  0  0  0  0  0  0  0  0  0  0  0
   35.6520   28.5850   41.0190 C   0  0  0  0  0  0  0  0  0  0  0  0
   35.3740   29.4340   39.9610 C   0  0  0  0  0  0  0  0  0  0  0  0
   36.2600   30.4270   39.6800 C   0  0  0  0  0  0  0  0  0  0  0  0
   37.4070   30.5870   40.4260 C   0  0  0  0  0  0  0  0  0  0  0  0
   34.9120   27.8080   41.2030 H   0  0  0  0  0  0  0  0  0  0  0  0
   34.4720   29.3120   39.3720 H   0  0  0  0  0  0  0  0  0  0  0  0
   36.0220   31.0870   38.8420 H   0  0  0  0  0  0  0  0  0  0  0  0
   36.9520   27.7260   42.8920 C   0  0  0  0  0  0  0  0  0  0  0  0
   35.9920   27.5400   43.4090 H   0  0  0  0  0  0  0  0  0  0  0  0
   37.6240   28.1980   43.6650 H   0  0  0  0  0  0  0  0  0  0  0  0
   37.3710   24.1880   41.8230 C   0  0  0  0  0  0  0  0  0  0  0  0
   38.7500   24.0720   41.7000 C   0  0  0  0  0  0  0  0  0  0  0  0
   39.5230   25.1950   41.9790 C   0  0  0  0  0  0  0  0  0  0  0  0
   38.9060   26.3360   42.3550 N   0  0  0  0  0  0  0  0  0  0  0  0
   37.5390   26.4290   42.4720 C   0  0  0  0  0  0  0  0  0  0  0  0
   36.8180   25.3260   42.1940 N   0  0  0  0  0  0  0  0  0  0  0  0
   36.8170   23.2760   41.5920 H   0  0  0  0  0  0  0  0  0  0  0  0
   39.2920   23.1850   41.4040 H   0  0  0  0  0  0  0  0  0  0  0  0
   40.6130   25.2220   41.9160 H   0  0  0  0  0  0  0  0  0  0  0  0
   38.3030   31.6090   40.1230 O   0  0  0  0  0  0  0  0  0  0  0  0
   38.7460   31.8450   37.5620 O   0  0  0  0  0  0  0  0  0  0  0  0
   39.4410   31.5330   38.8740 P   0  0  2  0  0  0  0  0  0  0  0  0
   40.0770   29.9850   38.8580 O   0  0  0  0  0  0  0  0  0  0  0  0
   39.7410   29.4120   38.1260 H   0  0  0  0  0  0  0  0  0  0  0  0
   40.6650   32.6830   39.0850 O   0  0  0  0  0  0  0  0  0  0  0  0
   42.1150   34.0750   37.9210 C   0  0  1  0  0  3  0  0  0  0  0  0
   41.6200   32.6410   38.1090 C   0  0  1  0  0  3  0  0  0  0  0  0
   42.8800   31.9210   38.5210 C   0  0  0  0  0  3  0  0  0  0  0  0
   43.0700   31.0510   37.8300 H   0  0  0  0  0  0  0  0  0  0  0  0
   43.9250   32.8060   38.2580 O   0  0  0  0  0  0  0  0  0  0  0  0
   43.4050   34.0060   38.7430 C   0  0  0  0  0  3  0  0  0  0  0  0
   43.1630   33.8300   39.8240 H   0  0  0  0  0  0  0  0  0  0  0  0
   42.4780   34.2550   36.6000 O   0  0  0  0  0  0  0  0  0  0  0  0
   43.1610   33.5390   36.4110 H   0  0  0  0  0  0  0  0  0  0  0  0
  2  3  1  0  0  0  0
  2  1  1  0  0  0  0
  3 11  1  0  0  0  0
  4  8  1  0  0  0  0
  4  3  2  0  0  0  0
  5  4  1  0  0  0  0
  6  5  2  0  0  0  0
  6  7  1  0  0  0  0
  7  2  2  0  0  0  0
  9  5  1  0  0  0  0
 10  6  1  0  0  0  0
 11 12  1  0  0  0  0
 11 13  1  0  0  0  0
 14 19  1  0  0  0  0
 15 14  2  0  0  0  0
 15 16  1  0  0  0  0
 16 17  2  0  0  0  0
 17 18  1  0  0  0  0
 18 11  1  0  0  0  0
 19 18  2  0  0  0  0
 20 14  1  0  0  0  0
 21 15  1  0  0  0  0
 22 16  1  0  0  0  0
 23  7  1  0  0  0  0
 25 24  2  6  0  0  0
 25 28  1  0  0  0  0
 25 23  1  0  0  0  0
 26 25  1  0  0  0  0
 27 26  1  0  0  0  0
 29 36  1  6  0  0  0
 29 30  1  0  0  0  0
 29 34  1  0  0  0  0
 30 31  1  0  0  0  0
 30 28  1  1  0  0  0
 32 31  1  0  0  0  0
 33 31  1  0  0  0  0
 33 34  1  0  0  0  0
 34 35  1  0  0  0  0
 37 36  1  0  0  0  0
M  END
>  <minimizedAffinity>
-5.87601852

$$$$

 OpenBabel03252502573D

 37 39  0  0  1  0  0  0  0  0999 V2000
   37.3300   28.1200   43.5690 Br  0  0  0  0  0  0  0  0  0  0  0  0
   36.9180   27.7430   41.7150 C   0  0  0  0  0  0  0  0  0  0  0  0
   36.4880   28.8170   40.9730 C   0  0  0  0  0  0  0  0  0  0  0  0
   36.2010   28.5090   39.6450 C   0  0  0  0  0  0  0  0  0  0  0  0
   36.3290   27.2410   39.1030 C   0  0  0  0  0  0  0  0  0  0  0  0
   36.7620   26.2350   39.9100 C   0  0  0  0  0  0  0  0  0  0  0  0
   37.0640   26.4670   41.2340 C   0  0  0  0  0  0  0  0  0  0  0  0
   35.8520   29.2780   38.9580 H   0  0  0  0  0  0  0  0  0  0  0  0
   36.0920   27.0540   38.0610 H   0  0  0  0  0  0  0  0  0  0  0  0
   36.8570   25.2420   39.4640 H   0  0  0  0  0  0  0  0  0  0  0  0
   36.3070   30.1910   41.4030 C   0  0  0  0  0  0  0  0  0  0  0  0
   36.2190   30.2580   42.5040 H   0  0  0  0  0  0  0  0  0  0  0  0
   35.3130   30.5410   41.0000 H   0  0  0  0  0  0  0  0  0  0  0  0
   38.1070   32.9950   39.7500 C   0  0  0  0  0  0  0  0  0  0  0  0
   39.4220   32.7860   40.1490 C   0  0  0  0  0  0  0  0  0  0  0  0
   39.6830   31.6970   40.9750 C   0  0  0  0  0  0  0  0  0  0  0  0
   38.6600   30.8990   41.3490 N   0  0  0  0  0  0  0  0  0  0  0  0
   37.3660   31.1230   40.9410 C   0  0  0  0  0  0  0  0  0  0  0  0
   37.1440   32.1850   40.1420 N   0  0  0  0  0  0  0  0  0  0  0  0
   37.9620   33.8620   39.1030 H   0  0  0  0  0  0  0  0  0  0  0  0
   40.2750   33.3930   39.8800 H   0  0  0  0  0  0  0  0  0  0  0  0
   40.6750   31.4350   41.3510 H   0  0  0  0  0  0  0  0  0  0  0  0
   37.5040   25.4250   42.0450 O   0  0  0  0  0  0  0  0  0  0  0  0
   39.2220   24.0150   40.6760 O   0  0  0  0  0  0  0  0  0  0  0  0
   39.0610   24.7670   41.9830 P   0  0  2  0  0  0  0  0  0  0  0  0
   39.2290   23.7340   43.2900 O   0  0  0  0  0  0  0  0  0  0  0  0
   39.1840   22.7730   43.0600 H   0  0  0  0  0  0  0  0  0  0  0  0
   40.2440   25.9770   42.0200 O   0  0  0  0  0  0  0  0  0  0  0  0
   42.4410   25.5240   42.6240 C   0  0  1  0  0  3  0  0  0  0  0  0
   41.0490   25.9130   43.1220 C   0  0  1  0  0  3  0  0  0  0  0  0
   41.3050   27.2530   43.7690 C   0  0  0  0  0  3  0  0  0  0  0  0
   40.9480   27.2390   44.8370 H   0  0  0  0  0  0  0  0  0  0  0  0
   42.6910   27.3660   43.8670 O   0  0  0  0  0  0  0  0  0  0  0  0
   43.1010   26.9060   42.6150 C   0  0  0  0  0  3  0  0  0  0  0  0
   42.6000   27.5670   41.8590 H   0  0  0  0  0  0  0  0  0  0  0  0
   43.0720   24.7740   43.5960 O   0  0  0  0  0  0  0  0  0  0  0  0
   43.0600   25.3450   44.4250 H   0  0  0  0  0  0  0  0  0  0  0  0
  2  1  1  0  0  0  0
  3 11  1  0  0  0  0
  3  2  2  0  0  0  0
  4  3  1  0  0  0  0
  5  4  2  0  0  0  0
  5  6  1  0  0  0  0
  6  7  2  0  0  0  0
  7  2  1  0  0  0  0
  7 23  1  0  0  0  0
  8  4  1  0  0  0  0
  9  5  1  0  0  0  0
 10  6  1  0  0  0  0
 11 12  1  0  0  0  0
 13 11  1  0  0  0  0
 14 19  2  0  0  0  0
 14 15  1  0  0  0  0
 15 16  2  0  0  0  0
 16 17  1  0  0  0  0
 16 22  1  0  0  0  0
 18 17  2  0  0  0  0
 18 11  1  0  0  0  0
 19 18  1  0  0  0  0
 20 14  1  0  0  0  0
 21 15  1  0  0  0  0
 25 24  2  6  0  0  0
 25 28  1  0  0  0  0
 25 23  1  0  0  0  0
 25 26  1  0  0  0  0
 27 26  1  0  0  0  0
 29 30  1  0  0  0  0
 29 36  1  1  0  0  0
 30 28  1  6  0  0  0
 30 31  1  0  0  0  0
 31 33  1  0  0  0  0
 31 32  1  0  0  0  0
 34 29  1  0  0  0  0
 34 33  1  0  0  0  0
 35 34  1  0  0  0  0
 36 37  1  0  0  0  0
M  END
>  <minimizedAffinity>
-5.7475853

$$$$

 OpenBabel03252502573D

 37 39  0  0  1  0  0  0  0  0999 V2000
   35.7790   28.8760   40.7090 Br  0  0  0  0  0  0  0  0  0  0  0  0
   37.3880   29.8290   41.2100 C   0  0  0  0  0  0  0  0  0  0  0  0
   37.9610   29.4410   42.3980 C   0  0  0  0  0  0  0  0  0  0  0  0
   39.1160   30.1480   42.7270 C   0  0  0  0  0  0  0  0  0  0  0  0
   39.6530   31.1540   41.9410 C   0  0  0  0  0  0  0  0  0  0  0  0
   39.0210   31.4740   40.7800 C   0  0  0  0  0  0  0  0  0  0  0  0
   37.8740   30.8170   40.3920 C   0  0  0  0  0  0  0  0  0  0  0  0
   39.6590   29.9300   43.6450 H   0  0  0  0  0  0  0  0  0  0  0  0
   40.5570   31.6740   42.2430 H   0  0  0  0  0  0  0  0  0  0  0  0
   39.4610   32.2700   40.1750 H   0  0  0  0  0  0  0  0  0  0  0  0
   37.5130   28.4120   43.3170 C   0  0  0  0  0  0  0  0  0  0  0  0
   36.4310   28.2150   43.2020 H   0  0  0  0  0  0  0  0  0  0  0  0
   37.6350   28.8190   44.3620 H   0  0  0  0  0  0  0  0  0  0  0  0
   40.0380   25.7160   43.7530 C   0  0  0  0  0  0  0  0  0  0  0  0
   39.5440   24.7060   42.9350 C   0  0  0  0  0  0  0  0  0  0  0  0
   38.3600   24.9500   42.2460 C   0  0  0  0  0  0  0  0  0  0  0  0
   37.7490   26.1450   42.4000 N   0  0  0  0  0  0  0  0  0  0  0  0
   38.2560   27.1310   43.2120 C   0  0  0  0  0  0  0  0  0  0  0  0
   39.4020   26.8650   43.8670 N   0  0  0  0  0  0  0  0  0  0  0  0
   40.9680   25.4680   44.2670 H   0  0  0  0  0  0  0  0  0  0  0  0
   39.9930   23.7350   42.7790 H   0  0  0  0  0  0  0  0  0  0  0  0
   37.8790   24.2320   41.5780 H   0  0  0  0  0  0  0  0  0  0  0  0
   37.2410   31.1580   39.2010 O   0  0  0  0  0  0  0  0  0  0  0  0
   38.8550   29.6170   37.8480 O   0  0  0  0  0  0  0  0  0  0  0  0
   37.7490   30.6410   37.6730 P   0  0  2  0  0  0  0  0  0  0  0  0
   38.3070   31.9820   36.8410 O   0  0  0  0  0  0  0  0  0  0  0  0
   39.2910   32.0420   36.7710 H   0  0  0  0  0  0  0  0  0  0  0  0
   36.4910   29.8890   36.8260 O   0  0  0  0  0  0  0  0  0  0  0  0
   36.4360   27.7540   35.9140 C   0  0  1  0  0  3  0  0  0  0  0  0
   36.9170   29.1940   35.7300 C   0  0  1  0  0  3  0  0  0  0  0  0
   36.2330   29.5980   34.4480 C   0  0  0  0  0  3  0  0  0  0  0  0
   36.9950   29.9590   33.7010 H   0  0  0  0  0  0  0  0  0  0  0  0
   35.7380   28.4170   33.8950 O   0  0  0  0  0  0  0  0  0  0  0  0
   35.1960   27.7870   35.0150 C   0  0  0  0  0  3  0  0  0  0  0  0
   34.4340   28.4960   35.4360 H   0  0  0  0  0  0  0  0  0  0  0  0
   37.3460   26.8980   35.3250 O   0  0  0  0  0  0  0  0  0  0  0  0
   37.4220   27.2040   34.3690 H   0  0  0  0  0  0  0  0  0  0  0  0
  1  2  1  0  0  0  0
  2  3  1  0  0  0  0
  3  4  2  0  0  0  0
  3 11  1  0  0  0  0
  4  8  1  0  0  0  0
  5  9  1  0  0  0  0
  5  4  1  0  0  0  0
  6  5  2  0  0  0  0
  7  6  1  0  0  0  0
  7  2  2  0  0  0  0
 10  6  1  0  0  0  0
 11 13  1  0  0  0  0
 12 11  1  0  0  0  0
 14 19  1  0  0  0  0
 14 20  1  0  0  0  0
 15 14  2  0  0  0  0
 16 17  2  0  0  0  0
 16 15  1  0  0  0  0
 17 18  1  0  0  0  0
 18 11  1  0  0  0  0
 18 19  2  0  0  0  0
 21 15  1  0  0  0  0
 22 16  1  0  0  0  0
 23  7  1  0  0  0  0
 25 24  2  1  0  0  0
 25 23  1  0  0  0  0
 26 25  1  0  0  0  0
 27 26  1  0  0  0  0
 28 25  1  0  0  0  0
 29 36  1  6  0  0  0
 30 29  1  0  0  0  0
 30 28  1  1  0  0  0
 31 30  1  0  0  0  0
 32 31  1  0  0  0  0
 33 31  1  0  0  0  0
 33 34  1  0  0  0  0
 34 35  1  0  0  0  0
 34 29  1  0  0  0  0
 37 36  1  0  0  0  0
M  END
>  <minimizedAffinity>
-5.64289713

$$$$

 OpenBabel03252502573D

 37 39  0  0  1  0  0  0  0  0999 V2000
   40.1680   26.3950   41.0420 Br  0  0  0  0  0  0  0  0  0  0  0  0
   38.7500   26.9870   42.2200 C   0  0  0  0  0  0  0  0  0  0  0  0
   37.6180   26.2080   42.2250 C   0  0  0  0  0  0  0  0  0  0  0  0
   36.6200   26.6650   43.0830 C   0  0  0  0  0  0  0  0  0  0  0  0
   36.7380   27.8000   43.8660 C   0  0  0  0  0  0  0  0  0  0  0  0
   37.8940   28.5140   43.8000 C   0  0  0  0  0  0  0  0  0  0  0  0
   38.9240   28.1210   42.9730 C   0  0  0  0  0  0  0  0  0  0  0  0
   35.6760   26.1290   43.1730 H   0  0  0  0  0  0  0  0  0  0  0  0
   35.9290   28.1130   44.5190 H   0  0  0  0  0  0  0  0  0  0  0  0
   37.9670   29.4050   44.4270 H   0  0  0  0  0  0  0  0  0  0  0  0
   37.3550   25.0010   41.4630 C   0  0  0  0  0  0  0  0  0  0  0  0
   36.7810   24.2680   42.0600 H   0  0  0  0  0  0  0  0  0  0  0  0
   38.3500   24.5100   41.2580 H   0  0  0  0  0  0  0  0  0  0  0  0
   35.9640   26.5950   38.4030 C   0  0  0  0  0  0  0  0  0  0  0  0
   35.3330   25.5310   37.7700 C   0  0  0  0  0  0  0  0  0  0  0  0
   35.3870   24.2850   38.3870 C   0  0  0  0  0  0  0  0  0  0  0  0
   36.0420   24.1650   39.5610 N   0  0  0  0  0  0  0  0  0  0  0  0
   36.6590   25.2310   40.1720 C   0  0  0  0  0  0  0  0  0  0  0  0
   36.5900   26.4240   39.5500 N   0  0  0  0  0  0  0  0  0  0  0  0
   35.8880   27.5470   37.8750 H   0  0  0  0  0  0  0  0  0  0  0  0
   34.7970   25.5740   36.8320 H   0  0  0  0  0  0  0  0  0  0  0  0
   34.9290   23.3790   37.9820 H   0  0  0  0  0  0  0  0  0  0  0  0
   40.0990   28.8640   42.9170 O   0  0  0  0  0  0  0  0  0  0  0  0
   41.7040   30.3350   41.4790 O   0  0  0  0  0  0  0  0  0  0  0  0
   40.2840   30.2790   42.0090 P   0  0  2  0  0  0  0  0  0  0  0  0
   39.9740   31.5770   43.0200 O   0  0  0  0  0  0  0  0  0  0  0  0
   40.7800   32.0680   43.3150 H   0  0  0  0  0  0  0  0  0  0  0  0
   39.2430   30.2960   40.6750 O   0  0  0  0  0  0  0  0  0  0  0  0
   37.8840   32.0250   39.9260 C   0  0  1  0  0  3  0  0  0  0  0  0
   38.0400   30.8870   40.9360 C   0  0  1  0  0  3  0  0  0  0  0  0
   36.8500   30.0140   40.6180 C   0  0  0  0  0  3  0  0  0  0  0  0
   36.2320   29.8530   41.5450 H   0  0  0  0  0  0  0  0  0  0  0  0
   36.0330   30.7770   39.7840 O   0  0  0  0  0  0  0  0  0  0  0  0
   36.9660   31.3360   38.9110 C   0  0  0  0  0  3  0  0  0  0  0  0
   37.5020   30.4750   38.4300 H   0  0  0  0  0  0  0  0  0  0  0  0
   37.1590   33.0460   40.5080 O   0  0  0  0  0  0  0  0  0  0  0  0
   36.2970   32.6230   40.8110 H   0  0  0  0  0  0  0  0  0  0  0  0
  1  2  1  0  0  0  0
  2  3  2  0  0  0  0
  2  7  1  0  0  0  0
  3  4  1  0  0  0  0
  4  8  1  0  0  0  0
  4  5  2  0  0  0  0
  5  9  1  0  0  0  0
  6  5  1  0  0  0  0
  6 10  1  0  0  0  0
  7  6  2  0  0  0  0
 11 12  1  0  0  0  0
 11  3  1  0  0  0  0
 13 11  1  0  0  0  0
 14 19  1  0  0  0  0
 15 16  1  0  0  0  0
 15 14  2  0  0  0  0
 16 17  2  0  0  0  0
 17 18  1  0  0  0  0
 18 11  1  0  0  0  0
 19 18  2  0  0  0  0
 20 14  1  0  0  0  0
 21 15  1  0  0  0  0
 22 16  1  0  0  0  0
 23  7  1  0  0  0  0
 25 24  2  6  0  0  0
 25 23  1  0  0  0  0
 25 26  1  0  0  0  0
 26 27  1  0  0  0  0
 28 25  1  0  0  0  0
 29 36  1  1  0  0  0
 29 30  1  0  0  0  0
 30 28  1  6  0  0  0
 31 30  1  0  0  0  0
 31 32  1  0  0  0  0
 33 31  1  0  0  0  0
 34 33  1  0  0  0  0
 34 29  1  0  0  0  0
 35 34  1  0  0  0  0
 36 37  1  0  0  0  0
M  END
>  <minimizedAffinity>
-5.54766512

$$$$

 OpenBabel03252502573D

 37 39  0  0  1  0  0  0  0  0999 V2000
   41.8030   29.0430   42.5900 Br  0  0  0  0  0  0  0  0  0  0  0  0
   39.9400   28.6500   42.9400 C   0  0  0  0  0  0  0  0  0  0  0  0
   39.0520   29.6450   42.6100 C   0  0  0  0  0  0  0  0  0  0  0  0
   37.7210   29.3280   42.8760 C   0  0  0  0  0  0  0  0  0  0  0  0
   37.3110   28.1250   43.4240 C   0  0  0  0  0  0  0  0  0  0  0  0
   38.2580   27.1940   43.7210 C   0  0  0  0  0  0  0  0  0  0  0  0
   39.5930   27.4390   43.4850 C   0  0  0  0  0  0  0  0  0  0  0  0
   36.9260   30.0380   42.6560 H   0  0  0  0  0  0  0  0  0  0  0  0
   36.2600   27.9280   43.6110 H   0  0  0  0  0  0  0  0  0  0  0  0
   37.9130   26.2510   44.1520 H   0  0  0  0  0  0  0  0  0  0  0  0
   39.3350   30.9470   42.0330 C   0  0  0  0  0  0  0  0  0  0  0  0
   40.4240   31.1040   41.9150 H   0  0  0  0  0  0  0  0  0  0  0  0
   38.9980   31.7240   42.7780 H   0  0  0  0  0  0  0  0  0  0  0  0
   38.1350   30.6420   38.5260 C   0  0  0  0  0  0  0  0  0  0  0  0
   37.3610   31.7850   38.3720 C   0  0  0  0  0  0  0  0  0  0  0  0
   37.2530   32.6470   39.4600 C   0  0  0  0  0  0  0  0  0  0  0  0
   37.8990   32.3380   40.6050 N   0  0  0  0  0  0  0  0  0  0  0  0
   38.6620   31.2020   40.7360 C   0  0  0  0  0  0  0  0  0  0  0  0
   38.7460   30.3870   39.6660 N   0  0  0  0  0  0  0  0  0  0  0  0
   38.1840   30.0050   37.6410 H   0  0  0  0  0  0  0  0  0  0  0  0
   36.8240   32.0780   37.4810 H   0  0  0  0  0  0  0  0  0  0  0  0
   36.6720   33.5720   39.4560 H   0  0  0  0  0  0  0  0  0  0  0  0
   40.5470   26.4760   43.7960 O   0  0  0  0  0  0  0  0  0  0  0  0
   39.8860   24.0710   43.0260 O   0  0  0  0  0  0  0  0  0  0  0  0
   40.9230   25.1570   42.8060 P   0  0  2  0  0  0  0  0  0  0  0  0
   42.4490   24.6200   43.2320 O   0  0  0  0  0  0  0  0  0  0  0  0
   42.4570   23.7860   43.7630 H   0  0  0  0  0  0  0  0  0  0  0  0
   40.8710   25.5820   41.1680 O   0  0  0  0  0  0  0  0  0  0  0  0
   39.4620   26.8540   39.8290 C   0  0  1  0  0  3  0  0  0  0  0  0
   39.6090   25.5700   40.6460 C   0  0  1  0  0  3  0  0  0  0  0  0
   39.3920   24.5010   39.6030 C   0  0  0  0  0  3  0  0  0  0  0  0
   38.5600   23.8130   39.9230 H   0  0  0  0  0  0  0  0  0  0  0  0
   38.8840   25.1620   38.4850 O   0  0  0  0  0  0  0  0  0  0  0  0
   39.7050   26.2880   38.4260 C   0  0  0  0  0  3  0  0  0  0  0  0
   40.7570   25.9060   38.3420 H   0  0  0  0  0  0  0  0  0  0  0  0
   38.1470   27.2710   39.8810 O   0  0  0  0  0  0  0  0  0  0  0  0
   37.6050   26.4890   39.5500 H   0  0  0  0  0  0  0  0  0  0  0  0
  1  2  1  0  0  0  0
  2  7  1  0  0  0  0
  3  4  1  0  0  0  0
  3  2  2  0  0  0  0
  4  5  2  0  0  0  0
  5  9  1  0  0  0  0
  5  6  1  0  0  0  0
  6 10  1  0  0  0  0
  7  6  2  0  0  0  0
  7 23  1  0  0  0  0
  8  4  1  0  0  0  0
 11  3  1  0  0  0  0
 11 13  1  0  0  0  0
 12 11  1  0  0  0  0
 14 19  1  0  0  0  0
 15 14  2  0  0  0  0
 15 16  1  0  0  0  0
 16 17  2  0  0  0  0
 17 18  1  0  0  0  0
 18 11  1  0  0  0  0
 19 18  2  0  0  0  0
 20 14  1  0  0  0  0
 21 15  1  0  0  0  0
 22 16  1  0  0  0  0
 25 24  2  1  0  0  0
 25 26  1  0  0  0  0
 25 23  1  0  0  0  0
 26 27  1  0  0  0  0
 28 25  1  0  0  0  0
 29 36  1  6  0  0  0
 29 30  1  0  0  0  0
 30 28  1  6  0  0  0
 31 32  1  0  0  0  0
 31 30  1  0  0  0  0
 33 31  1  0  0  0  0
 34 33  1  0  0  0  0
 34 29  1  0  0  0  0
 35 34  1  0  0  0  0
 37 36  1  0  0  0  0
M  END
>  <minimizedAffinity>
-5.41721964

$$$$

 OpenBabel03252502573D

 37 39  0  0  1  0  0  0  0  0999 V2000
   39.5780   27.9980   39.5210 Br  0  0  0  0  0  0  0  0  0  0  0  0
   38.6050   28.1730   41.1850 C   0  0  0  0  0  0  0  0  0  0  0  0
   37.3550   27.6020   41.2050 C   0  0  0  0  0  0  0  0  0  0  0  0
   36.6840   27.7490   42.4170 C   0  0  0  0  0  0  0  0  0  0  0  0
   37.2120   28.4080   43.5150 C   0  0  0  0  0  0  0  0  0  0  0  0
   38.4580   28.9440   43.4090 C   0  0  0  0  0  0  0  0  0  0  0  0
   39.1790   28.8370   42.2400 C   0  0  0  0  0  0  0  0  0  0  0  0
   35.6850   27.3380   42.5530 H   0  0  0  0  0  0  0  0  0  0  0  0
   36.6470   28.4930   44.4370 H   0  0  0  0  0  0  0  0  0  0  0  0
   38.8560   29.4590   44.2860 H   0  0  0  0  0  0  0  0  0  0  0  0
   36.6780   26.8870   40.1390 C   0  0  0  0  0  0  0  0  0  0  0  0
   36.9400   27.3030   39.1480 H   0  0  0  0  0  0  0  0  0  0  0  0
   35.5710   27.0720   40.2610 H   0  0  0  0  0  0  0  0  0  0  0  0
   37.7900   23.4600   41.0620 C   0  0  0  0  0  0  0  0  0  0  0  0
   37.3080   22.6930   40.0080 C   0  0  0  0  0  0  0  0  0  0  0  0
   36.6100   23.3460   38.9970 C   0  0  0  0  0  0  0  0  0  0  0  0
   36.4340   24.6820   39.0820 N   0  0  0  0  0  0  0  0  0  0  0  0
   36.9210   25.4230   40.1330 C   0  0  0  0  0  0  0  0  0  0  0  0
   37.5920   24.7620   41.0960 N   0  0  0  0  0  0  0  0  0  0  0  0
   38.3300   22.8950   41.8240 H   0  0  0  0  0  0  0  0  0  0  0  0
   37.4210   21.6240   39.8930 H   0  0  0  0  0  0  0  0  0  0  0  0
   36.1860   22.8470   38.1220 H   0  0  0  0  0  0  0  0  0  0  0  0
   40.4510   29.3930   42.1500 O   0  0  0  0  0  0  0  0  0  0  0  0
   41.6620   31.1800   40.6830 O   0  0  0  0  0  0  0  0  0  0  0  0
   40.7530   31.0370   41.8890 P   0  0  2  0  0  0  0  0  0  0  0  0
   41.4870   31.6440   43.2650 O   0  0  0  0  0  0  0  0  0  0  0  0
   42.4590   31.8020   43.1740 H   0  0  0  0  0  0  0  0  0  0  0  0
   39.3240   31.8790   41.5490 O   0  0  0  0  0  0  0  0  0  0  0  0
   38.5010   32.2910   39.4160 C   0  0  1  0  0  3  0  0  0  0  0  0
   39.4520   32.7650   40.5170 C   0  0  1  0  0  3  0  0  0  0  0  0
   38.9190   34.1420   40.8270 C   0  0  0  0  0  3  0  0  0  0  0  0
   39.7400   34.9060   40.7200 H   0  0  0  0  0  0  0  0  0  0  0  0
   38.0280   34.4440   39.7970 O   0  0  0  0  0  0  0  0  0  0  0  0
   37.3290   33.2440   39.6700 C   0  0  0  0  0  3  0  0  0  0  0  0
   36.8750   33.0360   40.6750 H   0  0  0  0  0  0  0  0  0  0  0  0
   39.0390   32.6200   38.1880 O   0  0  0  0  0  0  0  0  0  0  0  0
   39.1930   33.6150   38.2200 H   0  0  0  0  0  0  0  0  0  0  0  0
  1  2  1  0  0  0  0
  2  3  2  0  0  0  0
  2  7  1  0  0  0  0
  3  4  1  0  0  0  0
  4  8  1  0  0  0  0
  4  5  2  0  0  0  0
  5  9  1  0  0  0  0
  6  5  1  0  0  0  0
  6 10  1  0  0  0  0
  7  6  2  0  0  0  0
 11 13  1  0  0  0  0
 11  3  1  0  0  0  0
 12 11  1  0  0  0  0
 14 19  1  0  0  0  0
 14 20  1  0  0  0  0
 15 14  2  0  0  0  0
 16 17  2  0  0  0  0
 16 15  1  0  0  0  0
 17 18  1  0  0  0  0
 18 11  1  0  0  0  0
 18 19  2  0  0  0  0
 21 15  1  0  0  0  0
 22 16  1  0  0  0  0
 23  7  1  0  0  0  0
 25 24  2  6  0  0  0
 25 23  1  0  0  0  0
 25 26  1  0  0  0  0
 27 26  1  0  0  0  0
 28 25  1  0  0  0  0
 29 36  1  6  0  0  0
 29 34  1  0  0  0  0
 29 30  1  0  0  0  0
 30 31  1  0  0  0  0
 30 28  1  1  0  0  0
 32 31  1  0  0  0  0
 33 31  1  0  0  0  0
 34 33  1  0  0  0  0
 34 35  1  0  0  0  0
 36 37  1  0  0  0  0
M  END
>  <minimizedAffinity>
-5.41374636

$$$$

 OpenBabel03252502573D

 37 39  0  0  1  0  0  0  0  0999 V2000
   39.8680   29.2200   38.2720 Br  0  0  0  0  0  0  0  0  0  0  0  0
   38.1670   29.6280   39.1030 C   0  0  0  0  0  0  0  0  0  0  0  0
   37.3450   28.5520   39.3320 C   0  0  0  0  0  0  0  0  0  0  0  0
   36.1310   28.8830   39.9300 C   0  0  0  0  0  0  0  0  0  0  0  0
   35.7670   30.1750   40.2700 C   0  0  0  0  0  0  0  0  0  0  0  0
   36.6430   31.1830   40.0070 C   0  0  0  0  0  0  0  0  0  0  0  0
   37.8620   30.9290   39.4180 C   0  0  0  0  0  0  0  0  0  0  0  0
   35.3960   28.1140   40.1610 H   0  0  0  0  0  0  0  0  0  0  0  0
   34.8080   30.3800   40.7350 H   0  0  0  0  0  0  0  0  0  0  0  0
   36.3370   32.1950   40.2840 H   0  0  0  0  0  0  0  0  0  0  0  0
   37.5910   27.1530   39.0310 C   0  0  0  0  0  0  0  0  0  0  0  0
   38.3890   27.0410   38.2730 H   0  0  0  0  0  0  0  0  0  0  0  0
   36.6570   26.7440   38.5480 H   0  0  0  0  0  0  0  0  0  0  0  0
   39.3850   25.5720   41.8800 C   0  0  0  0  0  0  0  0  0  0  0  0
   38.4190   24.7260   42.4110 C   0  0  0  0  0  0  0  0  0  0  0  0
   37.1700   24.7020   41.7990 C   0  0  0  0  0  0  0  0  0  0  0  0
   36.9530   25.4920   40.7260 N   0  0  0  0  0  0  0  0  0  0  0  0
   37.9230   26.3210   40.2140 C   0  0  0  0  0  0  0  0  0  0  0  0
   39.1220   26.3230   40.8290 N   0  0  0  0  0  0  0  0  0  0  0  0
   40.3450   25.5480   42.4000 H   0  0  0  0  0  0  0  0  0  0  0  0
   38.5410   24.0750   43.2660 H   0  0  0  0  0  0  0  0  0  0  0  0
   36.3360   24.0780   42.1290 H   0  0  0  0  0  0  0  0  0  0  0  0
   38.7440   31.9720   39.1560 O   0  0  0  0  0  0  0  0  0  0  0  0
   39.7660   32.1940   41.5470 O   0  0  0  0  0  0  0  0  0  0  0  0
   39.3580   33.0140   40.3380 P   0  0  2  0  0  0  0  0  0  0  0  0
   38.1500   34.1020   40.7350 O   0  0  0  0  0  0  0  0  0  0  0  0
   37.7110   33.9280   41.6040 H   0  0  0  0  0  0  0  0  0  0  0  0
   40.7380   33.8250   39.7880 O   0  0  0  0  0  0  0  0  0  0  0  0
   42.2280   34.2880   38.0660 C   0  0  1  0  0  3  0  0  0  0  0  0
   41.3100   33.2380   38.6940 C   0  0  1  0  0  3  0  0  0  0  0  0
   42.2780   32.1310   39.0340 C   0  0  0  0  0  3  0  0  0  0  0  0
   41.9410   31.1670   38.5600 H   0  0  0  0  0  0  0  0  0  0  0  0
   43.4630   32.4480   38.3700 O   0  0  0  0  0  0  0  0  0  0  0  0
   43.5720   33.8150   38.6270 C   0  0  0  0  0  3  0  0  0  0  0  0
   43.5830   33.9250   39.7440 H   0  0  0  0  0  0  0  0  0  0  0  0
   42.2620   34.0930   36.6990 O   0  0  0  0  0  0  0  0  0  0  0  0
   42.5550   33.1380   36.5720 H   0  0  0  0  0  0  0  0  0  0  0  0
  1  2  1  0  0  0  0
  2  3  2  0  0  0  0
  2  7  1  0  0  0  0
  3  4  1  0  0  0  0
  4  8  1  0  0  0  0
  4  5  2  0  0  0  0
  5  9  1  0  0  0  0
  6  5  1  0  0  0  0
  6 10  1  0  0  0  0
  7  6  2  0  0  0  0
 11  3  1  0  0  0  0
 11 18  1  0  0  0  0
 12 11  1  0  0  0  0
 13 11  1  0  0  0  0
 14 20  1  0  0  0  0
 14 15  1  0  0  0  0
 15 21  1  0  0  0  0
 16 22  1  0  0  0  0
 16 15  2  0  0  0  0
 17 16  1  0  0  0  0
 18 17  2  0  0  0  0
 18 19  1  0  0  0  0
 19 14  2  0  0  0  0
 23  7  1  0  0  0  0
 23 25  1  0  0  0  0
 25 26  1  0  0  0  0
 25 24  2  1  0  0  0
 26 27  1  0  0  0  0
 28 25  1  0  0  0  0
 29 36  1  6  0  0  0
 29 34  1  0  0  0  0
 29 30  1  0  0  0  0
 30 31  1  0  0  0  0
 30 28  1  1  0  0  0
 32 31  1  0  0  0  0
 33 34  1  0  0  0  0
 33 31  1  0  0  0  0
 34 35  1  0  0  0  0
 37 36  1  0  0  0  0
M  END
>  <minimizedAffinity>
-5.41344929

$$$$
