
 OpenBabel03242515293D

 32 34  0  0  1  0  0  0  0  0999 V2000
   40.0580   28.2660   41.8360 C   0  0  0  0  0  0  0  0  0  0  0  0
   39.0380   28.1740   42.8130 C   0  0  0  0  0  0  0  0  0  0  0  0
   38.1540   29.2380   42.8910 C   0  0  0  0  0  0  0  0  0  0  0  0
   38.2940   30.2840   42.0630 N   0  0  0  0  0  0  0  0  0  0  0  0
   39.2970   30.3150   41.1440 C   0  0  0  0  0  0  0  0  0  0  0  0
   40.1980   29.3170   41.0040 N   0  0  0  0  0  0  0  0  0  0  0  0
   40.7740   27.4670   41.7290 H   0  0  0  0  0  0  0  0  0  0  0  0
   37.3850   29.1460   43.6430 H   0  0  0  0  0  0  0  0  0  0  0  0
   39.0330   26.9650   43.6450 C   0  0  0  0  0  0  0  0  0  0  0  0
   39.9920   26.8120   44.1300 H   0  0  0  0  0  0  0  0  0  0  0  0
   38.3090   27.1640   44.4890 H   0  0  0  0  0  0  0  0  0  0  0  0
   38.5590   25.8650   42.8370 N   0  0  0  0  0  0  0  0  0  0  0  0
   37.3490   25.8830   42.2970 C   0  0  0  0  0  0  0  0  0  0  0  0
   36.9560   24.8050   41.5410 C   0  0  0  0  0  0  0  0  0  0  0  0
   37.7790   23.7230   41.3330 C   0  0  0  0  0  0  0  0  0  0  0  0
   37.3790   22.7680   40.6390 O   0  0  0  0  0  0  0  0  0  0  0  0
   39.0040   23.7330   41.8940 N   0  0  0  0  0  0  0  0  0  0  0  0
   39.3940   24.7940   42.6410 C   0  0  0  0  0  0  0  0  0  0  0  0
   40.5600   24.7410   43.1400 O   0  0  0  0  0  0  0  0  0  0  0  0
   36.6670   26.7060   42.4310 H   0  0  0  0  0  0  0  0  0  0  0  0
   35.9700   24.8130   41.0980 H   0  0  0  0  0  0  0  0  0  0  0  0
   39.6480   22.9200   41.7490 H   0  0  0  0  0  0  0  0  0  0  0  0
   39.4230   31.4110   40.3050 O   0  0  0  0  0  0  0  0  0  0  0  0
   37.2540   32.0310   39.3070 C   0  0  1  0  0  3  0  0  0  0  0  0
   38.6960   31.7790   39.2190 C   0  0  2  0  0  3  0  0  0  0  0  0
   38.7580   30.6600   38.1910 C   0  0  0  0  0  3  0  0  0  0  0  0
   39.5830   29.9370   38.4470 H   0  0  0  0  0  0  0  0  0  0  0  0
   37.5840   29.9380   38.3270 O   0  0  0  0  0  0  0  0  0  0  0  0
   36.6210   30.7460   38.8930 C   0  0  0  0  0  3  0  0  0  0  0  0
   35.8220   30.8860   38.1090 H   0  0  0  0  0  0  0  0  0  0  0  0
   36.7880   32.5590   40.4940 O   0  0  0  0  0  0  0  0  0  0  0  0
   37.0140   33.5150   40.5200 H   0  0  0  0  0  0  0  0  0  0  0  0
  1  2  1  0  0  0  0
  2  3  2  0  0  0  0
  2  9  1  0  0  0  0
  3  8  1  0  0  0  0
  4  3  1  0  0  0  0
  5  4  2  0  0  0  0
  6  5  1  0  0  0  0
  6  1  2  0  0  0  0
  7  1  1  0  0  0  0
  9 10  1  0  0  0  0
  9 11  1  0  0  0  0
 12  9  1  0  0  0  0
 13 20  1  0  0  0  0
 13 12  1  0  0  0  0
 14 13  2  0  0  0  0
 15 14  1  0  0  0  0
 15 17  1  0  0  0  0
 16 15  2  0  0  0  0
 17 18  1  0  0  0  0
 18 12  1  0  0  0  0
 18 19  2  0  0  0  0
 21 14  1  0  0  0  0
 22 17  1  0  0  0  0
 23  5  1  0  0  0  0
 24 31  1  1  0  0  0
 25 24  1  0  0  0  0
 25 23  1  1  0  0  0
 26 28  1  0  0  0  0
 26 27  1  0  0  0  0
 26 25  1  0  0  0  0
 28 29  1  0  0  0  0
 29 24  1  0  0  0  0
 30 29  1  0  0  0  0
 31 32  1  0  0  0  0
M  END
>  <minimizedAffinity>
-5.48840618

$$$$

 OpenBabel03242515293D

 32 34  0  0  1  0  0  0  0  0999 V2000
   36.9280   30.1660   38.8510 C   0  0  0  0  0  0  0  0  0  0  0  0
   36.2630   30.0580   40.0950 C   0  0  0  0  0  0  0  0  0  0  0  0
   36.5070   31.0600   41.0210 C   0  0  0  0  0  0  0  0  0  0  0  0
   37.3410   32.0640   40.7110 N   0  0  0  0  0  0  0  0  0  0  0  0
   37.9520   32.1120   39.4970 C   0  0  0  0  0  0  0  0  0  0  0  0
   37.7650   31.1760   38.5410 N   0  0  0  0  0  0  0  0  0  0  0  0
   36.7750   29.4150   38.0920 H   0  0  0  0  0  0  0  0  0  0  0  0
   35.9890   30.9570   41.9620 H   0  0  0  0  0  0  0  0  0  0  0  0
   35.3930   28.8900   40.2750 C   0  0  0  0  0  0  0  0  0  0  0  0
   34.4720   29.1540   40.7860 H   0  0  0  0  0  0  0  0  0  0  0  0
   35.0690   28.5730   39.2400 H   0  0  0  0  0  0  0  0  0  0  0  0
   36.1710   27.8400   40.8910 N   0  0  0  0  0  0  0  0  0  0  0  0
   36.4920   27.8880   42.1760 C   0  0  0  0  0  0  0  0  0  0  0  0
   37.2350   26.8590   42.7020 C   0  0  0  0  0  0  0  0  0  0  0  0
   37.6470   25.7940   41.9360 C   0  0  0  0  0  0  0  0  0  0  0  0
   38.3200   24.8830   42.4570 O   0  0  0  0  0  0  0  0  0  0  0  0
   37.3050   25.7720   40.6330 N   0  0  0  0  0  0  0  0  0  0  0  0
   36.5730   26.7850   40.1110 C   0  0  0  0  0  0  0  0  0  0  0  0
   36.2840   26.7030   38.8780 O   0  0  0  0  0  0  0  0  0  0  0  0
   36.1930   28.7000   42.8180 H   0  0  0  0  0  0  0  0  0  0  0  0
   37.5010   26.8920   43.7490 H   0  0  0  0  0  0  0  0  0  0  0  0
   37.6080   24.9700   40.0300 H   0  0  0  0  0  0  0  0  0  0  0  0
   38.8140   33.1580   39.2060 O   0  0  0  0  0  0  0  0  0  0  0  0
   40.8170   32.4890   37.9290 C   0  0  1  0  0  3  0  0  0  0  0  0
   40.1630   33.1720   39.0510 C   0  0  2  0  0  3  0  0  0  0  0  0
   40.7970   32.4850   40.2500 C   0  0  0  0  0  3  0  0  0  0  0  0
   40.0450   32.3750   41.0820 H   0  0  0  0  0  0  0  0  0  0  0  0
   41.0910   31.1920   39.8510 O   0  0  0  0  0  0  0  0  0  0  0  0
   41.2180   31.1630   38.4780 C   0  0  0  0  0  3  0  0  0  0  0  0
   42.2960   30.9080   38.2640 H   0  0  0  0  0  0  0  0  0  0  0  0
   40.1200   32.4460   36.7390 O   0  0  0  0  0  0  0  0  0  0  0  0
   40.1800   33.3280   36.3100 H   0  0  0  0  0  0  0  0  0  0  0  0
  1  2  1  0  0  0  0
  2  9  1  0  0  0  0
  2  3  2  0  0  0  0
  3  8  1  0  0  0  0
  4  3  1  0  0  0  0
  5  4  2  0  0  0  0
  6  1  2  0  0  0  0
  6  5  1  0  0  0  0
  7  1  1  0  0  0  0
  9 10  1  0  0  0  0
  9 12  1  0  0  0  0
 11  9  1  0  0  0  0
 12 13  1  0  0  0  0
 13 14  2  0  0  0  0
 13 20  1  0  0  0  0
 14 21  1  0  0  0  0
 15 16  2  0  0  0  0
 15 14  1  0  0  0  0
 17 15  1  0  0  0  0
 18 17  1  0  0  0  0
 18 12  1  0  0  0  0
 19 18  2  0  0  0  0
 22 17  1  0  0  0  0
 23  5  1  0  0  0  0
 24 31  1  6  0  0  0
 24 29  1  0  0  0  0
 24 25  1  0  0  0  0
 25 23  1  6  0  0  0
 25 26  1  0  0  0  0
 26 27  1  0  0  0  0
 28 26  1  0  0  0  0
 29 28  1  0  0  0  0
 30 29  1  0  0  0  0
 32 31  1  0  0  0  0
M  END
>  <minimizedAffinity>
-5.28063631

$$$$

 OpenBabel03242515293D

 32 34  0  0  1  0  0  0  0  0999 V2000
   39.7410   28.3470   41.3350 C   0  0  0  0  0  0  0  0  0  0  0  0
   38.7480   28.4710   42.3360 C   0  0  0  0  0  0  0  0  0  0  0  0
   37.9220   29.5820   42.2590 C   0  0  0  0  0  0  0  0  0  0  0  0
   38.0910   30.4700   41.2690 N   0  0  0  0  0  0  0  0  0  0  0  0
   39.0660   30.2960   40.3350 C   0  0  0  0  0  0  0  0  0  0  0  0
   39.9090   29.2400   40.3400 N   0  0  0  0  0  0  0  0  0  0  0  0
   40.4110   27.5020   41.3450 H   0  0  0  0  0  0  0  0  0  0  0  0
   37.1730   29.6560   43.0330 H   0  0  0  0  0  0  0  0  0  0  0  0
   38.7060   27.4150   43.3540 C   0  0  0  0  0  0  0  0  0  0  0  0
   39.6090   27.4060   43.9550 H   0  0  0  0  0  0  0  0  0  0  0  0
   37.8820   27.7000   44.0730 H   0  0  0  0  0  0  0  0  0  0  0  0
   38.3780   26.1700   42.6980 N   0  0  0  0  0  0  0  0  0  0  0  0
   37.2530   26.0320   42.0130 C   0  0  0  0  0  0  0  0  0  0  0  0
   36.9990   24.8220   41.4130 C   0  0  0  0  0  0  0  0  0  0  0  0
   37.8740   23.7660   41.5050 C   0  0  0  0  0  0  0  0  0  0  0  0
   37.6010   22.6870   40.9440 O   0  0  0  0  0  0  0  0  0  0  0  0
   39.0110   23.9360   42.2080 N   0  0  0  0  0  0  0  0  0  0  0  0
   39.2640   25.1280   42.8010 C   0  0  0  0  0  0  0  0  0  0  0  0
   40.3520   25.2220   43.4480 O   0  0  0  0  0  0  0  0  0  0  0  0
   36.5350   26.8290   41.9110 H   0  0  0  0  0  0  0  0  0  0  0  0
   36.0820   24.7020   40.8520 H   0  0  0  0  0  0  0  0  0  0  0  0
   39.6930   23.1450   42.2920 H   0  0  0  0  0  0  0  0  0  0  0  0
   39.2220   31.2330   39.3260 O   0  0  0  0  0  0  0  0  0  0  0  0
   40.7250   32.7680   38.1130 C   0  0  1  0  0  3  0  0  0  0  0  0
   39.9460   32.3810   39.2940 C   0  0  2  0  0  3  0  0  0  0  0  0
   41.0180   32.3110   40.3700 C   0  0  0  0  0  3  0  0  0  0  0  0
   40.7950   31.4760   41.0920 H   0  0  0  0  0  0  0  0  0  0  0  0
   42.1900   31.9390   39.7320 O   0  0  0  0  0  0  0  0  0  0  0  0
   42.1070   32.2870   38.4000 C   0  0  0  0  0  3  0  0  0  0  0  0
   42.8900   33.0800   38.2290 H   0  0  0  0  0  0  0  0  0  0  0  0
   40.2170   32.3950   36.8860 O   0  0  0  0  0  0  0  0  0  0  0  0
   39.4730   32.9960   36.6610 H   0  0  0  0  0  0  0  0  0  0  0  0
  1  7  1  0  0  0  0
  1  2  1  0  0  0  0
  2  9  1  0  0  0  0
  3  2  2  0  0  0  0
  3  8  1  0  0  0  0
  4  3  1  0  0  0  0
  5  6  1  0  0  0  0
  5  4  2  0  0  0  0
  6  1  2  0  0  0  0
  9 10  1  0  0  0  0
  9 11  1  0  0  0  0
 12 18  1  0  0  0  0
 12  9  1  0  0  0  0
 13 12  1  0  0  0  0
 14 15  1  0  0  0  0
 14 13  2  0  0  0  0
 15 17  1  0  0  0  0
 16 15  2  0  0  0  0
 17 22  1  0  0  0  0
 17 18  1  0  0  0  0
 18 19  2  0  0  0  0
 20 13  1  0  0  0  0
 21 14  1  0  0  0  0
 23  5  1  0  0  0  0
 24 31  1  6  0  0  0
 24 29  1  0  0  0  0
 24 25  1  0  0  0  0
 25 23  1  6  0  0  0
 25 26  1  0  0  0  0
 26 27  1  0  0  0  0
 28 26  1  0  0  0  0
 29 28  1  0  0  0  0
 30 29  1  0  0  0  0
 32 31  1  0  0  0  0
M  END
>  <minimizedAffinity>
-5.26614618

$$$$

 OpenBabel03242515293D

 32 34  0  0  1  0  0  0  0  0999 V2000
   37.9980   32.4200   40.7100 C   0  0  0  0  0  0  0  0  0  0  0  0
   37.5920   31.1780   40.1660 C   0  0  0  0  0  0  0  0  0  0  0  0
   38.2730   30.7390   39.0420 C   0  0  0  0  0  0  0  0  0  0  0  0
   39.2610   31.4860   38.5270 N   0  0  0  0  0  0  0  0  0  0  0  0
   39.6050   32.6730   39.0960 C   0  0  0  0  0  0  0  0  0  0  0  0
   38.9920   33.1690   40.1920 N   0  0  0  0  0  0  0  0  0  0  0  0
   37.5040   32.8110   41.5860 H   0  0  0  0  0  0  0  0  0  0  0  0
   37.9460   29.7900   38.6450 H   0  0  0  0  0  0  0  0  0  0  0  0
   36.4860   30.4940   40.8460 C   0  0  0  0  0  0  0  0  0  0  0  0
   35.9690   31.1570   41.5320 H   0  0  0  0  0  0  0  0  0  0  0  0
   35.7240   30.2510   40.0470 H   0  0  0  0  0  0  0  0  0  0  0  0
   36.9990   29.2730   41.4240 N   0  0  0  0  0  0  0  0  0  0  0  0
   37.8200   29.2990   42.4640 C   0  0  0  0  0  0  0  0  0  0  0  0
   38.2750   28.1040   42.9660 C   0  0  0  0  0  0  0  0  0  0  0  0
   37.9020   26.8970   42.4230 C   0  0  0  0  0  0  0  0  0  0  0  0
   38.3390   25.8380   42.9130 O   0  0  0  0  0  0  0  0  0  0  0  0
   37.0650   26.9020   41.3670 N   0  0  0  0  0  0  0  0  0  0  0  0
   36.6150   28.0790   40.8690 C   0  0  0  0  0  0  0  0  0  0  0  0
   35.8300   28.0130   39.8740 O   0  0  0  0  0  0  0  0  0  0  0  0
   38.1430   30.2180   42.9240 H   0  0  0  0  0  0  0  0  0  0  0  0
   38.9460   28.1180   43.8140 H   0  0  0  0  0  0  0  0  0  0  0  0
   36.7670   25.9940   40.9370 H   0  0  0  0  0  0  0  0  0  0  0  0
   40.6260   33.4280   38.5390 O   0  0  0  0  0  0  0  0  0  0  0  0
   42.9410   33.4510   37.6860 C   0  0  1  0  0  3  0  0  0  0  0  0
   41.9620   33.4180   38.7790 C   0  0  2  0  0  3  0  0  0  0  0  0
   42.3200   32.1180   39.4820 C   0  0  0  0  0  3  0  0  0  0  0  0
   41.3900   31.6130   39.8700 H   0  0  0  0  0  0  0  0  0  0  0  0
   42.8170   31.2680   38.5080 O   0  0  0  0  0  0  0  0  0  0  0  0
   43.2980   32.0220   37.4570 C   0  0  0  0  0  3  0  0  0  0  0  0
   44.4120   31.8490   37.4260 H   0  0  0  0  0  0  0  0  0  0  0  0
   42.5830   34.1550   36.5550 O   0  0  0  0  0  0  0  0  0  0  0  0
   42.6760   35.1150   36.7430 H   0  0  0  0  0  0  0  0  0  0  0  0
  1  7  1  0  0  0  0
  2  1  2  0  0  0  0
  2  9  1  0  0  0  0
  3  2  1  0  0  0  0
  4  3  2  0  0  0  0
  4  5  1  0  0  0  0
  5  6  2  0  0  0  0
  6  1  1  0  0  0  0
  8  3  1  0  0  0  0
  9 12  1  0  0  0  0
  9 10  1  0  0  0  0
 11  9  1  0  0  0  0
 12 13  1  0  0  0  0
 13 20  1  0  0  0  0
 13 14  2  0  0  0  0
 14 21  1  0  0  0  0
 15 16  2  0  0  0  0
 15 14  1  0  0  0  0
 17 15  1  0  0  0  0
 18 17  1  0  0  0  0
 18 12  1  0  0  0  0
 19 18  2  0  0  0  0
 22 17  1  0  0  0  0
 23  5  1  0  0  0  0
 24 31  1  6  0  0  0
 24 25  1  0  0  0  0
 25 23  1  6  0  0  0
 25 26  1  0  0  0  0
 26 27  1  0  0  0  0
 28 26  1  0  0  0  0
 29 24  1  0  0  0  0
 29 28  1  0  0  0  0
 30 29  1  0  0  0  0
 31 32  1  0  0  0  0
M  END
>  <minimizedAffinity>
-5.21388435

$$$$

 OpenBabel03242515293D

 32 34  0  0  1  0  0  0  0  0999 V2000
   37.9860   27.9480   42.9760 C   0  0  0  0  0  0  0  0  0  0  0  0
   39.0950   27.1940   42.5210 C   0  0  0  0  0  0  0  0  0  0  0  0
   40.0250   27.8630   41.7410 C   0  0  0  0  0  0  0  0  0  0  0  0
   39.8450   29.1610   41.4570 N   0  0  0  0  0  0  0  0  0  0  0  0
   38.7570   29.8320   41.9230 C   0  0  0  0  0  0  0  0  0  0  0  0
   37.8070   29.2530   42.6890 N   0  0  0  0  0  0  0  0  0  0  0  0
   37.2310   27.4790   43.5860 H   0  0  0  0  0  0  0  0  0  0  0  0
   40.8610   27.2680   41.4060 H   0  0  0  0  0  0  0  0  0  0  0  0
   39.1340   25.7810   42.9150 C   0  0  0  0  0  0  0  0  0  0  0  0
   40.0690   25.5300   43.4050 H   0  0  0  0  0  0  0  0  0  0  0  0
   38.3440   25.6530   43.7150 H   0  0  0  0  0  0  0  0  0  0  0  0
   38.7980   24.9820   41.7600 N   0  0  0  0  0  0  0  0  0  0  0  0
   39.7040   24.7010   40.8340 C   0  0  0  0  0  0  0  0  0  0  0  0
   39.3220   23.9370   39.7570 C   0  0  0  0  0  0  0  0  0  0  0  0
   38.0380   23.4630   39.6210 C   0  0  0  0  0  0  0  0  0  0  0  0
   37.7370   22.7730   38.6270 O   0  0  0  0  0  0  0  0  0  0  0  0
   37.1390   23.7630   40.5780 N   0  0  0  0  0  0  0  0  0  0  0  0
   37.5130   24.5170   41.6410 C   0  0  0  0  0  0  0  0  0  0  0  0
   36.6180   24.7630   42.5070 O   0  0  0  0  0  0  0  0  0  0  0  0
   40.7210   25.0490   40.8950 H   0  0  0  0  0  0  0  0  0  0  0  0
   40.0550   23.7050   38.9980 H   0  0  0  0  0  0  0  0  0  0  0  0
   36.1550   23.4120   40.4960 H   0  0  0  0  0  0  0  0  0  0  0  0
   38.5930   31.1720   41.6070 O   0  0  0  0  0  0  0  0  0  0  0  0
   36.5000   31.3920   40.3190 C   0  0  1  0  0  3  0  0  0  0  0  0
   37.8900   31.7620   40.6070 C   0  0  2  0  0  3  0  0  0  0  0  0
   38.5770   31.4580   39.2840 C   0  0  0  0  0  3  0  0  0  0  0  0
   39.6170   31.0620   39.4650 H   0  0  0  0  0  0  0  0  0  0  0  0
   37.8800   30.4060   38.7130 O   0  0  0  0  0  0  0  0  0  0  0  0
   36.5980   30.3880   39.2210 C   0  0  0  0  0  3  0  0  0  0  0  0
   35.9100   30.6170   38.3560 H   0  0  0  0  0  0  0  0  0  0  0  0
   35.7240   31.0110   41.3950 O   0  0  0  0  0  0  0  0  0  0  0  0
   35.4650   31.8180   41.8930 H   0  0  0  0  0  0  0  0  0  0  0  0
  1  7  1  0  0  0  0
  2  9  1  0  0  0  0
  2  1  2  0  0  0  0
  3  2  1  0  0  0  0
  4  3  2  0  0  0  0
  4  5  1  0  0  0  0
  5  6  2  0  0  0  0
  6  1  1  0  0  0  0
  8  3  1  0  0  0  0
  9 10  1  0  0  0  0
  9 11  1  0  0  0  0
 12  9  1  0  0  0  0
 13 20  1  0  0  0  0
 13 12  1  0  0  0  0
 14 13  2  0  0  0  0
 15 14  1  0  0  0  0
 15 17  1  0  0  0  0
 16 15  2  0  0  0  0
 17 18  1  0  0  0  0
 18 12  1  0  0  0  0
 18 19  2  0  0  0  0
 21 14  1  0  0  0  0
 22 17  1  0  0  0  0
 23  5  1  0  0  0  0
 24 25  1  0  0  0  0
 24 31  1  1  0  0  0
 25 23  1  1  0  0  0
 26 27  1  0  0  0  0
 26 25  1  0  0  0  0
 28 29  1  0  0  0  0
 28 26  1  0  0  0  0
 29 24  1  0  0  0  0
 30 29  1  0  0  0  0
 31 32  1  0  0  0  0
M  END
>  <minimizedAffinity>
-5.02158117

$$$$

 OpenBabel03242515293D

 32 34  0  0  1  0  0  0  0  0999 V2000
   36.6160   29.4420   39.3410 C   0  0  0  0  0  0  0  0  0  0  0  0
   36.9310   30.6250   40.0520 C   0  0  0  0  0  0  0  0  0  0  0  0
   37.1980   30.4850   41.4050 C   0  0  0  0  0  0  0  0  0  0  0  0
   37.1500   29.2700   41.9710 N   0  0  0  0  0  0  0  0  0  0  0  0
   36.8400   28.1700   41.2340 C   0  0  0  0  0  0  0  0  0  0  0  0
   36.5690   28.2220   39.9120 N   0  0  0  0  0  0  0  0  0  0  0  0
   36.4010   29.4910   38.2850 H   0  0  0  0  0  0  0  0  0  0  0  0
   37.4350   31.3990   41.9270 H   0  0  0  0  0  0  0  0  0  0  0  0
   36.9310   31.8740   39.2820 C   0  0  0  0  0  0  0  0  0  0  0  0
   36.1170   31.8980   38.5640 H   0  0  0  0  0  0  0  0  0  0  0  0
   36.6940   32.6990   40.0170 H   0  0  0  0  0  0  0  0  0  0  0  0
   38.2540   32.0660   38.7350 N   0  0  0  0  0  0  0  0  0  0  0  0
   39.2730   32.4070   39.5100 C   0  0  0  0  0  0  0  0  0  0  0  0
   40.5070   32.5770   38.9290 C   0  0  0  0  0  0  0  0  0  0  0  0
   40.7060   32.4010   37.5800 C   0  0  0  0  0  0  0  0  0  0  0  0
   41.8430   32.5650   37.0970 O   0  0  0  0  0  0  0  0  0  0  0  0
   39.6510   32.0530   36.8170 N   0  0  0  0  0  0  0  0  0  0  0  0
   38.4330   31.8860   37.3870 C   0  0  0  0  0  0  0  0  0  0  0  0
   37.4820   31.5590   36.6130 O   0  0  0  0  0  0  0  0  0  0  0  0
   39.1690   32.5570   40.5720 H   0  0  0  0  0  0  0  0  0  0  0  0
   41.3430   32.8550   39.5550 H   0  0  0  0  0  0  0  0  0  0  0  0
   39.7790   31.9140   35.7860 H   0  0  0  0  0  0  0  0  0  0  0  0
   36.7900   26.9270   41.8470 O   0  0  0  0  0  0  0  0  0  0  0  0
   39.0610   26.0370   41.4780 C   0  0  1  0  0  3  0  0  0  0  0  0
   37.7880   26.0800   42.2050 C   0  0  2  0  0  3  0  0  0  0  0  0
   37.2910   24.6510   42.0540 C   0  0  0  0  0  3  0  0  0  0  0  0
   36.1700   24.6350   41.9490 H   0  0  0  0  0  0  0  0  0  0  0  0
   37.7790   24.1920   40.8420 O   0  0  0  0  0  0  0  0  0  0  0  0
   38.9010   24.9200   40.5040 C   0  0  0  0  0  3  0  0  0  0  0  0
   39.7660   24.1960   40.5230 H   0  0  0  0  0  0  0  0  0  0  0  0
   39.5070   27.2270   40.9380 O   0  0  0  0  0  0  0  0  0  0  0  0
   39.8750   27.7790   41.6620 H   0  0  0  0  0  0  0  0  0  0  0  0
  1  6  2  0  0  0  0
  1  2  1  0  0  0  0
  2  3  2  0  0  0  0
  3  8  1  0  0  0  0
  3  4  1  0  0  0  0
  5 23  1  0  0  0  0
  5  4  2  0  0  0  0
  6  5  1  0  0  0  0
  7  1  1  0  0  0  0
  9 11  1  0  0  0  0
  9  2  1  0  0  0  0
 10  9  1  0  0  0  0
 12  9  1  0  0  0  0
 12 13  1  0  0  0  0
 13 20  1  0  0  0  0
 14 13  2  0  0  0  0
 14 21  1  0  0  0  0
 15 14  1  0  0  0  0
 16 15  2  0  0  0  0
 17 18  1  0  0  0  0
 17 15  1  0  0  0  0
 18 12  1  0  0  0  0
 19 18  2  0  0  0  0
 22 17  1  0  0  0  0
 24 31  1  6  0  0  0
 24 25  1  0  0  0  0
 25 23  1  6  0  0  0
 26 25  1  0  0  0  0
 27 26  1  0  0  0  0
 28 26  1  0  0  0  0
 29 30  1  0  0  0  0
 29 28  1  0  0  0  0
 29 24  1  0  0  0  0
 31 32  1  0  0  0  0
M  END
>  <minimizedAffinity>
-5.01940346

$$$$

 OpenBabel03242515293D

 32 34  0  0  1  0  0  0  0  0999 V2000
   39.0490   27.4390   42.0160 C   0  0  0  0  0  0  0  0  0  0  0  0
   38.1270   28.2440   42.7270 C   0  0  0  0  0  0  0  0  0  0  0  0
   36.9580   27.6290   43.1470 C   0  0  0  0  0  0  0  0  0  0  0  0
   36.7520   26.3330   42.8730 N   0  0  0  0  0  0  0  0  0  0  0  0
   37.6770   25.6110   42.1850 C   0  0  0  0  0  0  0  0  0  0  0  0
   38.8400   26.1360   41.7420 N   0  0  0  0  0  0  0  0  0  0  0  0
   39.9760   27.8640   41.6650 H   0  0  0  0  0  0  0  0  0  0  0  0
   36.2710   28.2630   43.6860 H   0  0  0  0  0  0  0  0  0  0  0  0
   38.5040   29.6480   42.9320 C   0  0  0  0  0  0  0  0  0  0  0  0
   38.1160   30.0310   43.8700 H   0  0  0  0  0  0  0  0  0  0  0  0
   39.6280   29.6590   43.0560 H   0  0  0  0  0  0  0  0  0  0  0  0
   38.1310   30.3910   41.7510 N   0  0  0  0  0  0  0  0  0  0  0  0
   36.8690   30.4650   41.3570 C   0  0  0  0  0  0  0  0  0  0  0  0
   36.5790   31.1860   40.2240 C   0  0  0  0  0  0  0  0  0  0  0  0
   37.5570   31.8270   39.5000 C   0  0  0  0  0  0  0  0  0  0  0  0
   37.2470   32.4700   38.4780 O   0  0  0  0  0  0  0  0  0  0  0  0
   38.8320   31.7350   39.9240 N   0  0  0  0  0  0  0  0  0  0  0  0
   39.1210   31.0240   41.0410 C   0  0  0  0  0  0  0  0  0  0  0  0
   40.3410   30.9780   41.3870 O   0  0  0  0  0  0  0  0  0  0  0  0
   36.0670   29.9810   41.8890 H   0  0  0  0  0  0  0  0  0  0  0  0
   35.5500   31.2500   39.8970 H   0  0  0  0  0  0  0  0  0  0  0  0
   39.5940   32.2150   39.3890 H   0  0  0  0  0  0  0  0  0  0  0  0
   37.4340   24.2740   41.9090 O   0  0  0  0  0  0  0  0  0  0  0  0
   37.4280   22.6330   40.0670 C   0  0  1  0  0  3  0  0  0  0  0  0
   36.7960   23.6910   40.8630 C   0  0  2  0  0  3  0  0  0  0  0  0
   36.5180   24.7530   39.8100 C   0  0  0  0  0  3  0  0  0  0  0  0
   36.6540   25.7830   40.2460 H   0  0  0  0  0  0  0  0  0  0  0  0
   37.5110   24.6260   38.8530 O   0  0  0  0  0  0  0  0  0  0  0  0
   38.0150   23.3430   38.8950 C   0  0  0  0  0  3  0  0  0  0  0  0
   37.7430   22.8630   37.9110 H   0  0  0  0  0  0  0  0  0  0  0  0
   38.2910   21.7870   40.7330 O   0  0  0  0  0  0  0  0  0  0  0  0
   37.7590   21.1510   41.2600 H   0  0  0  0  0  0  0  0  0  0  0  0
  1  2  1  0  0  0  0
  2  9  1  0  0  0  0
  2  3  2  0  0  0  0
  3  8  1  0  0  0  0
  4  3  1  0  0  0  0
  5  4  2  0  0  0  0
  6  1  2  0  0  0  0
  6  5  1  0  0  0  0
  7  1  1  0  0  0  0
  9 11  1  0  0  0  0
  9 10  1  0  0  0  0
 12  9  1  0  0  0  0
 13 12  1  0  0  0  0
 13 20  1  0  0  0  0
 14 13  2  0  0  0  0
 15 17  1  0  0  0  0
 15 14  1  0  0  0  0
 16 15  2  0  0  0  0
 17 18  1  0  0  0  0
 18 19  2  0  0  0  0
 18 12  1  0  0  0  0
 21 14  1  0  0  0  0
 22 17  1  0  0  0  0
 23  5  1  0  0  0  0
 24 31  1  1  0  0  0
 24 25  1  0  0  0  0
 25 23  1  1  0  0  0
 26 27  1  0  0  0  0
 26 25  1  0  0  0  0
 28 29  1  0  0  0  0
 28 26  1  0  0  0  0
 29 24  1  0  0  0  0
 30 29  1  0  0  0  0
 31 32  1  0  0  0  0
M  END
>  <minimizedAffinity>
-4.93584013

$$$$

 OpenBabel03242515293D

 32 34  0  0  1  0  0  0  0  0999 V2000
   37.4280   30.4710   39.3270 C   0  0  0  0  0  0  0  0  0  0  0  0
   37.4550   29.9750   40.6530 C   0  0  0  0  0  0  0  0  0  0  0  0
   38.6080   30.2170   41.3840 C   0  0  0  0  0  0  0  0  0  0  0  0
   39.6220   30.8930   40.8250 N   0  0  0  0  0  0  0  0  0  0  0  0
   39.5360   31.3450   39.5450 C   0  0  0  0  0  0  0  0  0  0  0  0
   38.4480   31.1510   38.7670 N   0  0  0  0  0  0  0  0  0  0  0  0
   36.5570   30.3130   38.7120 H   0  0  0  0  0  0  0  0  0  0  0  0
   38.6060   29.8290   42.3910 H   0  0  0  0  0  0  0  0  0  0  0  0
   36.2650   29.2470   41.1060 C   0  0  0  0  0  0  0  0  0  0  0  0
   35.8590   29.6750   42.0170 H   0  0  0  0  0  0  0  0  0  0  0  0
   35.4690   29.4230   40.3230 H   0  0  0  0  0  0  0  0  0  0  0  0
   36.5930   27.8410   41.1680 N   0  0  0  0  0  0  0  0  0  0  0  0
   36.6670   27.1050   40.0690 C   0  0  0  0  0  0  0  0  0  0  0  0
   36.9820   25.7740   40.1940 C   0  0  0  0  0  0  0  0  0  0  0  0
   37.2210   25.1950   41.4190 C   0  0  0  0  0  0  0  0  0  0  0  0
   37.5040   23.9840   41.4840 O   0  0  0  0  0  0  0  0  0  0  0  0
   37.1400   25.9690   42.5190 N   0  0  0  0  0  0  0  0  0  0  0  0
   36.8280   27.2820   42.3980 C   0  0  0  0  0  0  0  0  0  0  0  0
   36.7680   27.9540   43.4730 O   0  0  0  0  0  0  0  0  0  0  0  0
   36.4880   27.5110   39.0870 H   0  0  0  0  0  0  0  0  0  0  0  0
   37.0440   25.1670   39.3020 H   0  0  0  0  0  0  0  0  0  0  0  0
   37.3180   25.5500   43.4630 H   0  0  0  0  0  0  0  0  0  0  0  0
   40.6020   32.0360   38.9890 O   0  0  0  0  0  0  0  0  0  0  0  0
   41.8450   33.9200   37.9940 C   0  0  1  0  0  3  0  0  0  0  0  0
   40.8500   33.3680   38.9210 C   0  0  2  0  0  3  0  0  0  0  0  0
   41.3820   33.8340   40.2670 C   0  0  0  0  0  3  0  0  0  0  0  0
   41.1930   33.0520   41.0550 H   0  0  0  0  0  0  0  0  0  0  0  0
   42.7600   33.9020   40.1420 O   0  0  0  0  0  0  0  0  0  0  0  0
   43.0840   34.0600   38.8110 C   0  0  0  0  0  3  0  0  0  0  0  0
   43.5560   35.0800   38.7170 H   0  0  0  0  0  0  0  0  0  0  0  0
   42.0050   33.2610   36.7920 O   0  0  0  0  0  0  0  0  0  0  0  0
   41.2500   33.4910   36.2070 H   0  0  0  0  0  0  0  0  0  0  0  0
  1  2  1  0  0  0  0
  2  9  1  0  0  0  0
  2  3  2  0  0  0  0
  3  8  1  0  0  0  0
  4  3  1  0  0  0  0
  5  4  2  0  0  0  0
  6  1  2  0  0  0  0
  6  5  1  0  0  0  0
  7  1  1  0  0  0  0
  9 12  1  0  0  0  0
  9 10  1  0  0  0  0
 11  9  1  0  0  0  0
 12 18  1  0  0  0  0
 13 14  2  0  0  0  0
 13 12  1  0  0  0  0
 14 15  1  0  0  0  0
 15 16  2  0  0  0  0
 15 17  1  0  0  0  0
 17 22  1  0  0  0  0
 18 17  1  0  0  0  0
 18 19  2  0  0  0  0
 20 13  1  0  0  0  0
 21 14  1  0  0  0  0
 23  5  1  0  0  0  0
 24 31  1  6  0  0  0
 24 29  1  0  0  0  0
 24 25  1  0  0  0  0
 25 23  1  1  0  0  0
 25 26  1  0  0  0  0
 26 27  1  0  0  0  0
 28 26  1  0  0  0  0
 29 28  1  0  0  0  0
 30 29  1  0  0  0  0
 32 31  1  0  0  0  0
M  END
>  <minimizedAffinity>
-4.93511534

$$$$

 OpenBabel03242515293D

 32 34  0  0  1  0  0  0  0  0999 V2000
   38.9580   27.5800   41.8800 C   0  0  0  0  0  0  0  0  0  0  0  0
   37.5660   27.4450   42.1020 C   0  0  0  0  0  0  0  0  0  0  0  0
   36.7750   28.5360   41.7760 C   0  0  0  0  0  0  0  0  0  0  0  0
   37.3410   29.6440   41.2770 N   0  0  0  0  0  0  0  0  0  0  0  0
   38.6870   29.7140   41.0870 C   0  0  0  0  0  0  0  0  0  0  0  0
   39.5250   28.6950   41.3770 N   0  0  0  0  0  0  0  0  0  0  0  0
   39.6210   26.7640   42.1140 H   0  0  0  0  0  0  0  0  0  0  0  0
   35.7180   28.4100   41.9540 H   0  0  0  0  0  0  0  0  0  0  0  0
   37.1120   26.1680   42.6640 C   0  0  0  0  0  0  0  0  0  0  0  0
   37.5270   25.9990   43.6520 H   0  0  0  0  0  0  0  0  0  0  0  0
   35.9990   26.2720   42.8290 H   0  0  0  0  0  0  0  0  0  0  0  0
   37.3710   25.1310   41.6910 N   0  0  0  0  0  0  0  0  0  0  0  0
   36.7000   25.0790   40.5500 C   0  0  0  0  0  0  0  0  0  0  0  0
   36.9910   24.0680   39.6670 C   0  0  0  0  0  0  0  0  0  0  0  0
   37.9520   23.1210   39.9360 C   0  0  0  0  0  0  0  0  0  0  0  0
   38.1820   22.2220   39.1050 O   0  0  0  0  0  0  0  0  0  0  0  0
   38.6190   23.2000   41.1050 N   0  0  0  0  0  0  0  0  0  0  0  0
   38.3330   24.1960   41.9780 C   0  0  0  0  0  0  0  0  0  0  0  0
   38.9970   24.2130   43.0590 O   0  0  0  0  0  0  0  0  0  0  0  0
   35.9390   25.7970   40.2920 H   0  0  0  0  0  0  0  0  0  0  0  0
   36.4480   24.0190   38.7340 H   0  0  0  0  0  0  0  0  0  0  0  0
   39.3550   22.4890   41.3320 H   0  0  0  0  0  0  0  0  0  0  0  0
   39.2460   30.8750   40.5760 O   0  0  0  0  0  0  0  0  0  0  0  0
   38.5480   33.2270   40.8370 C   0  0  1  0  0  3  0  0  0  0  0  0
   39.4250   32.0930   41.1480 C   0  0  2  0  0  3  0  0  0  0  0  0
   40.7880   32.6280   40.7360 C   0  0  0  0  0  3  0  0  0  0  0  0
   41.4170   31.8030   40.2970 H   0  0  0  0  0  0  0  0  0  0  0  0
   40.5640   33.5120   39.6940 O   0  0  0  0  0  0  0  0  0  0  0  0
   39.2690   33.9800   39.7710 C   0  0  0  0  0  3  0  0  0  0  0  0
   39.3430   35.0840   39.9900 H   0  0  0  0  0  0  0  0  0  0  0  0
   37.2290   32.9310   40.5560 O   0  0  0  0  0  0  0  0  0  0  0  0
   36.7680   32.7330   41.4010 H   0  0  0  0  0  0  0  0  0  0  0  0
  1  2  1  0  0  0  0
  1  7  1  0  0  0  0
  2  9  1  0  0  0  0
  3  8  1  0  0  0  0
  3  2  2  0  0  0  0
  4  3  1  0  0  0  0
  5  4  2  0  0  0  0
  5  6  1  0  0  0  0
  6  1  2  0  0  0  0
  9 11  1  0  0  0  0
  9 10  1  0  0  0  0
 12 18  1  0  0  0  0
 12  9  1  0  0  0  0
 13 12  1  0  0  0  0
 14 15  1  0  0  0  0
 14 13  2  0  0  0  0
 15 17  1  0  0  0  0
 16 15  2  0  0  0  0
 17 22  1  0  0  0  0
 17 18  1  0  0  0  0
 18 19  2  0  0  0  0
 20 13  1  0  0  0  0
 21 14  1  0  0  0  0
 23  5  1  0  0  0  0
 24 31  1  6  0  0  0
 24 25  1  0  0  0  0
 25 23  1  6  0  0  0
 26 25  1  0  0  0  0
 27 26  1  0  0  0  0
 28 29  1  0  0  0  0
 28 26  1  0  0  0  0
 29 30  1  0  0  0  0
 29 24  1  0  0  0  0
 31 32  1  0  0  0  0
M  END
>  <minimizedAffinity>
-4.92243147

$$$$
