
 OpenBabel03252506453D

 42 45  0  0  1  0  0  0  0  0999 V2000
   49.4240   33.3660   41.3920 N   0  0  1  0  0  0  0  0  0  0  0  0
   50.6860   33.1030   42.0540 C   0  0  0  0  0  0  0  0  0  0  0  0
   51.2880   31.7870   41.6510 C   0  0  0  0  0  0  0  0  0  0  0  0
   50.4110   30.6910   42.2280 C   0  0  0  0  0  0  0  0  0  0  0  0
   48.9500   31.0640   42.1110 C   0  0  0  0  0  0  0  0  0  0  0  0
   48.7940   32.1270   41.0580 C   0  0  2  0  0  0  0  0  0  0  0  0
   51.3700   33.9650   41.9720 H   0  0  0  0  0  0  0  0  0  0  0  0
   50.4490   32.9990   43.1500 H   0  0  0  0  0  0  0  0  0  0  0  0
   52.2810   31.7310   42.1600 H   0  0  0  0  0  0  0  0  0  0  0  0
   51.4860   31.6670   40.5840 H   0  0  0  0  0  0  0  0  0  0  0  0
   50.6970   30.5070   43.2930 H   0  0  0  0  0  0  0  0  0  0  0  0
   50.5980   29.7700   41.6820 H   0  0  0  0  0  0  0  0  0  0  0  0
   48.7280   31.6010   43.0850 H   0  0  0  0  0  0  0  0  0  0  0  0
   48.2500   30.2490   42.0810 H   0  0  0  0  0  0  0  0  0  0  0  0
   47.6930   32.3870   41.1360 H   0  0  0  0  0  0  0  0  0  0  0  0
   47.2800   34.6760   41.9720 C   0  0  1  0  0  0  0  0  0  0  0  0
   48.4160   35.6060   41.7650 C   0  0  0  0  0  0  0  0  0  0  0  0
   48.6730   34.2300   42.2320 C   0  0  2  0  0  0  0  0  0  0  0  0
   46.8020   34.2880   41.0340 H   0  0  0  0  0  0  0  0  0  0  0  0
   48.7580   35.9100   40.7650 H   0  0  0  0  0  0  0  0  0  0  0  0
   48.5700   36.4070   42.5310 H   0  0  0  0  0  0  0  0  0  0  0  0
   48.8850   34.0690   43.3290 H   0  0  0  0  0  0  0  0  0  0  0  0
   45.5370   36.0550   43.1460 C   0  0  0  0  0  0  0  0  0  0  0  0
   46.3600   34.9160   43.0820 C   0  0  0  0  0  0  0  0  0  0  0  0
   46.2510   33.9920   44.1480 C   0  0  0  0  0  0  0  0  0  0  0  0
   45.3770   34.2440   45.1570 N   0  0  0  0  0  0  0  0  0  0  0  0
   44.6060   35.3520   45.1790 C   0  0  0  0  0  0  0  0  0  0  0  0
   44.6780   36.2690   44.1740 N   0  0  0  0  0  0  0  0  0  0  0  0
   45.6200   36.7620   42.3340 H   0  0  0  0  0  0  0  0  0  0  0  0
   46.8640   33.1040   44.1390 H   0  0  0  0  0  0  0  0  0  0  0  0
   43.9010   35.5760   45.9710 H   0  0  0  0  0  0  0  0  0  0  0  0
   49.1400   31.6380   39.7830 N   0  0  0  0  0  0  0  0  0  0  0  0
   50.1590   31.6590   39.6420 H   0  0  0  0  0  0  0  0  0  0  0  0
   48.7540   30.9780   37.4300 C   0  0  1  0  0  3  0  0  0  0  0  0
   48.4080   31.7990   38.6360 C   0  0  2  0  0  3  0  0  0  0  0  0
   48.2390   33.1500   38.0210 C   0  0  0  0  0  3  0  0  0  0  0  0
   48.3700   33.9800   38.7170 H   0  0  0  0  0  0  0  0  0  0  0  0
   49.0210   33.1950   36.8770 O   0  0  0  0  0  0  0  0  0  0  0  0
   49.5390   31.9630   36.6050 C   0  0  0  0  0  3  0  0  0  0  0  0
   50.6140   31.9610   36.7530 H   0  0  0  0  0  0  0  0  0  0  0  0
   49.3710   29.7870   37.6490 O   0  0  0  0  0  0  0  0  0  0  0  0
   50.2700   29.8030   37.1970 H   0  0  0  0  0  0  0  0  0  0  0  0
  1  2  1  1  0  0  0
  1 18  1  0  0  0  0
  2  8  1  0  0  0  0
  3  2  1  0  0  0  0
  3  9  1  0  0  0  0
  3  4  1  0  0  0  0
  4 11  1  0  0  0  0
  5  4  1  0  0  0  0
  5 13  1  0  0  0  0
  6 15  1  6  0  0  0
  6  1  1  0  0  0  0
  6  5  1  0  0  0  0
  7  2  1  0  0  0  0
 10  3  1  0  0  0  0
 12  4  1  0  0  0  0
 14  5  1  0  0  0  0
 16 19  1  6  0  0  0
 16 18  1  0  0  0  0
 16 24  1  0  0  0  0
 17 16  1  0  0  0  0
 17 18  1  0  0  0  0
 17 21  1  0  0  0  0
 18 22  1  1  0  0  0
 20 17  1  0  0  0  0
 23 28  1  0  0  0  0
 24 23  2  0  0  0  0
 24 25  1  0  0  0  0
 25 26  2  0  0  0  0
 26 27  1  0  0  0  0
 27 31  1  0  0  0  0
 28 27  2  0  0  0  0
 29 23  1  0  0  0  0
 30 25  1  0  0  0  0
 32  6  1  0  0  0  0
 33 32  1  0  0  0  0
 34 41  1  1  0  0  0
 34 35  1  0  0  0  0
 35 32  1  1  0  0  0
 36 35  1  0  0  0  0
 36 37  1  0  0  0  0
 38 36  1  0  0  0  0
 39 40  1  0  0  0  0
 39 38  1  0  0  0  0
 39 34  1  0  0  0  0
 42 41  1  0  0  0  0
M  END
>  <minimizedAffinity>
-4.89666653

>  <minimizedRMSD>
1.80398226

$$$$
