
 OpenBabel03252506453D

 42 45  0  0  1  0  0  0  0  0999 V2000
   49.4010   33.3120   41.4250 N   0  0  1  0  0  0  0  0  0  0  0  0
   50.6800   33.1250   42.0790 C   0  0  0  0  0  0  0  0  0  0  0  0
   51.3130   31.8040   41.7450 C   0  0  0  0  0  0  0  0  0  0  0  0
   50.4780   30.7210   42.4040 C   0  0  0  0  0  0  0  0  0  0  0  0
   49.0060   31.0460   42.2910 C   0  0  0  0  0  0  0  0  0  0  0  0
   48.8010   32.0380   41.1790 C   0  0  2  0  0  0  0  0  0  0  0  0
   51.3380   33.9990   41.9320 H   0  0  0  0  0  0  0  0  0  0  0  0
   50.4650   33.0830   43.1840 H   0  0  0  0  0  0  0  0  0  0  0  0
   52.3160   31.8070   42.2400 H   0  0  0  0  0  0  0  0  0  0  0  0
   51.4980   31.6240   40.6850 H   0  0  0  0  0  0  0  0  0  0  0  0
   50.7860   30.6120   43.4730 H   0  0  0  0  0  0  0  0  0  0  0  0
   50.6820   29.7740   41.9120 H   0  0  0  0  0  0  0  0  0  0  0  0
   48.7840   31.6360   43.2350 H   0  0  0  0  0  0  0  0  0  0  0  0
   48.3290   30.2120   42.3240 H   0  0  0  0  0  0  0  0  0  0  0  0
   47.6950   32.2720   41.2600 H   0  0  0  0  0  0  0  0  0  0  0  0
   47.2250   34.5820   41.9720 C   0  0  1  0  0  0  0  0  0  0  0  0
   48.3200   35.5360   41.6720 C   0  0  0  0  0  0  0  0  0  0  0  0
   48.6400   34.2050   42.2240 C   0  0  2  0  0  0  0  0  0  0  0  0
   46.7380   34.1130   41.0770 H   0  0  0  0  0  0  0  0  0  0  0  0
   48.6250   35.7820   40.6450 H   0  0  0  0  0  0  0  0  0  0  0  0
   48.4620   36.3930   42.3770 H   0  0  0  0  0  0  0  0  0  0  0  0
   48.8840   34.1280   43.3230 H   0  0  0  0  0  0  0  0  0  0  0  0
   45.5270   36.0230   43.1380 C   0  0  0  0  0  0  0  0  0  0  0  0
   46.3240   34.8650   43.0890 C   0  0  0  0  0  0  0  0  0  0  0  0
   46.2090   33.9680   44.1750 C   0  0  0  0  0  0  0  0  0  0  0  0
   45.3540   34.2600   45.1900 N   0  0  0  0  0  0  0  0  0  0  0  0
   44.6070   35.3840   45.1970 C   0  0  0  0  0  0  0  0  0  0  0  0
   44.6850   36.2780   44.1710 N   0  0  0  0  0  0  0  0  0  0  0  0
   45.6140   36.7110   42.3100 H   0  0  0  0  0  0  0  0  0  0  0  0
   46.8030   33.0670   44.1780 H   0  0  0  0  0  0  0  0  0  0  0  0
   43.9180   35.6410   45.9930 H   0  0  0  0  0  0  0  0  0  0  0  0
   49.1400   31.4810   39.9290 N   0  0  0  0  0  0  0  0  0  0  0  0
   50.1540   31.5350   39.7630 H   0  0  0  0  0  0  0  0  0  0  0  0
   48.2290   32.8450   38.0760 C   0  0  1  0  0  3  0  0  0  0  0  0
   48.3780   31.5370   38.7920 C   0  0  2  0  0  3  0  0  0  0  0  0
   46.9640   31.0520   38.7960 C   0  0  0  0  0  3  0  0  0  0  0  0
   46.7380   30.3290   39.5820 H   0  0  0  0  0  0  0  0  0  0  0  0
   46.1370   32.1630   38.7470 O   0  0  0  0  0  0  0  0  0  0  0  0
   46.8690   33.2950   38.5430 C   0  0  0  0  0  3  0  0  0  0  0  0
   46.8520   33.9250   39.4250 H   0  0  0  0  0  0  0  0  0  0  0  0
   49.2270   33.7540   38.2390 O   0  0  0  0  0  0  0  0  0  0  0  0
   48.8400   34.5840   38.6580 H   0  0  0  0  0  0  0  0  0  0  0  0
  1  2  1  1  0  0  0
  1 18  1  0  0  0  0
  2  8  1  0  0  0  0
  3  2  1  0  0  0  0
  3  9  1  0  0  0  0
  3  4  1  0  0  0  0
  4 11  1  0  0  0  0
  5 14  1  0  0  0  0
  5  4  1  0  0  0  0
  5 13  1  0  0  0  0
  6 15  1  6  0  0  0
  6  1  1  0  0  0  0
  6  5  1  0  0  0  0
  7  2  1  0  0  0  0
 10  3  1  0  0  0  0
 12  4  1  0  0  0  0
 16 19  1  6  0  0  0
 16 18  1  0  0  0  0
 16 24  1  0  0  0  0
 17 16  1  0  0  0  0
 17 18  1  0  0  0  0
 17 21  1  0  0  0  0
 18 22  1  1  0  0  0
 20 17  1  0  0  0  0
 23 28  1  0  0  0  0
 24 23  2  0  0  0  0
 24 25  1  0  0  0  0
 25 30  1  0  0  0  0
 25 26  2  0  0  0  0
 26 27  1  0  0  0  0
 27 31  1  0  0  0  0
 28 27  2  0  0  0  0
 29 23  1  0  0  0  0
 32  6  1  0  0  0  0
 33 32  1  0  0  0  0
 34 41  1  1  0  0  0
 34 39  1  0  0  0  0
 34 35  1  0  0  0  0
 35 36  1  0  0  0  0
 35 32  1  1  0  0  0
 36 37  1  0  0  0  0
 38 36  1  0  0  0  0
 39 38  1  0  0  0  0
 39 40  1  0  0  0  0
 41 42  1  0  0  0  0
M  END
>  <minimizedAffinity>
-5.08343601

>  <minimizedRMSD>
1.59343922

$$$$
