
 OpenBabel03252506483D

 42 45  0  0  1  0  0  0  0  0999 V2000
   39.8790   32.0310   39.5160 N   0  0  1  0  0  0  0  0  0  0  0  0
   39.4760   33.3580   39.9330 C   0  0  0  0  0  0  0  0  0  0  0  0
   38.0430   33.4150   40.3790 C   0  0  0  0  0  0  0  0  0  0  0  0
   37.1760   33.2110   39.1500 C   0  0  0  0  0  0  0  0  0  0  0  0
   37.7770   32.1560   38.2480 C   0  0  0  0  0  0  0  0  0  0  0  0
   38.7370   31.3130   39.0420 C   0  0  2  0  0  0  0  0  0  0  0  0
   40.1970   33.7900   40.6490 H   0  0  0  0  0  0  0  0  0  0  0  0
   39.5280   34.0060   39.0130 H   0  0  0  0  0  0  0  0  0  0  0  0
   37.8730   34.4570   40.7450 H   0  0  0  0  0  0  0  0  0  0  0  0
   37.7810   32.7550   41.2080 H   0  0  0  0  0  0  0  0  0  0  0  0
   37.0590   34.1830   38.6120 H   0  0  0  0  0  0  0  0  0  0  0  0
   36.1860   32.8970   39.4680 H   0  0  0  0  0  0  0  0  0  0  0  0
   38.4420   32.7480   37.5440 H   0  0  0  0  0  0  0  0  0  0  0  0
   37.0940   31.6320   37.6040 H   0  0  0  0  0  0  0  0  0  0  0  0
   39.1860   30.6400   38.2480 H   0  0  0  0  0  0  0  0  0  0  0  0
   42.2820   31.5540   38.7110 C   0  0  1  0  0  0  0  0  0  0  0  0
   42.1020   33.0020   38.9750 C   0  0  0  0  0  0  0  0  0  0  0  0
   40.9400   32.1800   38.5840 C   0  0  2  0  0  0  0  0  0  0  0  0
   42.4490   30.9180   39.6190 H   0  0  0  0  0  0  0  0  0  0  0  0
   42.1460   33.4280   39.9880 H   0  0  0  0  0  0  0  0  0  0  0  0
   42.4660   33.7160   38.1950 H   0  0  0  0  0  0  0  0  0  0  0  0
   40.5820   32.2370   37.5160 H   0  0  0  0  0  0  0  0  0  0  0  0
   42.4930   30.2210   36.5890 C   0  0  0  0  0  0  0  0  0  0  0  0
   43.0190   31.1380   37.5190 C   0  0  0  0  0  0  0  0  0  0  0  0
   44.3050   31.6560   37.2420 C   0  0  0  0  0  0  0  0  0  0  0  0
   44.9550   31.2530   36.1190 N   0  0  0  0  0  0  0  0  0  0  0  0
   44.4130   30.3700   35.2530 C   0  0  0  0  0  0  0  0  0  0  0  0
   43.1760   29.8450   35.4800 N   0  0  0  0  0  0  0  0  0  0  0  0
   41.5110   29.8230   36.8000 H   0  0  0  0  0  0  0  0  0  0  0  0
   44.7460   32.3620   37.9290 H   0  0  0  0  0  0  0  0  0  0  0  0
   44.9100   30.0330   34.3510 H   0  0  0  0  0  0  0  0  0  0  0  0
   38.0660   30.5840   40.0450 N   0  0  0  0  0  0  0  0  0  0  0  0
   38.7070   30.3290   40.8080 H   0  0  0  0  0  0  0  0  0  0  0  0
   35.8780   29.6950   40.7800 C   0  0  1  0  0  3  0  0  0  0  0  0
   37.0470   29.6910   39.8420 C   0  0  2  0  0  3  0  0  0  0  0  0
   37.3230   28.2270   39.7360 C   0  0  0  0  0  3  0  0  0  0  0  0
   38.3430   27.9820   39.4360 H   0  0  0  0  0  0  0  0  0  0  0  0
   36.8800   27.6280   40.9050 O   0  0  0  0  0  0  0  0  0  0  0  0
   36.2000   28.5260   41.6740 C   0  0  0  0  0  3  0  0  0  0  0  0
   36.7580   28.7550   42.5760 H   0  0  0  0  0  0  0  0  0  0  0  0
   35.6070   30.8600   41.4260 O   0  0  0  0  0  0  0  0  0  0  0  0
   35.6810   30.7010   42.4180 H   0  0  0  0  0  0  0  0  0  0  0  0
  1  2  1  6  0  0  0
  2  3  1  0  0  0  0
  2  7  1  0  0  0  0
  3  9  1  0  0  0  0
  3 10  1  0  0  0  0
  4 12  1  0  0  0  0
  4  3  1  0  0  0  0
  5  6  1  0  0  0  0
  5  4  1  0  0  0  0
  6 15  1  6  0  0  0
  6  1  1  0  0  0  0
  6 32  1  0  0  0  0
  8  2  1  0  0  0  0
 11  4  1  0  0  0  0
 13  5  1  0  0  0  0
 14  5  1  0  0  0  0
 16 17  1  0  0  0  0
 16 19  1  1  0  0  0
 17 20  1  0  0  0  0
 18 22  1  6  0  0  0
 18 16  1  0  0  0  0
 18 17  1  0  0  0  0
 18  1  1  0  0  0  0
 21 17  1  0  0  0  0
 23 29  1  0  0  0  0
 23 24  1  0  0  0  0
 24 16  1  0  0  0  0
 25 24  2  0  0  0  0
 25 30  1  0  0  0  0
 26 25  1  0  0  0  0
 27 28  1  0  0  0  0
 27 26  2  0  0  0  0
 28 23  2  0  0  0  0
 31 27  1  0  0  0  0
 32 33  1  0  0  0  0
 34 41  1  1  0  0  0
 34 39  1  0  0  0  0
 35 32  1  1  0  0  0
 35 34  1  0  0  0  0
 36 35  1  0  0  0  0
 36 38  1  0  0  0  0
 37 36  1  0  0  0  0
 38 39  1  0  0  0  0
 39 40  1  0  0  0  0
 41 42  1  0  0  0  0
M  END
>  <minimizedAffinity>
-5.28164768

$$$$

 OpenBabel03252506483D

 42 45  0  0  1  0  0  0  0  0999 V2000
   37.1690   30.0880   40.6010 N   0  0  1  0  0  0  0  0  0  0  0  0
   35.8270   30.4590   40.2030 C   0  0  0  0  0  0  0  0  0  0  0  0
   34.9080   29.2750   40.0930 C   0  0  0  0  0  0  0  0  0  0  0  0
   35.3600   28.4580   38.8970 C   0  0  0  0  0  0  0  0  0  0  0  0
   36.8710   28.4100   38.8300 C   0  0  0  0  0  0  0  0  0  0  0  0
   37.4380   28.7470   40.1820 C   0  0  2  0  0  0  0  0  0  0  0  0
   35.4380   31.2850   40.8220 H   0  0  0  0  0  0  0  0  0  0  0  0
   35.9120   30.8680   39.1570 H   0  0  0  0  0  0  0  0  0  0  0  0
   33.8960   29.6890   39.8590 H   0  0  0  0  0  0  0  0  0  0  0  0
   34.7900   28.6840   41.0030 H   0  0  0  0  0  0  0  0  0  0  0  0
   34.9290   28.8940   37.9630 H   0  0  0  0  0  0  0  0  0  0  0  0
   34.9670   27.4490   38.9940 H   0  0  0  0  0  0  0  0  0  0  0  0
   37.1420   29.3010   38.1830 H   0  0  0  0  0  0  0  0  0  0  0  0
   37.2990   27.5630   38.3250 H   0  0  0  0  0  0  0  0  0  0  0  0
   38.5520   28.7760   39.9790 H   0  0  0  0  0  0  0  0  0  0  0  0
   38.6630   32.1680   40.9000 C   0  0  1  0  0  0  0  0  0  0  0  0
   37.5510   32.4590   39.9630 C   0  0  0  0  0  0  0  0  0  0  0  0
   38.0530   31.0770   40.0960 C   0  0  2  0  0  0  0  0  0  0  0  0
   38.3920   32.1940   41.9880 H   0  0  0  0  0  0  0  0  0  0  0  0
   36.5350   32.7000   40.3080 H   0  0  0  0  0  0  0  0  0  0  0  0
   37.8090   32.9710   39.0020 H   0  0  0  0  0  0  0  0  0  0  0  0
   38.7450   30.6820   39.2970 H   0  0  0  0  0  0  0  0  0  0  0  0
   40.2260   33.7010   39.6640 C   0  0  0  0  0  0  0  0  0  0  0  0
   40.0040   32.6590   40.5840 C   0  0  0  0  0  0  0  0  0  0  0  0
   41.1460   32.1060   41.2060 C   0  0  0  0  0  0  0  0  0  0  0  0
   42.3740   32.5960   40.8950 N   0  0  0  0  0  0  0  0  0  0  0  0
   42.5430   33.5980   40.0050 C   0  0  0  0  0  0  0  0  0  0  0  0
   41.4700   34.1610   39.3810 N   0  0  0  0  0  0  0  0  0  0  0  0
   39.3540   34.1240   39.1870 H   0  0  0  0  0  0  0  0  0  0  0  0
   41.0210   31.3050   41.9180 H   0  0  0  0  0  0  0  0  0  0  0  0
   43.5100   34.0070   39.7400 H   0  0  0  0  0  0  0  0  0  0  0  0
   37.0920   27.7720   41.1380 N   0  0  0  0  0  0  0  0  0  0  0  0
   36.0890   27.8120   41.3630 H   0  0  0  0  0  0  0  0  0  0  0  0
   38.1400   28.2670   43.3240 C   0  0  1  0  0  3  0  0  0  0  0  0
   37.8850   27.3440   42.1710 C   0  0  2  0  0  3  0  0  0  0  0  0
   39.2610   26.8220   41.9120 C   0  0  0  0  0  3  0  0  0  0  0  0
   39.4170   26.4450   40.9000 H   0  0  0  0  0  0  0  0  0  0  0  0
   40.1640   27.7820   42.3420 O   0  0  0  0  0  0  0  0  0  0  0  0
   39.5160   28.7870   43.0000 C   0  0  0  0  0  3  0  0  0  0  0  0
   39.5560   29.7060   42.4240 H   0  0  0  0  0  0  0  0  0  0  0  0
   37.2050   29.2210   43.5710 O   0  0  0  0  0  0  0  0  0  0  0  0
   37.6390   30.1250   43.4820 H   0  0  0  0  0  0  0  0  0  0  0  0
  1  2  1  6  0  0  0
  2  7  1  0  0  0  0
  3  2  1  0  0  0  0
  3 10  1  0  0  0  0
  4 12  1  0  0  0  0
  4  3  1  0  0  0  0
  5  4  1  0  0  0  0
  5  6  1  0  0  0  0
  6 15  1  6  0  0  0
  6  1  1  0  0  0  0
  6 32  1  0  0  0  0
  8  2  1  0  0  0  0
  9  3  1  0  0  0  0
 11  4  1  0  0  0  0
 13  5  1  0  0  0  0
 14  5  1  0  0  0  0
 16 19  1  1  0  0  0
 17 18  1  0  0  0  0
 17 20  1  0  0  0  0
 17 16  1  0  0  0  0
 18 22  1  6  0  0  0
 18  1  1  0  0  0  0
 18 16  1  0  0  0  0
 21 17  1  0  0  0  0
 23 24  1  0  0  0  0
 24 16  1  0  0  0  0
 24 25  2  0  0  0  0
 25 30  1  0  0  0  0
 26 25  1  0  0  0  0
 27 26  2  0  0  0  0
 28 23  2  0  0  0  0
 28 27  1  0  0  0  0
 29 23  1  0  0  0  0
 31 27  1  0  0  0  0
 32 33  1  0  0  0  0
 34 41  1  6  0  0  0
 35 32  1  6  0  0  0
 35 34  1  0  0  0  0
 36 35  1  0  0  0  0
 36 38  1  0  0  0  0
 37 36  1  0  0  0  0
 38 39  1  0  0  0  0
 39 34  1  0  0  0  0
 40 39  1  0  0  0  0
 42 41  1  0  0  0  0
M  END
>  <minimizedAffinity>
-5.1524539

$$$$

 OpenBabel03252506483D

 42 45  0  0  1  0  0  0  0  0999 V2000
   38.7130   30.6220   40.9750 N   0  0  1  0  0  0  0  0  0  0  0  0
   39.2990   31.9000   41.3270 C   0  0  0  0  0  0  0  0  0  0  0  0
   38.9790   32.9770   40.3290 C   0  0  0  0  0  0  0  0  0  0  0  0
   39.7260   32.6460   39.0500 C   0  0  0  0  0  0  0  0  0  0  0  0
   39.6860   31.1580   38.7830 C   0  0  0  0  0  0  0  0  0  0  0  0
   38.5510   30.5460   39.5560 C   0  0  2  0  0  0  0  0  0  0  0  0
   39.0800   32.1670   42.3750 H   0  0  0  0  0  0  0  0  0  0  0  0
   40.4150   31.7600   41.2680 H   0  0  0  0  0  0  0  0  0  0  0  0
   39.4140   33.9200   40.7420 H   0  0  0  0  0  0  0  0  0  0  0  0
   37.9180   33.1740   40.1720 H   0  0  0  0  0  0  0  0  0  0  0  0
   40.7790   33.0140   39.1270 H   0  0  0  0  0  0  0  0  0  0  0  0
   39.2590   33.1780   38.2250 H   0  0  0  0  0  0  0  0  0  0  0  0
   40.6190   30.7650   39.2970 H   0  0  0  0  0  0  0  0  0  0  0  0
   39.7900   30.8540   37.7570 H   0  0  0  0  0  0  0  0  0  0  0  0
   38.6880   29.4390   39.3560 H   0  0  0  0  0  0  0  0  0  0  0  0
   39.2060   28.8820   42.8130 C   0  0  1  0  0  0  0  0  0  0  0  0
   40.2580   29.9270   42.7930 C   0  0  0  0  0  0  0  0  0  0  0  0
   39.5200   29.6090   41.5550 C   0  0  2  0  0  0  0  0  0  0  0  0
   38.2530   29.1710   43.3280 H   0  0  0  0  0  0  0  0  0  0  0  0
   40.1230   30.9110   43.2640 H   0  0  0  0  0  0  0  0  0  0  0  0
   41.3230   29.5850   42.8160 H   0  0  0  0  0  0  0  0  0  0  0  0
   40.0260   28.9560   40.7860 H   0  0  0  0  0  0  0  0  0  0  0  0
   40.8440   27.1100   43.5190 C   0  0  0  0  0  0  0  0  0  0  0  0
   39.6000   27.4830   42.9780 C   0  0  0  0  0  0  0  0  0  0  0  0
   38.7290   26.4350   42.6040 C   0  0  0  0  0  0  0  0  0  0  0  0
   39.1250   25.1470   42.7810 N   0  0  0  0  0  0  0  0  0  0  0  0
   40.3300   24.8330   43.3050 C   0  0  0  0  0  0  0  0  0  0  0  0
   41.2010   25.8110   43.6800 N   0  0  0  0  0  0  0  0  0  0  0  0
   41.5110   27.9100   43.8050 H   0  0  0  0  0  0  0  0  0  0  0  0
   37.7650   26.6760   42.1840 H   0  0  0  0  0  0  0  0  0  0  0  0
   40.6700   23.8160   43.4580 H   0  0  0  0  0  0  0  0  0  0  0  0
   37.3060   31.0240   39.0990 N   0  0  0  0  0  0  0  0  0  0  0  0
   37.1900   32.0220   39.3180 H   0  0  0  0  0  0  0  0  0  0  0  0
   35.4080   30.0530   40.3540 C   0  0  1  0  0  3  0  0  0  0  0  0
   36.1360   30.3120   39.0700 C   0  0  2  0  0  3  0  0  0  0  0  0
   36.0780   28.9630   38.4310 C   0  0  0  0  0  3  0  0  0  0  0  0
   36.8560   28.7830   37.6870 H   0  0  0  0  0  0  0  0  0  0  0  0
   35.9850   28.0200   39.4430 O   0  0  0  0  0  0  0  0  0  0  0  0
   35.8080   28.6310   40.6500 C   0  0  0  0  0  3  0  0  0  0  0  0
   36.6870   28.5030   41.2740 H   0  0  0  0  0  0  0  0  0  0  0  0
   35.6100   30.9350   41.3680 O   0  0  0  0  0  0  0  0  0  0  0  0
   36.0070   30.4380   42.1490 H   0  0  0  0  0  0  0  0  0  0  0  0
  1  2  1  6  0  0  0
  1 18  1  0  0  0  0
  2  7  1  0  0  0  0
  3  9  1  0  0  0  0
  3  2  1  0  0  0  0
  4 11  1  0  0  0  0
  4  3  1  0  0  0  0
  5  4  1  0  0  0  0
  5 13  1  0  0  0  0
  5  6  1  0  0  0  0
  6 15  1  6  0  0  0
  6  1  1  0  0  0  0
  8  2  1  0  0  0  0
 10  3  1  0  0  0  0
 12  4  1  0  0  0  0
 14  5  1  0  0  0  0
 16 24  1  0  0  0  0
 16 19  1  1  0  0  0
 17 16  1  0  0  0  0
 17 21  1  0  0  0  0
 17 20  1  0  0  0  0
 18 22  1  6  0  0  0
 18 17  1  0  0  0  0
 18 16  1  0  0  0  0
 23 28  1  0  0  0  0
 23 29  1  0  0  0  0
 24 23  2  0  0  0  0
 25 26  2  0  0  0  0
 25 24  1  0  0  0  0
 26 27  1  0  0  0  0
 27 31  1  0  0  0  0
 27 28  2  0  0  0  0
 30 25  1  0  0  0  0
 32 33  1  0  0  0  0
 32  6  1  0  0  0  0
 34 39  1  0  0  0  0
 34 41  1  1  0  0  0
 35 32  1  1  0  0  0
 35 34  1  0  0  0  0
 36 35  1  0  0  0  0
 36 38  1  0  0  0  0
 37 36  1  0  0  0  0
 38 39  1  0  0  0  0
 39 40  1  0  0  0  0
 41 42  1  0  0  0  0
M  END
>  <minimizedAffinity>
-5.11809397

$$$$

 OpenBabel03252506483D

 42 45  0  0  1  0  0  0  0  0999 V2000
   37.1250   29.5940   41.1570 N   0  0  1  0  0  0  0  0  0  0  0  0
   36.8670   28.7510   42.3060 C   0  0  0  0  0  0  0  0  0  0  0  0
   37.9190   28.8860   43.3700 C   0  0  0  0  0  0  0  0  0  0  0  0
   39.1960   28.2720   42.8280 C   0  0  0  0  0  0  0  0  0  0  0  0
   39.3720   28.6200   41.3670 C   0  0  0  0  0  0  0  0  0  0  0  0
   38.5310   29.8240   41.0390 C   0  0  2  0  0  0  0  0  0  0  0  0
   35.8310   28.8700   42.6670 H   0  0  0  0  0  0  0  0  0  0  0  0
   36.9480   27.6890   41.9400 H   0  0  0  0  0  0  0  0  0  0  0  0
   37.5750   28.2560   44.2270 H   0  0  0  0  0  0  0  0  0  0  0  0
   38.0580   29.8920   43.7700 H   0  0  0  0  0  0  0  0  0  0  0  0
   39.1700   27.1650   42.9790 H   0  0  0  0  0  0  0  0  0  0  0  0
   40.0380   28.6550   43.3980 H   0  0  0  0  0  0  0  0  0  0  0  0
   38.8610   27.7660   40.8210 H   0  0  0  0  0  0  0  0  0  0  0  0
   40.3800   28.6200   40.9940 H   0  0  0  0  0  0  0  0  0  0  0  0
   38.6690   29.9200   39.9180 H   0  0  0  0  0  0  0  0  0  0  0  0
   35.8800   29.7160   38.9020 C   0  0  1  0  0  0  0  0  0  0  0  0
   35.0370   29.0490   39.9240 C   0  0  0  0  0  0  0  0  0  0  0  0
   36.5070   28.9840   40.0330 C   0  0  2  0  0  0  0  0  0  0  0  0
   35.9060   30.8360   38.9590 H   0  0  0  0  0  0  0  0  0  0  0  0
   34.4640   29.6110   40.6760 H   0  0  0  0  0  0  0  0  0  0  0  0
   34.5360   28.0920   39.6330 H   0  0  0  0  0  0  0  0  0  0  0  0
   37.0250   28.0360   39.7080 H   0  0  0  0  0  0  0  0  0  0  0  0
   34.8760   28.3840   37.0200 C   0  0  0  0  0  0  0  0  0  0  0  0
   35.9220   29.1630   37.5490 C   0  0  0  0  0  0  0  0  0  0  0  0
   37.0280   29.4020   36.7010 C   0  0  0  0  0  0  0  0  0  0  0  0
   37.0270   28.8810   35.4460 N   0  0  0  0  0  0  0  0  0  0  0  0
   36.0010   28.1370   34.9780 C   0  0  0  0  0  0  0  0  0  0  0  0
   34.9150   27.8820   35.7600 N   0  0  0  0  0  0  0  0  0  0  0  0
   34.0310   28.2000   37.6660 H   0  0  0  0  0  0  0  0  0  0  0  0
   37.8530   29.9940   37.0670 H   0  0  0  0  0  0  0  0  0  0  0  0
   35.9750   27.7110   33.9830 H   0  0  0  0  0  0  0  0  0  0  0  0
   38.9820   30.9640   41.7340 N   0  0  0  0  0  0  0  0  0  0  0  0
   38.5480   31.0260   42.6650 H   0  0  0  0  0  0  0  0  0  0  0  0
   38.2490   32.8880   40.3620 C   0  0  1  0  0  3  0  0  0  0  0  0
   39.2890   32.1760   41.1730 C   0  0  2  0  0  3  0  0  0  0  0  0
   40.4900   32.3310   40.2990 C   0  0  0  0  0  3  0  0  0  0  0  0
   41.2670   31.5830   40.4650 H   0  0  0  0  0  0  0  0  0  0  0  0
   40.0460   32.4570   38.9910 O   0  0  0  0  0  0  0  0  0  0  0  0
   38.6870   32.5670   38.9560 C   0  0  0  0  0  3  0  0  0  0  0  0
   38.2450   31.6830   38.5080 H   0  0  0  0  0  0  0  0  0  0  0  0
   36.9480   32.6080   40.6400 O   0  0  0  0  0  0  0  0  0  0  0  0
   36.5200   32.2240   39.8140 H   0  0  0  0  0  0  0  0  0  0  0  0
  1  2  1  1  0  0  0
  2  7  1  0  0  0  0
  2  3  1  0  0  0  0
  3 10  1  0  0  0  0
  3  9  1  0  0  0  0
  4 11  1  0  0  0  0
  4  3  1  0  0  0  0
  4 12  1  0  0  0  0
  5  4  1  0  0  0  0
  6 15  1  6  0  0  0
  6  1  1  0  0  0  0
  6  5  1  0  0  0  0
  6 32  1  0  0  0  0
  8  2  1  0  0  0  0
 13  5  1  0  0  0  0
 14  5  1  0  0  0  0
 16 19  1  1  0  0  0
 16 17  1  0  0  0  0
 16 18  1  0  0  0  0
 17 18  1  0  0  0  0
 17 20  1  0  0  0  0
 18 22  1  6  0  0  0
 18  1  1  0  0  0  0
 21 17  1  0  0  0  0
 23 24  1  0  0  0  0
 23 29  1  0  0  0  0
 24 16  1  0  0  0  0
 25 30  1  0  0  0  0
 25 24  2  0  0  0  0
 26 25  1  0  0  0  0
 27 26  2  0  0  0  0
 27 28  1  0  0  0  0
 28 23  2  0  0  0  0
 31 27  1  0  0  0  0
 32 33  1  0  0  0  0
 34 41  1  1  0  0  0
 34 35  1  0  0  0  0
 35 32  1  6  0  0  0
 36 37  1  0  0  0  0
 36 35  1  0  0  0  0
 38 36  1  0  0  0  0
 39 38  1  0  0  0  0
 39 34  1  0  0  0  0
 40 39  1  0  0  0  0
 42 41  1  0  0  0  0
M  END
>  <minimizedAffinity>
-5.08833504

$$$$

 OpenBabel03252506483D

 42 45  0  0  1  0  0  0  0  0999 V2000
   37.1180   29.8380   40.2140 N   0  0  1  0  0  0  0  0  0  0  0  0
   37.1060   31.2140   40.6680 C   0  0  0  0  0  0  0  0  0  0  0  0
   37.0180   32.1970   39.5350 C   0  0  0  0  0  0  0  0  0  0  0  0
   38.3350   32.1400   38.7820 C   0  0  0  0  0  0  0  0  0  0  0  0
   38.8220   30.7120   38.6740 C   0  0  0  0  0  0  0  0  0  0  0  0
   37.6660   29.7760   38.8950 C   0  0  2  0  0  0  0  0  0  0  0  0
   36.3600   31.3670   41.4670 H   0  0  0  0  0  0  0  0  0  0  0  0
   38.1100   31.3960   41.1440 H   0  0  0  0  0  0  0  0  0  0  0  0
   36.9400   33.2070   40.0070 H   0  0  0  0  0  0  0  0  0  0  0  0
   36.1450   32.0940   38.8890 H   0  0  0  0  0  0  0  0  0  0  0  0
   39.0870   32.7850   39.2980 H   0  0  0  0  0  0  0  0  0  0  0  0
   38.1870   32.5510   37.7870 H   0  0  0  0  0  0  0  0  0  0  0  0
   39.4710   30.5770   39.5950 H   0  0  0  0  0  0  0  0  0  0  0  0
   39.4710   30.4910   37.8460 H   0  0  0  0  0  0  0  0  0  0  0  0
   38.1690   28.7610   38.8900 H   0  0  0  0  0  0  0  0  0  0  0  0
   37.1950   27.9520   41.9710 C   0  0  1  0  0  0  0  0  0  0  0  0
   37.4290   29.2690   42.6130 C   0  0  0  0  0  0  0  0  0  0  0  0
   37.7950   29.0700   41.1970 C   0  0  2  0  0  0  0  0  0  0  0  0
   36.1230   27.7130   41.7460 H   0  0  0  0  0  0  0  0  0  0  0  0
   36.6100   29.9570   42.8670 H   0  0  0  0  0  0  0  0  0  0  0  0
   38.2900   29.3480   43.3230 H   0  0  0  0  0  0  0  0  0  0  0  0
   38.8820   28.8960   40.9470 H   0  0  0  0  0  0  0  0  0  0  0  0
   37.8310   25.5240   41.8370 C   0  0  0  0  0  0  0  0  0  0  0  0
   38.0130   26.8110   42.3770 C   0  0  0  0  0  0  0  0  0  0  0  0
   39.0420   26.9580   43.3350 C   0  0  0  0  0  0  0  0  0  0  0  0
   39.7880   25.8760   43.6800 N   0  0  0  0  0  0  0  0  0  0  0  0
   39.5790   24.6580   43.1360 C   0  0  0  0  0  0  0  0  0  0  0  0
   38.5990   24.4690   42.2090 N   0  0  0  0  0  0  0  0  0  0  0  0
   37.0450   25.4090   41.1060 H   0  0  0  0  0  0  0  0  0  0  0  0
   39.2160   27.9280   43.7750 H   0  0  0  0  0  0  0  0  0  0  0  0
   40.1600   23.7800   43.3930 H   0  0  0  0  0  0  0  0  0  0  0  0
   36.7040   29.9030   37.8720 N   0  0  0  0  0  0  0  0  0  0  0  0
   36.1500   30.7610   37.9900 H   0  0  0  0  0  0  0  0  0  0  0  0
   36.3630   28.5050   35.8600 C   0  0  1  0  0  3  0  0  0  0  0  0
   36.0290   28.8720   37.2740 C   0  0  2  0  0  3  0  0  0  0  0  0
   34.5360   28.8620   37.2270 C   0  0  0  0  0  3  0  0  0  0  0  0
   34.0570   29.4640   38.0010 H   0  0  0  0  0  0  0  0  0  0  0  0
   34.1530   29.1420   35.9240 O   0  0  0  0  0  0  0  0  0  0  0  0
   35.2400   29.1630   35.1010 C   0  0  0  0  0  3  0  0  0  0  0  0
   35.4300   30.1720   34.7470 H   0  0  0  0  0  0  0  0  0  0  0  0
   37.6130   28.8090   35.4210 O   0  0  0  0  0  0  0  0  0  0  0  0
   37.5340   29.4420   34.6420 H   0  0  0  0  0  0  0  0  0  0  0  0
  1  2  1  1  0  0  0
  1 18  1  0  0  0  0
  2  8  1  0  0  0  0
  2  7  1  0  0  0  0
  3  9  1  0  0  0  0
  3  2  1  0  0  0  0
  4 11  1  0  0  0  0
  4  3  1  0  0  0  0
  5  4  1  0  0  0  0
  5  6  1  0  0  0  0
  5 13  1  0  0  0  0
  6 15  1  6  0  0  0
  6  1  1  0  0  0  0
 10  3  1  0  0  0  0
 12  4  1  0  0  0  0
 14  5  1  0  0  0  0
 16 19  1  6  0  0  0
 16 24  1  0  0  0  0
 16 17  1  0  0  0  0
 17 20  1  0  0  0  0
 17 21  1  0  0  0  0
 18 22  1  6  0  0  0
 18 16  1  0  0  0  0
 18 17  1  0  0  0  0
 23 28  2  0  0  0  0
 23 24  1  0  0  0  0
 24 25  2  0  0  0  0
 25 26  1  0  0  0  0
 25 30  1  0  0  0  0
 27 31  1  0  0  0  0
 27 26  2  0  0  0  0
 28 27  1  0  0  0  0
 29 23  1  0  0  0  0
 32 33  1  0  0  0  0
 32  6  1  0  0  0  0
 34 41  1  6  0  0  0
 34 35  1  0  0  0  0
 35 32  1  6  0  0  0
 36 35  1  0  0  0  0
 36 37  1  0  0  0  0
 38 36  1  0  0  0  0
 39 34  1  0  0  0  0
 39 38  1  0  0  0  0
 40 39  1  0  0  0  0
 42 41  1  0  0  0  0
M  END
>  <minimizedAffinity>
-5.05863142

$$$$

 OpenBabel03252506483D

 42 45  0  0  1  0  0  0  0  0999 V2000
   38.3380   28.9550   41.6760 N   0  0  1  0  0  0  0  0  0  0  0  0
   39.0430   29.4030   42.8600 C   0  0  0  0  0  0  0  0  0  0  0  0
   39.6550   30.7640   42.6880 C   0  0  0  0  0  0  0  0  0  0  0  0
   40.7940   30.6280   41.6940 C   0  0  0  0  0  0  0  0  0  0  0  0
   40.4090   29.6870   40.5740 C   0  0  0  0  0  0  0  0  0  0  0  0
   38.9110   29.5700   40.5190 C   0  0  2  0  0  0  0  0  0  0  0  0
   38.4210   29.2910   43.7650 H   0  0  0  0  0  0  0  0  0  0  0  0
   39.9120   28.6990   42.9920 H   0  0  0  0  0  0  0  0  0  0  0  0
   40.0990   31.0310   43.6790 H   0  0  0  0  0  0  0  0  0  0  0  0
   38.9590   31.5670   42.4410 H   0  0  0  0  0  0  0  0  0  0  0  0
   41.7110   30.2700   42.2250 H   0  0  0  0  0  0  0  0  0  0  0  0
   41.0210   31.6090   41.2860 H   0  0  0  0  0  0  0  0  0  0  0  0
   40.7560   28.6710   40.9410 H   0  0  0  0  0  0  0  0  0  0  0  0
   40.9170   29.8280   39.6370 H   0  0  0  0  0  0  0  0  0  0  0  0
   38.7570   28.7770   39.7230 H   0  0  0  0  0  0  0  0  0  0  0  0
   37.1390   26.6740   41.7510 C   0  0  1  0  0  0  0  0  0  0  0  0
   38.0040   26.8440   42.9430 C   0  0  0  0  0  0  0  0  0  0  0  0
   38.3470   27.5360   41.6850 C   0  0  2  0  0  0  0  0  0  0  0  0
   36.1520   27.2050   41.7950 H   0  0  0  0  0  0  0  0  0  0  0  0
   37.6970   27.4340   43.8180 H   0  0  0  0  0  0  0  0  0  0  0  0
   38.6740   25.9900   43.2170 H   0  0  0  0  0  0  0  0  0  0  0  0
   39.1640   27.0980   41.0410 H   0  0  0  0  0  0  0  0  0  0  0  0
   36.5420   25.2090   39.7970 C   0  0  0  0  0  0  0  0  0  0  0  0
   37.1150   25.3800   41.0710 C   0  0  0  0  0  0  0  0  0  0  0  0
   37.6850   24.2330   41.6700 C   0  0  0  0  0  0  0  0  0  0  0  0
   37.6530   23.0500   41.0030 N   0  0  0  0  0  0  0  0  0  0  0  0
   37.0920   22.9300   39.7810 C   0  0  0  0  0  0  0  0  0  0  0  0
   36.5300   24.0090   39.1650 N   0  0  0  0  0  0  0  0  0  0  0  0
   36.1050   26.0830   39.3380 H   0  0  0  0  0  0  0  0  0  0  0  0
   38.1350   24.3200   42.6470 H   0  0  0  0  0  0  0  0  0  0  0  0
   37.0540   22.0000   39.2270 H   0  0  0  0  0  0  0  0  0  0  0  0
   38.3150   30.7990   40.1730 N   0  0  0  0  0  0  0  0  0  0  0  0
   38.4330   31.4920   40.9240 H   0  0  0  0  0  0  0  0  0  0  0  0
   35.8430   30.7290   40.0900 C   0  0  1  0  0  3  0  0  0  0  0  0
   37.1720   30.9570   39.4340 C   0  0  2  0  0  3  0  0  0  0  0  0
   36.9850   30.2200   38.1480 C   0  0  0  0  0  3  0  0  0  0  0  0
   37.9150   29.9030   37.6720 H   0  0  0  0  0  0  0  0  0  0  0  0
   36.0510   29.2190   38.3660 O   0  0  0  0  0  0  0  0  0  0  0  0
   35.4970   29.3450   39.6060 C   0  0  0  0  0  3  0  0  0  0  0  0
   35.8070   28.5250   40.2460 H   0  0  0  0  0  0  0  0  0  0  0  0
   35.7800   30.9040   41.4360 O   0  0  0  0  0  0  0  0  0  0  0  0
   35.5030   30.0340   41.8600 H   0  0  0  0  0  0  0  0  0  0  0  0
  1 18  1  0  0  0  0
  1  2  1  1  0  0  0
  2  8  1  0  0  0  0
  2  7  1  0  0  0  0
  3  2  1  0  0  0  0
  3  9  1  0  0  0  0
  4 11  1  0  0  0  0
  4  3  1  0  0  0  0
  5 13  1  0  0  0  0
  5  4  1  0  0  0  0
  6 15  1  6  0  0  0
  6  5  1  0  0  0  0
  6  1  1  0  0  0  0
 10  3  1  0  0  0  0
 12  4  1  0  0  0  0
 14  5  1  0  0  0  0
 16 19  1  1  0  0  0
 16 17  1  0  0  0  0
 17 21  1  0  0  0  0
 17 20  1  0  0  0  0
 18 22  1  6  0  0  0
 18 16  1  0  0  0  0
 18 17  1  0  0  0  0
 23 24  1  0  0  0  0
 24 25  2  0  0  0  0
 24 16  1  0  0  0  0
 25 30  1  0  0  0  0
 26 25  1  0  0  0  0
 27 26  2  0  0  0  0
 28 27  1  0  0  0  0
 28 23  2  0  0  0  0
 29 23  1  0  0  0  0
 31 27  1  0  0  0  0
 32  6  1  0  0  0  0
 32 33  1  0  0  0  0
 34 41  1  1  0  0  0
 35 34  1  0  0  0  0
 35 32  1  1  0  0  0
 36 38  1  0  0  0  0
 36 35  1  0  0  0  0
 37 36  1  0  0  0  0
 38 39  1  0  0  0  0
 39 34  1  0  0  0  0
 39 40  1  0  0  0  0
 41 42  1  0  0  0  0
M  END
>  <minimizedAffinity>
-5.01929474

$$$$

 OpenBabel03252506483D

 42 45  0  0  1  0  0  0  0  0999 V2000
   37.5790   28.4590   40.8860 N   0  0  1  0  0  0  0  0  0  0  0  0
   37.2050   29.3150   41.9930 C   0  0  0  0  0  0  0  0  0  0  0  0
   37.7900   28.8600   43.3000 C   0  0  0  0  0  0  0  0  0  0  0  0
   37.1010   27.5620   43.6780 C   0  0  0  0  0  0  0  0  0  0  0  0
   36.8970   26.6960   42.4560 C   0  0  0  0  0  0  0  0  0  0  0  0
   37.8390   27.1390   41.3710 C   0  0  2  0  0  0  0  0  0  0  0  0
   37.3820   30.3790   41.7570 H   0  0  0  0  0  0  0  0  0  0  0  0
   36.0900   29.2060   42.1110 H   0  0  0  0  0  0  0  0  0  0  0  0
   37.4990   29.6320   44.0550 H   0  0  0  0  0  0  0  0  0  0  0  0
   38.8790   28.7990   43.3330 H   0  0  0  0  0  0  0  0  0  0  0  0
   36.1290   27.7880   44.1800 H   0  0  0  0  0  0  0  0  0  0  0  0
   37.7210   27.0350   44.3990 H   0  0  0  0  0  0  0  0  0  0  0  0
   35.8710   26.9990   42.0760 H   0  0  0  0  0  0  0  0  0  0  0  0
   36.8230   25.6370   42.6270 H   0  0  0  0  0  0  0  0  0  0  0  0
   37.5240   26.4930   40.4940 H   0  0  0  0  0  0  0  0  0  0  0  0
   36.3800   29.7110   38.9770 C   0  0  1  0  0  0  0  0  0  0  0  0
   35.4660   29.5260   40.1300 C   0  0  0  0  0  0  0  0  0  0  0  0
   36.5600   28.5630   39.9030 C   0  0  2  0  0  0  0  0  0  0  0  0
   37.1160   30.5510   39.0780 H   0  0  0  0  0  0  0  0  0  0  0  0
   35.4950   30.1760   41.0170 H   0  0  0  0  0  0  0  0  0  0  0  0
   34.4380   29.1420   39.9150 H   0  0  0  0  0  0  0  0  0  0  0  0
   36.3080   27.5710   39.4260 H   0  0  0  0  0  0  0  0  0  0  0  0
   34.5520   29.0600   37.3780 C   0  0  0  0  0  0  0  0  0  0  0  0
   35.8670   29.4970   37.6250 C   0  0  0  0  0  0  0  0  0  0  0  0
   36.6790   29.7370   36.4930 C   0  0  0  0  0  0  0  0  0  0  0  0
   36.1640   29.5370   35.2520 N   0  0  0  0  0  0  0  0  0  0  0  0
   34.8950   29.1150   35.0600 C   0  0  0  0  0  0  0  0  0  0  0  0
   34.0770   28.8720   36.1220 N   0  0  0  0  0  0  0  0  0  0  0  0
   33.9300   28.8750   38.2420 H   0  0  0  0  0  0  0  0  0  0  0  0
   37.6940   30.0740   36.6360 H   0  0  0  0  0  0  0  0  0  0  0  0
   34.4600   28.9490   34.0820 H   0  0  0  0  0  0  0  0  0  0  0  0
   39.1820   26.9220   41.7400 N   0  0  0  0  0  0  0  0  0  0  0  0
   39.6790   27.8140   41.8680 H   0  0  0  0  0  0  0  0  0  0  0  0
   40.3830   24.8320   42.2940 C   0  0  1  0  0  3  0  0  0  0  0  0
   39.9750   25.8900   41.3140 C   0  0  2  0  0  3  0  0  0  0  0  0
   41.2730   26.1570   40.6250 C   0  0  0  0  0  3  0  0  0  0  0  0
   41.3380   27.1390   40.1520 H   0  0  0  0  0  0  0  0  0  0  0  0
   42.2930   25.8490   41.5120 O   0  0  0  0  0  0  0  0  0  0  0  0
   41.7890   25.2550   42.6310 C   0  0  0  0  0  3  0  0  0  0  0  0
   41.8970   25.9090   43.4910 H   0  0  0  0  0  0  0  0  0  0  0  0
   39.5670   24.6300   43.3620 O   0  0  0  0  0  0  0  0  0  0  0  0
   40.0900   24.8140   44.2030 H   0  0  0  0  0  0  0  0  0  0  0  0
  1  6  1  0  0  0  0
  1  2  1  1  0  0  0
  2  8  1  0  0  0  0
  2  3  1  0  0  0  0
  3 10  1  0  0  0  0
  3  4  1  0  0  0  0
  3  9  1  0  0  0  0
  4 11  1  0  0  0  0
  4 12  1  0  0  0  0
  5 14  1  0  0  0  0
  5  4  1  0  0  0  0
  6 15  1  6  0  0  0
  6 32  1  0  0  0  0
  6  5  1  0  0  0  0
  7  2  1  0  0  0  0
 13  5  1  0  0  0  0
 16 19  1  1  0  0  0
 16 18  1  0  0  0  0
 16 17  1  0  0  0  0
 17 20  1  0  0  0  0
 18 22  1  6  0  0  0
 18 17  1  0  0  0  0
 18  1  1  0  0  0  0
 21 17  1  0  0  0  0
 23 24  1  0  0  0  0
 23 29  1  0  0  0  0
 24 16  1  0  0  0  0
 25 30  1  0  0  0  0
 25 24  2  0  0  0  0
 26 25  1  0  0  0  0
 27 26  2  0  0  0  0
 27 28  1  0  0  0  0
 28 23  2  0  0  0  0
 31 27  1  0  0  0  0
 32 33  1  0  0  0  0
 34 39  1  0  0  0  0
 34 41  1  1  0  0  0
 35 32  1  1  0  0  0
 35 34  1  0  0  0  0
 36 35  1  0  0  0  0
 36 38  1  0  0  0  0
 37 36  1  0  0  0  0
 38 39  1  0  0  0  0
 39 40  1  0  0  0  0
 41 42  1  0  0  0  0
M  END
>  <minimizedAffinity>
-5.00527

$$$$

 OpenBabel03252506483D

 42 45  0  0  1  0  0  0  0  0999 V2000
   37.2530   26.8630   41.3420 N   0  0  1  0  0  0  0  0  0  0  0  0
   37.0920   26.7090   42.7730 C   0  0  0  0  0  0  0  0  0  0  0  0
   37.5220   27.9280   43.5380 C   0  0  0  0  0  0  0  0  0  0  0  0
   39.0310   28.0330   43.4150 C   0  0  0  0  0  0  0  0  0  0  0  0
   39.4740   27.6690   42.0160 C   0  0  0  0  0  0  0  0  0  0  0  0
   38.3060   27.7940   41.0780 C   0  0  2  0  0  0  0  0  0  0  0  0
   36.0830   26.3410   43.0270 H   0  0  0  0  0  0  0  0  0  0  0  0
   37.8060   25.8950   43.0830 H   0  0  0  0  0  0  0  0  0  0  0  0
   37.2820   27.7220   44.6100 H   0  0  0  0  0  0  0  0  0  0  0  0
   37.0010   28.8530   43.2830 H   0  0  0  0  0  0  0  0  0  0  0  0
   39.5130   27.3710   44.1760 H   0  0  0  0  0  0  0  0  0  0  0  0
   39.3310   29.0530   43.6390 H   0  0  0  0  0  0  0  0  0  0  0  0
   39.6680   26.5520   42.0740 H   0  0  0  0  0  0  0  0  0  0  0  0
   40.4060   28.0920   41.6850 H   0  0  0  0  0  0  0  0  0  0  0  0
   38.7330   27.4060   40.1020 H   0  0  0  0  0  0  0  0  0  0  0  0
   36.4100   24.8350   39.9900 C   0  0  1  0  0  0  0  0  0  0  0  0
   36.6830   24.4450   41.3940 C   0  0  0  0  0  0  0  0  0  0  0  0
   37.4270   25.5670   40.7900 C   0  0  2  0  0  0  0  0  0  0  0  0
   35.4360   25.3660   39.8200 H   0  0  0  0  0  0  0  0  0  0  0  0
   35.9750   24.6450   42.2120 H   0  0  0  0  0  0  0  0  0  0  0  0
   37.2770   23.5120   41.5620 H   0  0  0  0  0  0  0  0  0  0  0  0
   38.4810   25.3780   40.4360 H   0  0  0  0  0  0  0  0  0  0  0  0
   36.9010   24.3570   37.5710 C   0  0  0  0  0  0  0  0  0  0  0  0
   36.8220   23.9370   38.9120 C   0  0  0  0  0  0  0  0  0  0  0  0
   37.1740   22.5950   39.1790 C   0  0  0  0  0  0  0  0  0  0  0  0
   37.5620   21.7930   38.1530 N   0  0  0  0  0  0  0  0  0  0  0  0
   37.6230   22.2370   36.8800 C   0  0  0  0  0  0  0  0  0  0  0  0
   37.2940   23.5240   36.5750 N   0  0  0  0  0  0  0  0  0  0  0  0
   36.6320   25.3820   37.3650 H   0  0  0  0  0  0  0  0  0  0  0  0
   37.1280   22.2310   40.1950 H   0  0  0  0  0  0  0  0  0  0  0  0
   37.9300   21.6200   36.0440 H   0  0  0  0  0  0  0  0  0  0  0  0
   37.8710   29.1310   40.9780 N   0  0  0  0  0  0  0  0  0  0  0  0
   37.6340   29.5130   41.9030 H   0  0  0  0  0  0  0  0  0  0  0  0
   35.8300   30.3150   40.2350 C   0  0  1  0  0  3  0  0  0  0  0  0
   37.1490   29.6650   39.9440 C   0  0  2  0  0  3  0  0  0  0  0  0
   36.8010   28.8390   38.7480 C   0  0  0  0  0  3  0  0  0  0  0  0
   37.4640   27.9880   38.5810 H   0  0  0  0  0  0  0  0  0  0  0  0
   35.4490   28.5440   38.8170 O   0  0  0  0  0  0  0  0  0  0  0  0
   34.8610   29.2320   39.8370 C   0  0  0  0  0  3  0  0  0  0  0  0
   34.5540   28.5530   40.6270 H   0  0  0  0  0  0  0  0  0  0  0  0
   35.6520   30.8200   41.4850 O   0  0  0  0  0  0  0  0  0  0  0  0
   34.8740   30.3460   41.9140 H   0  0  0  0  0  0  0  0  0  0  0  0
  1  2  1  1  0  0  0
  2  7  1  0  0  0  0
  2  8  1  0  0  0  0
  2  3  1  0  0  0  0
  3  9  1  0  0  0  0
  4  3  1  0  0  0  0
  4 12  1  0  0  0  0
  4 11  1  0  0  0  0
  5 13  1  0  0  0  0
  5  4  1  0  0  0  0
  6 15  1  6  0  0  0
  6  1  1  0  0  0  0
  6  5  1  0  0  0  0
 10  3  1  0  0  0  0
 14  5  1  0  0  0  0
 16 19  1  6  0  0  0
 16 18  1  0  0  0  0
 16 17  1  0  0  0  0
 17 21  1  0  0  0  0
 17 20  1  0  0  0  0
 18 22  1  6  0  0  0
 18  1  1  0  0  0  0
 18 17  1  0  0  0  0
 23 24  1  0  0  0  0
 24 25  2  0  0  0  0
 24 16  1  0  0  0  0
 25 30  1  0  0  0  0
 26 25  1  0  0  0  0
 27 26  2  0  0  0  0
 28 27  1  0  0  0  0
 28 23  2  0  0  0  0
 29 23  1  0  0  0  0
 31 27  1  0  0  0  0
 32  6  1  0  0  0  0
 32 33  1  0  0  0  0
 34 41  1  1  0  0  0
 35 34  1  0  0  0  0
 35 32  1  1  0  0  0
 36 38  1  0  0  0  0
 36 35  1  0  0  0  0
 37 36  1  0  0  0  0
 38 39  1  0  0  0  0
 39 34  1  0  0  0  0
 39 40  1  0  0  0  0
 41 42  1  0  0  0  0
M  END
>  <minimizedAffinity>
-4.98042679

$$$$

 OpenBabel03252506483D

 42 45  0  0  1  0  0  0  0  0999 V2000
   37.0270   26.2870   40.5080 N   0  0  1  0  0  0  0  0  0  0  0  0
   36.5180   24.9800   40.1460 C   0  0  0  0  0  0  0  0  0  0  0  0
   37.0600   23.8850   41.0210 C   0  0  0  0  0  0  0  0  0  0  0  0
   38.5350   23.7340   40.6970 C   0  0  0  0  0  0  0  0  0  0  0  0
   39.1720   25.0890   40.4850 C   0  0  0  0  0  0  0  0  0  0  0  0
   38.3120   26.1460   41.1200 C   0  0  2  0  0  0  0  0  0  0  0  0
   35.4190   24.9890   40.0500 H   0  0  0  0  0  0  0  0  0  0  0  0
   36.9170   24.7630   39.1150 H   0  0  0  0  0  0  0  0  0  0  0  0
   36.5430   22.9480   40.6990 H   0  0  0  0  0  0  0  0  0  0  0  0
   36.8590   23.9920   42.0880 H   0  0  0  0  0  0  0  0  0  0  0  0
   38.6540   23.0860   39.7940 H   0  0  0  0  0  0  0  0  0  0  0  0
   39.0240   23.2260   41.5240 H   0  0  0  0  0  0  0  0  0  0  0  0
   39.0610   25.2700   39.3700 H   0  0  0  0  0  0  0  0  0  0  0  0
   40.2300   25.1530   40.6690 H   0  0  0  0  0  0  0  0  0  0  0  0
   38.8330   27.1040   40.8110 H   0  0  0  0  0  0  0  0  0  0  0  0
   36.1360   28.3040   39.1710 C   0  0  1  0  0  0  0  0  0  0  0  0
   35.7870   27.0340   38.4890 C   0  0  0  0  0  0  0  0  0  0  0  0
   36.9870   27.0980   39.3440 C   0  0  2  0  0  0  0  0  0  0  0  0
   35.4810   28.5780   40.0390 H   0  0  0  0  0  0  0  0  0  0  0  0
   34.9350   26.4110   38.7990 H   0  0  0  0  0  0  0  0  0  0  0  0
   35.9850   26.9700   37.3890 H   0  0  0  0  0  0  0  0  0  0  0  0
   37.9940   27.1970   38.8430 H   0  0  0  0  0  0  0  0  0  0  0  0
   37.1170   30.6080   38.9510 C   0  0  0  0  0  0  0  0  0  0  0  0
   36.6060   29.4330   38.3690 C   0  0  0  0  0  0  0  0  0  0  0  0
   36.5740   29.3850   36.9570 C   0  0  0  0  0  0  0  0  0  0  0  0
   37.0290   30.4490   36.2460 N   0  0  0  0  0  0  0  0  0  0  0  0
   37.5120   31.5590   36.8450 C   0  0  0  0  0  0  0  0  0  0  0  0
   37.5610   31.6490   38.2040 N   0  0  0  0  0  0  0  0  0  0  0  0
   37.1410   30.6470   40.0300 H   0  0  0  0  0  0  0  0  0  0  0  0
   36.1890   28.5020   36.4690 H   0  0  0  0  0  0  0  0  0  0  0  0
   37.8810   32.4210   36.3020 H   0  0  0  0  0  0  0  0  0  0  0  0
   38.2610   25.9910   42.5200 N   0  0  0  0  0  0  0  0  0  0  0  0
   37.5440   25.3050   42.7910 H   0  0  0  0  0  0  0  0  0  0  0  0
   37.4070   28.0020   43.6800 C   0  0  1  0  0  3  0  0  0  0  0  0
   38.4760   26.9790   43.4450 C   0  0  2  0  0  3  0  0  0  0  0  0
   39.6900   27.8460   43.3680 C   0  0  0  0  0  3  0  0  0  0  0  0
   40.5270   27.4030   42.8240 H   0  0  0  0  0  0  0  0  0  0  0  0
   39.2870   29.0990   42.9340 O   0  0  0  0  0  0  0  0  0  0  0  0
   37.9260   29.1730   42.8860 C   0  0  0  0  0  3  0  0  0  0  0  0
   37.5840   29.2420   41.8580 H   0  0  0  0  0  0  0  0  0  0  0  0
   36.1280   27.6360   43.4010 O   0  0  0  0  0  0  0  0  0  0  0  0
   35.7680   28.2470   42.6870 H   0  0  0  0  0  0  0  0  0  0  0  0
  1  2  1  6  0  0  0
  1  6  1  0  0  0  0
  2  3  1  0  0  0  0
  3 10  1  0  0  0  0
  4  3  1  0  0  0  0
  4 12  1  0  0  0  0
  5 14  1  0  0  0  0
  5  4  1  0  0  0  0
  5  6  1  0  0  0  0
  6 15  1  6  0  0  0
  6 32  1  0  0  0  0
  7  2  1  0  0  0  0
  8  2  1  0  0  0  0
  9  3  1  0  0  0  0
 11  4  1  0  0  0  0
 13  5  1  0  0  0  0
 16 18  1  0  0  0  0
 16 19  1  1  0  0  0
 17 20  1  0  0  0  0
 17 16  1  0  0  0  0
 17 18  1  0  0  0  0
 18 22  1  6  0  0  0
 18  1  1  0  0  0  0
 21 17  1  0  0  0  0
 23 29  1  0  0  0  0
 24 23  1  0  0  0  0
 24 16  1  0  0  0  0
 25 24  2  0  0  0  0
 26 27  2  0  0  0  0
 26 25  1  0  0  0  0
 27 28  1  0  0  0  0
 28 23  2  0  0  0  0
 30 25  1  0  0  0  0
 31 27  1  0  0  0  0
 32 33  1  0  0  0  0
 34 41  1  6  0  0  0
 35 32  1  6  0  0  0
 35 34  1  0  0  0  0
 36 35  1  0  0  0  0
 37 36  1  0  0  0  0
 38 36  1  0  0  0  0
 39 38  1  0  0  0  0
 39 34  1  0  0  0  0
 40 39  1  0  0  0  0
 42 41  1  0  0  0  0
M  END
>  <minimizedAffinity>
-4.97993183

$$$$
