
 OpenBabel03242521073D

 40 43  0  0  1  0  0  0  0  0999 V2000
   46.0840   32.6680   38.7570 C   0  0  2  0  0  0  0  0  0  0  0  0
   46.9630   31.7030   38.0610 C   0  0  0  0  0  0  0  0  0  0  0  0
   46.2910   32.8820   37.3400 C   0  0  1  0  0  0  0  0  0  0  0  0
   45.0700   32.2400   39.0370 H   0  0  0  0  0  0  0  0  0  0  0  0
   48.0490   31.7450   38.2480 H   0  0  0  0  0  0  0  0  0  0  0  0
   46.5830   30.7070   37.7630 H   0  0  0  0  0  0  0  0  0  0  0  0
   47.0380   33.5930   36.9390 H   0  0  0  0  0  0  0  0  0  0  0  0
   46.5700   34.6210   41.8420 C   0  0  0  0  0  0  0  0  0  0  0  0
   47.8050   35.1780   41.5100 C   0  0  0  0  0  0  0  0  0  0  0  0
   48.4880   34.9480   40.3350 C   0  0  0  0  0  0  0  0  0  0  0  0
   47.9060   34.0990   39.4090 C   0  0  0  0  0  0  0  0  0  0  0  0
   46.6960   33.5650   39.7570 C   0  0  0  0  0  0  0  0  0  0  0  0
   46.0810   33.8170   40.9000 N   0  0  0  0  0  0  0  0  0  0  0  0
   48.2890   35.8490   42.2140 H   0  0  0  0  0  0  0  0  0  0  0  0
   49.4360   35.4030   40.1310 H   0  0  0  0  0  0  0  0  0  0  0  0
   48.4150   33.8990   38.4800 H   0  0  0  0  0  0  0  0  0  0  0  0
   44.5460   36.1270   44.6370 C   0  0  0  0  0  0  0  0  0  0  0  0
   45.1280   36.0240   43.3570 C   0  0  0  0  0  0  0  0  0  0  0  0
   45.8920   34.8990   43.1070 C   0  0  0  0  0  0  0  0  0  0  0  0
   46.0420   33.9710   44.0800 N   0  0  0  0  0  0  0  0  0  0  0  0
   45.4640   34.1120   45.2970 C   0  0  0  0  0  0  0  0  0  0  0  0
   44.7250   35.1860   45.5590 N   0  0  0  0  0  0  0  0  0  0  0  0
   43.9570   37.0520   44.7440 H   0  0  0  0  0  0  0  0  0  0  0  0
   45.0450   36.7180   42.5540 H   0  0  0  0  0  0  0  0  0  0  0  0
   45.6190   33.3360   46.0400 H   0  0  0  0  0  0  0  0  0  0  0  0
   45.3100   32.5280   36.4050 O   0  0  0  0  0  0  0  0  0  0  0  0
   45.7350   30.6750   34.7020 O   0  0  0  0  0  0  0  0  0  0  0  0
   45.9350   32.1890   34.8790 P   0  0  1  0  0  0  0  0  0  0  0  0
   45.0390   32.9410   33.6850 O   0  0  0  0  0  0  0  0  0  0  0  0
   45.4790   33.7930   33.3890 H   0  0  0  0  0  0  0  0  0  0  0  0
   47.5910   32.4340   34.7390 O   0  0  0  0  0  0  0  0  0  0  0  0
   49.6910   31.4730   34.1180 C   0  0  1  0  0  0  0  0  0  0  0  0
   48.1800   31.3610   34.0730 C   0  0  2  0  0  0  0  0  0  0  0  0
   48.0030   31.4700   32.5530 C   0  0  0  0  0  0  0  0  0  0  0  0
   46.9700   31.6160   32.2470 H   0  0  0  0  0  0  0  0  0  0  0  0
   48.9130   32.3880   32.1050 O   0  0  0  0  0  0  0  0  0  0  0  0
   49.9340   32.4940   33.0280 C   0  0  0  0  0  0  0  0  0  0  0  0
   49.8490   33.5010   33.5180 H   0  0  0  0  0  0  0  0  0  0  0  0
   50.1330   31.9000   35.3630 O   0  0  0  0  0  0  0  0  0  0  0  0
   51.1150   31.7760   35.3980 H   0  0  0  0  0  0  0  0  0  0  0  0
  1  4  1  1  0  0  0
  1 12  1  0  0  0  0
  2  5  1  0  0  0  0
  2  1  1  0  0  0  0
  3  7  1  6  0  0  0
  3  2  1  0  0  0  0
  3  1  1  0  0  0  0
  6  2  1  0  0  0  0
  8 19  1  0  0  0  0
  9  8  1  0  0  0  0
  9 14  1  0  0  0  0
 10  9  2  0  0  0  0
 11 12  2  0  0  0  0
 11 10  1  0  0  0  0
 12 13  1  0  0  0  0
 13  8  2  0  0  0  0
 15 10  1  0  0  0  0
 16 11  1  0  0  0  0
 17 23  1  0  0  0  0
 17 22  1  0  0  0  0
 18 17  2  0  0  0  0
 19 18  1  0  0  0  0
 19 20  2  0  0  0  0
 20 21  1  0  0  0  0
 21 22  2  0  0  0  0
 21 25  1  0  0  0  0
 24 18  1  0  0  0  0
 26  3  1  0  0  0  0
 28 27  2  6  0  0  0
 28 26  1  0  0  0  0
 29 28  1  0  0  0  0
 30 29  1  0  0  0  0
 31 28  1  0  0  0  0
 32 39  1  1  0  0  0
 33 32  1  0  0  0  0
 33 31  1  1  0  0  0
 34 33  1  0  0  0  0
 35 34  1  0  0  0  0
 36 34  1  0  0  0  0
 36 37  1  0  0  0  0
 37 38  1  0  0  0  0
 37 32  1  0  0  0  0
 39 40  1  0  0  0  0
M  END
>  <minimizedAffinity>
-6.78167105

>  <minimizedRMSD>
1.25593567

$$$$
