REMARK  Name = 
REMARK  9 active torsions:
REMARK  status: ('A' for Active; 'I' for Inactive)
REMARK    1  A    between atoms: P_2  and  O_3
REMARK    2  A    between atoms: P_2  and  O_4
REMARK    3  A    between atoms: P_2  and  O_12
REMARK    4  A    between atoms: O_4  and  C_9
REMARK    5  A    between atoms: C_5  and  O_11
REMARK    6  A    between atoms: O_12  and  C_14
REMARK    7  A    between atoms: C_13  and  O_18
REMARK    8  A    between atoms: O_18  and  C_31
REMARK    9  A    between atoms: O_29  and  C_30
REMARK                            x       y       z     vdW  Elec       q    Type
REMARK                         _______ _______ _______ _____ _____    ______ ____
ROOT
ATOM      1  C   UNL     1      46.771  30.002  48.086  0.00  0.00    +0.000 C 
ATOM      2  C   UNL     1      45.326  30.289  48.146  0.00  0.00    +0.000 C 
ATOM      3  C   UNL     1      44.746  29.456  47.063  0.00  0.00    +0.000 C 
ATOM      4  O   UNL     1      45.557  28.345  46.909  0.00  0.00    +0.000 OA
ATOM      5  C   UNL     1      46.677  28.517  47.653  0.00  0.00    +0.000 C 
ATOM      6  H   UNL     1      47.434  30.384  47.355  0.00  0.00    +0.000 HD
ATOM      7  H   UNL     1      44.958  29.925  49.120  0.00  0.00    +0.000 HD
ATOM      8  H   UNL     1      44.405  29.943  46.151  0.00  0.00    +0.000 HD
ATOM      9  H   UNL     1      43.778  28.996  47.441  0.00  0.00    +0.000 HD
ATOM     10  H   UNL     1      47.575  28.159  47.157  0.00  0.00    +0.000 HD
ATOM     11  H   UNL     1      46.578  27.906  48.596  0.00  0.00    +0.000 HD
ENDROOT
BRANCH   2  12
ATOM     12  O   UNL     1      45.035  31.627  48.035  0.00  0.00    +0.000 OA
BRANCH  12  14
ATOM     13  O   UNL     1      47.309  32.695  47.510  0.00  0.00    +0.000 OA
ATOM     14  P   UNL     1      45.996  32.327  46.872  0.00  0.00    +0.000 P 
BRANCH  14  15
ATOM     15  O   UNL     1      46.294  31.213  45.632  0.00  0.00    +0.000 OA
ATOM     16  H   UNL     1      45.775  31.440  44.829  0.00  0.00    +0.000 HD
ENDBRANCH  14  15
BRANCH  14  17
ATOM     17  O   UNL     1      45.325  33.766  46.234  0.00  0.00    +0.000 OA
BRANCH  17  22
ATOM     18  C   UNL     1      45.226  35.826  43.329  0.00  0.00    +0.000 A 
ATOM     19  C   UNL     1      46.278  35.333  42.510  0.00  0.00    +0.000 A 
ATOM     20  C   UNL     1      47.011  34.254  43.028  0.00  0.00    +0.000 A 
ATOM     21  N   UNL     1      46.687  33.760  44.236  0.00  0.00    +0.000 NA
ATOM     22  C   UNL     1      45.675  34.266  44.979  0.00  0.00    +0.000 A 
ATOM     23  N   UNL     1      44.952  35.296  44.518  0.00  0.00    +0.000 NA
ATOM     24  H   UNL     1      46.501  35.765  41.542  0.00  0.00    +0.000 HD
ATOM     25  H   UNL     1      47.825  33.831  42.456  0.00  0.00    +0.000 HD
BRANCH  18  26
ATOM     26  O   UNL     1      44.498  36.887  42.830  0.00  0.00    +0.000 OA
ATOM     27  H   UNL     1      45.051  37.720  42.587  0.00  0.00    +0.000 HD
ENDBRANCH  18  26
ENDBRANCH  17  22
ENDBRANCH  14  17
ENDBRANCH  12  14
ENDBRANCH   2  12
BRANCH   1  28
ATOM     28  O   UNL     1      47.485  30.129  49.227  0.00  0.00    +0.000 OA
BRANCH  28  30
ATOM     29  C   UNL     1      49.817  29.665  48.947  0.00  0.00    +0.000 C 
ATOM     30  C   UNL     1      48.686  30.567  49.407  0.00  0.00    +0.000 C 
ATOM     31  C   UNL     1      48.974  30.469  50.917  0.00  0.00    +0.000 C 
ATOM     32  H   UNL     1      48.036  30.551  51.501  0.00  0.00    +0.000 HD
ATOM     33  O   UNL     1      49.507  29.220  51.142  0.00  0.00    +0.000 OA
ATOM     34  C   UNL     1      49.632  28.542  49.942  0.00  0.00    +0.000 C 
ATOM     35  H   UNL     1      48.711  27.963  49.691  0.00  0.00    +0.000 HD
BRANCH  29  36
ATOM     36  O   UNL     1      51.030  30.279  49.136  0.00  0.00    +0.000 OA
ATOM     37  H   UNL     1      50.890  31.113  49.649  0.00  0.00    +0.000 HD
ENDBRANCH  29  36
ENDBRANCH  28  30
ENDBRANCH   1  28
TORSDOF 9
