
 OpenBabel03252500243D

 37 39  0  0  1  0  0  0  0  0999 V2000
   46.4190   31.0310   44.2780 C   0  0  2  0  0  0  0  0  0  0  0  0
   46.8550   31.0400   42.8690 C   0  0  2  0  0  0  0  0  0  0  0  0
   46.6050   29.6530   42.4040 C   0  0  0  0  0  0  0  0  0  0  0  0
   45.5440   29.1500   43.1370 O   0  0  0  0  0  0  0  0  0  0  0  0
   45.2530   30.0210   44.1350 C   0  0  0  0  0  0  0  0  0  0  0  0
   46.9630   30.6010   45.0770 H   0  0  0  0  0  0  0  0  0  0  0  0
   46.1910   31.7310   42.3230 H   0  0  0  0  0  0  0  0  0  0  0  0
   47.4530   28.9880   42.2520 H   0  0  0  0  0  0  0  0  0  0  0  0
   46.1710   29.6980   41.3540 H   0  0  0  0  0  0  0  0  0  0  0  0
   44.9990   29.5270   45.0690 H   0  0  0  0  0  0  0  0  0  0  0  0
   44.3400   30.6130   43.8390 H   0  0  0  0  0  0  0  0  0  0  0  0
   48.1550   31.4550   42.7080 O   0  0  0  0  0  0  0  0  0  0  0  0
   49.6790   32.6250   41.0060 O   0  0  0  0  0  0  0  0  0  0  0  0
   48.2510   32.5720   41.4790 P   0  0  1  0  0  0  0  0  0  0  0  0
   47.2740   32.0820   40.1850 O   0  0  0  0  0  0  0  0  0  0  0  0
   46.4610   32.6310   40.1370 H   0  0  0  0  0  0  0  0  0  0  0  0
   47.8280   34.1510   41.9830 O   0  0  0  0  0  0  0  0  0  0  0  0
   44.9170   35.9110   43.0430 C   0  0  0  0  0  0  0  0  0  0  0  0
   43.9330   35.5860   42.0700 C   0  0  0  0  0  0  0  0  0  0  0  0
   44.3440   34.7280   41.0380 C   0  0  0  0  0  0  0  0  0  0  0  0
   45.6100   34.2730   41.0270 N   0  0  0  0  0  0  0  0  0  0  0  0
   46.5110   34.6130   41.9780 C   0  0  0  0  0  0  0  0  0  0  0  0
   46.1560   35.4300   42.9800 N   0  0  0  0  0  0  0  0  0  0  0  0
   42.9250   35.9780   42.1220 H   0  0  0  0  0  0  0  0  0  0  0  0
   43.6450   34.4410   40.2650 H   0  0  0  0  0  0  0  0  0  0  0  0
   44.5250   36.7550   44.0630 O   0  0  0  0  0  0  0  0  0  0  0  0
   44.1500   37.6630   43.7580 H   0  0  0  0  0  0  0  0  0  0  0  0
   45.9870   32.1970   44.8090 O   0  0  0  0  0  0  0  0  0  0  0  0
   46.9330   32.3580   47.0020 C   0  0  2  0  0  3  0  0  0  0  0  0
   46.5550   32.9760   45.6680 C   0  0  2  0  0  3  0  0  0  0  0  0
   45.4620   33.9180   46.2040 C   0  0  0  0  0  3  0  0  0  0  0  0
   44.6670   34.0690   45.4480 H   0  0  0  0  0  0  0  0  0  0  0  0
   44.8980   33.2980   47.2960 O   0  0  0  0  0  0  0  0  0  0  0  0
   45.5430   32.0960   47.5340 C   0  0  0  0  0  3  0  0  0  0  0  0
   45.0750   31.2520   46.9730 H   0  0  0  0  0  0  0  0  0  0  0  0
   47.5850   33.2750   47.7890 O   0  0  0  0  0  0  0  0  0  0  0  0
   47.5390   34.1610   47.3540 H   0  0  0  0  0  0  0  0  0  0  0  0
  1 28  1  0  0  0  0
  1  6  1  1  0  0  0
  2  7  1  6  0  0  0
  2  1  1  0  0  0  0
  3  2  1  0  0  0  0
  3  4  1  0  0  0  0
  4  5  1  0  0  0  0
  5  1  1  0  0  0  0
  5 10  1  0  0  0  0
  8  3  1  0  0  0  0
  9  3  1  0  0  0  0
 11  5  1  0  0  0  0
 12  2  1  0  0  0  0
 14 13  2  6  0  0  0
 14 17  1  0  0  0  0
 14 12  1  0  0  0  0
 15 14  1  0  0  0  0
 16 15  1  0  0  0  0
 18 26  1  0  0  0  0
 19 24  1  0  0  0  0
 19 18  2  0  0  0  0
 20 19  1  0  0  0  0
 21 20  2  0  0  0  0
 21 22  1  0  0  0  0
 22 17  1  0  0  0  0
 22 23  2  0  0  0  0
 23 18  1  0  0  0  0
 25 20  1  0  0  0  0
 27 26  1  0  0  0  0
 29 34  1  0  0  0  0
 29 36  1  1  0  0  0
 30 28  1  6  0  0  0
 30 31  1  0  0  0  0
 30 29  1  0  0  0  0
 31 33  1  0  0  0  0
 32 31  1  0  0  0  0
 33 34  1  0  0  0  0
 35 34  1  0  0  0  0
 37 36  1  0  0  0  0
M  END
>  <minimizedAffinity>
-4.91749954

>  <minimizedRMSD>
4.57332659

$$$$
