
 OpenBabel03252504323D

 40 42  0  0  1  0  0  0  0  0999 V2000
   42.2610   35.3910   40.7190 O   0  0  0  0  0  0  0  0  0  0  0  0
   41.1140   35.3390   41.4490 C   0  0  0  0  0  0  0  0  0  0  0  0
   41.2430   35.2280   42.5610 H   0  0  0  0  0  0  0  0  0  0  0  0
   40.5010   36.2570   41.3090 H   0  0  0  0  0  0  0  0  0  0  0  0
   40.6970   32.9350   41.5430 C   0  0  0  0  0  0  0  0  0  0  0  0
   40.2310   34.1860   41.0830 C   0  0  0  0  0  0  0  0  0  0  0  0
   39.0670   34.2110   40.3880 C   0  0  0  0  0  0  0  0  0  0  0  0
   38.4510   33.0460   40.1920 N   0  0  0  0  0  0  0  0  0  0  0  0
   38.8760   31.8730   40.6170 C   0  0  0  0  0  0  0  0  0  0  0  0
   40.0630   31.7690   41.3370 N   0  0  0  0  0  0  0  0  0  0  0  0
   41.6130   32.8120   42.1060 H   0  0  0  0  0  0  0  0  0  0  0  0
   38.7510   35.1710   40.0590 H   0  0  0  0  0  0  0  0  0  0  0  0
   37.1840   30.3160   41.4790 C   0  0  2  0  0  3  0  0  0  0  0  0
   38.0980   30.6360   40.3370 C   0  0  2  0  0  3  0  0  0  0  0  0
   39.1000   29.4800   40.4290 C   0  0  0  0  0  3  0  0  0  0  0  0
   39.4500   29.2010   39.4200 H   0  0  0  0  0  0  0  0  0  0  0  0
   38.3950   28.4290   41.0410 O   0  0  0  0  0  0  0  0  0  0  0  0
   37.8560   29.1150   42.1420 C   0  0  0  0  0  3  0  0  0  0  0  0
   37.1070   28.4730   42.6430 H   0  0  0  0  0  0  0  0  0  0  0  0
   35.9670   29.8540   40.9790 O   0  0  0  0  0  0  0  0  0  0  0  0
   36.1310   29.0110   40.4770 H   0  0  0  0  0  0  0  0  0  0  0  0
   43.5670   35.4310   41.1810 C   0  0  0  0  0  3  0  0  0  0  0  0
   43.7200   35.4990   42.4990 C   0  0  0  0  0  3  0  0  0  0  0  0
   45.0430   35.5500   43.2360 C   0  0  0  0  0  0  0  0  0  0  0  0
   45.7900   35.1750   42.4880 H   0  0  0  0  0  0  0  0  0  0  0  0
   45.3200   36.5800   43.4720 H   0  0  0  0  0  0  0  0  0  0  0  0
   44.9530   34.6960   44.3140 O   0  0  0  0  0  0  0  0  0  0  0  0
   45.6700   32.5870   42.8500 O   0  0  0  0  0  0  0  0  0  0  0  0
   45.9680   33.3660   44.1100 P   0  0  1  0  0  0  0  0  0  0  0  0
   47.5890   33.8850   43.9980 O   0  0  0  0  0  0  0  0  0  0  0  0
   47.6660   34.6280   44.6730 H   0  0  0  0  0  0  0  0  0  0  0  0
   45.8720   32.3500   45.4530 O   0  0  0  0  0  0  0  0  0  0  0  0
   46.1470   33.0120   46.6340 C   0  0  0  0  0  0  0  0  0  0  0  0
   47.0540   32.3620   47.6340 C   0  0  0  0  0  0  0  0  0  0  0  0
   45.5610   32.3860   47.8760 C   0  0  0  0  0  0  0  0  0  0  0  0
   46.2000   34.1160   46.6200 H   0  0  0  0  0  0  0  0  0  0  0  0
   47.6240   33.0200   48.3190 H   0  0  0  0  0  0  0  0  0  0  0  0
   47.5100   31.4090   47.3220 H   0  0  0  0  0  0  0  0  0  0  0  0
   45.0710   31.3950   47.8160 H   0  0  0  0  0  0  0  0  0  0  0  0
   45.1550   33.0190   48.6780 H   0  0  0  0  0  0  0  0  0  0  0  0
  1 22  1  0  0  0  0
  1  2  1  0  0  0  0
  2  3  1  0  0  0  0
  4  2  1  0  0  0  0
  5 11  1  0  0  0  0
  6  2  1  0  0  0  0
  6  5  2  0  0  0  0
  7  6  1  0  0  0  0
  8  7  2  0  0  0  0
  8  9  1  0  0  0  0
  9 10  2  0  0  0  0
 10  5  1  0  0  0  0
 12  7  1  0  0  0  0
 13 20  1  6  0  0  0
 13 18  1  0  0  0  0
 14 15  1  0  0  0  0
 14  9  1  1  0  0  0
 14 13  1  0  0  0  0
 15 17  1  0  0  0  0
 16 15  1  0  0  0  0
 17 18  1  0  0  0  0
 18 19  1  0  0  0  0
 21 20  1  0  0  0  0
 22 23  2  0  0  0  0
 23 24  1  0  0  0  0
 24 26  1  0  0  0  0
 24 27  1  0  0  0  0
 25 24  1  0  0  0  0
 29 28  2  6  0  0  0
 29 27  1  0  0  0  0
 29 32  1  0  0  0  0
 30 29  1  0  0  0  0
 30 31  1  0  0  0  0
 32 33  1  0  0  0  0
 33 34  1  0  0  0  0
 33 35  1  0  0  0  0
 34 35  1  0  0  0  0
 34 37  1  0  0  0  0
 35 40  1  0  0  0  0
 36 33  1  0  0  0  0
 38 34  1  0  0  0  0
 39 35  1  0  0  0  0
M  END
>  <minimizedAffinity>
-5.37583971

>  <minimizedRMSD>
1.04114234

$$$$
