
     RDKit          3D

 41 43  0  0  0  0  0  0  0  0999 V2000
   47.3094   32.6948   47.5100 O   0  0  0  0  0  0  0  0  0  0  0  0
   45.9956   32.3274   46.8718 P   0  0  2  0  0  0  0  0  0  0  0  0
   46.2936   31.2131   45.6324 O   0  0  0  0  0  0  0  0  0  0  0  0
   45.3252   33.7663   46.2336 O   0  0  0  0  0  0  0  0  0  0  0  0
   45.2264   35.8257   43.3290 C   0  0  0  0  0  0  0  0  0  0  0  0
   46.2781   35.3326   42.5098 C   0  0  0  0  0  0  0  0  0  0  0  0
   47.0112   34.2536   43.0276 C   0  0  0  0  0  0  0  0  0  0  0  0
   46.6873   33.7598   44.2361 N   0  0  0  0  0  0  0  0  0  0  0  0
   45.6748   34.2656   44.9789 C   0  0  0  0  0  0  0  0  0  0  0  0
   44.9518   35.2963   44.5177 N   0  0  0  0  0  0  0  0  0  0  0  0
   44.4980   36.8872   42.8304 O   0  0  0  0  0  0  0  0  0  0  0  0
   45.0348   31.6265   48.0352 O   0  0  0  0  0  0  0  0  0  0  0  0
   46.7709   30.0020   48.0859 C   0  0  2  0  0  0  0  0  0  0  0  0
   45.3261   30.2894   48.1460 C   0  0  2  0  0  0  0  0  0  0  0  0
   44.7456   29.4560   47.0633 C   0  0  0  0  0  0  0  0  0  0  0  0
   45.5570   28.3454   46.9092 O   0  0  0  0  0  0  0  0  0  0  0  0
   46.6769   28.5174   47.6526 C   0  0  0  0  0  0  0  0  0  0  0  0
   47.4854   30.1288   49.2265 O   0  0  0  0  0  0  0  0  0  0  0  0
   45.7752   31.4402   44.8292 H   0  0  0  0  0  0  0  0  0  0  0  0
   46.5006   35.7650   41.5417 H   0  0  0  0  0  0  0  0  0  0  0  0
   47.8246   33.8305   42.4555 H   0  0  0  0  0  0  0  0  0  0  0  0
   45.0507   37.7199   42.5875 H   0  0  0  0  0  0  0  0  0  0  0  0
   47.4344   30.3835   47.3550 H   0  0  0  0  0  0  0  0  0  0  0  0
   44.9582   29.9246   49.1202 H   0  0  0  0  0  0  0  0  0  0  0  0
   44.4052   29.9427   46.1508 H   0  0  0  0  0  0  0  0  0  0  0  0
   43.7780   28.9962   47.4413 H   0  0  0  0  0  0  0  0  0  0  0  0
   47.5747   28.1591   47.1574 H   0  0  0  0  0  0  0  0  0  0  0  0
   46.5776   27.9056   48.5959 H   0  0  0  0  0  0  0  0  0  0  0  0
   51.0281   30.1631   49.4303 O   0  0  0  0  0  0  0  0  0  0  0  0
   49.8080   29.5521   49.2827 C   0  0  2  0  0  0  0  0  0  0  0  0
   48.6864   30.5670   49.4069 C   0  0  2  0  0  0  0  0  0  0  0  0
   48.8420   30.8303   50.9162 C   0  0  2  0  0  0  0  0  0  0  0  0
   47.8635   31.0756   51.3752 H   0  0  0  0  0  0  0  0  0  0  0  0
   49.2952   29.6608   51.4822 O   0  0  0  0  0  0  0  0  0  0  0  0
   49.4879   28.7085   50.4956 C   0  0  1  0  0  0  0  0  0  0  0  0
   48.5652   28.1099   50.3061 H   0  0  0  0  0  0  0  0  0  0  0  0
   50.8856   31.0991   49.7139 H   0  0  0  0  0  0  0  0  0  0  0  0
   49.7777   29.0033   48.3287 H   0  0  0  0  0  0  0  0  0  0  0  0
   49.0672   31.4756   48.9301 H   0  0  0  0  0  0  0  0  0  0  0  0
   49.5311   31.6418   51.1396 H   0  0  0  0  0  0  0  0  0  0  0  0
   50.3348   28.0224   50.6898 H   0  0  0  0  0  0  0  0  0  0  0  0
  2  1  2  0
  2 12  1  1
  3  2  1  0
  4  2  1  0
  5 10  2  0
  6  7  2  0
  6  5  1  0
  7  8  1  0
  8  9  2  0
  9  4  1  0
 10  9  1  0
 11  5  1  0
 13 14  1  0
 13 18  1  0
 14 12  1  0
 15 14  1  0
 16 15  1  0
 16 17  1  0
 17 13  1  0
  3 19  1  0
  6 20  1  0
  7 21  1  0
 11 22  1  0
 13 23  1  6
 14 24  1  1
 15 25  1  0
 15 26  1  0
 17 27  1  0
 17 28  1  0
 29 30  1  0
 30 31  1  0
 31 32  1  0
 32 33  1  1
 32 34  1  0
 34 35  1  0
 35 36  1  6
 35 30  1  0
 29 37  1  0
 30 38  1  6
 31 39  1  6
 32 40  1  0
 35 41  1  0
 18 31  1  0
M  ISO  8  19   3  20  14  21  14  22   3  23  13  24  13  25  13  26  13
M  ISO  4  27  13  28  13  33  15  36  16
M  END
>  <DihAtoms>  (1) 
12,17,30,29

>  <DihDeg>  (1) 
-132.56063830850283

$$$$
