
 OpenBabel03252500243D

 37 39  0  0  1  0  0  0  0  0999 V2000
   47.1200   30.3360   48.0970 C   0  0  2  0  0  0  0  0  0  0  0  0
   45.7640   30.7240   48.5290 C   0  0  2  0  0  0  0  0  0  0  0  0
   44.8670   29.8540   47.7280 C   0  0  0  0  0  0  0  0  0  0  0  0
   45.5520   28.6820   47.4560 O   0  0  0  0  0  0  0  0  0  0  0  0
   46.8420   28.8330   47.8420 C   0  0  0  0  0  0  0  0  0  0  0  0
   47.5670   30.6180   47.1800 H   0  0  0  0  0  0  0  0  0  0  0  0
   45.6690   30.4580   49.5950 H   0  0  0  0  0  0  0  0  0  0  0  0
   44.3050   30.2940   46.9060 H   0  0  0  0  0  0  0  0  0  0  0  0
   44.0250   29.4890   48.3980 H   0  0  0  0  0  0  0  0  0  0  0  0
   47.5480   28.3800   47.1520 H   0  0  0  0  0  0  0  0  0  0  0  0
   46.9860   28.3020   48.8270 H   0  0  0  0  0  0  0  0  0  0  0  0
   45.5130   32.0660   48.3830 O   0  0  0  0  0  0  0  0  0  0  0  0
   47.3270   32.8040   46.7240 O   0  0  0  0  0  0  0  0  0  0  0  0
   45.8470   32.5450   46.8260 P   0  0  1  0  0  0  0  0  0  0  0  0
   45.4430   31.3040   45.7480 O   0  0  0  0  0  0  0  0  0  0  0  0
   44.6200   31.5240   45.2570 H   0  0  0  0  0  0  0  0  0  0  0  0
   45.0510   33.9960   46.3920 O   0  0  0  0  0  0  0  0  0  0  0  0
   44.9600   36.3470   43.7150 C   0  0  0  0  0  0  0  0  0  0  0  0
   44.9890   35.5460   42.5410 C   0  0  0  0  0  0  0  0  0  0  0  0
   45.0410   34.1580   42.7400 C   0  0  0  0  0  0  0  0  0  0  0  0
   45.0600   33.6750   43.9950 N   0  0  0  0  0  0  0  0  0  0  0  0
   45.0320   34.4800   45.0830 C   0  0  0  0  0  0  0  0  0  0  0  0
   44.9820   35.8110   44.9330 N   0  0  0  0  0  0  0  0  0  0  0  0
   44.9720   35.9830   41.5500 H   0  0  0  0  0  0  0  0  0  0  0  0
   45.0650   33.4920   41.8890 H   0  0  0  0  0  0  0  0  0  0  0  0
   44.9090   37.7140   43.5320 O   0  0  0  0  0  0  0  0  0  0  0  0
   45.6740   38.1070   42.9670 H   0  0  0  0  0  0  0  0  0  0  0  0
   48.1310   30.4990   48.9800 O   0  0  0  0  0  0  0  0  0  0  0  0
   50.2670   29.5140   49.4260 C   0  0  2  0  0  3  0  0  0  0  0  0
   49.4030   30.5790   48.7760 C   0  0  2  0  0  3  0  0  0  0  0  0
   49.9140   31.7670   49.6120 C   0  0  0  0  0  3  0  0  0  0  0  0
   49.1150   32.5220   49.7510 H   0  0  0  0  0  0  0  0  0  0  0  0
   50.2500   31.2710   50.8500 O   0  0  0  0  0  0  0  0  0  0  0  0
   50.0540   29.8990   50.8720 C   0  0  0  0  0  3  0  0  0  0  0  0
   49.0170   29.6310   51.1860 H   0  0  0  0  0  0  0  0  0  0  0  0
   51.5820   29.6790   49.0730 O   0  0  0  0  0  0  0  0  0  0  0  0
   51.6770   30.5330   48.5830 H   0  0  0  0  0  0  0  0  0  0  0  0
  1  6  1  6  0  0  0
  1  2  1  0  0  0  0
  1 28  1  0  0  0  0
  2  7  1  1  0  0  0
  3  9  1  0  0  0  0
  3  2  1  0  0  0  0
  4  3  1  0  0  0  0
  4  5  1  0  0  0  0
  5  1  1  0  0  0  0
  5 11  1  0  0  0  0
  8  3  1  0  0  0  0
 10  5  1  0  0  0  0
 12  2  1  0  0  0  0
 14 13  2  6  0  0  0
 14 12  1  0  0  0  0
 15 14  1  0  0  0  0
 16 15  1  0  0  0  0
 17 14  1  0  0  0  0
 18 23  1  0  0  0  0
 19 20  1  0  0  0  0
 19 18  2  0  0  0  0
 20 21  2  0  0  0  0
 21 22  1  0  0  0  0
 22 17  1  0  0  0  0
 23 22  2  0  0  0  0
 24 19  1  0  0  0  0
 25 20  1  0  0  0  0
 26 18  1  0  0  0  0
 27 26  1  0  0  0  0
 29 36  1  6  0  0  0
 29 34  1  0  0  0  0
 30 28  1  1  0  0  0
 30 29  1  0  0  0  0
 30 31  1  0  0  0  0
 31 32  1  0  0  0  0
 31 33  1  0  0  0  0
 33 34  1  0  0  0  0
 34 35  1  0  0  0  0
 37 36  1  0  0  0  0
M  END
>  <minimizedAffinity>
-5.35896206

>  <minimizedRMSD>
1.38257444

$$$$
