
 OpenBabel03252500243D

 37 39  0  0  1  0  0  0  0  0999 V2000
   47.6150   30.3260   47.5950 C   0  0  2  0  0  0  0  0  0  0  0  0
   46.4740   30.8570   48.3640 C   0  0  2  0  0  0  0  0  0  0  0  0
   45.3440   29.9670   47.9960 C   0  0  0  0  0  0  0  0  0  0  0  0
   45.8720   28.7260   47.6850 O   0  0  0  0  0  0  0  0  0  0  0  0
   47.2230   28.8270   47.6370 C   0  0  0  0  0  0  0  0  0  0  0  0
   47.7630   30.4670   46.5570 H   0  0  0  0  0  0  0  0  0  0  0  0
   46.7070   30.7240   49.4330 H   0  0  0  0  0  0  0  0  0  0  0  0
   44.5690   30.3480   47.3340 H   0  0  0  0  0  0  0  0  0  0  0  0
   44.7420   29.7430   48.9330 H   0  0  0  0  0  0  0  0  0  0  0  0
   47.6640   28.2480   46.8300 H   0  0  0  0  0  0  0  0  0  0  0  0
   47.6490   28.4040   48.5920 H   0  0  0  0  0  0  0  0  0  0  0  0
   46.2330   32.1880   48.1260 O   0  0  0  0  0  0  0  0  0  0  0  0
   47.4100   32.5270   45.8700 O   0  0  0  0  0  0  0  0  0  0  0  0
   46.0430   32.4530   46.4950 P   0  0  1  0  0  0  0  0  0  0  0  0
   45.2040   31.1550   45.8010 O   0  0  0  0  0  0  0  0  0  0  0  0
   44.2810   31.4130   45.5860 H   0  0  0  0  0  0  0  0  0  0  0  0
   45.2500   33.9290   46.1500 O   0  0  0  0  0  0  0  0  0  0  0  0
   44.9280   36.2720   43.4850 C   0  0  0  0  0  0  0  0  0  0  0  0
   44.7730   35.4670   42.3230 C   0  0  0  0  0  0  0  0  0  0  0  0
   44.7870   34.0780   42.5270 C   0  0  0  0  0  0  0  0  0  0  0  0
   44.9420   33.5990   43.7740 N   0  0  0  0  0  0  0  0  0  0  0  0
   45.0880   34.4090   44.8490 C   0  0  0  0  0  0  0  0  0  0  0  0
   45.0790   35.7400   44.6950 N   0  0  0  0  0  0  0  0  0  0  0  0
   44.6500   35.9000   41.3380 H   0  0  0  0  0  0  0  0  0  0  0  0
   44.6740   33.4080   41.6860 H   0  0  0  0  0  0  0  0  0  0  0  0
   44.9160   37.6390   43.2970 O   0  0  0  0  0  0  0  0  0  0  0  0
   45.6200   37.9950   42.6370 H   0  0  0  0  0  0  0  0  0  0  0  0
   48.8550   30.5170   48.0980 O   0  0  0  0  0  0  0  0  0  0  0  0
   49.5720   30.3070   50.3730 C   0  0  2  0  0  3  0  0  0  0  0  0
   49.5240   29.8040   48.9410 C   0  0  2  0  0  3  0  0  0  0  0  0
   51.0150   30.0180   48.6210 C   0  0  0  0  0  3  0  0  0  0  0  0
   51.1550   30.2640   47.5500 H   0  0  0  0  0  0  0  0  0  0  0  0
   51.4330   31.1000   49.3630 O   0  0  0  0  0  0  0  0  0  0  0  0
   50.3880   31.5590   50.1470 C   0  0  0  0  0  3  0  0  0  0  0  0
   49.7700   32.3220   49.6170 H   0  0  0  0  0  0  0  0  0  0  0  0
   50.2540   29.4240   51.1710 O   0  0  0  0  0  0  0  0  0  0  0  0
   50.6690   28.7310   50.6010 H   0  0  0  0  0  0  0  0  0  0  0  0
  1  6  1  6  0  0  0
  1  5  1  0  0  0  0
  1 28  1  0  0  0  0
  1  2  1  0  0  0  0
  2  7  1  1  0  0  0
  3  2  1  0  0  0  0
  3  9  1  0  0  0  0
  4  3  1  0  0  0  0
  5  4  1  0  0  0  0
  5 11  1  0  0  0  0
  8  3  1  0  0  0  0
 10  5  1  0  0  0  0
 12  2  1  0  0  0  0
 14 13  2  6  0  0  0
 14 12  1  0  0  0  0
 15 14  1  0  0  0  0
 16 15  1  0  0  0  0
 17 14  1  0  0  0  0
 18 23  1  0  0  0  0
 19 20  1  0  0  0  0
 19 18  2  0  0  0  0
 20 21  2  0  0  0  0
 21 22  1  0  0  0  0
 22 17  1  0  0  0  0
 23 22  2  0  0  0  0
 24 19  1  0  0  0  0
 25 20  1  0  0  0  0
 26 18  1  0  0  0  0
 27 26  1  0  0  0  0
 29 36  1  1  0  0  0
 30 28  1  6  0  0  0
 30 29  1  0  0  0  0
 31 30  1  0  0  0  0
 31 33  1  0  0  0  0
 32 31  1  0  0  0  0
 33 34  1  0  0  0  0
 34 29  1  0  0  0  0
 35 34  1  0  0  0  0
 37 36  1  0  0  0  0
M  END
>  <minimizedAffinity>
-5.30232668

>  <minimizedRMSD>
1.62356877

$$$$
