
 OpenBabel03252501323D

 20 21  0  0  0  0  0  0  0  0999 V2000
   45.5670   34.5670   44.2390 C   0  0  0  0  0  0  0  0  0  0  0  0
   45.2700   34.3780   45.5770 C   0  0  0  0  0  0  0  0  0  0  0  0
   46.0060   33.3880   46.2290 C   0  0  0  0  0  0  0  0  0  0  0  0
   46.9290   32.7080   45.5240 N   0  0  0  0  0  0  0  0  0  0  0  0
   47.1870   32.9250   44.2150 C   0  0  0  0  0  0  0  0  0  0  0  0
   46.4920   33.8750   43.5570 N   0  0  0  0  0  0  0  0  0  0  0  0
   45.7790   33.2390   47.2620 H   0  0  0  0  0  0  0  0  0  0  0  0
   47.9410   32.3400   43.7180 H   0  0  0  0  0  0  0  0  0  0  0  0
   44.0820   34.8420   42.4400 C   0  0  0  0  0  0  0  0  0  0  0  0
   44.1460   33.5770   42.5940 O   0  0  0  0  0  0  0  0  0  0  0  0
   44.9180   35.5430   43.3810 N   0  0  0  0  0  0  0  0  0  0  0  0
   44.9830   36.5600   43.3700 H   0  0  0  0  0  0  0  0  0  0  0  0
   43.2650   35.5530   41.4370 C   0  0  0  0  0  0  0  0  0  0  0  0
   43.3800   34.7980   40.1340 C   0  0  0  0  0  0  0  0  0  0  0  0
   42.3830   33.6750   40.2990 C   0  0  0  0  0  0  0  0  0  0  0  0
   41.2830   34.2030   41.1940 C   0  0  0  0  0  0  0  0  0  0  0  0
   41.8130   35.4920   41.7980 C   0  0  0  0  0  0  0  0  0  0  0  0
   44.2680   35.1890   46.1470 N   0  0  0  0  0  0  0  0  0  0  0  0
   44.9140   35.7660   46.7390 H   0  0  0  0  0  0  0  0  0  0  0  0
   43.2190   35.1700   45.9850 H   0  0  0  0  0  0  0  0  0  0  0  0
  1  2  1  0  0  0  0
  2 18  1  0  0  0  0
  2  3  2  0  0  0  0
  3  7  1  0  0  0  0
  4  3  1  0  0  0  0
  5  4  2  0  0  0  0
  6  5  1  0  0  0  0
  6  1  2  0  0  0  0
  8  5  1  0  0  0  0
  9 10  2  0  0  0  0
  9 11  1  0  0  0  0
 11  1  1  0  0  0  0
 12 11  1  0  0  0  0
 13 17  1  0  0  0  0
 13  9  1  0  0  0  0
 14 15  1  0  0  0  0
 14 13  1  0  0  0  0
 15 16  1  0  0  0  0
 16 17  1  0  0  0  0
 18 19  1  0  0  0  0
 20 18  1  0  0  0  0
M  END
>  <minimizedAffinity>
-4.77825165

>  <minimizedRMSD>
1.3517673

$$$$
