
 OpenBabel03242518503D

 19 20  0  0  0  0  0  0  0  0999 V2000
   44.5420   35.9730   44.4980 C   0  0  0  0  0  0  0  0  0  0  0  0
   45.2760   35.8520   43.3000 C   0  0  0  0  0  0  0  0  0  0  0  0
   46.1990   34.7900   43.2260 C   0  0  0  0  0  0  0  0  0  0  0  0
   46.3170   33.9630   44.3050 N   0  0  0  0  0  0  0  0  0  0  0  0
   45.5920   34.1180   45.4330 C   0  0  0  0  0  0  0  0  0  0  0  0
   44.7020   35.1280   45.5250 N   0  0  0  0  0  0  0  0  0  0  0  0
   43.8190   36.7570   44.6310 H   0  0  0  0  0  0  0  0  0  0  0  0
   45.0880   36.5650   42.5340 H   0  0  0  0  0  0  0  0  0  0  0  0
   46.9440   34.6810   41.9900 C   0  0  0  0  0  0  0  0  0  0  0  0
   47.7530   33.5460   42.0330 F   0  0  0  0  0  0  0  0  0  0  0  0
   47.8280   35.7480   41.9530 F   0  0  0  0  0  0  0  0  0  0  0  0
   46.1620   34.6210   40.8720 F   0  0  0  0  0  0  0  0  0  0  0  0
   45.7330   33.2270   46.5690 C   0  0  0  0  0  0  0  0  0  0  0  0
   44.9290   33.2230   47.5210 O   0  0  0  0  0  0  0  0  0  0  0  0
   46.8630   32.2550   46.6570 C   0  0  0  0  0  0  0  0  0  0  0  0
   47.5340   32.4160   48.0050 C   0  0  0  0  0  0  0  0  0  0  0  0
   47.3400   31.1060   48.7340 C   0  0  0  0  0  0  0  0  0  0  0  0
   47.2960   30.1260   47.5780 C   0  0  0  0  0  0  0  0  0  0  0  0
   46.3200   30.8270   46.6430 C   0  0  0  0  0  0  0  0  0  0  0  0
  1  7  1  0  0  0  0
  1  6  1  0  0  0  0
  2  1  2  0  0  0  0
  3  2  1  0  0  0  0
  3  4  2  0  0  0  0
  4  5  1  0  0  0  0
  5  6  2  0  0  0  0
  5 13  1  0  0  0  0
  8  2  1  0  0  0  0
  9 10  1  0  0  0  0
  9  3  1  0  0  0  0
 11  9  1  0  0  0  0
 12  9  1  0  0  0  0
 13 15  1  0  0  0  0
 13 14  2  0  0  0  0
 15 16  1  0  0  0  0
 16 17  1  0  0  0  0
 18 17  1  0  0  0  0
 19 15  1  0  0  0  0
 19 18  1  0  0  0  0
M  END
>  <minimizedAffinity>
-5.49260807

>  <minimizedRMSD>
1.41851127

$$$$
