
 OpenBabel03252507553D

 40 43  0  0  1  0  0  0  0  0999 V2000
   47.1180   34.8330   41.9650 C   0  0  2  0  0  0  0  0  0  0  0  0
   46.3740   34.2110   40.7840 C   0  0  0  0  0  0  0  0  0  0  0  0
   47.5930   34.0480   39.8480 C   0  0  0  0  0  0  0  0  0  0  0  0
   48.7180   33.6550   40.7550 C   0  0  1  0  0  0  0  0  0  0  0  0
   48.1910   33.7960   42.1510 C   0  0  0  0  0  0  0  0  0  0  0  0
   47.5030   35.7930   41.6270 H   0  0  0  0  0  0  0  0  0  0  0  0
   45.6370   34.8840   40.3560 H   0  0  0  0  0  0  0  0  0  0  0  0
   46.0430   33.2220   41.0930 H   0  0  0  0  0  0  0  0  0  0  0  0
   47.3530   33.2960   39.0790 H   0  0  0  0  0  0  0  0  0  0  0  0
   47.7410   35.0590   39.4270 H   0  0  0  0  0  0  0  0  0  0  0  0
   49.5580   34.3600   40.5760 H   0  0  0  0  0  0  0  0  0  0  0  0
   47.8140   32.8840   42.6070 H   0  0  0  0  0  0  0  0  0  0  0  0
   49.0050   34.2800   42.7640 H   0  0  0  0  0  0  0  0  0  0  0  0
   44.5520   35.9830   44.4730 C   0  0  0  0  0  0  0  0  0  0  0  0
   45.3030   35.9680   43.3040 C   0  0  0  0  0  0  0  0  0  0  0  0
   46.2350   34.9450   43.1620 C   0  0  0  0  0  0  0  0  0  0  0  0
   46.3910   33.9830   44.1720 N   0  0  0  0  0  0  0  0  0  0  0  0
   45.6270   34.0510   45.2920 C   0  0  0  0  0  0  0  0  0  0  0  0
   44.7130   35.0480   45.4380 N   0  0  0  0  0  0  0  0  0  0  0  0
   43.8180   36.7670   44.6100 H   0  0  0  0  0  0  0  0  0  0  0  0
   45.2070   36.6920   42.5100 H   0  0  0  0  0  0  0  0  0  0  0  0
   45.8260   33.2640   46.0060 H   0  0  0  0  0  0  0  0  0  0  0  0
   49.1890   32.2290   40.5910 C   0  0  2  0  0  0  0  0  0  0  0  0
   50.1340   31.7530   41.5960 C   0  0  0  0  0  0  0  0  0  0  0  0
   50.5550   31.9090   40.1750 C   0  0  1  0  0  0  0  0  0  0  0  0
   48.3910   31.5390   40.2660 H   0  0  0  0  0  0  0  0  0  0  0  0
   50.5310   32.4740   42.3470 H   0  0  0  0  0  0  0  0  0  0  0  0
   50.0050   30.7370   42.0280 H   0  0  0  0  0  0  0  0  0  0  0  0
   51.2190   32.7290   39.8380 H   0  0  0  0  0  0  0  0  0  0  0  0
   50.7410   30.7350   39.4050 O   0  0  0  0  0  0  0  0  0  0  0  0
   51.9780   30.0340   37.2180 O   0  0  0  0  0  0  0  0  0  0  0  0
   52.0590   30.9790   38.3910 P   0  0  1  0  0  0  0  0  0  0  0  0
   52.0370   32.5780   37.7700 O   0  0  0  0  0  0  0  0  0  0  0  0
   52.3580   33.1510   38.5290 H   0  0  0  0  0  0  0  0  0  0  0  0
   53.5310   30.7710   39.1320 O   0  0  0  0  0  0  0  0  0  0  0  0
   53.4500   29.5820   39.8790 C   0  0  0  0  0  3  0  0  0  0  0  0
   53.6670   29.8460   41.3470 C   0  0  0  0  0  2  0  0  0  0  0  0
   55.0140   29.2340   41.6770 C   0  0  0  0  0  2  0  0  0  0  0  0
   55.7000   29.0580   40.3410 C   0  0  0  0  0  2  0  0  0  0  0  0
   54.5430   28.6140   39.4730 C   0  0  0  0  0  2  0  0  0  0  0  0
  1  6  1  6  0  0  0
  1  5  1  0  0  0  0
  1 16  1  0  0  0  0
  2  8  1  0  0  0  0
  2  1  1  0  0  0  0
  3  4  1  0  0  0  0
  3  2  1  0  0  0  0
  4 11  1  6  0  0  0
  4  5  1  0  0  0  0
  5 12  1  0  0  0  0
  5 13  1  0  0  0  0
  7  2  1  0  0  0  0
  9  3  1  0  0  0  0
 10  3  1  0  0  0  0
 14 20  1  0  0  0  0
 14 19  1  0  0  0  0
 15 14  2  0  0  0  0
 16 15  1  0  0  0  0
 16 17  2  0  0  0  0
 17 18  1  0  0  0  0
 18 19  2  0  0  0  0
 18 22  1  0  0  0  0
 21 15  1  0  0  0  0
 23 26  1  6  0  0  0
 23  4  1  0  0  0  0
 23 24  1  0  0  0  0
 24 28  1  0  0  0  0
 24 27  1  0  0  0  0
 25 29  1  6  0  0  0
 25 23  1  0  0  0  0
 25 24  1  0  0  0  0
 30 25  1  0  0  0  0
 32 31  2  6  0  0  0
 32 35  1  0  0  0  0
 32 30  1  0  0  0  0
 33 32  1  0  0  0  0
 33 34  1  0  0  0  0
 35 36  1  0  0  0  0
 36 37  1  0  0  0  0
 37 38  1  0  0  0  0
 39 38  1  0  0  0  0
 40 36  1  0  0  0  0
 40 39  1  0  0  0  0
M  END
>  <minimizedAffinity>
-4.99732113

>  <minimizedRMSD>
0.971824944

$$$$
