
 OpenBabel03242510513D

 18 19  0  0  0  0  0  0  0  0999 V2000
   44.5590   36.3180   44.2890 C   0  0  0  0  0  0  0  0  0  0  0  0
   45.2570   36.0300   43.1050 C   0  0  0  0  0  0  0  0  0  0  0  0
   46.0110   34.8400   43.0720 C   0  0  0  0  0  0  0  0  0  0  0  0
   46.0160   34.0550   44.1820 N   0  0  0  0  0  0  0  0  0  0  0  0
   45.3380   34.3680   45.2900 C   0  0  0  0  0  0  0  0  0  0  0  0
   44.6050   35.4980   45.3550 N   0  0  0  0  0  0  0  0  0  0  0  0
   46.4500   32.4910   46.3860 C   0  0  0  0  0  0  0  0  0  0  0  0
   47.2860   32.3620   45.4750 O   0  0  0  0  0  0  0  0  0  0  0  0
   45.4010   33.4760   46.4150 N   0  0  0  0  0  0  0  0  0  0  0  0
   43.9800   37.2520   44.2860 H   0  0  0  0  0  0  0  0  0  0  0  0
   45.2620   36.6390   42.2240 H   0  0  0  0  0  0  0  0  0  0  0  0
   46.5940   34.5020   42.2210 H   0  0  0  0  0  0  0  0  0  0  0  0
   44.7010   33.5830   47.1810 H   0  0  0  0  0  0  0  0  0  0  0  0
   46.4280   31.6110   47.6070 C   0  0  0  0  0  3  0  0  0  0  0  0
   45.5980   30.3820   47.4000 C   0  0  0  0  0  2  0  0  0  0  0  0
   45.0470   30.0620   48.7570 C   0  0  0  0  0  2  0  0  0  0  0  0
   45.2720   31.2680   49.6280 C   0  0  0  0  0  2  0  0  0  0  0  0
   45.6420   32.3670   48.6580 C   0  0  0  0  0  2  0  0  0  0  0  0
  1  6  1  0  0  0  0
  2  1  2  0  0  0  0
  3  2  1  0  0  0  0
  3  4  2  0  0  0  0
  4  5  1  0  0  0  0
  5  6  2  0  0  0  0
  5  9  1  0  0  0  0
  7  9  1  0  0  0  0
  7 14  1  0  0  0  0
  8  7  2  0  0  0  0
  9 13  1  0  0  0  0
 10  1  1  0  0  0  0
 11  2  1  0  0  0  0
 12  3  1  0  0  0  0
 14 18  1  0  0  0  0
 15 14  1  0  0  0  0
 15 16  1  0  0  0  0
 16 17  1  0  0  0  0
 18 17  1  0  0  0  0
M  END
>  <minimizedAffinity>
-5.56391573

>  <minimizedRMSD>
0.91561681

$$$$
