
     RDKit          3D

 27 28  0  0  0  0  0  0  0  0999 V2000
   44.6684   36.0657   44.2775 C   0  0  0  0  0  0  0  0  0  0  0  0
   45.4776   35.5821   43.2366 C   0  0  0  0  0  0  0  0  0  0  0  0
   46.1850   34.3857   43.4715 C   0  0  0  0  0  0  0  0  0  0  0  0
   46.0390   33.7833   44.6799 N   0  0  0  0  0  0  0  0  0  0  0  0
   45.2575   34.2782   45.6440 C   0  0  0  0  0  0  0  0  0  0  0  0
   44.5666   35.4202   45.4539 N   0  0  0  0  0  0  0  0  0  0  0  0
   46.1721   32.5711   47.1313 C   0  0  0  0  0  0  0  0  0  0  0  0
   47.0959   32.2840   46.3501 O   0  0  0  0  0  0  0  0  0  0  0  0
   45.1647   33.5708   46.8924 N   0  0  0  0  0  0  0  0  0  0  0  0
   44.1285   36.9996   44.0675 H   0  0  0  0  0  0  0  0  0  0  0  0
   45.6015   36.0467   42.2800 H   0  0  0  0  0  0  0  0  0  0  0  0
   46.8430   33.9068   42.7520 H   0  0  0  0  0  0  0  0  0  0  0  0
   44.3914   33.8096   47.5487 H   0  0  0  0  0  0  0  0  0  0  0  0
   45.9845   31.8922   48.4613 C   0  0  0  0  0  0  0  0  0  0  0  0
   45.7744   30.4168   48.3154 C   0  0  0  0  0  0  0  0  0  0  0  0
   44.8894   30.0428   49.4668 C   0  0  0  0  0  0  0  0  0  0  0  0
   44.3322   31.3188   50.0374 C   0  0  0  0  0  0  0  0  0  0  0  0
   44.6467   32.3653   48.9914 C   0  0  0  0  0  0  0  0  0  0  0  0
   46.8197   32.1580   49.1331 H   0  0  0  0  0  0  0  0  0  0  0  0
   45.1559   30.2832   47.3808 H   0  0  0  0  0  0  0  0  0  0  0  0
   46.7001   29.8200   48.2400 H   0  0  0  0  0  0  0  0  0  0  0  0
   45.4834   29.5397   50.2583 H   0  0  0  0  0  0  0  0  0  0  0  0
   44.0352   29.3865   49.1280 H   0  0  0  0  0  0  0  0  0  0  0  0
   44.8071   31.6245   50.9865 H   0  0  0  0  0  0  0  0  0  0  0  0
   43.2357   31.2377   50.2199 H   0  0  0  0  0  0  0  0  0  0  0  0
   44.7108   33.3873   49.4107 H   0  0  0  0  0  0  0  0  0  0  0  0
   43.9095   32.3105   48.1619 H   0  0  0  0  0  0  0  0  0  0  0  0
  1  6  2  0
  2  3  2  0
  2  1  1  0
  3  4  1  0
  4  5  2  0
  5  9  1  0
  6  5  1  0
  8  7  2  0
  9  7  1  0
  1 10  1  0
  2 11  1  0
  3 12  1  0
  9 13  1  0
 14 15  1  0
 15 16  1  0
 16 17  1  0
 17 18  1  0
 18 14  1  0
 14 19  1  0
 15 20  1  0
 15 21  1  0
 16 22  1  0
 16 23  1  0
 17 24  1  0
 17 25  1  0
 18 26  1  0
 18 27  1  0
  7 14  1  0
M  ISO  3  10  14  11  14  12  14
M  END
>  <DihAtoms>  (1) 
7,6,13,14

>  <DihDeg>  (1) 
119.99607506433343

$$$$
