
     RDKit          3D

 34 36  0  0  0  0  0  0  0  0999 V2000
   45.2337   33.5661   43.7081 C   0  0  1  0  0  0  0  0  0  0  0  0
   45.8611   34.9894   43.4826 C   0  0  1  0  0  0  0  0  0  0  0  0
   45.8185   33.8764   42.4596 C   0  0  0  0  0  0  0  0  0  0  0  0
   45.8969   32.8647   44.8175 C   0  0  0  0  0  0  0  0  0  0  0  0
   46.7138   31.7485   44.5057 C   0  0  0  0  0  0  0  0  0  0  0  0
   47.3885   31.0425   45.5148 C   0  0  0  0  0  0  0  0  0  0  0  0
   47.2023   31.5023   46.7838 N   0  0  0  0  0  0  0  0  0  0  0  0
   46.4118   32.5760   47.0422 C   0  0  0  0  0  0  0  0  0  0  0  0
   45.7753   33.2383   46.0773 N   0  0  0  0  0  0  0  0  0  0  0  0
   46.3303   32.9160   48.3848 O   0  0  0  0  0  0  0  0  0  0  0  0
   44.8335   36.0713   43.2412 C   0  0  0  0  0  0  0  0  0  0  0  0
   45.3587   37.3316   43.2442 F   0  0  0  0  0  0  0  0  0  0  0  0
   44.2453   35.8571   41.9798 F   0  0  0  0  0  0  0  0  0  0  0  0
   43.7822   35.9647   44.1405 F   0  0  0  0  0  0  0  0  0  0  0  0
   44.1202   33.6080   43.8539 H   0  0  0  0  0  0  0  0  0  0  0  0
   46.8008   35.2182   43.9792 H   0  0  0  0  0  0  0  0  0  0  0  0
   45.2009   33.9902   41.5402 H   0  0  0  0  0  0  0  0  0  0  0  0
   46.8384   33.4915   42.1919 H   0  0  0  0  0  0  0  0  0  0  0  0
   46.8289   31.4231   43.4749 H   0  0  0  0  0  0  0  0  0  0  0  0
   48.0096   30.1927   45.2765 H   0  0  0  0  0  0  0  0  0  0  0  0
   45.5672   33.9947   48.8777 C   0  0  0  0  0  0  0  0  0  0  0  0
   45.9400   34.1842   50.3383 C   0  0  0  0  0  0  0  0  0  0  0  0
   45.4254   32.9318   50.9880 C   0  0  0  0  0  0  0  0  0  0  0  0
   44.0705   32.7650   50.3279 C   0  0  0  0  0  0  0  0  0  0  0  0
   44.1353   33.5225   49.0090 C   0  0  0  0  0  0  0  0  0  0  0  0
   45.6687   34.9255   48.3077 H   0  0  0  0  0  0  0  0  0  0  0  0
   45.3695   35.0380   50.7242 H   0  0  0  0  0  0  0  0  0  0  0  0
   47.0273   34.2843   50.4762 H   0  0  0  0  0  0  0  0  0  0  0  0
   45.2739   33.0433   52.0835 H   0  0  0  0  0  0  0  0  0  0  0  0
   46.0576   32.0540   50.7753 H   0  0  0  0  0  0  0  0  0  0  0  0
   43.9049   31.6862   50.1178 H   0  0  0  0  0  0  0  0  0  0  0  0
   43.2706   33.1715   50.9892 H   0  0  0  0  0  0  0  0  0  0  0  0
   43.4941   34.4259   49.1095 H   0  0  0  0  0  0  0  0  0  0  0  0
   43.8043   32.8776   48.1728 H   0  0  0  0  0  0  0  0  0  0  0  0
  1  4  1  0
  2  1  1  0
  3  2  1  0
  3  1  1  0
  4  9  1  0
  5  4  2  0
  5  6  1  0
  6  7  2  0
  7  8  1  0
  8 10  1  0
  9  8  2  0
 11  2  1  0
 11 14  1  0
 12 11  1  0
 13 11  1  0
  1 15  1  6
  2 16  1  1
  3 17  1  0
  3 18  1  0
  5 19  1  0
  6 20  1  0
 21 22  1  0
 22 23  1  0
 23 24  1  0
 24 25  1  0
 25 21  1  0
 21 26  1  0
 22 27  1  0
 22 28  1  0
 23 29  1  0
 23 30  1  0
 24 31  1  0
 24 32  1  0
 25 33  1  0
 25 34  1  0
 10 21  1  0
M  ISO  6  15  13  16  13  17  13  18  13  19  14  20  14
M  END
>  <DihAtoms>  (1) 
7,9,20,21

>  <DihDeg>  (1) 
-124.88994215571647

$$$$
