
     RDKit          3D

 40 42  0  0  0  0  0  0  0  0999 V2000
   45.6133   34.4166   41.8419 N   0  0  0  0  0  0  0  0  0  0  0  0
   46.9562   34.1245   41.4197 C   0  0  1  0  0  0  0  0  0  0  0  0
   47.0945   34.0054   39.9373 C   0  0  0  0  0  0  0  0  0  0  0  0
   46.0521   33.3782   39.2542 N   0  0  0  0  0  0  0  0  0  0  0  0
   44.7603   33.4637   39.7888 C   0  0  0  0  0  0  0  0  0  0  0  0
   44.6605   34.6031   40.8006 C   0  0  0  0  0  0  0  0  0  0  0  0
   44.7273   35.6146   43.7043 C   0  0  0  0  0  0  0  0  0  0  0  0
   45.3792   34.4879   43.2260 C   0  0  0  0  0  0  0  0  0  0  0  0
   45.7506   33.5108   44.1732 C   0  0  0  0  0  0  0  0  0  0  0  0
   45.4650   33.7020   45.4823 N   0  0  0  0  0  0  0  0  0  0  0  0
   44.8320   34.8092   45.8986 C   0  0  0  0  0  0  0  0  0  0  0  0
   44.4696   35.7482   45.0268 N   0  0  0  0  0  0  0  0  0  0  0  0
   47.8434   35.2639   41.8573 C   0  0  0  0  0  0  0  0  0  0  0  0
   47.3004   33.1925   41.9407 H   0  0  0  0  0  0  0  0  0  0  0  0
   48.0617   33.5285   39.6924 H   0  0  0  0  0  0  0  0  0  0  0  0
   47.1935   35.0559   39.5327 H   0  0  0  0  0  0  0  0  0  0  0  0
   46.0251   33.7383   38.2534 H   0  0  0  0  0  0  0  0  0  0  0  0
   44.5572   32.5365   40.3980 H   0  0  0  0  0  0  0  0  0  0  0  0
   43.9335   33.5118   39.0686 H   0  0  0  0  0  0  0  0  0  0  0  0
   44.7958   35.5851   40.3007 H   0  0  0  0  0  0  0  0  0  0  0  0
   43.6406   34.5816   41.2738 H   0  0  0  0  0  0  0  0  0  0  0  0
   44.3912   36.4307   43.0952 H   0  0  0  0  0  0  0  0  0  0  0  0
   46.2513   32.6598   43.7543 H   0  0  0  0  0  0  0  0  0  0  0  0
   44.6477   34.8708   46.9679 H   0  0  0  0  0  0  0  0  0  0  0  0
   47.8310   35.2557   42.9733 H   0  0  0  0  0  0  0  0  0  0  0  0
   47.4575   36.2227   41.5086 H   0  0  0  0  0  0  0  0  0  0  0  0
   49.2847   35.0662   41.4663 C   0  0  0  0  0  0  0  0  0  0  0  0
   49.8333   34.0115   42.4360 C   0  0  0  0  0  0  0  0  0  0  0  0
   49.6792   32.7366   41.6655 C   0  0  0  0  0  0  0  0  0  0  0  0
   50.1019   33.1136   40.2778 C   0  0  0  0  0  0  0  0  0  0  0  0
   49.4478   34.4711   40.1083 C   0  0  0  0  0  0  0  0  0  0  0  0
   49.9131   35.9488   41.5641 H   0  0  0  0  0  0  0  0  0  0  0  0
   49.2627   34.0230   43.3819 H   0  0  0  0  0  0  0  0  0  0  0  0
   50.9134   34.2092   42.6355 H   0  0  0  0  0  0  0  0  0  0  0  0
   50.3240   31.9545   42.1110 H   0  0  0  0  0  0  0  0  0  0  0  0
   48.6092   32.4597   41.6367 H   0  0  0  0  0  0  0  0  0  0  0  0
   49.7039   32.3823   39.5466 H   0  0  0  0  0  0  0  0  0  0  0  0
   51.2192   33.1830   40.1823 H   0  0  0  0  0  0  0  0  0  0  0  0
   50.1470   35.0690   39.4567 H   0  0  0  0  0  0  0  0  0  0  0  0
   48.5001   34.4033   39.5380 H   0  0  0  0  0  0  0  0  0  0  0  0
  1  8  1  0
  2  1  1  0
  2 13  1  0
  3  2  1  0
  4  5  1  0
  4  3  1  0
  5  6  1  0
  6  1  1  0
  7 12  2  0
  8  7  1  0
  8  9  2  0
  9 10  1  0
 10 11  2  0
 12 11  1  0
  2 14  1  1
  3 15  1  0
  3 16  1  0
  4 17  1  0
  5 18  1  0
  5 19  1  0
  6 20  1  0
  6 21  1  0
  7 22  1  0
  9 23  1  0
 11 24  1  0
 13 25  1  0
 13 26  1  0
 27 28  1  0
 28 29  1  0
 29 30  1  0
 30 31  1  0
 31 27  1  0
 27 32  1  0
 28 33  1  0
 28 34  1  0
 29 35  1  0
 29 36  1  0
 30 37  1  0
 30 38  1  0
 31 39  1  0
 31 40  1  0
 13 27  1  0
M  ISO  8  14  13  15  13  16  13  17   5  18  13  19  13  20  13  21  13
M  ISO  5  22  14  23  14  24  14  25   8  26   8
M  END
>  <DihAtoms>  (1) 
1,12,26,27

>  <DihDeg>  (1) 
179.9965814274173

$$$$
