
 OpenBabel03242523533D

 39 42  0  0  1  0  0  0  0  0999 V2000
   36.0710   28.5160   40.8220 C   0  0  1  0  0  0  0  0  0  0  0  0
   36.4560   28.2200   39.3710 C   0  0  1  0  0  0  0  0  0  0  0  0
   37.0120   29.3810   38.7990 O   0  0  0  0  0  0  0  0  0  0  0  0
   36.4370   30.5540   39.2770 C   0  0  0  0  0  0  0  0  0  0  0  0
   36.8280   30.7890   40.7370 C   0  0  2  0  0  0  0  0  0  0  0  0
   37.1690   29.4300   41.3370 C   0  0  1  0  0  0  0  0  0  0  0  0
   35.9950   27.5880   41.4160 H   0  0  0  0  0  0  0  0  0  0  0  0
   35.6060   27.8820   38.7600 H   0  0  0  0  0  0  0  0  0  0  0  0
   36.9230   31.3670   38.7130 H   0  0  0  0  0  0  0  0  0  0  0  0
   35.3540   30.6190   39.1060 H   0  0  0  0  0  0  0  0  0  0  0  0
   37.6320   31.5220   40.8480 H   0  0  0  0  0  0  0  0  0  0  0  0
   38.1250   29.0340   40.9230 H   0  0  0  0  0  0  0  0  0  0  0  0
   34.8410   29.1710   40.8670 O   0  0  0  0  0  0  0  0  0  0  0  0
   34.4660   29.1540   41.7600 H   0  0  0  0  0  0  0  0  0  0  0  0
   35.6520   31.1910   41.4070 O   0  0  0  0  0  0  0  0  0  0  0  0
   35.8700   31.7590   42.1900 H   0  0  0  0  0  0  0  0  0  0  0  0
   37.5210   27.3100   39.4340 O   0  0  0  0  0  0  0  0  0  0  0  0
   37.4270   26.0340   39.8250 C   0  0  0  0  0  0  0  0  0  0  0  0
   36.3310   25.2600   39.4500 C   0  0  0  0  0  0  0  0  0  0  0  0
   36.2710   23.9430   39.8740 C   0  0  0  0  0  0  0  0  0  0  0  0
   37.2960   23.4270   40.6560 N   0  0  0  0  0  0  0  0  0  0  0  0
   38.3320   24.2070   40.9950 C   0  0  0  0  0  0  0  0  0  0  0  0
   38.4090   25.5010   40.5890 N   0  0  0  0  0  0  0  0  0  0  0  0
   35.5300   25.6640   38.8380 H   0  0  0  0  0  0  0  0  0  0  0  0
   39.1000   23.7460   41.6080 H   0  0  0  0  0  0  0  0  0  0  0  0
   35.0990   23.0660   39.5100 C   0  0  0  0  0  0  0  0  0  0  0  0
   34.4660   23.2830   38.1550 C   0  0  0  0  0  0  0  0  0  0  0  0
   35.2630   22.0260   38.5310 C   0  0  0  0  0  0  0  0  0  0  0  0
   34.4040   22.9160   40.3730 H   0  0  0  0  0  0  0  0  0  0  0  0
   33.3690   23.1990   38.1330 H   0  0  0  0  0  0  0  0  0  0  0  0
   34.9130   24.0230   37.4850 H   0  0  0  0  0  0  0  0  0  0  0  0
   34.7080   21.0760   38.6050 H   0  0  0  0  0  0  0  0  0  0  0  0
   36.2040   21.9420   37.9420 H   0  0  0  0  0  0  0  0  0  0  0  0
   37.2190   29.5020   42.7140 O   0  0  0  0  0  0  0  0  0  0  0  0
   38.3790   28.8950   43.1930 C   0  0  0  0  0  3  0  0  0  0  0  0
   38.1630   27.4620   43.6090 C   0  0  0  0  0  2  0  0  0  0  0  0
   39.5640   26.9100   43.6780 C   0  0  0  0  0  2  0  0  0  0  0  0
   40.4330   27.8410   42.8330 C   0  0  0  0  0  2  0  0  0  0  0  0
   39.4280   28.7290   42.0940 C   0  0  0  0  0  2  0  0  0  0  0  0
  1 13  1  0  0  0  0
  1  6  1  0  0  0  0
  1  7  1  1  0  0  0
  2  8  1  6  0  0  0
  2 17  1  0  0  0  0
  2  1  1  0  0  0  0
  3  4  1  0  0  0  0
  3  2  1  0  0  0  0
  4  5  1  0  0  0  0
  5 11  1  1  0  0  0
  5  6  1  0  0  0  0
  5 15  1  0  0  0  0
  6 12  1  6  0  0  0
  6 34  1  0  0  0  0
  9  4  1  0  0  0  0
 10  4  1  0  0  0  0
 13 14  1  0  0  0  0
 15 16  1  0  0  0  0
 17 18  1  0  0  0  0
 18 23  1  0  0  0  0
 19 18  2  0  0  0  0
 19 20  1  0  0  0  0
 20 21  2  0  0  0  0
 21 22  1  0  0  0  0
 22 25  1  0  0  0  0
 23 22  2  0  0  0  0
 24 19  1  0  0  0  0
 26 20  1  0  0  0  0
 26 29  1  0  0  0  0
 27 28  1  0  0  0  0
 27 26  1  0  0  0  0
 28 32  1  0  0  0  0
 28 26  1  0  0  0  0
 30 27  1  0  0  0  0
 31 27  1  0  0  0  0
 33 28  1  0  0  0  0
 34 35  1  0  0  0  0
 35 36  1  0  0  0  0
 36 37  1  0  0  0  0
 38 37  1  0  0  0  0
 39 38  1  0  0  0  0
 39 35  1  0  0  0  0
M  END
>  <minimizedAffinity>
-5.95402336

$$$$

 OpenBabel03242523533D

 39 42  0  0  1  0  0  0  0  0999 V2000
   35.6470   28.7740   40.0590 C   0  0  1  0  0  0  0  0  0  0  0  0
   36.0540   28.8370   38.5860 C   0  0  1  0  0  0  0  0  0  0  0  0
   36.8750   29.9640   38.3860 O   0  0  0  0  0  0  0  0  0  0  0  0
   36.5270   31.0430   39.1920 C   0  0  0  0  0  0  0  0  0  0  0  0
   36.8630   30.7510   40.6560 C   0  0  2  0  0  0  0  0  0  0  0  0
   36.8750   29.2360   40.8230 C   0  0  1  0  0  0  0  0  0  0  0  0
   35.3410   27.7530   40.3500 H   0  0  0  0  0  0  0  0  0  0  0  0
   35.1930   28.8840   37.9030 H   0  0  0  0  0  0  0  0  0  0  0  0
   37.2060   31.8580   38.8960 H   0  0  0  0  0  0  0  0  0  0  0  0
   35.4950   31.3890   39.0500 H   0  0  0  0  0  0  0  0  0  0  0  0
   37.7940   31.2270   40.9800 H   0  0  0  0  0  0  0  0  0  0  0  0
   37.7520   28.7800   40.3090 H   0  0  0  0  0  0  0  0  0  0  0  0
   34.5790   29.6390   40.2990 O   0  0  0  0  0  0  0  0  0  0  0  0
   34.1530   29.4450   41.1460 H   0  0  0  0  0  0  0  0  0  0  0  0
   35.7570   31.1870   41.4160 O   0  0  0  0  0  0  0  0  0  0  0  0
   36.0370   31.4400   42.3330 H   0  0  0  0  0  0  0  0  0  0  0  0
   36.8990   27.7390   38.3740 O   0  0  0  0  0  0  0  0  0  0  0  0
   36.5820   26.4600   38.6060 C   0  0  0  0  0  0  0  0  0  0  0  0
   37.2300   25.7430   39.6080 C   0  0  0  0  0  0  0  0  0  0  0  0
   36.8730   24.4210   39.8180 C   0  0  0  0  0  0  0  0  0  0  0  0
   35.8840   23.8450   39.0310 N   0  0  0  0  0  0  0  0  0  0  0  0
   35.2860   24.5710   38.0760 C   0  0  0  0  0  0  0  0  0  0  0  0
   35.6230   25.8680   37.8550 N   0  0  0  0  0  0  0  0  0  0  0  0
   38.0030   26.1940   40.2230 H   0  0  0  0  0  0  0  0  0  0  0  0
   34.5230   24.0650   37.4950 H   0  0  0  0  0  0  0  0  0  0  0  0
   37.5560   23.5950   40.8790 C   0  0  0  0  0  0  0  0  0  0  0  0
   38.9350   24.0310   41.3170 C   0  0  0  0  0  0  0  0  0  0  0  0
   37.6920   24.1170   42.2130 C   0  0  0  0  0  0  0  0  0  0  0  0
   37.3980   22.4990   40.7220 H   0  0  0  0  0  0  0  0  0  0  0  0
   39.6440   23.2120   41.5110 H   0  0  0  0  0  0  0  0  0  0  0  0
   39.3520   24.9450   40.8850 H   0  0  0  0  0  0  0  0  0  0  0  0
   37.6540   23.4560   43.0940 H   0  0  0  0  0  0  0  0  0  0  0  0
   37.4200   25.1720   42.4400 H   0  0  0  0  0  0  0  0  0  0  0  0
   36.8500   28.8910   42.1590 O   0  0  0  0  0  0  0  0  0  0  0  0
   38.1340   28.5870   42.6080 C   0  0  0  0  0  3  0  0  0  0  0  0
   38.1480   27.5050   43.6580 C   0  0  0  0  0  2  0  0  0  0  0  0
   39.5890   27.0640   43.6780 C   0  0  0  0  0  2  0  0  0  0  0  0
   40.1900   27.5100   42.3450 C   0  0  0  0  0  2  0  0  0  0  0  0
   38.9820   27.9460   41.5110 C   0  0  0  0  0  2  0  0  0  0  0  0
  1 13  1  0  0  0  0
  1  7  1  1  0  0  0
  1  6  1  0  0  0  0
  2  8  1  6  0  0  0
  2  1  1  0  0  0  0
  3  2  1  0  0  0  0
  3  4  1  0  0  0  0
  4  5  1  0  0  0  0
  5  6  1  0  0  0  0
  5 11  1  1  0  0  0
  5 15  1  0  0  0  0
  6 12  1  6  0  0  0
  6 34  1  0  0  0  0
  9  4  1  0  0  0  0
 10  4  1  0  0  0  0
 13 14  1  0  0  0  0
 15 16  1  0  0  0  0
 17  2  1  0  0  0  0
 17 18  1  0  0  0  0
 18 19  1  0  0  0  0
 19 20  2  0  0  0  0
 19 24  1  0  0  0  0
 20 26  1  0  0  0  0
 21 20  1  0  0  0  0
 22 21  2  0  0  0  0
 23 22  1  0  0  0  0
 23 18  2  0  0  0  0
 25 22  1  0  0  0  0
 26 27  1  0  0  0  0
 26 28  1  0  0  0  0
 27 30  1  0  0  0  0
 27 28  1  0  0  0  0
 28 33  1  0  0  0  0
 28 32  1  0  0  0  0
 29 26  1  0  0  0  0
 31 27  1  0  0  0  0
 34 35  1  0  0  0  0
 35 36  1  0  0  0  0
 36 37  1  0  0  0  0
 38 37  1  0  0  0  0
 39 38  1  0  0  0  0
 39 35  1  0  0  0  0
M  END
>  <minimizedAffinity>
-5.70124865

$$$$

 OpenBabel03242523533D

 39 42  0  0  1  0  0  0  0  0999 V2000
   39.5040   30.5560   39.9400 C   0  0  1  0  0  0  0  0  0  0  0  0
   40.4260   30.8170   41.1330 C   0  0  1  0  0  0  0  0  0  0  0  0
   40.7810   32.1810   41.1460 O   0  0  0  0  0  0  0  0  0  0  0  0
   40.9080   32.7250   39.8720 C   0  0  0  0  0  0  0  0  0  0  0  0
   39.5400   32.8350   39.1960 C   0  0  2  0  0  0  0  0  0  0  0  0
   38.6320   31.7960   39.8430 C   0  0  1  0  0  0  0  0  0  0  0  0
   38.9040   29.6410   40.0870 H   0  0  0  0  0  0  0  0  0  0  0  0
   41.3360   30.2010   41.1170 H   0  0  0  0  0  0  0  0  0  0  0  0
   41.2370   33.7640   40.0310 H   0  0  0  0  0  0  0  0  0  0  0  0
   41.6570   32.2200   39.2470 H   0  0  0  0  0  0  0  0  0  0  0  0
   39.1290   33.8480   39.2340 H   0  0  0  0  0  0  0  0  0  0  0  0
   38.3750   32.0790   40.8890 H   0  0  0  0  0  0  0  0  0  0  0  0
   40.2580   30.4080   38.7760 O   0  0  0  0  0  0  0  0  0  0  0  0
   39.7340   30.0100   38.0650 H   0  0  0  0  0  0  0  0  0  0  0  0
   39.7110   32.3850   37.8700 O   0  0  0  0  0  0  0  0  0  0  0  0
   39.0480   32.8090   37.2660 H   0  0  0  0  0  0  0  0  0  0  0  0
   39.6320   30.6460   42.2750 O   0  0  0  0  0  0  0  0  0  0  0  0
   39.1720   29.4760   42.7310 C   0  0  0  0  0  0  0  0  0  0  0  0
   40.0390   28.4020   42.9200 C   0  0  0  0  0  0  0  0  0  0  0  0
   39.5260   27.2060   43.3940 C   0  0  0  0  0  0  0  0  0  0  0  0
   38.1690   27.1050   43.6690 N   0  0  0  0  0  0  0  0  0  0  0  0
   37.3680   28.1630   43.4720 C   0  0  0  0  0  0  0  0  0  0  0  0
   37.8530   29.3430   43.0080 N   0  0  0  0  0  0  0  0  0  0  0  0
   41.1010   28.4830   42.7040 H   0  0  0  0  0  0  0  0  0  0  0  0
   36.3180   28.0200   43.7050 H   0  0  0  0  0  0  0  0  0  0  0  0
   40.4190   26.0090   43.6000 C   0  0  0  0  0  0  0  0  0  0  0  0
   39.8580   24.6550   43.2310 C   0  0  0  0  0  0  0  0  0  0  0  0
   40.9940   25.3430   42.4620 C   0  0  0  0  0  0  0  0  0  0  0  0
   40.9920   26.0740   44.5570 H   0  0  0  0  0  0  0  0  0  0  0  0
   40.1310   23.8350   43.9110 H   0  0  0  0  0  0  0  0  0  0  0  0
   38.8590   24.6100   42.7880 H   0  0  0  0  0  0  0  0  0  0  0  0
   41.9940   24.8820   42.5120 H   0  0  0  0  0  0  0  0  0  0  0  0
   40.6860   25.6170   41.4280 H   0  0  0  0  0  0  0  0  0  0  0  0
   37.4920   31.6040   39.0880 O   0  0  0  0  0  0  0  0  0  0  0  0
   36.9110   30.3740   39.3860 C   0  0  0  0  0  3  0  0  0  0  0  0
   35.8780   30.4620   40.4810 C   0  0  0  0  0  2  0  0  0  0  0  0
   35.1180   29.1680   40.3410 C   0  0  0  0  0  2  0  0  0  0  0  0
   35.3840   28.6680   38.9210 C   0  0  0  0  0  2  0  0  0  0  0  0
   36.0670   29.8480   38.2250 C   0  0  0  0  0  2  0  0  0  0  0  0
  1  7  1  1  0  0  0
  1  2  1  0  0  0  0
  2  8  1  1  0  0  0
  2  3  1  0  0  0  0
  2 17  1  0  0  0  0
  4  9  1  0  0  0  0
  4  3  1  0  0  0  0
  5 11  1  1  0  0  0
  5  6  1  0  0  0  0
  5  4  1  0  0  0  0
  6  1  1  0  0  0  0
  6 12  1  1  0  0  0
 10  4  1  0  0  0  0
 13  1  1  0  0  0  0
 14 13  1  0  0  0  0
 15  5  1  0  0  0  0
 16 15  1  0  0  0  0
 17 18  1  0  0  0  0
 18 19  2  0  0  0  0
 18 23  1  0  0  0  0
 19 20  1  0  0  0  0
 20 26  1  0  0  0  0
 20 21  2  0  0  0  0
 22 21  1  0  0  0  0
 22 25  1  0  0  0  0
 23 22  2  0  0  0  0
 24 19  1  0  0  0  0
 26 29  1  0  0  0  0
 27 26  1  0  0  0  0
 27 30  1  0  0  0  0
 28 32  1  0  0  0  0
 28 27  1  0  0  0  0
 28 26  1  0  0  0  0
 31 27  1  0  0  0  0
 33 28  1  0  0  0  0
 34 35  1  0  0  0  0
 34  6  1  0  0  0  0
 35 36  1  0  0  0  0
 37 36  1  0  0  0  0
 38 37  1  0  0  0  0
 39 38  1  0  0  0  0
 39 35  1  0  0  0  0
M  END
>  <minimizedAffinity>
-5.66932297

$$$$

 OpenBabel03242523533D

 39 42  0  0  1  0  0  0  0  0999 V2000
   40.8710   31.7360   39.6960 C   0  0  1  0  0  0  0  0  0  0  0  0
   41.8240   31.8490   40.8870 C   0  0  1  0  0  0  0  0  0  0  0  0
   42.2260   33.1920   41.0250 O   0  0  0  0  0  0  0  0  0  0  0  0
   42.3460   33.8540   39.8070 C   0  0  0  0  0  0  0  0  0  0  0  0
   40.9700   34.0740   39.1770 C   0  0  2  0  0  0  0  0  0  0  0  0
   40.0400   33.0060   39.7400 C   0  0  1  0  0  0  0  0  0  0  0  0
   40.2420   30.8310   39.7660 H   0  0  0  0  0  0  0  0  0  0  0  0
   42.7120   31.2080   40.7910 H   0  0  0  0  0  0  0  0  0  0  0  0
   42.7140   34.8610   40.0590 H   0  0  0  0  0  0  0  0  0  0  0  0
   43.0650   33.3890   39.1190 H   0  0  0  0  0  0  0  0  0  0  0  0
   40.5950   35.0920   39.3230 H   0  0  0  0  0  0  0  0  0  0  0  0
   39.8130   33.1940   40.8140 H   0  0  0  0  0  0  0  0  0  0  0  0
   41.5960   31.6780   38.5060 O   0  0  0  0  0  0  0  0  0  0  0  0
   41.0440   31.3690   37.7720 H   0  0  0  0  0  0  0  0  0  0  0  0
   41.1000   33.7510   37.8090 O   0  0  0  0  0  0  0  0  0  0  0  0
   40.4400   34.2530   37.2650 H   0  0  0  0  0  0  0  0  0  0  0  0
   41.0470   31.5930   42.0260 O   0  0  0  0  0  0  0  0  0  0  0  0
   40.5680   30.3950   42.3840 C   0  0  0  0  0  0  0  0  0  0  0  0
   39.2010   30.2100   42.5730 C   0  0  0  0  0  0  0  0  0  0  0  0
   38.7430   28.9560   42.9420 C   0  0  0  0  0  0  0  0  0  0  0  0
   39.6510   27.9200   43.1150 N   0  0  0  0  0  0  0  0  0  0  0  0
   40.9600   28.1410   42.9240 C   0  0  0  0  0  0  0  0  0  0  0  0
   41.4270   29.3640   42.5610 N   0  0  0  0  0  0  0  0  0  0  0  0
   38.4920   31.0210   42.4370 H   0  0  0  0  0  0  0  0  0  0  0  0
   41.6180   27.2920   43.0750 H   0  0  0  0  0  0  0  0  0  0  0  0
   37.2750   28.7060   43.1750 C   0  0  0  0  0  0  0  0  0  0  0  0
   36.5640   27.7940   42.2020 C   0  0  0  0  0  0  0  0  0  0  0  0
   36.8380   27.4270   43.6670 C   0  0  0  0  0  0  0  0  0  0  0  0
   36.7350   29.6360   43.4820 H   0  0  0  0  0  0  0  0  0  0  0  0
   35.5400   28.0990   41.9390 H   0  0  0  0  0  0  0  0  0  0  0  0
   37.1520   27.3210   41.4100 H   0  0  0  0  0  0  0  0  0  0  0  0
   35.9690   27.3370   44.3390 H   0  0  0  0  0  0  0  0  0  0  0  0
   37.5520   26.5770   43.7530 H   0  0  0  0  0  0  0  0  0  0  0  0
   38.8790   32.9270   38.9960 O   0  0  0  0  0  0  0  0  0  0  0  0
   38.1690   31.7730   39.3210 C   0  0  0  0  0  3  0  0  0  0  0  0
   37.0500   32.0280   40.2980 C   0  0  0  0  0  2  0  0  0  0  0  0
   36.1980   30.7910   40.1760 C   0  0  0  0  0  2  0  0  0  0  0  0
   36.5530   30.1600   38.8290 C   0  0  0  0  0  2  0  0  0  0  0  0
   37.3970   31.2250   38.1230 C   0  0  0  0  0  2  0  0  0  0  0  0
  1  6  1  0  0  0  0
  1  7  1  1  0  0  0
  1  2  1  0  0  0  0
  2  8  1  6  0  0  0
  2  3  1  0  0  0  0
  2 17  1  0  0  0  0
  4  9  1  0  0  0  0
  4  3  1  0  0  0  0
  5 11  1  1  0  0  0
  5  6  1  0  0  0  0
  5  4  1  0  0  0  0
  6 12  1  1  0  0  0
 10  4  1  0  0  0  0
 13  1  1  0  0  0  0
 14 13  1  0  0  0  0
 15  5  1  0  0  0  0
 16 15  1  0  0  0  0
 17 18  1  0  0  0  0
 18 23  2  0  0  0  0
 18 19  1  0  0  0  0
 19 20  2  0  0  0  0
 20 21  1  0  0  0  0
 20 26  1  0  0  0  0
 22 25  1  0  0  0  0
 22 21  2  0  0  0  0
 23 22  1  0  0  0  0
 24 19  1  0  0  0  0
 26 29  1  0  0  0  0
 26 28  1  0  0  0  0
 27 26  1  0  0  0  0
 27 28  1  0  0  0  0
 28 33  1  0  0  0  0
 28 32  1  0  0  0  0
 30 27  1  0  0  0  0
 31 27  1  0  0  0  0
 34 35  1  0  0  0  0
 34  6  1  0  0  0  0
 35 36  1  0  0  0  0
 37 36  1  0  0  0  0
 38 37  1  0  0  0  0
 39 38  1  0  0  0  0
 39 35  1  0  0  0  0
M  END
>  <minimizedAffinity>
-5.62098789

$$$$

 OpenBabel03242523533D

 39 42  0  0  1  0  0  0  0  0999 V2000
   37.4800   31.1130   40.9410 C   0  0  1  0  0  0  0  0  0  0  0  0
   37.3260   29.9010   40.0210 C   0  0  1  0  0  0  0  0  0  0  0  0
   37.4610   30.3220   38.6830 O   0  0  0  0  0  0  0  0  0  0  0  0
   36.9530   31.5980   38.4580 C   0  0  0  0  0  0  0  0  0  0  0  0
   37.8290   32.6520   39.1360 C   0  0  2  0  0  0  0  0  0  0  0  0
   38.5540   31.9640   40.2880 C   0  0  1  0  0  0  0  0  0  0  0  0
   37.7610   30.8090   41.9650 H   0  0  0  0  0  0  0  0  0  0  0  0
   36.3630   29.3840   40.1470 H   0  0  0  0  0  0  0  0  0  0  0  0
   37.0750   31.7720   37.3770 H   0  0  0  0  0  0  0  0  0  0  0  0
   35.8880   31.7010   38.7040 H   0  0  0  0  0  0  0  0  0  0  0  0
   38.5080   33.1520   38.4390 H   0  0  0  0  0  0  0  0  0  0  0  0
   39.3280   31.2560   39.9120 H   0  0  0  0  0  0  0  0  0  0  0  0
   36.2800   31.8220   41.0050 O   0  0  0  0  0  0  0  0  0  0  0  0
   36.2750   32.4390   41.7510 H   0  0  0  0  0  0  0  0  0  0  0  0
   36.9490   33.5630   39.7600 O   0  0  0  0  0  0  0  0  0  0  0  0
   37.3660   34.4600   39.8360 H   0  0  0  0  0  0  0  0  0  0  0  0
   38.4490   29.0960   40.2550 O   0  0  0  0  0  0  0  0  0  0  0  0
   38.5650   28.1940   41.2360 C   0  0  0  0  0  0  0  0  0  0  0  0
   37.8790   26.9840   41.1660 C   0  0  0  0  0  0  0  0  0  0  0  0
   38.0250   26.0750   42.2000 C   0  0  0  0  0  0  0  0  0  0  0  0
   38.8460   26.3870   43.2750 N   0  0  0  0  0  0  0  0  0  0  0  0
   39.4880   27.5630   43.3040 C   0  0  0  0  0  0  0  0  0  0  0  0
   39.3570   28.4670   42.2990 N   0  0  0  0  0  0  0  0  0  0  0  0
   37.2370   26.7410   40.3240 H   0  0  0  0  0  0  0  0  0  0  0  0
   40.1140   27.7480   44.1710 H   0  0  0  0  0  0  0  0  0  0  0  0
   37.2910   24.7570   42.1820 C   0  0  0  0  0  0  0  0  0  0  0  0
   36.5720   24.3830   40.9060 C   0  0  0  0  0  0  0  0  0  0  0  0
   37.8210   23.6560   41.4240 C   0  0  0  0  0  0  0  0  0  0  0  0
   36.7500   24.5660   43.1410 H   0  0  0  0  0  0  0  0  0  0  0  0
   35.6010   23.8840   41.0470 H   0  0  0  0  0  0  0  0  0  0  0  0
   36.6570   25.0530   40.0460 H   0  0  0  0  0  0  0  0  0  0  0  0
   37.6990   22.6150   41.7630 H   0  0  0  0  0  0  0  0  0  0  0  0
   38.6920   23.8000   40.7460 H   0  0  0  0  0  0  0  0  0  0  0  0
   39.1090   32.8950   41.1430 O   0  0  0  0  0  0  0  0  0  0  0  0
   40.4990   32.8780   41.0470 C   0  0  0  0  0  3  0  0  0  0  0  0
   41.0210   31.6830   40.2900 C   0  0  0  0  0  2  0  0  0  0  0  0
   42.4360   32.0790   39.9570 C   0  0  0  0  0  2  0  0  0  0  0  0
   42.4900   33.6030   40.0630 C   0  0  0  0  0  2  0  0  0  0  0  0
   41.0230   34.0260   40.1850 C   0  0  0  0  0  2  0  0  0  0  0  0
  1 13  1  0  0  0  0
  1  7  1  1  0  0  0
  2  8  1  1  0  0  0
  2 17  1  0  0  0  0
  2  1  1  0  0  0  0
  3  2  1  0  0  0  0
  4  3  1  0  0  0  0
  4 10  1  0  0  0  0
  4  5  1  0  0  0  0
  5 11  1  6  0  0  0
  5 15  1  0  0  0  0
  5  6  1  0  0  0  0
  6 12  1  6  0  0  0
  6  1  1  0  0  0  0
  6 34  1  0  0  0  0
  9  4  1  0  0  0  0
 13 14  1  0  0  0  0
 15 16  1  0  0  0  0
 17 18  1  0  0  0  0
 18 23  1  0  0  0  0
 19 18  2  0  0  0  0
 19 20  1  0  0  0  0
 20 21  2  0  0  0  0
 21 22  1  0  0  0  0
 22 25  1  0  0  0  0
 23 22  2  0  0  0  0
 24 19  1  0  0  0  0
 26 20  1  0  0  0  0
 26 29  1  0  0  0  0
 27 30  1  0  0  0  0
 27 28  1  0  0  0  0
 27 26  1  0  0  0  0
 28 32  1  0  0  0  0
 28 26  1  0  0  0  0
 31 27  1  0  0  0  0
 33 28  1  0  0  0  0
 35 34  1  0  0  0  0
 36 35  1  0  0  0  0
 37 38  1  0  0  0  0
 37 36  1  0  0  0  0
 38 39  1  0  0  0  0
 39 35  1  0  0  0  0
M  END
>  <minimizedAffinity>
-5.59338236

$$$$

 OpenBabel03242523533D

 39 42  0  0  1  0  0  0  0  0999 V2000
   39.4030   31.6870   38.7720 C   0  0  1  0  0  0  0  0  0  0  0  0
   40.4320   31.2900   39.8320 C   0  0  1  0  0  0  0  0  0  0  0  0
   40.0200   31.7940   41.0810 O   0  0  0  0  0  0  0  0  0  0  0  0
   39.3640   33.0170   40.9870 C   0  0  0  0  0  0  0  0  0  0  0  0
   37.9940   32.8430   40.3290 C   0  0  2  0  0  0  0  0  0  0  0  0
   38.0610   31.5830   39.4740 C   0  0  1  0  0  0  0  0  0  0  0  0
   39.4580   31.0260   37.8890 H   0  0  0  0  0  0  0  0  0  0  0  0
   41.4450   31.6530   39.6060 H   0  0  0  0  0  0  0  0  0  0  0  0
   39.1500   33.3140   42.0260 H   0  0  0  0  0  0  0  0  0  0  0  0
   39.9660   33.8090   40.5220 H   0  0  0  0  0  0  0  0  0  0  0  0
   37.1740   32.8280   41.0540 H   0  0  0  0  0  0  0  0  0  0  0  0
   38.1100   30.6670   40.1070 H   0  0  0  0  0  0  0  0  0  0  0  0
   39.6260   33.0000   38.3560 O   0  0  0  0  0  0  0  0  0  0  0  0
   39.1550   33.1920   37.5320 H   0  0  0  0  0  0  0  0  0  0  0  0
   37.8570   33.8980   39.4020 O   0  0  0  0  0  0  0  0  0  0  0  0
   36.9010   34.1230   39.2620 H   0  0  0  0  0  0  0  0  0  0  0  0
   40.3320   29.8980   39.9610 O   0  0  0  0  0  0  0  0  0  0  0  0
   40.4600   29.2140   41.1040 C   0  0  0  0  0  0  0  0  0  0  0  0
   39.3460   28.6330   41.7060 C   0  0  0  0  0  0  0  0  0  0  0  0
   39.5180   27.9330   42.8890 C   0  0  0  0  0  0  0  0  0  0  0  0
   40.7870   27.8260   43.4430 N   0  0  0  0  0  0  0  0  0  0  0  0
   41.8320   28.4010   42.8320 C   0  0  0  0  0  0  0  0  0  0  0  0
   41.6830   29.0920   41.6720 N   0  0  0  0  0  0  0  0  0  0  0  0
   38.3540   28.7170   41.2720 H   0  0  0  0  0  0  0  0  0  0  0  0
   42.7960   28.2830   43.3140 H   0  0  0  0  0  0  0  0  0  0  0  0
   38.3430   27.2990   43.5900 C   0  0  0  0  0  0  0  0  0  0  0  0
   37.0700   28.1080   43.6800 C   0  0  0  0  0  0  0  0  0  0  0  0
   37.2150   26.8430   42.8230 C   0  0  0  0  0  0  0  0  0  0  0  0
   38.6540   26.7440   44.5090 H   0  0  0  0  0  0  0  0  0  0  0  0
   36.5240   28.0160   44.6300 H   0  0  0  0  0  0  0  0  0  0  0  0
   37.0420   29.0870   43.1930 H   0  0  0  0  0  0  0  0  0  0  0  0
   36.6360   25.9550   43.1260 H   0  0  0  0  0  0  0  0  0  0  0  0
   37.1380   27.0700   41.7360 H   0  0  0  0  0  0  0  0  0  0  0  0
   36.9910   31.5250   38.6030 O   0  0  0  0  0  0  0  0  0  0  0  0
   36.2190   30.3920   38.8530 C   0  0  0  0  0  3  0  0  0  0  0  0
   36.9720   29.1060   38.6270 C   0  0  0  0  0  2  0  0  0  0  0  0
   36.1240   28.0820   39.3350 C   0  0  0  0  0  2  0  0  0  0  0  0
   35.2600   28.8570   40.3300 C   0  0  0  0  0  2  0  0  0  0  0  0
   35.8580   30.2670   40.3330 C   0  0  0  0  0  2  0  0  0  0  0  0
  1  7  1  6  0  0  0
  1  6  1  0  0  0  0
  1  2  1  0  0  0  0
  2  8  1  6  0  0  0
  2 17  1  0  0  0  0
  2  3  1  0  0  0  0
  4  3  1  0  0  0  0
  4  9  1  0  0  0  0
  5  4  1  0  0  0  0
  5 11  1  1  0  0  0
  6 12  1  1  0  0  0
  6  5  1  0  0  0  0
 10  4  1  0  0  0  0
 13  1  1  0  0  0  0
 14 13  1  0  0  0  0
 15  5  1  0  0  0  0
 16 15  1  0  0  0  0
 17 18  1  0  0  0  0
 18 23  2  0  0  0  0
 18 19  1  0  0  0  0
 19 20  2  0  0  0  0
 20 21  1  0  0  0  0
 20 26  1  0  0  0  0
 22 25  1  0  0  0  0
 22 21  2  0  0  0  0
 23 22  1  0  0  0  0
 24 19  1  0  0  0  0
 26 27  1  0  0  0  0
 26 29  1  0  0  0  0
 27 30  1  0  0  0  0
 28 32  1  0  0  0  0
 28 26  1  0  0  0  0
 28 27  1  0  0  0  0
 31 27  1  0  0  0  0
 33 28  1  0  0  0  0
 34 35  1  0  0  0  0
 34  6  1  0  0  0  0
 35 39  1  0  0  0  0
 36 35  1  0  0  0  0
 36 37  1  0  0  0  0
 37 38  1  0  0  0  0
 38 39  1  0  0  0  0
M  END
>  <minimizedAffinity>
-5.56815577

$$$$

 OpenBabel03242523533D

 39 42  0  0  1  0  0  0  0  0999 V2000
   36.7700   30.0730   41.3260 C   0  0  1  0  0  0  0  0  0  0  0  0
   36.3960   28.9510   40.3560 C   0  0  1  0  0  0  0  0  0  0  0  0
   36.6150   29.3950   39.0370 O   0  0  0  0  0  0  0  0  0  0  0  0
   36.3550   30.7510   38.8680 C   0  0  0  0  0  0  0  0  0  0  0  0
   37.4100   31.5940   39.5870 C   0  0  2  0  0  0  0  0  0  0  0  0
   37.9880   30.7350   40.7050 C   0  0  1  0  0  0  0  0  0  0  0  0
   36.9850   29.6790   42.3350 H   0  0  0  0  0  0  0  0  0  0  0  0
   35.3540   28.6180   40.4640 H   0  0  0  0  0  0  0  0  0  0  0  0
   36.5120   30.9450   37.7950 H   0  0  0  0  0  0  0  0  0  0  0  0
   35.3270   31.0420   39.1210 H   0  0  0  0  0  0  0  0  0  0  0  0
   38.1730   31.9870   38.9090 H   0  0  0  0  0  0  0  0  0  0  0  0
   38.6170   29.9110   40.2980 H   0  0  0  0  0  0  0  0  0  0  0  0
   35.7240   30.9900   41.4240 O   0  0  0  0  0  0  0  0  0  0  0  0
   35.8310   31.5660   42.1950 H   0  0  0  0  0  0  0  0  0  0  0  0
   36.7130   32.6260   40.2520 O   0  0  0  0  0  0  0  0  0  0  0  0
   37.2900   33.4250   40.3630 H   0  0  0  0  0  0  0  0  0  0  0  0
   37.3490   27.9410   40.5520 O   0  0  0  0  0  0  0  0  0  0  0  0
   37.0770   26.6420   40.7220 C   0  0  0  0  0  0  0  0  0  0  0  0
   36.6340   25.8680   39.6520 C   0  0  0  0  0  0  0  0  0  0  0  0
   36.3640   24.5270   39.8670 C   0  0  0  0  0  0  0  0  0  0  0  0
   36.5400   23.9870   41.1340 N   0  0  0  0  0  0  0  0  0  0  0  0
   36.9670   24.7680   42.1370 C   0  0  0  0  0  0  0  0  0  0  0  0
   37.2370   26.0850   41.9460 N   0  0  0  0  0  0  0  0  0  0  0  0
   36.4970   26.2910   38.6610 H   0  0  0  0  0  0  0  0  0  0  0  0
   37.0840   24.2880   43.1030 H   0  0  0  0  0  0  0  0  0  0  0  0
   35.8660   23.6490   38.7460 C   0  0  0  0  0  0  0  0  0  0  0  0
   34.8410   22.5950   39.0950 C   0  0  0  0  0  0  0  0  0  0  0  0
   34.5340   23.8290   38.2360 C   0  0  0  0  0  0  0  0  0  0  0  0
   36.6910   23.3420   38.0570 H   0  0  0  0  0  0  0  0  0  0  0  0
   34.9640   21.6340   38.5740 H   0  0  0  0  0  0  0  0  0  0  0  0
   34.4720   22.5500   40.1240 H   0  0  0  0  0  0  0  0  0  0  0  0
   34.3000   23.6630   37.1720 H   0  0  0  0  0  0  0  0  0  0  0  0
   33.8200   24.5170   38.7430 H   0  0  0  0  0  0  0  0  0  0  0  0
   38.7040   31.5090   41.5970 O   0  0  0  0  0  0  0  0  0  0  0  0
   40.0720   31.3180   41.4200 C   0  0  0  0  0  3  0  0  0  0  0  0
   40.7790   32.5560   40.9310 C   0  0  0  0  0  2  0  0  0  0  0  0
   42.2300   32.2570   41.2110 C   0  0  0  0  0  2  0  0  0  0  0  0
   42.2410   31.1560   42.2720 C   0  0  0  0  0  2  0  0  0  0  0  0
   40.7880   31.0730   42.7470 C   0  0  0  0  0  2  0  0  0  0  0  0
  1 13  1  0  0  0  0
  1  7  1  1  0  0  0
  2  8  1  1  0  0  0
  2 17  1  0  0  0  0
  2  1  1  0  0  0  0
  3  2  1  0  0  0  0
  4  3  1  0  0  0  0
  4 10  1  0  0  0  0
  4  5  1  0  0  0  0
  5 11  1  6  0  0  0
  5 15  1  0  0  0  0
  5  6  1  0  0  0  0
  6 12  1  6  0  0  0
  6  1  1  0  0  0  0
  6 34  1  0  0  0  0
  9  4  1  0  0  0  0
 13 14  1  0  0  0  0
 15 16  1  0  0  0  0
 17 18  1  0  0  0  0
 18 23  1  0  0  0  0
 19 20  1  0  0  0  0
 19 18  2  0  0  0  0
 20 21  2  0  0  0  0
 21 22  1  0  0  0  0
 22 25  1  0  0  0  0
 23 22  2  0  0  0  0
 24 19  1  0  0  0  0
 26 27  1  0  0  0  0
 26 20  1  0  0  0  0
 27 31  1  0  0  0  0
 28 33  1  0  0  0  0
 28 26  1  0  0  0  0
 28 27  1  0  0  0  0
 29 26  1  0  0  0  0
 30 27  1  0  0  0  0
 32 28  1  0  0  0  0
 35 34  1  0  0  0  0
 35 39  1  0  0  0  0
 36 37  1  0  0  0  0
 36 35  1  0  0  0  0
 37 38  1  0  0  0  0
 38 39  1  0  0  0  0
M  END
>  <minimizedAffinity>
-5.56514597

$$$$

 OpenBabel03242523533D

 39 42  0  0  1  0  0  0  0  0999 V2000
   38.5910   30.5240   39.6560 C   0  0  1  0  0  0  0  0  0  0  0  0
   38.0030   31.0220   40.9780 C   0  0  1  0  0  0  0  0  0  0  0  0
   37.1090   32.0770   40.7110 O   0  0  0  0  0  0  0  0  0  0  0  0
   37.5000   32.8660   39.6340 C   0  0  0  0  0  0  0  0  0  0  0  0
   37.3610   32.0910   38.3220 C   0  0  2  0  0  0  0  0  0  0  0  0
   37.4450   30.6080   38.6640 C   0  0  1  0  0  0  0  0  0  0  0  0
   38.9800   29.4950   39.7500 H   0  0  0  0  0  0  0  0  0  0  0  0
   38.7700   31.3620   41.6900 H   0  0  0  0  0  0  0  0  0  0  0  0
   36.7500   33.6710   39.5750 H   0  0  0  0  0  0  0  0  0  0  0  0
   38.4890   33.3280   39.7580 H   0  0  0  0  0  0  0  0  0  0  0  0
   36.4550   32.3550   37.7680 H   0  0  0  0  0  0  0  0  0  0  0  0
   36.5350   30.2670   39.2090 H   0  0  0  0  0  0  0  0  0  0  0  0
   39.6360   31.3560   39.2530 O   0  0  0  0  0  0  0  0  0  0  0  0
   40.1730   30.9370   38.5640 H   0  0  0  0  0  0  0  0  0  0  0  0
   38.5310   32.3530   37.5770 O   0  0  0  0  0  0  0  0  0  0  0  0
   38.3530   32.2730   36.6040 H   0  0  0  0  0  0  0  0  0  0  0  0
   37.1930   29.9820   41.4530 O   0  0  0  0  0  0  0  0  0  0  0  0
   37.6350   28.8420   41.9960 C   0  0  0  0  0  0  0  0  0  0  0  0
   37.0130   27.6320   41.6990 C   0  0  0  0  0  0  0  0  0  0  0  0
   37.5000   26.4720   42.2790 C   0  0  0  0  0  0  0  0  0  0  0  0
   38.5890   26.5410   43.1380 N   0  0  0  0  0  0  0  0  0  0  0  0
   39.1580   27.7270   43.3980 C   0  0  0  0  0  0  0  0  0  0  0  0
   38.6940   28.8740   42.8380 N   0  0  0  0  0  0  0  0  0  0  0  0
   36.1610   27.5780   41.0270 H   0  0  0  0  0  0  0  0  0  0  0  0
   40.0040   27.7150   44.0770 H   0  0  0  0  0  0  0  0  0  0  0  0
   36.8520   25.1380   42.0040 C   0  0  0  0  0  0  0  0  0  0  0  0
   36.8800   24.6350   40.5790 C   0  0  0  0  0  0  0  0  0  0  0  0
   37.6730   23.9910   41.7240 C   0  0  0  0  0  0  0  0  0  0  0  0
   35.8930   25.0150   42.5640 H   0  0  0  0  0  0  0  0  0  0  0  0
   35.9650   24.1240   40.2460 H   0  0  0  0  0  0  0  0  0  0  0  0
   37.4070   25.2310   39.8290 H   0  0  0  0  0  0  0  0  0  0  0  0
   37.3730   22.9800   42.0440 H   0  0  0  0  0  0  0  0  0  0  0  0
   38.7720   24.1000   41.5780 H   0  0  0  0  0  0  0  0  0  0  0  0
   37.6510   29.8550   37.5250 O   0  0  0  0  0  0  0  0  0  0  0  0
   36.6230   28.9290   37.3600 C   0  0  0  0  0  3  0  0  0  0  0  0
   36.9550   27.5740   37.9290 C   0  0  0  0  0  2  0  0  0  0  0  0
   35.6100   26.8990   38.0180 C   0  0  0  0  0  2  0  0  0  0  0  0
   34.5690   28.0190   38.0010 C   0  0  0  0  0  2  0  0  0  0  0  0
   35.3880   29.3000   38.1800 C   0  0  0  0  0  2  0  0  0  0  0  0
  1  7  1  1  0  0  0
  1  2  1  0  0  0  0
  2 17  1  0  0  0  0
  2  8  1  1  0  0  0
  3  2  1  0  0  0  0
  4 10  1  0  0  0  0
  4  3  1  0  0  0  0
  5 11  1  6  0  0  0
  5  6  1  0  0  0  0
  5  4  1  0  0  0  0
  6 12  1  1  0  0  0
  6  1  1  0  0  0  0
  9  4  1  0  0  0  0
 13  1  1  0  0  0  0
 14 13  1  0  0  0  0
 15  5  1  0  0  0  0
 16 15  1  0  0  0  0
 17 18  1  0  0  0  0
 18 23  1  0  0  0  0
 19 18  2  0  0  0  0
 19 20  1  0  0  0  0
 20 21  2  0  0  0  0
 21 22  1  0  0  0  0
 22 25  1  0  0  0  0
 23 22  2  0  0  0  0
 24 19  1  0  0  0  0
 26 20  1  0  0  0  0
 26 29  1  0  0  0  0
 27 28  1  0  0  0  0
 27 26  1  0  0  0  0
 28 26  1  0  0  0  0
 28 32  1  0  0  0  0
 30 27  1  0  0  0  0
 31 27  1  0  0  0  0
 33 28  1  0  0  0  0
 34  6  1  0  0  0  0
 35 34  1  0  0  0  0
 35 36  1  0  0  0  0
 35 39  1  0  0  0  0
 36 37  1  0  0  0  0
 38 37  1  0  0  0  0
 38 39  1  0  0  0  0
M  END
>  <minimizedAffinity>
-5.5363431

$$$$

 OpenBabel03242523533D

 39 42  0  0  1  0  0  0  0  0999 V2000
   35.9250   28.9020   40.3110 C   0  0  1  0  0  0  0  0  0  0  0  0
   36.5460   29.6100   39.1050 C   0  0  1  0  0  0  0  0  0  0  0  0
   37.8070   30.1190   39.4730 O   0  0  0  0  0  0  0  0  0  0  0  0
   37.8600   30.5450   40.7960 C   0  0  0  0  0  0  0  0  0  0  0  0
   37.7910   29.3500   41.7490 C   0  0  2  0  0  0  0  0  0  0  0  0
   37.0910   28.2190   41.0040 C   0  0  1  0  0  0  0  0  0  0  0  0
   35.1510   28.1790   40.0000 H   0  0  0  0  0  0  0  0  0  0  0  0
   35.9200   30.4270   38.7170 H   0  0  0  0  0  0  0  0  0  0  0  0
   38.8710   30.9620   40.9270 H   0  0  0  0  0  0  0  0  0  0  0  0
   37.1320   31.3310   41.0390 H   0  0  0  0  0  0  0  0  0  0  0  0
   38.7710   29.0650   42.1420 H   0  0  0  0  0  0  0  0  0  0  0  0
   37.7380   27.8080   40.1950 H   0  0  0  0  0  0  0  0  0  0  0  0
   35.3400   29.8360   41.1660 O   0  0  0  0  0  0  0  0  0  0  0  0
   34.7430   29.4080   41.7980 H   0  0  0  0  0  0  0  0  0  0  0  0
   36.8940   29.7090   42.7780 O   0  0  0  0  0  0  0  0  0  0  0  0
   37.1090   29.2260   43.6170 H   0  0  0  0  0  0  0  0  0  0  0  0
   36.8270   28.6030   38.1720 O   0  0  0  0  0  0  0  0  0  0  0  0
   36.5700   28.6680   36.8610 C   0  0  0  0  0  0  0  0  0  0  0  0
   36.7100   29.8720   36.1730 C   0  0  0  0  0  0  0  0  0  0  0  0
   36.4360   29.8990   34.8160 C   0  0  0  0  0  0  0  0  0  0  0  0
   36.0310   28.7350   34.1760 N   0  0  0  0  0  0  0  0  0  0  0  0
   35.9070   27.5980   34.8750 C   0  0  0  0  0  0  0  0  0  0  0  0
   36.1710   27.5520   36.2060 N   0  0  0  0  0  0  0  0  0  0  0  0
   37.0280   30.7810   36.6750 H   0  0  0  0  0  0  0  0  0  0  0  0
   35.5860   26.7250   34.3180 H   0  0  0  0  0  0  0  0  0  0  0  0
   36.5560   31.1790   34.0280 C   0  0  0  0  0  0  0  0  0  0  0  0
   36.6430   31.0620   32.5240 C   0  0  0  0  0  0  0  0  0  0  0  0
   35.4350   31.6540   33.2630 C   0  0  0  0  0  0  0  0  0  0  0  0
   37.2470   31.9090   34.5180 H   0  0  0  0  0  0  0  0  0  0  0  0
   37.3360   31.7660   32.0400 H   0  0  0  0  0  0  0  0  0  0  0  0
   36.5650   30.0670   32.0760 H   0  0  0  0  0  0  0  0  0  0  0  0
   35.2420   32.7320   33.1370 H   0  0  0  0  0  0  0  0  0  0  0  0
   34.5250   31.0250   33.1370 H   0  0  0  0  0  0  0  0  0  0  0  0
   36.7020   27.2240   41.8790 O   0  0  0  0  0  0  0  0  0  0  0  0
   37.5520   26.1250   41.7780 C   0  0  0  0  0  3  0  0  0  0  0  0
   36.8740   24.8250   42.1270 C   0  0  0  0  0  2  0  0  0  0  0  0
   37.8090   23.7870   41.5600 C   0  0  0  0  0  2  0  0  0  0  0  0
   38.6560   24.5040   40.5090 C   0  0  0  0  0  2  0  0  0  0  0  0
   37.9700   25.8620   40.3320 C   0  0  0  0  0  2  0  0  0  0  0  0
  1  7  1  6  0  0  0
  1  6  1  0  0  0  0
  1 13  1  0  0  0  0
  2  8  1  6  0  0  0
  2  3  1  0  0  0  0
  2  1  1  0  0  0  0
  3  4  1  0  0  0  0
  4  9  1  0  0  0  0
  4 10  1  0  0  0  0
  4  5  1  0  0  0  0
  5 11  1  1  0  0  0
  5 15  1  0  0  0  0
  6 12  1  6  0  0  0
  6  5  1  0  0  0  0
  6 34  1  0  0  0  0
 13 14  1  0  0  0  0
 15 16  1  0  0  0  0
 17  2  1  0  0  0  0
 18 17  1  0  0  0  0
 19 24  1  0  0  0  0
 19 18  2  0  0  0  0
 20 19  1  0  0  0  0
 21 20  2  0  0  0  0
 21 22  1  0  0  0  0
 22 23  2  0  0  0  0
 23 18  1  0  0  0  0
 25 22  1  0  0  0  0
 26 29  1  0  0  0  0
 26 20  1  0  0  0  0
 27 28  1  0  0  0  0
 27 26  1  0  0  0  0
 28 26  1  0  0  0  0
 30 27  1  0  0  0  0
 31 27  1  0  0  0  0
 32 28  1  0  0  0  0
 33 28  1  0  0  0  0
 35 34  1  0  0  0  0
 35 36  1  0  0  0  0
 37 36  1  0  0  0  0
 38 37  1  0  0  0  0
 39 38  1  0  0  0  0
 39 35  1  0  0  0  0
M  END
>  <minimizedAffinity>
-5.50612068

$$$$
