
 OpenBabel03242519413D

 25 27  0  0  1  0  0  0  0  0999 V2000
   48.0590   32.9350   41.8010 O   0  0  0  0  0  0  0  0  0  0  0  0
   47.1770   34.0850   41.2920 P   0  0  2  0  0  0  0  0  0  0  0  0
   45.5880   33.8720   41.8910 O   0  0  0  0  0  0  0  0  0  0  0  0
   44.3920   35.9120   44.6630 C   0  0  0  0  0  0  0  0  0  0  0  0
   44.6800   35.4840   43.3470 C   0  0  0  0  0  0  0  0  0  0  0  0
   45.3240   34.2540   43.1870 C   0  0  0  0  0  0  0  0  0  0  0  0
   45.6400   33.5370   44.2900 N   0  0  0  0  0  0  0  0  0  0  0  0
   45.3540   33.9720   45.5380 C   0  0  0  0  0  0  0  0  0  0  0  0
   44.7390   35.1410   45.7380 N   0  0  0  0  0  0  0  0  0  0  0  0
   43.8950   36.8600   44.8050 H   0  0  0  0  0  0  0  0  0  0  0  0
   44.3660   36.1650   42.5550 H   0  0  0  0  0  0  0  0  0  0  0  0
   45.6790   33.2720   46.2870 H   0  0  0  0  0  0  0  0  0  0  0  0
   47.1430   34.0520   39.6290 O   0  0  0  0  0  0  0  0  0  0  0  0
   46.6990   33.0640   38.7930 C   0  0  1  0  0  3  0  0  0  0  0  0
   46.0850   33.4220   37.6740 O   0  0  0  0  0  0  0  0  0  0  0  0
   46.4380   31.7170   38.2800 C   0  0  0  0  0  0  0  0  0  0  0  0
   47.2120   31.3990   37.0230 C   0  0  0  0  0  2  0  0  0  0  0  0
   48.5560   30.9630   37.5320 C   0  0  0  0  0  2  0  0  0  0  0  0
   48.4520   30.7810   38.9990 C   0  0  0  0  0  2  0  0  0  0  0  0
   46.9960   30.7050   39.2980 C   0  0  0  0  0  2  0  0  0  0  0  0
   47.7940   35.4850   41.9080 O   0  0  0  0  0  0  0  0  0  0  0  0
   49.0490   35.7940   41.4090 C   0  0  0  0  0  0  0  0  0  0  0  0
   49.4800   37.0630   41.7790 F   0  0  0  0  0  0  0  0  0  0  0  0
   49.9400   34.8250   41.7470 F   0  0  0  0  0  0  0  0  0  0  0  0
   48.9230   35.8270   40.0290 F   0  0  0  0  0  0  0  0  0  0  0  0
  2  1  2  1  0  0  0
  2  3  1  0  0  0  0
  2 21  1  0  0  0  0
  3  6  1  0  0  0  0
  4 10  1  0  0  0  0
  4  9  1  0  0  0  0
  5  4  2  0  0  0  0
  6  5  1  0  0  0  0
  6  7  2  0  0  0  0
  7  8  1  0  0  0  0
  8  9  2  0  0  0  0
  8 12  1  0  0  0  0
 11  5  1  0  0  0  0
 13  2  1  0  0  0  0
 14 13  1  6  0  0  0
 15 16  1  0  0  0  0
 15 14  1  0  0  0  0
 16 14  1  0  0  0  0
 16 20  1  0  0  0  0
 17 18  1  0  0  0  0
 17 16  1  0  0  0  0
 18 19  1  0  0  0  0
 19 20  1  0  0  0  0
 22 24  1  0  0  0  0
 22 23  1  0  0  0  0
 22 21  1  0  0  0  0
 25 22  1  0  0  0  0
M  END
>  <minimizedAffinity>
-4.83395767

>  <minimizedRMSD>
0.881842434

$$$$
