
 OpenBabel03252505433D

 38 41  0  0  1  0  0  0  0  0999 V2000
   43.9620   34.6600   42.3690 C   0  0  1  0  0  0  0  0  0  0  0  0
   44.1580   36.1460   41.9210 C   0  0  0  0  0  0  0  0  0  0  0  0
   44.0010   34.9650   40.9680 C   0  0  2  0  0  0  0  0  0  0  0  0
   42.9760   34.5480   42.9020 H   0  0  0  0  0  0  0  0  0  0  0  0
   45.1420   36.5770   42.1000 H   0  0  0  0  0  0  0  0  0  0  0  0
   43.3100   36.8230   41.9990 H   0  0  0  0  0  0  0  0  0  0  0  0
   44.8970   34.8640   40.3320 H   0  0  0  0  0  0  0  0  0  0  0  0
   45.1010   34.1090   43.1260 C   0  0  0  0  0  0  0  0  0  0  0  0
   46.3400   34.0090   42.4700 C   0  0  0  0  0  0  0  0  0  0  0  0
   47.4260   33.4940   43.1700 C   0  0  0  0  0  0  0  0  0  0  0  0
   47.2330   33.1130   44.4570 N   0  0  0  0  0  0  0  0  0  0  0  0
   46.0450   33.2200   45.0520 C   0  0  0  0  0  0  0  0  0  0  0  0
   45.0130   33.7160   44.3660 N   0  0  0  0  0  0  0  0  0  0  0  0
   46.5180   34.3080   41.4440 H   0  0  0  0  0  0  0  0  0  0  0  0
   48.4110   33.3990   42.6950 H   0  0  0  0  0  0  0  0  0  0  0  0
   46.0350   32.7490   46.4790 C   0  0  0  0  0  0  0  0  0  0  0  0
   45.0640   33.4040   47.2220 F   0  0  0  0  0  0  0  0  0  0  0  0
   47.2720   33.0880   47.0750 F   0  0  0  0  0  0  0  0  0  0  0  0
   45.9500   31.3850   46.5220 F   0  0  0  0  0  0  0  0  0  0  0  0
   42.6680   34.8420   40.2620 C   0  0  0  0  0  0  0  0  0  0  0  0
   42.5260   35.2020   38.9450 C   0  0  0  0  0  0  0  0  0  0  0  0
   41.3310   35.0750   38.2670 C   0  0  0  0  0  0  0  0  0  0  0  0
   40.2780   34.5780   38.9370 N   0  0  0  0  0  0  0  0  0  0  0  0
   40.4040   34.2150   40.2440 C   0  0  0  0  0  0  0  0  0  0  0  0
   41.5770   34.3400   40.9130 N   0  0  0  0  0  0  0  0  0  0  0  0
   43.3970   35.5970   38.4420 H   0  0  0  0  0  0  0  0  0  0  0  0
   41.2270   35.3610   37.2270 H   0  0  0  0  0  0  0  0  0  0  0  0
   39.2750   33.6420   41.0390 C   0  0  0  0  0  0  0  0  0  0  0  0
   38.7200   34.4550   41.5020 H   0  0  0  0  0  0  0  0  0  0  0  0
   39.6880   32.9870   41.8320 H   0  0  0  0  0  0  0  0  0  0  0  0
   38.4390   32.7460   40.1600 C   0  0  0  0  0  0  0  0  0  0  0  0
   37.4550   33.2410   40.0220 H   0  0  0  0  0  0  0  0  0  0  0  0
   38.9150   32.6590   39.1840 H   0  0  0  0  0  0  0  0  0  0  0  0
   38.1680   31.3980   40.7640 C   0  0  0  0  0  3  0  0  0  0  0  0
   39.3070   30.9110   41.5980 C   0  0  0  0  0  2  0  0  0  0  0  0
   40.0570   29.8710   40.8280 C   0  0  0  0  0  2  0  0  0  0  0  0
   39.1820   29.4840   39.6690 C   0  0  0  0  0  2  0  0  0  0  0  0
   37.9270   30.3180   39.7530 C   0  0  0  0  0  2  0  0  0  0  0  0
  1  4  1  1  0  0  0
  1  8  1  0  0  0  0
  2  6  1  0  0  0  0
  2  5  1  0  0  0  0
  2  1  1  0  0  0  0
  3  7  1  6  0  0  0
  3  2  1  0  0  0  0
  3  1  1  0  0  0  0
  8 13  1  0  0  0  0
  9  8  2  0  0  0  0
  9 10  1  0  0  0  0
 10 11  2  0  0  0  0
 11 12  1  0  0  0  0
 12 16  1  0  0  0  0
 13 12  2  0  0  0  0
 14  9  1  0  0  0  0
 15 10  1  0  0  0  0
 16 19  1  0  0  0  0
 16 18  1  0  0  0  0
 16 17  1  0  0  0  0
 20 25  1  0  0  0  0
 20  3  1  0  0  0  0
 21 20  2  0  0  0  0
 22 23  2  0  0  0  0
 22 21  1  0  0  0  0
 23 24  1  0  0  0  0
 24 25  2  0  0  0  0
 24 28  1  0  0  0  0
 26 21  1  0  0  0  0
 27 22  1  0  0  0  0
 28 29  1  0  0  0  0
 28 30  1  0  0  0  0
 31 34  1  0  0  0  0
 31 28  1  0  0  0  0
 32 31  1  0  0  0  0
 33 31  1  0  0  0  0
 34 35  1  0  0  0  0
 36 35  1  0  0  0  0
 37 38  1  0  0  0  0
 37 36  1  0  0  0  0
 38 34  1  0  0  0  0
M  END
>  <minimizedAffinity>
-5.71775866

>  <minimizedRMSD>
0.988444924

$$$$
