
 OpenBabel03252505133D

 40 43  0  0  1  0  0  0  0  0999 V2000
   37.4470   32.5980   39.9750 C   0  0  0  0  0  0  0  0  0  0  0  0
   37.0910   31.4380   40.6960 C   0  0  0  0  0  0  0  0  0  0  0  0
   38.0990   30.4330   40.8780 C   0  0  0  0  0  0  0  0  0  0  0  0
   39.3380   30.6480   40.3520 N   0  0  0  0  0  0  0  0  0  0  0  0
   39.6230   31.7640   39.6780 C   0  0  0  0  0  0  0  0  0  0  0  0
   38.6920   32.7440   39.4830 N   0  0  0  0  0  0  0  0  0  0  0  0
   36.6450   33.3170   39.8710 H   0  0  0  0  0  0  0  0  0  0  0  0
   36.1320   31.2450   41.1170 H   0  0  0  0  0  0  0  0  0  0  0  0
   40.9830   31.9510   39.1190 C   0  0  2  0  0  0  0  0  0  0  0  0
   41.8020   32.5260   40.2510 C   0  0  0  0  0  0  0  0  0  0  0  0
   42.1080   33.9670   40.1690 C   0  0  0  0  0  0  0  0  0  0  0  0
   42.8140   34.1310   38.8150 C   0  0  0  0  0  0  0  0  0  0  0  0
   41.9300   33.8590   37.6880 C   0  0  0  0  0  0  0  0  0  0  0  0
   41.0010   32.7150   37.9070 C   0  0  0  0  0  0  0  0  0  0  0  0
   41.3480   30.9060   38.9080 H   0  0  0  0  0  0  0  0  0  0  0  0
   41.3630   32.2980   41.2500 H   0  0  0  0  0  0  0  0  0  0  0  0
   42.7770   31.9930   40.2540 H   0  0  0  0  0  0  0  0  0  0  0  0
   42.8960   34.1840   40.9120 H   0  0  0  0  0  0  0  0  0  0  0  0
   41.2780   34.6650   40.2970 H   0  0  0  0  0  0  0  0  0  0  0  0
   43.0460   35.2180   38.7700 H   0  0  0  0  0  0  0  0  0  0  0  0
   43.7110   33.5110   38.8190 H   0  0  0  0  0  0  0  0  0  0  0  0
   41.7810   34.2830   36.7360 H   0  0  0  0  0  0  0  0  0  0  0  0
   40.0680   32.3330   36.8890 N   0  0  0  0  0  0  0  0  0  0  0  0
   40.2660   31.5960   36.1700 H   0  0  0  0  0  0  0  0  0  0  0  0
   39.1110   32.5960   36.5950 H   0  0  0  0  0  0  0  0  0  0  0  0
   37.7640   29.2350   41.6180 C   0  0  0  0  0  0  0  0  0  0  0  0
   37.8380   29.2760   42.9840 C   0  0  0  0  0  0  0  0  0  0  0  0
   37.5020   28.0770   43.6450 C   0  0  0  0  0  0  0  0  0  0  0  0
   37.1400   27.0050   42.8580 C   0  0  0  0  0  0  0  0  0  0  0  0
   37.0690   26.9690   41.5060 C   0  0  0  0  0  0  0  0  0  0  0  0
   37.4000   28.1440   40.8950 N   0  0  0  0  0  0  0  0  0  0  0  0
   38.1290   30.1510   43.5270 H   0  0  0  0  0  0  0  0  0  0  0  0
   37.5550   28.0940   44.7140 H   0  0  0  0  0  0  0  0  0  0  0  0
   36.9060   26.1490   43.4750 H   0  0  0  0  0  0  0  0  0  0  0  0
   36.6990   25.8580   40.7890 O   0  0  0  0  0  0  0  0  0  0  0  0
   37.1830   24.5580   40.9710 C   0  0  0  0  0  3  0  0  0  0  0  0
   36.4780   23.5880   40.0330 C   0  0  0  0  0  2  0  0  0  0  0  0
   37.4460   22.4090   40.0720 C   0  0  0  0  0  2  0  0  0  0  0  0
   38.7880   23.0900   39.9070 C   0  0  0  0  0  2  0  0  0  0  0  0
   38.5980   24.4940   40.4200 C   0  0  0  0  0  2  0  0  0  0  0  0
  1  2  1  0  0  0  0
  2  3  2  0  0  0  0
  2  8  1  0  0  0  0
  3 26  1  0  0  0  0
  4  3  1  0  0  0  0
  5  4  2  0  0  0  0
  6  5  1  0  0  0  0
  6  1  2  0  0  0  0
  7  1  1  0  0  0  0
  9 15  1  6  0  0  0
  9  5  1  0  0  0  0
  9 10  1  0  0  0  0
 10 17  1  0  0  0  0
 10 16  1  0  0  0  0
 11 10  1  0  0  0  0
 11 19  1  0  0  0  0
 11 18  1  0  0  0  0
 12 21  1  0  0  0  0
 12 11  1  0  0  0  0
 13 14  2  0  0  0  0
 13 12  1  0  0  0  0
 14  9  1  0  0  0  0
 20 12  1  0  0  0  0
 22 13  1  0  0  0  0
 23 14  1  0  0  0  0
 24 23  1  0  0  0  0
 25 23  1  0  0  0  0
 26 27  1  0  0  0  0
 27 32  1  0  0  0  0
 27 28  2  0  0  0  0
 28 33  1  0  0  0  0
 29 34  1  0  0  0  0
 29 28  1  0  0  0  0
 30 29  2  0  0  0  0
 31 30  1  0  0  0  0
 31 26  2  0  0  0  0
 35 36  1  0  0  0  0
 35 30  1  0  0  0  0
 37 38  1  0  0  0  0
 37 36  1  0  0  0  0
 39 38  1  0  0  0  0
 39 40  1  0  0  0  0
 40 36  1  0  0  0  0
M  END
>  <minimizedAffinity>
-6.43879938

$$$$

 OpenBabel03252505133D

 40 43  0  0  1  0  0  0  0  0999 V2000
   36.3340   31.2180   40.7970 C   0  0  0  0  0  0  0  0  0  0  0  0
   37.3410   32.0810   40.3130 C   0  0  0  0  0  0  0  0  0  0  0  0
   38.7060   31.6690   40.4770 C   0  0  0  0  0  0  0  0  0  0  0  0
   38.9590   30.4770   41.0870 N   0  0  0  0  0  0  0  0  0  0  0  0
   37.9700   29.6970   41.5280 C   0  0  0  0  0  0  0  0  0  0  0  0
   36.6580   30.0530   41.3900 N   0  0  0  0  0  0  0  0  0  0  0  0
   35.3270   31.5830   40.6430 H   0  0  0  0  0  0  0  0  0  0  0  0
   37.1700   33.0160   39.8330 H   0  0  0  0  0  0  0  0  0  0  0  0
   38.2940   28.4110   42.1900 C   0  0  2  0  0  0  0  0  0  0  0  0
   38.4550   27.4150   41.0650 C   0  0  0  0  0  0  0  0  0  0  0  0
   37.3420   26.4660   40.8710 C   0  0  0  0  0  0  0  0  0  0  0  0
   37.1920   25.7690   42.2320 C   0  0  0  0  0  0  0  0  0  0  0  0
   36.7450   26.6790   43.2780 C   0  0  0  0  0  0  0  0  0  0  0  0
   37.3510   28.0380   43.2020 C   0  0  0  0  0  0  0  0  0  0  0  0
   39.3020   28.5830   42.6620 H   0  0  0  0  0  0  0  0  0  0  0  0
   38.6940   27.9070   40.0940 H   0  0  0  0  0  0  0  0  0  0  0  0
   39.3570   26.8070   41.2920 H   0  0  0  0  0  0  0  0  0  0  0  0
   37.6990   25.6670   40.1970 H   0  0  0  0  0  0  0  0  0  0  0  0
   36.3980   26.8670   40.4980 H   0  0  0  0  0  0  0  0  0  0  0  0
   36.3580   25.0520   42.0690 H   0  0  0  0  0  0  0  0  0  0  0  0
   38.1340   25.2700   42.4670 H   0  0  0  0  0  0  0  0  0  0  0  0
   36.0800   26.6130   44.0920 H   0  0  0  0  0  0  0  0  0  0  0  0
   37.0020   29.0430   44.1620 N   0  0  0  0  0  0  0  0  0  0  0  0
   37.5470   29.2180   45.0410 H   0  0  0  0  0  0  0  0  0  0  0  0
   36.2670   29.7640   44.2770 H   0  0  0  0  0  0  0  0  0  0  0  0
   39.7590   32.5320   39.9850 C   0  0  0  0  0  0  0  0  0  0  0  0
   39.6160   33.8830   40.1430 C   0  0  0  0  0  0  0  0  0  0  0  0
   40.6740   34.6670   39.6400 C   0  0  0  0  0  0  0  0  0  0  0  0
   41.7260   34.0000   39.0510 C   0  0  0  0  0  0  0  0  0  0  0  0
   41.8630   32.6610   38.8960 C   0  0  0  0  0  0  0  0  0  0  0  0
   40.8240   31.9300   39.3930 N   0  0  0  0  0  0  0  0  0  0  0  0
   38.7640   34.3290   40.6140 H   0  0  0  0  0  0  0  0  0  0  0  0
   40.5760   35.7270   39.7570 H   0  0  0  0  0  0  0  0  0  0  0  0
   42.4710   34.7040   38.7070 H   0  0  0  0  0  0  0  0  0  0  0  0
   42.9460   32.0670   38.2950 O   0  0  0  0  0  0  0  0  0  0  0  0
   43.0240   31.6490   36.9620 C   0  0  0  0  0  3  0  0  0  0  0  0
   44.4510   31.2560   36.6080 C   0  0  0  0  0  2  0  0  0  0  0  0
   44.2080   30.4360   35.3440 C   0  0  0  0  0  2  0  0  0  0  0  0
   43.0490   29.5510   35.7520 C   0  0  0  0  0  2  0  0  0  0  0  0
   42.3290   30.3030   36.8430 C   0  0  0  0  0  2  0  0  0  0  0  0
  1  6  1  0  0  0  0
  2  3  1  0  0  0  0
  2  1  2  0  0  0  0
  3  4  2  0  0  0  0
  4  5  1  0  0  0  0
  5  9  1  0  0  0  0
  6  5  2  0  0  0  0
  7  1  1  0  0  0  0
  8  2  1  0  0  0  0
  9 15  1  1  0  0  0
  9 14  1  0  0  0  0
 10 17  1  0  0  0  0
 10  9  1  0  0  0  0
 11 10  1  0  0  0  0
 11 12  1  0  0  0  0
 12 21  1  0  0  0  0
 12 13  1  0  0  0  0
 13 22  1  0  0  0  0
 14 13  2  0  0  0  0
 14 23  1  0  0  0  0
 16 10  1  0  0  0  0
 18 11  1  0  0  0  0
 19 11  1  0  0  0  0
 20 12  1  0  0  0  0
 23 25  1  0  0  0  0
 23 24  1  0  0  0  0
 26 27  1  0  0  0  0
 26  3  1  0  0  0  0
 27 32  1  0  0  0  0
 28 33  1  0  0  0  0
 28 27  2  0  0  0  0
 29 28  1  0  0  0  0
 30 29  2  0  0  0  0
 30 31  1  0  0  0  0
 31 26  2  0  0  0  0
 34 29  1  0  0  0  0
 35 30  1  0  0  0  0
 36 35  1  0  0  0  0
 37 36  1  0  0  0  0
 38 39  1  0  0  0  0
 38 37  1  0  0  0  0
 39 40  1  0  0  0  0
 40 36  1  0  0  0  0
M  END
>  <minimizedAffinity>
-6.41660118

$$$$

 OpenBabel03252505133D

 40 43  0  0  1  0  0  0  0  0999 V2000
   38.6490   34.2050   40.0760 C   0  0  0  0  0  0  0  0  0  0  0  0
   37.7980   33.1240   40.3890 C   0  0  0  0  0  0  0  0  0  0  0  0
   38.3550   31.8020   40.3370 C   0  0  0  0  0  0  0  0  0  0  0  0
   39.6650   31.6600   39.9910 N   0  0  0  0  0  0  0  0  0  0  0  0
   40.4280   32.7160   39.7030 C   0  0  0  0  0  0  0  0  0  0  0  0
   39.9350   33.9900   39.7410 N   0  0  0  0  0  0  0  0  0  0  0  0
   38.1710   35.1750   40.1330 H   0  0  0  0  0  0  0  0  0  0  0  0
   36.7720   33.2080   40.6630 H   0  0  0  0  0  0  0  0  0  0  0  0
   41.8470   32.5110   39.3260 C   0  0  2  0  0  0  0  0  0  0  0  0
   42.6300   32.7220   40.6000 C   0  0  0  0  0  0  0  0  0  0  0  0
   43.3610   33.9990   40.7130 C   0  0  0  0  0  0  0  0  0  0  0  0
   44.2680   34.0310   39.4740 C   0  0  0  0  0  0  0  0  0  0  0  0
   43.5130   34.1270   38.2310 C   0  0  0  0  0  0  0  0  0  0  0  0
   42.2630   33.3160   38.2160 C   0  0  0  0  0  0  0  0  0  0  0  0
   41.9090   31.4220   39.0430 H   0  0  0  0  0  0  0  0  0  0  0  0
   42.0070   32.5720   41.5110 H   0  0  0  0  0  0  0  0  0  0  0  0
   43.3920   31.9140   40.6540 H   0  0  0  0  0  0  0  0  0  0  0  0
   44.0640   33.9080   41.5600 H   0  0  0  0  0  0  0  0  0  0  0  0
   42.7680   34.9090   40.8230 H   0  0  0  0  0  0  0  0  0  0  0  0
   44.8180   34.9920   39.5760 H   0  0  0  0  0  0  0  0  0  0  0  0
   44.9290   33.1640   39.5110 H   0  0  0  0  0  0  0  0  0  0  0  0
   43.6330   34.6420   37.3210 H   0  0  0  0  0  0  0  0  0  0  0  0
   41.4130   33.3150   37.0620 N   0  0  0  0  0  0  0  0  0  0  0  0
   41.4820   32.6050   36.2930 H   0  0  0  0  0  0  0  0  0  0  0  0
   40.6300   33.8820   36.6920 H   0  0  0  0  0  0  0  0  0  0  0  0
   37.5070   30.6750   40.6600 C   0  0  0  0  0  0  0  0  0  0  0  0
   36.2720   30.6050   40.0760 C   0  0  0  0  0  0  0  0  0  0  0  0
   35.4940   29.4850   40.4330 C   0  0  0  0  0  0  0  0  0  0  0  0
   36.0520   28.5900   41.3210 C   0  0  0  0  0  0  0  0  0  0  0  0
   37.2760   28.6630   41.8970 C   0  0  0  0  0  0  0  0  0  0  0  0
   38.0040   29.7580   41.5310 N   0  0  0  0  0  0  0  0  0  0  0  0
   35.9070   31.3440   39.3930 H   0  0  0  0  0  0  0  0  0  0  0  0
   34.5250   29.4170   39.9840 H   0  0  0  0  0  0  0  0  0  0  0  0
   35.3660   27.7780   41.5160 H   0  0  0  0  0  0  0  0  0  0  0  0
   37.7650   27.7280   42.7760 O   0  0  0  0  0  0  0  0  0  0  0  0
   38.8640   26.8880   42.5630 C   0  0  0  0  0  3  0  0  0  0  0  0
   39.6120   26.6460   43.8670 C   0  0  0  0  0  2  0  0  0  0  0  0
   40.4210   25.4060   43.4960 C   0  0  0  0  0  2  0  0  0  0  0  0
   39.3840   24.5370   42.8160 C   0  0  0  0  0  2  0  0  0  0  0  0
   38.3460   25.4890   42.2780 C   0  0  0  0  0  2  0  0  0  0  0  0
  1  7  1  0  0  0  0
  1  2  1  0  0  0  0
  2  8  1  0  0  0  0
  3  2  2  0  0  0  0
  3 26  1  0  0  0  0
  4  3  1  0  0  0  0
  5  6  1  0  0  0  0
  5  4  2  0  0  0  0
  6  1  2  0  0  0  0
  9 15  1  6  0  0  0
  9  5  1  0  0  0  0
  9 10  1  0  0  0  0
 10 17  1  0  0  0  0
 10 11  1  0  0  0  0
 10 16  1  0  0  0  0
 11 19  1  0  0  0  0
 11 18  1  0  0  0  0
 12 21  1  0  0  0  0
 12 20  1  0  0  0  0
 12 11  1  0  0  0  0
 13 12  1  0  0  0  0
 14 13  2  0  0  0  0
 14  9  1  0  0  0  0
 22 13  1  0  0  0  0
 23 14  1  0  0  0  0
 24 23  1  0  0  0  0
 25 23  1  0  0  0  0
 26 31  1  0  0  0  0
 27 28  1  0  0  0  0
 27 26  2  0  0  0  0
 28 29  2  0  0  0  0
 29 34  1  0  0  0  0
 29 30  1  0  0  0  0
 30 35  1  0  0  0  0
 31 30  2  0  0  0  0
 32 27  1  0  0  0  0
 33 28  1  0  0  0  0
 36 35  1  0  0  0  0
 36 37  1  0  0  0  0
 38 37  1  0  0  0  0
 39 38  1  0  0  0  0
 40 36  1  0  0  0  0
 40 39  1  0  0  0  0
M  END
>  <minimizedAffinity>
-6.37083244

$$$$

 OpenBabel03252505133D

 40 43  0  0  1  0  0  0  0  0999 V2000
   38.5000   29.2790   37.7760 C   0  0  0  0  0  0  0  0  0  0  0  0
   38.3440   28.5970   39.0020 C   0  0  0  0  0  0  0  0  0  0  0  0
   38.4030   29.3730   40.2080 C   0  0  0  0  0  0  0  0  0  0  0  0
   38.6050   30.7170   40.1080 N   0  0  0  0  0  0  0  0  0  0  0  0
   38.7480   31.3140   38.9230 C   0  0  0  0  0  0  0  0  0  0  0  0
   38.6970   30.6110   37.7530 N   0  0  0  0  0  0  0  0  0  0  0  0
   38.4460   28.6400   36.9040 H   0  0  0  0  0  0  0  0  0  0  0  0
   38.1850   27.5490   39.1060 H   0  0  0  0  0  0  0  0  0  0  0  0
   38.9710   32.7790   38.8660 C   0  0  2  0  0  0  0  0  0  0  0  0
   40.4720   32.9510   38.8590 C   0  0  0  0  0  0  0  0  0  0  0  0
   41.0820   33.4070   40.1220 C   0  0  0  0  0  0  0  0  0  0  0  0
   40.3590   34.7240   40.4440 C   0  0  0  0  0  0  0  0  0  0  0  0
   38.9470   34.5250   40.7470 C   0  0  0  0  0  0  0  0  0  0  0  0
   38.2810   33.5000   39.8940 C   0  0  0  0  0  0  0  0  0  0  0  0
   38.5700   33.0860   37.8600 H   0  0  0  0  0  0  0  0  0  0  0  0
   41.0020   32.0390   38.5010 H   0  0  0  0  0  0  0  0  0  0  0  0
   40.7090   33.7220   38.0940 H   0  0  0  0  0  0  0  0  0  0  0  0
   42.1190   33.7160   39.9000 H   0  0  0  0  0  0  0  0  0  0  0  0
   41.0790   32.7100   40.9630 H   0  0  0  0  0  0  0  0  0  0  0  0
   40.8330   35.0600   41.3910 H   0  0  0  0  0  0  0  0  0  0  0  0
   40.5300   35.4180   39.6200 H   0  0  0  0  0  0  0  0  0  0  0  0
   38.2660   34.9340   41.4370 H   0  0  0  0  0  0  0  0  0  0  0  0
   36.8940   33.1920   40.0800 N   0  0  0  0  0  0  0  0  0  0  0  0
   36.1220   33.6530   39.5410 H   0  0  0  0  0  0  0  0  0  0  0  0
   36.3270   32.5580   40.6710 H   0  0  0  0  0  0  0  0  0  0  0  0
   38.2400   28.7010   41.4790 C   0  0  0  0  0  0  0  0  0  0  0  0
   37.6940   29.4050   42.5180 C   0  0  0  0  0  0  0  0  0  0  0  0
   37.5650   28.6950   43.7290 C   0  0  0  0  0  0  0  0  0  0  0  0
   37.9940   27.3860   43.7390 C   0  0  0  0  0  0  0  0  0  0  0  0
   38.5340   26.6920   42.7080 C   0  0  0  0  0  0  0  0  0  0  0  0
   38.6470   27.4060   41.5500 N   0  0  0  0  0  0  0  0  0  0  0  0
   37.3840   30.4260   42.4310 H   0  0  0  0  0  0  0  0  0  0  0  0
   37.1390   29.2330   44.5500 H   0  0  0  0  0  0  0  0  0  0  0  0
   37.8440   26.9490   44.7160 H   0  0  0  0  0  0  0  0  0  0  0  0
   38.9410   25.3840   42.7950 O   0  0  0  0  0  0  0  0  0  0  0  0
   38.3730   24.2960   42.1230 C   0  0  0  0  0  3  0  0  0  0  0  0
   36.9500   24.6190   41.6900 C   0  0  0  0  0  2  0  0  0  0  0  0
   36.7290   23.5390   40.6340 C   0  0  0  0  0  2  0  0  0  0  0  0
   38.0100   23.6090   39.8300 C   0  0  0  0  0  2  0  0  0  0  0  0
   39.0510   24.1630   40.7700 C   0  0  0  0  0  2  0  0  0  0  0  0
  1  2  1  0  0  0  0
  2  8  1  0  0  0  0
  2  3  2  0  0  0  0
  3 26  1  0  0  0  0
  4  3  1  0  0  0  0
  5  4  2  0  0  0  0
  6  1  2  0  0  0  0
  6  5  1  0  0  0  0
  7  1  1  0  0  0  0
  9 15  1  6  0  0  0
  9  5  1  0  0  0  0
  9 14  1  0  0  0  0
 10  9  1  0  0  0  0
 10 11  1  0  0  0  0
 11 12  1  0  0  0  0
 11 19  1  0  0  0  0
 12 13  1  0  0  0  0
 12 20  1  0  0  0  0
 13 22  1  0  0  0  0
 14 23  1  0  0  0  0
 14 13  2  0  0  0  0
 16 10  1  0  0  0  0
 17 10  1  0  0  0  0
 18 11  1  0  0  0  0
 21 12  1  0  0  0  0
 23 25  1  0  0  0  0
 24 23  1  0  0  0  0
 26 31  2  0  0  0  0
 26 27  1  0  0  0  0
 27 28  2  0  0  0  0
 28 29  1  0  0  0  0
 28 33  1  0  0  0  0
 29 34  1  0  0  0  0
 30 35  1  0  0  0  0
 30 29  2  0  0  0  0
 31 30  1  0  0  0  0
 32 27  1  0  0  0  0
 36 35  1  0  0  0  0
 37 36  1  0  0  0  0
 38 37  1  0  0  0  0
 39 38  1  0  0  0  0
 39 40  1  0  0  0  0
 40 36  1  0  0  0  0
M  END
>  <minimizedAffinity>
-6.35163355

$$$$

 OpenBabel03252505133D

 40 43  0  0  1  0  0  0  0  0999 V2000
   41.0140   33.6300   40.2930 C   0  0  0  0  0  0  0  0  0  0  0  0
   41.4730   32.5710   41.1050 C   0  0  0  0  0  0  0  0  0  0  0  0
   40.6950   31.3650   41.1300 C   0  0  0  0  0  0  0  0  0  0  0  0
   39.5620   31.3040   40.3750 N   0  0  0  0  0  0  0  0  0  0  0  0
   39.1710   32.3350   39.6230 C   0  0  0  0  0  0  0  0  0  0  0  0
   39.8840   33.4990   39.5710 N   0  0  0  0  0  0  0  0  0  0  0  0
   41.6420   34.5100   40.3170 H   0  0  0  0  0  0  0  0  0  0  0  0
   42.3530   32.5930   41.7040 H   0  0  0  0  0  0  0  0  0  0  0  0
   37.9280   32.2240   38.8220 C   0  0  2  0  0  0  0  0  0  0  0  0
   36.9730   31.4280   39.6800 C   0  0  0  0  0  0  0  0  0  0  0  0
   36.7620   30.0210   39.2890 C   0  0  0  0  0  0  0  0  0  0  0  0
   36.2890   30.0960   37.8300 C   0  0  0  0  0  0  0  0  0  0  0  0
   37.3240   30.5940   36.9330 C   0  0  0  0  0  0  0  0  0  0  0  0
   38.1450   31.6990   37.5060 C   0  0  0  0  0  0  0  0  0  0  0  0
   37.5460   33.2800   38.7450 H   0  0  0  0  0  0  0  0  0  0  0  0
   37.2350   31.4760   40.7620 H   0  0  0  0  0  0  0  0  0  0  0  0
   35.9820   31.9280   39.6170 H   0  0  0  0  0  0  0  0  0  0  0  0
   35.8790   29.6510   39.8400 H   0  0  0  0  0  0  0  0  0  0  0  0
   37.5970   29.3310   39.4260 H   0  0  0  0  0  0  0  0  0  0  0  0
   36.1260   29.0320   37.5520 H   0  0  0  0  0  0  0  0  0  0  0  0
   35.3700   30.6830   37.7970 H   0  0  0  0  0  0  0  0  0  0  0  0
   37.6450   30.3590   35.9580 H   0  0  0  0  0  0  0  0  0  0  0  0
   39.2050   32.2860   36.7420 N   0  0  0  0  0  0  0  0  0  0  0  0
   39.0840   33.1400   36.1450 H   0  0  0  0  0  0  0  0  0  0  0  0
   40.2100   32.1050   36.5680 H   0  0  0  0  0  0  0  0  0  0  0  0
   41.1450   30.2610   41.9500 C   0  0  0  0  0  0  0  0  0  0  0  0
   42.2560   30.4430   42.7280 C   0  0  0  0  0  0  0  0  0  0  0  0
   42.6440   29.3290   43.5000 C   0  0  0  0  0  0  0  0  0  0  0  0
   41.8750   28.1900   43.3910 C   0  0  0  0  0  0  0  0  0  0  0  0
   40.7760   28.0140   42.6190 C   0  0  0  0  0  0  0  0  0  0  0  0
   40.4250   29.1100   41.8850 N   0  0  0  0  0  0  0  0  0  0  0  0
   42.8030   31.3620   42.7570 H   0  0  0  0  0  0  0  0  0  0  0  0
   43.5120   29.4570   44.1140 H   0  0  0  0  0  0  0  0  0  0  0  0
   42.2690   27.4090   44.0270 H   0  0  0  0  0  0  0  0  0  0  0  0
   40.0590   26.8450   42.5640 O   0  0  0  0  0  0  0  0  0  0  0  0
   38.7140   26.6820   42.9150 C   0  0  0  0  0  3  0  0  0  0  0  0
   38.2730   27.7850   43.8670 C   0  0  0  0  0  2  0  0  0  0  0  0
   36.7570   27.6790   43.7320 C   0  0  0  0  0  2  0  0  0  0  0  0
   36.5730   27.5850   42.2330 C   0  0  0  0  0  2  0  0  0  0  0  0
   37.8610   27.0090   41.7010 C   0  0  0  0  0  2  0  0  0  0  0  0
  1  7  1  0  0  0  0
  1  2  1  0  0  0  0
  2  3  2  0  0  0  0
  2  8  1  0  0  0  0
  3 26  1  0  0  0  0
  4  3  1  0  0  0  0
  5  4  2  0  0  0  0
  6  5  1  0  0  0  0
  6  1  2  0  0  0  0
  9 15  1  6  0  0  0
  9  5  1  0  0  0  0
  9 10  1  0  0  0  0
 10 16  1  0  0  0  0
 11 19  1  0  0  0  0
 11 10  1  0  0  0  0
 11 18  1  0  0  0  0
 12 11  1  0  0  0  0
 13 14  2  0  0  0  0
 13 12  1  0  0  0  0
 14  9  1  0  0  0  0
 17 10  1  0  0  0  0
 20 12  1  0  0  0  0
 21 12  1  0  0  0  0
 22 13  1  0  0  0  0
 23 14  1  0  0  0  0
 24 23  1  0  0  0  0
 25 23  1  0  0  0  0
 26 27  1  0  0  0  0
 27 32  1  0  0  0  0
 27 28  2  0  0  0  0
 28 33  1  0  0  0  0
 29 28  1  0  0  0  0
 29 34  1  0  0  0  0
 30 29  2  0  0  0  0
 31 26  2  0  0  0  0
 31 30  1  0  0  0  0
 35 30  1  0  0  0  0
 35 36  1  0  0  0  0
 36 37  1  0  0  0  0
 38 37  1  0  0  0  0
 39 38  1  0  0  0  0
 40 39  1  0  0  0  0
 40 36  1  0  0  0  0
M  END
>  <minimizedAffinity>
-6.35065317

$$$$

 OpenBabel03252505133D

 40 43  0  0  1  0  0  0  0  0999 V2000
   42.4020   28.3510   43.5840 C   0  0  0  0  0  0  0  0  0  0  0  0
   42.2480   29.5730   42.8950 C   0  0  0  0  0  0  0  0  0  0  0  0
   40.9300   29.9260   42.4510 C   0  0  0  0  0  0  0  0  0  0  0  0
   39.9020   29.0710   42.7150 N   0  0  0  0  0  0  0  0  0  0  0  0
   40.1010   27.9250   43.3710 C   0  0  0  0  0  0  0  0  0  0  0  0
   41.3400   27.5540   43.8110 N   0  0  0  0  0  0  0  0  0  0  0  0
   43.4180   28.1420   43.8920 H   0  0  0  0  0  0  0  0  0  0  0  0
   43.0340   30.2580   42.6760 H   0  0  0  0  0  0  0  0  0  0  0  0
   38.9530   27.0250   43.6310 C   0  0  2  0  0  0  0  0  0  0  0  0
   39.2460   25.7710   42.8410 C   0  0  0  0  0  0  0  0  0  0  0  0
   38.4720   25.5860   41.5990 C   0  0  0  0  0  0  0  0  0  0  0  0
   37.0050   25.6460   42.0490 C   0  0  0  0  0  0  0  0  0  0  0  0
   36.6270   26.9630   42.5470 C   0  0  0  0  0  0  0  0  0  0  0  0
   37.6820   27.6300   43.3610 C   0  0  0  0  0  0  0  0  0  0  0  0
   39.0260   26.7830   44.7280 H   0  0  0  0  0  0  0  0  0  0  0  0
   40.3320   25.6520   42.6210 H   0  0  0  0  0  0  0  0  0  0  0  0
   39.0040   24.9060   43.4970 H   0  0  0  0  0  0  0  0  0  0  0  0
   38.6110   24.5410   41.2700 H   0  0  0  0  0  0  0  0  0  0  0  0
   38.6850   26.2630   40.7690 H   0  0  0  0  0  0  0  0  0  0  0  0
   36.4340   25.4980   41.1060 H   0  0  0  0  0  0  0  0  0  0  0  0
   36.8350   24.8470   42.7720 H   0  0  0  0  0  0  0  0  0  0  0  0
   35.7740   27.5750   42.4690 H   0  0  0  0  0  0  0  0  0  0  0  0
   37.4570   28.9330   43.9130 N   0  0  0  0  0  0  0  0  0  0  0  0
   37.0840   29.0940   44.8800 H   0  0  0  0  0  0  0  0  0  0  0  0
   37.5640   29.9170   43.6110 H   0  0  0  0  0  0  0  0  0  0  0  0
   40.7420   31.1760   41.7470 C   0  0  0  0  0  0  0  0  0  0  0  0
   41.8420   31.9530   41.5020 C   0  0  0  0  0  0  0  0  0  0  0  0
   41.5910   33.1590   40.8160 C   0  0  0  0  0  0  0  0  0  0  0  0
   40.2840   33.4240   40.4690 C   0  0  0  0  0  0  0  0  0  0  0  0
   39.1980   32.6520   40.7140 C   0  0  0  0  0  0  0  0  0  0  0  0
   39.4720   31.4930   41.3790 N   0  0  0  0  0  0  0  0  0  0  0  0
   42.8300   31.6770   41.8050 H   0  0  0  0  0  0  0  0  0  0  0  0
   42.4420   33.7760   40.6160 H   0  0  0  0  0  0  0  0  0  0  0  0
   40.2180   34.3700   39.9500 H   0  0  0  0  0  0  0  0  0  0  0  0
   37.9210   32.9860   40.3360 O   0  0  0  0  0  0  0  0  0  0  0  0
   37.1920   32.4100   39.2890 C   0  0  0  0  0  3  0  0  0  0  0  0
   38.1300   31.8300   38.2400 C   0  0  0  0  0  2  0  0  0  0  0  0
   37.1760   30.9000   37.4970 C   0  0  0  0  0  2  0  0  0  0  0  0
   36.4630   30.1960   38.6330 C   0  0  0  0  0  2  0  0  0  0  0  0
   36.5370   31.1400   39.8060 C   0  0  0  0  0  2  0  0  0  0  0  0
  1  6  1  0  0  0  0
  1  7  1  0  0  0  0
  2  1  2  0  0  0  0
  3  4  2  0  0  0  0
  3  2  1  0  0  0  0
  4  5  1  0  0  0  0
  5  9  1  0  0  0  0
  5  6  2  0  0  0  0
  8  2  1  0  0  0  0
  9 15  1  1  0  0  0
 10 17  1  0  0  0  0
 10  9  1  0  0  0  0
 11 12  1  0  0  0  0
 11 10  1  0  0  0  0
 12 13  1  0  0  0  0
 12 21  1  0  0  0  0
 13 14  2  0  0  0  0
 14  9  1  0  0  0  0
 14 23  1  0  0  0  0
 16 10  1  0  0  0  0
 18 11  1  0  0  0  0
 19 11  1  0  0  0  0
 20 12  1  0  0  0  0
 22 13  1  0  0  0  0
 23 24  1  0  0  0  0
 25 23  1  0  0  0  0
 26  3  1  0  0  0  0
 27 26  1  0  0  0  0
 27 32  1  0  0  0  0
 28 27  2  0  0  0  0
 29 30  2  0  0  0  0
 29 28  1  0  0  0  0
 30 31  1  0  0  0  0
 31 26  2  0  0  0  0
 33 28  1  0  0  0  0
 34 29  1  0  0  0  0
 35 30  1  0  0  0  0
 36 40  1  0  0  0  0
 36 35  1  0  0  0  0
 37 36  1  0  0  0  0
 38 37  1  0  0  0  0
 38 39  1  0  0  0  0
 39 40  1  0  0  0  0
M  END
>  <minimizedAffinity>
-6.34619045

$$$$

 OpenBabel03252505133D

 40 43  0  0  1  0  0  0  0  0999 V2000
   35.3380   27.9480   37.4680 C   0  0  0  0  0  0  0  0  0  0  0  0
   35.8050   26.9750   38.3780 C   0  0  0  0  0  0  0  0  0  0  0  0
   36.5680   27.4310   39.5060 C   0  0  0  0  0  0  0  0  0  0  0  0
   36.8000   28.7670   39.6390 N   0  0  0  0  0  0  0  0  0  0  0  0
   36.3350   29.6460   38.7490 C   0  0  0  0  0  0  0  0  0  0  0  0
   35.6050   29.2530   37.6630 N   0  0  0  0  0  0  0  0  0  0  0  0
   34.7700   27.5420   36.6410 H   0  0  0  0  0  0  0  0  0  0  0  0
   35.6380   25.9270   38.2970 H   0  0  0  0  0  0  0  0  0  0  0  0
   36.6180   31.0900   38.9340 C   0  0  2  0  0  0  0  0  0  0  0  0
   37.7830   31.3860   38.0180 C   0  0  0  0  0  0  0  0  0  0  0  0
   39.0970   31.5530   38.6680 C   0  0  0  0  0  0  0  0  0  0  0  0
   38.8780   32.6760   39.6930 C   0  0  0  0  0  0  0  0  0  0  0  0
   37.9660   32.2860   40.7610 C   0  0  0  0  0  0  0  0  0  0  0  0
   36.8120   31.4610   40.3040 C   0  0  0  0  0  0  0  0  0  0  0  0
   35.7040   31.6100   38.5310 H   0  0  0  0  0  0  0  0  0  0  0  0
   37.8720   30.6450   37.1910 H   0  0  0  0  0  0  0  0  0  0  0  0
   37.5590   32.3450   37.5030 H   0  0  0  0  0  0  0  0  0  0  0  0
   39.7830   31.9960   37.9250 H   0  0  0  0  0  0  0  0  0  0  0  0
   39.5560   30.6650   39.1090 H   0  0  0  0  0  0  0  0  0  0  0  0
   39.8760   32.7960   40.1680 H   0  0  0  0  0  0  0  0  0  0  0  0
   38.5580   33.5700   39.1580 H   0  0  0  0  0  0  0  0  0  0  0  0
   37.9220   32.4440   41.8010 H   0  0  0  0  0  0  0  0  0  0  0  0
   35.8340   30.9980   41.2440 N   0  0  0  0  0  0  0  0  0  0  0  0
   34.9460   31.5150   41.4560 H   0  0  0  0  0  0  0  0  0  0  0  0
   35.7090   30.1880   41.8760 H   0  0  0  0  0  0  0  0  0  0  0  0
   37.0540   26.4560   40.4590 C   0  0  0  0  0  0  0  0  0  0  0  0
   36.5720   25.1780   40.3800 C   0  0  0  0  0  0  0  0  0  0  0  0
   37.0840   24.2780   41.3380 C   0  0  0  0  0  0  0  0  0  0  0  0
   38.0020   24.7740   42.2380 C   0  0  0  0  0  0  0  0  0  0  0  0
   38.4760   26.0400   42.3130 C   0  0  0  0  0  0  0  0  0  0  0  0
   37.9630   26.8870   41.3730 N   0  0  0  0  0  0  0  0  0  0  0  0
   35.8560   24.8680   39.6480 H   0  0  0  0  0  0  0  0  0  0  0  0
   36.7160   23.2740   41.2890 H   0  0  0  0  0  0  0  0  0  0  0  0
   38.3190   23.9940   42.9180 H   0  0  0  0  0  0  0  0  0  0  0  0
   39.3940   26.4610   43.2430 O   0  0  0  0  0  0  0  0  0  0  0  0
   40.6890   26.9200   42.9770 C   0  0  0  0  0  3  0  0  0  0  0  0
   40.7200   28.4420   42.9440 C   0  0  0  0  0  2  0  0  0  0  0  0
   42.2160   28.6930   43.1080 C   0  0  0  0  0  2  0  0  0  0  0  0
   42.5770   27.7560   44.2410 C   0  0  0  0  0  2  0  0  0  0  0  0
   41.5510   26.6530   44.1990 C   0  0  0  0  0  2  0  0  0  0  0  0
  1  6  2  0  0  0  0
  1  2  1  0  0  0  0
  2  3  2  0  0  0  0
  3  4  1  0  0  0  0
  3 26  1  0  0  0  0
  5  9  1  0  0  0  0
  5  4  2  0  0  0  0
  6  5  1  0  0  0  0
  7  1  1  0  0  0  0
  8  2  1  0  0  0  0
  9 15  1  6  0  0  0
  9 14  1  0  0  0  0
 10 11  1  0  0  0  0
 10  9  1  0  0  0  0
 11 19  1  0  0  0  0
 11 12  1  0  0  0  0
 12 20  1  0  0  0  0
 12 13  1  0  0  0  0
 13 22  1  0  0  0  0
 14 13  2  0  0  0  0
 14 23  1  0  0  0  0
 16 10  1  0  0  0  0
 17 10  1  0  0  0  0
 18 11  1  0  0  0  0
 21 12  1  0  0  0  0
 23 24  1  0  0  0  0
 23 25  1  0  0  0  0
 26 31  1  0  0  0  0
 27 26  2  0  0  0  0
 27 28  1  0  0  0  0
 28 29  2  0  0  0  0
 29 30  1  0  0  0  0
 29 34  1  0  0  0  0
 30 35  1  0  0  0  0
 31 30  2  0  0  0  0
 32 27  1  0  0  0  0
 33 28  1  0  0  0  0
 36 35  1  0  0  0  0
 36 40  1  0  0  0  0
 37 36  1  0  0  0  0
 37 38  1  0  0  0  0
 38 39  1  0  0  0  0
 40 39  1  0  0  0  0
M  END
>  <minimizedAffinity>
-6.17025614

$$$$

 OpenBabel03252505133D

 40 43  0  0  1  0  0  0  0  0999 V2000
   38.5250   34.4240   40.1240 C   0  0  0  0  0  0  0  0  0  0  0  0
   37.7000   33.2930   40.3010 C   0  0  0  0  0  0  0  0  0  0  0  0
   38.3370   32.0470   40.6190 C   0  0  0  0  0  0  0  0  0  0  0  0
   39.6950   32.0190   40.7330 N   0  0  0  0  0  0  0  0  0  0  0  0
   40.4310   33.1180   40.5550 C   0  0  0  0  0  0  0  0  0  0  0  0
   39.8620   34.3230   40.2520 N   0  0  0  0  0  0  0  0  0  0  0  0
   37.9870   35.3320   39.8860 H   0  0  0  0  0  0  0  0  0  0  0  0
   36.6380   33.2880   40.2180 H   0  0  0  0  0  0  0  0  0  0  0  0
   41.9050   33.0370   40.6840 C   0  0  2  0  0  0  0  0  0  0  0  0
   42.4220   32.9250   39.2690 C   0  0  0  0  0  0  0  0  0  0  0  0
   42.8820   31.5880   38.8470 C   0  0  0  0  0  0  0  0  0  0  0  0
   43.9560   31.2100   39.8770 C   0  0  0  0  0  0  0  0  0  0  0  0
   43.4070   31.0250   41.2140 C   0  0  0  0  0  0  0  0  0  0  0  0
   42.3430   32.0040   41.5750 C   0  0  0  0  0  0  0  0  0  0  0  0
   42.2080   34.0410   41.0970 H   0  0  0  0  0  0  0  0  0  0  0  0
   41.6970   33.3190   38.5190 H   0  0  0  0  0  0  0  0  0  0  0  0
   43.2980   33.6040   39.1840 H   0  0  0  0  0  0  0  0  0  0  0  0
   43.4430   31.7100   37.9030 H   0  0  0  0  0  0  0  0  0  0  0  0
   42.1240   30.8110   38.7250 H   0  0  0  0  0  0  0  0  0  0  0  0
   44.2990   30.2060   39.5420 H   0  0  0  0  0  0  0  0  0  0  0  0
   44.7480   31.9590   39.8360 H   0  0  0  0  0  0  0  0  0  0  0  0
   43.5770   30.3520   42.0060 H   0  0  0  0  0  0  0  0  0  0  0  0
   41.7050   31.9420   42.8560 N   0  0  0  0  0  0  0  0  0  0  0  0
   42.0240   32.4950   43.6890 H   0  0  0  0  0  0  0  0  0  0  0  0
   40.9020   31.4480   43.2850 H   0  0  0  0  0  0  0  0  0  0  0  0
   37.5140   30.8720   40.8130 C   0  0  0  0  0  0  0  0  0  0  0  0
   36.3350   30.7870   40.1240 C   0  0  0  0  0  0  0  0  0  0  0  0
   35.5790   29.6200   40.3580 C   0  0  0  0  0  0  0  0  0  0  0  0
   36.1010   28.7010   41.2430 C   0  0  0  0  0  0  0  0  0  0  0  0
   37.2690   28.7900   41.9240 C   0  0  0  0  0  0  0  0  0  0  0  0
   37.9770   29.9300   41.6760 N   0  0  0  0  0  0  0  0  0  0  0  0
   35.9970   31.5470   39.4500 H   0  0  0  0  0  0  0  0  0  0  0  0
   34.6550   29.5390   39.8260 H   0  0  0  0  0  0  0  0  0  0  0  0
   35.4360   27.8540   41.3400 H   0  0  0  0  0  0  0  0  0  0  0  0
   37.7230   27.8290   42.7930 O   0  0  0  0  0  0  0  0  0  0  0  0
   38.7950   26.9570   42.5740 C   0  0  0  0  0  3  0  0  0  0  0  0
   39.5220   26.6640   43.8790 C   0  0  0  0  0  2  0  0  0  0  0  0
   40.2910   25.4050   43.4920 C   0  0  0  0  0  2  0  0  0  0  0  0
   39.2320   24.5850   42.7860 C   0  0  0  0  0  2  0  0  0  0  0  0
   38.2330   25.5810   42.2570 C   0  0  0  0  0  2  0  0  0  0  0  0
  1  6  2  0  0  0  0
  1  2  1  0  0  0  0
  2  3  2  0  0  0  0
  3  4  1  0  0  0  0
  3 26  1  0  0  0  0
  5  9  1  0  0  0  0
  5  4  2  0  0  0  0
  6  5  1  0  0  0  0
  7  1  1  0  0  0  0
  8  2  1  0  0  0  0
  9 15  1  1  0  0  0
  9 14  1  0  0  0  0
 10  9  1  0  0  0  0
 11 10  1  0  0  0  0
 11 12  1  0  0  0  0
 12 13  1  0  0  0  0
 13 14  2  0  0  0  0
 13 22  1  0  0  0  0
 14 23  1  0  0  0  0
 16 10  1  0  0  0  0
 17 10  1  0  0  0  0
 18 11  1  0  0  0  0
 19 11  1  0  0  0  0
 20 12  1  0  0  0  0
 21 12  1  0  0  0  0
 23 25  1  0  0  0  0
 23 24  1  0  0  0  0
 26 31  1  0  0  0  0
 27 28  1  0  0  0  0
 27 26  2  0  0  0  0
 28 29  2  0  0  0  0
 29 34  1  0  0  0  0
 29 30  1  0  0  0  0
 30 35  1  0  0  0  0
 31 30  2  0  0  0  0
 32 27  1  0  0  0  0
 33 28  1  0  0  0  0
 36 35  1  0  0  0  0
 36 37  1  0  0  0  0
 38 37  1  0  0  0  0
 39 38  1  0  0  0  0
 40 36  1  0  0  0  0
 40 39  1  0  0  0  0
M  END
>  <minimizedAffinity>
-6.14681768

$$$$

 OpenBabel03252505133D

 40 43  0  0  1  0  0  0  0  0999 V2000
   34.3670   28.7990   34.9010 C   0  0  0  0  0  0  0  0  0  0  0  0
   35.1050   28.6020   36.0880 C   0  0  0  0  0  0  0  0  0  0  0  0
   34.4360   28.8410   37.3350 C   0  0  0  0  0  0  0  0  0  0  0  0
   33.1340   29.2420   37.3100 N   0  0  0  0  0  0  0  0  0  0  0  0
   32.4800   29.4150   36.1600 C   0  0  0  0  0  0  0  0  0  0  0  0
   33.0810   29.1970   34.9520 N   0  0  0  0  0  0  0  0  0  0  0  0
   34.9250   28.6030   33.9950 H   0  0  0  0  0  0  0  0  0  0  0  0
   36.1220   28.2890   36.1340 H   0  0  0  0  0  0  0  0  0  0  0  0
   31.0660   29.8580   36.1830 C   0  0  2  0  0  0  0  0  0  0  0  0
   30.9110   30.7540   34.9770 C   0  0  0  0  0  0  0  0  0  0  0  0
   30.8520   32.2040   35.2450 C   0  0  0  0  0  0  0  0  0  0  0  0
   29.6820   32.3640   36.2280 C   0  0  0  0  0  0  0  0  0  0  0  0
   29.9500   31.7440   37.5200 C   0  0  0  0  0  0  0  0  0  0  0  0
   30.6740   30.4440   37.4300 C   0  0  0  0  0  0  0  0  0  0  0  0
   30.4720   28.9160   36.0090 H   0  0  0  0  0  0  0  0  0  0  0  0
   31.6820   30.5540   34.1970 H   0  0  0  0  0  0  0  0  0  0  0  0
   29.9510   30.4820   34.4880 H   0  0  0  0  0  0  0  0  0  0  0  0
   30.4990   32.7000   34.3230 H   0  0  0  0  0  0  0  0  0  0  0  0
   31.7650   32.6880   35.5960 H   0  0  0  0  0  0  0  0  0  0  0  0
   29.6440   33.4600   36.4140 H   0  0  0  0  0  0  0  0  0  0  0  0
   28.7780   31.9880   35.7480 H   0  0  0  0  0  0  0  0  0  0  0  0
   29.7570   31.9940   38.5230 H   0  0  0  0  0  0  0  0  0  0  0  0
   31.0120   29.7190   38.6200 N   0  0  0  0  0  0  0  0  0  0  0  0
   30.4060   28.9680   39.0310 H   0  0  0  0  0  0  0  0  0  0  0  0
   31.7870   29.7000   39.3060 H   0  0  0  0  0  0  0  0  0  0  0  0
   35.1670   28.6400   38.5680 C   0  0  0  0  0  0  0  0  0  0  0  0
   34.7120   29.2640   39.6980 C   0  0  0  0  0  0  0  0  0  0  0  0
   35.4690   29.0310   40.8650 C   0  0  0  0  0  0  0  0  0  0  0  0
   36.5700   28.2110   40.7460 C   0  0  0  0  0  0  0  0  0  0  0  0
   37.0170   27.5950   39.6240 C   0  0  0  0  0  0  0  0  0  0  0  0
   36.2640   27.8400   38.5130 N   0  0  0  0  0  0  0  0  0  0  0  0
   33.8440   29.8900   39.7100 H   0  0  0  0  0  0  0  0  0  0  0  0
   35.1260   29.5120   41.7570 H   0  0  0  0  0  0  0  0  0  0  0  0
   37.0660   28.1080   41.7010 H   0  0  0  0  0  0  0  0  0  0  0  0
   38.1280   26.7900   39.5840 O   0  0  0  0  0  0  0  0  0  0  0  0
   38.2630   25.5380   40.1950 C   0  0  0  0  0  3  0  0  0  0  0  0
   38.6440   25.6960   41.6600 C   0  0  0  0  0  2  0  0  0  0  0  0
   38.2850   24.3120   42.1920 C   0  0  0  0  0  2  0  0  0  0  0  0
   36.9190   24.0780   41.5820 C   0  0  0  0  0  2  0  0  0  0  0  0
   36.8810   24.9230   40.3340 C   0  0  0  0  0  2  0  0  0  0  0  0
  1  6  2  0  0  0  0
  1  2  1  0  0  0  0
  2  8  1  0  0  0  0
  2  3  2  0  0  0  0
  3 26  1  0  0  0  0
  4  3  1  0  0  0  0
  5  9  1  0  0  0  0
  5  4  2  0  0  0  0
  6  5  1  0  0  0  0
  7  1  1  0  0  0  0
  9 15  1  6  0  0  0
  9 14  1  0  0  0  0
 10 11  1  0  0  0  0
 10  9  1  0  0  0  0
 11 19  1  0  0  0  0
 11 12  1  0  0  0  0
 12 20  1  0  0  0  0
 12 13  1  0  0  0  0
 13 22  1  0  0  0  0
 14 13  2  0  0  0  0
 14 23  1  0  0  0  0
 16 10  1  0  0  0  0
 17 10  1  0  0  0  0
 18 11  1  0  0  0  0
 21 12  1  0  0  0  0
 23 24  1  0  0  0  0
 23 25  1  0  0  0  0
 26 27  1  0  0  0  0
 27 32  1  0  0  0  0
 27 28  2  0  0  0  0
 28 33  1  0  0  0  0
 29 28  1  0  0  0  0
 29 34  1  0  0  0  0
 30 29  2  0  0  0  0
 31 26  2  0  0  0  0
 31 30  1  0  0  0  0
 35 30  1  0  0  0  0
 35 36  1  0  0  0  0
 36 40  1  0  0  0  0
 36 37  1  0  0  0  0
 37 38  1  0  0  0  0
 39 38  1  0  0  0  0
 40 39  1  0  0  0  0
M  END
>  <minimizedAffinity>
-6.1312232

$$$$
