
 OpenBabel03242518543D

 38 40  0  0  1  0  0  0  0  0999 V2000
   45.8550   31.3330   46.4380 C   0  0  2  0  0  0  0  0  0  0  0  0
   45.4210   30.7030   47.7230 C   0  0  0  0  0  0  0  0  0  0  0  0
   44.8630   29.3660   47.3870 C   0  0  0  0  0  0  0  0  0  0  0  0
   44.7850   29.0430   45.9330 C   0  0  0  0  0  0  0  0  0  0  0  0
   46.1370   29.1990   45.2910 C   0  0  0  0  0  0  0  0  0  0  0  0
   46.8260   30.4010   45.7390 C   0  0  2  0  0  0  0  0  0  0  0  0
   44.9850   31.3790   45.7500 H   0  0  0  0  0  0  0  0  0  0  0  0
   44.6390   31.3900   48.1510 H   0  0  0  0  0  0  0  0  0  0  0  0
   46.2150   30.6760   48.4980 H   0  0  0  0  0  0  0  0  0  0  0  0
   43.7890   29.3580   47.7450 H   0  0  0  0  0  0  0  0  0  0  0  0
   45.3080   28.5120   47.9600 H   0  0  0  0  0  0  0  0  0  0  0  0
   44.4670   27.9790   45.8600 H   0  0  0  0  0  0  0  0  0  0  0  0
   43.9870   29.6140   45.4150 H   0  0  0  0  0  0  0  0  0  0  0  0
   45.9190   29.3040   44.1870 H   0  0  0  0  0  0  0  0  0  0  0  0
   46.6570   28.2280   45.3750 H   0  0  0  0  0  0  0  0  0  0  0  0
   47.2920   30.9880   44.9350 H   0  0  0  0  0  0  0  0  0  0  0  0
   47.8800   29.9460   46.6880 C   0  0  0  0  0  0  0  0  0  0  0  0
   47.5540   29.9170   47.7530 H   0  0  0  0  0  0  0  0  0  0  0  0
   48.7080   30.6840   46.6620 H   0  0  0  0  0  0  0  0  0  0  0  0
   48.4610   28.5910   46.4140 C   0  0  0  0  0  3  0  0  0  0  0  0
   49.9330   28.6240   46.0870 C   0  0  0  0  0  2  0  0  0  0  0  0
   50.1770   27.1130   46.0140 C   0  0  0  0  0  2  0  0  0  0  0  0
   49.5350   26.6800   47.3220 C   0  0  0  0  0  2  0  0  0  0  0  0
   48.5430   27.7530   47.6960 C   0  0  0  0  0  2  0  0  0  0  0  0
   46.3940   32.7090   46.5880 C   0  0  0  0  0  0  0  0  0  0  0  0
   47.1630   33.0470   47.5160 O   0  0  0  0  0  0  0  0  0  0  0  0
   44.6150   35.4400   44.9340 C   0  0  0  0  0  0  0  0  0  0  0  0
   45.2080   35.5150   43.6460 C   0  0  0  0  0  0  0  0  0  0  0  0
   46.2220   34.6120   43.3830 C   0  0  0  0  0  0  0  0  0  0  0  0
   46.5160   33.7790   44.3820 N   0  0  0  0  0  0  0  0  0  0  0  0
   45.9780   33.6970   45.5770 C   0  0  0  0  0  0  0  0  0  0  0  0
   44.9910   34.5620   45.8570 N   0  0  0  0  0  0  0  0  0  0  0  0
   43.8040   36.1510   45.1630 H   0  0  0  0  0  0  0  0  0  0  0  0
   44.8660   36.2490   42.9270 H   0  0  0  0  0  0  0  0  0  0  0  0
   46.8260   34.6810   42.0650 C   0  0  0  0  0  0  0  0  0  0  0  0
   47.5720   33.5300   41.8330 F   0  0  0  0  0  0  0  0  0  0  0  0
   47.6610   35.7510   42.0640 F   0  0  0  0  0  0  0  0  0  0  0  0
   45.8790   34.7230   41.0480 F   0  0  0  0  0  0  0  0  0  0  0  0
  1  7  1  6  0  0  0
  1 25  1  0  0  0  0
  1  2  1  0  0  0  0
  2  8  1  0  0  0  0
  2  9  1  0  0  0  0
  3  2  1  0  0  0  0
  3 10  1  0  0  0  0
  3 11  1  0  0  0  0
  4  3  1  0  0  0  0
  5 15  1  0  0  0  0
  5  6  1  0  0  0  0
  5  4  1  0  0  0  0
  6 16  1  6  0  0  0
  6  1  1  0  0  0  0
  6 17  1  0  0  0  0
 12  4  1  0  0  0  0
 13  4  1  0  0  0  0
 14  5  1  0  0  0  0
 17 18  1  0  0  0  0
 19 17  1  0  0  0  0
 20 17  1  0  0  0  0
 20 24  1  0  0  0  0
 21 20  1  0  0  0  0
 22 21  1  0  0  0  0
 22 23  1  0  0  0  0
 23 24  1  0  0  0  0
 25 26  2  0  0  0  0
 27 33  1  0  0  0  0
 27 32  1  0  0  0  0
 28 27  2  0  0  0  0
 29 28  1  0  0  0  0
 29 30  2  0  0  0  0
 30 31  1  0  0  0  0
 31 32  2  0  0  0  0
 31 25  1  0  0  0  0
 34 28  1  0  0  0  0
 35 29  1  0  0  0  0
 36 35  1  0  0  0  0
 37 35  1  0  0  0  0
 38 35  1  0  0  0  0
M  END
>  <minimizedAffinity>
-5.11586475

>  <minimizedRMSD>
0.656307518

$$$$
