
     RDKit          3D

 47 50  0  0  0  0  0  0  0  0999 V2000
   43.9674   34.6536   42.3736 C   0  0  1  0  0  0  0  0  0  0  0  0
   44.1499   36.1365   41.9079 C   0  0  0  0  0  0  0  0  0  0  0  0
   44.0009   34.9421   40.9697 C   0  0  2  0  0  0  0  0  0  0  0  0
   45.1120   34.1215   43.1362 C   0  0  0  0  0  0  0  0  0  0  0  0
   46.3586   34.0594   42.4909 C   0  0  0  0  0  0  0  0  0  0  0  0
   47.4510   33.5624   43.1954 C   0  0  0  0  0  0  0  0  0  0  0  0
   47.2552   33.1615   44.4759 N   0  0  0  0  0  0  0  0  0  0  0  0
   46.0586   33.2332   45.0614 C   0  0  0  0  0  0  0  0  0  0  0  0
   45.0218   33.7124   44.3704 N   0  0  0  0  0  0  0  0  0  0  0  0
   46.0467   32.7447   46.4819 C   0  0  0  0  0  0  0  0  0  0  0  0
   45.0843   33.4005   47.2353 F   0  0  0  0  0  0  0  0  0  0  0  0
   47.2893   33.0640   47.0793 F   0  0  0  0  0  0  0  0  0  0  0  0
   45.9476   31.3813   46.5089 F   0  0  0  0  0  0  0  0  0  0  0  0
   42.6676   34.7987   40.2677 C   0  0  0  0  0  0  0  0  0  0  0  0
   42.5074   35.1939   38.9634 C   0  0  0  0  0  0  0  0  0  0  0  0
   41.3123   35.0506   38.2877 C   0  0  0  0  0  0  0  0  0  0  0  0
   40.2793   34.5015   38.9481 N   0  0  0  0  0  0  0  0  0  0  0  0
   40.4240   34.1043   40.2429 C   0  0  0  0  0  0  0  0  0  0  0  0
   41.5967   34.2447   40.9090 N   0  0  0  0  0  0  0  0  0  0  0  0
   39.3190   33.4734   41.0255 C   0  0  0  0  0  0  0  0  0  0  0  0
   38.4010   32.7206   40.0938 C   0  0  0  0  0  0  0  0  0  0  0  0
   42.9830   34.5399   42.9104 H   0  0  0  0  0  0  0  0  0  0  0  0
   45.1312   36.5766   42.0800 H   0  0  0  0  0  0  0  0  0  0  0  0
   43.2968   36.8067   41.9789 H   0  0  0  0  0  0  0  0  0  0  0  0
   44.8974   34.8413   40.3329 H   0  0  0  0  0  0  0  0  0  0  0  0
   46.5397   34.3736   41.4697 H   0  0  0  0  0  0  0  0  0  0  0  0
   48.4424   33.4966   42.7287 H   0  0  0  0  0  0  0  0  0  0  0  0
   43.3625   35.6308   38.4673 H   0  0  0  0  0  0  0  0  0  0  0  0
   41.1927   35.3652   37.2578 H   0  0  0  0  0  0  0  0  0  0  0  0
   38.8217   34.2391   41.6176 H   0  0  0  0  0  0  0  0  0  0  0  0
   39.7482   32.7106   41.7074 H   0  0  0  0  0  0  0  0  0  0  0  0
   37.9619   33.4605   39.3926 H   0  0  0  0  0  0  0  0  0  0  0  0
   38.9879   32.0100   39.5143 H   0  0  0  0  0  0  0  0  0  0  0  0
   37.2549   32.0502   40.7953 C   0  0  0  0  0  0  0  0  0  0  0  0
   37.7139   31.0533   41.8079 C   0  0  0  0  0  0  0  0  0  0  0  0
   37.5352   29.6788   41.2446 C   0  0  0  0  0  0  0  0  0  0  0  0
   36.6569   29.8246   40.0331 C   0  0  0  0  0  0  0  0  0  0  0  0
   36.3437   31.2932   39.8771 C   0  0  0  0  0  0  0  0  0  0  0  0
   36.7011   32.8619   41.3154 H   0  0  0  0  0  0  0  0  0  0  0  0
   37.0624   31.1387   42.7251 H   0  0  0  0  0  0  0  0  0  0  0  0
   38.7770   31.2216   42.1013 H   0  0  0  0  0  0  0  0  0  0  0  0
   38.5045   29.1741   40.9914 H   0  0  0  0  0  0  0  0  0  0  0  0
   37.0909   28.9955   42.0256 H   0  0  0  0  0  0  0  0  0  0  0  0
   37.1452   29.4872   39.1044 H   0  0  0  0  0  0  0  0  0  0  0  0
   35.7616   29.1925   40.2125 H   0  0  0  0  0  0  0  0  0  0  0  0
   35.2981   31.4391   40.2205 H   0  0  0  0  0  0  0  0  0  0  0  0
   36.3817   31.6288   38.8228 H   0  0  0  0  0  0  0  0  0  0  0  0
  1  4  1  0
  2  1  1  0
  3  2  1  0
  3  1  1  0
  4  9  1  0
  5  4  2  0
  5  6  1  0
  6  7  2  0
  7  8  1  0
  8 10  1  0
  9  8  2  0
 10 13  1  0
 10 12  1  0
 10 11  1  0
 14 19  1  0
 14  3  1  0
 15 14  2  0
 16 17  2  0
 16 15  1  0
 17 18  1  0
 18 19  2  0
 18 20  1  0
 21 20  1  0
  1 22  1  1
  2 23  1  0
  2 24  1  0
  3 25  1  6
  5 26  1  0
  6 27  1  0
 15 28  1  0
 16 29  1  0
 20 30  1  0
 20 31  1  0
 21 32  1  0
 21 33  1  0
 34 35  1  0
 35 36  1  0
 36 37  1  0
 37 38  1  0
 38 34  1  0
 34 39  1  0
 35 40  1  0
 35 41  1  0
 36 42  1  0
 36 43  1  0
 37 44  1  0
 37 45  1  0
 38 46  1  0
 38 47  1  0
 21 34  1  0
M  ISO  8  22  13  23  13  24  13  25  13  26  14  27  14  28  14  29  14
M  ISO  4  30   8  31   8  32   8  33   8
M  END
>  <DihAtoms>  (1) 
19,20,33,34

>  <DihDeg>  (1) 
59.99967032491329

$$$$
