
 OpenBabel03242518513D

 19 20  0  0  0  0  0  0  0  0999 V2000
   37.4580   28.4960   43.6550 C   0  0  0  0  0  0  0  0  0  0  0  0
   37.2910   27.1390   43.3120 C   0  0  0  0  0  0  0  0  0  0  0  0
   37.3950   26.8120   41.9460 C   0  0  0  0  0  0  0  0  0  0  0  0
   37.6460   27.8190   41.0600 N   0  0  0  0  0  0  0  0  0  0  0  0
   37.7980   29.1060   41.4360 C   0  0  0  0  0  0  0  0  0  0  0  0
   37.7030   29.4420   42.7380 N   0  0  0  0  0  0  0  0  0  0  0  0
   37.3930   28.8250   44.6770 H   0  0  0  0  0  0  0  0  0  0  0  0
   37.0980   26.4530   44.1020 H   0  0  0  0  0  0  0  0  0  0  0  0
   37.2210   25.4150   41.6130 C   0  0  0  0  0  0  0  0  0  0  0  0
   36.4490   25.3040   40.4560 F   0  0  0  0  0  0  0  0  0  0  0  0
   36.4450   24.8510   42.6140 F   0  0  0  0  0  0  0  0  0  0  0  0
   38.3910   24.7360   41.4260 F   0  0  0  0  0  0  0  0  0  0  0  0
   38.0650   30.1620   40.4760 C   0  0  0  0  0  0  0  0  0  0  0  0
   38.7000   29.9630   39.4220 O   0  0  0  0  0  0  0  0  0  0  0  0
   37.5870   31.5570   40.7030 C   0  0  0  0  0  3  0  0  0  0  0  0
   38.7840   32.4350   41.0020 C   0  0  0  0  0  2  0  0  0  0  0  0
   38.8580   33.4450   39.8790 C   0  0  0  0  0  2  0  0  0  0  0  0
   37.3960   33.5790   39.5020 C   0  0  0  0  0  2  0  0  0  0  0  0
   36.9860   32.1150   39.4150 C   0  0  0  0  0  2  0  0  0  0  0  0
  1  7  1  0  0  0  0
  2  1  1  0  0  0  0
  2  8  1  0  0  0  0
  3  2  2  0  0  0  0
  4  5  2  0  0  0  0
  4  3  1  0  0  0  0
  5  6  1  0  0  0  0
  6  1  2  0  0  0  0
  9  3  1  0  0  0  0
  9 11  1  0  0  0  0
 10  9  1  0  0  0  0
 12  9  1  0  0  0  0
 13 15  1  0  0  0  0
 13  5  1  0  0  0  0
 14 13  2  0  0  0  0
 15 16  1  0  0  0  0
 17 16  1  0  0  0  0
 18 17  1  0  0  0  0
 19 18  1  0  0  0  0
 19 15  1  0  0  0  0
M  END
>  <minimizedAffinity>
-4.91020346

$$$$

 OpenBabel03242518513D

 19 20  0  0  0  0  0  0  0  0999 V2000
   39.2990   28.2120   43.1490 C   0  0  0  0  0  0  0  0  0  0  0  0
   38.7880   26.9230   42.8940 C   0  0  0  0  0  0  0  0  0  0  0  0
   37.7060   26.8360   41.9970 C   0  0  0  0  0  0  0  0  0  0  0  0
   37.2340   27.9900   41.4430 N   0  0  0  0  0  0  0  0  0  0  0  0
   37.7560   29.2040   41.7170 C   0  0  0  0  0  0  0  0  0  0  0  0
   38.7920   29.3110   42.5740 N   0  0  0  0  0  0  0  0  0  0  0  0
   40.1240   28.3620   43.8230 H   0  0  0  0  0  0  0  0  0  0  0  0
   39.2490   26.1050   43.3940 H   0  0  0  0  0  0  0  0  0  0  0  0
   37.1940   25.5060   41.7480 C   0  0  0  0  0  0  0  0  0  0  0  0
   38.2580   24.6290   41.5370 F   0  0  0  0  0  0  0  0  0  0  0  0
   36.5230   25.5490   40.5360 F   0  0  0  0  0  0  0  0  0  0  0  0
   36.4110   25.0120   42.7520 F   0  0  0  0  0  0  0  0  0  0  0  0
   37.2380   30.4190   41.1170 C   0  0  0  0  0  0  0  0  0  0  0  0
   36.0710   30.8140   41.3070 O   0  0  0  0  0  0  0  0  0  0  0  0
   38.0850   31.2700   40.2300 C   0  0  0  0  0  3  0  0  0  0  0  0
   37.2130   31.8440   39.1350 C   0  0  0  0  0  2  0  0  0  0  0  0
   37.2260   33.3450   39.3250 C   0  0  0  0  0  2  0  0  0  0  0  0
   38.5980   33.5540   39.9360 C   0  0  0  0  0  2  0  0  0  0  0  0
   38.6020   32.4760   41.0110 C   0  0  0  0  0  2  0  0  0  0  0  0
  1  7  1  0  0  0  0
  2  1  1  0  0  0  0
  2  8  1  0  0  0  0
  3  2  2  0  0  0  0
  4  5  2  0  0  0  0
  4  3  1  0  0  0  0
  5  6  1  0  0  0  0
  6  1  2  0  0  0  0
  9  3  1  0  0  0  0
  9 12  1  0  0  0  0
 10  9  1  0  0  0  0
 11  9  1  0  0  0  0
 13 14  2  0  0  0  0
 13  5  1  0  0  0  0
 15 19  1  0  0  0  0
 15 13  1  0  0  0  0
 16 17  1  0  0  0  0
 16 15  1  0  0  0  0
 17 18  1  0  0  0  0
 18 19  1  0  0  0  0
M  END
>  <minimizedAffinity>
-4.81876135

$$$$

 OpenBabel03242518513D

 19 20  0  0  0  0  0  0  0  0999 V2000
   37.0860   30.0740   38.3580 C   0  0  0  0  0  0  0  0  0  0  0  0
   37.4500   31.4300   38.4830 C   0  0  0  0  0  0  0  0  0  0  0  0
   37.7200   31.8960   39.7840 C   0  0  0  0  0  0  0  0  0  0  0  0
   37.6120   31.0160   40.8200 N   0  0  0  0  0  0  0  0  0  0  0  0
   37.2590   29.7240   40.6520 C   0  0  0  0  0  0  0  0  0  0  0  0
   36.9960   29.2550   39.4150 N   0  0  0  0  0  0  0  0  0  0  0  0
   36.8630   29.6420   37.3980 H   0  0  0  0  0  0  0  0  0  0  0  0
   37.4970   32.0100   37.5930 H   0  0  0  0  0  0  0  0  0  0  0  0
   38.0930   33.2910   39.8940 C   0  0  0  0  0  0  0  0  0  0  0  0
   39.2640   33.5180   39.1720 F   0  0  0  0  0  0  0  0  0  0  0  0
   38.4400   33.5160   41.2170 F   0  0  0  0  0  0  0  0  0  0  0  0
   37.1330   34.1600   39.4580 F   0  0  0  0  0  0  0  0  0  0  0  0
   37.1500   28.8030   41.7680 C   0  0  0  0  0  0  0  0  0  0  0  0
   36.2030   28.0000   41.8830 O   0  0  0  0  0  0  0  0  0  0  0  0
   38.1780   28.7690   42.8500 C   0  0  0  0  0  3  0  0  0  0  0  0
   37.9640   27.5210   43.6800 C   0  0  0  0  0  2  0  0  0  0  0  0
   39.2080   26.6780   43.5050 C   0  0  0  0  0  2  0  0  0  0  0  0
   40.2600   27.7460   43.2790 C   0  0  0  0  0  2  0  0  0  0  0  0
   39.5690   28.6160   42.2380 C   0  0  0  0  0  2  0  0  0  0  0  0
  1  2  2  0  0  0  0
  1  6  1  0  0  0  0
  2  3  1  0  0  0  0
  3  9  1  0  0  0  0
  3  4  2  0  0  0  0
  5  4  1  0  0  0  0
  5 13  1  0  0  0  0
  6  5  2  0  0  0  0
  7  1  1  0  0  0  0
  8  2  1  0  0  0  0
  9 11  1  0  0  0  0
 10  9  1  0  0  0  0
 12  9  1  0  0  0  0
 13 14  2  0  0  0  0
 13 15  1  0  0  0  0
 15 16  1  0  0  0  0
 17 16  1  0  0  0  0
 18 17  1  0  0  0  0
 19 15  1  0  0  0  0
 19 18  1  0  0  0  0
M  END
>  <minimizedAffinity>
-4.78376484

$$$$

 OpenBabel03242518513D

 19 20  0  0  0  0  0  0  0  0999 V2000
   37.2140   27.2680   39.0830 C   0  0  0  0  0  0  0  0  0  0  0  0
   37.1880   26.4750   40.2480 C   0  0  0  0  0  0  0  0  0  0  0  0
   37.0520   27.1540   41.4740 C   0  0  0  0  0  0  0  0  0  0  0  0
   36.9570   28.5150   41.4500 N   0  0  0  0  0  0  0  0  0  0  0  0
   36.9870   29.2330   40.3080 C   0  0  0  0  0  0  0  0  0  0  0  0
   37.1160   28.6040   39.1220 N   0  0  0  0  0  0  0  0  0  0  0  0
   37.3150   26.8240   38.1080 H   0  0  0  0  0  0  0  0  0  0  0  0
   37.2720   25.4220   40.1270 H   0  0  0  0  0  0  0  0  0  0  0  0
   37.0270   26.3250   42.6600 C   0  0  0  0  0  0  0  0  0  0  0  0
   36.1830   26.8970   43.6110 F   0  0  0  0  0  0  0  0  0  0  0  0
   38.2920   26.3840   43.2250 F   0  0  0  0  0  0  0  0  0  0  0  0
   36.6250   25.0390   42.4330 F   0  0  0  0  0  0  0  0  0  0  0  0
   36.8840   30.6810   40.3050 C   0  0  0  0  0  0  0  0  0  0  0  0
   36.1120   31.2980   41.0640 O   0  0  0  0  0  0  0  0  0  0  0  0
   37.7090   31.5160   39.3830 C   0  0  0  0  0  3  0  0  0  0  0  0
   37.2000   32.9410   39.4380 C   0  0  0  0  0  2  0  0  0  0  0  0
   38.3340   33.7740   39.9930 C   0  0  0  0  0  2  0  0  0  0  0  0
   39.5400   32.9990   39.5020 C   0  0  0  0  0  2  0  0  0  0  0  0
   39.1480   31.5800   39.8900 C   0  0  0  0  0  2  0  0  0  0  0  0
  1  6  2  0  0  0  0
  1  2  1  0  0  0  0
  2  3  2  0  0  0  0
  3  9  1  0  0  0  0
  4  3  1  0  0  0  0
  5  4  2  0  0  0  0
  6  5  1  0  0  0  0
  7  1  1  0  0  0  0
  8  2  1  0  0  0  0
  9 11  1  0  0  0  0
  9 10  1  0  0  0  0
 12  9  1  0  0  0  0
 13  5  1  0  0  0  0
 13 14  2  0  0  0  0
 15 16  1  0  0  0  0
 15 19  1  0  0  0  0
 15 13  1  0  0  0  0
 16 17  1  0  0  0  0
 18 19  1  0  0  0  0
 18 17  1  0  0  0  0
M  END
>  <minimizedAffinity>
-4.71313238

$$$$

 OpenBabel03242518513D

 19 20  0  0  0  0  0  0  0  0999 V2000
   39.2160   29.7490   39.1080 C   0  0  0  0  0  0  0  0  0  0  0  0
   39.3120   31.1520   39.2090 C   0  0  0  0  0  0  0  0  0  0  0  0
   38.3760   31.7930   40.0430 C   0  0  0  0  0  0  0  0  0  0  0  0
   37.4530   31.0230   40.6870 N   0  0  0  0  0  0  0  0  0  0  0  0
   37.3990   29.6810   40.5600 C   0  0  0  0  0  0  0  0  0  0  0  0
   38.2850   29.0450   39.7670 N   0  0  0  0  0  0  0  0  0  0  0  0
   39.8940   29.1870   38.4910 H   0  0  0  0  0  0  0  0  0  0  0  0
   40.0800   31.6330   38.6510 H   0  0  0  0  0  0  0  0  0  0  0  0
   38.4890   33.2330   40.1340 C   0  0  0  0  0  0  0  0  0  0  0  0
   38.7580   33.5970   41.4540 F   0  0  0  0  0  0  0  0  0  0  0  0
   37.2340   33.7580   39.8690 F   0  0  0  0  0  0  0  0  0  0  0  0
   39.4520   33.7700   39.3270 F   0  0  0  0  0  0  0  0  0  0  0  0
   36.4080   28.8800   41.2560 C   0  0  0  0  0  0  0  0  0  0  0  0
   35.2340   28.7690   40.8510 O   0  0  0  0  0  0  0  0  0  0  0  0
   36.7470   28.1380   42.5060 C   0  0  0  0  0  3  0  0  0  0  0  0
   37.0100   26.6900   42.1510 C   0  0  0  0  0  2  0  0  0  0  0  0
   38.4580   26.4250   42.4960 C   0  0  0  0  0  2  0  0  0  0  0  0
   38.6680   27.3860   43.6500 C   0  0  0  0  0  2  0  0  0  0  0  0
   38.0630   28.6610   43.0780 C   0  0  0  0  0  2  0  0  0  0  0  0
  1  2  2  0  0  0  0
  1  6  1  0  0  0  0
  2  3  1  0  0  0  0
  3  9  1  0  0  0  0
  3  4  2  0  0  0  0
  5  4  1  0  0  0  0
  5 13  1  0  0  0  0
  6  5  2  0  0  0  0
  7  1  1  0  0  0  0
  8  2  1  0  0  0  0
  9 10  1  0  0  0  0
 11  9  1  0  0  0  0
 12  9  1  0  0  0  0
 13 15  1  0  0  0  0
 14 13  2  0  0  0  0
 15 19  1  0  0  0  0
 16 17  1  0  0  0  0
 16 15  1  0  0  0  0
 17 18  1  0  0  0  0
 19 18  1  0  0  0  0
M  END
>  <minimizedAffinity>
-4.7118659

$$$$

 OpenBabel03242518513D

 19 20  0  0  0  0  0  0  0  0999 V2000
   39.3200   30.3260   42.6200 C   0  0  0  0  0  0  0  0  0  0  0  0
   38.9060   31.1600   41.5620 C   0  0  0  0  0  0  0  0  0  0  0  0
   37.8280   30.7040   40.7790 C   0  0  0  0  0  0  0  0  0  0  0  0
   37.2660   29.5020   41.0940 N   0  0  0  0  0  0  0  0  0  0  0  0
   37.6970   28.7360   42.1180 C   0  0  0  0  0  0  0  0  0  0  0  0
   38.7280   29.1530   42.8810 N   0  0  0  0  0  0  0  0  0  0  0  0
   40.1360   30.6040   43.2630 H   0  0  0  0  0  0  0  0  0  0  0  0
   39.4310   32.0750   41.4230 H   0  0  0  0  0  0  0  0  0  0  0  0
   37.4160   31.5730   39.6970 C   0  0  0  0  0  0  0  0  0  0  0  0
   36.3500   30.9910   39.0120 F   0  0  0  0  0  0  0  0  0  0  0  0
   38.4560   31.6020   38.7810 F   0  0  0  0  0  0  0  0  0  0  0  0
   37.0490   32.8260   40.0980 F   0  0  0  0  0  0  0  0  0  0  0  0
   37.0850   27.4590   42.4360 C   0  0  0  0  0  0  0  0  0  0  0  0
   36.3960   27.2840   43.4610 O   0  0  0  0  0  0  0  0  0  0  0  0
   37.2480   26.2750   41.5430 C   0  0  0  0  0  3  0  0  0  0  0  0
   38.7260   26.0600   41.2920 C   0  0  0  0  0  2  0  0  0  0  0  0
   39.0650   24.7120   41.8880 C   0  0  0  0  0  2  0  0  0  0  0  0
   37.7480   23.9760   41.7270 C   0  0  0  0  0  2  0  0  0  0  0  0
   36.7710   25.0140   42.2610 C   0  0  0  0  0  2  0  0  0  0  0  0
  1  6  1  0  0  0  0
  1  7  1  0  0  0  0
  2  1  2  0  0  0  0
  3  4  2  0  0  0  0
  3  2  1  0  0  0  0
  4  5  1  0  0  0  0
  5 13  1  0  0  0  0
  5  6  2  0  0  0  0
  8  2  1  0  0  0  0
  9 12  1  0  0  0  0
  9  3  1  0  0  0  0
 10  9  1  0  0  0  0
 11  9  1  0  0  0  0
 13 14  2  0  0  0  0
 15 19  1  0  0  0  0
 15 13  1  0  0  0  0
 16 15  1  0  0  0  0
 16 17  1  0  0  0  0
 18 17  1  0  0  0  0
 18 19  1  0  0  0  0
M  END
>  <minimizedAffinity>
-4.67379665

$$$$

 OpenBabel03242518513D

 19 20  0  0  0  0  0  0  0  0999 V2000
   36.5270   30.4170   38.5550 C   0  0  0  0  0  0  0  0  0  0  0  0
   37.0440   31.7140   38.7520 C   0  0  0  0  0  0  0  0  0  0  0  0
   37.8720   31.9020   39.8750 C   0  0  0  0  0  0  0  0  0  0  0  0
   38.1140   30.8310   40.6850 N   0  0  0  0  0  0  0  0  0  0  0  0
   37.5970   29.6060   40.4550 C   0  0  0  0  0  0  0  0  0  0  0  0
   36.8010   29.4020   39.3860 N   0  0  0  0  0  0  0  0  0  0  0  0
   35.8870   30.1930   37.7200 H   0  0  0  0  0  0  0  0  0  0  0  0
   36.7770   32.4620   38.0450 H   0  0  0  0  0  0  0  0  0  0  0  0
   38.3940   33.2390   40.0630 C   0  0  0  0  0  0  0  0  0  0  0  0
   38.7240   33.4270   41.4050 F   0  0  0  0  0  0  0  0  0  0  0  0
   37.3500   34.1200   39.8260 F   0  0  0  0  0  0  0  0  0  0  0  0
   39.4890   33.5230   39.2970 F   0  0  0  0  0  0  0  0  0  0  0  0
   37.8670   28.4790   41.3290 C   0  0  0  0  0  0  0  0  0  0  0  0
   38.7370   28.5190   42.2220 O   0  0  0  0  0  0  0  0  0  0  0  0
   37.1080   27.2000   41.2050 C   0  0  0  0  0  3  0  0  0  0  0  0
   37.9470   26.2160   40.4190 C   0  0  0  0  0  2  0  0  0  0  0  0
   38.2500   25.0700   41.3590 C   0  0  0  0  0  2  0  0  0  0  0  0
   37.0230   25.0860   42.2500 C   0  0  0  0  0  2  0  0  0  0  0  0
   36.9290   26.5690   42.5840 C   0  0  0  0  0  2  0  0  0  0  0  0
  1  2  2  0  0  0  0
  1  6  1  0  0  0  0
  2  3  1  0  0  0  0
  3  9  1  0  0  0  0
  3  4  2  0  0  0  0
  5  4  1  0  0  0  0
  5 13  1  0  0  0  0
  6  5  2  0  0  0  0
  7  1  1  0  0  0  0
  8  2  1  0  0  0  0
  9 10  1  0  0  0  0
 11  9  1  0  0  0  0
 12  9  1  0  0  0  0
 13 14  2  0  0  0  0
 15 13  1  0  0  0  0
 15 19  1  0  0  0  0
 16 15  1  0  0  0  0
 16 17  1  0  0  0  0
 17 18  1  0  0  0  0
 18 19  1  0  0  0  0
M  END
>  <minimizedAffinity>
-4.54496431

$$$$

 OpenBabel03242518513D

 19 20  0  0  0  0  0  0  0  0999 V2000
   36.1710   29.7570   39.6940 C   0  0  0  0  0  0  0  0  0  0  0  0
   36.6490   31.0640   39.4700 C   0  0  0  0  0  0  0  0  0  0  0  0
   37.5940   31.5600   40.3880 C   0  0  0  0  0  0  0  0  0  0  0  0
   37.9780   30.7520   41.4180 N   0  0  0  0  0  0  0  0  0  0  0  0
   37.4920   29.5040   41.5920 C   0  0  0  0  0  0  0  0  0  0  0  0
   36.5860   29.0090   40.7250 N   0  0  0  0  0  0  0  0  0  0  0  0
   35.4480   29.3080   39.0370 H   0  0  0  0  0  0  0  0  0  0  0  0
   36.2660   31.5890   38.6280 H   0  0  0  0  0  0  0  0  0  0  0  0
   38.0730   32.9040   40.1440 C   0  0  0  0  0  0  0  0  0  0  0  0
   37.0040   33.7190   39.7710 F   0  0  0  0  0  0  0  0  0  0  0  0
   38.8860   32.8480   39.0220 F   0  0  0  0  0  0  0  0  0  0  0  0
   38.7080   33.4720   41.2110 F   0  0  0  0  0  0  0  0  0  0  0  0
   37.9140   28.6610   42.6950 C   0  0  0  0  0  0  0  0  0  0  0  0
   37.1730   28.4060   43.6650 O   0  0  0  0  0  0  0  0  0  0  0  0
   39.2740   28.0450   42.7270 C   0  0  0  0  0  3  0  0  0  0  0  0
   39.2490   26.8690   43.6800 C   0  0  0  0  0  2  0  0  0  0  0  0
   39.5360   25.6410   42.8440 C   0  0  0  0  0  2  0  0  0  0  0  0
   40.4130   26.2230   41.7530 C   0  0  0  0  0  2  0  0  0  0  0  0
   39.6050   27.4520   41.3590 C   0  0  0  0  0  2  0  0  0  0  0  0
  1  6  1  0  0  0  0
  2  1  2  0  0  0  0
  2  3  1  0  0  0  0
  3  4  2  0  0  0  0
  4  5  1  0  0  0  0
  5 13  1  0  0  0  0
  6  5  2  0  0  0  0
  7  1  1  0  0  0  0
  8  2  1  0  0  0  0
  9  3  1  0  0  0  0
  9 12  1  0  0  0  0
 10  9  1  0  0  0  0
 11  9  1  0  0  0  0
 13 15  1  0  0  0  0
 13 14  2  0  0  0  0
 15 16  1  0  0  0  0
 17 16  1  0  0  0  0
 18 17  1  0  0  0  0
 19 18  1  0  0  0  0
 19 15  1  0  0  0  0
M  END
>  <minimizedAffinity>
-4.51575041

$$$$

 OpenBabel03242518513D

 19 20  0  0  0  0  0  0  0  0999 V2000
   37.5850   26.7060   39.3740 C   0  0  0  0  0  0  0  0  0  0  0  0
   36.5500   27.3100   38.6310 C   0  0  0  0  0  0  0  0  0  0  0  0
   35.6450   28.1180   39.3460 C   0  0  0  0  0  0  0  0  0  0  0  0
   35.8290   28.2580   40.6900 N   0  0  0  0  0  0  0  0  0  0  0  0
   36.8370   27.6600   41.3600 C   0  0  0  0  0  0  0  0  0  0  0  0
   37.7160   26.8810   40.6960 N   0  0  0  0  0  0  0  0  0  0  0  0
   38.3160   26.0750   38.9000 H   0  0  0  0  0  0  0  0  0  0  0  0
   36.5190   27.1170   37.5860 H   0  0  0  0  0  0  0  0  0  0  0  0
   34.5890   28.7290   38.5680 C   0  0  0  0  0  0  0  0  0  0  0  0
   35.1110   29.7870   37.8230 F   0  0  0  0  0  0  0  0  0  0  0  0
   33.7140   29.3230   39.4650 F   0  0  0  0  0  0  0  0  0  0  0  0
   33.9510   27.8690   37.7200 F   0  0  0  0  0  0  0  0  0  0  0  0
   37.0150   27.8230   42.7910 C   0  0  0  0  0  0  0  0  0  0  0  0
   36.2750   27.2650   43.6250 O   0  0  0  0  0  0  0  0  0  0  0  0
   38.1060   28.6770   43.3460 C   0  0  0  0  0  3  0  0  0  0  0  0
   39.3770   27.8570   43.4060 C   0  0  0  0  0  2  0  0  0  0  0  0
   40.3570   28.5260   42.4670 C   0  0  0  0  0  2  0  0  0  0  0  0
   39.9120   29.9730   42.5560 C   0  0  0  0  0  2  0  0  0  0  0  0
   38.4070   29.8230   42.3820 C   0  0  0  0  0  2  0  0  0  0  0  0
  1  6  1  0  0  0  0
  2  3  1  0  0  0  0
  2  1  2  0  0  0  0
  3  4  2  0  0  0  0
  4  5  1  0  0  0  0
  5 13  1  0  0  0  0
  6  5  2  0  0  0  0
  7  1  1  0  0  0  0
  8  2  1  0  0  0  0
  9  3  1  0  0  0  0
  9 11  1  0  0  0  0
 10  9  1  0  0  0  0
 12  9  1  0  0  0  0
 13 15  1  0  0  0  0
 13 14  2  0  0  0  0
 15 16  1  0  0  0  0
 17 18  1  0  0  0  0
 17 16  1  0  0  0  0
 19 18  1  0  0  0  0
 19 15  1  0  0  0  0
M  END
>  <minimizedAffinity>
-4.49337339

$$$$
