
 OpenBabel03252503433D

 30 32  0  0  1  0  0  0  0  0999 V2000
   45.2040   34.8130   44.7500 C   0  0  0  0  0  0  0  0  0  0  0  0
   45.7690   34.3650   43.5470 C   0  0  0  0  0  0  0  0  0  0  0  0
   46.3860   33.1070   43.5680 C   0  0  0  0  0  0  0  0  0  0  0  0
   46.4110   32.3960   44.7110 N   0  0  0  0  0  0  0  0  0  0  0  0
   45.8600   32.8540   45.8460 C   0  0  0  0  0  0  0  0  0  0  0  0
   45.2450   34.0760   45.8850 N   0  0  0  0  0  0  0  0  0  0  0  0
   44.7020   35.7480   44.8830 H   0  0  0  0  0  0  0  0  0  0  0  0
   46.8100   32.7860   42.6420 H   0  0  0  0  0  0  0  0  0  0  0  0
   47.3720   31.9100   47.5900 C   0  0  2  0  0  0  0  0  0  0  0  0
   45.9400   31.9800   47.0150 C   0  0  1  0  0  0  0  0  0  0  0  0
   45.2610   32.4250   48.1160 O   0  0  0  0  0  0  0  0  0  0  0  0
   45.6970   31.7050   49.1890 C   0  0  0  0  0  0  0  0  0  0  0  0
   47.0250   31.0710   48.8330 C   0  0  2  0  0  0  0  0  0  0  0  0
   48.0630   31.4100   46.9140 H   0  0  0  0  0  0  0  0  0  0  0  0
   45.6770   30.9420   46.7160 H   0  0  0  0  0  0  0  0  0  0  0  0
   45.9140   32.4380   50.0080 H   0  0  0  0  0  0  0  0  0  0  0  0
   44.9750   31.0020   49.6060 H   0  0  0  0  0  0  0  0  0  0  0  0
   46.8290   30.0360   48.4880 H   0  0  0  0  0  0  0  0  0  0  0  0
   47.7380   33.1350   48.0380 O   0  0  0  0  0  0  0  0  0  0  0  0
   46.9730   33.6710   48.3260 H   0  0  0  0  0  0  0  0  0  0  0  0
   47.9800   31.1550   49.8050 O   0  0  0  0  0  0  0  0  0  0  0  0
   48.8440   30.9490   49.3960 H   0  0  0  0  0  0  0  0  0  0  0  0
   45.6580   35.2590   42.3870 C   0  0  0  0  0  0  0  0  0  0  0  0
   45.5450   36.3000   42.6630 H   0  0  0  0  0  0  0  0  0  0  0  0
   46.6140   35.1780   41.8200 H   0  0  0  0  0  0  0  0  0  0  0  0
   44.5920   34.7570   41.4400 C   0  0  0  0  0  3  0  0  0  0  0  0
   43.4590   35.7720   41.3150 C   0  0  0  0  0  2  0  0  0  0  0  0
   42.1740   34.9990   41.4580 C   0  0  0  0  0  2  0  0  0  0  0  0
   42.6060   33.5900   41.1050 C   0  0  0  0  0  2  0  0  0  0  0  0
   43.9160   33.4960   41.8990 C   0  0  0  0  0  2  0  0  0  0  0  0
  1  7  1  0  0  0  0
  1  6  1  0  0  0  0
  2  3  1  0  0  0  0
  2  1  2  0  0  0  0
  3  4  2  0  0  0  0
  4  5  1  0  0  0  0
  5  6  2  0  0  0  0
  5 10  1  0  0  0  0
  8  3  1  0  0  0  0
  9 14  1  6  0  0  0
  9 19  1  0  0  0  0
  9 13  1  0  0  0  0
 10 15  1  6  0  0  0
 10  9  1  0  0  0  0
 10 11  1  0  0  0  0
 11 12  1  0  0  0  0
 12 17  1  0  0  0  0
 12 16  1  0  0  0  0
 13 18  1  6  0  0  0
 13 12  1  0  0  0  0
 13 21  1  0  0  0  0
 19 20  1  0  0  0  0
 22 21  1  0  0  0  0
 23 24  1  0  0  0  0
 23  2  1  0  0  0  0
 25 23  1  0  0  0  0
 26 30  1  0  0  0  0
 26 23  1  0  0  0  0
 27 26  1  0  0  0  0
 27 28  1  0  0  0  0
 29 28  1  0  0  0  0
 29 30  1  0  0  0  0
M  END
>  <minimizedAffinity>
-5.83875847

>  <minimizedRMSD>
1.25902951

$$$$
