
 OpenBabel03252509343D

 39 41  0  0  1  0  0  0  0  0999 V2000
   36.3700   30.4730   39.6360 C   0  0  1  0  0  0  0  0  0  0  0  0
   36.4580   29.8290   38.2650 C   0  0  0  0  0  0  0  0  0  0  0  0
   35.0440   29.3400   38.0750 C   0  0  0  0  0  0  0  0  0  0  0  0
   34.4930   29.1070   39.4560 C   0  0  0  0  0  0  0  0  0  0  0  0
   35.6410   29.3940   40.4110 C   0  0  1  0  0  0  0  0  0  0  0  0
   35.7330   31.3620   39.5380 H   0  0  0  0  0  0  0  0  0  0  0  0
   37.2250   29.0610   38.2090 H   0  0  0  0  0  0  0  0  0  0  0  0
   36.6650   30.6660   37.5610 H   0  0  0  0  0  0  0  0  0  0  0  0
   34.4320   30.0190   37.4560 H   0  0  0  0  0  0  0  0  0  0  0  0
   35.0550   28.3520   37.5680 H   0  0  0  0  0  0  0  0  0  0  0  0
   34.0800   28.1090   39.6030 H   0  0  0  0  0  0  0  0  0  0  0  0
   33.7030   29.8920   39.6300 H   0  0  0  0  0  0  0  0  0  0  0  0
   35.2710   29.7830   41.3840 H   0  0  0  0  0  0  0  0  0  0  0  0
   36.4950   28.1820   40.6470 C   0  0  0  0  0  0  0  0  0  0  0  0
   36.0020   27.3200   40.1490 H   0  0  0  0  0  0  0  0  0  0  0  0
   37.5040   28.2740   40.2090 H   0  0  0  0  0  0  0  0  0  0  0  0
   36.5880   27.8040   42.1060 C   0  0  0  0  0  3  0  0  0  0  0  0
   37.0350   26.3410   42.1300 C   0  0  0  0  0  2  0  0  0  0  0  0
   38.4720   26.3970   42.6490 C   0  0  0  0  0  2  0  0  0  0  0  0
   38.3170   27.5180   43.6780 C   0  0  0  0  0  2  0  0  0  0  0  0
   37.6380   28.5810   42.8420 C   0  0  0  0  0  2  0  0  0  0  0  0
   37.6200   30.7500   40.1710 O   0  0  0  0  0  0  0  0  0  0  0  0
   38.5350   32.2970   38.2990 O   0  0  0  0  0  0  0  0  0  0  0  0
   38.0840   32.3060   39.7410 P   0  0  1  0  0  0  0  0  0  0  0  0
   36.8280   33.3960   40.0080 O   0  0  0  0  0  0  0  0  0  0  0  0
   36.3120   33.4450   39.1450 H   0  0  0  0  0  0  0  0  0  0  0  0
   39.3450   32.8020   40.7330 O   0  0  0  0  0  0  0  0  0  0  0  0
   39.7510   34.0390   40.3480 C   0  0  0  0  0  0  0  0  0  0  0  0
   39.7810   34.6600   41.2940 H   0  0  0  0  0  0  0  0  0  0  0  0
   39.1300   34.6070   39.6650 H   0  0  0  0  0  0  0  0  0  0  0  0
   43.4680   34.0050   40.2940 C   0  0  0  0  0  0  0  0  0  0  0  0
   42.1530   33.9860   40.7860 C   0  0  0  0  0  0  0  0  0  0  0  0
   41.1390   34.0560   39.8550 C   0  0  0  0  0  0  0  0  0  0  0  0
   41.4550   34.1390   38.5220 N   0  0  0  0  0  0  0  0  0  0  0  0
   42.7240   34.1560   38.0840 C   0  0  0  0  0  0  0  0  0  0  0  0
   43.7200   34.0880   38.9700 N   0  0  0  0  0  0  0  0  0  0  0  0
   44.2680   33.9490   41.0320 H   0  0  0  0  0  0  0  0  0  0  0  0
   42.0130   33.9180   41.8560 H   0  0  0  0  0  0  0  0  0  0  0  0
   42.9180   34.2220   37.0220 H   0  0  0  0  0  0  0  0  0  0  0  0
  1  6  1  6  0  0  0
  1 22  1  0  0  0  0
  1  5  1  0  0  0  0
  2  1  1  0  0  0  0
  3  2  1  0  0  0  0
  3  4  1  0  0  0  0
  4 11  1  0  0  0  0
  4 12  1  0  0  0  0
  4  5  1  0  0  0  0
  5 14  1  0  0  0  0
  5 13  1  1  0  0  0
  7  2  1  0  0  0  0
  8  2  1  0  0  0  0
  9  3  1  0  0  0  0
 10  3  1  0  0  0  0
 14 17  1  0  0  0  0
 15 14  1  0  0  0  0
 16 14  1  0  0  0  0
 17 18  1  0  0  0  0
 17 21  1  0  0  0  0
 18 19  1  0  0  0  0
 19 20  1  0  0  0  0
 21 20  1  0  0  0  0
 24 23  2  6  0  0  0
 24 25  1  0  0  0  0
 24 22  1  0  0  0  0
 24 27  1  0  0  0  0
 26 25  1  0  0  0  0
 28 27  1  0  0  0  0
 28 29  1  0  0  0  0
 30 28  1  0  0  0  0
 31 32  1  0  0  0  0
 31 37  1  0  0  0  0
 32 38  1  0  0  0  0
 33 28  1  0  0  0  0
 33 32  2  0  0  0  0
 34 33  1  0  0  0  0
 35 34  2  0  0  0  0
 35 36  1  0  0  0  0
 36 31  2  0  0  0  0
 39 35  1  0  0  0  0
M  END
>  <minimizedAffinity>
-5.66282034

$$$$

 OpenBabel03252509343D

 39 41  0  0  1  0  0  0  0  0999 V2000
   37.1670   28.1770   41.9610 C   0  0  1  0  0  0  0  0  0  0  0  0
   37.1910   27.9120   43.4550 C   0  0  0  0  0  0  0  0  0  0  0  0
   38.6510   27.6080   43.6790 C   0  0  0  0  0  0  0  0  0  0  0  0
   39.1700   27.0650   42.3760 C   0  0  0  0  0  0  0  0  0  0  0  0
   37.9660   26.9950   41.4490 C   0  0  1  0  0  0  0  0  0  0  0  0
   37.7200   29.1100   41.7870 H   0  0  0  0  0  0  0  0  0  0  0  0
   36.5020   27.1260   43.7530 H   0  0  0  0  0  0  0  0  0  0  0  0
   36.9320   28.8850   43.9290 H   0  0  0  0  0  0  0  0  0  0  0  0
   39.2170   28.4730   44.0640 H   0  0  0  0  0  0  0  0  0  0  0  0
   38.7520   26.7900   44.4260 H   0  0  0  0  0  0  0  0  0  0  0  0
   39.6700   26.1000   42.4680 H   0  0  0  0  0  0  0  0  0  0  0  0
   39.8750   27.8380   41.9580 H   0  0  0  0  0  0  0  0  0  0  0  0
   38.2620   27.1430   40.3890 H   0  0  0  0  0  0  0  0  0  0  0  0
   37.2220   25.6980   41.5870 C   0  0  0  0  0  0  0  0  0  0  0  0
   37.7970   25.0530   42.2870 H   0  0  0  0  0  0  0  0  0  0  0  0
   36.2140   25.8240   42.0180 H   0  0  0  0  0  0  0  0  0  0  0  0
   37.1500   24.9230   40.2940 C   0  0  0  0  0  3  0  0  0  0  0  0
   38.4730   24.1600   40.1910 C   0  0  0  0  0  2  0  0  0  0  0  0
   38.0820   22.6990   40.4170 C   0  0  0  0  0  2  0  0  0  0  0  0
   36.7430   22.6870   39.6770 C   0  0  0  0  0  2  0  0  0  0  0  0
   36.0640   23.8890   40.2960 C   0  0  0  0  0  2  0  0  0  0  0  0
   35.8780   28.2000   41.4480 O   0  0  0  0  0  0  0  0  0  0  0  0
   34.4780   29.3480   39.5890 O   0  0  0  0  0  0  0  0  0  0  0  0
   35.6860   29.5530   40.4720 P   0  0  1  0  0  0  0  0  0  0  0  0
   35.5610   30.9490   41.4080 O   0  0  0  0  0  0  0  0  0  0  0  0
   34.5780   31.0850   41.5760 H   0  0  0  0  0  0  0  0  0  0  0  0
   37.0610   29.7530   39.5270 O   0  0  0  0  0  0  0  0  0  0  0  0
   36.9510   30.9110   38.8260 C   0  0  0  0  0  0  0  0  0  0  0  0
   35.9690   31.3730   39.1500 H   0  0  0  0  0  0  0  0  0  0  0  0
   36.8930   30.8680   37.7450 H   0  0  0  0  0  0  0  0  0  0  0  0
   40.1360   32.8250   38.9370 C   0  0  0  0  0  0  0  0  0  0  0  0
   39.1820   31.8680   38.5570 C   0  0  0  0  0  0  0  0  0  0  0  0
   37.9670   31.9070   39.2070 C   0  0  0  0  0  0  0  0  0  0  0  0
   37.7530   32.8570   40.1730 N   0  0  0  0  0  0  0  0  0  0  0  0
   38.6880   33.7600   40.5140 C   0  0  0  0  0  0  0  0  0  0  0  0
   39.8700   33.7380   39.8950 N   0  0  0  0  0  0  0  0  0  0  0  0
   41.0960   32.7920   38.4210 H   0  0  0  0  0  0  0  0  0  0  0  0
   39.4520   31.1620   37.7840 H   0  0  0  0  0  0  0  0  0  0  0  0
   38.4660   34.4880   41.2820 H   0  0  0  0  0  0  0  0  0  0  0  0
  1  6  1  6  0  0  0
  1  2  1  0  0  0  0
  2  3  1  0  0  0  0
  2  7  1  0  0  0  0
  2  8  1  0  0  0  0
  3  9  1  0  0  0  0
  3 10  1  0  0  0  0
  4 11  1  0  0  0  0
  4  3  1  0  0  0  0
  5 13  1  6  0  0  0
  5 14  1  0  0  0  0
  5  1  1  0  0  0  0
  5  4  1  0  0  0  0
 12  4  1  0  0  0  0
 14 16  1  0  0  0  0
 14 15  1  0  0  0  0
 17 21  1  0  0  0  0
 17 14  1  0  0  0  0
 18 17  1  0  0  0  0
 18 19  1  0  0  0  0
 20 21  1  0  0  0  0
 20 19  1  0  0  0  0
 22  1  1  0  0  0  0
 24 23  2  6  0  0  0
 24 25  1  0  0  0  0
 24 22  1  0  0  0  0
 25 26  1  0  0  0  0
 27 24  1  0  0  0  0
 28 29  1  0  0  0  0
 28 33  1  0  0  0  0
 28 27  1  0  0  0  0
 30 28  1  0  0  0  0
 31 36  1  0  0  0  0
 32 31  2  0  0  0  0
 32 33  1  0  0  0  0
 33 34  2  0  0  0  0
 34 35  1  0  0  0  0
 35 39  1  0  0  0  0
 36 35  2  0  0  0  0
 37 31  1  0  0  0  0
 38 32  1  0  0  0  0
M  END
>  <minimizedAffinity>
-5.65444088

$$$$

 OpenBabel03252509343D

 39 41  0  0  1  0  0  0  0  0999 V2000
   37.3580   28.9990   41.8350 C   0  0  1  0  0  0  0  0  0  0  0  0
   36.9540   27.6570   41.2530 C   0  0  0  0  0  0  0  0  0  0  0  0
   36.5910   26.8900   42.4990 C   0  0  0  0  0  0  0  0  0  0  0  0
   37.3970   27.4980   43.6150 C   0  0  0  0  0  0  0  0  0  0  0  0
   38.2710   28.5570   42.9620 C   0  0  1  0  0  0  0  0  0  0  0  0
   36.4510   29.4630   42.2450 H   0  0  0  0  0  0  0  0  0  0  0  0
   37.7360   27.2110   40.6450 H   0  0  0  0  0  0  0  0  0  0  0  0
   36.0370   27.8630   40.6560 H   0  0  0  0  0  0  0  0  0  0  0  0
   35.5040   26.8680   42.6900 H   0  0  0  0  0  0  0  0  0  0  0  0
   36.9290   25.8360   42.4010 H   0  0  0  0  0  0  0  0  0  0  0  0
   37.9860   26.7740   44.1780 H   0  0  0  0  0  0  0  0  0  0  0  0
   36.6690   28.0290   44.2920 H   0  0  0  0  0  0  0  0  0  0  0  0
   38.4800   29.3960   43.6590 H   0  0  0  0  0  0  0  0  0  0  0  0
   39.5670   27.9880   42.4590 C   0  0  0  0  0  0  0  0  0  0  0  0
   39.3440   27.4030   41.5410 H   0  0  0  0  0  0  0  0  0  0  0  0
   40.2980   28.7650   42.1770 H   0  0  0  0  0  0  0  0  0  0  0  0
   40.1880   27.0040   43.4210 C   0  0  0  0  0  3  0  0  0  0  0  0
   40.1240   25.6430   42.7240 C   0  0  0  0  0  2  0  0  0  0  0  0
   41.5790   25.3330   42.3710 C   0  0  0  0  0  2  0  0  0  0  0  0
   42.2600   25.9010   43.6180 C   0  0  0  0  0  2  0  0  0  0  0  0
   41.6390   27.2810   43.6780 C   0  0  0  0  0  2  0  0  0  0  0  0
   38.0150   29.8000   40.9130 O   0  0  0  0  0  0  0  0  0  0  0  0
   36.6410   30.8040   38.9530 O   0  0  0  0  0  0  0  0  0  0  0  0
   36.9880   31.0290   40.4050 P   0  0  1  0  0  0  0  0  0  0  0  0
   35.6190   31.1030   41.3840 O   0  0  0  0  0  0  0  0  0  0  0  0
   34.9300   30.5160   40.9440 H   0  0  0  0  0  0  0  0  0  0  0  0
   37.7650   32.5090   40.5860 O   0  0  0  0  0  0  0  0  0  0  0  0
   38.5960   32.7030   39.5300 C   0  0  0  0  0  0  0  0  0  0  0  0
   38.2640   33.6750   39.0540 H   0  0  0  0  0  0  0  0  0  0  0  0
   38.5950   31.9840   38.7200 H   0  0  0  0  0  0  0  0  0  0  0  0
   42.0140   34.1590   39.6780 C   0  0  0  0  0  0  0  0  0  0  0  0
   40.6890   33.9370   39.2720 C   0  0  0  0  0  0  0  0  0  0  0  0
   39.9890   32.9540   39.9390 C   0  0  0  0  0  0  0  0  0  0  0  0
   40.6070   32.2550   40.9450 N   0  0  0  0  0  0  0  0  0  0  0  0
   41.8780   32.4910   41.3080 C   0  0  0  0  0  0  0  0  0  0  0  0
   42.5710   33.4390   40.6750 N   0  0  0  0  0  0  0  0  0  0  0  0
   42.5640   34.9360   39.1490 H   0  0  0  0  0  0  0  0  0  0  0  0
   40.2960   34.5440   38.4680 H   0  0  0  0  0  0  0  0  0  0  0  0
   42.3170   31.9110   42.1080 H   0  0  0  0  0  0  0  0  0  0  0  0
  1  6  1  1  0  0  0
  1  5  1  0  0  0  0
  2  1  1  0  0  0  0
  2  3  1  0  0  0  0
  3  9  1  0  0  0  0
  3  4  1  0  0  0  0
  4 11  1  0  0  0  0
  4 12  1  0  0  0  0
  5  4  1  0  0  0  0
  5 13  1  1  0  0  0
  7  2  1  0  0  0  0
  8  2  1  0  0  0  0
 10  3  1  0  0  0  0
 14  5  1  0  0  0  0
 14 17  1  0  0  0  0
 15 14  1  0  0  0  0
 16 14  1  0  0  0  0
 17 21  1  0  0  0  0
 18 17  1  0  0  0  0
 19 18  1  0  0  0  0
 19 20  1  0  0  0  0
 20 21  1  0  0  0  0
 22  1  1  0  0  0  0
 24 23  2  6  0  0  0
 24 27  1  0  0  0  0
 24 22  1  0  0  0  0
 24 25  1  0  0  0  0
 26 25  1  0  0  0  0
 28 33  1  0  0  0  0
 28 27  1  0  0  0  0
 29 28  1  0  0  0  0
 30 28  1  0  0  0  0
 31 36  1  0  0  0  0
 32 31  2  0  0  0  0
 32 33  1  0  0  0  0
 33 34  2  0  0  0  0
 34 35  1  0  0  0  0
 35 39  1  0  0  0  0
 36 35  2  0  0  0  0
 37 31  1  0  0  0  0
 38 32  1  0  0  0  0
M  END
>  <minimizedAffinity>
-5.52361155

$$$$

 OpenBabel03252509343D

 39 41  0  0  1  0  0  0  0  0999 V2000
   38.1020   28.7510   41.4570 C   0  0  1  0  0  0  0  0  0  0  0  0
   38.5290   29.5370   42.6820 C   0  0  0  0  0  0  0  0  0  0  0  0
   40.0300   29.4040   42.6130 C   0  0  0  0  0  0  0  0  0  0  0  0
   40.3020   28.1170   41.8830 C   0  0  0  0  0  0  0  0  0  0  0  0
   38.9390   27.4970   41.6180 C   0  0  1  0  0  0  0  0  0  0  0  0
   38.4350   29.3150   40.5750 H   0  0  0  0  0  0  0  0  0  0  0  0
   38.0730   29.1700   43.5980 H   0  0  0  0  0  0  0  0  0  0  0  0
   38.2340   30.5900   42.4710 H   0  0  0  0  0  0  0  0  0  0  0  0
   40.5210   30.2860   42.1670 H   0  0  0  0  0  0  0  0  0  0  0  0
   40.4410   29.2800   43.6380 H   0  0  0  0  0  0  0  0  0  0  0  0
   40.9620   27.4360   42.4210 H   0  0  0  0  0  0  0  0  0  0  0  0
   40.7470   28.3950   40.8850 H   0  0  0  0  0  0  0  0  0  0  0  0
   38.9410   26.8970   40.6830 H   0  0  0  0  0  0  0  0  0  0  0  0
   38.4760   26.6420   42.7620 C   0  0  0  0  0  0  0  0  0  0  0  0
   39.2460   26.7030   43.5610 H   0  0  0  0  0  0  0  0  0  0  0  0
   37.5260   26.9910   43.2030 H   0  0  0  0  0  0  0  0  0  0  0  0
   38.3830   25.1790   42.4020 C   0  0  0  0  0  3  0  0  0  0  0  0
   36.8950   24.8960   42.1910 C   0  0  0  0  0  2  0  0  0  0  0  0
   36.7640   24.6810   40.6820 C   0  0  0  0  0  2  0  0  0  0  0  0
   38.0740   23.9340   40.4270 C   0  0  0  0  0  2  0  0  0  0  0  0
   39.0650   24.8560   41.1070 C   0  0  0  0  0  2  0  0  0  0  0  0
   36.7420   28.4760   41.4520 O   0  0  0  0  0  0  0  0  0  0  0  0
   34.7170   28.9810   39.9080 O   0  0  0  0  0  0  0  0  0  0  0  0
   35.9420   29.6210   40.5190 P   0  0  1  0  0  0  0  0  0  0  0  0
   35.5590   30.9780   41.4420 O   0  0  0  0  0  0  0  0  0  0  0  0
   34.6360   30.8130   41.8090 H   0  0  0  0  0  0  0  0  0  0  0  0
   36.9700   30.1640   39.3060 O   0  0  0  0  0  0  0  0  0  0  0  0
   36.8760   31.5160   39.2180 C   0  0  0  0  0  0  0  0  0  0  0  0
   36.1110   31.8200   39.9950 H   0  0  0  0  0  0  0  0  0  0  0  0
   36.5240   31.9600   38.2950 H   0  0  0  0  0  0  0  0  0  0  0  0
   39.2090   34.1610   40.3940 C   0  0  0  0  0  0  0  0  0  0  0  0
   38.0190   33.5270   40.0020 C   0  0  0  0  0  0  0  0  0  0  0  0
   38.1120   32.2020   39.6340 C   0  0  0  0  0  0  0  0  0  0  0  0
   39.3340   31.5790   39.6660 N   0  0  0  0  0  0  0  0  0  0  0  0
   40.4540   32.2160   40.0460 C   0  0  0  0  0  0  0  0  0  0  0  0
   40.3850   33.4980   40.4060 N   0  0  0  0  0  0  0  0  0  0  0  0
   39.1330   35.2090   40.6840 H   0  0  0  0  0  0  0  0  0  0  0  0
   37.1070   34.1090   40.0120 H   0  0  0  0  0  0  0  0  0  0  0  0
   41.3920   31.6770   40.0530 H   0  0  0  0  0  0  0  0  0  0  0  0
  1  6  1  6  0  0  0
  1  5  1  0  0  0  0
  1  2  1  0  0  0  0
  2  7  1  0  0  0  0
  3  2  1  0  0  0  0
  3 10  1  0  0  0  0
  4 11  1  0  0  0  0
  4  3  1  0  0  0  0
  5 13  1  6  0  0  0
  5  4  1  0  0  0  0
  5 14  1  0  0  0  0
  8  2  1  0  0  0  0
  9  3  1  0  0  0  0
 12  4  1  0  0  0  0
 14 16  1  0  0  0  0
 14 15  1  0  0  0  0
 17 14  1  0  0  0  0
 18 17  1  0  0  0  0
 19 18  1  0  0  0  0
 20 19  1  0  0  0  0
 20 21  1  0  0  0  0
 21 17  1  0  0  0  0
 22  1  1  0  0  0  0
 24 23  2  6  0  0  0
 24 25  1  0  0  0  0
 24 22  1  0  0  0  0
 25 26  1  0  0  0  0
 27 24  1  0  0  0  0
 28 27  1  0  0  0  0
 28 33  1  0  0  0  0
 28 29  1  0  0  0  0
 30 28  1  0  0  0  0
 31 36  1  0  0  0  0
 31 37  1  0  0  0  0
 32 38  1  0  0  0  0
 32 31  2  0  0  0  0
 33 34  2  0  0  0  0
 33 32  1  0  0  0  0
 34 35  1  0  0  0  0
 35 39  1  0  0  0  0
 35 36  2  0  0  0  0
M  END
>  <minimizedAffinity>
-5.49136877

$$$$

 OpenBabel03252509343D

 39 41  0  0  1  0  0  0  0  0999 V2000
   38.0190   31.8280   40.6230 C   0  0  1  0  0  0  0  0  0  0  0  0
   39.1820   32.7940   40.4990 C   0  0  0  0  0  0  0  0  0  0  0  0
   38.4720   34.0650   40.1060 C   0  0  0  0  0  0  0  0  0  0  0  0
   37.2110   33.6400   39.4040 C   0  0  0  0  0  0  0  0  0  0  0  0
   37.2670   32.1210   39.3390 C   0  0  1  0  0  0  0  0  0  0  0  0
   37.4230   32.1440   41.4890 H   0  0  0  0  0  0  0  0  0  0  0  0
   39.9410   32.4520   39.8010 H   0  0  0  0  0  0  0  0  0  0  0  0
   39.5900   32.8940   41.5300 H   0  0  0  0  0  0  0  0  0  0  0  0
   38.3040   34.7460   40.9580 H   0  0  0  0  0  0  0  0  0  0  0  0
   39.0810   34.6170   39.3580 H   0  0  0  0  0  0  0  0  0  0  0  0
   37.0850   34.0850   38.4160 H   0  0  0  0  0  0  0  0  0  0  0  0
   36.3520   33.9190   40.0770 H   0  0  0  0  0  0  0  0  0  0  0  0
   36.2490   31.6770   39.3630 H   0  0  0  0  0  0  0  0  0  0  0  0
   38.0000   31.6350   38.1220 C   0  0  0  0  0  0  0  0  0  0  0  0
   38.1110   32.4960   37.4290 H   0  0  0  0  0  0  0  0  0  0  0  0
   39.0160   31.2700   38.3490 H   0  0  0  0  0  0  0  0  0  0  0  0
   37.2270   30.5940   37.3490 C   0  0  0  0  0  3  0  0  0  0  0  0
   38.2140   29.4570   37.0790 C   0  0  0  0  0  2  0  0  0  0  0  0
   37.7290   28.3170   37.9740 C   0  0  0  0  0  2  0  0  0  0  0  0
   36.2190   28.5210   37.8330 C   0  0  0  0  0  2  0  0  0  0  0  0
   36.1020   29.9990   38.1410 C   0  0  0  0  0  2  0  0  0  0  0  0
   38.4340   30.5060   40.6960 O   0  0  0  0  0  0  0  0  0  0  0  0
   38.1120   29.7540   43.1590 O   0  0  0  0  0  0  0  0  0  0  0  0
   37.4710   29.6750   41.7930 P   0  0  1  0  0  0  0  0  0  0  0  0
   35.9010   30.2850   41.7890 O   0  0  0  0  0  0  0  0  0  0  0  0
   35.8780   30.9990   42.4990 H   0  0  0  0  0  0  0  0  0  0  0  0
   37.3440   28.0700   41.3130 O   0  0  0  0  0  0  0  0  0  0  0  0
   37.1160   27.2980   42.4060 C   0  0  0  0  0  0  0  0  0  0  0  0
   36.1780   26.7070   42.1740 H   0  0  0  0  0  0  0  0  0  0  0  0
   36.9120   27.7780   43.3550 H   0  0  0  0  0  0  0  0  0  0  0  0
   40.1420   25.5520   43.6780 C   0  0  0  0  0  0  0  0  0  0  0  0
   39.1630   26.5440   43.5040 C   0  0  0  0  0  0  0  0  0  0  0  0
   38.1540   26.2710   42.6060 C   0  0  0  0  0  0  0  0  0  0  0  0
   38.1540   25.0730   41.9390 N   0  0  0  0  0  0  0  0  0  0  0  0
   39.1060   24.1450   42.1280 C   0  0  0  0  0  0  0  0  0  0  0  0
   40.0910   24.3900   42.9940 N   0  0  0  0  0  0  0  0  0  0  0  0
   40.9380   25.7700   44.3890 H   0  0  0  0  0  0  0  0  0  0  0  0
   39.2560   27.4550   44.0800 H   0  0  0  0  0  0  0  0  0  0  0  0
   39.0590   23.2160   41.5760 H   0  0  0  0  0  0  0  0  0  0  0  0
  1 22  1  0  0  0  0
  1  6  1  1  0  0  0
  2  1  1  0  0  0  0
  2  8  1  0  0  0  0
  3  2  1  0  0  0  0
  3  9  1  0  0  0  0
  4 12  1  0  0  0  0
  4  3  1  0  0  0  0
  5 13  1  1  0  0  0
  5  4  1  0  0  0  0
  5  1  1  0  0  0  0
  7  2  1  0  0  0  0
 10  3  1  0  0  0  0
 11  4  1  0  0  0  0
 14 16  1  0  0  0  0
 14  5  1  0  0  0  0
 15 14  1  0  0  0  0
 17 14  1  0  0  0  0
 17 21  1  0  0  0  0
 18 17  1  0  0  0  0
 18 19  1  0  0  0  0
 20 19  1  0  0  0  0
 20 21  1  0  0  0  0
 22 24  1  0  0  0  0
 24 23  2  1  0  0  0
 25 24  1  0  0  0  0
 25 26  1  0  0  0  0
 27 24  1  0  0  0  0
 27 28  1  0  0  0  0
 28 33  1  0  0  0  0
 28 30  1  0  0  0  0
 29 28  1  0  0  0  0
 31 37  1  0  0  0  0
 32 31  1  0  0  0  0
 32 38  1  0  0  0  0
 33 32  2  0  0  0  0
 34 35  2  0  0  0  0
 34 33  1  0  0  0  0
 35 36  1  0  0  0  0
 36 31  2  0  0  0  0
 39 35  1  0  0  0  0
M  END
>  <minimizedAffinity>
-5.3989501

$$$$

 OpenBabel03252509343D

 39 41  0  0  1  0  0  0  0  0999 V2000
   36.6360   30.9010   39.9220 C   0  0  1  0  0  0  0  0  0  0  0  0
   36.8710   30.3390   38.5320 C   0  0  0  0  0  0  0  0  0  0  0  0
   35.5500   29.6660   38.2560 C   0  0  0  0  0  0  0  0  0  0  0  0
   34.9810   29.2950   39.5980 C   0  0  0  0  0  0  0  0  0  0  0  0
   36.0360   29.6960   40.6180 C   0  0  1  0  0  0  0  0  0  0  0  0
   35.8830   31.6960   39.8280 H   0  0  0  0  0  0  0  0  0  0  0  0
   37.7410   29.6900   38.4830 H   0  0  0  0  0  0  0  0  0  0  0  0
   36.9860   31.2290   37.8730 H   0  0  0  0  0  0  0  0  0  0  0  0
   34.8750   30.2810   37.6350 H   0  0  0  0  0  0  0  0  0  0  0  0
   35.7230   28.7140   37.7110 H   0  0  0  0  0  0  0  0  0  0  0  0
   34.7090   28.2430   39.6860 H   0  0  0  0  0  0  0  0  0  0  0  0
   34.0810   29.9530   39.7650 H   0  0  0  0  0  0  0  0  0  0  0  0
   35.5740   29.9840   41.5870 H   0  0  0  0  0  0  0  0  0  0  0  0
   37.0430   28.6060   40.8470 C   0  0  0  0  0  0  0  0  0  0  0  0
   36.6950   27.7060   40.2960 H   0  0  0  0  0  0  0  0  0  0  0  0
   38.0440   28.8560   40.4560 H   0  0  0  0  0  0  0  0  0  0  0  0
   37.1330   28.1840   42.2930 C   0  0  0  0  0  3  0  0  0  0  0  0
   36.9810   26.6610   42.2930 C   0  0  0  0  0  2  0  0  0  0  0  0
   38.3740   26.1460   42.6570 C   0  0  0  0  0  2  0  0  0  0  0  0
   38.7710   27.2120   43.6790 C   0  0  0  0  0  2  0  0  0  0  0  0
   38.4710   28.4770   42.9020 C   0  0  0  0  0  2  0  0  0  0  0  0
   37.8090   31.3260   40.5270 O   0  0  0  0  0  0  0  0  0  0  0  0
   36.9940   33.4300   39.2450 O   0  0  0  0  0  0  0  0  0  0  0  0
   38.1720   32.8850   40.0180 P   0  0  1  0  0  0  0  0  0  0  0  0
   38.5780   33.8590   41.3310 O   0  0  0  0  0  0  0  0  0  0  0  0
   37.7200   34.2910   41.6340 H   0  0  0  0  0  0  0  0  0  0  0  0
   39.5340   32.8440   39.0350 O   0  0  0  0  0  0  0  0  0  0  0  0
   40.3090   31.7900   39.3980 C   0  0  0  0  0  0  0  0  0  0  0  0
   39.5920   30.9390   39.6030 H   0  0  0  0  0  0  0  0  0  0  0  0
   40.9130   31.8660   40.2940 H   0  0  0  0  0  0  0  0  0  0  0  0
   42.9090   31.6620   36.7430 C   0  0  0  0  0  0  0  0  0  0  0  0
   42.1150   32.1500   37.7920 C   0  0  0  0  0  0  0  0  0  0  0  0
   41.1550   31.2990   38.2960 C   0  0  0  0  0  0  0  0  0  0  0  0
   41.0230   30.0430   37.7600 N   0  0  0  0  0  0  0  0  0  0  0  0
   41.7990   29.6060   36.7540 C   0  0  0  0  0  0  0  0  0  0  0  0
   42.7340   30.4150   36.2530 N   0  0  0  0  0  0  0  0  0  0  0  0
   43.6670   32.3370   36.3470 H   0  0  0  0  0  0  0  0  0  0  0  0
   42.3010   33.1560   38.1430 H   0  0  0  0  0  0  0  0  0  0  0  0
   41.6530   28.6060   36.3680 H   0  0  0  0  0  0  0  0  0  0  0  0
  1  6  1  6  0  0  0
  1 22  1  0  0  0  0
  1  5  1  0  0  0  0
  2  1  1  0  0  0  0
  3  2  1  0  0  0  0
  3  4  1  0  0  0  0
  4 11  1  0  0  0  0
  4 12  1  0  0  0  0
  4  5  1  0  0  0  0
  5 14  1  0  0  0  0
  5 13  1  1  0  0  0
  7  2  1  0  0  0  0
  8  2  1  0  0  0  0
  9  3  1  0  0  0  0
 10  3  1  0  0  0  0
 14 17  1  0  0  0  0
 15 14  1  0  0  0  0
 16 14  1  0  0  0  0
 17 21  1  0  0  0  0
 18 17  1  0  0  0  0
 18 19  1  0  0  0  0
 19 20  1  0  0  0  0
 21 20  1  0  0  0  0
 24 23  2  6  0  0  0
 24 22  1  0  0  0  0
 24 25  1  0  0  0  0
 25 26  1  0  0  0  0
 27 28  1  0  0  0  0
 27 24  1  0  0  0  0
 28 29  1  0  0  0  0
 28 30  1  0  0  0  0
 31 32  1  0  0  0  0
 32 38  1  0  0  0  0
 32 33  2  0  0  0  0
 33 28  1  0  0  0  0
 34 33  1  0  0  0  0
 35 34  2  0  0  0  0
 36 31  2  0  0  0  0
 36 35  1  0  0  0  0
 37 31  1  0  0  0  0
 39 35  1  0  0  0  0
M  END
>  <minimizedAffinity>
-5.27960587

$$$$

 OpenBabel03252509343D

 39 41  0  0  1  0  0  0  0  0999 V2000
   37.9970   28.5770   39.3960 C   0  0  1  0  0  0  0  0  0  0  0  0
   39.3520   28.6880   38.7210 C   0  0  0  0  0  0  0  0  0  0  0  0
   39.4300   27.3710   37.9920 C   0  0  0  0  0  0  0  0  0  0  0  0
   38.5750   26.4100   38.7730 C   0  0  0  0  0  0  0  0  0  0  0  0
   38.0870   27.1840   39.9870 C   0  0  1  0  0  0  0  0  0  0  0  0
   37.2360   28.6020   38.6040 H   0  0  0  0  0  0  0  0  0  0  0  0
   40.1570   28.8770   39.4260 H   0  0  0  0  0  0  0  0  0  0  0  0
   39.2460   29.5190   37.9880 H   0  0  0  0  0  0  0  0  0  0  0  0
   39.1560   27.4520   36.9260 H   0  0  0  0  0  0  0  0  0  0  0  0
   40.4690   26.9800   38.0370 H   0  0  0  0  0  0  0  0  0  0  0  0
   39.0910   25.4910   39.0560 H   0  0  0  0  0  0  0  0  0  0  0  0
   37.6760   26.1780   38.1340 H   0  0  0  0  0  0  0  0  0  0  0  0
   37.0890   26.8280   40.3200 H   0  0  0  0  0  0  0  0  0  0  0  0
   39.0560   27.1090   41.1310 C   0  0  0  0  0  0  0  0  0  0  0  0
   39.7800   26.2960   40.9070 H   0  0  0  0  0  0  0  0  0  0  0  0
   39.6410   28.0350   41.2620 H   0  0  0  0  0  0  0  0  0  0  0  0
   38.3980   26.7140   42.4320 C   0  0  0  0  0  3  0  0  0  0  0  0
   38.7780   27.8020   43.4380 C   0  0  0  0  0  2  0  0  0  0  0  0
   37.4740   28.5630   43.6780 C   0  0  0  0  0  2  0  0  0  0  0  0
   36.4950   27.3880   43.6440 C   0  0  0  0  0  2  0  0  0  0  0  0
   36.9010   26.7160   42.3490 C   0  0  0  0  0  2  0  0  0  0  0  0
   37.8090   29.5480   40.3690 O   0  0  0  0  0  0  0  0  0  0  0  0
   35.5060   29.5850   39.1720 O   0  0  0  0  0  0  0  0  0  0  0  0
   36.4250   30.4340   40.0180 P   0  0  1  0  0  0  0  0  0  0  0  0
   35.6820   30.9620   41.4340 O   0  0  0  0  0  0  0  0  0  0  0  0
   35.0130   30.2510   41.6800 H   0  0  0  0  0  0  0  0  0  0  0  0
   36.8570   31.8240   39.1770 O   0  0  0  0  0  0  0  0  0  0  0  0
   37.4290   32.7020   40.0390 C   0  0  0  0  0  0  0  0  0  0  0  0
   37.4900   32.1610   41.0320 H   0  0  0  0  0  0  0  0  0  0  0  0
   36.9170   33.6310   40.2610 H   0  0  0  0  0  0  0  0  0  0  0  0
   40.7210   32.6540   38.3120 C   0  0  0  0  0  0  0  0  0  0  0  0
   39.3840   32.3540   38.6160 C   0  0  0  0  0  0  0  0  0  0  0  0
   38.8320   33.0020   39.7000 C   0  0  0  0  0  0  0  0  0  0  0  0
   39.5970   33.8890   40.4140 N   0  0  0  0  0  0  0  0  0  0  0  0
   40.8750   34.1540   40.0960 C   0  0  0  0  0  0  0  0  0  0  0  0
   41.4270   33.5370   39.0510 N   0  0  0  0  0  0  0  0  0  0  0  0
   41.1560   32.1400   37.4550 H   0  0  0  0  0  0  0  0  0  0  0  0
   38.8690   31.6390   37.9890 H   0  0  0  0  0  0  0  0  0  0  0  0
   41.4330   34.8620   40.6930 H   0  0  0  0  0  0  0  0  0  0  0  0
  1  6  1  6  0  0  0
  1  5  1  0  0  0  0
  1 22  1  0  0  0  0
  2  1  1  0  0  0  0
  2  7  1  0  0  0  0
  3 10  1  0  0  0  0
  3  2  1  0  0  0  0
  3  4  1  0  0  0  0
  4 11  1  0  0  0  0
  4  5  1  0  0  0  0
  5 13  1  1  0  0  0
  5 14  1  0  0  0  0
  8  2  1  0  0  0  0
  9  3  1  0  0  0  0
 12  4  1  0  0  0  0
 14 16  1  0  0  0  0
 14 17  1  0  0  0  0
 15 14  1  0  0  0  0
 17 18  1  0  0  0  0
 18 19  1  0  0  0  0
 20 19  1  0  0  0  0
 21 17  1  0  0  0  0
 21 20  1  0  0  0  0
 24 23  2  6  0  0  0
 24 22  1  0  0  0  0
 24 25  1  0  0  0  0
 25 26  1  0  0  0  0
 27 24  1  0  0  0  0
 27 28  1  0  0  0  0
 28 30  1  0  0  0  0
 28 29  1  0  0  0  0
 31 32  2  0  0  0  0
 31 36  1  0  0  0  0
 32 33  1  0  0  0  0
 33 28  1  0  0  0  0
 33 34  2  0  0  0  0
 35 34  1  0  0  0  0
 35 39  1  0  0  0  0
 36 35  2  0  0  0  0
 37 31  1  0  0  0  0
 38 32  1  0  0  0  0
M  END
>  <minimizedAffinity>
-5.23059797

$$$$

 OpenBabel03252509343D

 39 41  0  0  1  0  0  0  0  0999 V2000
   36.8400   27.6460   40.9680 C   0  0  1  0  0  0  0  0  0  0  0  0
   37.1970   26.2720   40.4320 C   0  0  0  0  0  0  0  0  0  0  0  0
   36.9450   25.4070   41.6420 C   0  0  0  0  0  0  0  0  0  0  0  0
   37.1450   26.2950   42.8400 C   0  0  0  0  0  0  0  0  0  0  0  0
   37.5890   27.6400   42.2870 C   0  0  1  0  0  0  0  0  0  0  0  0
   35.7570   27.6540   41.1490 H   0  0  0  0  0  0  0  0  0  0  0  0
   38.2060   26.2260   40.0310 H   0  0  0  0  0  0  0  0  0  0  0  0
   36.4350   26.0560   39.6500 H   0  0  0  0  0  0  0  0  0  0  0  0
   35.9640   24.9020   41.6140 H   0  0  0  0  0  0  0  0  0  0  0  0
   37.7220   24.6140   41.7020 H   0  0  0  0  0  0  0  0  0  0  0  0
   37.8540   25.9000   43.5680 H   0  0  0  0  0  0  0  0  0  0  0  0
   36.1320   26.4390   43.3120 H   0  0  0  0  0  0  0  0  0  0  0  0
   37.2550   28.4760   42.9380 H   0  0  0  0  0  0  0  0  0  0  0  0
   39.0770   27.7110   42.1010 C   0  0  0  0  0  0  0  0  0  0  0  0
   39.5100   26.7610   42.4820 H   0  0  0  0  0  0  0  0  0  0  0  0
   39.3750   27.7990   41.0420 H   0  0  0  0  0  0  0  0  0  0  0  0
   39.7190   28.8030   42.9220 C   0  0  0  0  0  3  0  0  0  0  0  0
   41.1640   28.9010   42.4270 C   0  0  0  0  0  2  0  0  0  0  0  0
   41.2140   30.2320   41.6760 C   0  0  0  0  0  2  0  0  0  0  0  0
   40.3020   31.0590   42.5840 C   0  0  0  0  0  2  0  0  0  0  0  0
   39.0980   30.1470   42.6870 C   0  0  0  0  0  2  0  0  0  0  0  0
   37.2640   28.6670   40.1300 O   0  0  0  0  0  0  0  0  0  0  0  0
   34.8090   29.1490   39.4380 O   0  0  0  0  0  0  0  0  0  0  0  0
   36.0480   29.8170   39.9870 P   0  0  1  0  0  0  0  0  0  0  0  0
   35.7640   30.5690   41.4680 O   0  0  0  0  0  0  0  0  0  0  0  0
   35.0360   30.0360   41.9150 H   0  0  0  0  0  0  0  0  0  0  0  0
   36.5550   31.0320   38.9420 O   0  0  0  0  0  0  0  0  0  0  0  0
   37.8940   30.9170   38.7490 C   0  0  0  0  0  0  0  0  0  0  0  0
   38.0490   30.9900   37.6290 H   0  0  0  0  0  0  0  0  0  0  0  0
   38.3910   29.9980   39.0370 H   0  0  0  0  0  0  0  0  0  0  0  0
   40.6270   33.3620   39.3610 C   0  0  0  0  0  0  0  0  0  0  0  0
   39.9260   32.2710   38.8240 C   0  0  0  0  0  0  0  0  0  0  0  0
   38.6490   32.0570   39.2970 C   0  0  0  0  0  0  0  0  0  0  0  0
   38.1360   32.9010   40.2500 N   0  0  0  0  0  0  0  0  0  0  0  0
   38.8340   33.9360   40.7440 C   0  0  0  0  0  0  0  0  0  0  0  0
   40.0710   34.1600   40.2980 N   0  0  0  0  0  0  0  0  0  0  0  0
   41.6360   33.5290   38.9850 H   0  0  0  0  0  0  0  0  0  0  0  0
   40.4220   31.6670   38.0760 H   0  0  0  0  0  0  0  0  0  0  0  0
   38.3810   34.5710   41.4940 H   0  0  0  0  0  0  0  0  0  0  0  0
  1  6  1  1  0  0  0
  1  5  1  0  0  0  0
  2  1  1  0  0  0  0
  2  3  1  0  0  0  0
  3 10  1  0  0  0  0
  3  4  1  0  0  0  0
  4 12  1  0  0  0  0
  4 11  1  0  0  0  0
  5  4  1  0  0  0  0
  5 13  1  1  0  0  0
  7  2  1  0  0  0  0
  8  2  1  0  0  0  0
  9  3  1  0  0  0  0
 14  5  1  0  0  0  0
 14 15  1  0  0  0  0
 14 17  1  0  0  0  0
 16 14  1  0  0  0  0
 18 17  1  0  0  0  0
 19 18  1  0  0  0  0
 19 20  1  0  0  0  0
 20 21  1  0  0  0  0
 21 17  1  0  0  0  0
 22  1  1  0  0  0  0
 24 23  2  6  0  0  0
 24 22  1  0  0  0  0
 24 25  1  0  0  0  0
 25 26  1  0  0  0  0
 27 24  1  0  0  0  0
 28 27  1  0  0  0  0
 28 30  1  0  0  0  0
 28 33  1  0  0  0  0
 29 28  1  0  0  0  0
 31 36  1  0  0  0  0
 32 33  1  0  0  0  0
 32 31  2  0  0  0  0
 33 34  2  0  0  0  0
 34 35  1  0  0  0  0
 35 39  1  0  0  0  0
 36 35  2  0  0  0  0
 37 31  1  0  0  0  0
 38 32  1  0  0  0  0
M  END
>  <minimizedAffinity>
-5.15240192

$$$$

 OpenBabel03252509343D

 39 41  0  0  1  0  0  0  0  0999 V2000
   36.3280   29.1610   40.2920 C   0  0  1  0  0  0  0  0  0  0  0  0
   34.8520   29.2120   39.9440 C   0  0  0  0  0  0  0  0  0  0  0  0
   34.8840   28.9130   38.4660 C   0  0  0  0  0  0  0  0  0  0  0  0
   36.2290   29.3760   37.9750 C   0  0  0  0  0  0  0  0  0  0  0  0
   36.9120   30.0080   39.1780 C   0  0  1  0  0  0  0  0  0  0  0  0
   36.6520   28.1180   40.1820 H   0  0  0  0  0  0  0  0  0  0  0  0
   34.3880   30.1570   40.2150 H   0  0  0  0  0  0  0  0  0  0  0  0
   34.3930   28.3580   40.4910 H   0  0  0  0  0  0  0  0  0  0  0  0
   34.6600   27.8570   38.2350 H   0  0  0  0  0  0  0  0  0  0  0  0
   34.1250   29.5330   37.9420 H   0  0  0  0  0  0  0  0  0  0  0  0
   36.1780   30.0610   37.1290 H   0  0  0  0  0  0  0  0  0  0  0  0
   36.8130   28.4510   37.7010 H   0  0  0  0  0  0  0  0  0  0  0  0
   38.0150   29.8910   39.1260 H   0  0  0  0  0  0  0  0  0  0  0  0
   36.5670   31.4620   39.3230 C   0  0  0  0  0  0  0  0  0  0  0  0
   35.6990   31.6700   38.6620 H   0  0  0  0  0  0  0  0  0  0  0  0
   36.2640   31.7320   40.3490 H   0  0  0  0  0  0  0  0  0  0  0  0
   37.6670   32.3770   38.8400 C   0  0  0  0  0  3  0  0  0  0  0  0
   37.6930   33.5500   39.8220 C   0  0  0  0  0  2  0  0  0  0  0  0
   38.9900   33.3550   40.6070 C   0  0  0  0  0  2  0  0  0  0  0  0
   39.8860   32.8440   39.4770 C   0  0  0  0  0  2  0  0  0  0  0  0
   39.0230   31.7390   38.9060 C   0  0  0  0  0  2  0  0  0  0  0  0
   36.5940   29.6900   41.5460 O   0  0  0  0  0  0  0  0  0  0  0  0
   38.5980   29.1190   43.0940 O   0  0  0  0  0  0  0  0  0  0  0  0
   37.3430   28.5260   42.4980 P   0  0  1  0  0  0  0  0  0  0  0  0
   36.2870   27.9530   43.6790 O   0  0  0  0  0  0  0  0  0  0  0  0
   36.4340   28.5310   44.4890 H   0  0  0  0  0  0  0  0  0  0  0  0
   37.7340   27.1990   41.5440 O   0  0  0  0  0  0  0  0  0  0  0  0
   38.0660   26.1570   42.3500 C   0  0  0  0  0  0  0  0  0  0  0  0
   37.6030   25.2410   41.8730 H   0  0  0  0  0  0  0  0  0  0  0  0
   37.7060   26.1480   43.3720 H   0  0  0  0  0  0  0  0  0  0  0  0
   41.5340   25.5610   43.5500 C   0  0  0  0  0  0  0  0  0  0  0  0
   40.1560   25.8290   43.5710 C   0  0  0  0  0  0  0  0  0  0  0  0
   39.5120   25.8770   42.3530 C   0  0  0  0  0  0  0  0  0  0  0  0
   40.2320   25.6670   41.2040 N   0  0  0  0  0  0  0  0  0  0  0  0
   41.5510   25.4130   41.2190 C   0  0  0  0  0  0  0  0  0  0  0  0
   42.1920   25.3620   42.3880 N   0  0  0  0  0  0  0  0  0  0  0  0
   42.0400   25.5230   44.5140 H   0  0  0  0  0  0  0  0  0  0  0  0
   39.6830   25.9800   44.5320 H   0  0  0  0  0  0  0  0  0  0  0  0
   42.0700   25.2540   40.2840 H   0  0  0  0  0  0  0  0  0  0  0  0
  1  6  1  6  0  0  0
  1 22  1  0  0  0  0
  2  7  1  0  0  0  0
  2  1  1  0  0  0  0
  2  8  1  0  0  0  0
  3  2  1  0  0  0  0
  4  3  1  0  0  0  0
  4  5  1  0  0  0  0
  5 13  1  6  0  0  0
  5 14  1  0  0  0  0
  5  1  1  0  0  0  0
  9  3  1  0  0  0  0
 10  3  1  0  0  0  0
 11  4  1  0  0  0  0
 12  4  1  0  0  0  0
 14 16  1  0  0  0  0
 15 14  1  0  0  0  0
 17 21  1  0  0  0  0
 17 14  1  0  0  0  0
 17 18  1  0  0  0  0
 18 19  1  0  0  0  0
 20 19  1  0  0  0  0
 21 20  1  0  0  0  0
 22 24  1  0  0  0  0
 24 23  2  1  0  0  0
 24 25  1  0  0  0  0
 25 26  1  0  0  0  0
 27 28  1  0  0  0  0
 27 24  1  0  0  0  0
 28 33  1  0  0  0  0
 28 30  1  0  0  0  0
 29 28  1  0  0  0  0
 31 32  1  0  0  0  0
 31 37  1  0  0  0  0
 32 38  1  0  0  0  0
 33 32  2  0  0  0  0
 34 35  2  0  0  0  0
 34 33  1  0  0  0  0
 35 36  1  0  0  0  0
 36 31  2  0  0  0  0
 39 35  1  0  0  0  0
M  END
>  <minimizedAffinity>
-5.132967

$$$$
