
 OpenBabel03242510483D

 18 19  0  0  0  0  0  0  0  0999 V2000
   37.2850   26.7830   41.9150 C   0  0  0  0  0  0  0  0  0  0  0  0
   37.2680   27.1350   43.2750 C   0  0  0  0  0  0  0  0  0  0  0  0
   37.3760   28.4900   43.5990 C   0  0  0  0  0  0  0  0  0  0  0  0
   37.4910   29.3800   42.5900 N   0  0  0  0  0  0  0  0  0  0  0  0
   37.5070   29.0270   41.2950 C   0  0  0  0  0  0  0  0  0  0  0  0
   37.4030   27.7200   40.9650 N   0  0  0  0  0  0  0  0  0  0  0  0
   37.1720   26.3740   44.0480 H   0  0  0  0  0  0  0  0  0  0  0  0
   37.3640   28.7750   44.6320 H   0  0  0  0  0  0  0  0  0  0  0  0
   37.1680   25.3100   41.5910 C   0  0  0  0  0  0  0  0  0  0  0  0
   38.3780   24.7280   41.4490 F   0  0  0  0  0  0  0  0  0  0  0  0
   36.4220   24.7400   42.6240 F   0  0  0  0  0  0  0  0  0  0  0  0
   36.3920   25.1650   40.4290 F   0  0  0  0  0  0  0  0  0  0  0  0
   37.6250   29.9370   40.2490 O   0  0  0  0  0  0  0  0  0  0  0  0
   36.5510   30.6290   39.6790 C   0  0  0  0  0  3  0  0  0  0  0  0
   36.2510   30.0030   38.3310 C   0  0  0  0  0  2  0  0  0  0  0  0
   37.1940   30.6460   37.3350 C   0  0  0  0  0  2  0  0  0  0  0  0
   37.8170   31.8270   38.0480 C   0  0  0  0  0  2  0  0  0  0  0  0
   37.0400   32.0320   39.3220 C   0  0  0  0  0  2  0  0  0  0  0  0
  1  2  1  0  0  0  0
  2  3  2  0  0  0  0
  2  7  1  0  0  0  0
  3  8  1  0  0  0  0
  4  3  1  0  0  0  0
  5  4  2  0  0  0  0
  6  5  1  0  0  0  0
  6  1  2  0  0  0  0
  9  1  1  0  0  0  0
  9 11  1  0  0  0  0
 10  9  1  0  0  0  0
 12  9  1  0  0  0  0
 13  5  1  0  0  0  0
 14 13  1  0  0  0  0
 15 14  1  0  0  0  0
 16 17  1  0  0  0  0
 16 15  1  0  0  0  0
 17 18  1  0  0  0  0
 18 14  1  0  0  0  0
M  END
>  <minimizedAffinity>
-4.68106461

$$$$

 OpenBabel03242510483D

 18 19  0  0  0  0  0  0  0  0999 V2000
   36.7760   28.2670   41.6370 C   0  0  0  0  0  0  0  0  0  0  0  0
   36.4190   27.4550   40.5480 C   0  0  0  0  0  0  0  0  0  0  0  0
   36.1810   28.0790   39.3210 C   0  0  0  0  0  0  0  0  0  0  0  0
   36.3080   29.4220   39.2520 N   0  0  0  0  0  0  0  0  0  0  0  0
   36.6490   30.1840   40.3030 C   0  0  0  0  0  0  0  0  0  0  0  0
   36.8830   29.5950   41.4970 N   0  0  0  0  0  0  0  0  0  0  0  0
   36.3320   26.3760   40.6620 H   0  0  0  0  0  0  0  0  0  0  0  0
   35.9080   27.4740   38.4800 H   0  0  0  0  0  0  0  0  0  0  0  0
   37.0280   27.5680   42.9550 C   0  0  0  0  0  0  0  0  0  0  0  0
   35.8950   27.4360   43.6790 F   0  0  0  0  0  0  0  0  0  0  0  0
   37.6050   26.3360   42.6410 F   0  0  0  0  0  0  0  0  0  0  0  0
   38.0070   28.2830   43.6660 F   0  0  0  0  0  0  0  0  0  0  0  0
   36.7820   31.5670   40.2420 O   0  0  0  0  0  0  0  0  0  0  0  0
   37.2090   32.2710   39.1100 C   0  0  0  0  0  3  0  0  0  0  0  0
   38.6850   31.9900   38.9120 C   0  0  0  0  0  2  0  0  0  0  0  0
   39.4350   32.9620   39.7990 C   0  0  0  0  0  2  0  0  0  0  0  0
   38.4130   33.9740   40.2710 C   0  0  0  0  0  2  0  0  0  0  0  0
   37.1700   33.7610   39.4480 C   0  0  0  0  0  2  0  0  0  0  0  0
  1  9  1  0  0  0  0
  2  7  1  0  0  0  0
  2  1  2  0  0  0  0
  3  2  1  0  0  0  0
  4  3  2  0  0  0  0
  4  5  1  0  0  0  0
  5  6  2  0  0  0  0
  6  1  1  0  0  0  0
  8  3  1  0  0  0  0
  9 12  1  0  0  0  0
  9 10  1  0  0  0  0
 11  9  1  0  0  0  0
 13  5  1  0  0  0  0
 14 18  1  0  0  0  0
 14 13  1  0  0  0  0
 15 14  1  0  0  0  0
 15 16  1  0  0  0  0
 16 17  1  0  0  0  0
 18 17  1  0  0  0  0
M  END
>  <minimizedAffinity>
-4.62494659

$$$$

 OpenBabel03242510483D

 18 19  0  0  0  0  0  0  0  0999 V2000
   37.8790   28.3480   42.4570 C   0  0  0  0  0  0  0  0  0  0  0  0
   39.0660   27.7080   42.8490 C   0  0  0  0  0  0  0  0  0  0  0  0
   40.2420   28.4620   42.8550 C   0  0  0  0  0  0  0  0  0  0  0  0
   40.1700   29.7590   42.4860 N   0  0  0  0  0  0  0  0  0  0  0  0
   39.0270   30.3560   42.1130 C   0  0  0  0  0  0  0  0  0  0  0  0
   37.8810   29.6400   42.1020 N   0  0  0  0  0  0  0  0  0  0  0  0
   39.0650   26.6580   43.1380 H   0  0  0  0  0  0  0  0  0  0  0  0
   41.1560   27.9890   43.1520 H   0  0  0  0  0  0  0  0  0  0  0  0
   36.6200   27.5080   42.4580 C   0  0  0  0  0  0  0  0  0  0  0  0
   36.0470   27.4620   43.6800 F   0  0  0  0  0  0  0  0  0  0  0  0
   35.7770   28.0660   41.4960 F   0  0  0  0  0  0  0  0  0  0  0  0
   36.9370   26.2200   41.9940 F   0  0  0  0  0  0  0  0  0  0  0  0
   38.9430   31.6910   41.7300 O   0  0  0  0  0  0  0  0  0  0  0  0
   39.5040   32.2140   40.5600 C   0  0  0  0  0  3  0  0  0  0  0  0
   39.1270   33.6790   40.4720 C   0  0  0  0  0  2  0  0  0  0  0  0
   37.7520   33.7370   39.8390 C   0  0  0  0  0  2  0  0  0  0  0  0
   37.4770   32.3460   39.3060 C   0  0  0  0  0  2  0  0  0  0  0  0
   38.7740   31.5850   39.3740 C   0  0  0  0  0  2  0  0  0  0  0  0
  1  9  1  0  0  0  0
  1  2  1  0  0  0  0
  2  3  2  0  0  0  0
  2  7  1  0  0  0  0
  3  8  1  0  0  0  0
  4  3  1  0  0  0  0
  5  4  2  0  0  0  0
  6  5  1  0  0  0  0
  6  1  2  0  0  0  0
  9 10  1  0  0  0  0
 11  9  1  0  0  0  0
 12  9  1  0  0  0  0
 13  5  1  0  0  0  0
 14 13  1  0  0  0  0
 15 14  1  0  0  0  0
 16 15  1  0  0  0  0
 17 18  1  0  0  0  0
 17 16  1  0  0  0  0
 18 14  1  0  0  0  0
M  END
>  <minimizedAffinity>
-4.59455729

$$$$

 OpenBabel03242510483D

 18 19  0  0  0  0  0  0  0  0999 V2000
   37.3550   31.8080   39.6900 C   0  0  0  0  0  0  0  0  0  0  0  0
   37.0910   31.4090   38.3700 C   0  0  0  0  0  0  0  0  0  0  0  0
   36.5460   30.1390   38.1690 C   0  0  0  0  0  0  0  0  0  0  0  0
   36.3050   29.3690   39.2530 N   0  0  0  0  0  0  0  0  0  0  0  0
   36.5640   29.7650   40.5090 C   0  0  0  0  0  0  0  0  0  0  0  0
   37.0910   30.9920   40.7200 N   0  0  0  0  0  0  0  0  0  0  0  0
   37.3050   32.0720   37.5330 H   0  0  0  0  0  0  0  0  0  0  0  0
   36.3380   29.8190   37.1680 H   0  0  0  0  0  0  0  0  0  0  0  0
   37.9450   33.1880   39.8800 C   0  0  0  0  0  0  0  0  0  0  0  0
   37.0560   34.1610   39.5850 F   0  0  0  0  0  0  0  0  0  0  0  0
   38.3800   33.2500   41.2050 F   0  0  0  0  0  0  0  0  0  0  0  0
   39.1010   33.2970   39.0890 F   0  0  0  0  0  0  0  0  0  0  0  0
   36.3200   28.9800   41.6310 O   0  0  0  0  0  0  0  0  0  0  0  0
   37.2780   28.6730   42.6030 C   0  0  0  0  0  3  0  0  0  0  0  0
   38.4880   28.0870   41.9010 C   0  0  0  0  0  2  0  0  0  0  0  0
   38.2070   26.6110   41.7120 C   0  0  0  0  0  2  0  0  0  0  0  0
   36.9860   26.3040   42.5530 C   0  0  0  0  0  2  0  0  0  0  0  0
   36.7430   27.5040   43.4300 C   0  0  0  0  0  2  0  0  0  0  0  0
  1  9  1  0  0  0  0
  1  6  1  0  0  0  0
  2  1  2  0  0  0  0
  3  2  1  0  0  0  0
  3  4  2  0  0  0  0
  4  5  1  0  0  0  0
  5  6  2  0  0  0  0
  5 13  1  0  0  0  0
  7  2  1  0  0  0  0
  8  3  1  0  0  0  0
  9 11  1  0  0  0  0
 10  9  1  0  0  0  0
 12  9  1  0  0  0  0
 13 14  1  0  0  0  0
 14 18  1  0  0  0  0
 15 14  1  0  0  0  0
 16 15  1  0  0  0  0
 16 17  1  0  0  0  0
 17 18  1  0  0  0  0
M  END
>  <minimizedAffinity>
-4.56182289

$$$$

 OpenBabel03242510483D

 18 19  0  0  0  0  0  0  0  0999 V2000
   36.9880   30.5110   38.4230 C   0  0  0  0  0  0  0  0  0  0  0  0
   37.1870   31.8570   38.7710 C   0  0  0  0  0  0  0  0  0  0  0  0
   37.1010   32.2010   40.1220 C   0  0  0  0  0  0  0  0  0  0  0  0
   36.8310   31.2230   41.0140 N   0  0  0  0  0  0  0  0  0  0  0  0
   36.6420   29.9410   40.6660 C   0  0  0  0  0  0  0  0  0  0  0  0
   36.7230   29.5920   39.3620 N   0  0  0  0  0  0  0  0  0  0  0  0
   37.4030   32.6040   38.0090 H   0  0  0  0  0  0  0  0  0  0  0  0
   37.2510   33.2240   40.4040 H   0  0  0  0  0  0  0  0  0  0  0  0
   37.0860   30.1650   36.9540 C   0  0  0  0  0  0  0  0  0  0  0  0
   38.0730   29.2760   36.7110 F   0  0  0  0  0  0  0  0  0  0  0  0
   35.8310   29.6810   36.5800 F   0  0  0  0  0  0  0  0  0  0  0  0
   37.2750   31.3500   36.2230 F   0  0  0  0  0  0  0  0  0  0  0  0
   36.3640   28.9270   41.5760 O   0  0  0  0  0  0  0  0  0  0  0  0
   37.1410   28.6430   42.7040 C   0  0  0  0  0  3  0  0  0  0  0  0
   38.5190   28.2240   42.2320 C   0  0  0  0  0  2  0  0  0  0  0  0
   38.4380   26.7440   41.9160 C   0  0  0  0  0  2  0  0  0  0  0  0
   37.1160   26.2670   42.4780 C   0  0  0  0  0  2  0  0  0  0  0  0
   36.5820   27.3740   43.3470 C   0  0  0  0  0  2  0  0  0  0  0  0
  1  2  2  0  0  0  0
  1  6  1  0  0  0  0
  2  3  1  0  0  0  0
  3  8  1  0  0  0  0
  3  4  2  0  0  0  0
  5  4  1  0  0  0  0
  5 13  1  0  0  0  0
  6  5  2  0  0  0  0
  7  2  1  0  0  0  0
  9  1  1  0  0  0  0
 10  9  1  0  0  0  0
 11  9  1  0  0  0  0
 12  9  1  0  0  0  0
 13 14  1  0  0  0  0
 14 18  1  0  0  0  0
 15 14  1  0  0  0  0
 16 15  1  0  0  0  0
 16 17  1  0  0  0  0
 17 18  1  0  0  0  0
M  END
>  <minimizedAffinity>
-4.43510866

$$$$

 OpenBabel03242510483D

 18 19  0  0  0  0  0  0  0  0999 V2000
   36.9410   29.0010   41.2800 C   0  0  0  0  0  0  0  0  0  0  0  0
   37.5280   29.5660   42.4240 C   0  0  0  0  0  0  0  0  0  0  0  0
   38.4960   28.8180   43.0980 C   0  0  0  0  0  0  0  0  0  0  0  0
   38.8120   27.5980   42.6120 N   0  0  0  0  0  0  0  0  0  0  0  0
   38.2420   27.0720   41.5160 C   0  0  0  0  0  0  0  0  0  0  0  0
   37.3030   27.7840   40.8530 N   0  0  0  0  0  0  0  0  0  0  0  0
   37.2340   30.5560   42.7710 H   0  0  0  0  0  0  0  0  0  0  0  0
   38.9530   29.2340   43.9720 H   0  0  0  0  0  0  0  0  0  0  0  0
   35.8950   29.8320   40.5690 C   0  0  0  0  0  0  0  0  0  0  0  0
   34.6880   29.2270   40.5680 F   0  0  0  0  0  0  0  0  0  0  0  0
   35.8700   31.0680   41.2170 F   0  0  0  0  0  0  0  0  0  0  0  0
   36.3370   30.0900   39.2610 F   0  0  0  0  0  0  0  0  0  0  0  0
   38.5600   25.8160   41.0080 O   0  0  0  0  0  0  0  0  0  0  0  0
   38.4120   24.6180   41.7150 C   0  0  0  0  0  3  0  0  0  0  0  0
   38.6800   23.4730   40.7580 C   0  0  0  0  0  2  0  0  0  0  0  0
   37.3800   23.2040   40.0280 C   0  0  0  0  0  2  0  0  0  0  0  0
   36.3140   23.9860   40.7660 C   0  0  0  0  0  2  0  0  0  0  0  0
   36.9300   24.4600   42.0560 C   0  0  0  0  0  2  0  0  0  0  0  0
  1  2  1  0  0  0  0
  2  7  1  0  0  0  0
  2  3  2  0  0  0  0
  3  8  1  0  0  0  0
  4  3  1  0  0  0  0
  5  4  2  0  0  0  0
  6  1  2  0  0  0  0
  6  5  1  0  0  0  0
  9 11  1  0  0  0  0
  9  1  1  0  0  0  0
 10  9  1  0  0  0  0
 12  9  1  0  0  0  0
 13  5  1  0  0  0  0
 13 14  1  0  0  0  0
 14 18  1  0  0  0  0
 15 14  1  0  0  0  0
 16 15  1  0  0  0  0
 16 17  1  0  0  0  0
 17 18  1  0  0  0  0
M  END
>  <minimizedAffinity>
-4.41690254

$$$$

 OpenBabel03242510483D

 18 19  0  0  0  0  0  0  0  0999 V2000
   37.8070   26.5210   42.2740 C   0  0  0  0  0  0  0  0  0  0  0  0
   37.8960   27.0730   43.5630 C   0  0  0  0  0  0  0  0  0  0  0  0
   37.8710   28.4650   43.6790 C   0  0  0  0  0  0  0  0  0  0  0  0
   37.7630   29.1980   42.5500 N   0  0  0  0  0  0  0  0  0  0  0  0
   37.6780   28.6560   41.3260 C   0  0  0  0  0  0  0  0  0  0  0  0
   37.7010   27.3100   41.1960 N   0  0  0  0  0  0  0  0  0  0  0  0
   37.9820   26.4330   44.4390 H   0  0  0  0  0  0  0  0  0  0  0  0
   37.9390   28.9020   44.6550 H   0  0  0  0  0  0  0  0  0  0  0  0
   37.8370   25.0120   42.1750 C   0  0  0  0  0  0  0  0  0  0  0  0
   38.8020   24.4760   42.9530 F   0  0  0  0  0  0  0  0  0  0  0  0
   36.5620   24.5700   42.5300 F   0  0  0  0  0  0  0  0  0  0  0  0
   38.0090   24.6520   40.8280 F   0  0  0  0  0  0  0  0  0  0  0  0
   37.5670   29.4020   40.1570 O   0  0  0  0  0  0  0  0  0  0  0  0
   36.5410   30.3190   39.9010 C   0  0  0  0  0  3  0  0  0  0  0  0
   35.2160   29.6030   40.0750 C   0  0  0  0  0  2  0  0  0  0  0  0
   34.9230   28.9070   38.7620 C   0  0  0  0  0  2  0  0  0  0  0  0
   35.9170   29.4590   37.7630 C   0  0  0  0  0  2  0  0  0  0  0  0
   36.5760   30.6490   38.4090 C   0  0  0  0  0  2  0  0  0  0  0  0
  1  2  1  0  0  0  0
  2  3  2  0  0  0  0
  2  7  1  0  0  0  0
  3  8  1  0  0  0  0
  4  3  1  0  0  0  0
  5  4  2  0  0  0  0
  6  5  1  0  0  0  0
  6  1  2  0  0  0  0
  9  1  1  0  0  0  0
  9 11  1  0  0  0  0
  9 10  1  0  0  0  0
 12  9  1  0  0  0  0
 13  5  1  0  0  0  0
 14 15  1  0  0  0  0
 14 13  1  0  0  0  0
 16 15  1  0  0  0  0
 17 18  1  0  0  0  0
 17 16  1  0  0  0  0
 18 14  1  0  0  0  0
M  END
>  <minimizedAffinity>
-4.38940668

$$$$

 OpenBabel03242510483D

 18 19  0  0  0  0  0  0  0  0999 V2000
   37.5090   31.0510   39.4300 C   0  0  0  0  0  0  0  0  0  0  0  0
   36.6040   30.7610   38.3950 C   0  0  0  0  0  0  0  0  0  0  0  0
   36.2620   29.4230   38.1840 C   0  0  0  0  0  0  0  0  0  0  0  0
   36.8200   28.4880   38.9850 N   0  0  0  0  0  0  0  0  0  0  0  0
   37.6830   28.7820   39.9690 C   0  0  0  0  0  0  0  0  0  0  0  0
   38.0240   30.0730   40.1860 N   0  0  0  0  0  0  0  0  0  0  0  0
   36.1850   31.5560   37.7810 H   0  0  0  0  0  0  0  0  0  0  0  0
   35.5730   29.1840   37.4000 H   0  0  0  0  0  0  0  0  0  0  0  0
   37.8620   32.5080   39.6360 C   0  0  0  0  0  0  0  0  0  0  0  0
   37.9120   32.8330   40.9460 F   0  0  0  0  0  0  0  0  0  0  0  0
   39.0840   32.7100   38.9920 F   0  0  0  0  0  0  0  0  0  0  0  0
   36.9270   33.3010   38.9490 F   0  0  0  0  0  0  0  0  0  0  0  0
   38.2630   27.8270   40.7980 O   0  0  0  0  0  0  0  0  0  0  0  0
   37.5420   26.8930   41.5510 C   0  0  0  0  0  3  0  0  0  0  0  0
   36.5780   27.6510   42.4410 C   0  0  0  0  0  2  0  0  0  0  0  0
   37.3540   28.0510   43.6800 C   0  0  0  0  0  2  0  0  0  0  0  0
   38.6560   27.2800   43.6270 C   0  0  0  0  0  2  0  0  0  0  0  0
   38.5120   26.2470   42.5410 C   0  0  0  0  0  2  0  0  0  0  0  0
  1  9  1  0  0  0  0
  1  6  1  0  0  0  0
  2  1  2  0  0  0  0
  3  2  1  0  0  0  0
  3  4  2  0  0  0  0
  4  5  1  0  0  0  0
  5  6  2  0  0  0  0
  5 13  1  0  0  0  0
  7  2  1  0  0  0  0
  8  3  1  0  0  0  0
  9 10  1  0  0  0  0
 11  9  1  0  0  0  0
 12  9  1  0  0  0  0
 13 14  1  0  0  0  0
 14 15  1  0  0  0  0
 14 18  1  0  0  0  0
 15 16  1  0  0  0  0
 17 16  1  0  0  0  0
 18 17  1  0  0  0  0
M  END
>  <minimizedAffinity>
-4.32729292

$$$$

 OpenBabel03242510483D

 18 19  0  0  0  0  0  0  0  0999 V2000
   37.9180   30.6090   39.3330 C   0  0  0  0  0  0  0  0  0  0  0  0
   36.7820   31.2620   39.8380 C   0  0  0  0  0  0  0  0  0  0  0  0
   36.2410   30.7950   41.0380 C   0  0  0  0  0  0  0  0  0  0  0  0
   36.8400   29.7460   41.6430 N   0  0  0  0  0  0  0  0  0  0  0  0
   37.9260   29.1320   41.1470 C   0  0  0  0  0  0  0  0  0  0  0  0
   38.4610   29.5720   39.9850 N   0  0  0  0  0  0  0  0  0  0  0  0
   36.3410   32.1050   39.3080 H   0  0  0  0  0  0  0  0  0  0  0  0
   35.3750   31.2830   41.4380 H   0  0  0  0  0  0  0  0  0  0  0  0
   38.4830   31.1330   38.0310 C   0  0  0  0  0  0  0  0  0  0  0  0
   39.1200   30.1680   37.3340 F   0  0  0  0  0  0  0  0  0  0  0  0
   37.4070   31.6750   37.3270 F   0  0  0  0  0  0  0  0  0  0  0  0
   39.3410   32.2090   38.3130 F   0  0  0  0  0  0  0  0  0  0  0  0
   38.5490   28.0510   41.7610 O   0  0  0  0  0  0  0  0  0  0  0  0
   38.0780   27.4210   42.9180 C   0  0  0  0  0  3  0  0  0  0  0  0
   39.2740   26.8830   43.6800 C   0  0  0  0  0  2  0  0  0  0  0  0
   39.6000   25.5320   43.0770 C   0  0  0  0  0  2  0  0  0  0  0  0
   38.4300   25.1770   42.1850 C   0  0  0  0  0  2  0  0  0  0  0  0
   37.3300   26.1600   42.4890 C   0  0  0  0  0  2  0  0  0  0  0  0
  1  2  2  0  0  0  0
  1  6  1  0  0  0  0
  2  3  1  0  0  0  0
  3  8  1  0  0  0  0
  3  4  2  0  0  0  0
  5  4  1  0  0  0  0
  5 13  1  0  0  0  0
  6  5  2  0  0  0  0
  7  2  1  0  0  0  0
  9 12  1  0  0  0  0
  9  1  1  0  0  0  0
 10  9  1  0  0  0  0
 11  9  1  0  0  0  0
 13 14  1  0  0  0  0
 14 15  1  0  0  0  0
 16 15  1  0  0  0  0
 17 18  1  0  0  0  0
 17 16  1  0  0  0  0
 18 14  1  0  0  0  0
M  END
>  <minimizedAffinity>
-4.24213314

$$$$
