
     RDKit          3D

 27 28  0  0  0  0  0  0  0  0999 V2000
   44.5306   36.0452   44.5680 C   0  0  0  0  0  0  0  0  0  0  0  0
   45.2484   36.0012   43.3659 C   0  0  0  0  0  0  0  0  0  0  0  0
   46.1393   34.9530   43.1454 C   0  0  0  0  0  0  0  0  0  0  0  0
   46.2887   33.9975   44.1064 N   0  0  0  0  0  0  0  0  0  0  0  0
   45.5698   34.0774   45.2645 C   0  0  0  0  0  0  0  0  0  0  0  0
   44.7038   35.0911   45.4856 N   0  0  0  0  0  0  0  0  0  0  0  0
   46.3851   34.2154   40.7845 C   0  0  0  0  0  0  0  0  0  0  0  0
   45.2151   33.7185   40.9372 O   0  0  0  0  0  0  0  0  0  0  0  0
   46.9032   34.8417   41.9485 N   0  0  0  0  0  0  0  0  0  0  0  0
   43.8849   36.9053   44.5993 H   0  0  0  0  0  0  0  0  0  0  0  0
   45.2053   36.7017   42.5450 H   0  0  0  0  0  0  0  0  0  0  0  0
   45.6564   33.3438   46.0516 H   0  0  0  0  0  0  0  0  0  0  0  0
   47.8753   35.2657   42.0183 H   0  0  0  0  0  0  0  0  0  0  0  0
   47.2075   34.2036   39.5823 C   0  0  0  0  0  0  0  0  0  0  0  0
   48.6996   34.1931   39.8233 C   0  0  0  0  0  0  0  0  0  0  0  0
   49.1850   34.2903   38.3693 C   0  0  0  0  0  0  0  0  0  0  0  0
   48.1473   35.1559   37.6573 C   0  0  0  0  0  0  0  0  0  0  0  0
   47.0811   35.4365   38.7246 C   0  0  0  0  0  0  0  0  0  0  0  0
   47.0034   33.3377   38.9132 H   0  0  0  0  0  0  0  0  0  0  0  0
   48.9519   35.1527   40.3068 H   0  0  0  0  0  0  0  0  0  0  0  0
   49.0749   33.2979   40.3172 H   0  0  0  0  0  0  0  0  0  0  0  0
   49.1866   33.2398   37.9657 H   0  0  0  0  0  0  0  0  0  0  0  0
   50.2022   34.6756   38.2989 H   0  0  0  0  0  0  0  0  0  0  0  0
   47.6432   34.5861   36.8431 H   0  0  0  0  0  0  0  0  0  0  0  0
   48.5603   36.1089   37.2940 H   0  0  0  0  0  0  0  0  0  0  0  0
   46.0790   35.5732   38.2776 H   0  0  0  0  0  0  0  0  0  0  0  0
   47.4443   36.3357   39.2835 H   0  0  0  0  0  0  0  0  0  0  0  0
  1  6  2  0
  2  1  1  0
  3  2  2  0
  3  4  1  0
  4  5  2  0
  5  6  1  0
  7  8  2  0
  7  9  1  0
  9  3  1  0
  1 10  1  0
  2 11  1  0
  5 12  1  0
  9 13  1  0
 14 15  1  0
 15 16  1  0
 16 17  1  0
 17 18  1  0
 18 14  1  0
 14 19  1  0
 15 20  1  0
 15 21  1  0
 16 22  1  0
 16 23  1  0
 17 24  1  0
 17 25  1  0
 18 26  1  0
 18 27  1  0
  7 14  1  0
M  ISO  3  10  14  11  14  12  14
M  END
>  <DihAtoms>  (1) 
7,6,13,14

>  <DihDeg>  (1) 
-119.99862559982182

$$$$
