
 OpenBabel03252505113D

 40 43  0  0  1  0  0  0  0  0999 V2000
   44.5450   35.5460   44.5990 C   0  0  0  0  0  0  0  0  0  0  0  0
   45.2470   35.6110   43.3770 C   0  0  0  0  0  0  0  0  0  0  0  0
   46.3770   34.7420   43.2100 C   0  0  0  0  0  0  0  0  0  0  0  0
   46.7120   33.9050   44.2320 N   0  0  0  0  0  0  0  0  0  0  0  0
   46.0150   33.8820   45.3700 C   0  0  0  0  0  0  0  0  0  0  0  0
   44.9330   34.6930   45.5670 N   0  0  0  0  0  0  0  0  0  0  0  0
   43.7050   36.2240   44.6640 H   0  0  0  0  0  0  0  0  0  0  0  0
   45.0060   36.2550   42.5630 H   0  0  0  0  0  0  0  0  0  0  0  0
   46.4210   32.9580   46.4560 C   0  0  2  0  0  0  0  0  0  0  0  0
   46.9490   31.7290   45.7540 C   0  0  0  0  0  0  0  0  0  0  0  0
   46.0650   30.5480   45.7530 C   0  0  0  0  0  0  0  0  0  0  0  0
   45.7840   30.2790   47.2400 C   0  0  0  0  0  0  0  0  0  0  0  0
   45.0060   31.3430   47.8620 C   0  0  0  0  0  0  0  0  0  0  0  0
   45.3830   32.7130   47.4120 C   0  0  0  0  0  0  0  0  0  0  0  0
   47.2820   33.4790   46.9630 H   0  0  0  0  0  0  0  0  0  0  0  0
   47.2780   31.9440   44.7110 H   0  0  0  0  0  0  0  0  0  0  0  0
   47.8820   31.4280   46.2780 H   0  0  0  0  0  0  0  0  0  0  0  0
   46.6670   29.6800   45.4310 H   0  0  0  0  0  0  0  0  0  0  0  0
   45.1520   30.6030   45.1570 H   0  0  0  0  0  0  0  0  0  0  0  0
   45.1250   29.3830   47.2240 H   0  0  0  0  0  0  0  0  0  0  0  0
   46.7360   30.0910   47.7390 H   0  0  0  0  0  0  0  0  0  0  0  0
   44.2240   31.3840   48.5650 H   0  0  0  0  0  0  0  0  0  0  0  0
   44.7000   33.8600   47.9340 N   0  0  0  0  0  0  0  0  0  0  0  0
   45.0370   34.4060   48.7640 H   0  0  0  0  0  0  0  0  0  0  0  0
   43.8480   34.4050   47.7130 H   0  0  0  0  0  0  0  0  0  0  0  0
   47.1110   34.7830   41.9640 C   0  0  0  0  0  0  0  0  0  0  0  0
   48.2560   35.5310   41.9120 C   0  0  0  0  0  0  0  0  0  0  0  0
   48.9230   35.5320   40.6690 C   0  0  0  0  0  0  0  0  0  0  0  0
   48.3600   34.7900   39.6540 C   0  0  0  0  0  0  0  0  0  0  0  0
   47.2260   34.0510   39.7090 C   0  0  0  0  0  0  0  0  0  0  0  0
   46.6040   34.0700   40.9240 N   0  0  0  0  0  0  0  0  0  0  0  0
   48.6310   36.0830   42.7480 H   0  0  0  0  0  0  0  0  0  0  0  0
   49.8210   36.1120   40.6140 H   0  0  0  0  0  0  0  0  0  0  0  0
   48.9580   34.8680   38.7560 H   0  0  0  0  0  0  0  0  0  0  0  0
   46.7250   33.3360   38.6500 O   0  0  0  0  0  0  0  0  0  0  0  0
   47.3880   32.3210   37.9510 C   0  0  0  0  0  3  0  0  0  0  0  0
   48.3360   32.9130   36.9170 C   0  0  0  0  0  2  0  0  0  0  0  0
   49.2340   31.7110   36.6420 C   0  0  0  0  0  2  0  0  0  0  0  0
   49.5380   31.2100   38.0380 C   0  0  0  0  0  2  0  0  0  0  0  0
   48.3830   31.6640   38.8940 C   0  0  0  0  0  2  0  0  0  0  0  0
  1  7  1  0  0  0  0
  1  6  1  0  0  0  0
  2  1  2  0  0  0  0
  3  2  1  0  0  0  0
  3  4  2  0  0  0  0
  4  5  1  0  0  0  0
  5  6  2  0  0  0  0
  5  9  1  0  0  0  0
  8  2  1  0  0  0  0
  9 15  1  1  0  0  0
  9 14  1  0  0  0  0
 10 17  1  0  0  0  0
 10  9  1  0  0  0  0
 11 10  1  0  0  0  0
 11 12  1  0  0  0  0
 12 21  1  0  0  0  0
 12 13  1  0  0  0  0
 13 22  1  0  0  0  0
 14 13  2  0  0  0  0
 14 23  1  0  0  0  0
 16 10  1  0  0  0  0
 18 11  1  0  0  0  0
 19 11  1  0  0  0  0
 20 12  1  0  0  0  0
 23 24  1  0  0  0  0
 25 23  1  0  0  0  0
 26  3  1  0  0  0  0
 27 26  1  0  0  0  0
 27 32  1  0  0  0  0
 28 27  2  0  0  0  0
 29 30  2  0  0  0  0
 29 28  1  0  0  0  0
 30 31  1  0  0  0  0
 31 26  2  0  0  0  0
 33 28  1  0  0  0  0
 34 29  1  0  0  0  0
 35 30  1  0  0  0  0
 36 35  1  0  0  0  0
 36 40  1  0  0  0  0
 37 36  1  0  0  0  0
 38 37  1  0  0  0  0
 38 39  1  0  0  0  0
 39 40  1  0  0  0  0
M  END
>  <minimizedAffinity>
-6.86149359

>  <minimizedRMSD>
1.03102016

$$$$
