REMARK  Name = 
REMARK  5 active torsions:
REMARK  status: ('A' for Active; 'I' for Inactive)
REMARK    1  A    between atoms: C_1  and  C_7
REMARK    2  A    between atoms: C_6  and  C_19
REMARK    3  A    between atoms: C_7  and  C_13
REMARK    4  A    between atoms: C_11  and  C_15
REMARK    5  A    between atoms: C_19  and  C_34
REMARK                            x       y       z     vdW  Elec       q    Type
REMARK                         _______ _______ _______ _____ _____    ______ ____
ROOT
ATOM      1  C   UNL     1      45.856  31.247  46.379  0.00  0.00    +0.000 C 
ATOM      2  C   UNL     1      45.586  30.567  47.683  0.00  0.00    +0.000 C 
ATOM      3  C   UNL     1      44.934  29.267  47.372  0.00  0.00    +0.000 C 
ATOM      4  C   UNL     1      44.638  29.020  45.931  0.00  0.00    +0.000 C 
ATOM      5  C   UNL     1      45.889  29.164  45.109  0.00  0.00    +0.000 C 
ATOM      6  C   UNL     1      46.681  30.320  45.506  0.00  0.00    +0.000 C 
ATOM      7  H   UNL     1      44.900  31.354  45.826  0.00  0.00    +0.000 HD
ATOM      8  H   UNL     1      44.900  31.257  48.250  0.00  0.00    +0.000 HD
ATOM      9  H   UNL     1      46.480  30.477  48.334  0.00  0.00    +0.000 HD
ATOM     10  H   UNL     1      43.923  29.276  47.880  0.00  0.00    +0.000 HD
ATOM     11  H   UNL     1      45.423  28.372  47.836  0.00  0.00    +0.000 HD
ATOM     12  H   UNL     1      44.272  27.971  45.857  0.00  0.00    +0.000 HD
ATOM     13  H   UNL     1      43.797  29.641  45.560  0.00  0.00    +0.000 HD
ATOM     14  H   UNL     1      45.521  29.331  44.053  0.00  0.00    +0.000 HD
ATOM     15  H   UNL     1      46.378  28.174  45.074  0.00  0.00    +0.000 HD
ATOM     16  H   UNL     1      47.050  30.931  44.671  0.00  0.00    +0.000 HD
ENDROOT
BRANCH   6  17
ATOM     17  C   UNL     1      47.841  29.785  46.272  0.00  0.00    +0.000 C 
ATOM     18  H   UNL     1      47.561  29.231  47.197  0.00  0.00    +0.000 HD
ATOM     19  H   UNL     1      48.446  30.645  46.626  0.00  0.00    +0.000 HD
BRANCH  17  20
ATOM     20  C   UNL     1      48.750  28.862  45.516  0.00  0.00    +0.000 C 
ATOM     21  C   UNL     1      50.214  29.161  45.721  0.00  0.00    +0.000 C 
ATOM     22  C   UNL     1      50.792  27.976  44.940  0.00  0.00    +0.000 C 
ATOM     23  C   UNL     1      49.991  26.840  45.555  0.00  0.00    +0.000 C 
ATOM     24  C   UNL     1      48.731  27.451  46.116  0.00  0.00    +0.000 C 
ENDBRANCH  17  20
ENDBRANCH   6  17
BRANCH   1  25
ATOM     25  C   UNL     1      46.464  32.595  46.511  0.00  0.00    +0.000 C 
ATOM     26  O   UNL     1      47.293  32.890  47.401  0.00  0.00    +0.000 OA
BRANCH  25  31
ATOM     27  C   UNL     1      44.682  35.374  44.942  0.00  0.00    +0.000 A 
ATOM     28  C   UNL     1      45.264  35.480  43.651  0.00  0.00    +0.000 A 
ATOM     29  C   UNL     1      46.273  34.580  43.357  0.00  0.00    +0.000 A 
ATOM     30  N   UNL     1      46.572  33.721  44.332  0.00  0.00    +0.000 NA
ATOM     31  C   UNL     1      46.043  33.610  45.529  0.00  0.00    +0.000 A 
ATOM     32  N   UNL     1      45.062  34.472  45.839  0.00  0.00    +0.000 NA
ATOM     33  H   UNL     1      43.876  36.082  45.196  0.00  0.00    +0.000 HD
ATOM     34  H   UNL     1      44.919  36.233  42.954  0.00  0.00    +0.000 HD
BRANCH  29  35
ATOM     35  C   UNL     1      46.866  34.680  42.036  0.00  0.00    +0.000 C 
ATOM     36  F   UNL     1      47.635  33.548  41.783  0.00  0.00    +0.000 F 
ATOM     37  F   UNL     1      47.677  35.768  42.044  0.00  0.00    +0.000 F 
ATOM     38  F   UNL     1      45.911  34.715  41.026  0.00  0.00    +0.000 F 
ENDBRANCH  29  35
ENDBRANCH  25  31
ENDBRANCH   1  25
TORSDOF 5
