
 OpenBabel03242519303D

 39 42  0  0  0  0  0  0  0  0999 V2000
   37.0460   28.6870   41.6700 C   0  0  0  0  0  0  0  0  0  0  0  0
   35.8250   28.5630   40.9440 C   0  0  0  0  0  0  0  0  0  0  0  0
   35.4000   29.6130   40.1180 C   0  0  0  0  0  0  0  0  0  0  0  0
   36.2100   30.7220   40.0620 N   0  0  0  0  0  0  0  0  0  0  0  0
   37.3860   30.8000   40.7830 C   0  0  0  0  0  0  0  0  0  0  0  0
   37.7610   29.8020   41.5490 N   0  0  0  0  0  0  0  0  0  0  0  0
   35.1430   27.7230   40.9410 H   0  0  0  0  0  0  0  0  0  0  0  0
   34.4960   29.5720   39.5540 H   0  0  0  0  0  0  0  0  0  0  0  0
   37.3900   27.5300   42.5080 C   0  0  0  0  0  0  0  0  0  0  0  0
   38.2920   27.8290   43.6030 C   0  0  0  0  0  0  0  0  0  0  0  0
   39.6330   27.2290   43.4920 C   0  0  0  0  0  0  0  0  0  0  0  0
   39.5720   25.7200   43.2680 C   0  0  0  0  0  0  0  0  0  0  0  0
   38.4510   25.2810   42.3680 C   0  0  0  0  0  0  0  0  0  0  0  0
   37.9380   26.4550   41.5300 C   0  0  0  0  0  0  0  0  0  0  0  0
   36.4460   27.0600   42.8820 H   0  0  0  0  0  0  0  0  0  0  0  0
   37.8580   27.5490   44.5980 H   0  0  0  0  0  0  0  0  0  0  0  0
   38.4310   28.9380   43.6790 H   0  0  0  0  0  0  0  0  0  0  0  0
   40.3270   27.6450   42.7700 H   0  0  0  0  0  0  0  0  0  0  0  0
   40.1360   27.3490   44.4950 H   0  0  0  0  0  0  0  0  0  0  0  0
   40.5170   25.3950   42.7870 H   0  0  0  0  0  0  0  0  0  0  0  0
   39.5400   25.1870   44.2610 H   0  0  0  0  0  0  0  0  0  0  0  0
   38.7200   24.4740   41.6790 H   0  0  0  0  0  0  0  0  0  0  0  0
   37.6050   24.9920   43.0500 H   0  0  0  0  0  0  0  0  0  0  0  0
   38.7350   26.8770   40.8980 H   0  0  0  0  0  0  0  0  0  0  0  0
   37.0970   26.1030   40.9200 H   0  0  0  0  0  0  0  0  0  0  0  0
   38.1050   32.0520   40.6000 C   0  0  0  0  0  0  0  0  0  0  0  0
   37.4260   33.1140   40.1190 N   0  0  0  0  0  0  0  0  0  0  0  0
   38.2790   34.1720   40.0280 C   0  0  0  0  0  0  0  0  0  0  0  0
   39.4940   33.7320   40.4630 N   0  0  0  0  0  0  0  0  0  0  0  0
   39.3940   32.4430   40.8120 N   0  0  0  0  0  0  0  0  0  0  0  0
   38.0470   35.1800   39.6770 H   0  0  0  0  0  0  0  0  0  0  0  0
   40.7270   34.5180   40.5470 C   0  0  0  0  0  0  0  0  0  0  0  0
   41.0770   34.5340   41.5790 H   0  0  0  0  0  0  0  0  0  0  0  0
   40.5170   35.5740   40.2100 H   0  0  0  0  0  0  0  0  0  0  0  0
   41.7650   33.8660   39.6880 C   0  0  0  0  0  3  0  0  0  0  0  0
   43.1670   34.0170   40.2460 C   0  0  0  0  0  2  0  0  0  0  0  0
   44.0310   33.6180   39.0800 C   0  0  0  0  0  2  0  0  0  0  0  0
   43.3180   34.1600   37.8620 C   0  0  0  0  0  2  0  0  0  0  0  0
   41.8950   34.4870   38.3240 C   0  0  0  0  0  2  0  0  0  0  0  0
  1  9  1  0  0  0  0
  2  1  2  0  0  0  0
  3  2  1  0  0  0  0
  4  3  2  0  0  0  0
  4  5  1  0  0  0  0
  5  6  2  0  0  0  0
  6  1  1  0  0  0  0
  7  2  1  0  0  0  0
  8  3  1  0  0  0  0
  9 15  1  0  0  0  0
  9 10  1  0  0  0  0
 10 17  1  0  0  0  0
 10 16  1  0  0  0  0
 11 10  1  0  0  0  0
 11 19  1  0  0  0  0
 12 11  1  0  0  0  0
 12 21  1  0  0  0  0
 13 23  1  0  0  0  0
 13 12  1  0  0  0  0
 14 13  1  0  0  0  0
 14  9  1  0  0  0  0
 18 11  1  0  0  0  0
 20 12  1  0  0  0  0
 22 13  1  0  0  0  0
 24 14  1  0  0  0  0
 25 14  1  0  0  0  0
 26  5  1  0  0  0  0
 26 30  2  0  0  0  0
 27 26  1  0  0  0  0
 28 27  2  0  0  0  0
 28 29  1  0  0  0  0
 29 32  1  0  0  0  0
 29 30  1  0  0  0  0
 31 28  1  0  0  0  0
 32 33  1  0  0  0  0
 34 32  1  0  0  0  0
 35 36  1  0  0  0  0
 35 32  1  0  0  0  0
 37 36  1  0  0  0  0
 38 39  1  0  0  0  0
 38 37  1  0  0  0  0
 39 35  1  0  0  0  0
M  END
>  <minimizedAffinity>
-5.9714427

$$$$

 OpenBabel03242519303D

 39 42  0  0  0  0  0  0  0  0999 V2000
   36.9000   27.8990   41.8320 C   0  0  0  0  0  0  0  0  0  0  0  0
   37.3460   29.1720   42.2980 C   0  0  0  0  0  0  0  0  0  0  0  0
   36.9690   30.3330   41.6110 C   0  0  0  0  0  0  0  0  0  0  0  0
   36.1730   30.1650   40.5030 N   0  0  0  0  0  0  0  0  0  0  0  0
   35.7640   28.9140   40.0850 C   0  0  0  0  0  0  0  0  0  0  0  0
   36.1310   27.8410   40.7470 N   0  0  0  0  0  0  0  0  0  0  0  0
   37.9700   29.3750   43.1590 H   0  0  0  0  0  0  0  0  0  0  0  0
   37.2740   31.3080   41.9170 H   0  0  0  0  0  0  0  0  0  0  0  0
   37.3600   26.7510   42.6240 C   0  0  0  0  0  0  0  0  0  0  0  0
   38.4760   27.0380   43.5040 C   0  0  0  0  0  0  0  0  0  0  0  0
   39.7410   26.3730   43.1480 C   0  0  0  0  0  0  0  0  0  0  0  0
   39.5760   24.8630   42.9950 C   0  0  0  0  0  0  0  0  0  0  0  0
   38.2790   24.4520   42.3560 C   0  0  0  0  0  0  0  0  0  0  0  0
   37.6540   25.6250   41.5950 C   0  0  0  0  0  0  0  0  0  0  0  0
   36.4920   26.3360   43.1970 H   0  0  0  0  0  0  0  0  0  0  0  0
   38.2410   26.8060   44.5750 H   0  0  0  0  0  0  0  0  0  0  0  0
   38.6710   28.1410   43.5100 H   0  0  0  0  0  0  0  0  0  0  0  0
   40.2910   26.7360   42.2860 H   0  0  0  0  0  0  0  0  0  0  0  0
   40.4410   26.4970   44.0240 H   0  0  0  0  0  0  0  0  0  0  0  0
   40.3900   24.4810   42.3470 H   0  0  0  0  0  0  0  0  0  0  0  0
   39.7240   24.3590   43.9930 H   0  0  0  0  0  0  0  0  0  0  0  0
   38.3700   23.6150   41.6570 H   0  0  0  0  0  0  0  0  0  0  0  0
   37.5780   24.2220   43.2030 H   0  0  0  0  0  0  0  0  0  0  0  0
   38.3230   25.9920   40.8020 H   0  0  0  0  0  0  0  0  0  0  0  0
   36.6940   25.2960   41.1800 H   0  0  0  0  0  0  0  0  0  0  0  0
   34.9320   28.9360   38.8910 C   0  0  0  0  0  0  0  0  0  0  0  0
   35.5400   28.8530   37.6890 N   0  0  0  0  0  0  0  0  0  0  0  0
   34.5870   28.8900   36.7160 C   0  0  0  0  0  0  0  0  0  0  0  0
   33.3850   28.9970   37.3510 N   0  0  0  0  0  0  0  0  0  0  0  0
   33.5890   29.0260   38.6750 N   0  0  0  0  0  0  0  0  0  0  0  0
   34.7430   28.8430   35.6360 H   0  0  0  0  0  0  0  0  0  0  0  0
   32.0670   29.0710   36.7170 C   0  0  0  0  0  0  0  0  0  0  0  0
   31.3970   28.3520   37.1880 H   0  0  0  0  0  0  0  0  0  0  0  0
   32.1680   28.8210   35.6220 H   0  0  0  0  0  0  0  0  0  0  0  0
   31.5210   30.4510   36.9140 C   0  0  0  0  0  3  0  0  0  0  0  0
   30.3690   30.4900   37.9000 C   0  0  0  0  0  2  0  0  0  0  0  0
   29.7810   31.8560   37.6650 C   0  0  0  0  0  2  0  0  0  0  0  0
   29.9010   32.0820   36.1750 C   0  0  0  0  0  2  0  0  0  0  0  0
   30.9020   31.0370   35.6750 C   0  0  0  0  0  2  0  0  0  0  0  0
  1  2  1  0  0  0  0
  1  9  1  0  0  0  0
  2  7  1  0  0  0  0
  3  8  1  0  0  0  0
  3  2  2  0  0  0  0
  4  3  1  0  0  0  0
  5  4  2  0  0  0  0
  5  6  1  0  0  0  0
  6  1  2  0  0  0  0
  9 15  1  0  0  0  0
  9 10  1  0  0  0  0
 10 17  1  0  0  0  0
 10 16  1  0  0  0  0
 11 10  1  0  0  0  0
 11 19  1  0  0  0  0
 12 11  1  0  0  0  0
 12 21  1  0  0  0  0
 13 12  1  0  0  0  0
 13 23  1  0  0  0  0
 14 13  1  0  0  0  0
 14  9  1  0  0  0  0
 18 11  1  0  0  0  0
 20 12  1  0  0  0  0
 22 13  1  0  0  0  0
 24 14  1  0  0  0  0
 25 14  1  0  0  0  0
 26  5  1  0  0  0  0
 27 26  1  0  0  0  0
 28 29  1  0  0  0  0
 28 27  2  0  0  0  0
 29 30  1  0  0  0  0
 30 26  2  0  0  0  0
 31 28  1  0  0  0  0
 32 35  1  0  0  0  0
 32 33  1  0  0  0  0
 32 29  1  0  0  0  0
 34 32  1  0  0  0  0
 35 36  1  0  0  0  0
 37 36  1  0  0  0  0
 38 37  1  0  0  0  0
 39 38  1  0  0  0  0
 39 35  1  0  0  0  0
M  END
>  <minimizedAffinity>
-5.94787121

$$$$

 OpenBabel03242519303D

 39 42  0  0  0  0  0  0  0  0999 V2000
   32.5030   29.2970   37.0560 C   0  0  0  0  0  0  0  0  0  0  0  0
   33.1140   29.2980   35.7670 C   0  0  0  0  0  0  0  0  0  0  0  0
   34.4730   28.9770   35.6440 C   0  0  0  0  0  0  0  0  0  0  0  0
   35.1440   28.6740   36.8040 N   0  0  0  0  0  0  0  0  0  0  0  0
   34.5130   28.6850   38.0330 C   0  0  0  0  0  0  0  0  0  0  0  0
   33.2390   28.9890   38.1210 N   0  0  0  0  0  0  0  0  0  0  0  0
   32.6480   29.5240   34.8180 H   0  0  0  0  0  0  0  0  0  0  0  0
   34.9790   28.9630   34.7050 H   0  0  0  0  0  0  0  0  0  0  0  0
   31.0780   29.6540   37.0670 C   0  0  0  0  0  0  0  0  0  0  0  0
   30.7220   30.7290   36.1630 C   0  0  0  0  0  0  0  0  0  0  0  0
   30.2940   31.9790   36.8140 C   0  0  0  0  0  0  0  0  0  0  0  0
   29.1660   31.7510   37.8170 C   0  0  0  0  0  0  0  0  0  0  0  0
   29.2960   30.4740   38.6010 C   0  0  0  0  0  0  0  0  0  0  0  0
   30.7350   29.9520   38.5520 C   0  0  0  0  0  0  0  0  0  0  0  0
   30.4730   28.7350   36.8580 H   0  0  0  0  0  0  0  0  0  0  0  0
   29.9320   30.4220   35.4290 H   0  0  0  0  0  0  0  0  0  0  0  0
   31.6010   30.9770   35.5150 H   0  0  0  0  0  0  0  0  0  0  0  0
   31.0470   32.5950   37.2950 H   0  0  0  0  0  0  0  0  0  0  0  0
   29.8380   32.6330   36.0140 H   0  0  0  0  0  0  0  0  0  0  0  0
   29.1700   32.5810   38.5510 H   0  0  0  0  0  0  0  0  0  0  0  0
   28.1700   31.8160   37.2940 H   0  0  0  0  0  0  0  0  0  0  0  0
   29.0120   30.5660   39.6540 H   0  0  0  0  0  0  0  0  0  0  0  0
   28.6700   29.7150   38.0580 H   0  0  0  0  0  0  0  0  0  0  0  0
   31.4420   30.6830   38.9730 H   0  0  0  0  0  0  0  0  0  0  0  0
   30.7770   29.0030   39.1000 H   0  0  0  0  0  0  0  0  0  0  0  0
   35.3860   28.3440   39.1460 C   0  0  0  0  0  0  0  0  0  0  0  0
   36.1600   27.2430   39.0360 N   0  0  0  0  0  0  0  0  0  0  0  0
   36.8920   27.1100   40.1770 C   0  0  0  0  0  0  0  0  0  0  0  0
   36.5480   28.1530   40.9850 N   0  0  0  0  0  0  0  0  0  0  0  0
   35.6320   28.9060   40.3630 N   0  0  0  0  0  0  0  0  0  0  0  0
   37.6160   26.3260   40.4100 H   0  0  0  0  0  0  0  0  0  0  0  0
   37.0780   28.4310   42.3220 C   0  0  0  0  0  0  0  0  0  0  0  0
   36.4170   27.9970   43.0720 H   0  0  0  0  0  0  0  0  0  0  0  0
   37.1300   29.5480   42.4750 H   0  0  0  0  0  0  0  0  0  0  0  0
   38.4310   27.8000   42.4370 C   0  0  0  0  0  3  0  0  0  0  0  0
   38.6520   27.1300   43.7790 C   0  0  0  0  0  2  0  0  0  0  0  0
   40.1390   26.8990   43.7910 C   0  0  0  0  0  2  0  0  0  0  0  0
   40.7290   28.1120   43.1100 C   0  0  0  0  0  2  0  0  0  0  0  0
   39.5640   28.7890   42.3830 C   0  0  0  0  0  2  0  0  0  0  0  0
  1  9  1  0  0  0  0
  1  6  1  0  0  0  0
  2  1  2  0  0  0  0
  3  2  1  0  0  0  0
  3  4  2  0  0  0  0
  4  5  1  0  0  0  0
  5  6  2  0  0  0  0
  5 26  1  0  0  0  0
  7  2  1  0  0  0  0
  8  3  1  0  0  0  0
  9 14  1  0  0  0  0
 10 11  1  0  0  0  0
 10  9  1  0  0  0  0
 11 18  1  0  0  0  0
 11 12  1  0  0  0  0
 12 20  1  0  0  0  0
 12 13  1  0  0  0  0
 13 22  1  0  0  0  0
 14 13  1  0  0  0  0
 14 24  1  0  0  0  0
 14 25  1  0  0  0  0
 15  9  1  0  0  0  0
 16 10  1  0  0  0  0
 17 10  1  0  0  0  0
 19 11  1  0  0  0  0
 21 12  1  0  0  0  0
 23 13  1  0  0  0  0
 26 30  2  0  0  0  0
 27 26  1  0  0  0  0
 27 28  2  0  0  0  0
 28 31  1  0  0  0  0
 28 29  1  0  0  0  0
 29 32  1  0  0  0  0
 30 29  1  0  0  0  0
 32 35  1  0  0  0  0
 32 34  1  0  0  0  0
 32 33  1  0  0  0  0
 35 36  1  0  0  0  0
 36 37  1  0  0  0  0
 38 37  1  0  0  0  0
 39 35  1  0  0  0  0
 39 38  1  0  0  0  0
M  END
>  <minimizedAffinity>
-5.71755409

$$$$

 OpenBabel03242519303D

 39 42  0  0  0  0  0  0  0  0999 V2000
   40.5890   33.0780   39.1060 C   0  0  0  0  0  0  0  0  0  0  0  0
   40.2850   34.3800   39.6030 C   0  0  0  0  0  0  0  0  0  0  0  0
   39.3040   34.5340   40.5920 C   0  0  0  0  0  0  0  0  0  0  0  0
   38.6840   33.3890   41.0300 N   0  0  0  0  0  0  0  0  0  0  0  0
   39.0090   32.1460   40.5220 C   0  0  0  0  0  0  0  0  0  0  0  0
   39.9310   32.0290   39.5960 N   0  0  0  0  0  0  0  0  0  0  0  0
   40.7330   35.3190   39.3050 H   0  0  0  0  0  0  0  0  0  0  0  0
   39.0390   35.4840   40.9970 H   0  0  0  0  0  0  0  0  0  0  0  0
   41.6270   33.0350   38.0680 C   0  0  0  0  0  0  0  0  0  0  0  0
   41.3670   32.0930   36.9980 C   0  0  0  0  0  0  0  0  0  0  0  0
   42.2850   30.9430   36.9390 C   0  0  0  0  0  0  0  0  0  0  0  0
   43.7490   31.3740   36.9050 C   0  0  0  0  0  0  0  0  0  0  0  0
   44.0540   32.5660   37.7700 C   0  0  0  0  0  0  0  0  0  0  0  0
   42.9590   32.7670   38.8210 C   0  0  0  0  0  0  0  0  0  0  0  0
   41.7790   34.0690   37.6660 H   0  0  0  0  0  0  0  0  0  0  0  0
   41.3510   32.5870   35.9920 H   0  0  0  0  0  0  0  0  0  0  0  0
   40.3300   31.6840   37.1060 H   0  0  0  0  0  0  0  0  0  0  0  0
   42.1860   30.1630   37.6880 H   0  0  0  0  0  0  0  0  0  0  0  0
   42.1150   30.4300   35.9480 H   0  0  0  0  0  0  0  0  0  0  0  0
   44.3740   30.5380   37.2770 H   0  0  0  0  0  0  0  0  0  0  0  0
   44.0730   31.5430   35.8390 H   0  0  0  0  0  0  0  0  0  0  0  0
   45.0110   32.5020   38.2970 H   0  0  0  0  0  0  0  0  0  0  0  0
   44.0030   33.4600   37.0910 H   0  0  0  0  0  0  0  0  0  0  0  0
   42.8620   31.8880   39.4760 H   0  0  0  0  0  0  0  0  0  0  0  0
   43.1980   33.6660   39.4020 H   0  0  0  0  0  0  0  0  0  0  0  0
   38.2420   31.0540   41.1040 C   0  0  0  0  0  0  0  0  0  0  0  0
   36.9690   30.8760   40.6910 N   0  0  0  0  0  0  0  0  0  0  0  0
   36.4400   29.8110   41.3540 C   0  0  0  0  0  0  0  0  0  0  0  0
   37.4180   29.3430   42.1820 N   0  0  0  0  0  0  0  0  0  0  0  0
   38.5160   30.0950   42.0340 N   0  0  0  0  0  0  0  0  0  0  0  0
   35.4330   29.4030   41.2520 H   0  0  0  0  0  0  0  0  0  0  0  0
   37.3140   28.2030   43.0950 C   0  0  0  0  0  0  0  0  0  0  0  0
   36.3080   27.7880   43.0440 H   0  0  0  0  0  0  0  0  0  0  0  0
   37.5190   28.5520   44.1480 H   0  0  0  0  0  0  0  0  0  0  0  0
   38.2970   27.1590   42.6650 C   0  0  0  0  0  3  0  0  0  0  0  0
   37.6530   25.8030   42.4470 C   0  0  0  0  0  2  0  0  0  0  0  0
   38.8410   24.8810   42.3800 C   0  0  0  0  0  2  0  0  0  0  0  0
   39.8210   25.4310   43.3900 C   0  0  0  0  0  2  0  0  0  0  0  0
   39.3440   26.8520   43.7010 C   0  0  0  0  0  2  0  0  0  0  0  0
  1  6  2  0  0  0  0
  1  2  1  0  0  0  0
  2  3  2  0  0  0  0
  3  8  1  0  0  0  0
  3  4  1  0  0  0  0
  5  4  2  0  0  0  0
  5 26  1  0  0  0  0
  6  5  1  0  0  0  0
  7  2  1  0  0  0  0
  9 14  1  0  0  0  0
  9  1  1  0  0  0  0
 10 17  1  0  0  0  0
 10  9  1  0  0  0  0
 11 10  1  0  0  0  0
 11 18  1  0  0  0  0
 12 11  1  0  0  0  0
 12 20  1  0  0  0  0
 12 13  1  0  0  0  0
 13 22  1  0  0  0  0
 13 14  1  0  0  0  0
 14 25  1  0  0  0  0
 14 24  1  0  0  0  0
 15  9  1  0  0  0  0
 16 10  1  0  0  0  0
 19 11  1  0  0  0  0
 21 12  1  0  0  0  0
 23 13  1  0  0  0  0
 26 30  2  0  0  0  0
 27 26  1  0  0  0  0
 27 28  2  0  0  0  0
 28 29  1  0  0  0  0
 29 32  1  0  0  0  0
 30 29  1  0  0  0  0
 31 28  1  0  0  0  0
 32 34  1  0  0  0  0
 33 32  1  0  0  0  0
 35 32  1  0  0  0  0
 35 39  1  0  0  0  0
 36 35  1  0  0  0  0
 37 36  1  0  0  0  0
 37 38  1  0  0  0  0
 38 39  1  0  0  0  0
M  END
>  <minimizedAffinity>
-5.6224165

$$$$

 OpenBabel03242519303D

 39 42  0  0  0  0  0  0  0  0999 V2000
   37.2020   27.0100   41.7000 C   0  0  0  0  0  0  0  0  0  0  0  0
   37.3150   26.9630   43.1210 C   0  0  0  0  0  0  0  0  0  0  0  0
   37.5660   28.1430   43.8360 C   0  0  0  0  0  0  0  0  0  0  0  0
   37.6890   29.2970   43.1010 N   0  0  0  0  0  0  0  0  0  0  0  0
   37.5720   29.2980   41.7240 C   0  0  0  0  0  0  0  0  0  0  0  0
   37.3370   28.1790   41.0780 N   0  0  0  0  0  0  0  0  0  0  0  0
   37.2290   26.0940   43.7600 H   0  0  0  0  0  0  0  0  0  0  0  0
   37.6600   28.1630   44.8980 H   0  0  0  0  0  0  0  0  0  0  0  0
   36.9450   25.7160   41.0540 C   0  0  0  0  0  0  0  0  0  0  0  0
   37.1130   24.5690   41.9240 C   0  0  0  0  0  0  0  0  0  0  0  0
   38.2460   23.6890   41.5890 C   0  0  0  0  0  0  0  0  0  0  0  0
   38.2130   23.2350   40.1320 C   0  0  0  0  0  0  0  0  0  0  0  0
   37.7450   24.2940   39.1730 C   0  0  0  0  0  0  0  0  0  0  0  0
   37.8630   25.6850   39.8020 C   0  0  0  0  0  0  0  0  0  0  0  0
   35.9200   25.7330   40.6040 H   0  0  0  0  0  0  0  0  0  0  0  0
   36.1840   23.9440   41.9850 H   0  0  0  0  0  0  0  0  0  0  0  0
   37.2640   24.9180   42.9770 H   0  0  0  0  0  0  0  0  0  0  0  0
   39.2510   24.0360   41.8060 H   0  0  0  0  0  0  0  0  0  0  0  0
   38.1210   22.7400   42.1870 H   0  0  0  0  0  0  0  0  0  0  0  0
   39.2400   22.9540   39.8250 H   0  0  0  0  0  0  0  0  0  0  0  0
   37.6020   22.2920   40.0390 H   0  0  0  0  0  0  0  0  0  0  0  0
   38.2920   24.3120   38.2250 H   0  0  0  0  0  0  0  0  0  0  0  0
   36.6460   24.1110   39.0250 H   0  0  0  0  0  0  0  0  0  0  0  0
   38.9040   25.9140   40.0800 H   0  0  0  0  0  0  0  0  0  0  0  0
   37.4750   26.4220   39.0880 H   0  0  0  0  0  0  0  0  0  0  0  0
   37.7370   30.6120   41.1210 C   0  0  0  0  0  0  0  0  0  0  0  0
   36.7220   31.1080   40.3820 N   0  0  0  0  0  0  0  0  0  0  0  0
   37.0820   32.3360   39.9160 C   0  0  0  0  0  0  0  0  0  0  0  0
   38.3390   32.5780   40.3870 N   0  0  0  0  0  0  0  0  0  0  0  0
   38.7430   31.5330   41.1190 N   0  0  0  0  0  0  0  0  0  0  0  0
   36.4890   33.0050   39.2890 H   0  0  0  0  0  0  0  0  0  0  0  0
   39.1430   33.7790   40.1460 C   0  0  0  0  0  0  0  0  0  0  0  0
   39.3180   34.2930   41.0910 H   0  0  0  0  0  0  0  0  0  0  0  0
   38.5840   34.4660   39.4480 H   0  0  0  0  0  0  0  0  0  0  0  0
   40.4580   33.3610   39.5660 C   0  0  0  0  0  3  0  0  0  0  0  0
   41.3770   34.5360   39.2910 C   0  0  0  0  0  2  0  0  0  0  0  0
   42.4380   33.9260   38.4140 C   0  0  0  0  0  2  0  0  0  0  0  0
   41.7020   32.9370   37.5390 C   0  0  0  0  0  2  0  0  0  0  0  0
   40.3420   32.7220   38.2090 C   0  0  0  0  0  2  0  0  0  0  0  0
  1  2  1  0  0  0  0
  2  7  1  0  0  0  0
  2  3  2  0  0  0  0
  3  8  1  0  0  0  0
  4  3  1  0  0  0  0
  5  4  2  0  0  0  0
  6  1  2  0  0  0  0
  6  5  1  0  0  0  0
  9  1  1  0  0  0  0
  9 10  1  0  0  0  0
 10 16  1  0  0  0  0
 10 17  1  0  0  0  0
 11 18  1  0  0  0  0
 11 10  1  0  0  0  0
 11 19  1  0  0  0  0
 12 11  1  0  0  0  0
 13 14  1  0  0  0  0
 13 12  1  0  0  0  0
 14 24  1  0  0  0  0
 14  9  1  0  0  0  0
 15  9  1  0  0  0  0
 20 12  1  0  0  0  0
 21 12  1  0  0  0  0
 22 13  1  0  0  0  0
 23 13  1  0  0  0  0
 25 14  1  0  0  0  0
 26  5  1  0  0  0  0
 27 26  1  0  0  0  0
 28 27  2  0  0  0  0
 28 29  1  0  0  0  0
 29 30  1  0  0  0  0
 30 26  2  0  0  0  0
 31 28  1  0  0  0  0
 32 29  1  0  0  0  0
 32 33  1  0  0  0  0
 34 32  1  0  0  0  0
 35 32  1  0  0  0  0
 36 35  1  0  0  0  0
 37 36  1  0  0  0  0
 38 39  1  0  0  0  0
 38 37  1  0  0  0  0
 39 35  1  0  0  0  0
M  END
>  <minimizedAffinity>
-5.59634829

$$$$

 OpenBabel03242519303D

 39 42  0  0  0  0  0  0  0  0999 V2000
   32.8130   29.2650   37.1940 C   0  0  0  0  0  0  0  0  0  0  0  0
   33.5490   29.0440   35.9920 C   0  0  0  0  0  0  0  0  0  0  0  0
   34.9210   28.7660   36.0600 C   0  0  0  0  0  0  0  0  0  0  0  0
   35.4820   28.7250   37.3140 N   0  0  0  0  0  0  0  0  0  0  0  0
   34.7320   28.9450   38.4530 C   0  0  0  0  0  0  0  0  0  0  0  0
   33.4480   29.2040   38.3620 N   0  0  0  0  0  0  0  0  0  0  0  0
   33.1720   29.0610   34.9780 H   0  0  0  0  0  0  0  0  0  0  0  0
   35.5170   28.5930   35.1930 H   0  0  0  0  0  0  0  0  0  0  0  0
   31.3850   29.5540   37.0040 C   0  0  0  0  0  0  0  0  0  0  0  0
   31.1000   30.4880   35.9330 C   0  0  0  0  0  0  0  0  0  0  0  0
   30.5600   31.7890   36.3650 C   0  0  0  0  0  0  0  0  0  0  0  0
   29.3340   31.6370   37.2610 C   0  0  0  0  0  0  0  0  0  0  0  0
   29.4150   30.4780   38.2150 C   0  0  0  0  0  0  0  0  0  0  0  0
   30.8660   30.0220   38.3910 C   0  0  0  0  0  0  0  0  0  0  0  0
   30.8380   28.5890   36.8520 H   0  0  0  0  0  0  0  0  0  0  0  0
   30.4080   30.0540   35.1650 H   0  0  0  0  0  0  0  0  0  0  0  0
   32.0380   30.6930   35.3570 H   0  0  0  0  0  0  0  0  0  0  0  0
   31.2330   32.4960   36.8400 H   0  0  0  0  0  0  0  0  0  0  0  0
   30.1770   32.3140   35.4420 H   0  0  0  0  0  0  0  0  0  0  0  0
   29.2280   32.5530   37.8760 H   0  0  0  0  0  0  0  0  0  0  0  0
   28.4020   31.5890   36.6280 H   0  0  0  0  0  0  0  0  0  0  0  0
   29.0110   30.6890   39.2100 H   0  0  0  0  0  0  0  0  0  0  0  0
   28.8800   29.6270   37.7110 H   0  0  0  0  0  0  0  0  0  0  0  0
   31.4970   30.8320   38.7870 H   0  0  0  0  0  0  0  0  0  0  0  0
   30.8760   29.1530   39.0600 H   0  0  0  0  0  0  0  0  0  0  0  0
   35.5000   28.8660   39.6870 C   0  0  0  0  0  0  0  0  0  0  0  0
   35.9000   30.0180   40.2650 N   0  0  0  0  0  0  0  0  0  0  0  0
   36.5960   29.7190   41.3960 C   0  0  0  0  0  0  0  0  0  0  0  0
   36.6120   28.3590   41.4960 N   0  0  0  0  0  0  0  0  0  0  0  0
   35.9470   27.8350   40.4590 N   0  0  0  0  0  0  0  0  0  0  0  0
   37.0560   30.4220   42.0950 H   0  0  0  0  0  0  0  0  0  0  0  0
   37.2450   27.5700   42.5560 C   0  0  0  0  0  0  0  0  0  0  0  0
   36.4910   27.2680   43.2830 H   0  0  0  0  0  0  0  0  0  0  0  0
   38.0260   28.2000   43.0710 H   0  0  0  0  0  0  0  0  0  0  0  0
   37.8490   26.3470   41.9400 C   0  0  0  0  0  3  0  0  0  0  0  0
   37.0670   25.0860   42.2530 C   0  0  0  0  0  2  0  0  0  0  0  0
   38.0240   23.9960   41.8530 C   0  0  0  0  0  2  0  0  0  0  0  0
   39.3900   24.5120   42.2430 C   0  0  0  0  0  2  0  0  0  0  0  0
   39.2160   26.0160   42.4740 C   0  0  0  0  0  2  0  0  0  0  0  0
  1  6  1  0  0  0  0
  2  3  1  0  0  0  0
  2  1  2  0  0  0  0
  3  4  2  0  0  0  0
  4  5  1  0  0  0  0
  5 26  1  0  0  0  0
  6  5  2  0  0  0  0
  7  2  1  0  0  0  0
  8  3  1  0  0  0  0
  9  1  1  0  0  0  0
  9 14  1  0  0  0  0
 10 11  1  0  0  0  0
 10  9  1  0  0  0  0
 11 18  1  0  0  0  0
 11 12  1  0  0  0  0
 12 20  1  0  0  0  0
 12 13  1  0  0  0  0
 13 14  1  0  0  0  0
 13 22  1  0  0  0  0
 14 24  1  0  0  0  0
 14 25  1  0  0  0  0
 15  9  1  0  0  0  0
 16 10  1  0  0  0  0
 17 10  1  0  0  0  0
 19 11  1  0  0  0  0
 21 12  1  0  0  0  0
 23 13  1  0  0  0  0
 26 27  1  0  0  0  0
 26 30  2  0  0  0  0
 27 28  2  0  0  0  0
 28 29  1  0  0  0  0
 28 31  1  0  0  0  0
 29 32  1  0  0  0  0
 30 29  1  0  0  0  0
 32 34  1  0  0  0  0
 32 33  1  0  0  0  0
 35 36  1  0  0  0  0
 35 39  1  0  0  0  0
 35 32  1  0  0  0  0
 37 38  1  0  0  0  0
 37 36  1  0  0  0  0
 38 39  1  0  0  0  0
M  END
>  <minimizedAffinity>
-5.58132744

$$$$

 OpenBabel03242519303D

 39 42  0  0  0  0  0  0  0  0999 V2000
   36.6100   27.4350   40.2060 C   0  0  0  0  0  0  0  0  0  0  0  0
   36.8240   26.0310   40.0790 C   0  0  0  0  0  0  0  0  0  0  0  0
   36.2870   25.3440   38.9810 C   0  0  0  0  0  0  0  0  0  0  0  0
   35.5690   26.0890   38.0770 N   0  0  0  0  0  0  0  0  0  0  0  0
   35.3860   27.4490   38.2380 C   0  0  0  0  0  0  0  0  0  0  0  0
   35.9000   28.0680   39.2750 N   0  0  0  0  0  0  0  0  0  0  0  0
   37.3760   25.3860   40.7500 H   0  0  0  0  0  0  0  0  0  0  0  0
   36.4170   24.2950   38.8390 H   0  0  0  0  0  0  0  0  0  0  0  0
   37.2120   28.0500   41.3960 C   0  0  0  0  0  0  0  0  0  0  0  0
   38.6580   28.1520   41.3510 C   0  0  0  0  0  0  0  0  0  0  0  0
   39.3760   27.3050   42.3190 C   0  0  0  0  0  0  0  0  0  0  0  0
   38.8840   27.5190   43.7490 C   0  0  0  0  0  0  0  0  0  0  0  0
   37.4010   27.7330   43.8590 C   0  0  0  0  0  0  0  0  0  0  0  0
   36.6860   27.2270   42.6030 C   0  0  0  0  0  0  0  0  0  0  0  0
   36.7430   29.0530   41.5620 H   0  0  0  0  0  0  0  0  0  0  0  0
   39.0120   29.2090   41.4730 H   0  0  0  0  0  0  0  0  0  0  0  0
   39.0200   27.8700   40.3300 H   0  0  0  0  0  0  0  0  0  0  0  0
   39.4180   26.2360   42.1380 H   0  0  0  0  0  0  0  0  0  0  0  0
   40.4510   27.6500   42.3310 H   0  0  0  0  0  0  0  0  0  0  0  0
   39.1250   26.6160   44.3450 H   0  0  0  0  0  0  0  0  0  0  0  0
   39.4620   28.3600   44.2300 H   0  0  0  0  0  0  0  0  0  0  0  0
   36.9410   27.2420   44.7220 H   0  0  0  0  0  0  0  0  0  0  0  0
   37.2510   28.8470   43.8750 H   0  0  0  0  0  0  0  0  0  0  0  0
   36.8630   26.1520   42.4440 H   0  0  0  0  0  0  0  0  0  0  0  0
   35.6140   27.4380   42.7070 H   0  0  0  0  0  0  0  0  0  0  0  0
   34.5950   28.0650   37.1830 C   0  0  0  0  0  0  0  0  0  0  0  0
   35.2290   28.4590   36.0580 N   0  0  0  0  0  0  0  0  0  0  0  0
   34.3120   29.0030   35.2100 C   0  0  0  0  0  0  0  0  0  0  0  0
   33.1060   28.9320   35.8420 N   0  0  0  0  0  0  0  0  0  0  0  0
   33.2720   28.3630   37.0430 N   0  0  0  0  0  0  0  0  0  0  0  0
   34.4960   29.4170   34.2170 H   0  0  0  0  0  0  0  0  0  0  0  0
   31.8190   29.3950   35.3180 C   0  0  0  0  0  0  0  0  0  0  0  0
   31.0490   28.6560   35.5410 H   0  0  0  0  0  0  0  0  0  0  0  0
   31.8980   29.5230   34.2000 H   0  0  0  0  0  0  0  0  0  0  0  0
   31.4680   30.6850   35.9920 C   0  0  0  0  0  3  0  0  0  0  0  0
   30.4160   30.5150   37.0710 C   0  0  0  0  0  2  0  0  0  0  0  0
   29.9850   31.9320   37.3380 C   0  0  0  0  0  2  0  0  0  0  0  0
   30.0080   32.6090   35.9860 C   0  0  0  0  0  2  0  0  0  0  0  0
   30.8250   31.6890   35.0740 C   0  0  0  0  0  2  0  0  0  0  0  0
  1  9  1  0  0  0  0
  2  1  1  0  0  0  0
  2  7  1  0  0  0  0
  3  2  2  0  0  0  0
  4  5  2  0  0  0  0
  4  3  1  0  0  0  0
  5  6  1  0  0  0  0
  6  1  2  0  0  0  0
  8  3  1  0  0  0  0
  9 15  1  0  0  0  0
  9 14  1  0  0  0  0
 10  9  1  0  0  0  0
 10 16  1  0  0  0  0
 10 11  1  0  0  0  0
 11 19  1  0  0  0  0
 11 12  1  0  0  0  0
 12 13  1  0  0  0  0
 12 21  1  0  0  0  0
 12 20  1  0  0  0  0
 13 23  1  0  0  0  0
 13 22  1  0  0  0  0
 14 25  1  0  0  0  0
 14 13  1  0  0  0  0
 17 10  1  0  0  0  0
 18 11  1  0  0  0  0
 24 14  1  0  0  0  0
 26  5  1  0  0  0  0
 27 26  1  0  0  0  0
 28 29  1  0  0  0  0
 28 27  2  0  0  0  0
 29 30  1  0  0  0  0
 30 26  2  0  0  0  0
 31 28  1  0  0  0  0
 32 33  1  0  0  0  0
 32 29  1  0  0  0  0
 32 35  1  0  0  0  0
 34 32  1  0  0  0  0
 35 36  1  0  0  0  0
 36 37  1  0  0  0  0
 38 37  1  0  0  0  0
 39 38  1  0  0  0  0
 39 35  1  0  0  0  0
M  END
>  <minimizedAffinity>
-5.46920347

$$$$

 OpenBabel03242519303D

 39 42  0  0  0  0  0  0  0  0999 V2000
   37.1610   27.7010   40.3460 C   0  0  0  0  0  0  0  0  0  0  0  0
   37.9710   28.8490   40.0980 C   0  0  0  0  0  0  0  0  0  0  0  0
   37.6050   29.7520   39.0900 C   0  0  0  0  0  0  0  0  0  0  0  0
   36.4600   29.4630   38.3870 N   0  0  0  0  0  0  0  0  0  0  0  0
   35.7040   28.3390   38.6600 C   0  0  0  0  0  0  0  0  0  0  0  0
   36.0690   27.5100   39.6100 N   0  0  0  0  0  0  0  0  0  0  0  0
   38.8790   29.1360   40.6110 H   0  0  0  0  0  0  0  0  0  0  0  0
   38.1750   30.6240   38.8640 H   0  0  0  0  0  0  0  0  0  0  0  0
   37.6410   26.8220   41.4200 C   0  0  0  0  0  0  0  0  0  0  0  0
   37.0900   27.1170   42.7280 C   0  0  0  0  0  0  0  0  0  0  0  0
   38.0550   27.6370   43.7120 C   0  0  0  0  0  0  0  0  0  0  0  0
   39.2760   26.7320   43.8560 C   0  0  0  0  0  0  0  0  0  0  0  0
   39.7410   26.1240   42.5620 C   0  0  0  0  0  0  0  0  0  0  0  0
   39.1910   26.9070   41.3670 C   0  0  0  0  0  0  0  0  0  0  0  0
   37.4460   25.7580   41.1310 H   0  0  0  0  0  0  0  0  0  0  0  0
   36.5670   26.2320   43.1760 H   0  0  0  0  0  0  0  0  0  0  0  0
   36.2760   27.8790   42.6250 H   0  0  0  0  0  0  0  0  0  0  0  0
   38.4080   28.6570   43.6000 H   0  0  0  0  0  0  0  0  0  0  0  0
   37.5520   27.6020   44.7220 H   0  0  0  0  0  0  0  0  0  0  0  0
   40.1190   27.3340   44.2500 H   0  0  0  0  0  0  0  0  0  0  0  0
   39.0780   25.9440   44.6370 H   0  0  0  0  0  0  0  0  0  0  0  0
   40.8290   26.0780   42.4550 H   0  0  0  0  0  0  0  0  0  0  0  0
   39.2670   25.1060   42.5120 H   0  0  0  0  0  0  0  0  0  0  0  0
   39.5210   27.9570   41.3870 H   0  0  0  0  0  0  0  0  0  0  0  0
   39.5190   26.4080   40.4460 H   0  0  0  0  0  0  0  0  0  0  0  0
   34.5320   28.1990   37.8090 C   0  0  0  0  0  0  0  0  0  0  0  0
   34.3190   27.0100   37.2060 N   0  0  0  0  0  0  0  0  0  0  0  0
   33.1790   27.0950   36.4660 C   0  0  0  0  0  0  0  0  0  0  0  0
   32.7010   28.3620   36.6300 N   0  0  0  0  0  0  0  0  0  0  0  0
   33.5200   29.0370   37.4460 N   0  0  0  0  0  0  0  0  0  0  0  0
   32.7270   26.3100   35.8560 H   0  0  0  0  0  0  0  0  0  0  0  0
   31.4910   28.9210   36.0250 C   0  0  0  0  0  0  0  0  0  0  0  0
   30.6300   28.3140   36.3060 H   0  0  0  0  0  0  0  0  0  0  0  0
   31.5990   28.9140   34.9020 H   0  0  0  0  0  0  0  0  0  0  0  0
   31.2990   30.3120   36.5460 C   0  0  0  0  0  3  0  0  0  0  0  0
   30.1710   30.4090   37.5560 C   0  0  0  0  0  2  0  0  0  0  0  0
   29.9440   31.8930   37.6540 C   0  0  0  0  0  2  0  0  0  0  0  0
   30.1480   32.4140   36.2500 C   0  0  0  0  0  2  0  0  0  0  0  0
   30.8700   31.2960   35.4930 C   0  0  0  0  0  2  0  0  0  0  0  0
  1  9  1  0  0  0  0
  2  1  1  0  0  0  0
  2  7  1  0  0  0  0
  3  2  2  0  0  0  0
  4  5  2  0  0  0  0
  4  3  1  0  0  0  0
  5  6  1  0  0  0  0
  6  1  2  0  0  0  0
  8  3  1  0  0  0  0
  9 10  1  0  0  0  0
 10 16  1  0  0  0  0
 10 11  1  0  0  0  0
 11 12  1  0  0  0  0
 11 19  1  0  0  0  0
 12 20  1  0  0  0  0
 12 21  1  0  0  0  0
 13 12  1  0  0  0  0
 14 24  1  0  0  0  0
 14  9  1  0  0  0  0
 14 13  1  0  0  0  0
 15  9  1  0  0  0  0
 17 10  1  0  0  0  0
 18 11  1  0  0  0  0
 22 13  1  0  0  0  0
 23 13  1  0  0  0  0
 25 14  1  0  0  0  0
 26  5  1  0  0  0  0
 27 26  1  0  0  0  0
 28 29  1  0  0  0  0
 28 27  2  0  0  0  0
 29 30  1  0  0  0  0
 30 26  2  0  0  0  0
 31 28  1  0  0  0  0
 32 33  1  0  0  0  0
 32 35  1  0  0  0  0
 32 29  1  0  0  0  0
 34 32  1  0  0  0  0
 35 36  1  0  0  0  0
 36 37  1  0  0  0  0
 38 37  1  0  0  0  0
 39 38  1  0  0  0  0
 39 35  1  0  0  0  0
M  END
>  <minimizedAffinity>
-5.46860075

$$$$

 OpenBabel03242519303D

 39 42  0  0  0  0  0  0  0  0999 V2000
   40.0530   32.8550   40.5130 C   0  0  0  0  0  0  0  0  0  0  0  0
   38.9000   33.5070   39.9820 C   0  0  0  0  0  0  0  0  0  0  0  0
   37.6420   32.9020   40.1070 C   0  0  0  0  0  0  0  0  0  0  0  0
   37.6010   31.6880   40.7500 N   0  0  0  0  0  0  0  0  0  0  0  0
   38.7430   31.0910   41.2500 C   0  0  0  0  0  0  0  0  0  0  0  0
   39.9090   31.6790   41.1200 N   0  0  0  0  0  0  0  0  0  0  0  0
   38.8610   34.4580   39.4680 H   0  0  0  0  0  0  0  0  0  0  0  0
   36.7500   33.3460   39.7280 H   0  0  0  0  0  0  0  0  0  0  0  0
   41.3180   33.5760   40.3200 C   0  0  0  0  0  0  0  0  0  0  0  0
   41.3020   34.5350   39.2340 C   0  0  0  0  0  0  0  0  0  0  0  0
   42.1600   34.1970   38.0860 C   0  0  0  0  0  0  0  0  0  0  0  0
   43.6000   33.9130   38.5060 C   0  0  0  0  0  0  0  0  0  0  0  0
   43.7220   33.1720   39.8090 C   0  0  0  0  0  0  0  0  0  0  0  0
   42.4040   32.4770   40.1610 C   0  0  0  0  0  0  0  0  0  0  0  0
   41.6070   34.0650   41.2850 H   0  0  0  0  0  0  0  0  0  0  0  0
   41.5610   35.5700   39.5790 H   0  0  0  0  0  0  0  0  0  0  0  0
   40.2570   34.6420   38.8470 H   0  0  0  0  0  0  0  0  0  0  0  0
   41.8440   33.3980   37.4220 H   0  0  0  0  0  0  0  0  0  0  0  0
   42.2280   35.1170   37.4360 H   0  0  0  0  0  0  0  0  0  0  0  0
   44.0780   33.2820   37.7310 H   0  0  0  0  0  0  0  0  0  0  0  0
   44.1910   34.8740   38.5190 H   0  0  0  0  0  0  0  0  0  0  0  0
   44.5100   32.4140   39.8200 H   0  0  0  0  0  0  0  0  0  0  0  0
   43.8790   33.9590   40.5960 H   0  0  0  0  0  0  0  0  0  0  0  0
   42.1110   31.7530   39.3850 H   0  0  0  0  0  0  0  0  0  0  0  0
   42.5230   31.9840   41.1340 H   0  0  0  0  0  0  0  0  0  0  0  0
   38.5020   29.8080   41.8920 C   0  0  0  0  0  0  0  0  0  0  0  0
   37.3950   29.6720   42.6530 N   0  0  0  0  0  0  0  0  0  0  0  0
   37.3630   28.4060   43.1530 C   0  0  0  0  0  0  0  0  0  0  0  0
   38.4750   27.7720   42.6820 N   0  0  0  0  0  0  0  0  0  0  0  0
   39.1710   28.6200   41.9150 N   0  0  0  0  0  0  0  0  0  0  0  0
   36.6010   27.9720   43.8050 H   0  0  0  0  0  0  0  0  0  0  0  0
   38.8700   26.3880   42.9530 C   0  0  0  0  0  0  0  0  0  0  0  0
   38.3820   26.0440   43.8660 H   0  0  0  0  0  0  0  0  0  0  0  0
   39.9880   26.3420   43.0910 H   0  0  0  0  0  0  0  0  0  0  0  0
   38.4240   25.5340   41.8080 C   0  0  0  0  0  3  0  0  0  0  0  0
   37.0430   24.9440   42.0200 C   0  0  0  0  0  2  0  0  0  0  0  0
   36.9700   23.8830   40.9550 C   0  0  0  0  0  2  0  0  0  0  0  0
   38.3640   23.3020   40.8860 C   0  0  0  0  0  2  0  0  0  0  0  0
   39.2680   24.3050   41.6080 C   0  0  0  0  0  2  0  0  0  0  0  0
  1  6  1  0  0  0  0
  2  3  1  0  0  0  0
  2  1  2  0  0  0  0
  3  4  2  0  0  0  0
  4  5  1  0  0  0  0
  5 26  1  0  0  0  0
  6  5  2  0  0  0  0
  7  2  1  0  0  0  0
  8  3  1  0  0  0  0
  9  1  1  0  0  0  0
  9 15  1  0  0  0  0
 10 16  1  0  0  0  0
 10  9  1  0  0  0  0
 11 12  1  0  0  0  0
 11 10  1  0  0  0  0
 12 21  1  0  0  0  0
 12 13  1  0  0  0  0
 13 22  1  0  0  0  0
 13 14  1  0  0  0  0
 13 23  1  0  0  0  0
 14  9  1  0  0  0  0
 14 25  1  0  0  0  0
 17 10  1  0  0  0  0
 18 11  1  0  0  0  0
 19 11  1  0  0  0  0
 20 12  1  0  0  0  0
 24 14  1  0  0  0  0
 26 30  2  0  0  0  0
 26 27  1  0  0  0  0
 27 28  2  0  0  0  0
 28 31  1  0  0  0  0
 29 32  1  0  0  0  0
 29 28  1  0  0  0  0
 30 29  1  0  0  0  0
 32 34  1  0  0  0  0
 32 33  1  0  0  0  0
 35 36  1  0  0  0  0
 35 32  1  0  0  0  0
 37 36  1  0  0  0  0
 38 37  1  0  0  0  0
 38 39  1  0  0  0  0
 39 35  1  0  0  0  0
M  END
>  <minimizedAffinity>
-5.44023657

$$$$
