
 OpenBabel03242519413D

 25 27  0  0  1  0  0  0  0  0999 V2000
   48.0140   32.9130   41.7430 O   0  0  0  0  0  0  0  0  0  0  0  0
   47.1510   34.0980   41.2880 P   0  0  2  0  0  0  0  0  0  0  0  0
   45.5640   33.8940   41.8940 O   0  0  0  0  0  0  0  0  0  0  0  0
   44.3980   35.9230   44.6880 C   0  0  0  0  0  0  0  0  0  0  0  0
   44.6740   35.5020   43.3670 C   0  0  0  0  0  0  0  0  0  0  0  0
   45.3110   34.2690   43.1950 C   0  0  0  0  0  0  0  0  0  0  0  0
   45.6300   33.5430   44.2910 N   0  0  0  0  0  0  0  0  0  0  0  0
   45.3550   33.9720   45.5440 C   0  0  0  0  0  0  0  0  0  0  0  0
   44.7470   35.1420   45.7550 N   0  0  0  0  0  0  0  0  0  0  0  0
   43.9060   36.8720   44.8390 H   0  0  0  0  0  0  0  0  0  0  0  0
   44.3590   36.1890   42.5820 H   0  0  0  0  0  0  0  0  0  0  0  0
   45.6810   33.2660   46.2860 H   0  0  0  0  0  0  0  0  0  0  0  0
   47.1000   34.1300   39.6250 O   0  0  0  0  0  0  0  0  0  0  0  0
   46.8120   33.1180   38.7500 C   0  0  1  0  0  3  0  0  0  0  0  0
   46.7360   33.4120   37.4590 O   0  0  0  0  0  0  0  0  0  0  0  0
   46.5010   31.7710   38.2660 C   0  0  0  0  0  0  0  0  0  0  0  0
   46.8290   30.6890   39.2680 C   0  0  0  0  0  2  0  0  0  0  0  0
   45.6260   30.6610   40.1680 C   0  0  0  0  0  2  0  0  0  0  0  0
   44.5670   31.4850   39.5410 C   0  0  0  0  0  2  0  0  0  0  0  0
   44.9730   31.6590   38.1190 C   0  0  0  0  0  2  0  0  0  0  0  0
   47.8020   35.4610   41.9500 O   0  0  0  0  0  0  0  0  0  0  0  0
   49.0470   35.7780   41.4320 C   0  0  0  0  0  0  0  0  0  0  0  0
   49.4670   37.0570   41.7810 F   0  0  0  0  0  0  0  0  0  0  0  0
   49.9530   34.8250   41.7690 F   0  0  0  0  0  0  0  0  0  0  0  0
   48.9020   35.7940   40.0530 F   0  0  0  0  0  0  0  0  0  0  0  0
  2  1  2  1  0  0  0
  2  3  1  0  0  0  0
  2 21  1  0  0  0  0
  3  6  1  0  0  0  0
  4 10  1  0  0  0  0
  4  9  1  0  0  0  0
  5  4  2  0  0  0  0
  6  5  1  0  0  0  0
  6  7  2  0  0  0  0
  7  8  1  0  0  0  0
  8  9  2  0  0  0  0
  8 12  1  0  0  0  0
 11  5  1  0  0  0  0
 13  2  1  0  0  0  0
 14 13  1  6  0  0  0
 15 16  1  0  0  0  0
 15 14  1  0  0  0  0
 16 14  1  0  0  0  0
 16 17  1  0  0  0  0
 17 18  1  0  0  0  0
 19 18  1  0  0  0  0
 20 16  1  0  0  0  0
 20 19  1  0  0  0  0
 22 24  1  0  0  0  0
 22 23  1  0  0  0  0
 22 21  1  0  0  0  0
 25 22  1  0  0  0  0
M  END
>  <minimizedAffinity>
-4.81957197

>  <minimizedRMSD>
0.761797965

$$$$
