REMARK  Name = 
REMARK  3 active torsions:
REMARK  status: ('A' for Active; 'I' for Inactive)
REMARK    1  A    between atoms: C_2  and  C_14
REMARK    2  A    between atoms: C_10  and  C_16
REMARK    3  A    between atoms: C_16  and  C_26
REMARK                            x       y       z     vdW  Elec       q    Type
REMARK                         _______ _______ _______ _____ _____    ______ ____
ROOT
ATOM      1  C   UNL     1      46.059  31.691  45.146  0.00  0.00    +0.000 A 
ATOM      2  C   UNL     1      45.807  33.007  45.538  0.00  0.00    +0.000 A 
ATOM      3  C   UNL     1      45.523  33.282  46.850  0.00  0.00    +0.000 A 
ATOM      4  C   UNL     1      45.489  32.253  47.768  0.00  0.00    +0.000 A 
ATOM      5  N   UNL     1      45.249  32.196  49.084  0.00  0.00    +0.000 N 
ATOM      6  C   UNL     1      45.330  30.948  49.551  0.00  0.00    +0.000 A 
ATOM      7  C   UNL     1      45.643  30.118  48.484  0.00  0.00    +0.000 A 
ATOM      8  C   UNL     1      45.739  30.940  47.382  0.00  0.00    +0.000 A 
ATOM      9  C   UNL     1      46.025  30.669  46.056  0.00  0.00    +0.000 A 
ATOM     10  H   UNL     1      46.290  31.421  44.110  0.00  0.00    +0.000 HD
ATOM     11  H   UNL     1      45.327  34.296  47.163  0.00  0.00    +0.000 HD
ATOM     12  H   UNL     1      45.024  33.017  49.691  0.00  0.00    +0.000 HD
ATOM     13  H   UNL     1      45.182  30.602  50.582  0.00  0.00    +0.000 HD
ATOM     14  H   UNL     1      45.785  29.057  48.488  0.00  0.00    +0.000 HD
ATOM     15  H   UNL     1      46.220  29.644  45.760  0.00  0.00    +0.000 HD
ENDROOT
BRANCH   2  20
ATOM     16  C   UNL     1      46.893  34.925  42.632  0.00  0.00    +0.000 A 
ATOM     17  C   UNL     1      45.971  35.966  42.549  0.00  0.00    +0.000 A 
ATOM     18  C   UNL     1      44.961  36.006  43.511  0.00  0.00    +0.000 A 
ATOM     19  N   UNL     1      44.935  35.039  44.459  0.00  0.00    +0.000 NA
ATOM     20  C   UNL     1      45.862  34.037  44.500  0.00  0.00    +0.000 A 
ATOM     21  N   UNL     1      46.836  33.986  43.585  0.00  0.00    +0.000 NA
ATOM     22  H   UNL     1      45.955  36.750  41.818  0.00  0.00    +0.000 HD
ATOM     23  H   UNL     1      44.200  36.781  43.523  0.00  0.00    +0.000 HD
BRANCH  16  24
ATOM     24  C   UNL     1      47.905  34.947  41.611  0.00  0.00    +0.000 C 
ATOM     25  O   UNL     1      48.816  35.811  41.468  0.00  0.00    +0.000 OA
BRANCH  24  26
ATOM     26  C   UNL     1      47.936  33.864  40.580  0.00  0.00    +0.000 C 
ATOM     27  C   UNL     1      47.757  32.503  41.200  0.00  0.00    +0.000 C 
ATOM     28  C   UNL     1      46.877  31.774  40.230  0.00  0.00    +0.000 C 
ATOM     29  C   UNL     1      46.512  32.702  39.116  0.00  0.00    +0.000 C 
ATOM     30  C   UNL     1      46.746  34.072  39.667  0.00  0.00    +0.000 C 
ENDBRANCH  24  26
ENDBRANCH  16  24
ENDBRANCH   2  20
TORSDOF 3
