
 OpenBabel03252507553D

 40 43  0  0  1  0  0  0  0  0999 V2000
   47.1010   34.8690   41.9510 C   0  0  2  0  0  0  0  0  0  0  0  0
   46.3770   34.1980   40.7850 C   0  0  0  0  0  0  0  0  0  0  0  0
   47.5960   34.0690   39.8440 C   0  0  0  0  0  0  0  0  0  0  0  0
   48.7410   33.7370   40.7500 C   0  0  1  0  0  0  0  0  0  0  0  0
   48.2170   33.8790   42.1470 C   0  0  0  0  0  0  0  0  0  0  0  0
   47.4450   35.8370   41.5950 H   0  0  0  0  0  0  0  0  0  0  0  0
   45.6110   34.8330   40.3510 H   0  0  0  0  0  0  0  0  0  0  0  0
   46.0880   33.2010   41.1130 H   0  0  0  0  0  0  0  0  0  0  0  0
   47.3820   33.2950   39.0890 H   0  0  0  0  0  0  0  0  0  0  0  0
   47.7010   35.0780   39.4060 H   0  0  0  0  0  0  0  0  0  0  0  0
   49.5510   34.4720   40.5550 H   0  0  0  0  0  0  0  0  0  0  0  0
   47.8800   32.9600   42.6200 H   0  0  0  0  0  0  0  0  0  0  0  0
   49.0140   34.4060   42.7470 H   0  0  0  0  0  0  0  0  0  0  0  0
   44.5260   35.9710   44.4710 C   0  0  0  0  0  0  0  0  0  0  0  0
   45.2730   35.9710   43.2980 C   0  0  0  0  0  0  0  0  0  0  0  0
   46.2220   34.9640   43.1520 C   0  0  0  0  0  0  0  0  0  0  0  0
   46.3970   34.0040   44.1600 N   0  0  0  0  0  0  0  0  0  0  0  0
   45.6370   34.0580   45.2830 C   0  0  0  0  0  0  0  0  0  0  0  0
   44.7070   35.0390   45.4340 N   0  0  0  0  0  0  0  0  0  0  0  0
   43.7790   36.7430   44.6120 H   0  0  0  0  0  0  0  0  0  0  0  0
   45.1620   36.6950   42.5060 H   0  0  0  0  0  0  0  0  0  0  0  0
   45.8520   33.2730   45.9960 H   0  0  0  0  0  0  0  0  0  0  0  0
   49.2690   32.3290   40.6070 C   0  0  2  0  0  0  0  0  0  0  0  0
   50.1800   31.8810   41.6560 C   0  0  0  0  0  0  0  0  0  0  0  0
   50.6650   32.0580   40.2570 C   0  0  1  0  0  0  0  0  0  0  0  0
   48.5130   31.6130   40.2410 H   0  0  0  0  0  0  0  0  0  0  0  0
   50.5150   32.6130   42.4270 H   0  0  0  0  0  0  0  0  0  0  0  0
   50.0660   30.8600   42.0780 H   0  0  0  0  0  0  0  0  0  0  0  0
   51.3150   32.9020   39.9550 H   0  0  0  0  0  0  0  0  0  0  0  0
   50.9280   30.8940   39.4950 O   0  0  0  0  0  0  0  0  0  0  0  0
   50.5560   30.3680   36.9670 O   0  0  0  0  0  0  0  0  0  0  0  0
   51.1960   31.3630   37.9030 P   0  0  1  0  0  0  0  0  0  0  0  0
   50.4740   32.8900   37.6090 O   0  0  0  0  0  0  0  0  0  0  0  0
   51.0930   33.5530   38.0380 H   0  0  0  0  0  0  0  0  0  0  0  0
   52.8020   31.5050   37.5000 O   0  0  0  0  0  0  0  0  0  0  0  0
   53.3670   30.2210   37.6060 C   0  0  0  0  0  3  0  0  0  0  0  0
   54.4300   30.1800   38.6720 C   0  0  0  0  0  2  0  0  0  0  0  0
   55.7440   30.0210   37.9320 C   0  0  0  0  0  2  0  0  0  0  0  0
   55.4410   30.4290   36.5080 C   0  0  0  0  0  2  0  0  0  0  0  0
   54.0640   29.8310   36.3190 C   0  0  0  0  0  2  0  0  0  0  0  0
  1  6  1  6  0  0  0
  1  5  1  0  0  0  0
  1 16  1  0  0  0  0
  2  8  1  0  0  0  0
  2  1  1  0  0  0  0
  3  4  1  0  0  0  0
  3  2  1  0  0  0  0
  4 11  1  6  0  0  0
  4  5  1  0  0  0  0
  5 12  1  0  0  0  0
  5 13  1  0  0  0  0
  7  2  1  0  0  0  0
  9  3  1  0  0  0  0
 10  3  1  0  0  0  0
 14 20  1  0  0  0  0
 14 19  1  0  0  0  0
 15 14  2  0  0  0  0
 16 15  1  0  0  0  0
 16 17  2  0  0  0  0
 17 18  1  0  0  0  0
 18 19  2  0  0  0  0
 18 22  1  0  0  0  0
 21 15  1  0  0  0  0
 23 26  1  6  0  0  0
 23  4  1  0  0  0  0
 23 24  1  0  0  0  0
 24 28  1  0  0  0  0
 24 27  1  0  0  0  0
 25 29  1  6  0  0  0
 25 23  1  0  0  0  0
 25 24  1  0  0  0  0
 30 25  1  0  0  0  0
 32 31  2  6  0  0  0
 32 30  1  0  0  0  0
 33 32  1  0  0  0  0
 33 34  1  0  0  0  0
 35 36  1  0  0  0  0
 35 32  1  0  0  0  0
 36 37  1  0  0  0  0
 38 37  1  0  0  0  0
 39 38  1  0  0  0  0
 40 39  1  0  0  0  0
 40 36  1  0  0  0  0
M  END
>  <minimizedAffinity>
-5.33678102

>  <minimizedRMSD>
2.17149067

$$$$
