
 OpenBabel03242510523D

 18 19  0  0  0  0  0  0  0  0999 V2000
   37.3210   33.4450   39.6150 C   0  0  0  0  0  0  0  0  0  0  0  0
   38.4850   34.1610   39.9420 C   0  0  0  0  0  0  0  0  0  0  0  0
   39.4360   33.5130   40.7540 C   0  0  0  0  0  0  0  0  0  0  0  0
   39.1680   32.2460   41.1670 N   0  0  0  0  0  0  0  0  0  0  0  0
   38.0470   31.6010   40.8330 C   0  0  0  0  0  0  0  0  0  0  0  0
   37.1160   32.1900   40.0570 N   0  0  0  0  0  0  0  0  0  0  0  0
   38.7090   29.8410   42.3910 C   0  0  0  0  0  0  0  0  0  0  0  0
   39.5910   30.5410   42.9180 O   0  0  0  0  0  0  0  0  0  0  0  0
   37.8480   30.2620   41.3160 N   0  0  0  0  0  0  0  0  0  0  0  0
   36.5970   33.9740   38.9810 H   0  0  0  0  0  0  0  0  0  0  0  0
   38.7090   35.1590   39.6230 H   0  0  0  0  0  0  0  0  0  0  0  0
   40.3740   33.9540   41.0780 H   0  0  0  0  0  0  0  0  0  0  0  0
   37.1090   29.6720   40.8760 H   0  0  0  0  0  0  0  0  0  0  0  0
   38.4200   28.4280   42.8210 C   0  0  0  0  0  3  0  0  0  0  0  0
   38.0440   27.5540   41.6650 C   0  0  0  0  0  2  0  0  0  0  0  0
   37.1010   26.5410   42.2450 C   0  0  0  0  0  2  0  0  0  0  0  0
   36.6850   27.0420   43.6010 C   0  0  0  0  0  2  0  0  0  0  0  0
   37.1370   28.4850   43.6220 C   0  0  0  0  0  2  0  0  0  0  0  0
  1  2  2  0  0  0  0
  1  6  1  0  0  0  0
  2  3  1  0  0  0  0
  3 12  1  0  0  0  0
  3  4  2  0  0  0  0
  5  4  1  0  0  0  0
  5  9  1  0  0  0  0
  6  5  2  0  0  0  0
  7 14  1  0  0  0  0
  7  8  2  0  0  0  0
  9  7  1  0  0  0  0
 10  1  1  0  0  0  0
 11  2  1  0  0  0  0
 13  9  1  0  0  0  0
 14 18  1  0  0  0  0
 15 16  1  0  0  0  0
 15 14  1  0  0  0  0
 16 17  1  0  0  0  0
 17 18  1  0  0  0  0
M  END
>  <minimizedAffinity>
-4.62919617

$$$$

 OpenBabel03242510523D

 18 19  0  0  0  0  0  0  0  0999 V2000
   40.6300   33.3540   40.3580 C   0  0  0  0  0  0  0  0  0  0  0  0
   39.5820   34.1400   39.8490 C   0  0  0  0  0  0  0  0  0  0  0  0
   38.2670   33.6950   40.0870 C   0  0  0  0  0  0  0  0  0  0  0  0
   38.0980   32.5430   40.7880 N   0  0  0  0  0  0  0  0  0  0  0  0
   39.1240   31.8250   41.2540 C   0  0  0  0  0  0  0  0  0  0  0  0
   40.3950   32.2210   41.0440 N   0  0  0  0  0  0  0  0  0  0  0  0
   37.5110   30.0990   41.8730 C   0  0  0  0  0  0  0  0  0  0  0  0
   36.5980   30.6120   41.2020 O   0  0  0  0  0  0  0  0  0  0  0  0
   38.8490   30.6180   41.9850 N   0  0  0  0  0  0  0  0  0  0  0  0
   41.6450   33.7240   40.1570 H   0  0  0  0  0  0  0  0  0  0  0  0
   39.7010   35.0490   39.2960 H   0  0  0  0  0  0  0  0  0  0  0  0
   37.3710   34.2080   39.7500 H   0  0  0  0  0  0  0  0  0  0  0  0
   39.6130   30.1870   42.5480 H   0  0  0  0  0  0  0  0  0  0  0  0
   37.3300   28.8380   42.6740 C   0  0  0  0  0  3  0  0  0  0  0  0
   38.6340   28.2880   43.1610 C   0  0  0  0  0  2  0  0  0  0  0  0
   38.4250   26.8040   43.2140 C   0  0  0  0  0  2  0  0  0  0  0  0
   37.1660   26.5010   42.4480 C   0  0  0  0  0  2  0  0  0  0  0  0
   36.8700   27.7790   41.6950 C   0  0  0  0  0  2  0  0  0  0  0  0
  1  6  1  0  0  0  0
  2  3  1  0  0  0  0
  2  1  2  0  0  0  0
  3  4  2  0  0  0  0
  4  5  1  0  0  0  0
  5  9  1  0  0  0  0
  6  5  2  0  0  0  0
  7  9  1  0  0  0  0
  7 14  1  0  0  0  0
  8  7  2  0  0  0  0
  9 13  1  0  0  0  0
 10  1  1  0  0  0  0
 11  2  1  0  0  0  0
 12  3  1  0  0  0  0
 14 15  1  0  0  0  0
 15 16  1  0  0  0  0
 17 16  1  0  0  0  0
 18 17  1  0  0  0  0
 18 14  1  0  0  0  0
M  END
>  <minimizedAffinity>
-4.58566713

$$$$

 OpenBabel03242510523D

 18 19  0  0  0  0  0  0  0  0999 V2000
   37.1980   32.1240   40.4060 C   0  0  0  0  0  0  0  0  0  0  0  0
   38.4700   32.6750   40.6350 C   0  0  0  0  0  0  0  0  0  0  0  0
   39.4300   31.8500   41.2530 C   0  0  0  0  0  0  0  0  0  0  0  0
   39.0650   30.5840   41.5870 N   0  0  0  0  0  0  0  0  0  0  0  0
   37.8430   30.0990   41.3520 C   0  0  0  0  0  0  0  0  0  0  0  0
   36.9000   30.8610   40.7620 N   0  0  0  0  0  0  0  0  0  0  0  0
   38.4770   28.1300   42.6480 C   0  0  0  0  0  0  0  0  0  0  0  0
   39.4950   28.6740   43.1110 O   0  0  0  0  0  0  0  0  0  0  0  0
   37.5470   28.7470   41.7400 N   0  0  0  0  0  0  0  0  0  0  0  0
   36.4690   32.7900   39.9230 H   0  0  0  0  0  0  0  0  0  0  0  0
   38.7700   33.6700   40.3770 H   0  0  0  0  0  0  0  0  0  0  0  0
   40.4460   32.1520   41.4850 H   0  0  0  0  0  0  0  0  0  0  0  0
   36.6940   28.2880   41.3540 H   0  0  0  0  0  0  0  0  0  0  0  0
   38.0770   26.7190   42.9890 C   0  0  0  0  0  3  0  0  0  0  0  0
   39.1890   25.7460   42.7500 C   0  0  0  0  0  2  0  0  0  0  0  0
   38.5010   24.4660   42.3770 C   0  0  0  0  0  2  0  0  0  0  0  0
   37.0660   24.8020   42.0710 C   0  0  0  0  0  2  0  0  0  0  0  0
   37.0520   26.3100   41.9540 C   0  0  0  0  0  2  0  0  0  0  0  0
  1  2  2  0  0  0  0
  1  6  1  0  0  0  0
  2  3  1  0  0  0  0
  3 12  1  0  0  0  0
  3  4  2  0  0  0  0
  5  4  1  0  0  0  0
  5  9  1  0  0  0  0
  6  5  2  0  0  0  0
  7 14  1  0  0  0  0
  7  8  2  0  0  0  0
  9  7  1  0  0  0  0
 10  1  1  0  0  0  0
 11  2  1  0  0  0  0
 13  9  1  0  0  0  0
 15 14  1  0  0  0  0
 16 15  1  0  0  0  0
 17 16  1  0  0  0  0
 18 17  1  0  0  0  0
 18 14  1  0  0  0  0
M  END
>  <minimizedAffinity>
-4.38673973

$$$$

 OpenBabel03242510523D

 18 19  0  0  0  0  0  0  0  0999 V2000
   37.2060   29.9890   38.7840 C   0  0  0  0  0  0  0  0  0  0  0  0
   36.5550   31.0520   39.4330 C   0  0  0  0  0  0  0  0  0  0  0  0
   36.6170   31.0850   40.8400 C   0  0  0  0  0  0  0  0  0  0  0  0
   37.2970   30.0930   41.4740 N   0  0  0  0  0  0  0  0  0  0  0  0
   37.9010   29.0990   40.8180 C   0  0  0  0  0  0  0  0  0  0  0  0
   37.8630   29.0370   39.4720 N   0  0  0  0  0  0  0  0  0  0  0  0
   38.3100   28.0460   42.9820 C   0  0  0  0  0  0  0  0  0  0  0  0
   37.5190   28.7980   43.5780 O   0  0  0  0  0  0  0  0  0  0  0  0
   38.5980   28.0940   41.5730 N   0  0  0  0  0  0  0  0  0  0  0  0
   37.1410   29.9880   37.6880 H   0  0  0  0  0  0  0  0  0  0  0  0
   36.0160   31.8390   38.9460 H   0  0  0  0  0  0  0  0  0  0  0  0
   36.1580   31.8490   41.4610 H   0  0  0  0  0  0  0  0  0  0  0  0
   39.2620   27.4610   41.0760 H   0  0  0  0  0  0  0  0  0  0  0  0
   39.0890   26.9620   43.6770 C   0  0  0  0  0  3  0  0  0  0  0  0
   40.5620   27.2250   43.6570 C   0  0  0  0  0  2  0  0  0  0  0  0
   41.1920   25.8640   43.6360 C   0  0  0  0  0  2  0  0  0  0  0  0
   40.1100   24.8750   43.3000 C   0  0  0  0  0  2  0  0  0  0  0  0
   38.9620   25.7280   42.8090 C   0  0  0  0  0  2  0  0  0  0  0  0
  1  2  2  0  0  0  0
  1  6  1  0  0  0  0
  2  3  1  0  0  0  0
  3 12  1  0  0  0  0
  3  4  2  0  0  0  0
  5  4  1  0  0  0  0
  5  9  1  0  0  0  0
  6  5  2  0  0  0  0
  7  8  2  0  0  0  0
  7 14  1  0  0  0  0
  9  7  1  0  0  0  0
 10  1  1  0  0  0  0
 11  2  1  0  0  0  0
 13  9  1  0  0  0  0
 15 14  1  0  0  0  0
 16 15  1  0  0  0  0
 17 16  1  0  0  0  0
 18 17  1  0  0  0  0
 18 14  1  0  0  0  0
M  END
>  <minimizedAffinity>
-4.35251713

$$$$

 OpenBabel03242510523D

 18 19  0  0  0  0  0  0  0  0999 V2000
   37.2010   30.8240   38.3020 C   0  0  0  0  0  0  0  0  0  0  0  0
   37.1210   31.9870   39.0850 C   0  0  0  0  0  0  0  0  0  0  0  0
   37.2350   31.8360   40.4820 C   0  0  0  0  0  0  0  0  0  0  0  0
   37.4130   30.5820   40.9760 N   0  0  0  0  0  0  0  0  0  0  0  0
   37.4820   29.5010   40.1950 C   0  0  0  0  0  0  0  0  0  0  0  0
   37.3770   29.6100   38.8550 N   0  0  0  0  0  0  0  0  0  0  0  0
   37.4370   28.1470   42.2250 C   0  0  0  0  0  0  0  0  0  0  0  0
   37.0900   29.1030   42.9410 O   0  0  0  0  0  0  0  0  0  0  0  0
   37.6710   28.2150   40.8070 N   0  0  0  0  0  0  0  0  0  0  0  0
   37.1090   30.9720   37.2170 H   0  0  0  0  0  0  0  0  0  0  0  0
   36.9820   32.9810   38.7090 H   0  0  0  0  0  0  0  0  0  0  0  0
   37.1910   32.6510   41.1970 H   0  0  0  0  0  0  0  0  0  0  0  0
   37.9620   27.4110   40.2090 H   0  0  0  0  0  0  0  0  0  0  0  0
   37.6630   26.7600   42.7660 C   0  0  0  0  0  3  0  0  0  0  0  0
   39.1160   26.4030   42.8100 C   0  0  0  0  0  2  0  0  0  0  0  0
   39.1490   24.9180   42.5990 C   0  0  0  0  0  2  0  0  0  0  0  0
   37.7910   24.5060   42.1000 C   0  0  0  0  0  2  0  0  0  0  0  0
   37.1200   25.8070   41.7220 C   0  0  0  0  0  2  0  0  0  0  0  0
  1  6  2  0  0  0  0
  1  2  1  0  0  0  0
  2  3  2  0  0  0  0
  3  4  1  0  0  0  0
  3 12  1  0  0  0  0
  5  9  1  0  0  0  0
  5  4  2  0  0  0  0
  6  5  1  0  0  0  0
  7 14  1  0  0  0  0
  7  8  2  0  0  0  0
  9  7  1  0  0  0  0
 10  1  1  0  0  0  0
 11  2  1  0  0  0  0
 13  9  1  0  0  0  0
 14 15  1  0  0  0  0
 16 15  1  0  0  0  0
 17 16  1  0  0  0  0
 18 17  1  0  0  0  0
 18 14  1  0  0  0  0
M  END
>  <minimizedAffinity>
-4.21330976

$$$$

 OpenBabel03242510523D

 18 19  0  0  0  0  0  0  0  0999 V2000
   37.1870   25.1530   40.0850 C   0  0  0  0  0  0  0  0  0  0  0  0
   37.2280   24.8430   41.4550 C   0  0  0  0  0  0  0  0  0  0  0  0
   37.0840   25.9100   42.3640 C   0  0  0  0  0  0  0  0  0  0  0  0
   36.9160   27.1610   41.8600 N   0  0  0  0  0  0  0  0  0  0  0  0
   36.8840   27.4120   40.5480 C   0  0  0  0  0  0  0  0  0  0  0  0
   37.0180   26.4150   39.6510 N   0  0  0  0  0  0  0  0  0  0  0  0
   36.9040   29.7910   41.0990 C   0  0  0  0  0  0  0  0  0  0  0  0
   37.2170   29.5860   42.2850 O   0  0  0  0  0  0  0  0  0  0  0  0
   36.7020   28.7680   40.1070 N   0  0  0  0  0  0  0  0  0  0  0  0
   37.3030   24.3020   39.4000 H   0  0  0  0  0  0  0  0  0  0  0  0
   37.3590   23.8620   41.8660 H   0  0  0  0  0  0  0  0  0  0  0  0
   37.0970   25.8070   43.4450 H   0  0  0  0  0  0  0  0  0  0  0  0
   36.4390   28.9420   39.1120 H   0  0  0  0  0  0  0  0  0  0  0  0
   36.6890   31.1700   40.5350 C   0  0  0  0  0  3  0  0  0  0  0  0
   36.7200   31.1770   39.0390 C   0  0  0  0  0  2  0  0  0  0  0  0
   37.2610   32.5280   38.6760 C   0  0  0  0  0  2  0  0  0  0  0  0
   37.8450   33.1280   39.9260 C   0  0  0  0  0  2  0  0  0  0  0  0
   37.9240   31.9690   40.8950 C   0  0  0  0  0  2  0  0  0  0  0  0
  1  2  1  0  0  0  0
  2 11  1  0  0  0  0
  2  3  2  0  0  0  0
  3 12  1  0  0  0  0
  4  3  1  0  0  0  0
  5  4  2  0  0  0  0
  6  1  2  0  0  0  0
  6  5  1  0  0  0  0
  7  8  2  0  0  0  0
  9  5  1  0  0  0  0
  9  7  1  0  0  0  0
 10  1  1  0  0  0  0
 13  9  1  0  0  0  0
 14 18  1  0  0  0  0
 14  7  1  0  0  0  0
 15 14  1  0  0  0  0
 16 15  1  0  0  0  0
 16 17  1  0  0  0  0
 17 18  1  0  0  0  0
M  END
>  <minimizedAffinity>
-4.19458294

$$$$

 OpenBabel03242510523D

 18 19  0  0  0  0  0  0  0  0999 V2000
   41.6210   32.9450   37.2950 C   0  0  0  0  0  0  0  0  0  0  0  0
   41.9940   33.9570   38.1950 C   0  0  0  0  0  0  0  0  0  0  0  0
   41.1670   34.1610   39.3170 C   0  0  0  0  0  0  0  0  0  0  0  0
   40.0700   33.3720   39.4540 N   0  0  0  0  0  0  0  0  0  0  0  0
   39.7500   32.4200   38.5730 C   0  0  0  0  0  0  0  0  0  0  0  0
   40.5190   32.1970   37.4890 N   0  0  0  0  0  0  0  0  0  0  0  0
   37.6420   32.1480   39.7740 C   0  0  0  0  0  0  0  0  0  0  0  0
   37.7890   33.2030   40.4160 O   0  0  0  0  0  0  0  0  0  0  0  0
   38.5690   31.6330   38.8010 N   0  0  0  0  0  0  0  0  0  0  0  0
   42.2840   32.8080   36.4290 H   0  0  0  0  0  0  0  0  0  0  0  0
   42.8560   34.5860   38.0980 H   0  0  0  0  0  0  0  0  0  0  0  0
   41.3430   34.9080   40.0850 H   0  0  0  0  0  0  0  0  0  0  0  0
   38.4430   30.7480   38.2640 H   0  0  0  0  0  0  0  0  0  0  0  0
   36.4440   31.2520   39.9370 C   0  0  0  0  0  3  0  0  0  0  0  0
   36.5540   30.3790   41.1480 C   0  0  0  0  0  2  0  0  0  0  0  0
   35.8110   29.1280   40.7850 C   0  0  0  0  0  2  0  0  0  0  0  0
   35.5940   29.1520   39.2960 C   0  0  0  0  0  2  0  0  0  0  0  0
   36.5080   30.2510   38.8030 C   0  0  0  0  0  2  0  0  0  0  0  0
  1  6  2  0  0  0  0
  1  2  1  0  0  0  0
  2  3  2  0  0  0  0
  3  4  1  0  0  0  0
  3 12  1  0  0  0  0
  5  9  1  0  0  0  0
  5  4  2  0  0  0  0
  6  5  1  0  0  0  0
  7 14  1  0  0  0  0
  7  8  2  0  0  0  0
  9  7  1  0  0  0  0
 10  1  1  0  0  0  0
 11  2  1  0  0  0  0
 13  9  1  0  0  0  0
 14 15  1  0  0  0  0
 16 15  1  0  0  0  0
 17 16  1  0  0  0  0
 18 17  1  0  0  0  0
 18 14  1  0  0  0  0
M  END
>  <minimizedAffinity>
-4.13983679

$$$$

 OpenBabel03242510523D

 18 19  0  0  0  0  0  0  0  0999 V2000
   38.5700   24.2260   42.2510 C   0  0  0  0  0  0  0  0  0  0  0  0
   39.6440   24.3200   43.1520 C   0  0  0  0  0  0  0  0  0  0  0  0
   39.9740   25.6030   43.6310 C   0  0  0  0  0  0  0  0  0  0  0  0
   39.2380   26.6580   43.1940 N   0  0  0  0  0  0  0  0  0  0  0  0
   38.2240   26.5240   42.3340 C   0  0  0  0  0  0  0  0  0  0  0  0
   37.8810   25.3120   41.8560 N   0  0  0  0  0  0  0  0  0  0  0  0
   38.1310   28.9610   42.2100 C   0  0  0  0  0  0  0  0  0  0  0  0
   39.2320   29.1030   42.7700 O   0  0  0  0  0  0  0  0  0  0  0  0
   37.5010   27.6980   41.9270 N   0  0  0  0  0  0  0  0  0  0  0  0
   38.3360   23.2140   41.8930 H   0  0  0  0  0  0  0  0  0  0  0  0
   40.2320   23.4980   43.5050 H   0  0  0  0  0  0  0  0  0  0  0  0
   40.7790   25.8130   44.3300 H   0  0  0  0  0  0  0  0  0  0  0  0
   36.5780   27.5820   41.4570 H   0  0  0  0  0  0  0  0  0  0  0  0
   37.2940   30.1220   41.7450 C   0  0  0  0  0  3  0  0  0  0  0  0
   36.3880   29.7450   40.6140 C   0  0  0  0  0  2  0  0  0  0  0  0
   36.2470   31.0010   39.8050 C   0  0  0  0  0  2  0  0  0  0  0  0
   37.3170   31.9530   40.2660 C   0  0  0  0  0  2  0  0  0  0  0  0
   38.2510   31.0970   41.0910 C   0  0  0  0  0  2  0  0  0  0  0  0
  1  2  1  0  0  0  0
  2 11  1  0  0  0  0
  2  3  2  0  0  0  0
  3 12  1  0  0  0  0
  4  3  1  0  0  0  0
  5  4  2  0  0  0  0
  6  1  2  0  0  0  0
  6  5  1  0  0  0  0
  7  8  2  0  0  0  0
  9  7  1  0  0  0  0
  9  5  1  0  0  0  0
 10  1  1  0  0  0  0
 13  9  1  0  0  0  0
 14  7  1  0  0  0  0
 15 14  1  0  0  0  0
 16 17  1  0  0  0  0
 16 15  1  0  0  0  0
 17 18  1  0  0  0  0
 18 14  1  0  0  0  0
M  END
>  <minimizedAffinity>
-4.10996628

$$$$

 OpenBabel03242510523D

 18 19  0  0  0  0  0  0  0  0999 V2000
   39.9170   32.0110   37.9880 C   0  0  0  0  0  0  0  0  0  0  0  0
   40.9010   32.8800   38.4890 C   0  0  0  0  0  0  0  0  0  0  0  0
   41.2320   32.7630   39.8540 C   0  0  0  0  0  0  0  0  0  0  0  0
   40.5840   31.8230   40.5910 N   0  0  0  0  0  0  0  0  0  0  0  0
   39.6540   31.0160   40.0740 C   0  0  0  0  0  0  0  0  0  0  0  0
   39.3120   31.1010   38.7730 N   0  0  0  0  0  0  0  0  0  0  0  0
   39.1920   30.2500   42.3460 C   0  0  0  0  0  0  0  0  0  0  0  0
   39.8350   31.1790   42.8660 O   0  0  0  0  0  0  0  0  0  0  0  0
   39.0200   30.0510   40.9310 N   0  0  0  0  0  0  0  0  0  0  0  0
   39.6790   32.1250   36.9220 H   0  0  0  0  0  0  0  0  0  0  0  0
   41.4190   33.6250   37.9200 H   0  0  0  0  0  0  0  0  0  0  0  0
   41.9730   33.3720   40.3640 H   0  0  0  0  0  0  0  0  0  0  0  0
   38.4800   29.2720   40.4970 H   0  0  0  0  0  0  0  0  0  0  0  0
   38.4910   29.1890   43.1510 C   0  0  0  0  0  3  0  0  0  0  0  0
   39.1600   27.8550   43.0250 C   0  0  0  0  0  2  0  0  0  0  0  0
   38.0490   26.8580   43.1690 C   0  0  0  0  0  2  0  0  0  0  0  0
   36.7520   27.6070   43.0250 C   0  0  0  0  0  2  0  0  0  0  0  0
   37.1580   28.9550   42.4720 C   0  0  0  0  0  2  0  0  0  0  0  0
  1  2  2  0  0  0  0
  1  6  1  0  0  0  0
  2  3  1  0  0  0  0
  3 12  1  0  0  0  0
  3  4  2  0  0  0  0
  5  4  1  0  0  0  0
  5  9  1  0  0  0  0
  6  5  2  0  0  0  0
  7  8  2  0  0  0  0
  7 14  1  0  0  0  0
  9  7  1  0  0  0  0
 10  1  1  0  0  0  0
 11  2  1  0  0  0  0
 13  9  1  0  0  0  0
 15 14  1  0  0  0  0
 15 16  1  0  0  0  0
 17 16  1  0  0  0  0
 18 17  1  0  0  0  0
 18 14  1  0  0  0  0
M  END
>  <minimizedAffinity>
-4.07673502

$$$$
