
 OpenBabel03242518553D

 38 40  0  0  1  0  0  0  0  0999 V2000
   45.8560   31.3320   46.4370 C   0  0  2  0  0  0  0  0  0  0  0  0
   45.4220   30.7010   47.7210 C   0  0  0  0  0  0  0  0  0  0  0  0
   44.8640   29.3640   47.3850 C   0  0  0  0  0  0  0  0  0  0  0  0
   44.7880   29.0420   45.9300 C   0  0  0  0  0  0  0  0  0  0  0  0
   46.1400   29.1980   45.2900 C   0  0  0  0  0  0  0  0  0  0  0  0
   46.8280   30.4000   45.7380 C   0  0  2  0  0  0  0  0  0  0  0  0
   44.9870   31.3770   45.7480 H   0  0  0  0  0  0  0  0  0  0  0  0
   44.6390   31.3880   48.1490 H   0  0  0  0  0  0  0  0  0  0  0  0
   46.2140   30.6750   48.4970 H   0  0  0  0  0  0  0  0  0  0  0  0
   43.7900   29.3560   47.7410 H   0  0  0  0  0  0  0  0  0  0  0  0
   45.3090   28.5100   47.9580 H   0  0  0  0  0  0  0  0  0  0  0  0
   44.4710   27.9770   45.8560 H   0  0  0  0  0  0  0  0  0  0  0  0
   43.9900   29.6120   45.4120 H   0  0  0  0  0  0  0  0  0  0  0  0
   45.9230   29.3030   44.1850 H   0  0  0  0  0  0  0  0  0  0  0  0
   46.6600   28.2270   45.3740 H   0  0  0  0  0  0  0  0  0  0  0  0
   47.2940   30.9880   44.9350 H   0  0  0  0  0  0  0  0  0  0  0  0
   47.8810   29.9460   46.6880 C   0  0  0  0  0  0  0  0  0  0  0  0
   47.5550   29.9170   47.7530 H   0  0  0  0  0  0  0  0  0  0  0  0
   48.7100   30.6830   46.6630 H   0  0  0  0  0  0  0  0  0  0  0  0
   48.4630   28.5900   46.4150 C   0  0  0  0  0  3  0  0  0  0  0  0
   49.9350   28.6250   46.0870 C   0  0  0  0  0  2  0  0  0  0  0  0
   50.1790   27.1130   46.0150 C   0  0  0  0  0  2  0  0  0  0  0  0
   49.5380   26.6810   47.3240 C   0  0  0  0  0  2  0  0  0  0  0  0
   48.5460   27.7530   47.6970 C   0  0  0  0  0  2  0  0  0  0  0  0
   46.3940   32.7070   46.5880 C   0  0  0  0  0  0  0  0  0  0  0  0
   47.1630   33.0460   47.5160 O   0  0  0  0  0  0  0  0  0  0  0  0
   44.6150   35.4390   44.9350 C   0  0  0  0  0  0  0  0  0  0  0  0
   45.2080   35.5150   43.6460 C   0  0  0  0  0  0  0  0  0  0  0  0
   46.2230   34.6120   43.3830 C   0  0  0  0  0  0  0  0  0  0  0  0
   46.5170   33.7790   44.3820 N   0  0  0  0  0  0  0  0  0  0  0  0
   45.9780   33.6960   45.5770 C   0  0  0  0  0  0  0  0  0  0  0  0
   44.9910   34.5620   45.8570 N   0  0  0  0  0  0  0  0  0  0  0  0
   43.8050   36.1500   45.1640 H   0  0  0  0  0  0  0  0  0  0  0  0
   44.8660   36.2490   42.9280 H   0  0  0  0  0  0  0  0  0  0  0  0
   46.8260   34.6810   42.0650 C   0  0  0  0  0  0  0  0  0  0  0  0
   47.5720   33.5290   41.8330 F   0  0  0  0  0  0  0  0  0  0  0  0
   47.6610   35.7510   42.0640 F   0  0  0  0  0  0  0  0  0  0  0  0
   45.8790   34.7240   41.0480 F   0  0  0  0  0  0  0  0  0  0  0  0
  1  7  1  6  0  0  0
  1 25  1  0  0  0  0
  1  2  1  0  0  0  0
  2  8  1  0  0  0  0
  2  9  1  0  0  0  0
  3  2  1  0  0  0  0
  3 10  1  0  0  0  0
  3 11  1  0  0  0  0
  4  3  1  0  0  0  0
  5 15  1  0  0  0  0
  5  6  1  0  0  0  0
  5  4  1  0  0  0  0
  6 16  1  6  0  0  0
  6  1  1  0  0  0  0
  6 17  1  0  0  0  0
 12  4  1  0  0  0  0
 13  4  1  0  0  0  0
 14  5  1  0  0  0  0
 17 18  1  0  0  0  0
 19 17  1  0  0  0  0
 20 17  1  0  0  0  0
 20 24  1  0  0  0  0
 21 20  1  0  0  0  0
 22 21  1  0  0  0  0
 22 23  1  0  0  0  0
 23 24  1  0  0  0  0
 25 26  2  0  0  0  0
 27 33  1  0  0  0  0
 27 32  1  0  0  0  0
 28 27  2  0  0  0  0
 29 28  1  0  0  0  0
 29 30  2  0  0  0  0
 30 31  1  0  0  0  0
 31 32  2  0  0  0  0
 31 25  1  0  0  0  0
 34 28  1  0  0  0  0
 35 29  1  0  0  0  0
 36 35  1  0  0  0  0
 37 35  1  0  0  0  0
 38 35  1  0  0  0  0
M  END
>  <minimizedAffinity>
-5.11664629

>  <minimizedRMSD>
0.687423289

$$$$
