REMARK  Name = 
REMARK  4 active torsions:
REMARK  status: ('A' for Active; 'I' for Inactive)
REMARK    1  A    between atoms: C_1  and  N_9
REMARK    2  A    between atoms: C_2  and  N_11
REMARK    3  A    between atoms: C_7  and  O_10
REMARK    4  A    between atoms: O_10  and  C_17
REMARK                            x       y       z     vdW  Elec       q    Type
REMARK                         _______ _______ _______ _____ _____    ______ ____
ROOT
ATOM      1  C   UNL     1      45.647  34.755  44.366  0.00  0.00    +0.000 A 
ATOM      2  C   UNL     1      45.273  34.388  45.634  0.00  0.00    +0.000 A 
ATOM      3  C   UNL     1      45.947  33.290  46.166  0.00  0.00    +0.000 A 
ATOM      4  N   UNL     1      46.885  32.693  45.415  0.00  0.00    +0.000 NA
ATOM      5  C   UNL     1      47.218  33.087  44.177  0.00  0.00    +0.000 A 
ATOM      6  N   UNL     1      46.585  34.153  43.624  0.00  0.00    +0.000 NA
ATOM      7  H   UNL     1      45.656  32.997  47.166  0.00  0.00    +0.000 HD
ATOM      8  H   UNL     1      47.988  32.552  43.633  0.00  0.00    +0.000 HD
ENDROOT
BRANCH   1  11
ATOM      9  C   UNL     1      44.162  35.348  42.651  0.00  0.00    +0.000 C 
ATOM     10  O   UNL     1      44.103  34.073  42.662  0.00  0.00    +0.000 OA
ATOM     11  N   UNL     1      45.067  35.871  43.628  0.00  0.00    +0.000 N 
ATOM     12  H   UNL     1      45.229  36.874  43.734  0.00  0.00    +0.000 HD
BRANCH   9  13
ATOM     13  O   UNL     1      43.448  36.216  41.802  0.00  0.00    +0.000 OA
BRANCH  13  14
ATOM     14  C   UNL     1      42.565  35.642  40.852  0.00  0.00    +0.000 C 
ATOM     15  C   UNL     1      42.589  36.423  39.555  0.00  0.00    +0.000 C 
ATOM     16  C   UNL     1      42.983  35.433  38.502  0.00  0.00    +0.000 C 
ATOM     17  C   UNL     1      43.852  34.423  39.209  0.00  0.00    +0.000 C 
ATOM     18  C   UNL     1      43.123  34.272  40.526  0.00  0.00    +0.000 C 
ENDBRANCH  13  14
ENDBRANCH   9  13
ENDBRANCH   1  11
BRANCH   2  19
ATOM     19  N   UNL     1      44.263  35.140  46.266  0.00  0.00    +0.000 N 
ATOM     20  H   UNL     1      43.271  34.976  45.955  0.00  0.00    +0.000 HD
ATOM     21  H   UNL     1      44.866  35.703  46.934  0.00  0.00    +0.000 HD
ENDBRANCH   2  19
TORSDOF 4
