REMARK  Name = 
REMARK  3 active torsions:
REMARK  status: ('A' for Active; 'I' for Inactive)
REMARK    1  A    between atoms: C_1  and  C_9
REMARK    2  A    between atoms: C_6  and  N_15
REMARK    3  A    between atoms: C_13  and  C_24
REMARK                            x       y       z     vdW  Elec       q    Type
REMARK                         _______ _______ _______ _____ _____    ______ ____
ROOT
ATOM      1  C   UNL     1      46.685  34.761  41.974  0.00  0.00    +0.000 A 
ATOM      2  C   UNL     1      47.931  35.356  41.892  0.00  0.00    +0.000 A 
ATOM      3  C   UNL     1      48.662  35.201  40.730  0.00  0.00    +0.000 A 
ATOM      4  C   UNL     1      48.153  34.473  39.693  0.00  0.00    +0.000 A 
ATOM      5  C   UNL     1      46.927  33.871  39.738  0.00  0.00    +0.000 A 
ATOM      6  C   UNL     1      46.201  34.041  40.927  0.00  0.00    +0.000 A 
ATOM      7  H   UNL     1      48.338  35.935  42.715  0.00  0.00    +0.000 HD
ATOM      8  H   UNL     1      49.639  35.636  40.594  0.00  0.00    +0.000 HD
ATOM      9  H   UNL     1      48.726  34.352  38.783  0.00  0.00    +0.000 HD
ATOM     10  H   UNL     1      46.488  33.287  38.940  0.00  0.00    +0.000 HD
ENDROOT
BRANCH   1  13
ATOM     11  C   UNL     1      44.507  36.125  44.749  0.00  0.00    +0.000 A 
ATOM     12  C   UNL     1      45.165  36.044  43.503  0.00  0.00    +0.000 A 
ATOM     13  C   UNL     1      45.956  34.956  43.224  0.00  0.00    +0.000 A 
ATOM     14  N   UNL     1      46.061  33.999  44.189  0.00  0.00    +0.000 NA
ATOM     15  C   UNL     1      45.437  34.065  45.384  0.00  0.00    +0.000 A 
ATOM     16  N   UNL     1      44.650  35.148  45.661  0.00  0.00    +0.000 NA
ATOM     17  H   UNL     1      43.883  36.973  44.981  0.00  0.00    +0.000 HD
ATOM     18  H   UNL     1      45.065  36.805  42.768  0.00  0.00    +0.000 HD
ATOM     19  H   UNL     1      45.588  33.247  46.084  0.00  0.00    +0.000 HD
ENDBRANCH   1  13
BRANCH   6  22
ATOM     20  C   UNL     1      43.588  33.841  40.788  0.00  0.00    +0.000 C 
ATOM     21  O   UNL     1      43.246  34.897  40.232  0.00  0.00    +0.000 OA
ATOM     22  N   UNL     1      44.918  33.471  41.112  0.00  0.00    +0.000 N 
ATOM     23  H   UNL     1      45.172  32.569  41.620  0.00  0.00    +0.000 HD
BRANCH  20  24
ATOM     24  C   UNL     1      42.578  32.791  41.196  0.00  0.00    +0.000 C 
ATOM     25  C   UNL     1      41.315  33.168  40.443  0.00  0.00    +0.000 C 
ATOM     26  C   UNL     1      40.462  33.978  41.376  0.00  0.00    +0.000 C 
ATOM     27  C   UNL     1      41.101  33.913  42.736  0.00  0.00    +0.000 C 
ATOM     28  C   UNL     1      42.295  33.004  42.646  0.00  0.00    +0.000 C 
ENDBRANCH  20  24
ENDBRANCH   6  22
TORSDOF 3
