
 OpenBabel03252503373D

 38 41  0  0  1  0  0  0  0  0999 V2000
   40.0860   27.7230   43.3320 C   0  0  0  0  0  0  0  0  0  0  0  0
   38.9450   28.3300   43.0050 C   0  0  0  0  0  0  0  0  0  0  0  0
   38.9660   29.6400   42.4670 N   0  0  0  0  0  0  0  0  0  0  0  0
   38.4300   30.6050   41.5790 C   0  0  0  0  0  0  0  0  0  0  0  0
   37.4300   30.6560   40.7960 O   0  0  0  0  0  0  0  0  0  0  0  0
   39.4420   31.6140   41.8420 C   0  0  1  0  0  0  0  0  0  0  0  0
   39.9240   30.6410   42.8940 C   0  0  2  0  0  0  0  0  0  0  0  0
   41.5610   29.9520   42.6390 S   0  0  0  0  0  0  0  0  0  0  0  0
   41.4750   28.2530   43.1990 C   0  0  0  0  0  0  0  0  0  0  0  0
   39.0860   32.5610   42.3260 H   0  0  0  0  0  0  0  0  0  0  0  0
   39.7150   30.9970   43.9310 H   0  0  0  0  0  0  0  0  0  0  0  0
   42.0210   27.6200   42.4660 H   0  0  0  0  0  0  0  0  0  0  0  0
   42.0090   28.1800   44.1810 H   0  0  0  0  0  0  0  0  0  0  0  0
   40.3210   31.8570   40.7110 C   0  0  0  0  0  0  0  0  0  0  0  0
   40.5460   31.2350   39.6570 O   0  0  0  0  0  0  0  0  0  0  0  0
   41.0920   33.0720   40.8320 N   0  0  0  0  0  0  0  0  0  0  0  0
   41.1490   33.8260   41.5540 H   0  0  0  0  0  0  0  0  0  0  0  0
   42.5660   34.5760   37.7770 C   0  0  0  0  0  0  0  0  0  0  0  0
   41.6280   34.2310   38.7500 C   0  0  0  0  0  0  0  0  0  0  0  0
   42.0130   33.4670   39.8330 C   0  0  0  0  0  0  0  0  0  0  0  0
   43.2940   33.0740   39.9180 N   0  0  0  0  0  0  0  0  0  0  0  0
   44.2050   33.4180   38.9590 C   0  0  0  0  0  0  0  0  0  0  0  0
   43.8240   34.1600   37.9100 N   0  0  0  0  0  0  0  0  0  0  0  0
   42.2820   35.1790   36.9130 H   0  0  0  0  0  0  0  0  0  0  0  0
   40.5980   34.5550   38.6670 H   0  0  0  0  0  0  0  0  0  0  0  0
   45.1930   33.0230   39.1770 H   0  0  0  0  0  0  0  0  0  0  0  0
   39.9300   26.3600   43.8930 C   0  0  0  0  0  0  0  0  0  0  0  0
   39.3990   26.3380   44.8660 H   0  0  0  0  0  0  0  0  0  0  0  0
   39.2800   25.8100   43.1510 H   0  0  0  0  0  0  0  0  0  0  0  0
   40.8890   25.7790   43.9140 H   0  0  0  0  0  0  0  0  0  0  0  0
   37.6580   27.6830   43.1850 C   0  0  0  0  0  0  0  0  0  0  0  0
   36.9770   27.8130   44.2420 O   0  0  0  0  0  0  0  0  0  0  0  0
   36.8930   26.8600   42.4010 O   0  0  0  0  0  0  0  0  0  0  0  0
   37.3160   25.8520   41.5600 C   0  0  0  0  0  3  0  0  0  0  0  0
   36.8740   24.4720   41.9730 C   0  0  0  0  0  2  0  0  0  0  0  0
   37.3090   23.6580   40.7710 C   0  0  0  0  0  2  0  0  0  0  0  0
   37.2570   24.6140   39.5870 C   0  0  0  0  0  2  0  0  0  0  0  0
   36.7070   25.9170   40.1690 C   0  0  0  0  0  2  0  0  0  0  0  0
  1 27  1  0  0  0  0
  2 31  1  0  0  0  0
  2  1  2  0  0  0  0
  3  7  1  0  0  0  0
  3  2  1  0  0  0  0
  4  6  1  0  0  0  0
  4  3  1  0  0  0  0
  5  4  2  0  0  0  0
  6 10  1  1  0  0  0
  6  7  1  0  0  0  0
  7 11  1  1  0  0  0
  8  7  1  0  0  0  0
  8  9  1  0  0  0  0
  9  1  1  0  0  0  0
  9 13  1  0  0  0  0
 12  9  1  0  0  0  0
 14 16  1  0  0  0  0
 14  6  1  0  0  0  0
 15 14  2  0  0  0  0
 16 17  1  0  0  0  0
 18 23  2  0  0  0  0
 18 19  1  0  0  0  0
 19 20  2  0  0  0  0
 20 21  1  0  0  0  0
 20 16  1  0  0  0  0
 22 26  1  0  0  0  0
 22 21  2  0  0  0  0
 23 22  1  0  0  0  0
 24 18  1  0  0  0  0
 25 19  1  0  0  0  0
 27 30  1  0  0  0  0
 27 28  1  0  0  0  0
 29 27  1  0  0  0  0
 31 32  2  0  0  0  0
 33 31  1  0  0  0  0
 34 35  1  0  0  0  0
 34 33  1  0  0  0  0
 36 35  1  0  0  0  0
 37 38  1  0  0  0  0
 37 36  1  0  0  0  0
 38 34  1  0  0  0  0
M  END
>  <minimizedAffinity>
-5.99400902

$$$$

 OpenBabel03252503373D

 38 41  0  0  1  0  0  0  0  0999 V2000
   37.4420   28.1890   42.2980 C   0  0  0  0  0  0  0  0  0  0  0  0
   38.1450   27.3770   41.5080 C   0  0  0  0  0  0  0  0  0  0  0  0
   38.8260   27.8970   40.3810 N   0  0  0  0  0  0  0  0  0  0  0  0
   39.9470   27.8770   39.5150 C   0  0  0  0  0  0  0  0  0  0  0  0
   40.9720   27.1390   39.3790 O   0  0  0  0  0  0  0  0  0  0  0  0
   39.5550   29.0520   38.7530 C   0  0  1  0  0  0  0  0  0  0  0  0
   38.2920   28.9810   39.5810 C   0  0  2  0  0  0  0  0  0  0  0  0
   37.9970   30.3620   40.6880 S   0  0  0  0  0  0  0  0  0  0  0  0
   37.2610   29.6650   42.1640 C   0  0  0  0  0  0  0  0  0  0  0  0
   39.3170   28.8860   37.6700 H   0  0  0  0  0  0  0  0  0  0  0  0
   37.4080   28.6560   38.9820 H   0  0  0  0  0  0  0  0  0  0  0  0
   37.7270   30.1550   43.0470 H   0  0  0  0  0  0  0  0  0  0  0  0
   36.1700   29.9190   42.1660 H   0  0  0  0  0  0  0  0  0  0  0  0
   40.4260   30.1950   38.9690 C   0  0  0  0  0  0  0  0  0  0  0  0
   41.3590   30.4180   39.7590 O   0  0  0  0  0  0  0  0  0  0  0  0
   40.1550   31.3000   38.0790 N   0  0  0  0  0  0  0  0  0  0  0  0
   39.4730   31.4560   37.3030 H   0  0  0  0  0  0  0  0  0  0  0  0
   41.3700   34.6450   39.1270 C   0  0  0  0  0  0  0  0  0  0  0  0
   40.6330   33.4610   39.1110 C   0  0  0  0  0  0  0  0  0  0  0  0
   40.8930   32.5060   38.1490 C   0  0  0  0  0  0  0  0  0  0  0  0
   41.8570   32.7480   37.2470 N   0  0  0  0  0  0  0  0  0  0  0  0
   42.5720   33.9120   37.2730 C   0  0  0  0  0  0  0  0  0  0  0  0
   42.3160   34.8360   38.2090 N   0  0  0  0  0  0  0  0  0  0  0  0
   41.1810   35.4130   39.8780 H   0  0  0  0  0  0  0  0  0  0  0  0
   39.8580   33.2790   39.8450 H   0  0  0  0  0  0  0  0  0  0  0  0
   43.3130   33.9510   36.4770 H   0  0  0  0  0  0  0  0  0  0  0  0
   36.7680   27.5230   43.4380 C   0  0  0  0  0  0  0  0  0  0  0  0
   35.9820   26.8030   43.1320 H   0  0  0  0  0  0  0  0  0  0  0  0
   37.5790   26.9260   43.9500 H   0  0  0  0  0  0  0  0  0  0  0  0
   36.4100   28.2420   44.2210 H   0  0  0  0  0  0  0  0  0  0  0  0
   38.2380   25.9520   41.7690 C   0  0  0  0  0  0  0  0  0  0  0  0
   37.7620   25.0870   40.9790 O   0  0  0  0  0  0  0  0  0  0  0  0
   38.7790   25.2070   42.7840 O   0  0  0  0  0  0  0  0  0  0  0  0
   40.0530   25.2780   43.3050 C   0  0  0  0  0  3  0  0  0  0  0  0
   41.1500   25.1800   42.2780 C   0  0  0  0  0  2  0  0  0  0  0  0
   42.3680   25.4920   43.1250 C   0  0  0  0  0  2  0  0  0  0  0  0
   41.8690   26.3990   44.2420 C   0  0  0  0  0  2  0  0  0  0  0  0
   40.3910   26.6250   43.9210 C   0  0  0  0  0  2  0  0  0  0  0  0
  1 27  1  0  0  0  0
  2 31  1  0  0  0  0
  2  1  2  0  0  0  0
  3  2  1  0  0  0  0
  4  3  1  0  0  0  0
  5  4  2  0  0  0  0
  6 10  1  6  0  0  0
  6 14  1  0  0  0  0
  6  4  1  0  0  0  0
  6  7  1  0  0  0  0
  7 11  1  6  0  0  0
  7  3  1  0  0  0  0
  7  8  1  0  0  0  0
  8  9  1  0  0  0  0
  9 13  1  0  0  0  0
  9  1  1  0  0  0  0
  9 12  1  0  0  0  0
 14 15  2  0  0  0  0
 16 20  1  0  0  0  0
 16 14  1  0  0  0  0
 17 16  1  0  0  0  0
 18 24  1  0  0  0  0
 19 18  1  0  0  0  0
 19 25  1  0  0  0  0
 20 19  2  0  0  0  0
 21 22  2  0  0  0  0
 21 20  1  0  0  0  0
 22 23  1  0  0  0  0
 23 18  2  0  0  0  0
 26 22  1  0  0  0  0
 27 29  1  0  0  0  0
 27 30  1  0  0  0  0
 28 27  1  0  0  0  0
 31 33  1  0  0  0  0
 32 31  2  0  0  0  0
 33 34  1  0  0  0  0
 34 38  1  0  0  0  0
 35 36  1  0  0  0  0
 35 34  1  0  0  0  0
 36 37  1  0  0  0  0
 38 37  1  0  0  0  0
M  END
>  <minimizedAffinity>
-5.62703753

$$$$

 OpenBabel03252503373D

 38 41  0  0  1  0  0  0  0  0999 V2000
   38.5460   29.5880   42.1570 C   0  0  0  0  0  0  0  0  0  0  0  0
   37.9550   29.0770   41.0770 C   0  0  0  0  0  0  0  0  0  0  0  0
   38.4380   29.3960   39.7850 N   0  0  0  0  0  0  0  0  0  0  0  0
   38.6990   29.0070   38.4480 C   0  0  0  0  0  0  0  0  0  0  0  0
   38.4620   27.9760   37.7440 O   0  0  0  0  0  0  0  0  0  0  0  0
   39.3790   30.2370   38.0750 C   0  0  1  0  0  0  0  0  0  0  0  0
   38.9690   30.7040   39.4530 C   0  0  2  0  0  0  0  0  0  0  0  0
   40.3060   31.0400   40.6010 S   0  0  0  0  0  0  0  0  0  0  0  0
   39.7260   30.5020   42.2080 C   0  0  0  0  0  0  0  0  0  0  0  0
   38.8790   30.8630   37.2910 H   0  0  0  0  0  0  0  0  0  0  0  0
   38.1660   31.4790   39.4190 H   0  0  0  0  0  0  0  0  0  0  0  0
   40.5590   29.9680   42.7160 H   0  0  0  0  0  0  0  0  0  0  0  0
   39.4800   31.4110   42.8150 H   0  0  0  0  0  0  0  0  0  0  0  0
   40.8000   30.0580   37.8310 C   0  0  0  0  0  0  0  0  0  0  0  0
   41.6340   29.2220   38.2230 O   0  0  0  0  0  0  0  0  0  0  0  0
   41.3620   31.0540   36.9490 N   0  0  0  0  0  0  0  0  0  0  0  0
   40.9660   31.8740   36.4360 H   0  0  0  0  0  0  0  0  0  0  0  0
   44.9840   31.8500   36.8570 C   0  0  0  0  0  0  0  0  0  0  0  0
   43.6440   31.8700   37.2450 C   0  0  0  0  0  0  0  0  0  0  0  0
   42.7350   31.0510   36.6070 C   0  0  0  0  0  0  0  0  0  0  0  0
   43.1720   30.2510   35.6210 N   0  0  0  0  0  0  0  0  0  0  0  0
   44.4870   30.2410   35.2490 C   0  0  0  0  0  0  0  0  0  0  0  0
   45.3650   31.0380   35.8730 N   0  0  0  0  0  0  0  0  0  0  0  0
   45.7190   32.4890   37.3480 H   0  0  0  0  0  0  0  0  0  0  0  0
   43.3070   32.5200   38.0420 H   0  0  0  0  0  0  0  0  0  0  0  0
   44.6740   29.5400   34.4400 H   0  0  0  0  0  0  0  0  0  0  0  0
   37.9420   29.1870   43.4500 C   0  0  0  0  0  0  0  0  0  0  0  0
   36.9060   29.5550   43.5900 H   0  0  0  0  0  0  0  0  0  0  0  0
   37.8880   28.0590   43.4110 H   0  0  0  0  0  0  0  0  0  0  0  0
   38.5990   29.4070   44.3310 H   0  0  0  0  0  0  0  0  0  0  0  0
   36.8120   28.1890   41.1830 C   0  0  0  0  0  0  0  0  0  0  0  0
   35.6340   28.5660   40.9160 O   0  0  0  0  0  0  0  0  0  0  0  0
   36.6620   26.8760   41.5440 O   0  0  0  0  0  0  0  0  0  0  0  0
   37.5180   25.8230   41.2990 C   0  0  0  0  0  3  0  0  0  0  0  0
   38.5470   25.5960   42.3760 C   0  0  0  0  0  2  0  0  0  0  0  0
   39.1640   24.2900   41.9140 C   0  0  0  0  0  2  0  0  0  0  0  0
   38.0630   23.5620   41.1550 C   0  0  0  0  0  2  0  0  0  0  0  0
   36.8370   24.4650   41.2970 C   0  0  0  0  0  2  0  0  0  0  0  0
  1  9  1  0  0  0  0
  1 27  1  0  0  0  0
  2 31  1  0  0  0  0
  2  1  2  0  0  0  0
  3  2  1  0  0  0  0
  4  3  1  0  0  0  0
  5  4  2  0  0  0  0
  6 10  1  6  0  0  0
  6  4  1  0  0  0  0
  6  7  1  0  0  0  0
  7 11  1  6  0  0  0
  7  3  1  0  0  0  0
  7  8  1  0  0  0  0
  8  9  1  0  0  0  0
  9 12  1  0  0  0  0
  9 13  1  0  0  0  0
 14  6  1  0  0  0  0
 14 15  2  0  0  0  0
 16 14  1  0  0  0  0
 17 16  1  0  0  0  0
 18 19  1  0  0  0  0
 18 24  1  0  0  0  0
 19 25  1  0  0  0  0
 20 16  1  0  0  0  0
 20 19  2  0  0  0  0
 21 20  1  0  0  0  0
 22 21  2  0  0  0  0
 22 23  1  0  0  0  0
 23 18  2  0  0  0  0
 26 22  1  0  0  0  0
 27 28  1  0  0  0  0
 27 30  1  0  0  0  0
 29 27  1  0  0  0  0
 31 33  1  0  0  0  0
 32 31  2  0  0  0  0
 34 33  1  0  0  0  0
 34 35  1  0  0  0  0
 36 35  1  0  0  0  0
 37 38  1  0  0  0  0
 37 36  1  0  0  0  0
 38 34  1  0  0  0  0
M  END
>  <minimizedAffinity>
-5.5715065

$$$$

 OpenBabel03252503373D

 38 41  0  0  1  0  0  0  0  0999 V2000
   37.5330   32.5600   40.0850 C   0  0  0  0  0  0  0  0  0  0  0  0
   38.7880   32.7060   40.5100 C   0  0  0  0  0  0  0  0  0  0  0  0
   39.3780   31.7180   41.3350 N   0  0  0  0  0  0  0  0  0  0  0  0
   40.5190   30.9730   41.7230 C   0  0  0  0  0  0  0  0  0  0  0  0
   41.7540   30.9910   41.4260 O   0  0  0  0  0  0  0  0  0  0  0  0
   39.8080   30.1000   42.6430 C   0  0  1  0  0  0  0  0  0  0  0  0
   38.6260   30.9900   42.3370 C   0  0  2  0  0  0  0  0  0  0  0  0
   37.2450   30.2070   41.5010 S   0  0  0  0  0  0  0  0  0  0  0  0
   36.5980   31.4300   40.3630 C   0  0  0  0  0  0  0  0  0  0  0  0
   40.0870   30.1860   43.7250 H   0  0  0  0  0  0  0  0  0  0  0  0
   38.3500   31.6420   43.2000 H   0  0  0  0  0  0  0  0  0  0  0  0
   36.3720   30.9200   39.4000 H   0  0  0  0  0  0  0  0  0  0  0  0
   35.6350   31.8210   40.7790 H   0  0  0  0  0  0  0  0  0  0  0  0
   39.7350   28.7210   42.1880 C   0  0  0  0  0  0  0  0  0  0  0  0
   40.1060   28.1450   41.1510 O   0  0  0  0  0  0  0  0  0  0  0  0
   39.1050   27.8350   43.1390 N   0  0  0  0  0  0  0  0  0  0  0  0
   38.6970   27.9660   44.0920 H   0  0  0  0  0  0  0  0  0  0  0  0
   39.6830   24.1780   42.9000 C   0  0  0  0  0  0  0  0  0  0  0  0
   39.8860   25.5220   43.2120 C   0  0  0  0  0  0  0  0  0  0  0  0
   38.9320   26.4580   42.8650 C   0  0  0  0  0  0  0  0  0  0  0  0
   37.8250   26.0410   42.2300 N   0  0  0  0  0  0  0  0  0  0  0  0
   37.6370   24.7210   41.9290 C   0  0  0  0  0  0  0  0  0  0  0  0
   38.5670   23.8180   42.2690 N   0  0  0  0  0  0  0  0  0  0  0  0
   40.4240   23.4230   43.1650 H   0  0  0  0  0  0  0  0  0  0  0  0
   40.7830   25.8430   43.7250 H   0  0  0  0  0  0  0  0  0  0  0  0
   36.6930   24.5520   41.4170 H   0  0  0  0  0  0  0  0  0  0  0  0
   37.0270   33.6660   39.2370 C   0  0  0  0  0  0  0  0  0  0  0  0
   36.9530   34.6360   39.7690 H   0  0  0  0  0  0  0  0  0  0  0  0
   37.8040   33.7940   38.4280 H   0  0  0  0  0  0  0  0  0  0  0  0
   36.0860   33.4050   38.6860 H   0  0  0  0  0  0  0  0  0  0  0  0
   39.5850   33.8650   40.1500 C   0  0  0  0  0  0  0  0  0  0  0  0
   39.6170   34.9110   40.8600 O   0  0  0  0  0  0  0  0  0  0  0  0
   40.4190   34.1530   39.1020 O   0  0  0  0  0  0  0  0  0  0  0  0
   41.4310   33.3740   38.5810 C   0  0  0  0  0  3  0  0  0  0  0  0
   40.9830   32.4030   37.5200 C   0  0  0  0  0  2  0  0  0  0  0  0
   42.3180   31.8750   37.0310 C   0  0  0  0  0  2  0  0  0  0  0  0
   43.3140   33.0040   37.2590 C   0  0  0  0  0  2  0  0  0  0  0  0
   42.4690   34.1590   37.7970 C   0  0  0  0  0  2  0  0  0  0  0  0
  1  9  1  0  0  0  0
  1  2  2  0  0  0  0
  2  3  1  0  0  0  0
  3  4  1  0  0  0  0
  3  7  1  0  0  0  0
  4  6  1  0  0  0  0
  5  4  2  0  0  0  0
  6 10  1  1  0  0  0
  7  6  1  0  0  0  0
  7 11  1  1  0  0  0
  8  7  1  0  0  0  0
  9 13  1  0  0  0  0
  9  8  1  0  0  0  0
 12  9  1  0  0  0  0
 14  6  1  0  0  0  0
 14 16  1  0  0  0  0
 15 14  2  0  0  0  0
 16 17  1  0  0  0  0
 18 24  1  0  0  0  0
 18 19  1  0  0  0  0
 19 25  1  0  0  0  0
 20 16  1  0  0  0  0
 20 19  2  0  0  0  0
 21 20  1  0  0  0  0
 22 21  2  0  0  0  0
 22 23  1  0  0  0  0
 23 18  2  0  0  0  0
 26 22  1  0  0  0  0
 27 28  1  0  0  0  0
 27  1  1  0  0  0  0
 29 27  1  0  0  0  0
 30 27  1  0  0  0  0
 31  2  1  0  0  0  0
 31 32  2  0  0  0  0
 33 31  1  0  0  0  0
 34 33  1  0  0  0  0
 35 34  1  0  0  0  0
 36 37  1  0  0  0  0
 36 35  1  0  0  0  0
 37 38  1  0  0  0  0
 38 34  1  0  0  0  0
M  END
>  <minimizedAffinity>
-5.5251565

$$$$

 OpenBabel03252503373D

 38 41  0  0  1  0  0  0  0  0999 V2000
   36.5270   26.5820   39.6410 C   0  0  0  0  0  0  0  0  0  0  0  0
   36.4440   27.7070   40.3520 C   0  0  0  0  0  0  0  0  0  0  0  0
   37.0580   27.7880   41.6260 N   0  0  0  0  0  0  0  0  0  0  0  0
   37.7530   28.5460   42.6010 C   0  0  0  0  0  0  0  0  0  0  0  0
   38.0970   29.7630   42.7230 O   0  0  0  0  0  0  0  0  0  0  0  0
   37.9810   27.4320   43.5060 C   0  0  1  0  0  0  0  0  0  0  0  0
   37.1150   26.6620   42.5360 C   0  0  2  0  0  0  0  0  0  0  0  0
   37.9150   25.3140   41.6630 S   0  0  0  0  0  0  0  0  0  0  0  0
   37.2240   25.3140   40.0110 C   0  0  0  0  0  0  0  0  0  0  0  0
   37.4800   27.4940   44.5070 H   0  0  0  0  0  0  0  0  0  0  0  0
   36.1100   26.4220   42.9600 H   0  0  0  0  0  0  0  0  0  0  0  0
   38.0530   25.1490   39.2890 H   0  0  0  0  0  0  0  0  0  0  0  0
   36.5170   24.4500   39.9260 H   0  0  0  0  0  0  0  0  0  0  0  0
   39.3790   27.0440   43.5990 C   0  0  0  0  0  0  0  0  0  0  0  0
   39.9640   26.0870   44.1370 O   0  0  0  0  0  0  0  0  0  0  0  0
   40.2750   27.9540   42.9250 N   0  0  0  0  0  0  0  0  0  0  0  0
   40.1370   28.8310   42.3730 H   0  0  0  0  0  0  0  0  0  0  0  0
   43.6810   26.8430   41.9620 C   0  0  0  0  0  0  0  0  0  0  0  0
   42.3010   27.0430   41.9120 C   0  0  0  0  0  0  0  0  0  0  0  0
   41.6750   27.7480   42.9200 C   0  0  0  0  0  0  0  0  0  0  0  0
   42.4200   28.2250   43.9300 N   0  0  0  0  0  0  0  0  0  0  0  0
   43.7710   28.0220   43.9680 C   0  0  0  0  0  0  0  0  0  0  0  0
   44.3740   27.3380   42.9860 N   0  0  0  0  0  0  0  0  0  0  0  0
   44.1960   26.2900   41.1750 H   0  0  0  0  0  0  0  0  0  0  0  0
   41.7130   26.6530   41.0910 H   0  0  0  0  0  0  0  0  0  0  0  0
   44.2240   28.4710   44.8480 H   0  0  0  0  0  0  0  0  0  0  0  0
   35.8360   26.6190   38.3300 C   0  0  0  0  0  0  0  0  0  0  0  0
   34.7360   26.7310   38.4100 H   0  0  0  0  0  0  0  0  0  0  0  0
   36.2250   27.5480   37.8200 H   0  0  0  0  0  0  0  0  0  0  0  0
   36.1340   25.7780   37.6510 H   0  0  0  0  0  0  0  0  0  0  0  0
   35.7330   28.8710   39.8570 C   0  0  0  0  0  0  0  0  0  0  0  0
   34.5730   29.1770   40.2570 O   0  0  0  0  0  0  0  0  0  0  0  0
   36.0360   29.8520   38.9490 O   0  0  0  0  0  0  0  0  0  0  0  0
   36.9170   30.9030   39.0940 C   0  0  0  0  0  3  0  0  0  0  0  0
   36.7370   31.6920   40.3640 C   0  0  0  0  0  2  0  0  0  0  0  0
   37.9490   32.6030   40.3110 C   0  0  0  0  0  2  0  0  0  0  0  0
   39.0080   31.8320   39.5360 C   0  0  0  0  0  2  0  0  0  0  0  0
   38.3660   30.4720   39.2550 C   0  0  0  0  0  2  0  0  0  0  0  0
  1  9  1  0  0  0  0
  1  2  2  0  0  0  0
  2  3  1  0  0  0  0
  3  7  1  0  0  0  0
  3  4  1  0  0  0  0
  4  5  2  0  0  0  0
  4  6  1  0  0  0  0
  6 14  1  0  0  0  0
  6 10  1  1  0  0  0
  7 11  1  1  0  0  0
  7  6  1  0  0  0  0
  8  7  1  0  0  0  0
  9  8  1  0  0  0  0
 12  9  1  0  0  0  0
 13  9  1  0  0  0  0
 14 15  2  0  0  0  0
 16 14  1  0  0  0  0
 17 16  1  0  0  0  0
 18 23  1  0  0  0  0
 19 18  2  0  0  0  0
 19 20  1  0  0  0  0
 20 16  1  0  0  0  0
 20 21  2  0  0  0  0
 21 22  1  0  0  0  0
 22 26  1  0  0  0  0
 23 22  2  0  0  0  0
 24 18  1  0  0  0  0
 25 19  1  0  0  0  0
 27 28  1  0  0  0  0
 27  1  1  0  0  0  0
 29 27  1  0  0  0  0
 30 27  1  0  0  0  0
 31 32  2  0  0  0  0
 31  2  1  0  0  0  0
 33 34  1  0  0  0  0
 33 31  1  0  0  0  0
 34 38  1  0  0  0  0
 34 35  1  0  0  0  0
 36 35  1  0  0  0  0
 37 36  1  0  0  0  0
 38 37  1  0  0  0  0
M  END
>  <minimizedAffinity>
-5.47900534

$$$$

 OpenBabel03252503373D

 38 41  0  0  1  0  0  0  0  0999 V2000
   37.4160   28.2860   42.5160 C   0  0  0  0  0  0  0  0  0  0  0  0
   38.5660   27.7340   42.1290 C   0  0  0  0  0  0  0  0  0  0  0  0
   39.1350   28.0790   40.8790 N   0  0  0  0  0  0  0  0  0  0  0  0
   40.2820   28.3290   40.0870 C   0  0  0  0  0  0  0  0  0  0  0  0
   41.5370   28.2370   40.2590 O   0  0  0  0  0  0  0  0  0  0  0  0
   39.5460   28.7600   38.9090 C   0  0  1  0  0  0  0  0  0  0  0  0
   38.3280   28.3530   39.7060 C   0  0  2  0  0  0  0  0  0  0  0  0
   37.1920   29.6730   40.1390 S   0  0  0  0  0  0  0  0  0  0  0  0
   36.5880   29.2880   41.7810 C   0  0  0  0  0  0  0  0  0  0  0  0
   39.6440   28.1150   37.9970 H   0  0  0  0  0  0  0  0  0  0  0  0
   37.8490   27.4260   39.3090 H   0  0  0  0  0  0  0  0  0  0  0  0
   36.5730   30.2290   42.3730 H   0  0  0  0  0  0  0  0  0  0  0  0
   35.5340   28.9220   41.6890 H   0  0  0  0  0  0  0  0  0  0  0  0
   39.7050   30.1750   38.6170 C   0  0  0  0  0  0  0  0  0  0  0  0
   39.2860   30.9090   37.7060 O   0  0  0  0  0  0  0  0  0  0  0  0
   40.5150   30.8740   39.5880 N   0  0  0  0  0  0  0  0  0  0  0  0
   41.0060   30.5870   40.4640 H   0  0  0  0  0  0  0  0  0  0  0  0
   40.2690   34.5670   39.8440 C   0  0  0  0  0  0  0  0  0  0  0  0
   39.9690   33.2160   40.0150 C   0  0  0  0  0  0  0  0  0  0  0  0
   40.7920   32.2560   39.4620 C   0  0  0  0  0  0  0  0  0  0  0  0
   41.8700   32.6570   38.7680 N   0  0  0  0  0  0  0  0  0  0  0  0
   42.1530   33.9840   38.6070 C   0  0  0  0  0  0  0  0  0  0  0  0
   41.3500   34.9110   39.1470 N   0  0  0  0  0  0  0  0  0  0  0  0
   39.6310   35.3420   40.2730 H   0  0  0  0  0  0  0  0  0  0  0  0
   39.0960   32.9080   40.5770 H   0  0  0  0  0  0  0  0  0  0  0  0
   43.0570   34.1380   38.0220 H   0  0  0  0  0  0  0  0  0  0  0  0
   36.9200   27.8360   43.8390 C   0  0  0  0  0  0  0  0  0  0  0  0
   36.6520   26.7610   43.8700 H   0  0  0  0  0  0  0  0  0  0  0  0
   37.7910   27.9780   44.5430 H   0  0  0  0  0  0  0  0  0  0  0  0
   36.1110   28.4920   44.2540 H   0  0  0  0  0  0  0  0  0  0  0  0
   39.2670   26.7720   42.9600 C   0  0  0  0  0  0  0  0  0  0  0  0
   40.2610   27.0900   43.6740 O   0  0  0  0  0  0  0  0  0  0  0  0
   39.1060   25.4320   43.2010 O   0  0  0  0  0  0  0  0  0  0  0  0
   38.6420   24.4620   42.3370 C   0  0  0  0  0  3  0  0  0  0  0  0
   37.2050   24.6380   41.9220 C   0  0  0  0  0  2  0  0  0  0  0  0
   37.0810   23.5700   40.8520 C   0  0  0  0  0  2  0  0  0  0  0  0
   38.4760   23.4190   40.2610 C   0  0  0  0  0  2  0  0  0  0  0  0
   39.3130   24.4800   40.9740 C   0  0  0  0  0  2  0  0  0  0  0  0
  1 27  1  0  0  0  0
  2  1  2  0  0  0  0
  2 31  1  0  0  0  0
  3  2  1  0  0  0  0
  4  5  2  0  0  0  0
  4  3  1  0  0  0  0
  6 10  1  6  0  0  0
  6  7  1  0  0  0  0
  6  4  1  0  0  0  0
  7 11  1  6  0  0  0
  7  8  1  0  0  0  0
  7  3  1  0  0  0  0
  8  9  1  0  0  0  0
  9 12  1  0  0  0  0
  9  1  1  0  0  0  0
 13  9  1  0  0  0  0
 14  6  1  0  0  0  0
 14 16  1  0  0  0  0
 15 14  2  0  0  0  0
 16 17  1  0  0  0  0
 18 19  1  0  0  0  0
 18 24  1  0  0  0  0
 19 25  1  0  0  0  0
 20 16  1  0  0  0  0
 20 19  2  0  0  0  0
 21 20  1  0  0  0  0
 22 21  2  0  0  0  0
 22 23  1  0  0  0  0
 23 18  2  0  0  0  0
 26 22  1  0  0  0  0
 27 28  1  0  0  0  0
 27 30  1  0  0  0  0
 27 29  1  0  0  0  0
 31 33  1  0  0  0  0
 31 32  2  0  0  0  0
 34 33  1  0  0  0  0
 35 34  1  0  0  0  0
 36 35  1  0  0  0  0
 37 36  1  0  0  0  0
 37 38  1  0  0  0  0
 38 34  1  0  0  0  0
M  END
>  <minimizedAffinity>
-5.38675404

$$$$

 OpenBabel03252503373D

 38 41  0  0  1  0  0  0  0  0999 V2000
   37.1590   31.0470   40.4040 C   0  0  0  0  0  0  0  0  0  0  0  0
   38.2900   30.7240   41.0310 C   0  0  0  0  0  0  0  0  0  0  0  0
   38.5060   29.3930   41.4660 N   0  0  0  0  0  0  0  0  0  0  0  0
   39.3900   28.3080   41.6860 C   0  0  0  0  0  0  0  0  0  0  0  0
   40.6460   28.1350   41.6060 O   0  0  0  0  0  0  0  0  0  0  0  0
   38.3540   27.3600   42.0620 C   0  0  1  0  0  0  0  0  0  0  0  0
   37.4350   28.5560   41.9700 C   0  0  2  0  0  0  0  0  0  0  0  0
   36.1730   28.4840   40.6970 S   0  0  0  0  0  0  0  0  0  0  0  0
   36.0130   30.1520   40.0630 C   0  0  0  0  0  0  0  0  0  0  0  0
   38.3880   26.9790   43.1160 H   0  0  0  0  0  0  0  0  0  0  0  0
   37.0800   28.8980   42.9710 H   0  0  0  0  0  0  0  0  0  0  0  0
   35.9330   30.0950   38.9560 H   0  0  0  0  0  0  0  0  0  0  0  0
   35.0580   30.5860   40.4560 H   0  0  0  0  0  0  0  0  0  0  0  0
   38.1620   26.2990   41.0870 C   0  0  0  0  0  0  0  0  0  0  0  0
   38.4790   26.1730   39.8910 O   0  0  0  0  0  0  0  0  0  0  0  0
   37.4620   25.1520   41.6160 N   0  0  0  0  0  0  0  0  0  0  0  0
   37.0690   24.9120   42.5540 H   0  0  0  0  0  0  0  0  0  0  0  0
   35.7480   22.8010   39.3130 C   0  0  0  0  0  0  0  0  0  0  0  0
   36.0050   23.9420   40.0750 C   0  0  0  0  0  0  0  0  0  0  0  0
   37.1700   24.0260   40.8100 C   0  0  0  0  0  0  0  0  0  0  0  0
   38.0320   22.9970   40.7690 N   0  0  0  0  0  0  0  0  0  0  0  0
   37.7690   21.8850   40.0200 C   0  0  0  0  0  0  0  0  0  0  0  0
   36.6360   21.8090   39.3080 N   0  0  0  0  0  0  0  0  0  0  0  0
   34.8340   22.7140   38.7250 H   0  0  0  0  0  0  0  0  0  0  0  0
   35.3010   24.7640   40.0970 H   0  0  0  0  0  0  0  0  0  0  0  0
   38.5650   21.1480   40.0960 H   0  0  0  0  0  0  0  0  0  0  0  0
   37.0490   32.4710   40.0070 C   0  0  0  0  0  0  0  0  0  0  0  0
   37.0140   33.1710   40.8670 H   0  0  0  0  0  0  0  0  0  0  0  0
   38.0010   32.6930   39.4410 H   0  0  0  0  0  0  0  0  0  0  0  0
   36.2290   32.6610   39.2660 H   0  0  0  0  0  0  0  0  0  0  0  0
   39.3270   31.7070   41.2880 C   0  0  0  0  0  0  0  0  0  0  0  0
   40.1130   31.6200   42.2750 O   0  0  0  0  0  0  0  0  0  0  0  0
   39.7240   32.8540   40.6530 O   0  0  0  0  0  0  0  0  0  0  0  0
   40.7280   33.0050   39.7190 C   0  0  0  0  0  3  0  0  0  0  0  0
   40.4130   32.4170   38.3690 C   0  0  0  0  0  2  0  0  0  0  0  0
   41.5880   32.9220   37.5540 C   0  0  0  0  0  2  0  0  0  0  0  0
   42.0080   34.2310   38.2070 C   0  0  0  0  0  2  0  0  0  0  0  0
   40.9860   34.4490   39.3230 C   0  0  0  0  0  2  0  0  0  0  0  0
  1  2  2  0  0  0  0
  2 31  1  0  0  0  0
  2  3  1  0  0  0  0
  3  4  1  0  0  0  0
  3  7  1  0  0  0  0
  4  6  1  0  0  0  0
  5  4  2  0  0  0  0
  6 10  1  1  0  0  0
  7  6  1  0  0  0  0
  7 11  1  1  0  0  0
  8  7  1  0  0  0  0
  9  1  1  0  0  0  0
  9 13  1  0  0  0  0
  9  8  1  0  0  0  0
 12  9  1  0  0  0  0
 14 16  1  0  0  0  0
 14  6  1  0  0  0  0
 15 14  2  0  0  0  0
 16 17  1  0  0  0  0
 18 19  1  0  0  0  0
 19 25  1  0  0  0  0
 19 20  2  0  0  0  0
 20 16  1  0  0  0  0
 21 20  1  0  0  0  0
 22 26  1  0  0  0  0
 22 21  2  0  0  0  0
 23 18  2  0  0  0  0
 23 22  1  0  0  0  0
 24 18  1  0  0  0  0
 27  1  1  0  0  0  0
 27 28  1  0  0  0  0
 29 27  1  0  0  0  0
 30 27  1  0  0  0  0
 31 32  2  0  0  0  0
 33 31  1  0  0  0  0
 34 33  1  0  0  0  0
 35 34  1  0  0  0  0
 36 37  1  0  0  0  0
 36 35  1  0  0  0  0
 37 38  1  0  0  0  0
 38 34  1  0  0  0  0
M  END
>  <minimizedAffinity>
-5.37991858

$$$$

 OpenBabel03252503373D

 38 41  0  0  1  0  0  0  0  0999 V2000
   37.6390   31.6520   40.0330 C   0  0  0  0  0  0  0  0  0  0  0  0
   38.9260   31.3070   40.0600 C   0  0  0  0  0  0  0  0  0  0  0  0
   39.3640   30.2650   40.9130 N   0  0  0  0  0  0  0  0  0  0  0  0
   40.2190   29.1610   41.1530 C   0  0  0  0  0  0  0  0  0  0  0  0
   41.1970   28.6260   40.5440 O   0  0  0  0  0  0  0  0  0  0  0  0
   39.6010   28.7780   42.4120 C   0  0  1  0  0  0  0  0  0  0  0  0
   38.7910   30.0400   42.2250 C   0  0  2  0  0  0  0  0  0  0  0  0
   37.0250   29.8170   42.0020 S   0  0  0  0  0  0  0  0  0  0  0  0
   36.5150   31.0570   40.8150 C   0  0  0  0  0  0  0  0  0  0  0  0
   40.2440   28.8640   43.3280 H   0  0  0  0  0  0  0  0  0  0  0  0
   39.0800   30.8430   42.9460 H   0  0  0  0  0  0  0  0  0  0  0  0
   35.8070   30.5820   40.1010 H   0  0  0  0  0  0  0  0  0  0  0  0
   35.9620   31.8610   41.3640 H   0  0  0  0  0  0  0  0  0  0  0  0
   38.8870   27.5150   42.3430 C   0  0  0  0  0  0  0  0  0  0  0  0
   38.2300   26.8600   43.1710 O   0  0  0  0  0  0  0  0  0  0  0  0
   38.9480   26.8910   41.0410 N   0  0  0  0  0  0  0  0  0  0  0  0
   39.3880   27.1550   40.1310 H   0  0  0  0  0  0  0  0  0  0  0  0
   36.4550   24.3200   40.0720 C   0  0  0  0  0  0  0  0  0  0  0  0
   37.0400   25.5690   40.2850 C   0  0  0  0  0  0  0  0  0  0  0  0
   38.3230   25.6470   40.7860 C   0  0  0  0  0  0  0  0  0  0  0  0
   38.9780   24.5070   41.0580 N   0  0  0  0  0  0  0  0  0  0  0  0
   38.3940   23.2890   40.8460 C   0  0  0  0  0  0  0  0  0  0  0  0
   37.1470   23.2200   40.3580 N   0  0  0  0  0  0  0  0  0  0  0  0
   35.4410   24.2360   39.6770 H   0  0  0  0  0  0  0  0  0  0  0  0
   36.5000   26.4800   40.0610 H   0  0  0  0  0  0  0  0  0  0  0  0
   39.0560   22.4700   41.1150 H   0  0  0  0  0  0  0  0  0  0  0  0
   37.3080   32.7620   39.1070 C   0  0  0  0  0  0  0  0  0  0  0  0
   37.7740   33.7290   39.3880 H   0  0  0  0  0  0  0  0  0  0  0  0
   37.7540   32.4590   38.1150 H   0  0  0  0  0  0  0  0  0  0  0  0
   36.2100   32.8580   38.9070 H   0  0  0  0  0  0  0  0  0  0  0  0
   39.9120   31.9760   39.2320 C   0  0  0  0  0  0  0  0  0  0  0  0
   40.4360   31.4220   38.2230 O   0  0  0  0  0  0  0  0  0  0  0  0
   40.4970   33.2150   39.2670 O   0  0  0  0  0  0  0  0  0  0  0  0
   41.6350   33.5990   39.9440 C   0  0  0  0  0  3  0  0  0  0  0  0
   41.4950   34.8890   40.7100 C   0  0  0  0  0  2  0  0  0  0  0  0
   42.8020   34.9110   41.4790 C   0  0  0  0  0  2  0  0  0  0  0  0
   43.1860   33.4510   41.6760 C   0  0  0  0  0  2  0  0  0  0  0  0
   42.0220   32.6630   41.0760 C   0  0  0  0  0  2  0  0  0  0  0  0
  1  2  2  0  0  0  0
  1  9  1  0  0  0  0
  2  3  1  0  0  0  0
  3  4  1  0  0  0  0
  3  7  1  0  0  0  0
  4  6  1  0  0  0  0
  5  4  2  0  0  0  0
  6 10  1  1  0  0  0
  7  6  1  0  0  0  0
  7 11  1  1  0  0  0
  8  7  1  0  0  0  0
  9 13  1  0  0  0  0
  9  8  1  0  0  0  0
 12  9  1  0  0  0  0
 14  6  1  0  0  0  0
 14 15  2  0  0  0  0
 16 14  1  0  0  0  0
 17 16  1  0  0  0  0
 18 19  2  0  0  0  0
 18 23  1  0  0  0  0
 19 20  1  0  0  0  0
 20 16  1  0  0  0  0
 20 21  2  0  0  0  0
 22 21  1  0  0  0  0
 22 26  1  0  0  0  0
 23 22  2  0  0  0  0
 24 18  1  0  0  0  0
 25 19  1  0  0  0  0
 27 28  1  0  0  0  0
 27  1  1  0  0  0  0
 29 27  1  0  0  0  0
 30 27  1  0  0  0  0
 31 33  1  0  0  0  0
 31  2  1  0  0  0  0
 32 31  2  0  0  0  0
 33 34  1  0  0  0  0
 34 35  1  0  0  0  0
 34 38  1  0  0  0  0
 35 36  1  0  0  0  0
 36 37  1  0  0  0  0
 38 37  1  0  0  0  0
M  END
>  <minimizedAffinity>
-5.32075882

$$$$

 OpenBabel03252503373D

 38 41  0  0  1  0  0  0  0  0999 V2000
   36.9890   27.6250   41.5190 C   0  0  0  0  0  0  0  0  0  0  0  0
   36.9740   27.3940   40.2060 C   0  0  0  0  0  0  0  0  0  0  0  0
   36.8650   28.4730   39.2960 N   0  0  0  0  0  0  0  0  0  0  0  0
   37.2070   29.0640   38.0550 C   0  0  0  0  0  0  0  0  0  0  0  0
   37.8530   28.6940   37.0260 O   0  0  0  0  0  0  0  0  0  0  0  0
   36.5480   30.3330   38.3180 C   0  0  1  0  0  0  0  0  0  0  0  0
   36.0620   29.6480   39.5750 C   0  0  2  0  0  0  0  0  0  0  0  0
   36.6470   30.3360   41.1250 S   0  0  0  0  0  0  0  0  0  0  0  0
   36.9100   28.9420   42.2180 C   0  0  0  0  0  0  0  0  0  0  0  0
   35.6790   30.5880   37.6570 H   0  0  0  0  0  0  0  0  0  0  0  0
   34.9700   29.4190   39.5400 H   0  0  0  0  0  0  0  0  0  0  0  0
   37.8660   29.1050   42.7620 H   0  0  0  0  0  0  0  0  0  0  0  0
   36.0830   28.9270   42.9720 H   0  0  0  0  0  0  0  0  0  0  0  0
   37.4750   31.4400   38.4830 C   0  0  0  0  0  0  0  0  0  0  0  0
   37.3220   32.6670   38.6130 O   0  0  0  0  0  0  0  0  0  0  0  0
   38.8600   31.0310   38.5030 N   0  0  0  0  0  0  0  0  0  0  0  0
   39.3450   30.1080   38.4350 H   0  0  0  0  0  0  0  0  0  0  0  0
   41.2840   33.4360   39.9540 C   0  0  0  0  0  0  0  0  0  0  0  0
   40.2620   32.4910   39.8700 C   0  0  0  0  0  0  0  0  0  0  0  0
   39.9080   31.9730   38.6410 C   0  0  0  0  0  0  0  0  0  0  0  0
   40.5660   32.3990   37.5500 N   0  0  0  0  0  0  0  0  0  0  0  0
   41.5660   33.3250   37.6460 C   0  0  0  0  0  0  0  0  0  0  0  0
   41.9050   33.8240   38.8420 N   0  0  0  0  0  0  0  0  0  0  0  0
   41.5800   33.8580   40.9160 H   0  0  0  0  0  0  0  0  0  0  0  0
   39.7400   32.1580   40.7580 H   0  0  0  0  0  0  0  0  0  0  0  0
   41.9950   33.5600   36.6750 H   0  0  0  0  0  0  0  0  0  0  0  0
   37.0970   26.4130   42.3660 C   0  0  0  0  0  0  0  0  0  0  0  0
   36.2230   25.7350   42.2870 H   0  0  0  0  0  0  0  0  0  0  0  0
   37.9880   25.8490   41.9600 H   0  0  0  0  0  0  0  0  0  0  0  0
   37.3690   26.6400   43.4300 H   0  0  0  0  0  0  0  0  0  0  0  0
   37.0660   26.0490   39.6680 C   0  0  0  0  0  0  0  0  0  0  0  0
   36.0780   25.4610   39.1410 O   0  0  0  0  0  0  0  0  0  0  0  0
   38.0820   25.1340   39.5710 O   0  0  0  0  0  0  0  0  0  0  0  0
   37.9840   23.7710   39.3870 C   0  0  0  0  0  3  0  0  0  0  0  0
   39.1030   23.1720   38.5770 C   0  0  0  0  0  2  0  0  0  0  0  0
   38.8150   21.6920   38.7380 C   0  0  0  0  0  2  0  0  0  0  0  0
   38.1220   21.5530   40.0860 C   0  0  0  0  0  2  0  0  0  0  0  0
   38.1270   22.9670   40.6690 C   0  0  0  0  0  2  0  0  0  0  0  0
  1  9  1  0  0  0  0
  1 27  1  0  0  0  0
  2  1  2  0  0  0  0
  3  7  1  0  0  0  0
  3  2  1  0  0  0  0
  4  6  1  0  0  0  0
  4  3  1  0  0  0  0
  5  4  2  0  0  0  0
  6 10  1  6  0  0  0
  6 14  1  0  0  0  0
  6  7  1  0  0  0  0
  7 11  1  6  0  0  0
  7  8  1  0  0  0  0
  8  9  1  0  0  0  0
  9 12  1  0  0  0  0
  9 13  1  0  0  0  0
 14 16  1  0  0  0  0
 14 15  2  0  0  0  0
 16 20  1  0  0  0  0
 17 16  1  0  0  0  0
 18 24  1  0  0  0  0
 19 18  1  0  0  0  0
 19 25  1  0  0  0  0
 20 19  2  0  0  0  0
 21 22  2  0  0  0  0
 21 20  1  0  0  0  0
 22 23  1  0  0  0  0
 23 18  2  0  0  0  0
 26 22  1  0  0  0  0
 27 30  1  0  0  0  0
 28 27  1  0  0  0  0
 29 27  1  0  0  0  0
 31  2  1  0  0  0  0
 32 31  2  0  0  0  0
 33 31  1  0  0  0  0
 34 33  1  0  0  0  0
 34 38  1  0  0  0  0
 35 36  1  0  0  0  0
 35 34  1  0  0  0  0
 36 37  1  0  0  0  0
 37 38  1  0  0  0  0
M  END
>  <minimizedAffinity>
-5.29929638

$$$$
