REMARK  Name = 
REMARK  6 active torsions:
REMARK  status: ('A' for Active; 'I' for Inactive)
REMARK    1  A    between atoms: C_1  and  C_4
REMARK    2  A    between atoms: C_3  and  C_14
REMARK    3  A    between atoms: C_8  and  C_10
REMARK    4  A    between atoms: C_18  and  C_20
REMARK    5  A    between atoms: C_20  and  C_21
REMARK    6  A    between atoms: C_21  and  C_34
REMARK                            x       y       z     vdW  Elec       q    Type
REMARK                         _______ _______ _______ _____ _____    ______ ____
ROOT
ATOM      1  C   UNL     1      43.967  34.654  42.374  0.00  0.00    +0.000 C 
ATOM      2  C   UNL     1      44.150  36.136  41.908  0.00  0.00    +0.000 C 
ATOM      3  C   UNL     1      44.001  34.942  40.970  0.00  0.00    +0.000 C 
ATOM      4  H   UNL     1      42.983  34.540  42.910  0.00  0.00    +0.000 HD
ATOM      5  H   UNL     1      45.131  36.577  42.080  0.00  0.00    +0.000 HD
ATOM      6  H   UNL     1      43.297  36.807  41.979  0.00  0.00    +0.000 HD
ATOM      7  H   UNL     1      44.897  34.841  40.333  0.00  0.00    +0.000 HD
ENDROOT
BRANCH   1   8
ATOM      8  C   UNL     1      45.112  34.121  43.136  0.00  0.00    +0.000 A 
ATOM      9  C   UNL     1      46.359  34.059  42.491  0.00  0.00    +0.000 A 
ATOM     10  C   UNL     1      47.451  33.562  43.195  0.00  0.00    +0.000 A 
ATOM     11  N   UNL     1      47.255  33.161  44.476  0.00  0.00    +0.000 NA
ATOM     12  C   UNL     1      46.059  33.233  45.061  0.00  0.00    +0.000 A 
ATOM     13  N   UNL     1      45.022  33.712  44.370  0.00  0.00    +0.000 NA
ATOM     14  H   UNL     1      46.540  34.374  41.470  0.00  0.00    +0.000 HD
ATOM     15  H   UNL     1      48.442  33.497  42.729  0.00  0.00    +0.000 HD
BRANCH  12  16
ATOM     16  C   UNL     1      46.047  32.745  46.482  0.00  0.00    +0.000 C 
ATOM     17  F   UNL     1      45.084  33.401  47.235  0.00  0.00    +0.000 F 
ATOM     18  F   UNL     1      47.289  33.064  47.079  0.00  0.00    +0.000 F 
ATOM     19  F   UNL     1      45.948  31.381  46.509  0.00  0.00    +0.000 F 
ENDBRANCH  12  16
ENDBRANCH   1   8
BRANCH   3  20
ATOM     20  C   UNL     1      42.668  34.799  40.268  0.00  0.00    +0.000 A 
ATOM     21  C   UNL     1      42.507  35.194  38.963  0.00  0.00    +0.000 A 
ATOM     22  C   UNL     1      41.312  35.051  38.288  0.00  0.00    +0.000 A 
ATOM     23  N   UNL     1      40.279  34.502  38.948  0.00  0.00    +0.000 NA
ATOM     24  C   UNL     1      40.424  34.104  40.243  0.00  0.00    +0.000 A 
ATOM     25  N   UNL     1      41.597  34.245  40.909  0.00  0.00    +0.000 NA
ATOM     26  H   UNL     1      43.362  35.631  38.467  0.00  0.00    +0.000 HD
ATOM     27  H   UNL     1      41.193  35.365  37.258  0.00  0.00    +0.000 HD
BRANCH  24  28
ATOM     28  C   UNL     1      39.319  33.473  41.026  0.00  0.00    +0.000 C 
ATOM     29  H   UNL     1      38.822  34.239  41.618  0.00  0.00    +0.000 HD
ATOM     30  H   UNL     1      39.748  32.711  41.707  0.00  0.00    +0.000 HD
BRANCH  28  31
ATOM     31  C   UNL     1      38.401  32.721  40.094  0.00  0.00    +0.000 C 
ATOM     32  H   UNL     1      37.962  33.461  39.393  0.00  0.00    +0.000 HD
ATOM     33  H   UNL     1      38.988  32.010  39.514  0.00  0.00    +0.000 HD
BRANCH  31  34
ATOM     34  C   UNL     1      37.255  32.050  40.795  0.00  0.00    +0.000 C 
ATOM     35  C   UNL     1      37.680  30.823  41.532  0.00  0.00    +0.000 C 
ATOM     36  C   UNL     1      37.263  29.621  40.745  0.00  0.00    +0.000 C 
ATOM     37  C   UNL     1      36.292  30.107  39.706  0.00  0.00    +0.000 C 
ATOM     38  C   UNL     1      36.161  31.601  39.874  0.00  0.00    +0.000 C 
ENDBRANCH  31  34
ENDBRANCH  28  31
ENDBRANCH  24  28
ENDBRANCH   3  20
TORSDOF 6
