
 OpenBabel03242519423D

 25 27  0  0  1  0  0  0  0  0999 V2000
   47.9640   32.8820   41.7090 O   0  0  0  0  0  0  0  0  0  0  0  0
   47.1120   34.0870   41.2860 P   0  0  2  0  0  0  0  0  0  0  0  0
   45.5290   33.8920   41.9070 O   0  0  0  0  0  0  0  0  0  0  0  0
   44.4020   35.9310   44.7090 C   0  0  0  0  0  0  0  0  0  0  0  0
   44.6630   35.5070   43.3860 C   0  0  0  0  0  0  0  0  0  0  0  0
   45.2890   34.2700   43.2100 C   0  0  0  0  0  0  0  0  0  0  0  0
   45.6130   33.5420   44.3030 N   0  0  0  0  0  0  0  0  0  0  0  0
   45.3510   33.9730   45.5580 C   0  0  0  0  0  0  0  0  0  0  0  0
   44.7540   35.1490   45.7740 N   0  0  0  0  0  0  0  0  0  0  0  0
   43.9190   36.8840   44.8640 H   0  0  0  0  0  0  0  0  0  0  0  0
   44.3470   36.1970   42.6030 H   0  0  0  0  0  0  0  0  0  0  0  0
   45.6780   33.2650   46.2980 H   0  0  0  0  0  0  0  0  0  0  0  0
   47.0420   34.1520   39.6240 O   0  0  0  0  0  0  0  0  0  0  0  0
   46.9180   33.1280   38.7250 C   0  0  1  0  0  3  0  0  0  0  0  0
   45.7070   32.8400   38.2710 O   0  0  0  0  0  0  0  0  0  0  0  0
   47.3040   32.0250   37.8410 C   0  0  0  0  0  0  0  0  0  0  0  0
   48.1780   32.4640   36.6900 C   0  0  0  0  0  2  0  0  0  0  0  0
   49.5580   32.4940   37.2810 C   0  0  0  0  0  2  0  0  0  0  0  0
   49.5000   31.8420   38.6110 C   0  0  0  0  0  2  0  0  0  0  0  0
   48.2220   31.0790   38.6360 C   0  0  0  0  0  2  0  0  0  0  0  0
   47.7880   35.4280   41.9660 O   0  0  0  0  0  0  0  0  0  0  0  0
   49.0300   35.7410   41.4370 C   0  0  0  0  0  0  0  0  0  0  0  0
   49.4470   37.0270   41.7620 F   0  0  0  0  0  0  0  0  0  0  0  0
   49.9410   34.7970   41.7870 F   0  0  0  0  0  0  0  0  0  0  0  0
   48.8790   35.7320   40.0590 F   0  0  0  0  0  0  0  0  0  0  0  0
  2  1  2  1  0  0  0
  2  3  1  0  0  0  0
  2 21  1  0  0  0  0
  3  6  1  0  0  0  0
  4 10  1  0  0  0  0
  4  9  1  0  0  0  0
  5  4  2  0  0  0  0
  6  5  1  0  0  0  0
  6  7  2  0  0  0  0
  7  8  1  0  0  0  0
  8  9  2  0  0  0  0
  8 12  1  0  0  0  0
 11  5  1  0  0  0  0
 13  2  1  0  0  0  0
 14 13  1  6  0  0  0
 15 14  1  0  0  0  0
 16 15  1  0  0  0  0
 16 20  1  0  0  0  0
 16 14  1  0  0  0  0
 17 18  1  0  0  0  0
 17 16  1  0  0  0  0
 18 19  1  0  0  0  0
 19 20  1  0  0  0  0
 22 23  1  0  0  0  0
 22 24  1  0  0  0  0
 22 21  1  0  0  0  0
 25 22  1  0  0  0  0
M  END
>  <minimizedAffinity>
-5.04278564

>  <minimizedRMSD>
1.77807593

$$$$
