
 OpenBabel03252505473D

 25 27  0  0  1  0  0  0  0  0999 V2000
   47.6820   31.9820   41.5750 C   0  0  0  0  0  0  0  0  0  0  0  0
   46.8980   31.5590   40.4700 C   0  0  0  0  0  0  0  0  0  0  0  0
   47.0750   30.2860   39.9050 C   0  0  0  0  0  0  0  0  0  0  0  0
   48.0320   29.5090   40.4860 N   0  0  0  0  0  0  0  0  0  0  0  0
   48.7620   29.9510   41.5420 C   0  0  0  0  0  0  0  0  0  0  0  0
   48.5860   31.1610   42.0710 N   0  0  0  0  0  0  0  0  0  0  0  0
   46.1470   32.2200   40.0450 H   0  0  0  0  0  0  0  0  0  0  0  0
   46.4780   29.9650   39.0650 H   0  0  0  0  0  0  0  0  0  0  0  0
   47.4530   33.3350   42.1040 C   0  0  1  0  0  0  0  0  0  0  0  0
   47.1920   33.3000   43.6530 C   0  0  1  0  0  0  0  0  0  0  0  0
   48.3190   34.0410   42.9690 C   0  0  0  0  0  0  0  0  0  0  0  0
   46.6340   33.8640   41.5440 H   0  0  0  0  0  0  0  0  0  0  0  0
   47.4110   32.3790   44.1880 H   0  0  0  0  0  0  0  0  0  0  0  0
   48.3430   35.1540   42.9870 H   0  0  0  0  0  0  0  0  0  0  0  0
   49.3310   33.6310   43.2290 H   0  0  0  0  0  0  0  0  0  0  0  0
   46.0600   34.1980   44.0960 C   0  0  0  0  0  0  0  0  0  0  0  0
   46.0690   35.4240   43.4950 F   0  0  0  0  0  0  0  0  0  0  0  0
   44.8400   33.5740   43.7750 F   0  0  0  0  0  0  0  0  0  0  0  0
   46.0380   34.3190   45.4790 F   0  0  0  0  0  0  0  0  0  0  0  0
   49.6960   29.0390   42.0130 O   0  0  0  0  0  0  0  0  0  0  0  0
   50.9300   29.4040   42.5900 C   0  0  0  0  0  3  0  0  0  0  0  0
   51.9570   29.4480   41.4720 C   0  0  0  0  0  2  0  0  0  0  0  0
   52.0640   28.0110   41.0470 C   0  0  0  0  0  2  0  0  0  0  0  0
   52.0830   27.2870   42.3790 C   0  0  0  0  0  2  0  0  0  0  0  0
   51.4310   28.2210   43.3900 C   0  0  0  0  0  2  0  0  0  0  0  0
  1  6  1  0  0  0  0
  1  9  1  0  0  0  0
  2  1  2  0  0  0  0
  3  2  1  0  0  0  0
  3  4  2  0  0  0  0
  4  5  1  0  0  0  0
  5 20  1  0  0  0  0
  5  6  2  0  0  0  0
  7  2  1  0  0  0  0
  8  3  1  0  0  0  0
  9 12  1  6  0  0  0
  9 11  1  0  0  0  0
  9 10  1  0  0  0  0
 10 16  1  0  0  0  0
 10 13  1  1  0  0  0
 11 14  1  0  0  0  0
 11 15  1  0  0  0  0
 11 10  1  0  0  0  0
 16 19  1  0  0  0  0
 17 16  1  0  0  0  0
 18 16  1  0  0  0  0
 20 21  1  0  0  0  0
 21 25  1  0  0  0  0
 22 21  1  0  0  0  0
 23 22  1  0  0  0  0
 23 24  1  0  0  0  0
 24 25  1  0  0  0  0
M  END
>  <minimizedAffinity>
-2.52099466

>  <minimizedRMSD>
7.09465027

$$$$
