
     RDKit          3D

 39 41  0  0  0  0  0  0  0  0999 V2000
   44.6627   35.3910   45.2080 C   0  0  0  0  0  0  0  0  0  0  0  0
   45.3871   35.2332   44.0169 C   0  0  0  0  0  0  0  0  0  0  0  0
   46.2142   34.1064   43.9245 C   0  0  0  0  0  0  0  0  0  0  0  0
   46.2800   33.2411   44.9553 N   0  0  0  0  0  0  0  0  0  0  0  0
   45.5726   33.4222   46.0823 C   0  0  0  0  0  0  0  0  0  0  0  0
   44.7486   34.5049   46.2285 N   0  0  0  0  0  0  0  0  0  0  0  0
   47.1993   32.1592   47.4892 C   0  0  2  0  0  0  0  0  0  0  0  0
   45.7186   32.4043   47.1212 C   0  0  1  0  0  0  0  0  0  0  0  0
   45.2220   32.7529   48.3457 O   0  0  0  0  0  0  0  0  0  0  0  0
   45.7225   31.8743   49.2605 C   0  0  0  0  0  0  0  0  0  0  0  0
   46.9364   31.1965   48.6614 C   0  0  2  0  0  0  0  0  0  0  0  0
   47.7226   33.2895   48.0240 O   0  0  0  0  0  0  0  0  0  0  0  0
   48.0057   31.0889   49.5014 O   0  0  0  0  0  0  0  0  0  0  0  0
   45.2058   36.2635   42.9872 C   0  0  0  0  0  0  0  0  0  0  0  0
   43.9944   36.1992   45.4193 H   0  0  0  0  0  0  0  0  0  0  0  0
   46.7568   34.0045   43.0113 H   0  0  0  0  0  0  0  0  0  0  0  0
   47.7563   31.7006   46.6741 H   0  0  0  0  0  0  0  0  0  0  0  0
   45.3319   31.4327   46.7404 H   0  0  0  0  0  0  0  0  0  0  0  0
   46.0996   32.4797   50.1236 H   0  0  0  0  0  0  0  0  0  0  0  0
   44.9984   31.1768   49.6852 H   0  0  0  0  0  0  0  0  0  0  0  0
   46.6086   30.2297   48.2275 H   0  0  0  0  0  0  0  0  0  0  0  0
   47.0485   33.8366   48.4712 H   0  0  0  0  0  0  0  0  0  0  0  0
   48.7922   30.8752   48.9602 H   0  0  0  0  0  0  0  0  0  0  0  0
   45.1272   37.2626   43.3968 H   0  0  0  0  0  0  0  0  0  0  0  0
   46.1185   36.2493   42.3471 H   0  0  0  0  0  0  0  0  0  0  0  0
   44.0683   35.8881   42.0663 C   0  0  0  0  0  0  0  0  0  0  0  0
   44.5579   35.7562   40.6262 C   0  0  0  0  0  0  0  0  0  0  0  0
   43.5768   36.5117   39.7696 C   0  0  0  0  0  0  0  0  0  0  0  0
   42.3431   36.5460   40.6494 C   0  0  0  0  0  0  0  0  0  0  0  0
   42.9763   36.9175   41.9969 C   0  0  0  0  0  0  0  0  0  0  0  0
   43.6179   34.9366   42.4156 H   0  0  0  0  0  0  0  0  0  0  0  0
   45.5402   36.3029   40.5784 H   0  0  0  0  0  0  0  0  0  0  0  0
   44.6654   34.6939   40.3560 H   0  0  0  0  0  0  0  0  0  0  0  0
   43.9096   37.5779   39.6780 H   0  0  0  0  0  0  0  0  0  0  0  0
   43.3810   36.0273   38.7962 H   0  0  0  0  0  0  0  0  0  0  0  0
   41.6004   37.2770   40.3214 H   0  0  0  0  0  0  0  0  0  0  0  0
   41.9010   35.5158   40.7443 H   0  0  0  0  0  0  0  0  0  0  0  0
   42.2512   36.8828   42.8093 H   0  0  0  0  0  0  0  0  0  0  0  0
   43.4042   37.9441   41.8093 H   0  0  0  0  0  0  0  0  0  0  0  0
  1  6  2  0
  2  1  1  0
  3  2  2  0
  3  4  1  0
  4  5  2  0
  5  6  1  0
  7 12  1  0
  7 11  1  0
  8  5  1  0
  8  7  1  0
  8  9  1  0
  9 10  1  0
 11 10  1  0
 11 13  1  0
 14  2  1  0
  1 15  1  0
  3 16  1  0
  7 17  1  6
  8 18  1  6
 10 19  1  0
 10 20  1  0
 11 21  1  6
 12 22  1  0
 13 23  1  0
 14 24  1  0
 14 25  1  0
 26 27  1  0
 27 28  1  0
 28 29  1  0
 29 30  1  0
 30 26  1  0
 26 31  1  0
 27 32  1  0
 27 33  1  0
 28 34  1  0
 28 35  1  0
 29 36  1  0
 29 37  1  0
 30 38  1  0
 30 39  1  0
 14 26  1  0
M  ISO  8  15  14  16  14  17  13  18  13  19  13  20  13  21  13  22   3
M  ISO  3  23   3  24   8  25   8
M  END
>  <DihAtoms>  (1) 
1,13,25,26

>  <DihDeg>  (1) 
179.99983699646376

$$$$
