REMARK  Name = 
REMARK  6 active torsions:
REMARK  status: ('A' for Active; 'I' for Inactive)
REMARK    1  A    between atoms: C_1  and  C_14
REMARK    2  A    between atoms: C_3  and  C_8
REMARK    3  A    between atoms: C_7  and  O_12
REMARK    4  A    between atoms: C_11  and  O_13
REMARK    5  A    between atoms: C_14  and  N_17
REMARK    6  A    between atoms: C_15  and  C_30
REMARK                            x       y       z     vdW  Elec       q    Type
REMARK                         _______ _______ _______ _____ _____    ______ ____
ROOT
ATOM      1  C   UNL     1      45.279  35.613  44.209  0.00  0.00    +0.000 A 
ATOM      2  C   UNL     1      46.244  34.868  43.513  0.00  0.00    +0.000 A 
ATOM      3  C   UNL     1      46.711  33.667  44.085  0.00  0.00    +0.000 A 
ATOM      4  N   UNL     1      46.206  33.306  45.261  0.00  0.00    +0.000 NA
ATOM      5  C   UNL     1      45.274  34.039  45.917  0.00  0.00    +0.000 A 
ATOM      6  N   UNL     1      44.808  35.196  45.393  0.00  0.00    +0.000 NA
ATOM      7  H   UNL     1      46.578  35.268  42.559  0.00  0.00    +0.000 HD
ATOM      8  H   UNL     1      44.905  33.684  46.874  0.00  0.00    +0.000 HD
ENDROOT
BRANCH   3  10
ATOM      9  C   UNL     1      48.688  33.775  42.578  0.00  0.00    +0.000 C 
ATOM     10  C   UNL     1      47.710  32.933  43.319  0.00  0.00    +0.000 C 
ATOM     11  O   UNL     1      47.164  32.153  42.258  0.00  0.00    +0.000 OA
ATOM     12  C   UNL     1      48.291  31.676  41.627  0.00  0.00    +0.000 C 
ATOM     13  C   UNL     1      49.428  32.642  41.836  0.00  0.00    +0.000 C 
ATOM     14  H   UNL     1      48.240  34.372  41.762  0.00  0.00    +0.000 HD
ATOM     15  H   UNL     1      48.245  32.230  43.985  0.00  0.00    +0.000 HD
ATOM     16  H   UNL     1      48.087  31.637  40.536  0.00  0.00    +0.000 HD
ATOM     17  H   UNL     1      48.549  30.643  41.937  0.00  0.00    +0.000 HD
ATOM     18  H   UNL     1      50.234  32.260  42.483  0.00  0.00    +0.000 HD
BRANCH   9  19
ATOM     19  O   UNL     1      49.493  34.545  43.360  0.00  0.00    +0.000 OA
ATOM     20  H   UNL     1      49.382  34.303  44.316  0.00  0.00    +0.000 HD
ENDBRANCH   9  19
BRANCH  13  21
ATOM     21  O   UNL     1      49.953  33.154  40.657  0.00  0.00    +0.000 OA
ATOM     22  H   UNL     1      49.278  33.666  40.167  0.00  0.00    +0.000 HD
ENDBRANCH  13  21
ENDBRANCH   3  10
BRANCH   1  23
ATOM     23  C   UNL     1      44.794  36.895  43.597  0.00  0.00    +0.000 C 
ATOM     24  H   UNL     1      45.371  37.122  42.700  0.00  0.00    +0.000 HD
ATOM     25  H   UNL     1      43.708  36.733  43.407  0.00  0.00    +0.000 HD
BRANCH  23  28
ATOM     26  C   UNL     1      45.346  39.267  44.479  0.00  0.00    +0.000 C 
ATOM     27  O   UNL     1      45.629  39.614  43.300  0.00  0.00    +0.000 OA
ATOM     28  N   UNL     1      44.913  37.916  44.623  0.00  0.00    +0.000 N 
ATOM     29  H   UNL     1      44.643  37.614  45.603  0.00  0.00    +0.000 HD
BRANCH  26  30
ATOM     30  C   UNL     1      45.435  40.149  45.665  0.00  0.00    +0.000 C 
ATOM     31  C   UNL     1      44.177  39.955  46.484  0.00  0.00    +0.000 C 
ATOM     32  C   UNL     1      43.118  40.804  45.803  0.00  0.00    +0.000 C 
ATOM     33  C   UNL     1      43.910  42.009  45.364  0.00  0.00    +0.000 C 
ATOM     34  C   UNL     1      45.342  41.577  45.177  0.00  0.00    +0.000 C 
ENDBRANCH  26  30
ENDBRANCH  23  28
ENDBRANCH   1  23
TORSDOF 6
