
     RDKit          3D

 30 31  0  0  0  0  0  0  0  0999 V2000
   45.6468   34.7553   44.3661 C   0  0  0  0  0  0  0  0  0  0  0  0
   45.2730   34.3884   45.6343 C   0  0  0  0  0  0  0  0  0  0  0  0
   45.9474   33.2897   46.1665 C   0  0  0  0  0  0  0  0  0  0  0  0
   46.8854   32.6927   45.4147 N   0  0  0  0  0  0  0  0  0  0  0  0
   47.2184   33.0871   44.1766 C   0  0  0  0  0  0  0  0  0  0  0  0
   46.5846   34.1528   43.6236 N   0  0  0  0  0  0  0  0  0  0  0  0
   44.1619   35.3483   42.6512 C   0  0  0  0  0  0  0  0  0  0  0  0
   44.1029   34.0726   42.6621 O   0  0  0  0  0  0  0  0  0  0  0  0
   45.0669   35.8712   43.6283 N   0  0  0  0  0  0  0  0  0  0  0  0
   43.4478   36.2162   41.8024 O   0  0  0  0  0  0  0  0  0  0  0  0
   44.2628   35.1399   46.2661 N   0  0  0  0  0  0  0  0  0  0  0  0
   45.6560   32.9969   47.1662 H   0  0  0  0  0  0  0  0  0  0  0  0
   47.9877   32.5517   43.6335 H   0  0  0  0  0  0  0  0  0  0  0  0
   45.2294   36.8745   43.7338 H   0  0  0  0  0  0  0  0  0  0  0  0
   43.2711   34.9760   45.9548 H   0  0  0  0  0  0  0  0  0  0  0  0
   44.8663   35.7028   46.9342 H   0  0  0  0  0  0  0  0  0  0  0  0
   42.5645   35.6422   40.8515 C   0  0  0  0  0  0  0  0  0  0  0  0
   42.5885   36.4228   39.5547 C   0  0  0  0  0  0  0  0  0  0  0  0
   42.9835   35.4332   38.5022 C   0  0  0  0  0  0  0  0  0  0  0  0
   43.8516   34.4229   39.2093 C   0  0  0  0  0  0  0  0  0  0  0  0
   43.1232   34.2721   40.5259 C   0  0  0  0  0  0  0  0  0  0  0  0
   41.5387   35.5109   41.2483 H   0  0  0  0  0  0  0  0  0  0  0  0
   41.5606   36.8173   39.3124 H   0  0  0  0  0  0  0  0  0  0  0  0
   43.3275   37.2476   39.5702 H   0  0  0  0  0  0  0  0  0  0  0  0
   43.5275   35.9172   37.6430 H   0  0  0  0  0  0  0  0  0  0  0  0
   42.1097   34.8499   38.0991 H   0  0  0  0  0  0  0  0  0  0  0  0
   44.8989   34.7988   39.3370 H   0  0  0  0  0  0  0  0  0  0  0  0
   43.8938   33.4479   38.6587 H   0  0  0  0  0  0  0  0  0  0  0  0
   43.8318   33.9228   41.2928 H   0  0  0  0  0  0  0  0  0  0  0  0
   42.3087   33.5325   40.4031 H   0  0  0  0  0  0  0  0  0  0  0  0
  1  2  2  0
  2  3  1  0
  2 11  1  0
  4  3  2  0
  5  4  1  0
  6  5  2  0
  6  1  1  0
  7  8  2  0
  7  9  1  0
  9  1  1  0
 10  7  1  0
  3 12  1  0
  5 13  1  0
  9 14  1  0
 11 15  1  0
 11 16  1  0
 17 18  1  0
 18 19  1  0
 19 20  1  0
 20 21  1  0
 21 17  1  0
 17 22  1  0
 18 23  1  0
 18 24  1  0
 19 25  1  0
 19 26  1  0
 20 27  1  0
 20 28  1  0
 21 29  1  0
 21 30  1  0
 10 17  1  0
M  ISO  2  12  14  13  14
M  END
>  <DihAtoms>  (1) 
6,9,16,17

>  <DihDeg>  (1) 
126.99899777555046

$$$$
