REMARK  Name = 
REMARK  5 active torsions:
REMARK  status: ('A' for Active; 'I' for Inactive)
REMARK    1  A    between atoms: C_3  and  C_14
REMARK    2  A    between atoms: C_5  and  C_7
REMARK    3  A    between atoms: C_12  and  N_13
REMARK    4  A    between atoms: C_18  and  O_20
REMARK    5  A    between atoms: O_20  and  C_36
REMARK                            x       y       z     vdW  Elec       q    Type
REMARK                         _______ _______ _______ _____ _____    ______ ____
ROOT
ATOM      1  C   UNL     1      44.574  35.593  44.615  0.00  0.00    +0.000 A 
ATOM      2  C   UNL     1      45.229  35.601  43.365  0.00  0.00    +0.000 A 
ATOM      3  C   UNL     1      46.318  34.685  43.178  0.00  0.00    +0.000 A 
ATOM      4  N   UNL     1      46.661  33.861  44.208  0.00  0.00    +0.000 NA
ATOM      5  C   UNL     1      46.009  33.893  45.372  0.00  0.00    +0.000 A 
ATOM      6  N   UNL     1      44.967  34.750  45.589  0.00  0.00    +0.000 NA
ATOM      7  H   UNL     1      43.763  36.305  44.694  0.00  0.00    +0.000 HD
ATOM      8  H   UNL     1      44.981  36.234  42.545  0.00  0.00    +0.000 HD
ENDROOT
BRANCH   5   9
ATOM      9  C   UNL     1      46.422  32.981  46.465  0.00  0.00    +0.000 C 
ATOM     10  C   UNL     1      46.972  31.756  45.773  0.00  0.00    +0.000 C 
ATOM     11  C   UNL     1      46.105  30.562  45.774  0.00  0.00    +0.000 C 
ATOM     12  C   UNL     1      45.820  30.297  47.260  0.00  0.00    +0.000 C 
ATOM     13  C   UNL     1      45.023  31.353  47.872  0.00  0.00    +0.000 C 
ATOM     14  C   UNL     1      45.382  32.726  47.417  0.00  0.00    +0.000 C 
ATOM     15  H   UNL     1      47.272  33.517  46.974  0.00  0.00    +0.000 HD
ATOM     16  H   UNL     1      47.304  31.970  44.731  0.00  0.00    +0.000 HD
ATOM     17  H   UNL     1      47.906  31.471  46.304  0.00  0.00    +0.000 HD
ATOM     18  H   UNL     1      46.722  29.701  45.460  0.00  0.00    +0.000 HD
ATOM     19  H   UNL     1      45.195  30.601  45.172  0.00  0.00    +0.000 HD
ATOM     20  H   UNL     1      45.174  29.392  47.246  0.00  0.00    +0.000 HD
ATOM     21  H   UNL     1      46.771  30.126  47.766  0.00  0.00    +0.000 HD
ATOM     22  H   UNL     1      44.236  31.386  48.570  0.00  0.00    +0.000 HD
BRANCH  14  23
ATOM     23  N   UNL     1      44.680  33.866  47.928  0.00  0.00    +0.000 N 
ATOM     24  H   UNL     1      45.004  34.421  48.757  0.00  0.00    +0.000 HD
ATOM     25  H   UNL     1      43.821  34.397  47.700  0.00  0.00    +0.000 HD
ENDBRANCH  14  23
ENDBRANCH   5   9
BRANCH   3  26
ATOM     26  C   UNL     1      47.004  34.667  41.904  0.00  0.00    +0.000 A 
ATOM     27  C   UNL     1      48.158  35.392  41.780  0.00  0.00    +0.000 A 
ATOM     28  C   UNL     1      48.776  35.335  40.514  0.00  0.00    +0.000 A 
ATOM     29  C   UNL     1      48.162  34.566  39.549  0.00  0.00    +0.000 A 
ATOM     30  C   UNL     1      47.019  33.850  39.676  0.00  0.00    +0.000 A 
ATOM     31  N   UNL     1      46.445  33.925  40.912  0.00  0.00    +0.000 NA
ATOM     32  H   UNL     1      48.574  35.968  42.580  0.00  0.00    +0.000 HD
ATOM     33  H   UNL     1      49.680  35.897  40.402  0.00  0.00    +0.000 HD
ATOM     34  H   UNL     1      48.726  34.600  38.627  0.00  0.00    +0.000 HD
BRANCH  30  35
ATOM     35  O   UNL     1      46.466  33.105  38.664  0.00  0.00    +0.000 OA
BRANCH  35  36
ATOM     36  C   UNL     1      46.975  32.965  37.368  0.00  0.00    +0.000 C 
ATOM     37  C   UNL     1      47.848  34.158  37.004  0.00  0.00    +0.000 C 
ATOM     38  C   UNL     1      48.621  33.586  35.819  0.00  0.00    +0.000 C 
ATOM     39  C   UNL     1      49.035  32.223  36.334  0.00  0.00    +0.000 C 
ATOM     40  C   UNL     1      48.014  31.857  37.382  0.00  0.00    +0.000 C 
ENDBRANCH  35  36
ENDBRANCH  30  35
ENDBRANCH   3  26
TORSDOF 5
