
     RDKit          3D

 27 28  0  0  0  0  0  0  0  0999 V2000
   44.5306   36.0452   44.5680 C   0  0  0  0  0  0  0  0  0  0  0  0
   45.2484   36.0012   43.3659 C   0  0  0  0  0  0  0  0  0  0  0  0
   46.1393   34.9530   43.1454 C   0  0  0  0  0  0  0  0  0  0  0  0
   46.2887   33.9975   44.1064 N   0  0  0  0  0  0  0  0  0  0  0  0
   45.5698   34.0774   45.2645 C   0  0  0  0  0  0  0  0  0  0  0  0
   44.7038   35.0911   45.4856 N   0  0  0  0  0  0  0  0  0  0  0  0
   46.3851   34.2154   40.7845 C   0  0  0  0  0  0  0  0  0  0  0  0
   45.2151   33.7185   40.9372 O   0  0  0  0  0  0  0  0  0  0  0  0
   46.9032   34.8417   41.9485 N   0  0  0  0  0  0  0  0  0  0  0  0
   43.8849   36.9053   44.5993 H   0  0  0  0  0  0  0  0  0  0  0  0
   45.2053   36.7017   42.5450 H   0  0  0  0  0  0  0  0  0  0  0  0
   45.6564   33.3438   46.0516 H   0  0  0  0  0  0  0  0  0  0  0  0
   47.8753   35.2657   42.0183 H   0  0  0  0  0  0  0  0  0  0  0  0
   47.2075   34.2036   39.5823 C   0  0  0  0  0  0  0  0  0  0  0  0
   48.6584   33.8393   39.7986 C   0  0  0  0  0  0  0  0  0  0  0  0
   49.1794   34.0416   38.3679 C   0  0  0  0  0  0  0  0  0  0  0  0
   48.3634   35.2034   37.8046 C   0  0  0  0  0  0  0  0  0  0  0  0
   47.3626   35.5466   38.9161 C   0  0  0  0  0  0  0  0  0  0  0  0
   46.8353   33.5085   38.7966 H   0  0  0  0  0  0  0  0  0  0  0  0
   49.1010   34.6417   40.4138 H   0  0  0  0  0  0  0  0  0  0  0  0
   48.8250   32.8223   40.1509 H   0  0  0  0  0  0  0  0  0  0  0  0
   48.9640   33.0854   37.8150 H   0  0  0  0  0  0  0  0  0  0  0  0
   50.2565   34.2066   38.3406 H   0  0  0  0  0  0  0  0  0  0  0  0
   47.7640   34.8796   36.9228 H   0  0  0  0  0  0  0  0  0  0  0  0
   48.9768   36.0887   37.5791 H   0  0  0  0  0  0  0  0  0  0  0  0
   46.4210   35.9582   38.5078 H   0  0  0  0  0  0  0  0  0  0  0  0
   47.8993   36.2561   39.5956 H   0  0  0  0  0  0  0  0  0  0  0  0
  1  6  2  0
  2  1  1  0
  3  2  2  0
  3  4  1  0
  4  5  2  0
  5  6  1  0
  7  8  2  0
  7  9  1  0
  9  3  1  0
  1 10  1  0
  2 11  1  0
  5 12  1  0
  9 13  1  0
 14 15  1  0
 15 16  1  0
 16 17  1  0
 17 18  1  0
 18 14  1  0
 14 19  1  0
 15 20  1  0
 15 21  1  0
 16 22  1  0
 16 23  1  0
 17 24  1  0
 17 25  1  0
 18 26  1  0
 18 27  1  0
  7 14  1  0
M  ISO  3  10  14  11  14  12  14
M  END
>  <DihAtoms>  (1) 
7,6,13,14

>  <DihDeg>  (1) 
-119.99862559982182

$$$$
