
 OpenBabel03252505113D

 40 43  0  0  1  0  0  0  0  0999 V2000
   44.5820   35.5990   44.6180 C   0  0  0  0  0  0  0  0  0  0  0  0
   45.2320   35.6000   43.3650 C   0  0  0  0  0  0  0  0  0  0  0  0
   46.3140   34.6760   43.1760 C   0  0  0  0  0  0  0  0  0  0  0  0
   46.6560   33.8530   44.2070 N   0  0  0  0  0  0  0  0  0  0  0  0
   46.0090   33.8920   45.3740 C   0  0  0  0  0  0  0  0  0  0  0  0
   44.9740   34.7560   45.5930 N   0  0  0  0  0  0  0  0  0  0  0  0
   43.7760   36.3170   44.6990 H   0  0  0  0  0  0  0  0  0  0  0  0
   44.9850   36.2320   42.5450 H   0  0  0  0  0  0  0  0  0  0  0  0
   46.4210   32.9800   46.4670 C   0  0  2  0  0  0  0  0  0  0  0  0
   46.9660   31.7530   45.7760 C   0  0  0  0  0  0  0  0  0  0  0  0
   46.0950   30.5610   45.7800 C   0  0  0  0  0  0  0  0  0  0  0  0
   45.8110   30.2990   47.2670 C   0  0  0  0  0  0  0  0  0  0  0  0
   45.0180   31.3580   47.8780 C   0  0  0  0  0  0  0  0  0  0  0  0
   45.3810   32.7300   47.4210 C   0  0  0  0  0  0  0  0  0  0  0  0
   47.2730   33.5140   46.9750 H   0  0  0  0  0  0  0  0  0  0  0  0
   47.2970   31.9640   44.7340 H   0  0  0  0  0  0  0  0  0  0  0  0
   47.9000   31.4660   46.3070 H   0  0  0  0  0  0  0  0  0  0  0  0
   46.7090   29.6980   45.4660 H   0  0  0  0  0  0  0  0  0  0  0  0
   45.1850   30.6020   45.1790 H   0  0  0  0  0  0  0  0  0  0  0  0
   45.1630   29.3960   47.2550 H   0  0  0  0  0  0  0  0  0  0  0  0
   46.7620   30.1260   47.7720 H   0  0  0  0  0  0  0  0  0  0  0  0
   44.2320   31.3950   48.5770 H   0  0  0  0  0  0  0  0  0  0  0  0
   44.6830   33.8720   47.9310 N   0  0  0  0  0  0  0  0  0  0  0  0
   45.0100   34.4280   48.7590 H   0  0  0  0  0  0  0  0  0  0  0  0
   43.8250   34.4060   47.7040 H   0  0  0  0  0  0  0  0  0  0  0  0
   46.9950   34.6500   41.9000 C   0  0  0  0  0  0  0  0  0  0  0  0
   48.1410   35.3850   41.7620 C   0  0  0  0  0  0  0  0  0  0  0  0
   48.7540   35.3200   40.4940 C   0  0  0  0  0  0  0  0  0  0  0  0
   48.1430   34.5340   39.5410 C   0  0  0  0  0  0  0  0  0  0  0  0
   47.0080   33.8080   39.6810 C   0  0  0  0  0  0  0  0  0  0  0  0
   46.4390   33.8910   40.9190 N   0  0  0  0  0  0  0  0  0  0  0  0
   48.5540   35.9750   42.5540 H   0  0  0  0  0  0  0  0  0  0  0  0
   49.6520   35.8900   40.3720 H   0  0  0  0  0  0  0  0  0  0  0  0
   48.7030   34.5630   38.6160 H   0  0  0  0  0  0  0  0  0  0  0  0
   46.4580   33.0460   38.6800 O   0  0  0  0  0  0  0  0  0  0  0  0
   46.7250   33.1630   37.3110 C   0  0  0  0  0  0  0  0  0  0  0  0
   47.5680   31.9910   36.8290 C   0  0  0  0  0  0  0  0  0  0  0  0
   47.3350   32.0820   35.3240 C   0  0  0  0  0  0  0  0  0  0  0  0
   45.8350   32.2750   35.2420 C   0  0  0  0  0  0  0  0  0  0  0  0
   45.4350   32.9060   36.5510 C   0  0  0  0  0  0  0  0  0  0  0  0
  1  7  1  0  0  0  0
  1  6  1  0  0  0  0
  2  1  2  0  0  0  0
  3  2  1  0  0  0  0
  3  4  2  0  0  0  0
  4  5  1  0  0  0  0
  5  6  2  0  0  0  0
  5  9  1  0  0  0  0
  8  2  1  0  0  0  0
  9 15  1  1  0  0  0
  9 14  1  0  0  0  0
 10 11  1  0  0  0  0
 10 17  1  0  0  0  0
 10  9  1  0  0  0  0
 11 12  1  0  0  0  0
 12 21  1  0  0  0  0
 12 13  1  0  0  0  0
 13 22  1  0  0  0  0
 14 13  2  0  0  0  0
 14 23  1  0  0  0  0
 16 10  1  0  0  0  0
 18 11  1  0  0  0  0
 19 11  1  0  0  0  0
 20 12  1  0  0  0  0
 23 24  1  0  0  0  0
 25 23  1  0  0  0  0
 26  3  1  0  0  0  0
 27 26  1  0  0  0  0
 27 32  1  0  0  0  0
 28 27  2  0  0  0  0
 29 30  2  0  0  0  0
 29 28  1  0  0  0  0
 30 31  1  0  0  0  0
 31 26  2  0  0  0  0
 33 28  1  0  0  0  0
 34 29  1  0  0  0  0
 35 30  1  0  0  0  0
 36 35  1  0  0  0  0
 37 36  1  0  0  0  0
 38 37  1  0  0  0  0
 39 38  1  0  0  0  0
 39 40  1  0  0  0  0
 40 36  1  0  0  0  0
M  END
>  <minimizedAffinity>
-7.19774008

>  <minimizedRMSD>
0.518922329

$$$$
