
     RDKit          3D

 34 35  0  0  0  0  0  0  0  0999 V2000
   48.0876   32.9104   41.9070 O   0  0  0  0  0  0  0  0  0  0  0  0
   47.2007   34.0261   41.3375 P   0  0  2  0  0  0  0  0  0  0  0  0
   45.6054   33.8179   41.9186 O   0  0  0  0  0  0  0  0  0  0  0  0
   44.3575   35.9193   44.6233 C   0  0  0  0  0  0  0  0  0  0  0  0
   44.6655   35.4603   43.3215 C   0  0  0  0  0  0  0  0  0  0  0  0
   45.3211   34.2314   43.2024 C   0  0  0  0  0  0  0  0  0  0  0  0
   45.6275   33.5444   44.3258 N   0  0  0  0  0  0  0  0  0  0  0  0
   45.3208   34.0076   45.5588 C   0  0  0  0  0  0  0  0  0  0  0  0
   44.6946   35.1772   45.7214 N   0  0  0  0  0  0  0  0  0  0  0  0
   47.1940   33.9252   39.6760 O   0  0  0  0  0  0  0  0  0  0  0  0
   46.5426   33.0332   38.8682 C   0  0  0  0  0  0  0  0  0  0  0  0
   45.8875   33.5060   37.8170 O   0  0  0  0  0  0  0  0  0  0  0  0
   47.7913   35.4583   41.9044 O   0  0  0  0  0  0  0  0  0  0  0  0
   49.0442   35.7691   41.4008 C   0  0  0  0  0  0  0  0  0  0  0  0
   49.4488   37.0597   41.7214 F   0  0  0  0  0  0  0  0  0  0  0  0
   49.9502   34.8321   41.7843 F   0  0  0  0  0  0  0  0  0  0  0  0
   48.9266   35.7429   40.0196 F   0  0  0  0  0  0  0  0  0  0  0  0
   43.8518   36.8656   44.7342 H   0  0  0  0  0  0  0  0  0  0  0  0
   44.3588   36.1176   42.5090 H   0  0  0  0  0  0  0  0  0  0  0  0
   45.6403   33.3297   46.3299 H   0  0  0  0  0  0  0  0  0  0  0  0
   46.0512   31.7507   38.3579 C   0  0  0  0  0  0  0  0  0  0  0  0
   45.4385   31.8547   36.9811 C   0  0  0  0  0  0  0  0  0  0  0  0
   46.6215   31.7874   36.0578 C   0  0  0  0  0  0  0  0  0  0  0  0
   47.8031   31.3889   36.8584 C   0  0  0  0  0  0  0  0  0  0  0  0
   47.2655   30.8334   38.1304 C   0  0  0  0  0  0  0  0  0  0  0  0
   45.3485   31.1618   38.9194 H   0  0  0  0  0  0  0  0  0  0  0  0
   44.8357   30.9271   36.7595 H   0  0  0  0  0  0  0  0  0  0  0  0
   44.8085   32.7149   36.7917 H   0  0  0  0  0  0  0  0  0  0  0  0
   46.4480   31.0424   35.2224 H   0  0  0  0  0  0  0  0  0  0  0  0
   46.7633   32.7497   35.5086 H   0  0  0  0  0  0  0  0  0  0  0  0
   48.4353   30.6077   36.3665 H   0  0  0  0  0  0  0  0  0  0  0  0
   48.4898   32.2477   37.0079 H   0  0  0  0  0  0  0  0  0  0  0  0
   47.9482   30.9207   38.9997 H   0  0  0  0  0  0  0  0  0  0  0  0
   46.9134   29.8042   37.9766 H   0  0  0  0  0  0  0  0  0  0  0  0
  2  1  2  0
  2  3  1  1
  2 13  1  0
  3  6  1  0
  4  9  2  0
  5  4  1  0
  6  5  2  0
  6  7  1  0
  7  8  2  0
  8  9  1  0
 10  2  1  0
 11 10  1  0
 12 11  2  0
 14 16  1  0
 14 15  1  0
 14 13  1  0
 17 14  1  0
  4 18  1  0
  5 19  1  0
  8 20  1  0
 21 22  1  0
 22 23  1  0
 23 24  1  0
 24 25  1  0
 25 21  1  0
 21 26  1  0
 22 27  1  0
 22 28  1  0
 23 29  1  0
 23 30  1  0
 24 31  1  0
 24 32  1  0
 25 33  1  0
 25 34  1  0
 11 21  1  0
M  ISO  3  18  14  19  14  20  14
M  END
>  <DihAtoms>  (1) 
9,10,20,21

>  <DihDeg>  (1) 
175.8131579925777

$$$$
