
 OpenBabel03252503433D

 30 32  0  0  1  0  0  0  0  0999 V2000
   44.7780   34.9510   45.1880 C   0  0  0  0  0  0  0  0  0  0  0  0
   45.3910   34.6400   43.9650 C   0  0  0  0  0  0  0  0  0  0  0  0
   46.1640   33.4730   43.9260 C   0  0  0  0  0  0  0  0  0  0  0  0
   46.2860   32.7150   45.0320 N   0  0  0  0  0  0  0  0  0  0  0  0
   45.6850   33.0420   46.1880 C   0  0  0  0  0  0  0  0  0  0  0  0
   44.9180   34.1710   46.2850 N   0  0  0  0  0  0  0  0  0  0  0  0
   44.1600   35.8060   45.3660 H   0  0  0  0  0  0  0  0  0  0  0  0
   46.6230   33.2540   42.9860 H   0  0  0  0  0  0  0  0  0  0  0  0
   47.3760   31.9550   47.6640 C   0  0  2  0  0  0  0  0  0  0  0  0
   45.8820   32.1290   47.3130 C   0  0  1  0  0  0  0  0  0  0  0  0
   45.4040   32.5800   48.5120 O   0  0  0  0  0  0  0  0  0  0  0  0
   45.9480   31.8020   49.4920 C   0  0  0  0  0  0  0  0  0  0  0  0
   47.1650   31.1010   48.9270 C   0  0  2  0  0  0  0  0  0  0  0  0
   47.9250   31.4370   46.8820 H   0  0  0  0  0  0  0  0  0  0  0  0
   45.5110   31.1180   47.0340 H   0  0  0  0  0  0  0  0  0  0  0  0
   46.3290   32.4950   50.2850 H   0  0  0  0  0  0  0  0  0  0  0  0
   45.2520   31.1310   49.9970 H   0  0  0  0  0  0  0  0  0  0  0  0
   46.8530   30.0900   48.5930 H   0  0  0  0  0  0  0  0  0  0  0  0
   47.8820   33.1430   48.0780 O   0  0  0  0  0  0  0  0  0  0  0  0
   47.2030   33.7140   48.4900 H   0  0  0  0  0  0  0  0  0  0  0  0
   48.2560   31.0980   49.7460 O   0  0  0  0  0  0  0  0  0  0  0  0
   49.0350   30.8530   49.2080 H   0  0  0  0  0  0  0  0  0  0  0  0
   45.1610   35.5680   42.8500 C   0  0  0  0  0  0  0  0  0  0  0  0
   45.3060   36.6050   43.1260 H   0  0  0  0  0  0  0  0  0  0  0  0
   45.9190   35.3330   42.0690 H   0  0  0  0  0  0  0  0  0  0  0  0
   43.8240   35.2860   42.2040 C   0  0  0  0  0  3  0  0  0  0  0  0
   43.7430   33.8360   41.7360 C   0  0  0  0  0  2  0  0  0  0  0  0
   43.2020   33.8690   40.3300 C   0  0  0  0  0  2  0  0  0  0  0  0
   42.5060   35.2160   40.2880 C   0  0  0  0  0  2  0  0  0  0  0  0
   43.5660   36.0950   40.9650 C   0  0  0  0  0  2  0  0  0  0  0  0
  1  7  1  0  0  0  0
  1  6  1  0  0  0  0
  2  1  2  0  0  0  0
  3  2  1  0  0  0  0
  3  4  2  0  0  0  0
  4  5  1  0  0  0  0
  5  6  2  0  0  0  0
  5 10  1  0  0  0  0
  8  3  1  0  0  0  0
  9 14  1  6  0  0  0
  9 19  1  0  0  0  0
  9 13  1  0  0  0  0
 10 15  1  6  0  0  0
 10  9  1  0  0  0  0
 10 11  1  0  0  0  0
 11 12  1  0  0  0  0
 12 17  1  0  0  0  0
 12 16  1  0  0  0  0
 13 18  1  6  0  0  0
 13 12  1  0  0  0  0
 13 21  1  0  0  0  0
 19 20  1  0  0  0  0
 22 21  1  0  0  0  0
 23 24  1  0  0  0  0
 23  2  1  0  0  0  0
 25 23  1  0  0  0  0
 26 23  1  0  0  0  0
 27 26  1  0  0  0  0
 28 27  1  0  0  0  0
 29 28  1  0  0  0  0
 29 30  1  0  0  0  0
 30 26  1  0  0  0  0
M  END
>  <minimizedAffinity>
-5.33969498

>  <minimizedRMSD>
0.633533597

$$$$
