
 OpenBabel03252507563D

 40 43  0  0  1  0  0  0  0  0999 V2000
   37.2660   30.4930   40.0110 C   0  0  2  0  0  0  0  0  0  0  0  0
   35.9740   30.5540   40.8240 C   0  0  0  0  0  0  0  0  0  0  0  0
   35.6310   29.0490   40.7620 C   0  0  0  0  0  0  0  0  0  0  0  0
   36.9520   28.3530   40.8700 C   0  0  1  0  0  0  0  0  0  0  0  0
   37.9930   29.4290   40.7880 C   0  0  0  0  0  0  0  0  0  0  0  0
   36.9930   30.1780   39.0060 H   0  0  0  0  0  0  0  0  0  0  0  0
   35.2080   31.1530   40.3410 H   0  0  0  0  0  0  0  0  0  0  0  0
   36.2470   30.8040   41.8480 H   0  0  0  0  0  0  0  0  0  0  0  0
   34.9300   28.8100   41.5790 H   0  0  0  0  0  0  0  0  0  0  0  0
   35.1810   28.9200   39.7610 H   0  0  0  0  0  0  0  0  0  0  0  0
   37.0380   27.6550   40.0100 H   0  0  0  0  0  0  0  0  0  0  0  0
   38.3710   29.7940   41.7400 H   0  0  0  0  0  0  0  0  0  0  0  0
   38.8140   29.0440   40.1180 H   0  0  0  0  0  0  0  0  0  0  0  0
   38.1180   34.1590   39.8600 C   0  0  0  0  0  0  0  0  0  0  0  0
   37.3380   33.0090   39.8310 C   0  0  0  0  0  0  0  0  0  0  0  0
   37.9880   31.7970   40.0410 C   0  0  0  0  0  0  0  0  0  0  0  0
   39.3710   31.7660   40.2710 N   0  0  0  0  0  0  0  0  0  0  0  0
   40.0790   32.9240   40.2870 C   0  0  0  0  0  0  0  0  0  0  0  0
   39.4520   34.1140   40.0820 N   0  0  0  0  0  0  0  0  0  0  0  0
   37.6390   35.1180   39.7000 H   0  0  0  0  0  0  0  0  0  0  0  0
   36.2730   33.0010   39.6570 H   0  0  0  0  0  0  0  0  0  0  0  0
   41.1360   32.7890   40.4710 H   0  0  0  0  0  0  0  0  0  0  0  0
   37.1700   27.6130   42.1690 C   0  0  2  0  0  0  0  0  0  0  0  0
   37.5500   28.4340   43.3130 C   0  0  0  0  0  0  0  0  0  0  0  0
   38.5040   27.4400   42.7460 C   0  0  1  0  0  0  0  0  0  0  0  0
   36.4420   26.8000   42.3370 H   0  0  0  0  0  0  0  0  0  0  0  0
   37.7590   29.5170   43.1540 H   0  0  0  0  0  0  0  0  0  0  0  0
   37.0750   28.2480   44.3010 H   0  0  0  0  0  0  0  0  0  0  0  0
   39.3890   27.7360   42.1500 H   0  0  0  0  0  0  0  0  0  0  0  0
   38.7420   26.2540   43.4840 O   0  0  0  0  0  0  0  0  0  0  0  0
   41.0410   25.7620   42.3540 O   0  0  0  0  0  0  0  0  0  0  0  0
   39.6460   25.2140   42.5210 P   0  0  1  0  0  0  0  0  0  0  0  0
   39.7800   23.6800   43.2750 O   0  0  0  0  0  0  0  0  0  0  0  0
   38.8890   23.2420   43.1240 H   0  0  0  0  0  0  0  0  0  0  0  0
   39.0000   24.9540   41.0120 O   0  0  0  0  0  0  0  0  0  0  0  0
   38.2030   23.7980   41.1010 C   0  0  0  0  0  3  0  0  0  0  0  0
   38.1990   23.0390   39.8000 C   0  0  0  0  0  2  0  0  0  0  0  0
   36.8020   23.2080   39.2340 C   0  0  0  0  0  2  0  0  0  0  0  0
   36.2240   24.3950   39.9700 C   0  0  0  0  0  2  0  0  0  0  0  0
   36.7560   24.1600   41.3670 C   0  0  0  0  0  2  0  0  0  0  0  0
  1  6  1  6  0  0  0
  1 16  1  0  0  0  0
  1  5  1  0  0  0  0
  1  2  1  0  0  0  0
  2  8  1  0  0  0  0
  3  2  1  0  0  0  0
  3  4  1  0  0  0  0
  3  9  1  0  0  0  0
  4 11  1  6  0  0  0
  4 23  1  0  0  0  0
  5  4  1  0  0  0  0
  5 12  1  0  0  0  0
  7  2  1  0  0  0  0
 10  3  1  0  0  0  0
 13  5  1  0  0  0  0
 14 19  1  0  0  0  0
 15 14  2  0  0  0  0
 15 16  1  0  0  0  0
 16 17  2  0  0  0  0
 17 18  1  0  0  0  0
 18 22  1  0  0  0  0
 19 18  2  0  0  0  0
 20 14  1  0  0  0  0
 21 15  1  0  0  0  0
 23 26  1  1  0  0  0
 23 25  1  0  0  0  0
 23 24  1  0  0  0  0
 24 28  1  0  0  0  0
 25 29  1  6  0  0  0
 25 24  1  0  0  0  0
 25 30  1  0  0  0  0
 27 24  1  0  0  0  0
 32 31  2  6  0  0  0
 32 33  1  0  0  0  0
 32 30  1  0  0  0  0
 34 33  1  0  0  0  0
 35 36  1  0  0  0  0
 35 32  1  0  0  0  0
 36 40  1  0  0  0  0
 37 36  1  0  0  0  0
 38 37  1  0  0  0  0
 38 39  1  0  0  0  0
 39 40  1  0  0  0  0
M  END
>  <minimizedAffinity>
-5.72156811

$$$$

 OpenBabel03252507563D

 40 43  0  0  1  0  0  0  0  0999 V2000
   37.3640   24.5850   40.2790 C   0  0  2  0  0  0  0  0  0  0  0  0
   36.9340   24.4350   41.7380 C   0  0  0  0  0  0  0  0  0  0  0  0
   38.2730   24.8570   42.3820 C   0  0  0  0  0  0  0  0  0  0  0  0
   38.7850   25.9590   41.5070 C   0  0  1  0  0  0  0  0  0  0  0  0
   37.8710   26.0010   40.3190 C   0  0  0  0  0  0  0  0  0  0  0  0
   38.1500   23.8540   40.1030 H   0  0  0  0  0  0  0  0  0  0  0  0
   36.6810   23.4100   41.9920 H   0  0  0  0  0  0  0  0  0  0  0  0
   36.1950   25.2080   41.9390 H   0  0  0  0  0  0  0  0  0  0  0  0
   38.0850   25.1630   43.4240 H   0  0  0  0  0  0  0  0  0  0  0  0
   38.9010   23.9510   42.3080 H   0  0  0  0  0  0  0  0  0  0  0  0
   39.8190   25.6940   41.2000 H   0  0  0  0  0  0  0  0  0  0  0  0
   37.0660   26.7300   40.3690 H   0  0  0  0  0  0  0  0  0  0  0  0
   38.5210   26.1380   39.4080 H   0  0  0  0  0  0  0  0  0  0  0  0
   34.7990   25.1350   37.5750 C   0  0  0  0  0  0  0  0  0  0  0  0
   35.9190   25.3700   38.3640 C   0  0  0  0  0  0  0  0  0  0  0  0
   36.2040   24.4340   39.3540 C   0  0  0  0  0  0  0  0  0  0  0  0
   35.3810   23.3120   39.5270 N   0  0  0  0  0  0  0  0  0  0  0  0
   34.3000   23.1380   38.7240 C   0  0  0  0  0  0  0  0  0  0  0  0
   34.0130   24.0480   37.7540 N   0  0  0  0  0  0  0  0  0  0  0  0
   34.5520   25.8460   36.7960 H   0  0  0  0  0  0  0  0  0  0  0  0
   36.5720   26.2220   38.2560 H   0  0  0  0  0  0  0  0  0  0  0  0
   33.7320   22.2440   38.9410 H   0  0  0  0  0  0  0  0  0  0  0  0
   38.7630   27.3290   42.1430 C   0  0  2  0  0  0  0  0  0  0  0  0
   38.5730   27.3570   43.5890 C   0  0  0  0  0  0  0  0  0  0  0  0
   37.5320   27.9130   42.6790 C   0  0  1  0  0  0  0  0  0  0  0  0
   39.5000   28.0260   41.7070 H   0  0  0  0  0  0  0  0  0  0  0  0
   38.3530   26.4030   44.1220 H   0  0  0  0  0  0  0  0  0  0  0  0
   39.1920   28.0410   44.2080 H   0  0  0  0  0  0  0  0  0  0  0  0
   36.5690   27.4000   42.4910 H   0  0  0  0  0  0  0  0  0  0  0  0
   37.3980   29.3220   42.6080 O   0  0  0  0  0  0  0  0  0  0  0  0
   35.5680   28.5620   40.9120 O   0  0  0  0  0  0  0  0  0  0  0  0
   36.5160   29.6920   41.2250 P   0  0  1  0  0  0  0  0  0  0  0  0
   35.5740   31.1010   41.4870 O   0  0  0  0  0  0  0  0  0  0  0  0
   36.2270   31.8600   41.4230 H   0  0  0  0  0  0  0  0  0  0  0  0
   37.4510   29.9810   39.8830 O   0  0  0  0  0  0  0  0  0  0  0  0
   36.6410   30.6650   38.9580 C   0  0  0  0  0  3  0  0  0  0  0  0
   36.4790   29.8730   37.6860 C   0  0  0  0  0  2  0  0  0  0  0  0
   37.2570   30.6340   36.6300 C   0  0  0  0  0  2  0  0  0  0  0  0
   38.1820   31.5430   37.4070 C   0  0  0  0  0  2  0  0  0  0  0  0
   37.2820   31.9740   38.5440 C   0  0  0  0  0  2  0  0  0  0  0  0
  1  6  1  6  0  0  0
  1  5  1  0  0  0  0
  1  2  1  0  0  0  0
  2  8  1  0  0  0  0
  2  7  1  0  0  0  0
  2  3  1  0  0  0  0
  3  9  1  0  0  0  0
  4 11  1  6  0  0  0
  4 23  1  0  0  0  0
  4  3  1  0  0  0  0
  5 12  1  0  0  0  0
  5  4  1  0  0  0  0
 10  3  1  0  0  0  0
 13  5  1  0  0  0  0
 14 19  2  0  0  0  0
 14 15  1  0  0  0  0
 15 16  2  0  0  0  0
 16 17  1  0  0  0  0
 16  1  1  0  0  0  0
 18 22  1  0  0  0  0
 18 17  2  0  0  0  0
 19 18  1  0  0  0  0
 20 14  1  0  0  0  0
 21 15  1  0  0  0  0
 23 26  1  6  0  0  0
 23 25  1  0  0  0  0
 23 24  1  0  0  0  0
 24 27  1  0  0  0  0
 24 28  1  0  0  0  0
 25 29  1  6  0  0  0
 25 24  1  0  0  0  0
 30 25  1  0  0  0  0
 32 31  2  6  0  0  0
 32 33  1  0  0  0  0
 32 30  1  0  0  0  0
 34 33  1  0  0  0  0
 35 32  1  0  0  0  0
 36 35  1  0  0  0  0
 37 36  1  0  0  0  0
 38 39  1  0  0  0  0
 38 37  1  0  0  0  0
 39 40  1  0  0  0  0
 40 36  1  0  0  0  0
M  END
>  <minimizedAffinity>
-5.68377256

$$$$

 OpenBabel03252507563D

 40 43  0  0  1  0  0  0  0  0999 V2000
   36.3550   31.0240   39.6520 C   0  0  2  0  0  0  0  0  0  0  0  0
   36.1700   29.9570   40.7300 C   0  0  0  0  0  0  0  0  0  0  0  0
   35.2180   29.0360   39.9330 C   0  0  0  0  0  0  0  0  0  0  0  0
   35.7310   29.0860   38.5270 C   0  0  1  0  0  0  0  0  0  0  0  0
   36.7910   30.1460   38.5110 C   0  0  0  0  0  0  0  0  0  0  0  0
   35.3830   31.4840   39.4910 H   0  0  0  0  0  0  0  0  0  0  0  0
   35.6860   30.3450   41.6200 H   0  0  0  0  0  0  0  0  0  0  0  0
   37.1240   29.4460   40.8480 H   0  0  0  0  0  0  0  0  0  0  0  0
   35.2380   28.0300   40.3820 H   0  0  0  0  0  0  0  0  0  0  0  0
   34.2330   29.5280   40.0260 H   0  0  0  0  0  0  0  0  0  0  0  0
   34.8820   29.3660   37.8670 H   0  0  0  0  0  0  0  0  0  0  0  0
   37.8130   29.7930   38.6240 H   0  0  0  0  0  0  0  0  0  0  0  0
   36.6440   30.7460   37.5670 H   0  0  0  0  0  0  0  0  0  0  0  0
   38.4010   34.1610   40.0670 C   0  0  0  0  0  0  0  0  0  0  0  0
   37.3470   33.3450   39.6700 C   0  0  0  0  0  0  0  0  0  0  0  0
   37.4120   32.0050   40.0370 C   0  0  0  0  0  0  0  0  0  0  0  0
   38.5030   31.5230   40.7730 N   0  0  0  0  0  0  0  0  0  0  0  0
   39.5030   32.3690   41.1310 C   0  0  0  0  0  0  0  0  0  0  0  0
   39.4480   33.6820   40.7770 N   0  0  0  0  0  0  0  0  0  0  0  0
   38.3780   35.2100   39.7960 H   0  0  0  0  0  0  0  0  0  0  0  0
   36.4940   33.6860   39.1040 H   0  0  0  0  0  0  0  0  0  0  0  0
   40.2960   31.8980   41.6950 H   0  0  0  0  0  0  0  0  0  0  0  0
   36.3680   27.8040   38.0430 C   0  0  2  0  0  0  0  0  0  0  0  0
   35.4890   26.6400   37.9840 C   0  0  0  0  0  0  0  0  0  0  0  0
   36.6270   26.6810   38.9460 C   0  0  1  0  0  0  0  0  0  0  0  0
   37.0800   27.9540   37.2130 H   0  0  0  0  0  0  0  0  0  0  0  0
   34.4540   26.7260   38.3870 H   0  0  0  0  0  0  0  0  0  0  0  0
   35.5330   25.9680   37.1010 H   0  0  0  0  0  0  0  0  0  0  0  0
   36.4820   26.8240   40.0340 H   0  0  0  0  0  0  0  0  0  0  0  0
   37.7580   25.8740   38.6690 O   0  0  0  0  0  0  0  0  0  0  0  0
   39.0460   24.8150   40.6750 O   0  0  0  0  0  0  0  0  0  0  0  0
   38.8740   26.1000   39.9060 P   0  0  1  0  0  0  0  0  0  0  0  0
   40.4020   26.5200   39.2510 O   0  0  0  0  0  0  0  0  0  0  0  0
   40.3120   27.4850   38.9900 H   0  0  0  0  0  0  0  0  0  0  0  0
   38.4630   27.3020   40.9770 O   0  0  0  0  0  0  0  0  0  0  0  0
   38.2740   26.6880   42.2290 C   0  0  0  0  0  3  0  0  0  0  0  0
   36.8090   26.5420   42.5490 C   0  0  0  0  0  2  0  0  0  0  0  0
   36.5390   27.5180   43.6780 C   0  0  0  0  0  2  0  0  0  0  0  0
   37.7040   28.4800   43.6500 C   0  0  0  0  0  2  0  0  0  0  0  0
   38.8510   27.5420   43.3400 C   0  0  0  0  0  2  0  0  0  0  0  0
  1  6  1  6  0  0  0
  1 16  1  0  0  0  0
  1  2  1  0  0  0  0
  2  8  1  0  0  0  0
  2  7  1  0  0  0  0
  3 10  1  0  0  0  0
  3  9  1  0  0  0  0
  3  2  1  0  0  0  0
  4 11  1  6  0  0  0
  4  3  1  0  0  0  0
  5  4  1  0  0  0  0
  5 12  1  0  0  0  0
  5  1  1  0  0  0  0
 13  5  1  0  0  0  0
 14 19  1  0  0  0  0
 15 16  1  0  0  0  0
 15 14  2  0  0  0  0
 16 17  2  0  0  0  0
 17 18  1  0  0  0  0
 18 22  1  0  0  0  0
 19 18  2  0  0  0  0
 20 14  1  0  0  0  0
 21 15  1  0  0  0  0
 23 26  1  6  0  0  0
 23  4  1  0  0  0  0
 23 25  1  0  0  0  0
 24 23  1  0  0  0  0
 24 27  1  0  0  0  0
 24 25  1  0  0  0  0
 25 29  1  1  0  0  0
 28 24  1  0  0  0  0
 30 25  1  0  0  0  0
 30 32  1  0  0  0  0
 32 31  2  1  0  0  0
 32 35  1  0  0  0  0
 33 32  1  0  0  0  0
 34 33  1  0  0  0  0
 35 36  1  0  0  0  0
 36 37  1  0  0  0  0
 36 40  1  0  0  0  0
 37 38  1  0  0  0  0
 39 38  1  0  0  0  0
 40 39  1  0  0  0  0
M  END
>  <minimizedAffinity>
-5.62173128

$$$$

 OpenBabel03252507563D

 40 43  0  0  1  0  0  0  0  0999 V2000
   36.0680   25.8090   38.4330 C   0  0  2  0  0  0  0  0  0  0  0  0
   36.7200   26.1380   37.0910 C   0  0  0  0  0  0  0  0  0  0  0  0
   35.6090   27.0670   36.5530 C   0  0  0  0  0  0  0  0  0  0  0  0
   35.1410   27.8320   37.7520 C   0  0  1  0  0  0  0  0  0  0  0  0
   35.8220   27.2070   38.9330 C   0  0  0  0  0  0  0  0  0  0  0  0
   35.1520   25.2650   38.2150 H   0  0  0  0  0  0  0  0  0  0  0  0
   36.8390   25.2610   36.4610 H   0  0  0  0  0  0  0  0  0  0  0  0
   37.6030   26.7400   37.2980 H   0  0  0  0  0  0  0  0  0  0  0  0
   36.0290   27.6980   35.7540 H   0  0  0  0  0  0  0  0  0  0  0  0
   34.8340   26.3690   36.1860 H   0  0  0  0  0  0  0  0  0  0  0  0
   34.0390   27.7120   37.8220 H   0  0  0  0  0  0  0  0  0  0  0  0
   36.7330   27.6970   39.2650 H   0  0  0  0  0  0  0  0  0  0  0  0
   35.0520   27.1260   39.7530 H   0  0  0  0  0  0  0  0  0  0  0  0
   37.5090   23.5220   41.0570 C   0  0  0  0  0  0  0  0  0  0  0  0
   36.5480   24.1490   40.2720 C   0  0  0  0  0  0  0  0  0  0  0  0
   37.0010   25.0560   39.3190 C   0  0  0  0  0  0  0  0  0  0  0  0
   38.3730   25.3100   39.1780 N   0  0  0  0  0  0  0  0  0  0  0  0
   39.2640   24.6660   39.9750 C   0  0  0  0  0  0  0  0  0  0  0  0
   38.8300   23.7770   40.9090 N   0  0  0  0  0  0  0  0  0  0  0  0
   37.1860   22.8100   41.8070 H   0  0  0  0  0  0  0  0  0  0  0  0
   35.4860   23.9750   40.3560 H   0  0  0  0  0  0  0  0  0  0  0  0
   40.2940   24.9330   39.7860 H   0  0  0  0  0  0  0  0  0  0  0  0
   35.5070   29.2980   37.7450 C   0  0  2  0  0  0  0  0  0  0  0  0
   36.5850   29.6800   36.8380 C   0  0  0  0  0  0  0  0  0  0  0  0
   36.7650   29.7840   38.3140 C   0  0  1  0  0  0  0  0  0  0  0  0
   34.6330   29.9680   37.8170 H   0  0  0  0  0  0  0  0  0  0  0  0
   37.1390   28.8820   36.2930 H   0  0  0  0  0  0  0  0  0  0  0  0
   36.4810   30.6010   36.2250 H   0  0  0  0  0  0  0  0  0  0  0  0
   37.4010   29.0820   38.8870 H   0  0  0  0  0  0  0  0  0  0  0  0
   36.7580   31.0770   38.8930 O   0  0  0  0  0  0  0  0  0  0  0  0
   38.0130   31.9680   40.9990 O   0  0  0  0  0  0  0  0  0  0  0  0
   37.0400   30.9110   40.5420 P   0  0  1  0  0  0  0  0  0  0  0  0
   35.5810   31.1360   41.4150 O   0  0  0  0  0  0  0  0  0  0  0  0
   35.0740   30.2800   41.2900 H   0  0  0  0  0  0  0  0  0  0  0  0
   37.6370   29.4230   40.9800 O   0  0  0  0  0  0  0  0  0  0  0  0
   37.1730   29.1620   42.2820 C   0  0  0  0  0  3  0  0  0  0  0  0
   38.3130   29.0980   43.2650 C   0  0  0  0  0  2  0  0  0  0  0  0
   38.4180   27.6420   43.6740 C   0  0  0  0  0  2  0  0  0  0  0  0
   37.6690   26.8810   42.6050 C   0  0  0  0  0  2  0  0  0  0  0  0
   36.4990   27.8060   42.3520 C   0  0  0  0  0  2  0  0  0  0  0  0
  1  6  1  6  0  0  0
  1  5  1  0  0  0  0
  1 16  1  0  0  0  0
  2  8  1  0  0  0  0
  2  1  1  0  0  0  0
  3  2  1  0  0  0  0
  3  4  1  0  0  0  0
  4 11  1  1  0  0  0
  4  5  1  0  0  0  0
  5 12  1  0  0  0  0
  5 13  1  0  0  0  0
  7  2  1  0  0  0  0
  9  3  1  0  0  0  0
 10  3  1  0  0  0  0
 14 20  1  0  0  0  0
 15 21  1  0  0  0  0
 15 14  2  0  0  0  0
 16 15  1  0  0  0  0
 17 16  2  0  0  0  0
 17 18  1  0  0  0  0
 18 19  2  0  0  0  0
 19 14  1  0  0  0  0
 22 18  1  0  0  0  0
 23  4  1  0  0  0  0
 23 26  1  1  0  0  0
 23 25  1  0  0  0  0
 24 23  1  0  0  0  0
 24 25  1  0  0  0  0
 25 29  1  1  0  0  0
 25 30  1  0  0  0  0
 27 24  1  0  0  0  0
 28 24  1  0  0  0  0
 30 32  1  0  0  0  0
 32 35  1  0  0  0  0
 32 31  2  1  0  0  0
 32 33  1  0  0  0  0
 34 33  1  0  0  0  0
 35 36  1  0  0  0  0
 36 40  1  0  0  0  0
 36 37  1  0  0  0  0
 37 38  1  0  0  0  0
 39 38  1  0  0  0  0
 40 39  1  0  0  0  0
M  END
>  <minimizedAffinity>
-5.60596228

$$$$

 OpenBabel03252507563D

 40 43  0  0  1  0  0  0  0  0999 V2000
   37.6590   26.7270   42.0280 C   0  0  2  0  0  0  0  0  0  0  0  0
   36.7300   27.8980   42.3500 C   0  0  0  0  0  0  0  0  0  0  0  0
   37.7440   28.7350   43.1620 C   0  0  0  0  0  0  0  0  0  0  0  0
   39.0490   28.5440   42.4530 C   0  0  1  0  0  0  0  0  0  0  0  0
   38.8060   27.4870   41.4180 C   0  0  0  0  0  0  0  0  0  0  0  0
   37.9130   26.2550   42.9740 H   0  0  0  0  0  0  0  0  0  0  0  0
   35.8850   27.6010   42.9630 H   0  0  0  0  0  0  0  0  0  0  0  0
   36.5250   28.4160   41.4160 H   0  0  0  0  0  0  0  0  0  0  0  0
   37.3980   29.7810   43.1920 H   0  0  0  0  0  0  0  0  0  0  0  0
   37.7470   28.2560   44.1580 H   0  0  0  0  0  0  0  0  0  0  0  0
   39.7940   28.2000   43.2010 H   0  0  0  0  0  0  0  0  0  0  0  0
   38.5810   27.8480   40.4180 H   0  0  0  0  0  0  0  0  0  0  0  0
   39.6970   26.7950   41.4370 H   0  0  0  0  0  0  0  0  0  0  0  0
   36.2160   23.6700   40.3660 C   0  0  0  0  0  0  0  0  0  0  0  0
   36.7860   24.4550   41.3620 C   0  0  0  0  0  0  0  0  0  0  0  0
   37.0300   25.7890   41.0530 C   0  0  0  0  0  0  0  0  0  0  0  0
   36.7050   26.2950   39.7860 N   0  0  0  0  0  0  0  0  0  0  0  0
   36.1500   25.4780   38.8550 C   0  0  0  0  0  0  0  0  0  0  0  0
   35.9080   24.1710   39.1480 N   0  0  0  0  0  0  0  0  0  0  0  0
   36.0140   22.6260   40.5780 H   0  0  0  0  0  0  0  0  0  0  0  0
   37.0460   24.0950   42.3450 H   0  0  0  0  0  0  0  0  0  0  0  0
   35.9400   25.9650   37.9130 H   0  0  0  0  0  0  0  0  0  0  0  0
   39.5590   29.7700   41.7330 C   0  0  2  0  0  0  0  0  0  0  0  0
   40.1850   30.7860   42.5730 C   0  0  0  0  0  0  0  0  0  0  0  0
   38.9050   31.0730   41.8660 C   0  0  1  0  0  0  0  0  0  0  0  0
   40.0300   29.5440   40.7610 H   0  0  0  0  0  0  0  0  0  0  0  0
   40.1610   30.6600   43.6800 H   0  0  0  0  0  0  0  0  0  0  0  0
   41.1270   31.2700   42.2340 H   0  0  0  0  0  0  0  0  0  0  0  0
   37.9340   31.1340   42.3950 H   0  0  0  0  0  0  0  0  0  0  0  0
   38.9460   31.9380   40.7440 O   0  0  0  0  0  0  0  0  0  0  0  0
   36.4250   31.3240   41.0090 O   0  0  0  0  0  0  0  0  0  0  0  0
   37.4000   32.0130   40.0880 P   0  0  1  0  0  0  0  0  0  0  0  0
   36.9030   33.6480   39.9370 O   0  0  0  0  0  0  0  0  0  0  0  0
   37.3950   33.9910   39.1330 H   0  0  0  0  0  0  0  0  0  0  0  0
   37.2700   31.3300   38.5800 O   0  0  0  0  0  0  0  0  0  0  0  0
   37.1210   29.9440   38.7690 C   0  0  0  0  0  3  0  0  0  0  0  0
   38.2870   29.1860   38.1890 C   0  0  0  0  0  2  0  0  0  0  0  0
   37.7380   28.4550   36.9790 C   0  0  0  0  0  2  0  0  0  0  0  0
   36.4420   29.1610   36.6520 C   0  0  0  0  0  2  0  0  0  0  0  0
   35.8970   29.4290   38.0380 C   0  0  0  0  0  2  0  0  0  0  0  0
  1  2  1  0  0  0  0
  1  6  1  1  0  0  0
  2  7  1  0  0  0  0
  2  3  1  0  0  0  0
  3  9  1  0  0  0  0
  3 10  1  0  0  0  0
  4  3  1  0  0  0  0
  4 11  1  1  0  0  0
  5 13  1  0  0  0  0
  5  1  1  0  0  0  0
  5  4  1  0  0  0  0
  8  2  1  0  0  0  0
 12  5  1  0  0  0  0
 14 20  1  0  0  0  0
 14 15  1  0  0  0  0
 15 21  1  0  0  0  0
 16 15  2  0  0  0  0
 16  1  1  0  0  0  0
 17 16  1  0  0  0  0
 18 19  1  0  0  0  0
 18 17  2  0  0  0  0
 19 14  2  0  0  0  0
 22 18  1  0  0  0  0
 23 26  1  6  0  0  0
 23 25  1  0  0  0  0
 23  4  1  0  0  0  0
 23 24  1  0  0  0  0
 24 27  1  0  0  0  0
 25 29  1  1  0  0  0
 25 24  1  0  0  0  0
 28 24  1  0  0  0  0
 30 25  1  0  0  0  0
 32 30  1  0  0  0  0
 32 31  2  1  0  0  0
 33 32  1  0  0  0  0
 34 33  1  0  0  0  0
 35 36  1  0  0  0  0
 35 32  1  0  0  0  0
 37 36  1  0  0  0  0
 38 37  1  0  0  0  0
 39 38  1  0  0  0  0
 39 40  1  0  0  0  0
 40 36  1  0  0  0  0
M  END
>  <minimizedAffinity>
-5.53026772

$$$$

 OpenBabel03252507563D

 40 43  0  0  1  0  0  0  0  0999 V2000
   36.6200   29.0810   39.9470 C   0  0  2  0  0  0  0  0  0  0  0  0
   37.9360   29.3520   39.2180 C   0  0  0  0  0  0  0  0  0  0  0  0
   37.5380   30.7060   38.5890 C   0  0  0  0  0  0  0  0  0  0  0  0
   36.7160   31.3850   39.6400 C   0  0  1  0  0  0  0  0  0  0  0  0
   36.5000   30.3670   40.7190 C   0  0  0  0  0  0  0  0  0  0  0  0
   35.8540   28.9670   39.1830 H   0  0  0  0  0  0  0  0  0  0  0  0
   38.1480   28.6110   38.4540 H   0  0  0  0  0  0  0  0  0  0  0  0
   38.6950   29.5340   39.9770 H   0  0  0  0  0  0  0  0  0  0  0  0
   38.4540   31.2530   38.3140 H   0  0  0  0  0  0  0  0  0  0  0  0
   36.9280   30.4230   37.7130 H   0  0  0  0  0  0  0  0  0  0  0  0
   35.7510   31.6810   39.1770 H   0  0  0  0  0  0  0  0  0  0  0  0
   37.1890   30.4140   41.5580 H   0  0  0  0  0  0  0  0  0  0  0  0
   35.4220   30.4500   41.0410 H   0  0  0  0  0  0  0  0  0  0  0  0
   36.7490   26.8350   42.9690 C   0  0  0  0  0  0  0  0  0  0  0  0
   36.6030   28.0030   42.2280 C   0  0  0  0  0  0  0  0  0  0  0  0
   36.7330   27.8980   40.8470 C   0  0  0  0  0  0  0  0  0  0  0  0
   37.0010   26.6560   40.2530 N   0  0  0  0  0  0  0  0  0  0  0  0
   37.1340   25.5510   41.0300 C   0  0  0  0  0  0  0  0  0  0  0  0
   37.0080   25.6440   42.3820 N   0  0  0  0  0  0  0  0  0  0  0  0
   36.6530   26.8870   44.0460 H   0  0  0  0  0  0  0  0  0  0  0  0
   36.3960   28.9720   42.6560 H   0  0  0  0  0  0  0  0  0  0  0  0
   37.3400   24.6460   40.4740 H   0  0  0  0  0  0  0  0  0  0  0  0
   37.3770   32.5850   40.2790 C   0  0  2  0  0  0  0  0  0  0  0  0
   37.3310   33.8230   39.5070 C   0  0  0  0  0  0  0  0  0  0  0  0
   38.6300   33.1410   39.7660 C   0  0  1  0  0  0  0  0  0  0  0  0
   37.2080   32.6500   41.3680 H   0  0  0  0  0  0  0  0  0  0  0  0
   36.9180   33.7970   38.4720 H   0  0  0  0  0  0  0  0  0  0  0  0
   37.0930   34.7780   40.0220 H   0  0  0  0  0  0  0  0  0  0  0  0
   39.1800   32.5880   38.9790 H   0  0  0  0  0  0  0  0  0  0  0  0
   39.5120   33.7290   40.7060 O   0  0  0  0  0  0  0  0  0  0  0  0
   41.5560   33.3340   39.1350 O   0  0  0  0  0  0  0  0  0  0  0  0
   41.0260   33.0250   40.5130 P   0  0  1  0  0  0  0  0  0  0  0  0
   42.1300   33.6780   41.6510 O   0  0  0  0  0  0  0  0  0  0  0  0
   41.8970   33.2310   42.5190 H   0  0  0  0  0  0  0  0  0  0  0  0
   41.0380   31.3770   40.7230 O   0  0  0  0  0  0  0  0  0  0  0  0
   41.0160   31.1400   42.1090 C   0  0  0  0  0  3  0  0  0  0  0  0
   42.1160   30.1940   42.5180 C   0  0  0  0  0  2  0  0  0  0  0  0
   41.4200   28.9060   42.9110 C   0  0  0  0  0  2  0  0  0  0  0  0
   40.0430   29.0020   42.2960 C   0  0  0  0  0  2  0  0  0  0  0  0
   39.7240   30.4640   42.5200 C   0  0  0  0  0  2  0  0  0  0  0  0
  1  6  1  6  0  0  0
  1  5  1  0  0  0  0
  1 16  1  0  0  0  0
  2  1  1  0  0  0  0
  2  8  1  0  0  0  0
  3  2  1  0  0  0  0
  3  4  1  0  0  0  0
  4 11  1  6  0  0  0
  4 23  1  0  0  0  0
  4  5  1  0  0  0  0
  5 13  1  0  0  0  0
  5 12  1  0  0  0  0
  7  2  1  0  0  0  0
  9  3  1  0  0  0  0
 10  3  1  0  0  0  0
 14 20  1  0  0  0  0
 15 21  1  0  0  0  0
 15 14  2  0  0  0  0
 16 15  1  0  0  0  0
 17 16  2  0  0  0  0
 17 18  1  0  0  0  0
 18 19  2  0  0  0  0
 19 14  1  0  0  0  0
 22 18  1  0  0  0  0
 23 26  1  1  0  0  0
 24 25  1  0  0  0  0
 24 28  1  0  0  0  0
 24 23  1  0  0  0  0
 25 29  1  6  0  0  0
 25 23  1  0  0  0  0
 25 30  1  0  0  0  0
 27 24  1  0  0  0  0
 32 31  2  6  0  0  0
 32 30  1  0  0  0  0
 32 35  1  0  0  0  0
 32 33  1  0  0  0  0
 33 34  1  0  0  0  0
 35 36  1  0  0  0  0
 36 37  1  0  0  0  0
 36 40  1  0  0  0  0
 37 38  1  0  0  0  0
 39 40  1  0  0  0  0
 39 38  1  0  0  0  0
M  END
>  <minimizedAffinity>
-5.31682539

$$$$

 OpenBabel03252507563D

 40 43  0  0  1  0  0  0  0  0999 V2000
   36.7070   29.1700   37.8880 C   0  0  2  0  0  0  0  0  0  0  0  0
   38.2070   29.4640   37.8980 C   0  0  0  0  0  0  0  0  0  0  0  0
   38.1070   30.9990   37.7460 C   0  0  0  0  0  0  0  0  0  0  0  0
   36.9170   31.3850   38.5680 C   0  0  1  0  0  0  0  0  0  0  0  0
   36.2690   30.1000   38.9860 C   0  0  0  0  0  0  0  0  0  0  0  0
   36.3340   29.4600   36.9080 H   0  0  0  0  0  0  0  0  0  0  0  0
   38.7230   29.0180   37.0540 H   0  0  0  0  0  0  0  0  0  0  0  0
   38.5740   29.2400   38.8970 H   0  0  0  0  0  0  0  0  0  0  0  0
   39.0530   31.4510   38.0860 H   0  0  0  0  0  0  0  0  0  0  0  0
   37.9250   31.1470   36.6670 H   0  0  0  0  0  0  0  0  0  0  0  0
   36.2370   31.9780   37.9200 H   0  0  0  0  0  0  0  0  0  0  0  0
   36.5390   29.7350   39.9740 H   0  0  0  0  0  0  0  0  0  0  0  0
   35.1560   30.2380   38.8680 H   0  0  0  0  0  0  0  0  0  0  0  0
   36.7020   25.7730   39.5170 C   0  0  0  0  0  0  0  0  0  0  0  0
   37.0150   27.1130   39.3170 C   0  0  0  0  0  0  0  0  0  0  0  0
   36.4320   27.7430   38.2220 C   0  0  0  0  0  0  0  0  0  0  0  0
   35.5710   27.0340   37.3720 N   0  0  0  0  0  0  0  0  0  0  0  0
   35.3040   25.7260   37.6200 C   0  0  0  0  0  0  0  0  0  0  0  0
   35.8690   25.1020   38.6890 N   0  0  0  0  0  0  0  0  0  0  0  0
   37.1410   25.2570   40.3620 H   0  0  0  0  0  0  0  0  0  0  0  0
   37.6740   27.6850   39.9520 H   0  0  0  0  0  0  0  0  0  0  0  0
   34.6300   25.2730   36.9060 H   0  0  0  0  0  0  0  0  0  0  0  0
   37.2440   32.1560   39.8250 C   0  0  2  0  0  0  0  0  0  0  0  0
   37.5570   33.5700   39.6420 C   0  0  0  0  0  0  0  0  0  0  0  0
   38.6020   32.6190   40.1170 C   0  0  1  0  0  0  0  0  0  0  0  0
   36.6140   31.8760   40.6870 H   0  0  0  0  0  0  0  0  0  0  0  0
   37.6420   33.9730   38.6060 H   0  0  0  0  0  0  0  0  0  0  0  0
   37.1280   34.3190   40.3410 H   0  0  0  0  0  0  0  0  0  0  0  0
   39.4350   32.2780   39.4720 H   0  0  0  0  0  0  0  0  0  0  0  0
   38.9860   32.6840   41.4800 O   0  0  0  0  0  0  0  0  0  0  0  0
   40.2850   30.6320   40.5280 O   0  0  0  0  0  0  0  0  0  0  0  0
   39.9510   31.3480   41.8130 P   0  0  1  0  0  0  0  0  0  0  0  0
   41.4270   31.8510   42.5250 O   0  0  0  0  0  0  0  0  0  0  0  0
   41.1910   32.0710   43.4750 H   0  0  0  0  0  0  0  0  0  0  0  0
   39.2590   30.2570   42.8580 O   0  0  0  0  0  0  0  0  0  0  0  0
   38.6350   29.2730   42.0690 C   0  0  0  0  0  3  0  0  0  0  0  0
   37.1620   29.1870   42.3690 C   0  0  0  0  0  2  0  0  0  0  0  0
   36.9670   27.8620   43.0800 C   0  0  0  0  0  2  0  0  0  0  0  0
   38.3460   27.4670   43.5550 C   0  0  0  0  0  2  0  0  0  0  0  0
   39.1950   27.8990   42.3790 C   0  0  0  0  0  2  0  0  0  0  0  0
  1  6  1  6  0  0  0
  1  2  1  0  0  0  0
  1 16  1  0  0  0  0
  1  5  1  0  0  0  0
  2  8  1  0  0  0  0
  3  2  1  0  0  0  0
  3  9  1  0  0  0  0
  3  4  1  0  0  0  0
  4 11  1  6  0  0  0
  4  5  1  0  0  0  0
  4 23  1  0  0  0  0
  5 12  1  0  0  0  0
  7  2  1  0  0  0  0
 10  3  1  0  0  0  0
 13  5  1  0  0  0  0
 14 20  1  0  0  0  0
 15 14  1  0  0  0  0
 15 21  1  0  0  0  0
 16 15  2  0  0  0  0
 17 18  2  0  0  0  0
 17 16  1  0  0  0  0
 18 19  1  0  0  0  0
 19 14  2  0  0  0  0
 22 18  1  0  0  0  0
 23 25  1  0  0  0  0
 23 26  1  1  0  0  0
 24 23  1  0  0  0  0
 24 25  1  0  0  0  0
 24 28  1  0  0  0  0
 25 29  1  6  0  0  0
 25 30  1  0  0  0  0
 27 24  1  0  0  0  0
 30 32  1  0  0  0  0
 32 31  2  6  0  0  0
 32 33  1  0  0  0  0
 32 35  1  0  0  0  0
 33 34  1  0  0  0  0
 36 37  1  0  0  0  0
 36 40  1  0  0  0  0
 36 35  1  0  0  0  0
 37 38  1  0  0  0  0
 38 39  1  0  0  0  0
 40 39  1  0  0  0  0
M  END
>  <minimizedAffinity>
-5.28162384

$$$$

 OpenBabel03252507563D

 40 43  0  0  1  0  0  0  0  0999 V2000
   36.9270   29.1840   41.9610 C   0  0  2  0  0  0  0  0  0  0  0  0
   37.7840   28.7840   43.1620 C   0  0  0  0  0  0  0  0  0  0  0  0
   37.1640   27.3870   43.3890 C   0  0  0  0  0  0  0  0  0  0  0  0
   36.9050   26.8580   42.0130 C   0  0  1  0  0  0  0  0  0  0  0  0
   37.1800   27.9940   41.0750 C   0  0  0  0  0  0  0  0  0  0  0  0
   35.9000   29.2460   42.3120 H   0  0  0  0  0  0  0  0  0  0  0  0
   37.6230   29.4290   44.0200 H   0  0  0  0  0  0  0  0  0  0  0  0
   38.8030   28.6540   42.8040 H   0  0  0  0  0  0  0  0  0  0  0  0
   37.8680   26.7770   43.9790 H   0  0  0  0  0  0  0  0  0  0  0  0
   36.2230   27.5980   43.9290 H   0  0  0  0  0  0  0  0  0  0  0  0
   35.8380   26.5530   41.9620 H   0  0  0  0  0  0  0  0  0  0  0  0
   38.1710   28.0100   40.6300 H   0  0  0  0  0  0  0  0  0  0  0  0
   36.3600   27.9890   40.3010 H   0  0  0  0  0  0  0  0  0  0  0  0
   37.1850   32.3750   39.9760 C   0  0  0  0  0  0  0  0  0  0  0  0
   36.6160   31.2250   40.5100 C   0  0  0  0  0  0  0  0  0  0  0  0
   37.4150   30.4520   41.3460 C   0  0  0  0  0  0  0  0  0  0  0  0
   38.7350   30.8380   41.6210 N   0  0  0  0  0  0  0  0  0  0  0  0
   39.2350   31.9730   41.0690 C   0  0  0  0  0  0  0  0  0  0  0  0
   38.4600   32.7360   40.2510 N   0  0  0  0  0  0  0  0  0  0  0  0
   36.5870   32.9980   39.3220 H   0  0  0  0  0  0  0  0  0  0  0  0
   35.6040   30.9010   40.3170 H   0  0  0  0  0  0  0  0  0  0  0  0
   40.2600   32.1800   41.3440 H   0  0  0  0  0  0  0  0  0  0  0  0
   37.7960   25.7090   41.6020 C   0  0  2  0  0  0  0  0  0  0  0  0
   37.4000   24.3910   42.0900 C   0  0  0  0  0  0  0  0  0  0  0  0
   38.6650   25.0240   42.5610 C   0  0  1  0  0  0  0  0  0  0  0  0
   38.1590   25.7850   40.5630 H   0  0  0  0  0  0  0  0  0  0  0  0
   36.5500   24.3150   42.8060 H   0  0  0  0  0  0  0  0  0  0  0  0
   37.4380   23.5210   41.4010 H   0  0  0  0  0  0  0  0  0  0  0  0
   38.7770   25.4440   43.5790 H   0  0  0  0  0  0  0  0  0  0  0  0
   39.8880   24.5040   42.0710 O   0  0  0  0  0  0  0  0  0  0  0  0
   40.6330   26.4170   43.6790 O   0  0  0  0  0  0  0  0  0  0  0  0
   41.1250   25.5310   42.5630 P   0  0  1  0  0  0  0  0  0  0  0  0
   42.4430   24.6170   43.1710 O   0  0  0  0  0  0  0  0  0  0  0  0
   42.9010   24.2560   42.3540 H   0  0  0  0  0  0  0  0  0  0  0  0
   41.7260   26.4960   41.3520 O   0  0  0  0  0  0  0  0  0  0  0  0
   40.9490   27.6690   41.3380 C   0  0  0  0  0  3  0  0  0  0  0  0
   40.3710   27.9230   39.9710 C   0  0  0  0  0  2  0  0  0  0  0  0
   41.1030   29.1400   39.4390 C   0  0  0  0  0  2  0  0  0  0  0  0
   42.3450   29.2520   40.2910 C   0  0  0  0  0  2  0  0  0  0  0  0
   41.8000   28.8820   41.6540 C   0  0  0  0  0  2  0  0  0  0  0  0
  1  6  1  1  0  0  0
  1  2  1  0  0  0  0
  2  3  1  0  0  0  0
  2  7  1  0  0  0  0
  3 10  1  0  0  0  0
  3  9  1  0  0  0  0
  4 11  1  6  0  0  0
  4  3  1  0  0  0  0
  5  1  1  0  0  0  0
  5  4  1  0  0  0  0
  8  2  1  0  0  0  0
 12  5  1  0  0  0  0
 13  5  1  0  0  0  0
 14 19  2  0  0  0  0
 14 15  1  0  0  0  0
 15 16  2  0  0  0  0
 16 17  1  0  0  0  0
 16  1  1  0  0  0  0
 18 22  1  0  0  0  0
 18 17  2  0  0  0  0
 19 18  1  0  0  0  0
 20 14  1  0  0  0  0
 21 15  1  0  0  0  0
 23 26  1  6  0  0  0
 23  4  1  0  0  0  0
 23 24  1  0  0  0  0
 23 25  1  0  0  0  0
 24 25  1  0  0  0  0
 24 27  1  0  0  0  0
 25 29  1  1  0  0  0
 28 24  1  0  0  0  0
 30 25  1  0  0  0  0
 30 32  1  0  0  0  0
 32 33  1  0  0  0  0
 32 31  2  1  0  0  0
 34 33  1  0  0  0  0
 35 32  1  0  0  0  0
 36 35  1  0  0  0  0
 36 40  1  0  0  0  0
 37 36  1  0  0  0  0
 38 37  1  0  0  0  0
 38 39  1  0  0  0  0
 39 40  1  0  0  0  0
M  END
>  <minimizedAffinity>
-5.27980852

$$$$

 OpenBabel03252507563D

 40 43  0  0  1  0  0  0  0  0999 V2000
   37.7130   28.3680   42.4930 C   0  0  2  0  0  0  0  0  0  0  0  0
   37.1270   27.5020   41.3790 C   0  0  0  0  0  0  0  0  0  0  0  0
   35.8490   28.3360   41.1330 C   0  0  0  0  0  0  0  0  0  0  0  0
   36.2890   29.7590   41.2890 C   0  0  1  0  0  0  0  0  0  0  0  0
   37.6970   29.7030   41.7990 C   0  0  0  0  0  0  0  0  0  0  0  0
   37.0230   28.3140   43.3320 H   0  0  0  0  0  0  0  0  0  0  0  0
   36.8830   26.5000   41.7160 H   0  0  0  0  0  0  0  0  0  0  0  0
   37.7770   27.6050   40.5120 H   0  0  0  0  0  0  0  0  0  0  0  0
   35.4550   28.0960   40.1320 H   0  0  0  0  0  0  0  0  0  0  0  0
   35.1700   28.0270   41.9470 H   0  0  0  0  0  0  0  0  0  0  0  0
   35.6190   30.2410   42.0320 H   0  0  0  0  0  0  0  0  0  0  0  0
   38.4760   29.7890   41.0460 H   0  0  0  0  0  0  0  0  0  0  0  0
   37.7880   30.4870   42.6050 H   0  0  0  0  0  0  0  0  0  0  0  0
   40.6960   26.3960   43.6780 C   0  0  0  0  0  0  0  0  0  0  0  0
   39.3700   26.6780   43.3690 C   0  0  0  0  0  0  0  0  0  0  0  0
   39.0970   27.9370   42.8430 C   0  0  0  0  0  0  0  0  0  0  0  0
   40.1320   28.8620   42.6440 N   0  0  0  0  0  0  0  0  0  0  0  0
   41.4080   28.5270   42.9660 C   0  0  0  0  0  0  0  0  0  0  0  0
   41.6840   27.2980   43.4810 N   0  0  0  0  0  0  0  0  0  0  0  0
   40.9390   25.4230   44.0890 H   0  0  0  0  0  0  0  0  0  0  0  0
   38.5520   25.9890   43.5110 H   0  0  0  0  0  0  0  0  0  0  0  0
   42.1290   29.3100   42.7740 H   0  0  0  0  0  0  0  0  0  0  0  0
   36.3060   30.5570   40.0060 C   0  0  2  0  0  0  0  0  0  0  0  0
   35.9750   29.8170   38.7920 C   0  0  0  0  0  0  0  0  0  0  0  0
   37.3450   30.3690   38.9920 C   0  0  1  0  0  0  0  0  0  0  0  0
   35.8930   31.5740   40.1170 H   0  0  0  0  0  0  0  0  0  0  0  0
   35.8360   28.7130   38.8550 H   0  0  0  0  0  0  0  0  0  0  0  0
   35.2950   30.2750   38.0420 H   0  0  0  0  0  0  0  0  0  0  0  0
   38.2160   29.7280   39.2290 H   0  0  0  0  0  0  0  0  0  0  0  0
   37.7200   31.5020   38.2290 O   0  0  0  0  0  0  0  0  0  0  0  0
   39.8940   30.0900   37.9390 O   0  0  0  0  0  0  0  0  0  0  0  0
   39.3960   31.5050   38.0910 P   0  0  1  0  0  0  0  0  0  0  0  0
   39.8700   32.3730   36.6900 O   0  0  0  0  0  0  0  0  0  0  0  0
   39.7660   33.3400   36.9410 H   0  0  0  0  0  0  0  0  0  0  0  0
   40.1800   32.2030   39.3780 O   0  0  0  0  0  0  0  0  0  0  0  0
   41.2860   32.8990   38.8570 C   0  0  0  0  0  3  0  0  0  0  0  0
   42.5440   32.0750   38.9530 C   0  0  0  0  0  2  0  0  0  0  0  0
   43.3970   32.7540   40.0070 C   0  0  0  0  0  2  0  0  0  0  0  0
   42.4390   33.6350   40.7750 C   0  0  0  0  0  2  0  0  0  0  0  0
   41.5590   34.1550   39.6590 C   0  0  0  0  0  2  0  0  0  0  0  0
  1 16  1  0  0  0  0
  1  6  1  1  0  0  0
  2  7  1  0  0  0  0
  2  1  1  0  0  0  0
  3  4  1  0  0  0  0
  3  2  1  0  0  0  0
  3 10  1  0  0  0  0
  4  5  1  0  0  0  0
  4 11  1  1  0  0  0
  5  1  1  0  0  0  0
  5 13  1  0  0  0  0
  8  2  1  0  0  0  0
  9  3  1  0  0  0  0
 12  5  1  0  0  0  0
 14 20  1  0  0  0  0
 15 21  1  0  0  0  0
 15 14  2  0  0  0  0
 16 15  1  0  0  0  0
 17 16  2  0  0  0  0
 17 18  1  0  0  0  0
 18 19  2  0  0  0  0
 19 14  1  0  0  0  0
 22 18  1  0  0  0  0
 23 26  1  1  0  0  0
 23  4  1  0  0  0  0
 24 27  1  0  0  0  0
 24 25  1  0  0  0  0
 24 23  1  0  0  0  0
 25 29  1  1  0  0  0
 25 23  1  0  0  0  0
 28 24  1  0  0  0  0
 30 25  1  0  0  0  0
 32 31  2  6  0  0  0
 32 30  1  0  0  0  0
 32 35  1  0  0  0  0
 33 34  1  0  0  0  0
 33 32  1  0  0  0  0
 36 37  1  0  0  0  0
 36 35  1  0  0  0  0
 36 40  1  0  0  0  0
 37 38  1  0  0  0  0
 38 39  1  0  0  0  0
 40 39  1  0  0  0  0
M  END
>  <minimizedAffinity>
-5.25990343

$$$$
