
     RDKit          3D

 37 39  0  0  0  0  0  0  0  0999 V2000
   46.6849   34.7607   41.9743 C   0  0  0  0  0  0  0  0  0  0  0  0
   47.9315   35.3563   41.8922 C   0  0  0  0  0  0  0  0  0  0  0  0
   48.6619   35.2009   40.7299 C   0  0  0  0  0  0  0  0  0  0  0  0
   48.1534   34.4732   39.6931 C   0  0  0  0  0  0  0  0  0  0  0  0
   46.9271   33.8711   39.7382 C   0  0  0  0  0  0  0  0  0  0  0  0
   46.2007   34.0407   40.9273 C   0  0  0  0  0  0  0  0  0  0  0  0
   44.5070   36.1247   44.7490 C   0  0  0  0  0  0  0  0  0  0  0  0
   45.1649   36.0438   43.5026 C   0  0  0  0  0  0  0  0  0  0  0  0
   45.9560   34.9564   43.2240 C   0  0  0  0  0  0  0  0  0  0  0  0
   46.0609   33.9993   44.1890 N   0  0  0  0  0  0  0  0  0  0  0  0
   45.4369   34.0653   45.3842 C   0  0  0  0  0  0  0  0  0  0  0  0
   44.6500   35.1475   45.6606 N   0  0  0  0  0  0  0  0  0  0  0  0
   43.5881   33.8406   40.7880 C   0  0  0  0  0  0  0  0  0  0  0  0
   43.2461   34.8969   40.2321 O   0  0  0  0  0  0  0  0  0  0  0  0
   44.9176   33.4708   41.1124 N   0  0  0  0  0  0  0  0  0  0  0  0
   48.3381   35.9353   42.7149 H   0  0  0  0  0  0  0  0  0  0  0  0
   49.6392   35.6356   40.5944 H   0  0  0  0  0  0  0  0  0  0  0  0
   48.7260   34.3516   38.7826 H   0  0  0  0  0  0  0  0  0  0  0  0
   46.4883   33.2868   38.9397 H   0  0  0  0  0  0  0  0  0  0  0  0
   43.8826   36.9731   44.9810 H   0  0  0  0  0  0  0  0  0  0  0  0
   45.0654   36.8051   42.7680 H   0  0  0  0  0  0  0  0  0  0  0  0
   45.5879   33.2466   46.0843 H   0  0  0  0  0  0  0  0  0  0  0  0
   45.1725   32.5686   41.6204 H   0  0  0  0  0  0  0  0  0  0  0  0
   42.5775   32.7906   41.1956 C   0  0  0  0  0  0  0  0  0  0  0  0
   41.9046   33.3707   42.4256 C   0  0  0  0  0  0  0  0  0  0  0  0
   42.5967   32.7977   43.6288 C   0  0  0  0  0  0  0  0  0  0  0  0
   43.5329   31.7281   43.1367 C   0  0  0  0  0  0  0  0  0  0  0  0
   43.3531   31.5988   41.6505 C   0  0  0  0  0  0  0  0  0  0  0  0
   41.8947   32.5284   40.3905 H   0  0  0  0  0  0  0  0  0  0  0  0
   40.8154   33.1735   42.4542 H   0  0  0  0  0  0  0  0  0  0  0  0
   42.0017   34.4838   42.4811 H   0  0  0  0  0  0  0  0  0  0  0  0
   41.8849   32.3995   44.3970 H   0  0  0  0  0  0  0  0  0  0  0  0
   43.1782   33.5809   44.1975 H   0  0  0  0  0  0  0  0  0  0  0  0
   44.5911   31.9543   43.3891 H   0  0  0  0  0  0  0  0  0  0  0  0
   43.2500   30.7467   43.6127 H   0  0  0  0  0  0  0  0  0  0  0  0
   44.3388   31.5062   41.1086 H   0  0  0  0  0  0  0  0  0  0  0  0
   42.7208   30.6929   41.4215 H   0  0  0  0  0  0  0  0  0  0  0  0
  1  9  1  0
  2  1  2  0
  3  2  1  0
  4  5  1  0
  4  3  2  0
  5  6  2  0
  6 15  1  0
  6  1  1  0
  7 12  2  0
  8  7  1  0
  9  8  2  0
  9 10  1  0
 10 11  2  0
 11 12  1  0
 13 15  1  0
 14 13  2  0
  2 16  1  0
  3 17  1  0
  4 18  1  0
  5 19  1  0
  7 20  1  0
  8 21  1  0
 11 22  1  0
 15 23  1  0
 24 25  1  0
 25 26  1  0
 26 27  1  0
 27 28  1  0
 28 24  1  0
 24 29  1  0
 25 30  1  0
 25 31  1  0
 26 32  1  0
 26 33  1  0
 27 34  1  0
 27 35  1  0
 28 36  1  0
 28 37  1  0
 13 24  1  0
M  ISO  7  16  14  17  14  18  14  19  14  20  14  21  14  22  14
M  END
>  <DihAtoms>  (1) 
14,12,23,24

>  <DihDeg>  (1) 
-59.79806367436374

$$$$
