
 OpenBabel03252503433D

 30 32  0  0  1  0  0  0  0  0999 V2000
   45.0280   34.7600   44.8910 C   0  0  0  0  0  0  0  0  0  0  0  0
   45.0470   34.1870   43.6110 C   0  0  0  0  0  0  0  0  0  0  0  0
   45.3660   32.8250   43.5330 C   0  0  0  0  0  0  0  0  0  0  0  0
   45.6350   32.1380   44.6590 N   0  0  0  0  0  0  0  0  0  0  0  0
   45.6090   32.7170   45.8690 C   0  0  0  0  0  0  0  0  0  0  0  0
   45.3030   34.0440   46.0060 N   0  0  0  0  0  0  0  0  0  0  0  0
   44.8010   35.7840   45.1030 H   0  0  0  0  0  0  0  0  0  0  0  0
   45.3760   32.4090   42.5490 H   0  0  0  0  0  0  0  0  0  0  0  0
   47.3710   31.9960   47.4790 C   0  0  2  0  0  0  0  0  0  0  0  0
   45.9040   31.8600   47.0160 C   0  0  1  0  0  0  0  0  0  0  0  0
   45.2550   32.1970   48.1720 O   0  0  0  0  0  0  0  0  0  0  0  0
   45.8720   31.5440   49.1980 C   0  0  0  0  0  0  0  0  0  0  0  0
   47.2470   31.1110   48.7320 C   0  0  2  0  0  0  0  0  0  0  0  0
   48.0730   31.6050   46.7450 H   0  0  0  0  0  0  0  0  0  0  0  0
   45.7720   30.7950   46.7210 H   0  0  0  0  0  0  0  0  0  0  0  0
   46.0430   32.2970   50.0090 H   0  0  0  0  0  0  0  0  0  0  0  0
   45.2940   30.7410   49.6570 H   0  0  0  0  0  0  0  0  0  0  0  0
   47.1760   30.0590   48.3880 H   0  0  0  0  0  0  0  0  0  0  0  0
   47.5900   33.2600   47.9170 O   0  0  0  0  0  0  0  0  0  0  0  0
   46.7790   33.6770   48.2700 H   0  0  0  0  0  0  0  0  0  0  0  0
   48.2510   31.3290   49.6300 O   0  0  0  0  0  0  0  0  0  0  0  0
   49.1010   31.2520   49.1530 H   0  0  0  0  0  0  0  0  0  0  0  0
   44.7300   35.0710   42.4810 C   0  0  0  0  0  0  0  0  0  0  0  0
   44.6620   36.1140   42.7660 H   0  0  0  0  0  0  0  0  0  0  0  0
   45.5720   34.9880   41.7560 H   0  0  0  0  0  0  0  0  0  0  0  0
   43.5160   34.5580   41.7410 C   0  0  0  0  0  3  0  0  0  0  0  0
   43.8260   34.3720   40.2580 C   0  0  0  0  0  2  0  0  0  0  0  0
   42.6860   35.0000   39.5010 C   0  0  0  0  0  2  0  0  0  0  0  0
   41.5770   35.0020   40.5330 C   0  0  0  0  0  2  0  0  0  0  0  0
   42.3470   35.5010   41.7630 C   0  0  0  0  0  2  0  0  0  0  0  0
  1  7  1  0  0  0  0
  1  6  1  0  0  0  0
  2  1  2  0  0  0  0
  3  2  1  0  0  0  0
  3  4  2  0  0  0  0
  4  5  1  0  0  0  0
  5  6  2  0  0  0  0
  5 10  1  0  0  0  0
  8  3  1  0  0  0  0
  9 14  1  6  0  0  0
  9 19  1  0  0  0  0
  9 13  1  0  0  0  0
 10 15  1  6  0  0  0
 10  9  1  0  0  0  0
 10 11  1  0  0  0  0
 11 12  1  0  0  0  0
 12 17  1  0  0  0  0
 12 16  1  0  0  0  0
 13 18  1  6  0  0  0
 13 12  1  0  0  0  0
 13 21  1  0  0  0  0
 19 20  1  0  0  0  0
 22 21  1  0  0  0  0
 23 24  1  0  0  0  0
 23  2  1  0  0  0  0
 25 23  1  0  0  0  0
 26 30  1  0  0  0  0
 26 23  1  0  0  0  0
 27 26  1  0  0  0  0
 28 27  1  0  0  0  0
 28 29  1  0  0  0  0
 29 30  1  0  0  0  0
M  END
>  <minimizedAffinity>
-5.6592226

>  <minimizedRMSD>
1.2177341

$$$$
