
 OpenBabel03242519423D

 25 27  0  0  1  0  0  0  0  0999 V2000
   47.9920   32.8930   41.6820 O   0  0  0  0  0  0  0  0  0  0  0  0
   47.1460   34.1060   41.2700 P   0  0  2  0  0  0  0  0  0  0  0  0
   45.5580   33.9080   41.8750 O   0  0  0  0  0  0  0  0  0  0  0  0
   44.3990   35.9190   44.6840 C   0  0  0  0  0  0  0  0  0  0  0  0
   44.6720   35.5060   43.3600 C   0  0  0  0  0  0  0  0  0  0  0  0
   45.3080   34.2750   43.1790 C   0  0  0  0  0  0  0  0  0  0  0  0
   45.6290   33.5410   44.2690 N   0  0  0  0  0  0  0  0  0  0  0  0
   45.3570   33.9620   45.5250 C   0  0  0  0  0  0  0  0  0  0  0  0
   44.7500   35.1310   45.7460 N   0  0  0  0  0  0  0  0  0  0  0  0
   43.9080   36.8670   44.8430 H   0  0  0  0  0  0  0  0  0  0  0  0
   44.3560   36.1990   42.5800 H   0  0  0  0  0  0  0  0  0  0  0  0
   45.6840   33.2510   46.2620 H   0  0  0  0  0  0  0  0  0  0  0  0
   47.0910   34.1950   39.6090 O   0  0  0  0  0  0  0  0  0  0  0  0
   46.7700   33.2210   38.7030 C   0  0  1  0  0  3  0  0  0  0  0  0
   46.9300   33.4900   37.4140 O   0  0  0  0  0  0  0  0  0  0  0  0
   46.3160   31.9300   38.1810 C   0  0  0  0  0  0  0  0  0  0  0  0
   46.3490   30.8270   39.2130 C   0  0  0  0  0  2  0  0  0  0  0  0
   45.0550   30.9990   39.9590 C   0  0  0  0  0  2  0  0  0  0  0  0
   44.2210   31.9640   39.2070 C   0  0  0  0  0  2  0  0  0  0  0  0
   44.8190   32.0510   37.8480 C   0  0  0  0  0  2  0  0  0  0  0  0
   47.8210   35.4360   41.9740 O   0  0  0  0  0  0  0  0  0  0  0  0
   49.0570   35.7670   41.4420 C   0  0  0  0  0  0  0  0  0  0  0  0
   49.4670   37.0510   41.7860 F   0  0  0  0  0  0  0  0  0  0  0  0
   49.9780   34.8240   41.7710 F   0  0  0  0  0  0  0  0  0  0  0  0
   48.8980   35.7790   40.0650 F   0  0  0  0  0  0  0  0  0  0  0  0
  2  1  2  1  0  0  0
  2  3  1  0  0  0  0
  2 21  1  0  0  0  0
  3  6  1  0  0  0  0
  4 10  1  0  0  0  0
  4  9  1  0  0  0  0
  5  4  2  0  0  0  0
  6  5  1  0  0  0  0
  6  7  2  0  0  0  0
  7  8  1  0  0  0  0
  8  9  2  0  0  0  0
  8 12  1  0  0  0  0
 11  5  1  0  0  0  0
 13  2  1  0  0  0  0
 14 13  1  1  0  0  0
 15 16  1  0  0  0  0
 15 14  1  0  0  0  0
 16 14  1  0  0  0  0
 16 17  1  0  0  0  0
 17 18  1  0  0  0  0
 19 18  1  0  0  0  0
 20 16  1  0  0  0  0
 20 19  1  0  0  0  0
 22 24  1  0  0  0  0
 22 23  1  0  0  0  0
 22 21  1  0  0  0  0
 25 22  1  0  0  0  0
M  END
>  <minimizedAffinity>
-4.85410213

>  <minimizedRMSD>
0.342436612

$$$$
