
 OpenBabel03252508343D

 31 33  0  0  1  0  0  0  0  0999 V2000
   43.8220   34.4530   41.9840 N   0  0  0  0  0  0  0  0  0  0  0  0
   44.4560   33.7910   40.8760 C   0  0  1  0  0  0  0  0  0  0  0  0
   43.7260   33.9730   39.5850 C   0  0  0  0  0  0  0  0  0  0  0  0
   42.3330   33.9500   39.6380 N   0  0  0  0  0  0  0  0  0  0  0  0
   41.7050   34.3810   40.8150 C   0  0  0  0  0  0  0  0  0  0  0  0
   42.6580   35.2110   41.6720 C   0  0  0  0  0  0  0  0  0  0  0  0
   44.5780   32.7060   41.1290 H   0  0  0  0  0  0  0  0  0  0  0  0
   44.1000   33.2440   38.8420 H   0  0  0  0  0  0  0  0  0  0  0  0
   44.0430   34.9760   39.1700 H   0  0  0  0  0  0  0  0  0  0  0  0
   41.9430   34.5140   38.8250 H   0  0  0  0  0  0  0  0  0  0  0  0
   41.4740   33.4800   41.4540 H   0  0  0  0  0  0  0  0  0  0  0  0
   40.7430   34.8940   40.6970 H   0  0  0  0  0  0  0  0  0  0  0  0
   42.9210   36.1600   41.1590 H   0  0  0  0  0  0  0  0  0  0  0  0
   42.1520   35.4590   42.6440 H   0  0  0  0  0  0  0  0  0  0  0  0
   44.2930   35.3350   44.1480 C   0  0  0  0  0  0  0  0  0  0  0  0
   44.4090   34.2850   43.2500 C   0  0  0  0  0  0  0  0  0  0  0  0
   45.1060   33.1400   43.6860 C   0  0  0  0  0  0  0  0  0  0  0  0
   45.6250   33.1050   44.9360 N   0  0  0  0  0  0  0  0  0  0  0  0
   45.4890   34.1460   45.7720 C   0  0  0  0  0  0  0  0  0  0  0  0
   44.8360   35.2400   45.3860 N   0  0  0  0  0  0  0  0  0  0  0  0
   43.7910   36.2610   43.9460 H   0  0  0  0  0  0  0  0  0  0  0  0
   45.1670   32.3570   42.9560 H   0  0  0  0  0  0  0  0  0  0  0  0
   45.9400   34.0240   46.7520 H   0  0  0  0  0  0  0  0  0  0  0  0
   45.8290   34.3900   40.6970 C   0  0  0  0  0  0  0  0  0  0  0  0
   46.2990   34.3980   41.7090 H   0  0  0  0  0  0  0  0  0  0  0  0
   45.7710   35.4150   40.3290 H   0  0  0  0  0  0  0  0  0  0  0  0
   46.7310   33.5390   39.8390 C   0  0  0  0  0  3  0  0  0  0  0  0
   48.0860   34.2600   39.8270 C   0  0  0  0  0  2  0  0  0  0  0  0
   48.8410   33.5700   40.9200 C   0  0  0  0  0  2  0  0  0  0  0  0
   48.4920   32.1250   40.7290 C   0  0  0  0  0  2  0  0  0  0  0  0
   47.0080   32.1980   40.4300 C   0  0  0  0  0  2  0  0  0  0  0  0
  1 16  1  0  0  0  0
  2  7  1  1  0  0  0
  2  1  1  0  0  0  0
  3  4  1  0  0  0  0
  3  2  1  0  0  0  0
  4  5  1  0  0  0  0
  5 11  1  0  0  0  0
  5  6  1  0  0  0  0
  6  1  1  0  0  0  0
  6 14  1  0  0  0  0
  8  3  1  0  0  0  0
  9  3  1  0  0  0  0
 10  4  1  0  0  0  0
 12  5  1  0  0  0  0
 13  6  1  0  0  0  0
 15 20  1  0  0  0  0
 16 17  1  0  0  0  0
 16 15  2  0  0  0  0
 17 18  2  0  0  0  0
 18 19  1  0  0  0  0
 19 23  1  0  0  0  0
 20 19  2  0  0  0  0
 21 15  1  0  0  0  0
 22 17  1  0  0  0  0
 24  2  1  0  0  0  0
 24 25  1  0  0  0  0
 26 24  1  0  0  0  0
 27 31  1  0  0  0  0
 27 24  1  0  0  0  0
 28 27  1  0  0  0  0
 28 29  1  0  0  0  0
 30 29  1  0  0  0  0
 31 30  1  0  0  0  0
M  END
>  <minimizedAffinity>
-4.01728773

>  <minimizedRMSD>
2.81398582

$$$$
