
 OpenBabel03242517103D

 43 46  0  0  1  0  0  0  0  0999 V2000
   45.8970   33.7760   43.1000 C   0  0  2  0  0  0  0  0  0  0  0  0
   45.0670   34.8460   42.4820 C   0  0  2  0  0  0  0  0  0  0  0  0
   45.0040   36.0790   43.3030 C   0  0  0  0  0  0  0  0  0  0  0  0
   44.6100   35.8540   44.7410 C   0  0  0  0  0  0  0  0  0  0  0  0
   45.1220   34.5670   45.3190 C   0  0  0  0  0  0  0  0  0  0  0  0
   46.2970   34.0230   44.5250 C   0  0  0  0  0  0  0  0  0  0  0  0
   45.3060   32.8110   43.0820 H   0  0  0  0  0  0  0  0  0  0  0  0
   45.5260   35.1270   41.5070 H   0  0  0  0  0  0  0  0  0  0  0  0
   44.2090   36.7370   42.8460 H   0  0  0  0  0  0  0  0  0  0  0  0
   45.9420   36.6570   43.1910 H   0  0  0  0  0  0  0  0  0  0  0  0
   43.5040   35.9520   44.8510 H   0  0  0  0  0  0  0  0  0  0  0  0
   45.0310   36.7360   45.3040 H   0  0  0  0  0  0  0  0  0  0  0  0
   45.5210   34.7810   46.3450 H   0  0  0  0  0  0  0  0  0  0  0  0
   44.3200   33.7890   45.4120 H   0  0  0  0  0  0  0  0  0  0  0  0
   47.1190   34.7030   44.6990 H   0  0  0  0  0  0  0  0  0  0  0  0
   46.5740   33.0580   45.0110 H   0  0  0  0  0  0  0  0  0  0  0  0
   42.7190   35.3340   41.6790 C   0  0  1  0  0  0  0  0  0  0  0  0
   43.6820   34.3200   42.1790 C   0  0  1  0  0  0  0  0  0  0  0  0
   43.8030   33.3150   41.2260 O   0  0  0  0  0  0  0  0  0  0  0  0
   43.3600   33.8170   40.0130 C   0  0  0  0  0  0  0  0  0  0  0  0
   42.1400   34.6060   40.4560 C   0  0  2  0  0  0  0  0  0  0  0  0
   43.2080   36.2660   41.3260 H   0  0  0  0  0  0  0  0  0  0  0  0
   43.2910   33.8320   43.0990 H   0  0  0  0  0  0  0  0  0  0  0  0
   43.1070   33.0000   39.3340 H   0  0  0  0  0  0  0  0  0  0  0  0
   44.1450   34.4960   39.6420 H   0  0  0  0  0  0  0  0  0  0  0  0
   41.3290   33.9150   40.7220 H   0  0  0  0  0  0  0  0  0  0  0  0
   41.6850   35.5960   42.5490 O   0  0  0  0  0  0  0  0  0  0  0  0
   41.6290   36.5030   42.8960 H   0  0  0  0  0  0  0  0  0  0  0  0
   41.7570   35.5460   39.5100 O   0  0  0  0  0  0  0  0  0  0  0  0
   40.4800   35.3250   39.0600 C   0  0  0  0  0  0  0  0  0  0  0  0
   40.4230   34.3820   37.8760 C   0  0  0  0  0  0  0  0  0  0  0  0
   38.8980   34.2300   37.7790 C   0  0  0  0  0  0  0  0  0  0  0  0
   38.5350   33.9680   39.2170 C   0  0  0  0  0  0  0  0  0  0  0  0
   39.6590   34.5470   40.0710 C   0  0  0  0  0  0  0  0  0  0  0  0
   47.1150   33.4830   42.3160 C   0  0  0  0  0  0  0  0  0  0  0  0
   48.2930   34.0190   42.8390 C   0  0  0  0  0  0  0  0  0  0  0  0
   49.5170   33.8070   42.1840 C   0  0  0  0  0  0  0  0  0  0  0  0
   49.4510   33.0490   41.0190 N   0  0  0  0  0  0  0  0  0  0  0  0
   48.2860   32.5490   40.5470 C   0  0  0  0  0  0  0  0  0  0  0  0
   47.1140   32.7620   41.1910 N   0  0  0  0  0  0  0  0  0  0  0  0
   48.4910   34.6210   43.7090 H   0  0  0  0  0  0  0  0  0  0  0  0
   50.4840   34.1660   42.4900 H   0  0  0  0  0  0  0  0  0  0  0  0
   48.3430   31.9730   39.6320 H   0  0  0  0  0  0  0  0  0  0  0  0
  1  7  1  6  0  0  0
  1  6  1  0  0  0  0
  2  8  1  6  0  0  0
  2  1  1  0  0  0  0
  2  3  1  0  0  0  0
  3  4  1  0  0  0  0
  4 11  1  0  0  0  0
  4 12  1  0  0  0  0
  4  5  1  0  0  0  0
  5 14  1  0  0  0  0
  5 13  1  0  0  0  0
  6 15  1  0  0  0  0
  6 16  1  0  0  0  0
  6  5  1  0  0  0  0
  9  3  1  0  0  0  0
 10  3  1  0  0  0  0
 17 22  1  6  0  0  0
 17 18  1  0  0  0  0
 17 27  1  0  0  0  0
 18  2  1  0  0  0  0
 18 23  1  1  0  0  0
 19 18  1  0  0  0  0
 20 21  1  0  0  0  0
 20 19  1  0  0  0  0
 21 26  1  1  0  0  0
 21 17  1  0  0  0  0
 24 20  1  0  0  0  0
 25 20  1  0  0  0  0
 27 28  1  0  0  0  0
 29 21  1  0  0  0  0
 30 29  1  0  0  0  0
 30 34  1  0  0  0  0
 31 30  1  0  0  0  0
 32 31  1  0  0  0  0
 32 33  1  0  0  0  0
 33 34  1  0  0  0  0
 35 36  1  0  0  0  0
 35  1  1  0  0  0  0
 36 41  1  0  0  0  0
 37 42  1  0  0  0  0
 37 36  2  0  0  0  0
 38 37  1  0  0  0  0
 39 38  2  0  0  0  0
 39 40  1  0  0  0  0
 40 35  2  0  0  0  0
 43 39  1  0  0  0  0
M  END
>  <minimizedAffinity>
-6.92002106

>  <minimizedRMSD>
0.841308475

$$$$
