
     RDKit          3D

 27 28  0  0  0  0  0  0  0  0999 V2000
   44.5306   36.0452   44.5680 C   0  0  0  0  0  0  0  0  0  0  0  0
   45.2484   36.0012   43.3659 C   0  0  0  0  0  0  0  0  0  0  0  0
   46.1393   34.9530   43.1454 C   0  0  0  0  0  0  0  0  0  0  0  0
   46.2887   33.9975   44.1064 N   0  0  0  0  0  0  0  0  0  0  0  0
   45.5698   34.0774   45.2645 C   0  0  0  0  0  0  0  0  0  0  0  0
   44.7038   35.0911   45.4856 N   0  0  0  0  0  0  0  0  0  0  0  0
   46.3851   34.2154   40.7845 C   0  0  0  0  0  0  0  0  0  0  0  0
   45.2151   33.7185   40.9372 O   0  0  0  0  0  0  0  0  0  0  0  0
   46.9032   34.8417   41.9485 N   0  0  0  0  0  0  0  0  0  0  0  0
   43.8849   36.9053   44.5993 H   0  0  0  0  0  0  0  0  0  0  0  0
   45.2053   36.7017   42.5450 H   0  0  0  0  0  0  0  0  0  0  0  0
   45.6564   33.3438   46.0516 H   0  0  0  0  0  0  0  0  0  0  0  0
   47.8753   35.2657   42.0183 H   0  0  0  0  0  0  0  0  0  0  0  0
   47.2075   34.2036   39.5823 C   0  0  0  0  0  0  0  0  0  0  0  0
   46.5987   34.8868   38.3793 C   0  0  0  0  0  0  0  0  0  0  0  0
   47.6845   34.5701   37.3401 C   0  0  0  0  0  0  0  0  0  0  0  0
   48.2176   33.1914   37.7246 C   0  0  0  0  0  0  0  0  0  0  0  0
   47.4648   32.8321   39.0126 C   0  0  0  0  0  0  0  0  0  0  0  0
   48.2066   34.6736   39.7232 H   0  0  0  0  0  0  0  0  0  0  0  0
   45.7076   34.3003   38.0958 H   0  0  0  0  0  0  0  0  0  0  0  0
   46.4465   35.9592   38.4930 H   0  0  0  0  0  0  0  0  0  0  0  0
   48.4758   35.3615   37.4587 H   0  0  0  0  0  0  0  0  0  0  0  0
   47.3073   34.6269   36.3190 H   0  0  0  0  0  0  0  0  0  0  0  0
   49.2989   33.2411   37.9889 H   0  0  0  0  0  0  0  0  0  0  0  0
   48.0185   32.4260   36.9595 H   0  0  0  0  0  0  0  0  0  0  0  0
   48.0659   32.1770   39.6701 H   0  0  0  0  0  0  0  0  0  0  0  0
   46.5038   32.3650   38.6792 H   0  0  0  0  0  0  0  0  0  0  0  0
  1  6  2  0
  2  1  1  0
  3  2  2  0
  3  4  1  0
  4  5  2  0
  5  6  1  0
  7  8  2  0
  7  9  1  0
  9  3  1  0
  1 10  1  0
  2 11  1  0
  5 12  1  0
  9 13  1  0
 14 15  1  0
 15 16  1  0
 16 17  1  0
 17 18  1  0
 18 14  1  0
 14 19  1  0
 15 20  1  0
 15 21  1  0
 16 22  1  0
 16 23  1  0
 17 24  1  0
 17 25  1  0
 18 26  1  0
 18 27  1  0
  7 14  1  0
M  ISO  3  10  14  11  14  12  14
M  END
>  <DihAtoms>  (1) 
7,6,13,14

>  <DihDeg>  (1) 
-119.99862559982182

$$$$
