
 OpenBabel03252503433D

 30 32  0  0  1  0  0  0  0  0999 V2000
   45.2500   34.4630   44.7360 C   0  0  0  0  0  0  0  0  0  0  0  0
   45.3880   33.8210   43.4960 C   0  0  0  0  0  0  0  0  0  0  0  0
   45.7240   32.4610   43.5230 C   0  0  0  0  0  0  0  0  0  0  0  0
   45.8960   31.8400   44.7060 N   0  0  0  0  0  0  0  0  0  0  0  0
   45.7560   32.4850   45.8750 C   0  0  0  0  0  0  0  0  0  0  0  0
   45.4290   33.8130   45.9100 N   0  0  0  0  0  0  0  0  0  0  0  0
   44.9970   35.4940   44.8700 H   0  0  0  0  0  0  0  0  0  0  0  0
   45.8260   31.9920   42.5700 H   0  0  0  0  0  0  0  0  0  0  0  0
   47.4090   31.7710   47.6010 C   0  0  2  0  0  0  0  0  0  0  0  0
   45.9530   31.6950   47.0900 C   0  0  1  0  0  0  0  0  0  0  0  0
   45.2880   32.1550   48.1920 O   0  0  0  0  0  0  0  0  0  0  0  0
   45.8240   31.5400   49.2850 C   0  0  0  0  0  0  0  0  0  0  0  0
   47.1820   30.9890   48.9060 C   0  0  2  0  0  0  0  0  0  0  0  0
   48.1090   31.2850   46.9240 H   0  0  0  0  0  0  0  0  0  0  0  0
   45.7620   30.6230   46.8650 H   0  0  0  0  0  0  0  0  0  0  0  0
   46.0150   32.3370   50.0480 H   0  0  0  0  0  0  0  0  0  0  0  0
   45.1780   30.8110   49.7760 H   0  0  0  0  0  0  0  0  0  0  0  0
   47.0540   29.9210   48.6330 H   0  0  0  0  0  0  0  0  0  0  0  0
   47.6950   33.0470   47.9570 O   0  0  0  0  0  0  0  0  0  0  0  0
   46.9020   33.5390   48.2480 H   0  0  0  0  0  0  0  0  0  0  0  0
   48.1660   31.2070   49.8260 O   0  0  0  0  0  0  0  0  0  0  0  0
   49.0260   31.0420   49.3900 H   0  0  0  0  0  0  0  0  0  0  0  0
   45.1680   34.6380   42.2960 C   0  0  0  0  0  0  0  0  0  0  0  0
   45.6140   35.6220   42.3660 H   0  0  0  0  0  0  0  0  0  0  0  0
   45.6700   34.1150   41.4500 H   0  0  0  0  0  0  0  0  0  0  0  0
   43.7000   34.6540   41.9380 C   0  0  0  0  0  3  0  0  0  0  0  0
   43.3350   33.4370   41.0910 C   0  0  0  0  0  2  0  0  0  0  0  0
   42.5180   33.9500   39.9340 C   0  0  0  0  0  2  0  0  0  0  0  0
   42.0090   35.2750   40.4650 C   0  0  0  0  0  2  0  0  0  0  0  0
   43.2920   35.8300   41.0970 C   0  0  0  0  0  2  0  0  0  0  0  0
  1  7  1  0  0  0  0
  1  6  1  0  0  0  0
  2  3  1  0  0  0  0
  2  1  2  0  0  0  0
  3  4  2  0  0  0  0
  4  5  1  0  0  0  0
  5  6  2  0  0  0  0
  5 10  1  0  0  0  0
  8  3  1  0  0  0  0
  9 14  1  6  0  0  0
  9 19  1  0  0  0  0
  9 13  1  0  0  0  0
 10 15  1  6  0  0  0
 10  9  1  0  0  0  0
 10 11  1  0  0  0  0
 11 12  1  0  0  0  0
 12 17  1  0  0  0  0
 12 16  1  0  0  0  0
 13 18  1  6  0  0  0
 13 12  1  0  0  0  0
 13 21  1  0  0  0  0
 19 20  1  0  0  0  0
 22 21  1  0  0  0  0
 23 24  1  0  0  0  0
 23  2  1  0  0  0  0
 25 23  1  0  0  0  0
 26 23  1  0  0  0  0
 27 26  1  0  0  0  0
 28 29  1  0  0  0  0
 28 27  1  0  0  0  0
 29 30  1  0  0  0  0
 30 26  1  0  0  0  0
M  END
>  <minimizedAffinity>
-5.40399837

>  <minimizedRMSD>
1.14201307

$$$$
