
 OpenBabel03242522433D

 43 46  0  0  0  0  0  0  0  0999 V2000
   46.1080   31.7770   45.3650 C   0  0  0  0  0  0  0  0  0  0  0  0
   45.9140   30.7530   44.9270 H   0  0  0  0  0  0  0  0  0  0  0  0
   45.0650   32.0580   45.6720 H   0  0  0  0  0  0  0  0  0  0  0  0
   47.1590   32.5220   47.4780 C   0  0  0  0  0  0  0  0  0  0  0  0
   47.0130   31.5310   46.4810 C   0  0  0  0  0  0  0  0  0  0  0  0
   47.7230   30.3560   46.6340 C   0  0  0  0  0  0  0  0  0  0  0  0
   48.5140   30.2110   47.7210 N   0  0  0  0  0  0  0  0  0  0  0  0
   48.6290   31.1610   48.6430 C   0  0  0  0  0  0  0  0  0  0  0  0
   47.9580   32.3320   48.5440 N   0  0  0  0  0  0  0  0  0  0  0  0
   46.7060   33.4930   47.5430 H   0  0  0  0  0  0  0  0  0  0  0  0
   47.6380   29.5860   45.8960 H   0  0  0  0  0  0  0  0  0  0  0  0
   49.5230   30.9220   49.8290 C   0  0  0  0  0  0  0  0  0  0  0  0
   49.6800   29.8450   49.9610 H   0  0  0  0  0  0  0  0  0  0  0  0
   48.9330   31.2990   50.7110 H   0  0  0  0  0  0  0  0  0  0  0  0
   50.8070   31.6060   49.7400 C   0  0  0  0  0  0  0  0  0  0  0  0
   51.9770   31.0640   49.2420 C   0  0  0  0  0  0  0  0  0  0  0  0
   52.9680   32.0040   49.3170 C   0  0  0  0  0  0  0  0  0  0  0  0
   52.3650   33.1000   49.8630 N   0  0  0  0  0  0  0  0  0  0  0  0
   51.0780   32.8680   50.1170 N   0  0  0  0  0  0  0  0  0  0  0  0
   52.1460   30.0670   48.8450 H   0  0  0  0  0  0  0  0  0  0  0  0
   54.0150   32.0110   49.0460 H   0  0  0  0  0  0  0  0  0  0  0  0
   52.8150   34.0300   50.0750 H   0  0  0  0  0  0  0  0  0  0  0  0
   46.7600   32.7350   44.4230 C   0  0  0  0  0  0  0  0  0  0  0  0
   46.5710   32.2360   43.4420 H   0  0  0  0  0  0  0  0  0  0  0  0
   47.7960   32.9300   44.6700 H   0  0  0  0  0  0  0  0  0  0  0  0
   46.4310   34.7700   43.1270 C   0  0  0  0  0  0  0  0  0  0  0  0
   46.0750   34.0300   44.2430 C   0  0  0  0  0  0  0  0  0  0  0  0
   45.1530   34.3790   45.1500 C   0  0  0  0  0  0  0  0  0  0  0  0
   44.4960   35.5680   44.9730 C   0  0  0  0  0  0  0  0  0  0  0  0
   44.7650   36.3740   43.9090 C   0  0  0  0  0  0  0  0  0  0  0  0
   45.7190   35.9630   43.0120 C   0  0  0  0  0  0  0  0  0  0  0  0
   44.7990   33.8950   46.0150 H   0  0  0  0  0  0  0  0  0  0  0  0
   43.7260   35.9820   45.6290 H   0  0  0  0  0  0  0  0  0  0  0  0
   44.2690   37.3380   43.7120 H   0  0  0  0  0  0  0  0  0  0  0  0
   45.9370   36.6090   42.1510 H   0  0  0  0  0  0  0  0  0  0  0  0
   47.5900   34.3800   41.9350 S   0  0  0  0  0  0  0  0  0  0  0  0
   48.4190   35.6710   41.6080 O   0  0  0  0  0  0  0  0  0  0  0  0
   46.8920   34.0970   40.6350 O   0  0  0  0  0  0  0  0  0  0  0  0
   48.8660   33.3060   42.0900 C   0  0  0  0  0  0  0  0  0  0  0  0
   50.2520   33.8900   42.3310 C   0  0  0  0  0  0  0  0  0  0  0  0
   51.0750   32.6090   42.1440 C   0  0  0  0  0  0  0  0  0  0  0  0
   50.3890   31.9650   40.9320 C   0  0  0  0  0  0  0  0  0  0  0  0
   49.2000   32.8460   40.6570 C   0  0  0  0  0  0  0  0  0  0  0  0
  1  3  1  0  0  0  0
  1  5  1  0  0  0  0
  2  1  1  0  0  0  0
  4 10  1  0  0  0  0
  4  9  1  0  0  0  0
  5  6  1  0  0  0  0
  5  4  2  0  0  0  0
  6  7  2  0  0  0  0
  7  8  1  0  0  0  0
  8 12  1  0  0  0  0
  9  8  2  0  0  0  0
 11  6  1  0  0  0  0
 12 13  1  0  0  0  0
 12 14  1  0  0  0  0
 15 12  1  0  0  0  0
 15 19  2  0  0  0  0
 16 17  2  0  0  0  0
 16 15  1  0  0  0  0
 17 18  1  0  0  0  0
 18 22  1  0  0  0  0
 18 19  1  0  0  0  0
 20 16  1  0  0  0  0
 21 17  1  0  0  0  0
 23 25  1  0  0  0  0
 23  1  1  0  0  0  0
 24 23  1  0  0  0  0
 26 27  1  0  0  0  0
 27 23  1  0  0  0  0
 27 28  2  0  0  0  0
 28 32  1  0  0  0  0
 29 28  1  0  0  0  0
 29 33  1  0  0  0  0
 30 29  2  0  0  0  0
 31 26  2  0  0  0  0
 31 30  1  0  0  0  0
 34 30  1  0  0  0  0
 35 31  1  0  0  0  0
 36 39  1  0  0  0  0
 36 26  1  0  0  0  0
 37 36  2  0  0  0  0
 38 36  2  0  0  0  0
 39 40  1  0  0  0  0
 41 40  1  0  0  0  0
 42 41  1  0  0  0  0
 43 42  1  0  0  0  0
 43 39  1  0  0  0  0
M  END
>  <minimizedAffinity>
-6.52090883

>  <minimizedRMSD>
0.984415054

$$$$
