
 OpenBabel03242518543D

 38 40  0  0  1  0  0  0  0  0999 V2000
   45.7570   31.2540   46.6260 C   0  0  2  0  0  0  0  0  0  0  0  0
   45.8160   30.4970   47.9140 C   0  0  0  0  0  0  0  0  0  0  0  0
   45.0350   29.2460   47.7230 C   0  0  0  0  0  0  0  0  0  0  0  0
   44.3450   29.1090   46.4070 C   0  0  0  0  0  0  0  0  0  0  0  0
   45.3310   29.2620   45.2820 C   0  0  0  0  0  0  0  0  0  0  0  0
   46.2620   30.3590   45.5090 C   0  0  2  0  0  0  0  0  0  0  0  0
   44.6940   31.4330   46.3640 H   0  0  0  0  0  0  0  0  0  0  0  0
   45.3490   31.1720   48.6850 H   0  0  0  0  0  0  0  0  0  0  0  0
   46.8480   30.3300   48.2880 H   0  0  0  0  0  0  0  0  0  0  0  0
   44.2030   29.2580   48.4890 H   0  0  0  0  0  0  0  0  0  0  0  0
   45.5830   28.3040   47.9840 H   0  0  0  0  0  0  0  0  0  0  0  0
   43.9170   28.0810   46.3790 H   0  0  0  0  0  0  0  0  0  0  0  0
   43.4700   29.7840   46.3170 H   0  0  0  0  0  0  0  0  0  0  0  0
   44.6990   29.5140   44.3790 H   0  0  0  0  0  0  0  0  0  0  0  0
   45.7380   28.2600   45.0590 H   0  0  0  0  0  0  0  0  0  0  0  0
   46.4220   31.0110   44.6400 H   0  0  0  0  0  0  0  0  0  0  0  0
   47.5560   29.7310   45.8960 C   0  0  0  0  0  0  0  0  0  0  0  0
   47.4860   28.6420   46.1200 H   0  0  0  0  0  0  0  0  0  0  0  0
   47.8960   30.1970   46.8430 H   0  0  0  0  0  0  0  0  0  0  0  0
   48.6660   29.8590   44.8950 C   0  0  0  0  0  3  0  0  0  0  0  0
   48.8690   28.6190   44.0610 C   0  0  0  0  0  2  0  0  0  0  0  0
   49.9380   29.1660   43.1090 C   0  0  0  0  0  2  0  0  0  0  0  0
   49.2680   30.4600   42.6800 C   0  0  0  0  0  2  0  0  0  0  0  0
   48.2810   30.8190   43.7620 C   0  0  0  0  0  2  0  0  0  0  0  0
   46.4500   32.5670   46.6600 C   0  0  0  0  0  0  0  0  0  0  0  0
   47.3800   32.8320   47.4540 O   0  0  0  0  0  0  0  0  0  0  0  0
   44.6000   35.3430   45.1670 C   0  0  0  0  0  0  0  0  0  0  0  0
   45.1340   35.4570   43.8560 C   0  0  0  0  0  0  0  0  0  0  0  0
   46.1360   34.5630   43.5220 C   0  0  0  0  0  0  0  0  0  0  0  0
   46.4740   33.7010   44.4830 N   0  0  0  0  0  0  0  0  0  0  0  0
   45.9890   33.5830   45.6980 C   0  0  0  0  0  0  0  0  0  0  0  0
   45.0160   34.4400   46.0460 N   0  0  0  0  0  0  0  0  0  0  0  0
   43.8000   36.0470   45.4530 H   0  0  0  0  0  0  0  0  0  0  0  0
   44.7600   36.2110   43.1750 H   0  0  0  0  0  0  0  0  0  0  0  0
   46.6800   34.6700   42.1810 C   0  0  0  0  0  0  0  0  0  0  0  0
   47.3870   33.5130   41.8700 F   0  0  0  0  0  0  0  0  0  0  0  0
   47.5380   35.7210   42.1820 F   0  0  0  0  0  0  0  0  0  0  0  0
   45.6880   34.7730   41.2120 F   0  0  0  0  0  0  0  0  0  0  0  0
  1  7  1  6  0  0  0
  1 25  1  0  0  0  0
  1  2  1  0  0  0  0
  2  9  1  0  0  0  0
  2  8  1  0  0  0  0
  3  2  1  0  0  0  0
  3 11  1  0  0  0  0
  3 10  1  0  0  0  0
  4  3  1  0  0  0  0
  5  6  1  0  0  0  0
  5  4  1  0  0  0  0
  6 16  1  6  0  0  0
  6 17  1  0  0  0  0
  6  1  1  0  0  0  0
 12  4  1  0  0  0  0
 13  4  1  0  0  0  0
 14  5  1  0  0  0  0
 15  5  1  0  0  0  0
 17 18  1  0  0  0  0
 17 19  1  0  0  0  0
 20 17  1  0  0  0  0
 21 20  1  0  0  0  0
 22 21  1  0  0  0  0
 23 22  1  0  0  0  0
 23 24  1  0  0  0  0
 24 20  1  0  0  0  0
 25 26  2  0  0  0  0
 27 33  1  0  0  0  0
 27 32  1  0  0  0  0
 28 27  2  0  0  0  0
 29 28  1  0  0  0  0
 29 30  2  0  0  0  0
 30 31  1  0  0  0  0
 31 32  2  0  0  0  0
 31 25  1  0  0  0  0
 34 28  1  0  0  0  0
 35 37  1  0  0  0  0
 35 29  1  0  0  0  0
 36 35  1  0  0  0  0
 38 35  1  0  0  0  0
M  END
>  <minimizedAffinity>
-5.2171998

>  <minimizedRMSD>
0.879696369

$$$$
