REMARK  Name = 
REMARK  3 active torsions:
REMARK  status: ('A' for Active; 'I' for Inactive)
REMARK    1  A    between atoms: N_1  and  C_9
REMARK    2  A    between atoms: C_6  and  C_13
REMARK    3  A    between atoms: C_13  and  C_26
REMARK                            x       y       z     vdW  Elec       q    Type
REMARK                         _______ _______ _______ _____ _____    ______ ____
ROOT
ATOM      1  N   UNL     1      46.059  34.325  41.535  0.00  0.00    +0.000 N 
ATOM      2  C   UNL     1      45.109  34.064  40.490  0.00  0.00    +0.000 C 
ATOM      3  C   UNL     1      45.694  33.213  39.390  0.00  0.00    +0.000 C 
ATOM      4  N   UNL     1      46.941  33.679  38.883  0.00  0.00    +0.000 NA
ATOM      5  C   UNL     1      47.774  34.341  39.788  0.00  0.00    +0.000 C 
ATOM      6  C   UNL     1      47.450  34.231  41.240  0.00  0.00    +0.000 C 
ATOM      7  H   UNL     1      44.288  33.445  40.939  0.00  0.00    +0.000 HD
ATOM      8  H   UNL     1      44.621  34.946  40.075  0.00  0.00    +0.000 HD
ATOM      9  H   UNL     1      45.845  32.153  39.718  0.00  0.00    +0.000 HD
ATOM     10  H   UNL     1      44.933  33.156  38.586  0.00  0.00    +0.000 HD
ATOM     11  H   UNL     1      47.404  32.922  38.357  0.00  0.00    +0.000 HD
ATOM     12  H   UNL     1      48.838  34.053  39.652  0.00  0.00    +0.000 HD
ATOM     13  H   UNL     1      47.740  35.438  39.548  0.00  0.00    +0.000 HD
ATOM     14  H   UNL     1      47.738  33.183  41.520  0.00  0.00    +0.000 HD
ENDROOT
BRANCH   1  17
ATOM     15  C   UNL     1      44.615  36.060  44.503  0.00  0.00    +0.000 A 
ATOM     16  C   UNL     1      44.991  35.879  43.154  0.00  0.00    +0.000 A 
ATOM     17  C   UNL     1      45.616  34.665  42.831  0.00  0.00    +0.000 A 
ATOM     18  N   UNL     1      45.813  33.747  43.851  0.00  0.00    +0.000 NA
ATOM     19  C   UNL     1      45.426  33.991  45.118  0.00  0.00    +0.000 A 
ATOM     20  N   UNL     1      44.827  35.147  45.446  0.00  0.00    +0.000 NA
ATOM     21  H   UNL     1      44.136  37.035  44.662  0.00  0.00    +0.000 HD
ATOM     22  H   UNL     1      44.835  36.592  42.369  0.00  0.00    +0.000 HD
ATOM     23  H   UNL     1      45.638  33.200  45.807  0.00  0.00    +0.000 HD
ENDBRANCH   1  17
BRANCH   6  24
ATOM     24  C   UNL     1      48.206  35.248  41.979  0.00  0.00    +0.000 C 
ATOM     25  O   UNL     1      48.937  36.064  41.372  0.00  0.00    +0.000 OA
BRANCH  24  26
ATOM     26  C   UNL     1      48.539  35.819  43.305  0.00  0.00    +0.000 C 
ATOM     27  C   UNL     1      49.751  36.743  43.260  0.00  0.00    +0.000 C 
ATOM     28  C   UNL     1      50.931  35.829  43.473  0.00  0.00    +0.000 C 
ATOM     29  C   UNL     1      50.427  35.069  44.681  0.00  0.00    +0.000 C 
ATOM     30  C   UNL     1      48.999  34.775  44.292  0.00  0.00    +0.000 C 
ENDBRANCH  24  26
ENDBRANCH   6  24
TORSDOF 3
