
 OpenBabel03242519413D

 25 27  0  0  1  0  0  0  0  0999 V2000
   48.0590   32.9380   41.8400 O   0  0  0  0  0  0  0  0  0  0  0  0
   47.1750   34.0760   41.3100 P   0  0  2  0  0  0  0  0  0  0  0  0
   45.5850   33.8680   41.9070 O   0  0  0  0  0  0  0  0  0  0  0  0
   44.3920   35.9210   44.6720 C   0  0  0  0  0  0  0  0  0  0  0  0
   44.6800   35.4880   43.3580 C   0  0  0  0  0  0  0  0  0  0  0  0
   45.3210   34.2550   43.2030 C   0  0  0  0  0  0  0  0  0  0  0  0
   45.6330   33.5400   44.3070 N   0  0  0  0  0  0  0  0  0  0  0  0
   45.3460   33.9800   45.5540 C   0  0  0  0  0  0  0  0  0  0  0  0
   44.7340   35.1510   45.7490 N   0  0  0  0  0  0  0  0  0  0  0  0
   43.8980   36.8710   44.8100 H   0  0  0  0  0  0  0  0  0  0  0  0
   44.3710   36.1670   42.5630 H   0  0  0  0  0  0  0  0  0  0  0  0
   45.6670   33.2810   46.3060 H   0  0  0  0  0  0  0  0  0  0  0  0
   47.1460   34.0170   39.6470 O   0  0  0  0  0  0  0  0  0  0  0  0
   46.6800   33.0260   38.8260 C   0  0  1  0  0  3  0  0  0  0  0  0
   45.8190   33.3580   37.8740 O   0  0  0  0  0  0  0  0  0  0  0  0
   46.5020   31.6890   38.2570 C   0  0  0  0  0  0  0  0  0  0  0  0
   47.5400   30.6980   38.7320 C   0  0  0  0  0  2  0  0  0  0  0  0
   47.0030   30.2250   40.0530 C   0  0  0  0  0  2  0  0  0  0  0  0
   45.6100   30.7130   40.1810 C   0  0  0  0  0  2  0  0  0  0  0  0
   45.1890   31.1080   38.8090 C   0  0  0  0  0  2  0  0  0  0  0  0
   47.7860   35.4880   41.9050 O   0  0  0  0  0  0  0  0  0  0  0  0
   49.0430   35.7920   41.4060 C   0  0  0  0  0  0  0  0  0  0  0  0
   49.4790   37.0590   41.7770 F   0  0  0  0  0  0  0  0  0  0  0  0
   49.9300   34.8190   41.7430 F   0  0  0  0  0  0  0  0  0  0  0  0
   48.9160   35.8260   40.0260 F   0  0  0  0  0  0  0  0  0  0  0  0
  2  1  2  1  0  0  0
  2 21  1  0  0  0  0
  2  3  1  0  0  0  0
  3  6  1  0  0  0  0
  4 10  1  0  0  0  0
  4  9  1  0  0  0  0
  5  4  2  0  0  0  0
  6  5  1  0  0  0  0
  6  7  2  0  0  0  0
  7  8  1  0  0  0  0
  8  9  2  0  0  0  0
  8 12  1  0  0  0  0
 11  5  1  0  0  0  0
 13  2  1  0  0  0  0
 14 13  1  6  0  0  0
 15 16  1  0  0  0  0
 15 14  1  0  0  0  0
 16 17  1  0  0  0  0
 16 20  1  0  0  0  0
 16 14  1  0  0  0  0
 17 18  1  0  0  0  0
 18 19  1  0  0  0  0
 20 19  1  0  0  0  0
 22 24  1  0  0  0  0
 22 23  1  0  0  0  0
 22 21  1  0  0  0  0
 25 22  1  0  0  0  0
M  END
>  <minimizedAffinity>
-4.71213531

>  <minimizedRMSD>
0.225472555

$$$$
