REMARK  Name = 
REMARK  6 active torsions:
REMARK  status: ('A' for Active; 'I' for Inactive)
REMARK    1  A    between atoms: C_1  and  C_4
REMARK    2  A    between atoms: C_1  and  O_8
REMARK    3  A    between atoms: O_8  and  P_10
REMARK    4  A    between atoms: P_10  and  O_11
REMARK    5  A    between atoms: P_10  and  O_12
REMARK    6  A    between atoms: O_12  and  C_19
REMARK                            x       y       z     vdW  Elec       q    Type
REMARK                         _______ _______ _______ _____ _____    ______ ____
ROOT
ATOM      1  C   UNL     1      47.170  33.966  42.487  0.00  0.00    +0.000 C 
ATOM      2  H   UNL     1      47.367  34.810  41.774  0.00  0.00    +0.000 HD
ATOM      3  H   UNL     1      46.617  33.199  41.871  0.00  0.00    +0.000 HD
ENDROOT
BRANCH   1   6
ATOM      4  C   UNL     1      45.294  34.231  45.691  0.00  0.00    +0.000 A 
ATOM      5  C   UNL     1      46.167  33.745  44.710  0.00  0.00    +0.000 A 
ATOM      6  C   UNL     1      46.259  34.465  43.520  0.00  0.00    +0.000 A 
ATOM      7  N   UNL     1      45.502  35.599  43.370  0.00  0.00    +0.000 NA
ATOM      8  C   UNL     1      44.671  36.032  44.346  0.00  0.00    +0.000 A 
ATOM      9  N   UNL     1      44.576  35.348  45.489  0.00  0.00    +0.000 NA
ATOM     10  H   UNL     1      45.159  33.735  46.648  0.00  0.00    +0.000 HD
ATOM     11  H   UNL     1      46.725  32.842  44.918  0.00  0.00    +0.000 HD
ATOM     12  H   UNL     1      44.166  36.938  44.033  0.00  0.00    +0.000 HD
ENDBRANCH   1   6
BRANCH   1  13
ATOM     13  O   UNL     1      48.322  33.417  43.024  0.00  0.00    +0.000 OA
BRANCH  13  15
ATOM     14  O   UNL     1      50.666  33.114  41.901  0.00  0.00    +0.000 OA
ATOM     15  P   UNL     1      49.627  34.143  42.217  0.00  0.00    +0.000 P 
BRANCH  15  16
ATOM     16  O   UNL     1      50.211  35.350  43.249  0.00  0.00    +0.000 OA
ATOM     17  H   UNL     1      50.701  34.919  43.994  0.00  0.00    +0.000 HD
ENDBRANCH  15  16
BRANCH  15  18
ATOM     18  O   UNL     1      49.057  34.815  40.784  0.00  0.00    +0.000 OA
BRANCH  18  19
ATOM     19  C   UNL     1      49.910  35.836  40.386  0.00  0.00    +0.000 C 
ATOM     20  C   UNL     1      49.645  36.287  38.964  0.00  0.00    +0.000 C 
ATOM     21  C   UNL     1      50.451  37.568  38.909  0.00  0.00    +0.000 C 
ATOM     22  C   UNL     1      50.475  38.105  40.324  0.00  0.00    +0.000 C 
ATOM     23  C   UNL     1      49.612  37.131  41.137  0.00  0.00    +0.000 C 
ENDBRANCH  18  19
ENDBRANCH  15  18
ENDBRANCH  13  15
ENDBRANCH   1  13
TORSDOF 6
