
 OpenBabel03242521433D

 34 36  0  0  1  0  0  0  0  0999 V2000
   45.1570   35.3760   44.3960 C   0  0  0  0  0  0  0  0  0  0  0  0
   46.1310   34.6910   43.6520 C   0  0  0  0  0  0  0  0  0  0  0  0
   46.7630   33.5740   44.2360 C   0  0  0  0  0  0  0  0  0  0  0  0
   46.3980   33.2310   45.4670 N   0  0  0  0  0  0  0  0  0  0  0  0
   45.4550   33.9050   46.1690 C   0  0  0  0  0  0  0  0  0  0  0  0
   44.8320   34.9810   45.6350 N   0  0  0  0  0  0  0  0  0  0  0  0
   46.3420   35.0680   42.6550 H   0  0  0  0  0  0  0  0  0  0  0  0
   45.2050   33.5690   47.1700 H   0  0  0  0  0  0  0  0  0  0  0  0
   48.6560   33.7960   42.6350 C   0  0  2  0  0  0  0  0  0  0  0  0
   47.7640   32.8990   43.4190 C   0  0  2  0  0  0  0  0  0  0  0  0
   47.2120   32.0910   42.3820 O   0  0  0  0  0  0  0  0  0  0  0  0
   48.3320   31.6800   41.6950 C   0  0  0  0  0  0  0  0  0  0  0  0
   49.4210   32.7080   41.8530 C   0  0  1  0  0  0  0  0  0  0  0  0
   48.1360   34.3690   41.8450 H   0  0  0  0  0  0  0  0  0  0  0  0
   48.3690   32.2260   44.0550 H   0  0  0  0  0  0  0  0  0  0  0  0
   48.0770   31.6320   40.6140 H   0  0  0  0  0  0  0  0  0  0  0  0
   48.6620   30.6630   41.9870 H   0  0  0  0  0  0  0  0  0  0  0  0
   50.2780   32.3710   42.4580 H   0  0  0  0  0  0  0  0  0  0  0  0
   49.4530   34.6090   43.3810 O   0  0  0  0  0  0  0  0  0  0  0  0
   49.4020   34.3590   44.3400 H   0  0  0  0  0  0  0  0  0  0  0  0
   49.8590   33.2520   40.6520 O   0  0  0  0  0  0  0  0  0  0  0  0
   49.1330   33.7260   40.1980 H   0  0  0  0  0  0  0  0  0  0  0  0
   44.4960   36.5700   43.7710 C   0  0  0  0  0  0  0  0  0  0  0  0
   44.6050   36.5320   42.6870 H   0  0  0  0  0  0  0  0  0  0  0  0
   43.4380   36.5310   44.1200 H   0  0  0  0  0  0  0  0  0  0  0  0
   45.2700   39.0410   43.7940 C   0  0  0  0  0  0  0  0  0  0  0  0
   44.7800   39.1810   42.6400 O   0  0  0  0  0  0  0  0  0  0  0  0
   45.1110   37.7440   44.3640 N   0  0  0  0  0  0  0  0  0  0  0  0
   45.4910   37.6150   45.3450 H   0  0  0  0  0  0  0  0  0  0  0  0
   45.9660   40.1060   44.5520 C   0  0  0  0  0  3  0  0  0  0  0  0
   45.8680   39.7670   46.0240 C   0  0  0  0  0  2  0  0  0  0  0  0
   44.4850   40.2240   46.4520 C   0  0  0  0  0  2  0  0  0  0  0  0
   44.3050   41.4890   45.6510 C   0  0  0  0  0  2  0  0  0  0  0  0
   45.1520   41.3730   44.4090 C   0  0  0  0  0  2  0  0  0  0  0  0
  1  6  1  0  0  0  0
  2  3  1  0  0  0  0
  2  1  2  0  0  0  0
  3  4  2  0  0  0  0
  4  5  1  0  0  0  0
  5  8  1  0  0  0  0
  6  5  2  0  0  0  0
  7  2  1  0  0  0  0
  9 14  1  6  0  0  0
  9 19  1  0  0  0  0
  9 10  1  0  0  0  0
 10 15  1  1  0  0  0
 10  3  1  0  0  0  0
 11 10  1  0  0  0  0
 12 13  1  0  0  0  0
 12 17  1  0  0  0  0
 12 11  1  0  0  0  0
 13 18  1  1  0  0  0
 13  9  1  0  0  0  0
 16 12  1  0  0  0  0
 19 20  1  0  0  0  0
 21 13  1  0  0  0  0
 22 21  1  0  0  0  0
 23 25  1  0  0  0  0
 23 28  1  0  0  0  0
 23  1  1  0  0  0  0
 24 23  1  0  0  0  0
 26 28  1  0  0  0  0
 26 30  1  0  0  0  0
 27 26  2  0  0  0  0
 28 29  1  0  0  0  0
 30 31  1  0  0  0  0
 31 32  1  0  0  0  0
 33 32  1  0  0  0  0
 34 30  1  0  0  0  0
 34 33  1  0  0  0  0
M  END
>  <minimizedAffinity>
-3.04755116

>  <minimizedRMSD>
0.695532262

$$$$
