
 OpenBabel03242517003D

 28 30  0  0  0  0  0  0  0  0999 V2000
   46.6550   34.7770   41.9620 C   0  0  0  0  0  0  0  0  0  0  0  0
   47.9400   35.2850   41.9030 C   0  0  0  0  0  0  0  0  0  0  0  0
   48.6660   35.1130   40.7400 C   0  0  0  0  0  0  0  0  0  0  0  0
   48.1140   34.4520   39.6800 C   0  0  0  0  0  0  0  0  0  0  0  0
   46.8490   33.9370   39.7020 C   0  0  0  0  0  0  0  0  0  0  0  0
   46.1290   34.1230   40.8920 C   0  0  0  0  0  0  0  0  0  0  0  0
   48.3810   35.8100   42.7440 H   0  0  0  0  0  0  0  0  0  0  0  0
   49.6720   35.4820   40.6220 H   0  0  0  0  0  0  0  0  0  0  0  0
   48.6840   34.3170   38.7700 H   0  0  0  0  0  0  0  0  0  0  0  0
   46.3750   33.4080   38.8850 H   0  0  0  0  0  0  0  0  0  0  0  0
   44.5190   36.1900   44.7450 C   0  0  0  0  0  0  0  0  0  0  0  0
   45.1730   36.0960   43.4980 C   0  0  0  0  0  0  0  0  0  0  0  0
   45.9330   34.9870   43.2140 C   0  0  0  0  0  0  0  0  0  0  0  0
   46.0120   34.0230   44.1740 N   0  0  0  0  0  0  0  0  0  0  0  0
   45.3910   34.1010   45.3700 C   0  0  0  0  0  0  0  0  0  0  0  0
   44.6350   35.2050   45.6530 N   0  0  0  0  0  0  0  0  0  0  0  0
   43.9200   37.0540   44.9820 H   0  0  0  0  0  0  0  0  0  0  0  0
   45.0940   36.8630   42.7670 H   0  0  0  0  0  0  0  0  0  0  0  0
   45.5200   33.2760   46.0660 H   0  0  0  0  0  0  0  0  0  0  0  0
   43.5050   34.1680   40.8690 C   0  0  0  0  0  0  0  0  0  0  0  0
   43.2380   35.3260   40.5090 O   0  0  0  0  0  0  0  0  0  0  0  0
   44.8080   33.6400   41.0550 N   0  0  0  0  0  0  0  0  0  0  0  0
   44.9990   32.6480   41.3960 H   0  0  0  0  0  0  0  0  0  0  0  0
   42.4210   33.1530   41.1590 C   0  0  0  0  0  3  0  0  0  0  0  0
   42.4430   32.2230   39.9590 C   0  0  0  0  0  2  0  0  0  0  0  0
   41.3850   32.6940   39.0040 C   0  0  0  0  0  2  0  0  0  0  0  0
   40.5950   33.7630   39.7080 C   0  0  0  0  0  2  0  0  0  0  0  0
   41.1200   33.8850   41.1110 C   0  0  0  0  0  2  0  0  0  0  0  0
  1 13  1  0  0  0  0
  2  1  1  0  0  0  0
  2  7  1  0  0  0  0
  3  2  2  0  0  0  0
  4  5  2  0  0  0  0
  4  3  1  0  0  0  0
  5  6  1  0  0  0  0
  6 22  1  0  0  0  0
  6  1  2  0  0  0  0
  8  3  1  0  0  0  0
  9  4  1  0  0  0  0
 10  5  1  0  0  0  0
 11 17  1  0  0  0  0
 11 16  1  0  0  0  0
 12 11  2  0  0  0  0
 13 12  1  0  0  0  0
 13 14  2  0  0  0  0
 14 15  1  0  0  0  0
 15 16  2  0  0  0  0
 15 19  1  0  0  0  0
 18 12  1  0  0  0  0
 20 22  1  0  0  0  0
 20 24  1  0  0  0  0
 21 20  2  0  0  0  0
 22 23  1  0  0  0  0
 25 24  1  0  0  0  0
 26 27  1  0  0  0  0
 26 25  1  0  0  0  0
 27 28  1  0  0  0  0
 28 24  1  0  0  0  0
M  END
>  <minimizedAffinity>
-5.96076965

>  <minimizedRMSD>
0.34034723

$$$$
