
 OpenBabel03252503353D

 18 19  0  0  0  0  0  0  0  0999 V2000
   44.5050   36.0400   44.5830 C   0  0  0  0  0  0  0  0  0  0  0  0
   45.1640   35.9480   43.3510 C   0  0  0  0  0  0  0  0  0  0  0  0
   46.0500   34.8960   43.1310 C   0  0  0  0  0  0  0  0  0  0  0  0
   46.2510   33.9820   44.1220 N   0  0  0  0  0  0  0  0  0  0  0  0
   45.5880   34.1060   45.3090 C   0  0  0  0  0  0  0  0  0  0  0  0
   44.7270   35.1250   45.5310 N   0  0  0  0  0  0  0  0  0  0  0  0
   43.8560   36.8980   44.6100 H   0  0  0  0  0  0  0  0  0  0  0  0
   45.0780   36.6140   42.5050 H   0  0  0  0  0  0  0  0  0  0  0  0
   45.7160   33.4070   46.1220 H   0  0  0  0  0  0  0  0  0  0  0  0
   46.2610   33.9200   40.8550 C   0  0  0  0  0  0  0  0  0  0  0  0
   45.1730   33.3070   41.1400 O   0  0  0  0  0  0  0  0  0  0  0  0
   46.7560   34.7380   41.9050 N   0  0  0  0  0  0  0  0  0  0  0  0
   47.6680   35.2810   41.8610 H   0  0  0  0  0  0  0  0  0  0  0  0
   47.0120   33.8680   39.6080 C   0  0  0  0  0  3  0  0  0  0  0  0
   46.3140   33.1650   38.4660 C   0  0  0  0  0  2  0  0  0  0  0  0
   47.4350   33.2260   37.4170 C   0  0  0  0  0  2  0  0  0  0  0  0
   48.7340   33.1060   38.2120 C   0  0  0  0  0  2  0  0  0  0  0  0
   48.2870   33.0670   39.6790 C   0  0  0  0  0  2  0  0  0  0  0  0
  1  7  1  0  0  0  0
  1  6  1  0  0  0  0
  2  1  2  0  0  0  0
  3  2  1  0  0  0  0
  3  4  2  0  0  0  0
  4  5  1  0  0  0  0
  5  6  2  0  0  0  0
  5  9  1  0  0  0  0
  8  2  1  0  0  0  0
 10 11  2  0  0  0  0
 10 12  1  0  0  0  0
 12  3  1  0  0  0  0
 13 12  1  0  0  0  0
 14 18  1  0  0  0  0
 14 10  1  0  0  0  0
 15 14  1  0  0  0  0
 16 17  1  0  0  0  0
 16 15  1  0  0  0  0
 17 18  1  0  0  0  0
M  END
>  <minimizedAffinity>
-3.98206592

>  <minimizedRMSD>
0.435104758

$$$$
