
 OpenBabel03242519413D

 25 27  0  0  1  0  0  0  0  0999 V2000
   47.9610   32.8760   41.6650 O   0  0  0  0  0  0  0  0  0  0  0  0
   47.1090   34.0920   41.2740 P   0  0  2  0  0  0  0  0  0  0  0  0
   45.5300   33.8880   41.9010 O   0  0  0  0  0  0  0  0  0  0  0  0
   44.4060   35.9260   44.7060 C   0  0  0  0  0  0  0  0  0  0  0  0
   44.6650   35.5020   43.3820 C   0  0  0  0  0  0  0  0  0  0  0  0
   45.2930   34.2660   43.2040 C   0  0  0  0  0  0  0  0  0  0  0  0
   45.6200   33.5380   44.2970 N   0  0  0  0  0  0  0  0  0  0  0  0
   45.3600   33.9690   45.5520 C   0  0  0  0  0  0  0  0  0  0  0  0
   44.7620   35.1440   45.7690 N   0  0  0  0  0  0  0  0  0  0  0  0
   43.9210   36.8780   44.8610 H   0  0  0  0  0  0  0  0  0  0  0  0
   44.3460   36.1910   42.6000 H   0  0  0  0  0  0  0  0  0  0  0  0
   45.6890   33.2620   46.2920 H   0  0  0  0  0  0  0  0  0  0  0  0
   47.0290   34.1940   39.6150 O   0  0  0  0  0  0  0  0  0  0  0  0
   46.8950   33.1910   38.6940 C   0  0  1  0  0  3  0  0  0  0  0  0
   45.6720   32.7690   38.4050 O   0  0  0  0  0  0  0  0  0  0  0  0
   47.2720   32.1720   37.7120 C   0  0  0  0  0  0  0  0  0  0  0  0
   48.2170   32.6890   36.6530 C   0  0  0  0  0  2  0  0  0  0  0  0
   49.5690   32.5900   37.3000 C   0  0  0  0  0  2  0  0  0  0  0  0
   49.4210   31.8030   38.5460 C   0  0  0  0  0  2  0  0  0  0  0  0
   48.1120   31.1040   38.4340 C   0  0  0  0  0  2  0  0  0  0  0  0
   47.7940   35.4160   41.9800 O   0  0  0  0  0  0  0  0  0  0  0  0
   49.0320   35.7390   41.4480 C   0  0  0  0  0  0  0  0  0  0  0  0
   49.4380   37.0290   41.7700 F   0  0  0  0  0  0  0  0  0  0  0  0
   49.9520   34.8030   41.7970 F   0  0  0  0  0  0  0  0  0  0  0  0
   48.8790   35.7260   40.0700 F   0  0  0  0  0  0  0  0  0  0  0  0
  2  1  2  1  0  0  0
  2  3  1  0  0  0  0
  2 21  1  0  0  0  0
  3  6  1  0  0  0  0
  4 10  1  0  0  0  0
  4  9  1  0  0  0  0
  5  4  2  0  0  0  0
  6  5  1  0  0  0  0
  6  7  2  0  0  0  0
  7  8  1  0  0  0  0
  8  9  2  0  0  0  0
  8 12  1  0  0  0  0
 11  5  1  0  0  0  0
 13  2  1  0  0  0  0
 14 13  1  6  0  0  0
 15 14  1  0  0  0  0
 16 15  1  0  0  0  0
 16 20  1  0  0  0  0
 16 14  1  0  0  0  0
 17 18  1  0  0  0  0
 17 16  1  0  0  0  0
 18 19  1  0  0  0  0
 20 19  1  0  0  0  0
 22 23  1  0  0  0  0
 22 24  1  0  0  0  0
 22 21  1  0  0  0  0
 25 22  1  0  0  0  0
M  END
>  <minimizedAffinity>
-5.03643274

>  <minimizedRMSD>
1.10532677

$$$$
