
 OpenBabel03252509313D

 23 24  0  0  0  0  0  0  0  0999 V2000
   45.6810   33.4740   43.6510 C   0  0  0  0  0  0  0  0  0  0  0  0
   44.6330   33.3650   43.2650 H   0  0  0  0  0  0  0  0  0  0  0  0
   46.3240   32.9800   42.8660 H   0  0  0  0  0  0  0  0  0  0  0  0
   45.8820   32.6130   47.2670 C   0  0  0  0  0  0  0  0  0  0  0  0
   45.7870   33.3740   46.0960 C   0  0  0  0  0  0  0  0  0  0  0  0
   45.7800   32.6870   44.8830 C   0  0  0  0  0  0  0  0  0  0  0  0
   45.8640   31.3180   44.8960 N   0  0  0  0  0  0  0  0  0  0  0  0
   45.9540   30.6230   46.0530 C   0  0  0  0  0  0  0  0  0  0  0  0
   45.9620   31.2730   47.2190 N   0  0  0  0  0  0  0  0  0  0  0  0
   45.8950   33.0640   48.2550 H   0  0  0  0  0  0  0  0  0  0  0  0
   45.7240   34.4510   46.1840 H   0  0  0  0  0  0  0  0  0  0  0  0
   46.0110   29.5610   45.8480 H   0  0  0  0  0  0  0  0  0  0  0  0
   46.0670   34.7900   43.8370 O   0  0  0  0  0  0  0  0  0  0  0  0
   45.2830   37.1610   43.0530 O   0  0  0  0  0  0  0  0  0  0  0  0
   44.8060   35.7550   43.2360 P   0  0  2  0  0  0  0  0  0  0  0  0
   43.5470   35.6450   44.3610 O   0  0  0  0  0  0  0  0  0  0  0  0
   43.7910   36.1760   45.1610 H   0  0  0  0  0  0  0  0  0  0  0  0
   44.3250   35.1330   41.7480 O   0  0  0  0  0  0  0  0  0  0  0  0
   42.9660   34.8490   41.7890 C   0  0  0  0  0  3  0  0  0  0  0  0
   42.1800   35.6450   40.7670 C   0  0  0  0  0  2  0  0  0  0  0  0
   40.8470   34.9290   40.8010 C   0  0  0  0  0  2  0  0  0  0  0  0
   41.1540   33.4970   41.1890 C   0  0  0  0  0  2  0  0  0  0  0  0
   42.6820   33.4320   41.2990 C   0  0  0  0  0  2  0  0  0  0  0  0
  1 13  1  0  0  0  0
  1  6  1  0  0  0  0
  2  1  1  0  0  0  0
  3  1  1  0  0  0  0
  4 10  1  0  0  0  0
  5 11  1  0  0  0  0
  5  4  2  0  0  0  0
  6  7  2  0  0  0  0
  6  5  1  0  0  0  0
  7  8  1  0  0  0  0
  8  9  2  0  0  0  0
  9  4  1  0  0  0  0
 12  8  1  0  0  0  0
 15 14  2  6  0  0  0
 15 13  1  0  0  0  0
 15 16  1  0  0  0  0
 16 17  1  0  0  0  0
 18 19  1  0  0  0  0
 18 15  1  0  0  0  0
 20 21  1  0  0  0  0
 20 19  1  0  0  0  0
 21 22  1  0  0  0  0
 22 23  1  0  0  0  0
 23 19  1  0  0  0  0
M  END
>  <minimizedAffinity>
-4.22281551

>  <minimizedRMSD>
6.08247519

$$$$
