REMARK  Name = 
REMARK  5 active torsions:
REMARK  status: ('A' for Active; 'I' for Inactive)
REMARK    1  A    between atoms: C_2  and  C_14
REMARK    2  A    between atoms: C_5  and  C_8
REMARK    3  A    between atoms: C_7  and  O_12
REMARK    4  A    between atoms: C_11  and  O_13
REMARK    5  A    between atoms: C_14  and  C_26
REMARK                            x       y       z     vdW  Elec       q    Type
REMARK                         _______ _______ _______ _____ _____    ______ ____
ROOT
ATOM      1  C   UNL     1      44.663  35.391  45.208  0.00  0.00    +0.000 A 
ATOM      2  C   UNL     1      45.387  35.233  44.017  0.00  0.00    +0.000 A 
ATOM      3  C   UNL     1      46.214  34.106  43.925  0.00  0.00    +0.000 A 
ATOM      4  N   UNL     1      46.280  33.241  44.955  0.00  0.00    +0.000 NA
ATOM      5  C   UNL     1      45.573  33.422  46.082  0.00  0.00    +0.000 A 
ATOM      6  N   UNL     1      44.749  34.505  46.228  0.00  0.00    +0.000 NA
ATOM      7  H   UNL     1      43.994  36.199  45.419  0.00  0.00    +0.000 HD
ATOM      8  H   UNL     1      46.757  34.005  43.011  0.00  0.00    +0.000 HD
ENDROOT
BRANCH   5  10
ATOM      9  C   UNL     1      47.199  32.159  47.489  0.00  0.00    +0.000 C 
ATOM     10  C   UNL     1      45.719  32.404  47.121  0.00  0.00    +0.000 C 
ATOM     11  O   UNL     1      45.222  32.753  48.346  0.00  0.00    +0.000 OA
ATOM     12  C   UNL     1      45.722  31.874  49.261  0.00  0.00    +0.000 C 
ATOM     13  C   UNL     1      46.936  31.197  48.661  0.00  0.00    +0.000 C 
ATOM     14  H   UNL     1      47.756  31.701  46.674  0.00  0.00    +0.000 HD
ATOM     15  H   UNL     1      45.332  31.433  46.740  0.00  0.00    +0.000 HD
ATOM     16  H   UNL     1      46.100  32.480  50.124  0.00  0.00    +0.000 HD
ATOM     17  H   UNL     1      44.998  31.177  49.685  0.00  0.00    +0.000 HD
ATOM     18  H   UNL     1      46.609  30.230  48.227  0.00  0.00    +0.000 HD
BRANCH   9  19
ATOM     19  O   UNL     1      47.723  33.289  48.024  0.00  0.00    +0.000 OA
ATOM     20  H   UNL     1      47.048  33.837  48.471  0.00  0.00    +0.000 HD
ENDBRANCH   9  19
BRANCH  13  21
ATOM     21  O   UNL     1      48.006  31.089  49.501  0.00  0.00    +0.000 OA
ATOM     22  H   UNL     1      48.792  30.875  48.960  0.00  0.00    +0.000 HD
ENDBRANCH  13  21
ENDBRANCH   5  10
BRANCH   2  23
ATOM     23  C   UNL     1      45.206  36.264  42.987  0.00  0.00    +0.000 C 
ATOM     24  H   UNL     1      45.127  37.263  43.397  0.00  0.00    +0.000 HD
ATOM     25  H   UNL     1      46.118  36.249  42.347  0.00  0.00    +0.000 HD
BRANCH  23  26
ATOM     26  C   UNL     1      44.068  35.888  42.066  0.00  0.00    +0.000 C 
ATOM     27  C   UNL     1      44.349  34.557  41.373  0.00  0.00    +0.000 C 
ATOM     28  C   UNL     1      44.038  34.761  39.913  0.00  0.00    +0.000 C 
ATOM     29  C   UNL     1      43.105  35.956  39.949  0.00  0.00    +0.000 C 
ATOM     30  C   UNL     1      43.852  36.858  40.940  0.00  0.00    +0.000 C 
ENDBRANCH  23  26
ENDBRANCH   2  23
TORSDOF 5
