
 OpenBabel03252505343D

 26 28  0  0  0  0  0  0  0  0999 V2000
   46.7010   34.7800   42.1160 C   0  0  0  0  0  0  0  0  0  0  0  0
   47.9400   35.3450   41.9990 C   0  0  0  0  0  0  0  0  0  0  0  0
   48.7390   35.2730   40.8670 C   0  0  0  0  0  0  0  0  0  0  0  0
   48.2470   34.5750   39.7680 C   0  0  0  0  0  0  0  0  0  0  0  0
   46.9970   34.0040   39.8840 C   0  0  0  0  0  0  0  0  0  0  0  0
   46.2230   34.0940   41.0280 C   0  0  0  0  0  0  0  0  0  0  0  0
   48.3860   35.9070   42.8220 H   0  0  0  0  0  0  0  0  0  0  0  0
   49.7150   35.7400   40.8280 H   0  0  0  0  0  0  0  0  0  0  0  0
   48.8720   34.5220   38.8920 H   0  0  0  0  0  0  0  0  0  0  0  0
   46.6550   33.4700   39.0020 H   0  0  0  0  0  0  0  0  0  0  0  0
   44.4020   35.9960   44.8260 C   0  0  0  0  0  0  0  0  0  0  0  0
   45.0410   35.9580   43.5620 C   0  0  0  0  0  0  0  0  0  0  0  0
   45.9760   34.9360   43.3570 C   0  0  0  0  0  0  0  0  0  0  0  0
   46.2390   34.0340   44.3480 N   0  0  0  0  0  0  0  0  0  0  0  0
   45.5810   34.1380   45.5390 C   0  0  0  0  0  0  0  0  0  0  0  0
   44.6730   35.1080   45.7750 N   0  0  0  0  0  0  0  0  0  0  0  0
   45.8510   33.2160   46.5820 N   0  0  0  0  0  0  0  0  0  0  0  0
   43.6990   36.8140   44.8910 H   0  0  0  0  0  0  0  0  0  0  0  0
   44.8680   36.6440   42.7540 H   0  0  0  0  0  0  0  0  0  0  0  0
   46.6950   33.4720   47.1410 H   0  0  0  0  0  0  0  0  0  0  0  0
   45.0880   32.4950   46.4980 H   0  0  0  0  0  0  0  0  0  0  0  0
   44.8820   33.4590   41.0990 C   0  0  0  0  0  3  0  0  0  0  0  0
   43.8430   34.3180   40.3690 C   0  0  0  0  0  2  0  0  0  0  0  0
   42.8360   33.2390   39.9920 C   0  0  0  0  0  2  0  0  0  0  0  0
   43.7910   32.2230   39.3570 C   0  0  0  0  0  2  0  0  0  0  0  0
   44.8100   32.1050   40.4790 C   0  0  0  0  0  2  0  0  0  0  0  0
  1 13  1  0  0  0  0
  2  1  1  0  0  0  0
  2  7  1  0  0  0  0
  3  2  2  0  0  0  0
  4  5  2  0  0  0  0
  4  3  1  0  0  0  0
  5  6  1  0  0  0  0
  6 22  1  0  0  0  0
  6  1  2  0  0  0  0
  8  3  1  0  0  0  0
  9  4  1  0  0  0  0
 10  5  1  0  0  0  0
 11 18  1  0  0  0  0
 11 16  1  0  0  0  0
 12 11  2  0  0  0  0
 13 12  1  0  0  0  0
 13 14  2  0  0  0  0
 14 15  1  0  0  0  0
 15 16  2  0  0  0  0
 15 17  1  0  0  0  0
 17 20  1  0  0  0  0
 19 12  1  0  0  0  0
 21 17  1  0  0  0  0
 23 22  1  0  0  0  0
 24 23  1  0  0  0  0
 25 24  1  0  0  0  0
 25 26  1  0  0  0  0
 26 22  1  0  0  0  0
M  END
>  <minimizedAffinity>
-5.86618519

>  <minimizedRMSD>
1.3551532

$$$$
