
 OpenBabel03242523143D

 21 23  0  0  0  0  0  0  0  0999 V2000
   45.9080   34.4100   42.7550 C   0  0  0  0  0  0  0  0  0  0  0  0
   47.2590   34.0480   42.8520 C   0  0  0  0  0  0  0  0  0  0  0  0
   47.6780   33.4710   44.0500 C   0  0  0  0  0  0  0  0  0  0  0  0
   46.7520   33.2930   45.0570 N   0  0  0  0  0  0  0  0  0  0  0  0
   45.4580   33.6610   44.9170 C   0  0  0  0  0  0  0  0  0  0  0  0
   45.0430   34.2270   43.7450 N   0  0  0  0  0  0  0  0  0  0  0  0
   48.7120   33.1760   44.1620 H   0  0  0  0  0  0  0  0  0  0  0  0
   44.8830   33.4470   45.8070 H   0  0  0  0  0  0  0  0  0  0  0  0
   48.2530   34.3480   41.7860 C   0  0  0  0  0  0  0  0  0  0  0  0
   48.7280   35.6700   41.5370 C   0  0  0  0  0  0  0  0  0  0  0  0
   49.6840   34.7590   42.2390 C   0  0  0  0  0  0  0  0  0  0  0  0
   48.4680   33.4220   41.1770 H   0  0  0  0  0  0  0  0  0  0  0  0
   48.9770   35.9410   40.4550 H   0  0  0  0  0  0  0  0  0  0  0  0
   48.6050   36.6080   42.1110 H   0  0  0  0  0  0  0  0  0  0  0  0
   50.5290   34.4340   41.6460 H   0  0  0  0  0  0  0  0  0  0  0  0
   49.7650   34.8200   43.3390 H   0  0  0  0  0  0  0  0  0  0  0  0
   45.1850   34.9020   41.5800 C   0  0  0  0  0  0  0  0  0  0  0  0
   44.7920   33.6840   40.6730 C   0  0  0  0  0  0  0  0  0  0  0  0
   43.5730   34.2170   39.9420 C   0  0  0  0  0  0  0  0  0  0  0  0
   43.1090   35.4500   40.6650 C   0  0  0  0  0  0  0  0  0  0  0  0
   43.8320   35.3610   41.9800 C   0  0  0  0  0  0  0  0  0  0  0  0
  1  2  2  0  0  0  0
  1  6  1  0  0  0  0
  2  3  1  0  0  0  0
  3  7  1  0  0  0  0
  3  4  2  0  0  0  0
  5  4  1  0  0  0  0
  5  8  1  0  0  0  0
  6  5  2  0  0  0  0
  9 11  1  0  0  0  0
  9  2  1  0  0  0  0
 10  9  1  0  0  0  0
 10 14  1  0  0  0  0
 10 11  1  0  0  0  0
 11 16  1  0  0  0  0
 12  9  1  0  0  0  0
 13 10  1  0  0  0  0
 15 11  1  0  0  0  0
 17 21  1  0  0  0  0
 17  1  1  0  0  0  0
 18 17  1  0  0  0  0
 19 20  1  0  0  0  0
 19 18  1  0  0  0  0
 20 21  1  0  0  0  0
M  END
>  <minimizedAffinity>
-4.40218878

>  <minimizedRMSD>
1.70023155

$$$$
