
 OpenBabel03252503243D

 43 48  0  0  1  0  0  0  0  0999 V2000
   47.1120   33.2280   40.9670 C   0  0  1  0  0  0  0  0  0  0  0  0
   47.4060   34.5050   40.3250 C   0  0  0  0  0  0  0  0  0  0  0  0
   48.5310   33.5620   40.5350 C   0  0  2  0  0  0  0  0  0  0  0  0
   46.6020   32.4290   40.4010 H   0  0  0  0  0  0  0  0  0  0  0  0
   47.4850   35.4250   40.9880 H   0  0  0  0  0  0  0  0  0  0  0  0
   46.8950   34.7200   39.4030 H   0  0  0  0  0  0  0  0  0  0  0  0
   49.2620   33.6430   41.3450 H   0  0  0  0  0  0  0  0  0  0  0  0
   49.0000   32.7920   39.3500 C   0  0  0  0  0  0  0  0  0  0  0  0
   49.8530   31.7110   39.4190 C   0  0  0  0  0  0  0  0  0  0  0  0
   50.2570   31.0530   38.2730 C   0  0  0  0  0  0  0  0  0  0  0  0
   49.8130   31.4670   37.0360 C   0  0  0  0  0  0  0  0  0  0  0  0
   50.1940   30.8390   35.8890 N   0  0  0  0  0  0  0  0  0  0  0  0
   49.7420   31.2680   34.6890 C   0  0  0  0  0  0  0  0  0  0  0  0
   48.8660   32.3690   34.5280 C   0  0  0  0  0  0  0  0  0  0  0  0
   48.4710   33.0140   35.6780 C   0  0  0  0  0  0  0  0  0  0  0  0
   48.9460   32.5590   36.9080 C   0  0  0  0  0  0  0  0  0  0  0  0
   48.5710   33.1830   38.0820 C   0  0  0  0  0  0  0  0  0  0  0  0
   50.1830   31.4110   40.4010 H   0  0  0  0  0  0  0  0  0  0  0  0
   50.9330   30.1980   38.3380 H   0  0  0  0  0  0  0  0  0  0  0  0
   50.0550   30.7570   33.7870 H   0  0  0  0  0  0  0  0  0  0  0  0
   48.5500   32.6480   33.5320 H   0  0  0  0  0  0  0  0  0  0  0  0
   47.8040   33.8600   35.6120 H   0  0  0  0  0  0  0  0  0  0  0  0
   47.9070   34.0200   37.9100 H   0  0  0  0  0  0  0  0  0  0  0  0
   45.5660   33.5370   42.9340 C   0  0  0  0  0  0  0  0  0  0  0  0
   46.8640   33.1610   42.4360 C   0  0  0  0  0  0  0  0  0  0  0  0
   47.8130   32.7630   43.3430 C   0  0  0  0  0  0  0  0  0  0  0  0
   47.4410   32.7580   44.6500 N   0  0  0  0  0  0  0  0  0  0  0  0
   46.2380   33.1070   45.1070 C   0  0  0  0  0  0  0  0  0  0  0  0
   45.2880   33.5010   44.2460 N   0  0  0  0  0  0  0  0  0  0  0  0
   44.8060   33.8530   42.2400 H   0  0  0  0  0  0  0  0  0  0  0  0
   48.7860   32.4770   43.0030 H   0  0  0  0  0  0  0  0  0  0  0  0
   45.9960   33.0260   46.5690 C   0  0  2  0  0  0  0  0  0  0  0  0
   46.9140   32.3850   47.4880 C   0  0  0  0  0  0  0  0  0  0  0  0
   45.6540   31.6300   47.1010 C   0  0  2  0  0  0  0  0  0  0  0  0
   45.2670   33.8350   46.8970 H   0  0  0  0  0  0  0  0  0  0  0  0
   47.9050   32.0860   47.1080 H   0  0  0  0  0  0  0  0  0  0  0  0
   46.9820   32.8340   48.5000 H   0  0  0  0  0  0  0  0  0  0  0  0
   44.9000   31.6450   47.9360 H   0  0  0  0  0  0  0  0  0  0  0  0
   45.8260   30.3940   46.2960 C   0  0  0  0  0  3  0  0  0  0  0  0
   44.6770   29.4490   46.7230 C   0  0  0  0  0  2  0  0  0  0  0  0
   45.1150   29.0950   48.1260 C   0  0  0  0  0  2  0  0  0  0  0  0
   46.6170   29.0630   48.0850 C   0  0  0  0  0  2  0  0  0  0  0  0
   46.9830   29.5210   46.7080 C   0  0  0  0  0  2  0  0  0  0  0  0
  1  4  1  6  0  0  0
  1 25  1  0  0  0  0
  2  3  1  0  0  0  0
  2  1  1  0  0  0  0
  2  5  1  0  0  0  0
  3  1  1  0  0  0  0
  3  7  1  1  0  0  0
  6  2  1  0  0  0  0
  8  9  1  0  0  0  0
  8  3  1  0  0  0  0
  9 18  1  0  0  0  0
 10 19  1  0  0  0  0
 10  9  2  0  0  0  0
 11 10  1  0  0  0  0
 12 11  2  0  0  0  0
 13 12  1  0  0  0  0
 14 13  2  0  0  0  0
 14 15  1  0  0  0  0
 15 16  2  0  0  0  0
 16 11  1  0  0  0  0
 16 17  1  0  0  0  0
 17  8  2  0  0  0  0
 20 13  1  0  0  0  0
 21 14  1  0  0  0  0
 22 15  1  0  0  0  0
 23 17  1  0  0  0  0
 24 29  1  0  0  0  0
 25 24  2  0  0  0  0
 25 26  1  0  0  0  0
 26 27  2  0  0  0  0
 27 28  1  0  0  0  0
 28 32  1  0  0  0  0
 29 28  2  0  0  0  0
 30 24  1  0  0  0  0
 31 26  1  0  0  0  0
 32 35  1  1  0  0  0
 32 34  1  0  0  0  0
 32 33  1  0  0  0  0
 33 37  1  0  0  0  0
 34 33  1  0  0  0  0
 34 38  1  1  0  0  0
 36 33  1  0  0  0  0
 39 43  1  0  0  0  0
 39 40  1  0  0  0  0
 39 34  1  0  0  0  0
 40 41  1  0  0  0  0
 42 41  1  0  0  0  0
 43 42  1  0  0  0  0
M  END
>  <minimizedAffinity>
-5.04547405

>  <minimizedRMSD>
2.12166882

$$$$
