
 OpenBabel03252504253D

 17 18  0  0  0  0  0  0  0  0999 V2000
   44.2710   35.8650   43.8120 C   0  0  0  0  0  0  0  0  0  0  0  0
   44.2220   35.0640   42.6790 C   0  0  0  0  0  0  0  0  0  0  0  0
   44.7320   33.7680   42.7820 C   0  0  0  0  0  0  0  0  0  0  0  0
   45.2400   33.3820   43.9720 N   0  0  0  0  0  0  0  0  0  0  0  0
   45.2770   34.1780   45.0560 C   0  0  0  0  0  0  0  0  0  0  0  0
   44.7900   35.4450   45.0000 N   0  0  0  0  0  0  0  0  0  0  0  0
   43.9030   36.8890   43.8450 H   0  0  0  0  0  0  0  0  0  0  0  0
   44.6750   33.1880   41.8910 H   0  0  0  0  0  0  0  0  0  0  0  0
   45.6850   33.8420   45.9820 H   0  0  0  0  0  0  0  0  0  0  0  0
   43.6260   35.6860   41.4860 C   0  0  0  0  0  0  0  0  0  0  0  0
   43.4520   36.7430   41.6380 H   0  0  0  0  0  0  0  0  0  0  0  0
   44.3180   35.5830   40.6090 H   0  0  0  0  0  0  0  0  0  0  0  0
   42.3200   35.0140   41.1560 C   0  0  0  0  0  3  0  0  0  0  0  0
   42.1930   34.6850   39.6820 C   0  0  0  0  0  2  0  0  0  0  0  0
   40.7450   34.2190   39.6460 C   0  0  0  0  0  2  0  0  0  0  0  0
   40.0550   35.3020   40.4520 C   0  0  0  0  0  2  0  0  0  0  0  0
   41.1380   35.9310   41.3350 C   0  0  0  0  0  2  0  0  0  0  0  0
  1  7  1  0  0  0  0
  1  6  1  0  0  0  0
  2  3  1  0  0  0  0
  2  1  2  0  0  0  0
  3  4  2  0  0  0  0
  4  5  1  0  0  0  0
  5  9  1  0  0  0  0
  6  5  2  0  0  0  0
  8  3  1  0  0  0  0
 10 11  1  0  0  0  0
 10  2  1  0  0  0  0
 12 10  1  0  0  0  0
 13 17  1  0  0  0  0
 13 10  1  0  0  0  0
 14 13  1  0  0  0  0
 15 14  1  0  0  0  0
 15 16  1  0  0  0  0
 16 17  1  0  0  0  0
M  END
>  <minimizedAffinity>
-4.05921936

>  <minimizedRMSD>
1.2924881

$$$$
