
 OpenBabel03252508543D

 39 42  0  0  1  0  0  0  0  0999 V2000
   43.3120   34.4950   40.7980 C   0  0  0  0  0  0  0  0  0  0  0  0
   43.2950   35.7120   40.4630 O   0  0  0  0  0  0  0  0  0  0  0  0
   41.9350   34.1250   40.4990 N   0  0  0  0  0  0  0  0  0  0  0  0
   41.5550   34.3170   39.1040 C   0  0  0  0  0  0  0  0  0  0  0  0
   40.7940   35.6350   39.0770 C   0  0  0  0  0  0  0  0  0  0  0  0
   40.0140   35.7210   40.3900 C   0  0  0  0  0  0  0  0  0  0  0  0
   39.6310   34.3420   40.8920 C   0  0  0  0  0  0  0  0  0  0  0  0
   40.9040   33.6060   41.3670 C   0  0  1  0  0  0  0  0  0  0  0  0
   42.4200   34.3110   38.4250 H   0  0  0  0  0  0  0  0  0  0  0  0
   40.8630   33.4790   38.8100 H   0  0  0  0  0  0  0  0  0  0  0  0
   40.1150   35.7050   38.2100 H   0  0  0  0  0  0  0  0  0  0  0  0
   41.5350   36.4690   39.0590 H   0  0  0  0  0  0  0  0  0  0  0  0
   39.0860   36.2530   40.1560 H   0  0  0  0  0  0  0  0  0  0  0  0
   40.5500   36.3170   41.1580 H   0  0  0  0  0  0  0  0  0  0  0  0
   39.1430   33.8150   40.0590 H   0  0  0  0  0  0  0  0  0  0  0  0
   38.9660   34.5300   41.7690 H   0  0  0  0  0  0  0  0  0  0  0  0
   41.0590   33.8950   42.4150 H   0  0  0  0  0  0  0  0  0  0  0  0
   40.6020   32.1480   41.1860 C   0  0  0  0  0  3  0  0  0  0  0  0
   40.6680   31.3130   42.4140 C   0  0  0  0  0  2  0  0  0  0  0  0
   39.8390   30.0830   42.0150 C   0  0  0  0  0  2  0  0  0  0  0  0
   38.6130   30.7800   41.4510 C   0  0  0  0  0  2  0  0  0  0  0  0
   39.1180   32.0660   40.8280 C   0  0  0  0  0  2  0  0  0  0  0  0
   44.3580   33.7590   41.3010 O   0  0  0  0  0  0  0  0  0  0  0  0
   45.6930   34.0540   41.1700 C   0  0  0  0  0  0  0  0  0  0  0  0
   46.3570   34.5870   42.2930 C   0  0  0  0  0  0  0  0  0  0  0  0
   47.7140   34.8770   42.1270 C   0  0  0  0  0  0  0  0  0  0  0  0
   48.3130   34.6400   40.9300 N   0  0  0  0  0  0  0  0  0  0  0  0
   47.6350   34.1330   39.9000 C   0  0  0  0  0  0  0  0  0  0  0  0
   46.3250   33.8400   40.0190 N   0  0  0  0  0  0  0  0  0  0  0  0
   48.2280   35.2900   42.9970 H   0  0  0  0  0  0  0  0  0  0  0  0
   48.0990   33.9380   38.9380 H   0  0  0  0  0  0  0  0  0  0  0  0
   45.6390   34.8040   43.5200 C   0  0  0  0  0  0  0  0  0  0  0  0
   45.0050   36.0100   43.8260 C   0  0  0  0  0  0  0  0  0  0  0  0
   44.4530   35.7870   45.0680 C   0  0  0  0  0  0  0  0  0  0  0  0
   44.7260   34.5410   45.4900 N   0  0  0  0  0  0  0  0  0  0  0  0
   45.4360   33.9780   44.5440 N   0  0  0  0  0  0  0  0  0  0  0  0
   44.9580   36.9070   43.2330 H   0  0  0  0  0  0  0  0  0  0  0  0
   43.8800   36.5580   45.5900 H   0  0  0  0  0  0  0  0  0  0  0  0
   44.3850   34.1830   46.4260 H   0  0  0  0  0  0  0  0  0  0  0  0
  1 23  1  0  0  0  0
  2  1  2  0  0  0  0
  3  1  1  0  0  0  0
  3  8  1  0  0  0  0
  4  3  1  0  0  0  0
  5  4  1  0  0  0  0
  5  6  1  0  0  0  0
  6  7  1  0  0  0  0
  6 14  1  0  0  0  0
  7  8  1  0  0  0  0
  7 16  1  0  0  0  0
  8 17  1  1  0  0  0
  9  4  1  0  0  0  0
 10  4  1  0  0  0  0
 11  5  1  0  0  0  0
 12  5  1  0  0  0  0
 13  6  1  0  0  0  0
 15  7  1  0  0  0  0
 18  8  1  0  0  0  0
 18 19  1  0  0  0  0
 20 19  1  0  0  0  0
 21 20  1  0  0  0  0
 22 18  1  0  0  0  0
 22 21  1  0  0  0  0
 24 23  1  0  0  0  0
 24 25  1  0  0  0  0
 25 32  1  0  0  0  0
 26 25  2  0  0  0  0
 26 30  1  0  0  0  0
 27 26  1  0  0  0  0
 28 29  1  0  0  0  0
 28 27  2  0  0  0  0
 29 24  2  0  0  0  0
 31 28  1  0  0  0  0
 32 33  1  0  0  0  0
 32 36  2  0  0  0  0
 33 34  2  0  0  0  0
 34 35  1  0  0  0  0
 34 38  1  0  0  0  0
 35 39  1  0  0  0  0
 36 35  1  0  0  0  0
 37 33  1  0  0  0  0
M  END
>  <minimizedAffinity>
-6.74325466

>  <minimizedRMSD>
0.695914149

$$$$
