
 OpenBabel03242518143D

 27 29  0  0  0  0  0  0  0  0999 V2000
   37.1870   32.2300   39.8830 C   0  0  0  0  0  0  0  0  0  0  0  0
   36.3540   32.9610   39.9460 H   0  0  0  0  0  0  0  0  0  0  0  0
   37.4740   32.1550   38.8000 H   0  0  0  0  0  0  0  0  0  0  0  0
   36.7640   30.9620   40.3740 C   0  0  0  0  0  0  0  0  0  0  0  0
   35.6680   30.0610   40.1530 C   0  0  0  0  0  0  0  0  0  0  0  0
   35.6180   28.8860   40.8480 C   0  0  0  0  0  0  0  0  0  0  0  0
   36.6890   28.6150   41.7810 C   0  0  0  0  0  0  0  0  0  0  0  0
   37.7970   30.0430   41.6840 S   0  0  0  0  0  0  0  0  0  0  0  0
   34.9690   30.4220   39.4310 H   0  0  0  0  0  0  0  0  0  0  0  0
   34.8090   28.1940   40.7010 H   0  0  0  0  0  0  0  0  0  0  0  0
   36.8110   27.4610   42.5860 C   0  0  0  0  0  3  0  0  0  0  0  0
   37.2320   26.2500   41.7780 C   0  0  0  0  0  2  0  0  0  0  0  0
   38.3520   25.5980   42.5610 C   0  0  0  0  0  2  0  0  0  0  0  0
   39.0160   26.7430   43.2520 C   0  0  0  0  0  2  0  0  0  0  0  0
   37.8560   27.6220   43.6690 C   0  0  0  0  0  2  0  0  0  0  0  0
   38.3730   32.8460   40.5780 C   0  0  0  0  0  0  0  0  0  0  0  0
   38.6620   32.2150   41.4120 H   0  0  0  0  0  0  0  0  0  0  0  0
   38.0770   33.8430   41.0100 H   0  0  0  0  0  0  0  0  0  0  0  0
   39.4540   33.0240   39.6050 C   0  0  0  0  0  0  0  0  0  0  0  0
   40.3800   34.0530   39.7140 C   0  0  0  0  0  0  0  0  0  0  0  0
   41.3710   34.1470   38.7460 C   0  0  0  0  0  0  0  0  0  0  0  0
   41.3870   33.2370   37.7510 N   0  0  0  0  0  0  0  0  0  0  0  0
   40.4850   32.2540   37.6680 C   0  0  0  0  0  0  0  0  0  0  0  0
   39.5390   32.1600   38.5870 N   0  0  0  0  0  0  0  0  0  0  0  0
   40.3340   34.7650   40.5280 H   0  0  0  0  0  0  0  0  0  0  0  0
   42.1300   34.9290   38.7680 H   0  0  0  0  0  0  0  0  0  0  0  0
   40.5030   31.5240   36.8650 H   0  0  0  0  0  0  0  0  0  0  0  0
  1  2  1  0  0  0  0
  1  4  1  0  0  0  0
  1 16  1  0  0  0  0
  3  1  1  0  0  0  0
  4  8  1  0  0  0  0
  5  4  2  0  0  0  0
  5  6  1  0  0  0  0
  6  7  2  0  0  0  0
  7 11  1  0  0  0  0
  8  7  1  0  0  0  0
  9  5  1  0  0  0  0
 10  6  1  0  0  0  0
 11 15  1  0  0  0  0
 12 13  1  0  0  0  0
 12 11  1  0  0  0  0
 13 14  1  0  0  0  0
 14 15  1  0  0  0  0
 16 18  1  0  0  0  0
 16 17  1  0  0  0  0
 19 20  1  0  0  0  0
 19 16  1  0  0  0  0
 20 25  1  0  0  0  0
 21 26  1  0  0  0  0
 21 20  2  0  0  0  0
 22 21  1  0  0  0  0
 23 22  2  0  0  0  0
 23 24  1  0  0  0  0
 24 19  2  0  0  0  0
 27 23  1  0  0  0  0
M  END
>  <minimizedAffinity>
-5.30510235

$$$$

 OpenBabel03242518143D

 27 29  0  0  0  0  0  0  0  0999 V2000
   39.2070   30.2140   42.6750 C   0  0  0  0  0  0  0  0  0  0  0  0
   40.0830   30.1530   43.3550 H   0  0  0  0  0  0  0  0  0  0  0  0
   38.6130   31.1140   42.9880 H   0  0  0  0  0  0  0  0  0  0  0  0
   38.4180   29.0340   42.7860 C   0  0  0  0  0  0  0  0  0  0  0  0
   37.3310   28.5690   43.6000 C   0  0  0  0  0  0  0  0  0  0  0  0
   36.8230   27.3190   43.3870 C   0  0  0  0  0  0  0  0  0  0  0  0
   37.4210   26.5250   42.3370 C   0  0  0  0  0  0  0  0  0  0  0  0
   38.7290   27.5550   41.6270 S   0  0  0  0  0  0  0  0  0  0  0  0
   37.0160   29.2860   44.3270 H   0  0  0  0  0  0  0  0  0  0  0  0
   36.0090   26.9470   43.9820 H   0  0  0  0  0  0  0  0  0  0  0  0
   37.0340   25.2170   41.9690 C   0  0  0  0  0  3  0  0  0  0  0  0
   36.7740   25.1010   40.4810 C   0  0  0  0  0  2  0  0  0  0  0  0
   37.5000   23.8520   40.0290 C   0  0  0  0  0  2  0  0  0  0  0  0
   38.6740   23.7700   40.9500 C   0  0  0  0  0  2  0  0  0  0  0  0
   38.1000   24.1910   42.2860 C   0  0  0  0  0  2  0  0  0  0  0  0
   39.7340   30.5300   41.2990 C   0  0  0  0  0  0  0  0  0  0  0  0
   39.7370   29.6230   40.7050 H   0  0  0  0  0  0  0  0  0  0  0  0
   40.8040   30.8720   41.3790 H   0  0  0  0  0  0  0  0  0  0  0  0
   38.9120   31.5890   40.7080 C   0  0  0  0  0  0  0  0  0  0  0  0
   37.8100   31.3070   39.9110 C   0  0  0  0  0  0  0  0  0  0  0  0
   37.0890   32.3740   39.3920 C   0  0  0  0  0  0  0  0  0  0  0  0
   37.4910   33.6270   39.6850 N   0  0  0  0  0  0  0  0  0  0  0  0
   38.5560   33.8730   40.4550 C   0  0  0  0  0  0  0  0  0  0  0  0
   39.2460   32.8620   40.9520 N   0  0  0  0  0  0  0  0  0  0  0  0
   37.5180   30.2870   39.6990 H   0  0  0  0  0  0  0  0  0  0  0  0
   36.2130   32.2280   38.7590 H   0  0  0  0  0  0  0  0  0  0  0  0
   38.8750   34.8840   40.6880 H   0  0  0  0  0  0  0  0  0  0  0  0
  1  4  1  0  0  0  0
  1  3  1  0  0  0  0
  1  2  1  0  0  0  0
  4  5  2  0  0  0  0
  5  9  1  0  0  0  0
  6  5  1  0  0  0  0
  6 10  1  0  0  0  0
  7  6  2  0  0  0  0
  8  7  1  0  0  0  0
  8  4  1  0  0  0  0
 11 15  1  0  0  0  0
 11  7  1  0  0  0  0
 12 11  1  0  0  0  0
 13 12  1  0  0  0  0
 13 14  1  0  0  0  0
 14 15  1  0  0  0  0
 16 18  1  0  0  0  0
 16  1  1  0  0  0  0
 17 16  1  0  0  0  0
 19 24  1  0  0  0  0
 19 16  1  0  0  0  0
 20 19  2  0  0  0  0
 21 22  2  0  0  0  0
 21 20  1  0  0  0  0
 22 23  1  0  0  0  0
 23 27  1  0  0  0  0
 23 24  2  0  0  0  0
 25 20  1  0  0  0  0
 26 21  1  0  0  0  0
M  END
>  <minimizedAffinity>
-5.10314512

$$$$

 OpenBabel03242518143D

 27 29  0  0  0  0  0  0  0  0999 V2000
   36.3080   30.7070   41.0320 C   0  0  0  0  0  0  0  0  0  0  0  0
   36.4420   31.6360   41.6260 H   0  0  0  0  0  0  0  0  0  0  0  0
   35.2040   30.5040   40.9900 H   0  0  0  0  0  0  0  0  0  0  0  0
   36.9890   29.6240   41.6570 C   0  0  0  0  0  0  0  0  0  0  0  0
   37.9410   29.4520   42.7180 C   0  0  0  0  0  0  0  0  0  0  0  0
   38.3680   28.1940   43.0350 C   0  0  0  0  0  0  0  0  0  0  0  0
   37.8280   27.0920   42.2700 C   0  0  0  0  0  0  0  0  0  0  0  0
   36.6900   27.8350   41.0750 S   0  0  0  0  0  0  0  0  0  0  0  0
   38.2320   30.3740   43.1720 H   0  0  0  0  0  0  0  0  0  0  0  0
   39.0800   28.0380   43.8250 H   0  0  0  0  0  0  0  0  0  0  0  0
   38.1460   25.7280   42.4500 C   0  0  0  0  0  3  0  0  0  0  0  0
   36.9750   24.8240   42.1240 C   0  0  0  0  0  2  0  0  0  0  0  0
   37.5310   23.7250   41.2440 C   0  0  0  0  0  2  0  0  0  0  0  0
   38.6450   24.3910   40.5040 C   0  0  0  0  0  2  0  0  0  0  0  0
   39.2800   25.2790   41.5530 C   0  0  0  0  0  2  0  0  0  0  0  0
   36.7200   31.0210   39.6180 C   0  0  0  0  0  0  0  0  0  0  0  0
   35.8570   31.3800   39.0690 H   0  0  0  0  0  0  0  0  0  0  0  0
   37.0590   30.0740   39.1090 H   0  0  0  0  0  0  0  0  0  0  0  0
   37.8160   31.9930   39.6460 C   0  0  0  0  0  0  0  0  0  0  0  0
   37.6290   33.2990   40.0790 C   0  0  0  0  0  0  0  0  0  0  0  0
   38.7240   34.1530   40.0730 C   0  0  0  0  0  0  0  0  0  0  0  0
   39.9110   33.6750   39.6480 N   0  0  0  0  0  0  0  0  0  0  0  0
   40.0660   32.4140   39.2350 C   0  0  0  0  0  0  0  0  0  0  0  0
   39.0270   31.5960   39.2400 N   0  0  0  0  0  0  0  0  0  0  0  0
   36.6590   33.6460   40.4140 H   0  0  0  0  0  0  0  0  0  0  0  0
   38.6510   35.1920   40.3990 H   0  0  0  0  0  0  0  0  0  0  0  0
   41.0240   32.0340   38.8950 H   0  0  0  0  0  0  0  0  0  0  0  0
  1  2  1  0  0  0  0
  1  4  1  0  0  0  0
  3  1  1  0  0  0  0
  4  5  2  0  0  0  0
  5  6  1  0  0  0  0
  5  9  1  0  0  0  0
  6 10  1  0  0  0  0
  7 11  1  0  0  0  0
  7  6  2  0  0  0  0
  8  4  1  0  0  0  0
  8  7  1  0  0  0  0
 12 11  1  0  0  0  0
 13 12  1  0  0  0  0
 14 13  1  0  0  0  0
 14 15  1  0  0  0  0
 15 11  1  0  0  0  0
 16 19  1  0  0  0  0
 16  1  1  0  0  0  0
 17 16  1  0  0  0  0
 18 16  1  0  0  0  0
 19 20  1  0  0  0  0
 20 25  1  0  0  0  0
 21 20  2  0  0  0  0
 21 26  1  0  0  0  0
 22 21  1  0  0  0  0
 23 24  1  0  0  0  0
 23 22  2  0  0  0  0
 24 19  2  0  0  0  0
 27 23  1  0  0  0  0
M  END
>  <minimizedAffinity>
-5.08607578

$$$$

 OpenBabel03242518143D

 27 29  0  0  0  0  0  0  0  0999 V2000
   36.6590   27.3910   42.8560 C   0  0  0  0  0  0  0  0  0  0  0  0
   36.0070   26.5320   42.5950 H   0  0  0  0  0  0  0  0  0  0  0  0
   36.3630   27.7250   43.8860 H   0  0  0  0  0  0  0  0  0  0  0  0
   36.4750   28.4470   41.9190 C   0  0  0  0  0  0  0  0  0  0  0  0
   35.5430   28.7800   40.8790 C   0  0  0  0  0  0  0  0  0  0  0  0
   35.7130   29.9380   40.1750 C   0  0  0  0  0  0  0  0  0  0  0  0
   36.8400   30.7740   40.5230 C   0  0  0  0  0  0  0  0  0  0  0  0
   37.6860   29.9170   41.8740 S   0  0  0  0  0  0  0  0  0  0  0  0
   34.7740   28.0490   40.7570 H   0  0  0  0  0  0  0  0  0  0  0  0
   35.0290   30.2110   39.3920 H   0  0  0  0  0  0  0  0  0  0  0  0
   37.1780   32.0010   39.9120 C   0  0  0  0  0  3  0  0  0  0  0  0
   38.3120   32.7010   40.6340 C   0  0  0  0  0  2  0  0  0  0  0  0
   39.2850   33.1330   39.5580 C   0  0  0  0  0  2  0  0  0  0  0  0
   39.1330   32.0900   38.5000 C   0  0  0  0  0  2  0  0  0  0  0  0
   37.6430   31.8230   38.4820 C   0  0  0  0  0  2  0  0  0  0  0  0
   38.0630   26.8600   42.9860 C   0  0  0  0  0  0  0  0  0  0  0  0
   38.2620   26.6390   44.0290 H   0  0  0  0  0  0  0  0  0  0  0  0
   38.7950   27.6590   42.6780 H   0  0  0  0  0  0  0  0  0  0  0  0
   38.2090   25.6860   42.1230 C   0  0  0  0  0  0  0  0  0  0  0  0
   37.2260   24.7090   42.0360 C   0  0  0  0  0  0  0  0  0  0  0  0
   37.4490   23.6290   41.1910 C   0  0  0  0  0  0  0  0  0  0  0  0
   38.6050   23.5820   40.4990 N   0  0  0  0  0  0  0  0  0  0  0  0
   39.5370   24.5350   40.5990 C   0  0  0  0  0  0  0  0  0  0  0  0
   39.3300   25.5650   41.4010 N   0  0  0  0  0  0  0  0  0  0  0  0
   36.3100   24.7830   42.6080 H   0  0  0  0  0  0  0  0  0  0  0  0
   36.7210   22.8260   41.0740 H   0  0  0  0  0  0  0  0  0  0  0  0
   40.4650   24.4910   40.0390 H   0  0  0  0  0  0  0  0  0  0  0  0
  1 16  1  0  0  0  0
  1  3  1  0  0  0  0
  2  1  1  0  0  0  0
  4  1  1  0  0  0  0
  5  4  2  0  0  0  0
  6  7  2  0  0  0  0
  6  5  1  0  0  0  0
  7  8  1  0  0  0  0
  8  4  1  0  0  0  0
  9  5  1  0  0  0  0
 10  6  1  0  0  0  0
 11  7  1  0  0  0  0
 11 12  1  0  0  0  0
 13 12  1  0  0  0  0
 14 13  1  0  0  0  0
 15 14  1  0  0  0  0
 15 11  1  0  0  0  0
 16 17  1  0  0  0  0
 18 16  1  0  0  0  0
 19 16  1  0  0  0  0
 20 19  1  0  0  0  0
 20 25  1  0  0  0  0
 21 20  2  0  0  0  0
 22 23  2  0  0  0  0
 22 21  1  0  0  0  0
 23 24  1  0  0  0  0
 24 19  2  0  0  0  0
 26 21  1  0  0  0  0
 27 23  1  0  0  0  0
M  END
>  <minimizedAffinity>
-4.98239994

$$$$

 OpenBabel03242518143D

 27 29  0  0  0  0  0  0  0  0999 V2000
   37.4740   30.1890   37.9230 C   0  0  0  0  0  0  0  0  0  0  0  0
   36.9270   29.7850   37.0450 H   0  0  0  0  0  0  0  0  0  0  0  0
   38.5660   30.0060   37.7380 H   0  0  0  0  0  0  0  0  0  0  0  0
   37.0530   29.5240   39.1090 C   0  0  0  0  0  0  0  0  0  0  0  0
   35.8780   29.4850   39.9330 C   0  0  0  0  0  0  0  0  0  0  0  0
   35.8610   28.6810   41.0370 C   0  0  0  0  0  0  0  0  0  0  0  0
   37.0490   27.9060   41.3170 C   0  0  0  0  0  0  0  0  0  0  0  0
   38.2210   28.3100   39.9990 S   0  0  0  0  0  0  0  0  0  0  0  0
   35.0970   30.1220   39.5770 H   0  0  0  0  0  0  0  0  0  0  0  0
   34.9930   28.6340   41.6700 H   0  0  0  0  0  0  0  0  0  0  0  0
   37.2210   27.0230   42.4060 C   0  0  0  0  0  3  0  0  0  0  0  0
   38.0620   25.8190   42.0330 C   0  0  0  0  0  2  0  0  0  0  0  0
   39.0810   25.6660   43.1420 C   0  0  0  0  0  2  0  0  0  0  0  0
   39.3120   27.0650   43.6100 C   0  0  0  0  0  2  0  0  0  0  0  0
   37.9280   27.6800   43.5730 C   0  0  0  0  0  2  0  0  0  0  0  0
   37.3010   31.6850   37.9060 C   0  0  0  0  0  0  0  0  0  0  0  0
   36.2680   31.9240   38.1350 H   0  0  0  0  0  0  0  0  0  0  0  0
   37.5030   32.0720   36.8670 H   0  0  0  0  0  0  0  0  0  0  0  0
   38.2420   32.2830   38.8550 C   0  0  0  0  0  0  0  0  0  0  0  0
   37.8170   33.0790   39.9110 C   0  0  0  0  0  0  0  0  0  0  0  0
   38.7800   33.6050   40.7630 C   0  0  0  0  0  0  0  0  0  0  0  0
   40.0750   33.3200   40.5240 N   0  0  0  0  0  0  0  0  0  0  0  0
   40.4610   32.5510   39.5010 C   0  0  0  0  0  0  0  0  0  0  0  0
   39.5490   32.0470   38.6870 N   0  0  0  0  0  0  0  0  0  0  0  0
   36.7660   33.2850   40.0700 H   0  0  0  0  0  0  0  0  0  0  0  0
   38.5180   34.2380   41.6120 H   0  0  0  0  0  0  0  0  0  0  0  0
   41.5050   32.3240   39.3140 H   0  0  0  0  0  0  0  0  0  0  0  0
  1  4  1  0  0  0  0
  2  1  1  0  0  0  0
  3  1  1  0  0  0  0
  4  5  2  0  0  0  0
  4  8  1  0  0  0  0
  5  6  1  0  0  0  0
  6  7  2  0  0  0  0
  6 10  1  0  0  0  0
  7 11  1  0  0  0  0
  8  7  1  0  0  0  0
  9  5  1  0  0  0  0
 11 15  1  0  0  0  0
 12 11  1  0  0  0  0
 12 13  1  0  0  0  0
 13 14  1  0  0  0  0
 15 14  1  0  0  0  0
 16  1  1  0  0  0  0
 16 17  1  0  0  0  0
 16 19  1  0  0  0  0
 18 16  1  0  0  0  0
 19 20  1  0  0  0  0
 20 25  1  0  0  0  0
 20 21  2  0  0  0  0
 21 26  1  0  0  0  0
 22 21  1  0  0  0  0
 23 22  2  0  0  0  0
 24 19  2  0  0  0  0
 24 23  1  0  0  0  0
 27 23  1  0  0  0  0
M  END
>  <minimizedAffinity>
-4.8148222

$$$$

 OpenBabel03242518143D

 27 29  0  0  0  0  0  0  0  0999 V2000
   34.0890   28.7710   36.8680 C   0  0  0  0  0  0  0  0  0  0  0  0
   34.5900   27.9950   36.2520 H   0  0  0  0  0  0  0  0  0  0  0  0
   34.2720   29.7560   36.3620 H   0  0  0  0  0  0  0  0  0  0  0  0
   34.6330   28.7790   38.1830 C   0  0  0  0  0  0  0  0  0  0  0  0
   34.2340   29.2360   39.4840 C   0  0  0  0  0  0  0  0  0  0  0  0
   35.0720   29.0470   40.5460 C   0  0  0  0  0  0  0  0  0  0  0  0
   36.3340   28.3870   40.2930 C   0  0  0  0  0  0  0  0  0  0  0  0
   36.3470   28.0200   38.5210 S   0  0  0  0  0  0  0  0  0  0  0  0
   33.2730   29.7020   39.4870 H   0  0  0  0  0  0  0  0  0  0  0  0
   34.7970   29.3800   41.5300 H   0  0  0  0  0  0  0  0  0  0  0  0
   37.3250   28.1040   41.2570 C   0  0  0  0  0  3  0  0  0  0  0  0
   37.4730   29.2260   42.2650 C   0  0  0  0  0  2  0  0  0  0  0  0
   37.4900   28.5630   43.6250 C   0  0  0  0  0  2  0  0  0  0  0  0
   36.6310   27.3550   43.4440 C   0  0  0  0  0  2  0  0  0  0  0  0
   37.0060   26.8620   42.0620 C   0  0  0  0  0  2  0  0  0  0  0  0
   32.6050   28.5300   36.7670 C   0  0  0  0  0  0  0  0  0  0  0  0
   32.2190   28.2840   37.7510 H   0  0  0  0  0  0  0  0  0  0  0  0
   32.4170   27.6350   36.1100 H   0  0  0  0  0  0  0  0  0  0  0  0
   31.9690   29.7170   36.1920 C   0  0  0  0  0  0  0  0  0  0  0  0
   31.0770   30.4980   36.9150 C   0  0  0  0  0  0  0  0  0  0  0  0
   30.5210   31.6060   36.2900 C   0  0  0  0  0  0  0  0  0  0  0  0
   30.8710   31.8690   35.0150 N   0  0  0  0  0  0  0  0  0  0  0  0
   31.7320   31.1020   34.3380 C   0  0  0  0  0  0  0  0  0  0  0  0
   32.2650   30.0460   34.9290 N   0  0  0  0  0  0  0  0  0  0  0  0
   30.8200   30.2540   37.9390 H   0  0  0  0  0  0  0  0  0  0  0  0
   29.8130   32.2630   36.7970 H   0  0  0  0  0  0  0  0  0  0  0  0
   32.0110   31.3190   33.3120 H   0  0  0  0  0  0  0  0  0  0  0  0
  1  4  1  0  0  0  0
  2  1  1  0  0  0  0
  3  1  1  0  0  0  0
  4  8  1  0  0  0  0
  4  5  2  0  0  0  0
  5  9  1  0  0  0  0
  5  6  1  0  0  0  0
  6 10  1  0  0  0  0
  7  6  2  0  0  0  0
  7 11  1  0  0  0  0
  8  7  1  0  0  0  0
 11 15  1  0  0  0  0
 11 12  1  0  0  0  0
 12 13  1  0  0  0  0
 14 13  1  0  0  0  0
 15 14  1  0  0  0  0
 16  1  1  0  0  0  0
 16 17  1  0  0  0  0
 18 16  1  0  0  0  0
 19 16  1  0  0  0  0
 19 20  1  0  0  0  0
 20 25  1  0  0  0  0
 21 26  1  0  0  0  0
 21 20  2  0  0  0  0
 22 21  1  0  0  0  0
 23 24  1  0  0  0  0
 23 22  2  0  0  0  0
 24 19  2  0  0  0  0
 27 23  1  0  0  0  0
M  END
>  <minimizedAffinity>
-4.77477932

$$$$

 OpenBabel03242518143D

 27 29  0  0  0  0  0  0  0  0999 V2000
   39.2750   28.0920   43.1970 C   0  0  0  0  0  0  0  0  0  0  0  0
   39.8740   28.6000   42.4130 H   0  0  0  0  0  0  0  0  0  0  0  0
   39.8350   28.2120   44.1630 H   0  0  0  0  0  0  0  0  0  0  0  0
   39.1220   26.7130   42.8800 C   0  0  0  0  0  0  0  0  0  0  0  0
   39.7190   25.4690   43.2770 C   0  0  0  0  0  0  0  0  0  0  0  0
   39.2730   24.3050   42.7200 C   0  0  0  0  0  0  0  0  0  0  0  0
   38.2080   24.3950   41.7460 C   0  0  0  0  0  0  0  0  0  0  0  0
   37.8190   26.1570   41.6060 S   0  0  0  0  0  0  0  0  0  0  0  0
   40.4920   25.5910   44.0050 H   0  0  0  0  0  0  0  0  0  0  0  0
   39.7030   23.3610   43.0010 H   0  0  0  0  0  0  0  0  0  0  0  0
   37.6180   23.3070   41.0660 C   0  0  0  0  0  3  0  0  0  0  0  0
   36.3240   23.7010   40.3820 C   0  0  0  0  0  2  0  0  0  0  0  0
   36.4080   23.1370   38.9800 C   0  0  0  0  0  2  0  0  0  0  0  0
   37.8690   23.1680   38.6700 C   0  0  0  0  0  2  0  0  0  0  0  0
   38.5130   22.7560   39.9760 C   0  0  0  0  0  2  0  0  0  0  0  0
   38.0010   28.8790   43.3630 C   0  0  0  0  0  0  0  0  0  0  0  0
   37.9670   29.2910   44.3650 H   0  0  0  0  0  0  0  0  0  0  0  0
   37.1190   28.1850   43.2660 H   0  0  0  0  0  0  0  0  0  0  0  0
   37.9420   29.9110   42.3250 C   0  0  0  0  0  0  0  0  0  0  0  0
   39.0600   30.6480   41.9550 C   0  0  0  0  0  0  0  0  0  0  0  0
   38.9120   31.6070   40.9620 C   0  0  0  0  0  0  0  0  0  0  0  0
   37.6950   31.7770   40.4070 N   0  0  0  0  0  0  0  0  0  0  0  0
   36.6330   31.0550   40.7800 C   0  0  0  0  0  0  0  0  0  0  0  0
   36.7680   30.1400   41.7250 N   0  0  0  0  0  0  0  0  0  0  0  0
   40.0210   30.4820   42.4250 H   0  0  0  0  0  0  0  0  0  0  0  0
   39.7460   32.2220   40.6220 H   0  0  0  0  0  0  0  0  0  0  0  0
   35.6560   31.1960   40.3290 H   0  0  0  0  0  0  0  0  0  0  0  0
  1 16  1  0  0  0  0
  1  3  1  0  0  0  0
  2  1  1  0  0  0  0
  4  1  1  0  0  0  0
  4  5  2  0  0  0  0
  5  9  1  0  0  0  0
  6 10  1  0  0  0  0
  6  5  1  0  0  0  0
  7  6  2  0  0  0  0
  8  7  1  0  0  0  0
  8  4  1  0  0  0  0
 11  7  1  0  0  0  0
 12 11  1  0  0  0  0
 13 12  1  0  0  0  0
 14 13  1  0  0  0  0
 14 15  1  0  0  0  0
 15 11  1  0  0  0  0
 16 17  1  0  0  0  0
 18 16  1  0  0  0  0
 19 16  1  0  0  0  0
 20 19  1  0  0  0  0
 20 25  1  0  0  0  0
 21 20  2  0  0  0  0
 22 23  2  0  0  0  0
 22 21  1  0  0  0  0
 23 24  1  0  0  0  0
 24 19  2  0  0  0  0
 26 21  1  0  0  0  0
 27 23  1  0  0  0  0
M  END
>  <minimizedAffinity>
-4.63741493

$$$$

 OpenBabel03242518143D

 27 29  0  0  0  0  0  0  0  0999 V2000
   41.0750   30.4800   38.9180 C   0  0  0  0  0  0  0  0  0  0  0  0
   41.5410   29.6450   38.3550 H   0  0  0  0  0  0  0  0  0  0  0  0
   41.8260   31.3150   38.9450 H   0  0  0  0  0  0  0  0  0  0  0  0
   40.7520   30.0590   40.2390 C   0  0  0  0  0  0  0  0  0  0  0  0
   41.1940   30.3510   41.5740 C   0  0  0  0  0  0  0  0  0  0  0  0
   40.6060   29.7120   42.6280 C   0  0  0  0  0  0  0  0  0  0  0  0
   39.5560   28.7620   42.3320 C   0  0  0  0  0  0  0  0  0  0  0  0
   39.3850   28.7650   40.5310 S   0  0  0  0  0  0  0  0  0  0  0  0
   41.9790   31.0750   41.6050 H   0  0  0  0  0  0  0  0  0  0  0  0
   40.9180   29.9120   43.6370 H   0  0  0  0  0  0  0  0  0  0  0  0
   38.8330   28.0080   43.2830 C   0  0  0  0  0  3  0  0  0  0  0  0
   37.4280   28.5400   43.4790 C   0  0  0  0  0  2  0  0  0  0  0  0
   36.5170   27.3320   43.4250 C   0  0  0  0  0  2  0  0  0  0  0  0
   37.2190   26.3970   42.4960 C   0  0  0  0  0  2  0  0  0  0  0  0
   38.6760   26.5600   42.8700 C   0  0  0  0  0  2  0  0  0  0  0  0
   39.9270   30.9910   38.0880 C   0  0  0  0  0  0  0  0  0  0  0  0
   39.2510   30.1700   37.8740 H   0  0  0  0  0  0  0  0  0  0  0  0
   40.3170   31.3580   37.0970 H   0  0  0  0  0  0  0  0  0  0  0  0
   39.2720   32.0880   38.8050 C   0  0  0  0  0  0  0  0  0  0  0  0
   37.8980   32.1190   39.0080 C   0  0  0  0  0  0  0  0  0  0  0  0
   37.3630   33.1980   39.6990 C   0  0  0  0  0  0  0  0  0  0  0  0
   38.1990   34.1600   40.1380 N   0  0  0  0  0  0  0  0  0  0  0  0
   39.5180   34.1090   39.9300 C   0  0  0  0  0  0  0  0  0  0  0  0
   40.0340   33.0840   39.2730 N   0  0  0  0  0  0  0  0  0  0  0  0
   37.2590   31.3260   38.6400 H   0  0  0  0  0  0  0  0  0  0  0  0
   36.2940   33.2880   39.8940 H   0  0  0  0  0  0  0  0  0  0  0  0
   40.1870   34.8860   40.2860 H   0  0  0  0  0  0  0  0  0  0  0  0
  1  3  1  0  0  0  0
  1  4  1  0  0  0  0
  2  1  1  0  0  0  0
  4  8  1  0  0  0  0
  4  5  2  0  0  0  0
  5  9  1  0  0  0  0
  5  6  1  0  0  0  0
  6 10  1  0  0  0  0
  7  6  2  0  0  0  0
  7 11  1  0  0  0  0
  8  7  1  0  0  0  0
 11 12  1  0  0  0  0
 13 12  1  0  0  0  0
 14 15  1  0  0  0  0
 14 13  1  0  0  0  0
 15 11  1  0  0  0  0
 16 19  1  0  0  0  0
 16  1  1  0  0  0  0
 17 16  1  0  0  0  0
 18 16  1  0  0  0  0
 19 20  2  0  0  0  0
 19 24  1  0  0  0  0
 20 21  1  0  0  0  0
 21 26  1  0  0  0  0
 21 22  2  0  0  0  0
 23 22  1  0  0  0  0
 23 27  1  0  0  0  0
 24 23  2  0  0  0  0
 25 20  1  0  0  0  0
M  END
>  <minimizedAffinity>
-4.60738087

$$$$

 OpenBabel03242518143D

 27 29  0  0  0  0  0  0  0  0999 V2000
   37.4290   26.2040   42.5870 C   0  0  0  0  0  0  0  0  0  0  0  0
   36.4620   25.7490   42.2880 H   0  0  0  0  0  0  0  0  0  0  0  0
   37.4960   26.1220   43.7050 H   0  0  0  0  0  0  0  0  0  0  0  0
   37.4740   27.5690   42.1860 C   0  0  0  0  0  0  0  0  0  0  0  0
   38.2290   28.7420   42.5260 C   0  0  0  0  0  0  0  0  0  0  0  0
   37.9630   29.9180   41.8840 C   0  0  0  0  0  0  0  0  0  0  0  0
   36.9190   29.9120   40.8830 C   0  0  0  0  0  0  0  0  0  0  0  0
   36.2920   28.2150   40.8380 S   0  0  0  0  0  0  0  0  0  0  0  0
   38.9570   28.5640   43.2870 H   0  0  0  0  0  0  0  0  0  0  0  0
   38.5140   30.8100   42.1200 H   0  0  0  0  0  0  0  0  0  0  0  0
   36.5040   31.0240   40.1180 C   0  0  0  0  0  3  0  0  0  0  0  0
   37.2880   32.2740   40.4630 C   0  0  0  0  0  2  0  0  0  0  0  0
   37.7010   32.8830   39.1400 C   0  0  0  0  0  2  0  0  0  0  0  0
   37.8550   31.7030   38.2380 C   0  0  0  0  0  2  0  0  0  0  0  0
   36.7010   30.8060   38.6330 C   0  0  0  0  0  2  0  0  0  0  0  0
   38.5220   25.3190   42.0470 C   0  0  0  0  0  0  0  0  0  0  0  0
   39.0870   24.9080   42.8760 H   0  0  0  0  0  0  0  0  0  0  0  0
   39.2390   25.9410   41.4400 H   0  0  0  0  0  0  0  0  0  0  0  0
   37.9210   24.2830   41.2040 C   0  0  0  0  0  0  0  0  0  0  0  0
   36.6130   24.3730   40.7470 C   0  0  0  0  0  0  0  0  0  0  0  0
   36.1250   23.3430   39.9530 C   0  0  0  0  0  0  0  0  0  0  0  0
   36.9410   22.3100   39.6650 N   0  0  0  0  0  0  0  0  0  0  0  0
   38.1980   22.2450   40.1170 C   0  0  0  0  0  0  0  0  0  0  0  0
   38.6680   23.2230   40.8730 N   0  0  0  0  0  0  0  0  0  0  0  0
   35.9880   25.2200   40.9990 H   0  0  0  0  0  0  0  0  0  0  0  0
   35.1080   23.3480   39.5590 H   0  0  0  0  0  0  0  0  0  0  0  0
   38.8510   21.4110   39.8820 H   0  0  0  0  0  0  0  0  0  0  0  0
  1  3  1  0  0  0  0
  2  1  1  0  0  0  0
  4  5  2  0  0  0  0
  4  1  1  0  0  0  0
  5  9  1  0  0  0  0
  6 10  1  0  0  0  0
  6  5  1  0  0  0  0
  7  6  2  0  0  0  0
  8  7  1  0  0  0  0
  8  4  1  0  0  0  0
 11 12  1  0  0  0  0
 11  7  1  0  0  0  0
 13 12  1  0  0  0  0
 14 15  1  0  0  0  0
 14 13  1  0  0  0  0
 15 11  1  0  0  0  0
 16  1  1  0  0  0  0
 16 17  1  0  0  0  0
 18 16  1  0  0  0  0
 19 16  1  0  0  0  0
 20 25  1  0  0  0  0
 20 19  2  0  0  0  0
 21 20  1  0  0  0  0
 22 21  2  0  0  0  0
 22 23  1  0  0  0  0
 23 24  2  0  0  0  0
 24 19  1  0  0  0  0
 26 21  1  0  0  0  0
 27 23  1  0  0  0  0
M  END
>  <minimizedAffinity>
-4.58791924

$$$$
