REMARK  Name = 
REMARK  2 active torsions:
REMARK  status: ('A' for Active; 'I' for Inactive)
REMARK    1  A    between atoms: C_3  and  C_8
REMARK    2  A    between atoms: C_13  and  C_22
REMARK                            x       y       z     vdW  Elec       q    Type
REMARK                         _______ _______ _______ _____ _____    ______ ____
ROOT
ATOM      1  C   UNL     1      46.631  34.755  42.103  0.00  0.00    +0.000 A 
ATOM      2  C   UNL     1      47.859  35.336  41.950  0.00  0.00    +0.000 A 
ATOM      3  C   UNL     1      48.660  35.210  40.824  0.00  0.00    +0.000 A 
ATOM      4  C   UNL     1      48.181  34.437  39.770  0.00  0.00    +0.000 A 
ATOM      5  C   UNL     1      46.942  33.850  39.922  0.00  0.00    +0.000 A 
ATOM      6  C   UNL     1      46.167  33.995  41.059  0.00  0.00    +0.000 A 
ATOM      7  H   UNL     1      48.294  35.955  42.737  0.00  0.00    +0.000 HD
ATOM      8  H   UNL     1      49.626  35.692  40.755  0.00  0.00    +0.000 HD
ATOM      9  H   UNL     1      48.807  34.343  38.898  0.00  0.00    +0.000 HD
ATOM     10  H   UNL     1      46.611  33.257  39.074  0.00  0.00    +0.000 HD
ENDROOT
BRANCH   1  13
ATOM     11  C   UNL     1      44.413  36.170  44.783  0.00  0.00    +0.000 A 
ATOM     12  C   UNL     1      45.067  36.078  43.530  0.00  0.00    +0.000 A 
ATOM     13  C   UNL     1      45.904  34.972  43.333  0.00  0.00    +0.000 A 
ATOM     14  N   UNL     1      46.062  34.044  44.321  0.00  0.00    +0.000 NA
ATOM     15  C   UNL     1      45.397  34.203  45.502  0.00  0.00    +0.000 A 
ATOM     16  N   UNL     1      44.582  35.254  45.730  0.00  0.00    +0.000 NA
ATOM     17  N   UNL     1      45.560  33.253  46.542  0.00  0.00    +0.000 N 
ATOM     18  H   UNL     1      43.791  37.051  44.843  0.00  0.00    +0.000 HD
ATOM     19  H   UNL     1      44.974  36.782  42.724  0.00  0.00    +0.000 HD
ATOM     20  H   UNL     1      46.415  33.424  47.117  0.00  0.00    +0.000 HD
ATOM     21  H   UNL     1      44.733  32.609  46.440  0.00  0.00    +0.000 HD
ENDBRANCH   1  13
BRANCH   6  22
ATOM     22  C   UNL     1      44.838  33.340  41.170  0.00  0.00    +0.000 C 
ATOM     23  C   UNL     1      44.037  33.532  39.877  0.00  0.00    +0.000 C 
ATOM     24  C   UNL     1      43.135  32.306  39.950  0.00  0.00    +0.000 C 
ATOM     25  C   UNL     1      44.197  31.236  40.214  0.00  0.00    +0.000 C 
ATOM     26  C   UNL     1      44.897  31.868  41.405  0.00  0.00    +0.000 C 
ENDBRANCH   6  22
TORSDOF 2
