
 OpenBabel03252500423D

 24 26  0  0  1  0  0  0  0  0999 V2000
   47.0260   33.9800   42.4520 C   0  0  0  0  0  0  0  0  0  0  0  0
   47.7550   33.2610   42.9000 H   0  0  0  0  0  0  0  0  0  0  0  0
   46.3490   33.4450   41.7490 H   0  0  0  0  0  0  0  0  0  0  0  0
   46.1690   34.4090   43.5900 C   0  0  0  0  0  0  0  0  0  0  0  0
   45.4570   35.5640   43.3640 C   0  0  0  0  0  0  0  0  0  0  0  0
   44.6180   36.0800   44.3630 C   0  0  0  0  0  0  0  0  0  0  0  0
   44.5660   35.3750   45.5310 N   0  0  0  0  0  0  0  0  0  0  0  0
   45.2830   34.2370   45.7180 C   0  0  0  0  0  0  0  0  0  0  0  0
   46.0780   33.7540   44.7630 N   0  0  0  0  0  0  0  0  0  0  0  0
   45.3200   36.2730   42.5630 H   0  0  0  0  0  0  0  0  0  0  0  0
   43.9820   36.9470   44.4110 H   0  0  0  0  0  0  0  0  0  0  0  0
   45.2310   33.6860   46.6510 H   0  0  0  0  0  0  0  0  0  0  0  0
   47.7160   35.1300   41.8030 C   0  0  1  0  0  0  0  0  0  0  0  0
   49.2270   34.9490   41.6520 C   0  0  0  0  0  0  0  0  0  0  0  0
   48.3200   34.9520   40.4560 C   0  0  1  0  0  0  0  0  0  0  0  0
   47.4900   36.1850   42.0250 H   0  0  0  0  0  0  0  0  0  0  0  0
   49.6610   33.9540   41.9230 H   0  0  0  0  0  0  0  0  0  0  0  0
   49.9160   35.7660   41.8490 H   0  0  0  0  0  0  0  0  0  0  0  0
   48.3960   35.8520   39.7790 H   0  0  0  0  0  0  0  0  0  0  0  0
   47.9640   33.7050   39.7090 C   0  0  0  0  0  0  0  0  0  0  0  0
   49.0570   32.6580   39.7880 C   0  0  0  0  0  0  0  0  0  0  0  0
   49.1400   32.0920   38.3720 C   0  0  0  0  0  0  0  0  0  0  0  0
   48.9600   33.3360   37.5680 C   0  0  0  0  0  0  0  0  0  0  0  0
   47.8380   34.0610   38.2560 C   0  0  0  0  0  0  0  0  0  0  0  0
  1  2  1  0  0  0  0
  1  4  1  0  0  0  0
  3  1  1  0  0  0  0
  4  9  1  0  0  0  0
  5  4  2  0  0  0  0
  5  6  1  0  0  0  0
  6 11  1  0  0  0  0
  6  7  2  0  0  0  0
  7  8  1  0  0  0  0
  8 12  1  0  0  0  0
  9  8  2  0  0  0  0
 10  5  1  0  0  0  0
 13 16  1  1  0  0  0
 13  1  1  0  0  0  0
 14 13  1  0  0  0  0
 14 18  1  0  0  0  0
 14 17  1  0  0  0  0
 15 19  1  6  0  0  0
 15 14  1  0  0  0  0
 15 13  1  0  0  0  0
 20 21  1  0  0  0  0
 20 15  1  0  0  0  0
 22 21  1  0  0  0  0
 23 24  1  0  0  0  0
 23 22  1  0  0  0  0
 24 20  1  0  0  0  0
M  END
>  <minimizedAffinity>
-4.77161312

>  <minimizedRMSD>
1.68235302

$$$$
