
     RDKit          3D

 30 32  0  0  0  0  0  0  0  0999 V2000
   44.5995   35.8017   44.7329 C   0  0  0  0  0  0  0  0  0  0  0  0
   45.2772   35.5603   43.5100 C   0  0  0  0  0  0  0  0  0  0  0  0
   46.1234   34.4468   43.4166 C   0  0  0  0  0  0  0  0  0  0  0  0
   46.2434   33.6519   44.5276 N   0  0  0  0  0  0  0  0  0  0  0  0
   45.5758   33.9245   45.6707 C   0  0  0  0  0  0  0  0  0  0  0  0
   44.7528   34.9962   45.7816 N   0  0  0  0  0  0  0  0  0  0  0  0
   45.8672   32.9309   46.7115 C   0  0  0  0  0  0  0  0  0  0  0  0
   45.1005   32.7697   47.8996 C   0  0  0  0  0  0  0  0  0  0  0  0
   45.4774   31.8105   48.7834 C   0  0  0  0  0  0  0  0  0  0  0  0
   46.6156   31.0180   48.4788 C   0  0  0  0  0  0  0  0  0  0  0  0
   47.1783   31.6686   46.8541 S   0  0  0  0  0  0  0  0  0  0  0  0
   43.9489   36.6628   44.7960 H   0  0  0  0  0  0  0  0  0  0  0  0
   45.1774   36.1867   42.6475 H   0  0  0  0  0  0  0  0  0  0  0  0
   46.6735   34.1958   42.5210 H   0  0  0  0  0  0  0  0  0  0  0  0
   44.2470   33.4069   48.0678 H   0  0  0  0  0  0  0  0  0  0  0  0
   44.9743   31.6087   49.6905 H   0  0  0  0  0  0  0  0  0  0  0  0
   47.2795   29.9663   49.1443 C   0  0  0  0  0  0  0  0  0  0  0  0
   47.2345   28.6056   48.5104 C   0  0  0  0  0  0  0  0  0  0  0  0
   48.4119   28.5642   47.6049 C   0  0  0  0  0  0  0  0  0  0  0  0
   49.4730   29.3496   48.3364 C   0  0  0  0  0  0  0  0  0  0  0  0
   48.7503   30.2424   49.2978 C   0  0  0  0  0  0  0  0  0  0  0  0
   46.8662   29.8330   50.1751 H   0  0  0  0  0  0  0  0  0  0  0  0
   46.2650   28.4312   47.9866 H   0  0  0  0  0  0  0  0  0  0  0  0
   47.3690   27.8211   49.3153 H   0  0  0  0  0  0  0  0  0  0  0  0
   48.7539   27.5181   47.4083 H   0  0  0  0  0  0  0  0  0  0  0  0
   48.1955   29.0808   46.6378 H   0  0  0  0  0  0  0  0  0  0  0  0
   50.1564   29.8997   47.6498 H   0  0  0  0  0  0  0  0  0  0  0  0
   50.0980   28.6186   48.9260 H   0  0  0  0  0  0  0  0  0  0  0  0
   49.1060   30.1006   50.3571 H   0  0  0  0  0  0  0  0  0  0  0  0
   48.9538   31.3016   48.9738 H   0  0  0  0  0  0  0  0  0  0  0  0
  1  6  2  0
  2  1  1  0
  3  2  2  0
  3  4  1  0
  4  5  2  0
  5  6  1  0
  5  7  1  0
  7 11  1  0
  7  8  2  0
  8  9  1  0
 10  9  2  0
 11 10  1  0
  1 12  1  0
  2 13  1  0
  3 14  1  0
  8 15  1  0
  9 16  1  0
 17 18  1  0
 18 19  1  0
 19 20  1  0
 20 21  1  0
 21 17  1  0
 17 22  1  0
 18 23  1  0
 18 24  1  0
 19 25  1  0
 19 26  1  0
 20 27  1  0
 20 28  1  0
 21 29  1  0
 21 30  1  0
 10 17  1  0
M  ISO  5  12  14  13  14  14  14  15  14  16  14
M  END
>  <DihAtoms>  (1) 
8,9,16,17

>  <DihDeg>  (1) 
-66.79153617417991

$$$$
