
 OpenBabel03252504243D

 17 18  0  0  0  0  0  0  0  0999 V2000
   44.5090   35.5320   44.7260 C   0  0  0  0  0  0  0  0  0  0  0  0
   45.2220   35.1880   43.5850 C   0  0  0  0  0  0  0  0  0  0  0  0
   46.1540   34.1530   43.6950 C   0  0  0  0  0  0  0  0  0  0  0  0
   46.2990   33.5590   44.8990 N   0  0  0  0  0  0  0  0  0  0  0  0
   45.5950   33.9120   45.9890 C   0  0  0  0  0  0  0  0  0  0  0  0
   44.6790   34.9120   45.9270 N   0  0  0  0  0  0  0  0  0  0  0  0
   43.7600   36.3220   44.7550 H   0  0  0  0  0  0  0  0  0  0  0  0
   46.6790   33.9210   42.7980 H   0  0  0  0  0  0  0  0  0  0  0  0
   45.7340   33.4210   46.9260 H   0  0  0  0  0  0  0  0  0  0  0  0
   44.9050   35.9660   42.3780 C   0  0  0  0  0  0  0  0  0  0  0  0
   44.4000   36.8900   42.6260 H   0  0  0  0  0  0  0  0  0  0  0  0
   45.8480   36.2360   41.8330 H   0  0  0  0  0  0  0  0  0  0  0  0
   44.0290   35.1560   41.4610 C   0  0  0  0  0  3  0  0  0  0  0  0
   42.5710   35.5670   41.5380 C   0  0  0  0  0  2  0  0  0  0  0  0
   41.9500   34.4730   40.6830 C   0  0  0  0  0  2  0  0  0  0  0  0
   42.6280   33.2340   41.2300 C   0  0  0  0  0  2  0  0  0  0  0  0
   43.9290   33.7140   41.8850 C   0  0  0  0  0  2  0  0  0  0  0  0
  1  7  1  0  0  0  0
  1  6  1  0  0  0  0
  2  3  1  0  0  0  0
  2  1  2  0  0  0  0
  3  4  2  0  0  0  0
  4  5  1  0  0  0  0
  5  9  1  0  0  0  0
  6  5  2  0  0  0  0
  8  3  1  0  0  0  0
 10 11  1  0  0  0  0
 10  2  1  0  0  0  0
 12 10  1  0  0  0  0
 13 14  1  0  0  0  0
 13 17  1  0  0  0  0
 13 10  1  0  0  0  0
 15 16  1  0  0  0  0
 15 14  1  0  0  0  0
 16 17  1  0  0  0  0
M  END
>  <minimizedAffinity>
-3.73216319

>  <minimizedRMSD>
1.16495502

$$$$
