
 OpenBabel03252500423D

 24 26  0  0  1  0  0  0  0  0999 V2000
   35.9890   28.5030   41.3630 C   0  0  0  0  0  0  0  0  0  0  0  0
   34.9440   28.7020   41.7060 H   0  0  0  0  0  0  0  0  0  0  0  0
   36.0000   27.6350   40.6660 H   0  0  0  0  0  0  0  0  0  0  0  0
   36.3480   29.6870   40.5380 C   0  0  0  0  0  0  0  0  0  0  0  0
   36.3580   29.4570   39.1820 C   0  0  0  0  0  0  0  0  0  0  0  0
   36.6910   30.4920   38.2950 C   0  0  0  0  0  0  0  0  0  0  0  0
   36.9930   31.6970   38.8600 N   0  0  0  0  0  0  0  0  0  0  0  0
   36.9730   31.8880   40.2040 C   0  0  0  0  0  0  0  0  0  0  0  0
   36.6550   30.8990   41.0400 N   0  0  0  0  0  0  0  0  0  0  0  0
   36.1580   28.6370   38.5110 H   0  0  0  0  0  0  0  0  0  0  0  0
   36.7640   30.5420   37.2230 H   0  0  0  0  0  0  0  0  0  0  0  0
   37.2140   32.8510   40.6400 H   0  0  0  0  0  0  0  0  0  0  0  0
   36.9180   28.3140   42.5120 C   0  0  1  0  0  0  0  0  0  0  0  0
   36.4050   27.3450   43.5790 C   0  0  0  0  0  0  0  0  0  0  0  0
   37.5770   26.9950   42.7080 C   0  0  1  0  0  0  0  0  0  0  0  0
   37.4730   29.1350   42.9920 H   0  0  0  0  0  0  0  0  0  0  0  0
   35.4610   26.7860   43.3620 H   0  0  0  0  0  0  0  0  0  0  0  0
   36.5240   27.5580   44.6380 H   0  0  0  0  0  0  0  0  0  0  0  0
   38.5820   26.9680   43.2180 H   0  0  0  0  0  0  0  0  0  0  0  0
   37.4810   26.0110   41.5830 C   0  0  0  0  0  3  0  0  0  0  0  0
   36.8490   24.7030   42.0180 C   0  0  0  0  0  2  0  0  0  0  0  0
   37.7010   23.6310   41.3410 C   0  0  0  0  0  2  0  0  0  0  0  0
   39.0610   24.2220   41.4980 C   0  0  0  0  0  2  0  0  0  0  0  0
   38.8770   25.6720   41.1510 C   0  0  0  0  0  2  0  0  0  0  0  0
  1  2  1  0  0  0  0
  1 13  1  0  0  0  0
  3  1  1  0  0  0  0
  4  9  1  0  0  0  0
  4  1  1  0  0  0  0
  5  4  2  0  0  0  0
  6  7  2  0  0  0  0
  6  5  1  0  0  0  0
  7  8  1  0  0  0  0
  8 12  1  0  0  0  0
  8  9  2  0  0  0  0
 10  5  1  0  0  0  0
 11  6  1  0  0  0  0
 13 15  1  0  0  0  0
 13 16  1  1  0  0  0
 13 14  1  0  0  0  0
 14 18  1  0  0  0  0
 15 19  1  1  0  0  0
 15 14  1  0  0  0  0
 17 14  1  0  0  0  0
 20 21  1  0  0  0  0
 20 15  1  0  0  0  0
 22 23  1  0  0  0  0
 22 21  1  0  0  0  0
 24 23  1  0  0  0  0
 24 20  1  0  0  0  0
M  END
>  <minimizedAffinity>
-4.78144169

$$$$

 OpenBabel03252500423D

 24 26  0  0  1  0  0  0  0  0999 V2000
   36.9520   28.8470   41.6780 C   0  0  0  0  0  0  0  0  0  0  0  0
   35.8570   28.8880   41.4560 H   0  0  0  0  0  0  0  0  0  0  0  0
   37.4480   28.1180   40.9980 H   0  0  0  0  0  0  0  0  0  0  0  0
   37.4680   30.1840   41.2830 C   0  0  0  0  0  0  0  0  0  0  0  0
   38.7590   30.4400   41.6870 C   0  0  0  0  0  0  0  0  0  0  0  0
   39.3600   31.6710   41.3860 C   0  0  0  0  0  0  0  0  0  0  0  0
   38.5950   32.5610   40.6880 N   0  0  0  0  0  0  0  0  0  0  0  0
   37.3240   32.2740   40.3050 C   0  0  0  0  0  0  0  0  0  0  0  0
   36.7610   31.1010   40.5950 N   0  0  0  0  0  0  0  0  0  0  0  0
   39.5450   29.9260   42.2170 H   0  0  0  0  0  0  0  0  0  0  0  0
   40.3310   32.0830   41.5950 H   0  0  0  0  0  0  0  0  0  0  0  0
   36.7280   32.9900   39.7500 H   0  0  0  0  0  0  0  0  0  0  0  0
   37.2120   28.5440   43.1130 C   0  0  1  0  0  0  0  0  0  0  0  0
   36.3550   27.4110   43.6800 C   0  0  0  0  0  0  0  0  0  0  0  0
   37.8340   27.2460   43.4840 C   0  0  1  0  0  0  0  0  0  0  0  0
   37.3630   29.3160   43.8840 H   0  0  0  0  0  0  0  0  0  0  0  0
   35.7090   26.8420   42.9660 H   0  0  0  0  0  0  0  0  0  0  0  0
   35.9130   27.4790   44.6710 H   0  0  0  0  0  0  0  0  0  0  0  0
   38.4550   27.1970   44.4240 H   0  0  0  0  0  0  0  0  0  0  0  0
   38.4150   26.4260   42.3740 C   0  0  0  0  0  3  0  0  0  0  0  0
   37.5700   25.2060   42.0590 C   0  0  0  0  0  2  0  0  0  0  0  0
   38.5880   24.0860   41.8560 C   0  0  0  0  0  2  0  0  0  0  0  0
   39.5720   24.4110   42.9300 C   0  0  0  0  0  2  0  0  0  0  0  0
   39.7420   25.9010   42.8370 C   0  0  0  0  0  2  0  0  0  0  0  0
  1 13  1  0  0  0  0
  2  1  1  0  0  0  0
  3  1  1  0  0  0  0
  4  1  1  0  0  0  0
  4  5  1  0  0  0  0
  5 10  1  0  0  0  0
  6 11  1  0  0  0  0
  6  5  2  0  0  0  0
  7  6  1  0  0  0  0
  8  9  1  0  0  0  0
  8  7  2  0  0  0  0
  9  4  2  0  0  0  0
 12  8  1  0  0  0  0
 13 15  1  0  0  0  0
 13 14  1  0  0  0  0
 13 16  1  1  0  0  0
 14 18  1  0  0  0  0
 15 14  1  0  0  0  0
 15 19  1  1  0  0  0
 17 14  1  0  0  0  0
 20 24  1  0  0  0  0
 20 15  1  0  0  0  0
 21 20  1  0  0  0  0
 22 21  1  0  0  0  0
 22 23  1  0  0  0  0
 24 23  1  0  0  0  0
M  END
>  <minimizedAffinity>
-4.71933365

$$$$

 OpenBabel03252500423D

 24 26  0  0  1  0  0  0  0  0999 V2000
   37.1110   30.5120   39.3370 C   0  0  0  0  0  0  0  0  0  0  0  0
   36.9030   30.7610   38.2670 H   0  0  0  0  0  0  0  0  0  0  0  0
   37.8170   29.6540   39.3960 H   0  0  0  0  0  0  0  0  0  0  0  0
   37.8570   31.6870   39.8610 C   0  0  0  0  0  0  0  0  0  0  0  0
   37.3250   32.9050   39.5060 C   0  0  0  0  0  0  0  0  0  0  0  0
   37.9410   34.0930   39.9290 C   0  0  0  0  0  0  0  0  0  0  0  0
   39.0650   33.9500   40.6900 N   0  0  0  0  0  0  0  0  0  0  0  0
   39.5620   32.7310   41.0210 C   0  0  0  0  0  0  0  0  0  0  0  0
   38.9700   31.6080   40.6150 N   0  0  0  0  0  0  0  0  0  0  0  0
   36.4790   33.2740   38.9480 H   0  0  0  0  0  0  0  0  0  0  0  0
   37.7100   35.1320   39.7770 H   0  0  0  0  0  0  0  0  0  0  0  0
   40.4560   32.6330   41.6270 H   0  0  0  0  0  0  0  0  0  0  0  0
   35.8540   30.2590   40.0970 C   0  0  1  0  0  0  0  0  0  0  0  0
   35.1440   28.9580   39.7170 C   0  0  0  0  0  0  0  0  0  0  0  0
   35.7990   29.1250   41.0570 C   0  0  1  0  0  0  0  0  0  0  0  0
   35.1080   31.0360   40.3230 H   0  0  0  0  0  0  0  0  0  0  0  0
   35.6680   28.2680   39.0090 H   0  0  0  0  0  0  0  0  0  0  0  0
   34.0640   28.9160   39.6100 H   0  0  0  0  0  0  0  0  0  0  0  0
   35.1030   29.2040   41.9420 H   0  0  0  0  0  0  0  0  0  0  0  0
   37.0960   28.4660   41.4100 C   0  0  0  0  0  3  0  0  0  0  0  0
   36.9500   26.9660   41.5820 C   0  0  0  0  0  2  0  0  0  0  0  0
   37.7880   26.6450   42.8170 C   0  0  0  0  0  2  0  0  0  0  0  0
   37.4660   27.8190   43.6800 C   0  0  0  0  0  2  0  0  0  0  0  0
   37.5310   28.9940   42.7450 C   0  0  0  0  0  2  0  0  0  0  0  0
  1  3  1  0  0  0  0
  1  4  1  0  0  0  0
  1 13  1  0  0  0  0
  2  1  1  0  0  0  0
  4  9  1  0  0  0  0
  5  4  2  0  0  0  0
  5  6  1  0  0  0  0
  6  7  2  0  0  0  0
  7  8  1  0  0  0  0
  8 12  1  0  0  0  0
  9  8  2  0  0  0  0
 10  5  1  0  0  0  0
 11  6  1  0  0  0  0
 13 16  1  1  0  0  0
 13 15  1  0  0  0  0
 14 13  1  0  0  0  0
 14 15  1  0  0  0  0
 15 20  1  0  0  0  0
 15 19  1  1  0  0  0
 17 14  1  0  0  0  0
 18 14  1  0  0  0  0
 20 21  1  0  0  0  0
 20 24  1  0  0  0  0
 21 22  1  0  0  0  0
 22 23  1  0  0  0  0
 24 23  1  0  0  0  0
M  END
>  <minimizedAffinity>
-4.66900015

$$$$

 OpenBabel03252500423D

 24 26  0  0  1  0  0  0  0  0999 V2000
   37.6990   29.9650   40.4840 C   0  0  0  0  0  0  0  0  0  0  0  0
   37.5490   29.6460   39.4230 H   0  0  0  0  0  0  0  0  0  0  0  0
   38.6300   29.5080   40.8890 H   0  0  0  0  0  0  0  0  0  0  0  0
   37.9670   31.4260   40.4050 C   0  0  0  0  0  0  0  0  0  0  0  0
   37.0900   32.1250   39.6080 C   0  0  0  0  0  0  0  0  0  0  0  0
   37.2400   33.5100   39.4420 C   0  0  0  0  0  0  0  0  0  0  0  0
   38.2840   34.0870   40.1070 N   0  0  0  0  0  0  0  0  0  0  0  0
   39.1300   33.3650   40.8860 C   0  0  0  0  0  0  0  0  0  0  0  0
   38.9790   32.0490   41.0380 N   0  0  0  0  0  0  0  0  0  0  0  0
   36.2180   31.9170   39.0090 H   0  0  0  0  0  0  0  0  0  0  0  0
   36.6900   34.2450   38.8810 H   0  0  0  0  0  0  0  0  0  0  0  0
   39.9540   33.8370   41.4090 H   0  0  0  0  0  0  0  0  0  0  0  0
   36.5090   29.6560   41.3250 C   0  0  1  0  0  0  0  0  0  0  0  0
   35.3780   28.9510   40.5740 C   0  0  0  0  0  0  0  0  0  0  0  0
   36.1770   28.2380   41.6260 C   0  0  1  0  0  0  0  0  0  0  0  0
   36.0850   30.3520   42.0660 H   0  0  0  0  0  0  0  0  0  0  0  0
   35.5740   28.6300   39.5210 H   0  0  0  0  0  0  0  0  0  0  0  0
   34.3380   29.2260   40.7340 H   0  0  0  0  0  0  0  0  0  0  0  0
   35.6340   28.0060   42.5870 H   0  0  0  0  0  0  0  0  0  0  0  0
   37.2130   27.2100   41.2940 C   0  0  0  0  0  3  0  0  0  0  0  0
   36.7680   26.2890   40.1740 C   0  0  0  0  0  2  0  0  0  0  0  0
   37.2110   24.9000   40.6310 C   0  0  0  0  0  2  0  0  0  0  0  0
   36.9000   24.9790   42.0880 C   0  0  0  0  0  2  0  0  0  0  0  0
   37.3950   26.3360   42.5000 C   0  0  0  0  0  2  0  0  0  0  0  0
  1  3  1  0  0  0  0
  1 13  1  0  0  0  0
  2  1  1  0  0  0  0
  4  1  1  0  0  0  0
  4  9  1  0  0  0  0
  5  4  2  0  0  0  0
  6  5  1  0  0  0  0
  6  7  2  0  0  0  0
  7  8  1  0  0  0  0
  8  9  2  0  0  0  0
  8 12  1  0  0  0  0
 10  5  1  0  0  0  0
 11  6  1  0  0  0  0
 13 15  1  0  0  0  0
 13 16  1  1  0  0  0
 14 18  1  0  0  0  0
 14 13  1  0  0  0  0
 14 15  1  0  0  0  0
 15 19  1  1  0  0  0
 17 14  1  0  0  0  0
 20 15  1  0  0  0  0
 20 24  1  0  0  0  0
 21 22  1  0  0  0  0
 21 20  1  0  0  0  0
 22 23  1  0  0  0  0
 23 24  1  0  0  0  0
M  END
>  <minimizedAffinity>
-4.65659809

$$$$

 OpenBabel03252500423D

 24 26  0  0  1  0  0  0  0  0999 V2000
   38.3530   28.2340   43.4000 C   0  0  0  0  0  0  0  0  0  0  0  0
   38.6280   28.7210   44.3680 H   0  0  0  0  0  0  0  0  0  0  0  0
   37.3980   27.6750   43.5150 H   0  0  0  0  0  0  0  0  0  0  0  0
   38.0530   29.3640   42.4800 C   0  0  0  0  0  0  0  0  0  0  0  0
   39.1010   30.2330   42.2830 C   0  0  0  0  0  0  0  0  0  0  0  0
   38.9430   31.3470   41.4440 C   0  0  0  0  0  0  0  0  0  0  0  0
   37.7170   31.4940   40.8620 N   0  0  0  0  0  0  0  0  0  0  0  0
   36.7050   30.6160   41.0800 C   0  0  0  0  0  0  0  0  0  0  0  0
   36.8640   29.5600   41.8790 N   0  0  0  0  0  0  0  0  0  0  0  0
   40.1260   30.3310   42.6020 H   0  0  0  0  0  0  0  0  0  0  0  0
   39.6050   32.1420   41.1490 H   0  0  0  0  0  0  0  0  0  0  0  0
   35.7360   30.7450   40.6110 H   0  0  0  0  0  0  0  0  0  0  0  0
   39.4530   27.3690   42.8880 C   0  0  1  0  0  0  0  0  0  0  0  0
   39.6490   26.0730   43.6760 C   0  0  0  0  0  0  0  0  0  0  0  0
   39.1210   26.0570   42.2710 C   0  0  1  0  0  0  0  0  0  0  0  0
   40.4300   27.7520   42.5560 H   0  0  0  0  0  0  0  0  0  0  0  0
   38.9010   25.8310   44.4730 H   0  0  0  0  0  0  0  0  0  0  0  0
   40.6420   25.7050   43.9180 H   0  0  0  0  0  0  0  0  0  0  0  0
   39.8160   25.6410   41.4860 H   0  0  0  0  0  0  0  0  0  0  0  0
   37.6810   25.7980   41.9520 C   0  0  0  0  0  3  0  0  0  0  0  0
   37.3220   24.3300   42.0750 C   0  0  0  0  0  2  0  0  0  0  0  0
   36.4350   24.0570   40.8620 C   0  0  0  0  0  2  0  0  0  0  0  0
   37.1360   24.8640   39.8220 C   0  0  0  0  0  2  0  0  0  0  0  0
   37.4580   26.1590   40.5130 C   0  0  0  0  0  2  0  0  0  0  0  0
  1  3  1  0  0  0  0
  1  2  1  0  0  0  0
  4  1  1  0  0  0  0
  5  4  1  0  0  0  0
  5 10  1  0  0  0  0
  6  5  2  0  0  0  0
  7  8  2  0  0  0  0
  7  6  1  0  0  0  0
  8  9  1  0  0  0  0
  9  4  2  0  0  0  0
 11  6  1  0  0  0  0
 12  8  1  0  0  0  0
 13 16  1  6  0  0  0
 13  1  1  0  0  0  0
 13 14  1  0  0  0  0
 14 18  1  0  0  0  0
 14 17  1  0  0  0  0
 15 19  1  6  0  0  0
 15 13  1  0  0  0  0
 15 14  1  0  0  0  0
 20 21  1  0  0  0  0
 20 15  1  0  0  0  0
 22 21  1  0  0  0  0
 23 24  1  0  0  0  0
 23 22  1  0  0  0  0
 24 20  1  0  0  0  0
M  END
>  <minimizedAffinity>
-4.47432518

$$$$

 OpenBabel03252500423D

 24 26  0  0  1  0  0  0  0  0999 V2000
   36.8050   28.3390   42.1400 C   0  0  0  0  0  0  0  0  0  0  0  0
   36.0090   28.3080   42.9240 H   0  0  0  0  0  0  0  0  0  0  0  0
   37.3610   29.3000   42.2030 H   0  0  0  0  0  0  0  0  0  0  0  0
   37.7730   27.2840   42.5430 C   0  0  0  0  0  0  0  0  0  0  0  0
   37.5300   26.0460   41.9930 C   0  0  0  0  0  0  0  0  0  0  0  0
   38.3660   24.9630   42.3010 C   0  0  0  0  0  0  0  0  0  0  0  0
   39.3990   25.2220   43.1560 N   0  0  0  0  0  0  0  0  0  0  0  0
   39.6080   26.4570   43.6800 C   0  0  0  0  0  0  0  0  0  0  0  0
   38.8090   27.4810   43.3810 N   0  0  0  0  0  0  0  0  0  0  0  0
   36.8210   25.6010   41.3140 H   0  0  0  0  0  0  0  0  0  0  0  0
   38.3700   23.9300   41.9990 H   0  0  0  0  0  0  0  0  0  0  0  0
   40.4330   26.6490   44.3570 H   0  0  0  0  0  0  0  0  0  0  0  0
   36.2460   28.1000   40.7800 C   0  0  1  0  0  0  0  0  0  0  0  0
   35.0760   29.0140   40.4140 C   0  0  0  0  0  0  0  0  0  0  0  0
   36.4070   29.1430   39.7320 C   0  0  1  0  0  0  0  0  0  0  0  0
   36.0820   27.0990   40.3520 H   0  0  0  0  0  0  0  0  0  0  0  0
   34.8180   29.8390   41.1250 H   0  0  0  0  0  0  0  0  0  0  0  0
   34.2020   28.6310   39.8940 H   0  0  0  0  0  0  0  0  0  0  0  0
   36.4440   28.8190   38.6520 H   0  0  0  0  0  0  0  0  0  0  0  0
   37.3590   30.2610   40.0240 C   0  0  0  0  0  3  0  0  0  0  0  0
   36.6490   31.4990   40.5380 C   0  0  0  0  0  2  0  0  0  0  0  0
   37.3350   32.6550   39.8140 C   0  0  0  0  0  2  0  0  0  0  0  0
   37.5190   32.0590   38.4580 C   0  0  0  0  0  2  0  0  0  0  0  0
   38.0040   30.6640   38.7300 C   0  0  0  0  0  2  0  0  0  0  0  0
  1  3  1  0  0  0  0
  1  4  1  0  0  0  0
  1  2  1  0  0  0  0
  4  9  1  0  0  0  0
  5  6  1  0  0  0  0
  5  4  2  0  0  0  0
  6  7  2  0  0  0  0
  7  8  1  0  0  0  0
  8 12  1  0  0  0  0
  9  8  2  0  0  0  0
 10  5  1  0  0  0  0
 11  6  1  0  0  0  0
 13 16  1  6  0  0  0
 13  1  1  0  0  0  0
 14 13  1  0  0  0  0
 14 17  1  0  0  0  0
 15 19  1  6  0  0  0
 15 20  1  0  0  0  0
 15 14  1  0  0  0  0
 15 13  1  0  0  0  0
 18 14  1  0  0  0  0
 20 21  1  0  0  0  0
 22 21  1  0  0  0  0
 23 24  1  0  0  0  0
 23 22  1  0  0  0  0
 24 20  1  0  0  0  0
M  END
>  <minimizedAffinity>
-4.44925642

$$$$

 OpenBabel03252500423D

 24 26  0  0  1  0  0  0  0  0999 V2000
   37.1970   29.8990   38.4100 C   0  0  0  0  0  0  0  0  0  0  0  0
   37.2200   30.0930   37.3100 H   0  0  0  0  0  0  0  0  0  0  0  0
   37.9300   29.1030   38.6700 H   0  0  0  0  0  0  0  0  0  0  0  0
   37.7200   31.1480   39.0260 C   0  0  0  0  0  0  0  0  0  0  0  0
   39.0460   31.0920   39.3900 C   0  0  0  0  0  0  0  0  0  0  0  0
   39.6580   32.2020   39.9910 C   0  0  0  0  0  0  0  0  0  0  0  0
   38.8670   33.2990   40.1790 N   0  0  0  0  0  0  0  0  0  0  0  0
   37.5610   33.3180   39.8060 C   0  0  0  0  0  0  0  0  0  0  0  0
   36.9880   32.2580   39.2350 N   0  0  0  0  0  0  0  0  0  0  0  0
   39.8560   30.3820   39.3450 H   0  0  0  0  0  0  0  0  0  0  0  0
   40.6550   32.3830   40.3520 H   0  0  0  0  0  0  0  0  0  0  0  0
   36.9440   34.1960   39.9600 H   0  0  0  0  0  0  0  0  0  0  0  0
   35.8220   29.5720   38.8820 C   0  0  1  0  0  0  0  0  0  0  0  0
   35.3490   28.1670   38.5080 C   0  0  0  0  0  0  0  0  0  0  0  0
   35.6390   28.5370   39.9330 C   0  0  1  0  0  0  0  0  0  0  0  0
   34.9750   30.2740   38.8330 H   0  0  0  0  0  0  0  0  0  0  0  0
   36.0900   27.4790   38.0290 H   0  0  0  0  0  0  0  0  0  0  0  0
   34.3360   27.9870   38.1580 H   0  0  0  0  0  0  0  0  0  0  0  0
   34.7440   28.6170   40.6160 H   0  0  0  0  0  0  0  0  0  0  0  0
   36.8660   28.0730   40.6550 C   0  0  0  0  0  3  0  0  0  0  0  0
   36.8860   26.5680   40.8410 C   0  0  0  0  0  2  0  0  0  0  0  0
   37.3850   26.3730   42.2710 C   0  0  0  0  0  2  0  0  0  0  0  0
   36.6770   27.4880   42.9640 C   0  0  0  0  0  2  0  0  0  0  0  0
   36.8350   28.6590   42.0360 C   0  0  0  0  0  2  0  0  0  0  0  0
  1  3  1  0  0  0  0
  1 13  1  0  0  0  0
  1  4  1  0  0  0  0
  2  1  1  0  0  0  0
  4  9  2  0  0  0  0
  4  5  1  0  0  0  0
  5  6  2  0  0  0  0
  6  7  1  0  0  0  0
  6 11  1  0  0  0  0
  8 12  1  0  0  0  0
  8  7  2  0  0  0  0
  9  8  1  0  0  0  0
 10  5  1  0  0  0  0
 13 16  1  6  0  0  0
 13 15  1  0  0  0  0
 14 13  1  0  0  0  0
 14 15  1  0  0  0  0
 15 19  1  1  0  0  0
 15 20  1  0  0  0  0
 17 14  1  0  0  0  0
 18 14  1  0  0  0  0
 20 21  1  0  0  0  0
 20 24  1  0  0  0  0
 21 22  1  0  0  0  0
 22 23  1  0  0  0  0
 24 23  1  0  0  0  0
M  END
>  <minimizedAffinity>
-4.18620062

$$$$

 OpenBabel03252500423D

 24 26  0  0  1  0  0  0  0  0999 V2000
   39.4330   31.8140   39.2040 C   0  0  0  0  0  0  0  0  0  0  0  0
   39.0880   31.5690   38.1690 H   0  0  0  0  0  0  0  0  0  0  0  0
   39.8000   30.8930   39.7090 H   0  0  0  0  0  0  0  0  0  0  0  0
   40.6310   32.6730   39.0090 C   0  0  0  0  0  0  0  0  0  0  0  0
   41.0860   32.7330   37.7110 C   0  0  0  0  0  0  0  0  0  0  0  0
   42.2160   33.5020   37.3950 C   0  0  0  0  0  0  0  0  0  0  0  0
   42.8060   34.1610   38.4360 N   0  0  0  0  0  0  0  0  0  0  0  0
   42.3300   34.0790   39.7040 C   0  0  0  0  0  0  0  0  0  0  0  0
   41.2550   33.3450   39.9950 N   0  0  0  0  0  0  0  0  0  0  0  0
   40.8060   32.3340   36.7490 H   0  0  0  0  0  0  0  0  0  0  0  0
   42.7390   33.6920   36.4750 H   0  0  0  0  0  0  0  0  0  0  0  0
   42.8090   34.6080   40.5210 H   0  0  0  0  0  0  0  0  0  0  0  0
   38.3700   32.5010   39.9900 C   0  0  1  0  0  0  0  0  0  0  0  0
   37.1570   32.9290   39.1630 C   0  0  0  0  0  0  0  0  0  0  0  0
   37.0570   31.8310   40.1820 C   0  0  1  0  0  0  0  0  0  0  0  0
   38.5730   33.2550   40.7670 H   0  0  0  0  0  0  0  0  0  0  0  0
   37.1140   32.5980   38.0950 H   0  0  0  0  0  0  0  0  0  0  0  0
   36.6830   33.8950   39.3150 H   0  0  0  0  0  0  0  0  0  0  0  0
   36.4620   32.0700   41.1100 H   0  0  0  0  0  0  0  0  0  0  0  0
   36.9680   30.3850   39.8050 C   0  0  0  0  0  3  0  0  0  0  0  0
   36.2940   30.1830   38.4620 C   0  0  0  0  0  2  0  0  0  0  0  0
   35.3730   28.9840   38.6790 C   0  0  0  0  0  2  0  0  0  0  0  0
   34.8690   29.2700   40.0530 C   0  0  0  0  0  2  0  0  0  0  0  0
   36.0910   29.7010   40.8130 C   0  0  0  0  0  2  0  0  0  0  0  0
  1  3  1  0  0  0  0
  1 13  1  0  0  0  0
  2  1  1  0  0  0  0
  4  1  1  0  0  0  0
  4  9  1  0  0  0  0
  5  4  2  0  0  0  0
  6  5  1  0  0  0  0
  6  7  2  0  0  0  0
  7  8  1  0  0  0  0
  8  9  2  0  0  0  0
  8 12  1  0  0  0  0
 10  5  1  0  0  0  0
 11  6  1  0  0  0  0
 13 15  1  0  0  0  0
 13 16  1  1  0  0  0
 14 18  1  0  0  0  0
 14 13  1  0  0  0  0
 14 15  1  0  0  0  0
 15 19  1  1  0  0  0
 17 14  1  0  0  0  0
 20 15  1  0  0  0  0
 20 24  1  0  0  0  0
 21 22  1  0  0  0  0
 21 20  1  0  0  0  0
 22 23  1  0  0  0  0
 23 24  1  0  0  0  0
M  END
>  <minimizedAffinity>
-4.16401482

$$$$

 OpenBabel03252500423D

 24 26  0  0  1  0  0  0  0  0999 V2000
   36.8250   28.0590   41.2260 C   0  0  0  0  0  0  0  0  0  0  0  0
   35.8000   27.7350   40.9220 H   0  0  0  0  0  0  0  0  0  0  0  0
   37.5610   27.2580   40.9910 H   0  0  0  0  0  0  0  0  0  0  0  0
   37.1510   29.1880   40.3120 C   0  0  0  0  0  0  0  0  0  0  0  0
   36.8260   28.9660   38.9940 C   0  0  0  0  0  0  0  0  0  0  0  0
   37.0910   29.9500   38.0290 C   0  0  0  0  0  0  0  0  0  0  0  0
   37.6740   31.0980   38.4830 N   0  0  0  0  0  0  0  0  0  0  0  0
   37.9810   31.2820   39.7930 C   0  0  0  0  0  0  0  0  0  0  0  0
   37.7250   30.3420   40.7030 N   0  0  0  0  0  0  0  0  0  0  0  0
   36.3710   28.1870   38.4050 H   0  0  0  0  0  0  0  0  0  0  0  0
   36.9300   29.9970   36.9670 H   0  0  0  0  0  0  0  0  0  0  0  0
   38.4430   32.1990   40.1400 H   0  0  0  0  0  0  0  0  0  0  0  0
   36.8720   28.4640   42.6590 C   0  0  1  0  0  0  0  0  0  0  0  0
   36.5750   27.3290   43.6400 C   0  0  0  0  0  0  0  0  0  0  0  0
   37.9480   27.9270   43.5330 C   0  0  1  0  0  0  0  0  0  0  0  0
   36.4520   29.4060   43.0430 H   0  0  0  0  0  0  0  0  0  0  0  0
   36.4670   26.2970   43.2230 H   0  0  0  0  0  0  0  0  0  0  0  0
   35.9490   27.4880   44.5130 H   0  0  0  0  0  0  0  0  0  0  0  0
   38.2870   28.5480   44.4110 H   0  0  0  0  0  0  0  0  0  0  0  0
   39.0850   27.2220   42.8610 C   0  0  0  0  0  3  0  0  0  0  0  0
   39.6010   26.0550   43.6800 C   0  0  0  0  0  2  0  0  0  0  0  0
   41.1210   26.1560   43.5640 C   0  0  0  0  0  2  0  0  0  0  0  0
   41.3040   27.6350   43.6450 C   0  0  0  0  0  2  0  0  0  0  0  0
   40.2270   28.1900   42.7570 C   0  0  0  0  0  2  0  0  0  0  0  0
  1 13  1  0  0  0  0
  2  1  1  0  0  0  0
  3  1  1  0  0  0  0
  4  9  1  0  0  0  0
  4  1  1  0  0  0  0
  5  4  2  0  0  0  0
  6  7  2  0  0  0  0
  6  5  1  0  0  0  0
  7  8  1  0  0  0  0
  8 12  1  0  0  0  0
  8  9  2  0  0  0  0
 10  5  1  0  0  0  0
 11  6  1  0  0  0  0
 13 16  1  1  0  0  0
 13 15  1  0  0  0  0
 13 14  1  0  0  0  0
 14 18  1  0  0  0  0
 15 14  1  0  0  0  0
 15 19  1  1  0  0  0
 17 14  1  0  0  0  0
 20 15  1  0  0  0  0
 20 21  1  0  0  0  0
 22 23  1  0  0  0  0
 22 21  1  0  0  0  0
 24 20  1  0  0  0  0
 24 23  1  0  0  0  0
M  END
>  <minimizedAffinity>
-4.13679504

$$$$
