
     RDKit          3D

 26 27  0  0  0  0  0  0  0  0999 V2000
   45.4347   35.0673   44.0016 C   0  0  0  0  0  0  0  0  0  0  0  0
   46.5042   34.2968   43.4959 C   0  0  0  0  0  0  0  0  0  0  0  0
   47.0199   33.2857   44.3367 C   0  0  0  0  0  0  0  0  0  0  0  0
   46.4616   33.1198   45.5639 N   0  0  0  0  0  0  0  0  0  0  0  0
   45.4249   33.9000   45.9975 C   0  0  0  0  0  0  0  0  0  0  0  0
   44.9237   34.8656   45.2093 N   0  0  0  0  0  0  0  0  0  0  0  0
   44.8960   36.1378   43.0991 C   0  0  0  0  0  0  0  0  0  0  0  0
   46.9251   34.4552   42.5143 H   0  0  0  0  0  0  0  0  0  0  0  0
   47.8373   32.6725   43.9914 H   0  0  0  0  0  0  0  0  0  0  0  0
   43.8844   36.4089   43.4875 H   0  0  0  0  0  0  0  0  0  0  0  0
   44.8457   35.7325   42.0680 H   0  0  0  0  0  0  0  0  0  0  0  0
   45.6033   36.9869   43.1588 H   0  0  0  0  0  0  0  0  0  0  0  0
   44.8981   33.6410   47.3292 C   0  0  0  0  0  0  0  0  0  0  0  0
   45.5703   34.3843   48.4379 C   0  0  0  0  0  0  0  0  0  0  0  0
   44.8838   33.7736   49.6468 C   0  0  0  0  0  0  0  0  0  0  0  0
   44.5193   32.3595   49.2374 C   0  0  0  0  0  0  0  0  0  0  0  0
   45.0266   32.2114   47.8040 C   0  0  0  0  0  0  0  0  0  0  0  0
   43.8071   33.9041   47.3561 H   0  0  0  0  0  0  0  0  0  0  0  0
   46.6395   34.0748   48.5047 H   0  0  0  0  0  0  0  0  0  0  0  0
   45.4389   35.4824   48.3929 H   0  0  0  0  0  0  0  0  0  0  0  0
   43.9354   34.3356   49.7575 H   0  0  0  0  0  0  0  0  0  0  0  0
   45.5145   33.7866   50.5580 H   0  0  0  0  0  0  0  0  0  0  0  0
   44.9208   31.6187   49.9270 H   0  0  0  0  0  0  0  0  0  0  0  0
   43.4102   32.2140   49.1532 H   0  0  0  0  0  0  0  0  0  0  0  0
   46.1053   31.9351   47.8635 H   0  0  0  0  0  0  0  0  0  0  0  0
   44.4339   31.4864   47.2159 H   0  0  0  0  0  0  0  0  0  0  0  0
  1  6  2  0
  2  1  1  0
  2  3  2  0
  3  4  1  0
  4  5  2  0
  6  5  1  0
  7  1  1  0
  2  8  1  0
  3  9  1  0
  7 10  1  0
  7 11  1  0
  7 12  1  0
 13 14  1  0
 14 15  1  0
 15 16  1  0
 16 17  1  0
 17 13  1  0
 13 18  1  0
 14 19  1  0
 14 20  1  0
 15 21  1  0
 15 22  1  0
 16 23  1  0
 16 24  1  0
 17 25  1  0
 17 26  1  0
  5 13  1  0
M  ISO  5   8  14   9  14  10   8  11   8  12   8
M  END
>  <DihAtoms>  (1) 
3,4,12,13

>  <DihDeg>  (1) 
-121.42619359639653

$$$$
