
 OpenBabel03252504563D

 27 29  0  0  1  0  0  0  0  0999 V2000
   36.7160   28.9140   41.6670 N   0  0  0  0  0  0  0  0  0  0  0  0
   37.7800   29.6100   42.3340 C   0  0  0  0  0  0  0  0  0  0  0  0
   37.8680   28.8410   43.6100 C   0  0  0  0  0  0  0  0  0  0  0  0
   36.9100   27.6940   43.5650 C   0  0  0  0  0  0  0  0  0  0  0  0
   36.4630   27.6130   42.1000 C   0  0  2  0  0  0  0  0  0  0  0  0
   38.4480   30.4070   42.2190 H   0  0  0  0  0  0  0  0  0  0  0  0
   38.5320   28.9830   44.4720 H   0  0  0  0  0  0  0  0  0  0  0  0
   37.5000   26.8120   43.8180 H   0  0  0  0  0  0  0  0  0  0  0  0
   36.0900   27.9110   44.2570 H   0  0  0  0  0  0  0  0  0  0  0  0
   35.4000   27.3050   42.1980 H   0  0  0  0  0  0  0  0  0  0  0  0
   37.1790   26.4800   41.4200 C   0  0  0  0  0  3  0  0  0  0  0  0
   36.6130   26.1160   40.0670 C   0  0  0  0  0  2  0  0  0  0  0  0
   36.9510   24.7110   39.7530 C   0  0  0  0  0  2  0  0  0  0  0  0
   37.4740   24.1370   41.0350 C   0  0  0  0  0  2  0  0  0  0  0  0
   37.0700   25.1460   42.1210 C   0  0  0  0  0  2  0  0  0  0  0  0
   36.0080   29.6550   40.7570 C   0  0  0  0  0  0  0  0  0  0  0  0
   35.5680   30.5740   41.2650 H   0  0  0  0  0  0  0  0  0  0  0  0
   35.0880   29.2020   40.3050 H   0  0  0  0  0  0  0  0  0  0  0  0
   38.0700   30.1590   37.6250 C   0  0  0  0  0  0  0  0  0  0  0  0
   37.4460   29.4520   38.6700 C   0  0  0  0  0  0  0  0  0  0  0  0
   36.7800   30.1730   39.6250 C   0  0  0  0  0  0  0  0  0  0  0  0
   36.7670   31.5050   39.5030 N   0  0  0  0  0  0  0  0  0  0  0  0
   37.3790   32.1950   38.4780 C   0  0  0  0  0  0  0  0  0  0  0  0
   38.0290   31.4930   37.5430 N   0  0  0  0  0  0  0  0  0  0  0  0
   38.5680   29.4750   36.9250 H   0  0  0  0  0  0  0  0  0  0  0  0
   37.4460   28.3840   38.7890 H   0  0  0  0  0  0  0  0  0  0  0  0
   37.3310   33.2750   38.4360 H   0  0  0  0  0  0  0  0  0  0  0  0
  1  5  1  0  0  0  0
  1  2  1  0  0  0  0
  2  3  2  0  0  0  0
  3  7  1  0  0  0  0
  4  3  1  0  0  0  0
  4  8  1  0  0  0  0
  4  9  1  0  0  0  0
  5 10  1  6  0  0  0
  5  4  1  0  0  0  0
  6  2  1  0  0  0  0
 11  5  1  0  0  0  0
 11 15  1  0  0  0  0
 12 11  1  0  0  0  0
 13 12  1  0  0  0  0
 13 14  1  0  0  0  0
 14 15  1  0  0  0  0
 16 17  1  0  0  0  0
 16  1  1  0  0  0  0
 18 16  1  0  0  0  0
 19 20  1  0  0  0  0
 20 26  1  0  0  0  0
 20 21  2  0  0  0  0
 21 16  1  0  0  0  0
 22 21  1  0  0  0  0
 23 22  2  0  0  0  0
 24 19  2  0  0  0  0
 24 23  1  0  0  0  0
 25 19  1  0  0  0  0
 27 23  1  0  0  0  0
M  END
>  <minimizedAffinity>
-4.82924652

$$$$

 OpenBabel03252504563D

 27 29  0  0  1  0  0  0  0  0999 V2000
   36.6680   28.6680   41.8170 N   0  0  0  0  0  0  0  0  0  0  0  0
   36.0460   28.3030   40.5750 C   0  0  0  0  0  0  0  0  0  0  0  0
   35.6830   29.6450   40.0320 C   0  0  0  0  0  0  0  0  0  0  0  0
   36.1970   30.7070   40.9520 C   0  0  0  0  0  0  0  0  0  0  0  0
   37.1480   29.9740   41.9050 C   0  0  2  0  0  0  0  0  0  0  0  0
   35.7920   27.4750   39.9890 H   0  0  0  0  0  0  0  0  0  0  0  0
   35.1740   29.9100   39.0980 H   0  0  0  0  0  0  0  0  0  0  0  0
   36.7650   31.3900   40.3180 H   0  0  0  0  0  0  0  0  0  0  0  0
   35.3370   31.1590   41.4590 H   0  0  0  0  0  0  0  0  0  0  0  0
   36.9810   30.5150   42.8610 H   0  0  0  0  0  0  0  0  0  0  0  0
   38.5700   30.2440   41.5000 C   0  0  0  0  0  3  0  0  0  0  0  0
   39.5170   30.4330   42.6620 C   0  0  0  0  0  2  0  0  0  0  0  0
   40.6810   31.2350   42.2230 C   0  0  0  0  0  2  0  0  0  0  0  0
   40.3020   31.7740   40.8770 C   0  0  0  0  0  2  0  0  0  0  0  0
   38.7850   31.5480   40.7670 C   0  0  0  0  0  2  0  0  0  0  0  0
   36.6180   27.7160   42.8020 C   0  0  0  0  0  0  0  0  0  0  0  0
   35.7400   27.0160   42.6190 H   0  0  0  0  0  0  0  0  0  0  0  0
   36.4090   28.0500   43.8510 H   0  0  0  0  0  0  0  0  0  0  0  0
   39.8900   26.0250   43.6700 C   0  0  0  0  0  0  0  0  0  0  0  0
   38.9050   27.0300   43.6780 C   0  0  0  0  0  0  0  0  0  0  0  0
   37.7920   26.8460   42.9010 C   0  0  0  0  0  0  0  0  0  0  0  0
   37.7150   25.7210   42.1810 N   0  0  0  0  0  0  0  0  0  0  0  0
   38.6820   24.7370   42.1750 C   0  0  0  0  0  0  0  0  0  0  0  0
   39.7690   24.9140   42.9350 N   0  0  0  0  0  0  0  0  0  0  0  0
   40.7280   26.2850   44.3300 H   0  0  0  0  0  0  0  0  0  0  0  0
   38.9470   27.9420   44.2460 H   0  0  0  0  0  0  0  0  0  0  0  0
   38.5590   23.8500   41.5700 H   0  0  0  0  0  0  0  0  0  0  0  0
  1  5  1  0  0  0  0
  1 16  1  0  0  0  0
  2  1  1  0  0  0  0
  3  2  2  0  0  0  0
  3  4  1  0  0  0  0
  4  9  1  0  0  0  0
  4  5  1  0  0  0  0
  5 10  1  1  0  0  0
  6  2  1  0  0  0  0
  7  3  1  0  0  0  0
  8  4  1  0  0  0  0
 11  5  1  0  0  0  0
 11 12  1  0  0  0  0
 13 12  1  0  0  0  0
 14 13  1  0  0  0  0
 15 14  1  0  0  0  0
 15 11  1  0  0  0  0
 16 21  1  0  0  0  0
 16 18  1  0  0  0  0
 17 16  1  0  0  0  0
 19 20  1  0  0  0  0
 19 25  1  0  0  0  0
 20 26  1  0  0  0  0
 21 20  2  0  0  0  0
 22 21  1  0  0  0  0
 23 22  2  0  0  0  0
 23 24  1  0  0  0  0
 24 19  2  0  0  0  0
 27 23  1  0  0  0  0
M  END
>  <minimizedAffinity>
-4.73841143

$$$$

 OpenBabel03252504563D

 27 29  0  0  1  0  0  0  0  0999 V2000
   38.4720   28.6020   41.5420 N   0  0  0  0  0  0  0  0  0  0  0  0
   38.8320   28.8050   42.9170 C   0  0  0  0  0  0  0  0  0  0  0  0
   37.5630   28.4260   43.6040 C   0  0  0  0  0  0  0  0  0  0  0  0
   36.5760   27.9420   42.5900 C   0  0  0  0  0  0  0  0  0  0  0  0
   37.3930   27.7490   41.3070 C   0  0  2  0  0  0  0  0  0  0  0  0
   39.6260   29.1060   43.5290 H   0  0  0  0  0  0  0  0  0  0  0  0
   37.3190   28.4170   44.6740 H   0  0  0  0  0  0  0  0  0  0  0  0
   36.2340   26.9720   42.9570 H   0  0  0  0  0  0  0  0  0  0  0  0
   35.7900   28.6990   42.4950 H   0  0  0  0  0  0  0  0  0  0  0  0
   36.6670   28.0500   40.5220 H   0  0  0  0  0  0  0  0  0  0  0  0
   37.6680   26.2860   41.1030 C   0  0  0  0  0  3  0  0  0  0  0  0
   37.0430   25.7100   39.8540 C   0  0  0  0  0  2  0  0  0  0  0  0
   36.8590   24.2520   40.0230 C   0  0  0  0  0  2  0  0  0  0  0  0
   37.1060   23.9910   41.4770 C   0  0  0  0  0  2  0  0  0  0  0  0
   37.0670   25.3740   42.1460 C   0  0  0  0  0  2  0  0  0  0  0  0
   39.1670   29.3570   40.6340 C   0  0  0  0  0  0  0  0  0  0  0  0
   39.2070   28.8170   39.6330 H   0  0  0  0  0  0  0  0  0  0  0  0
   40.2570   29.5390   40.8200 H   0  0  0  0  0  0  0  0  0  0  0  0
   37.0470   32.3010   39.5590 C   0  0  0  0  0  0  0  0  0  0  0  0
   37.4390   30.9540   39.6680 C   0  0  0  0  0  0  0  0  0  0  0  0
   38.6000   30.6750   40.3400 C   0  0  0  0  0  0  0  0  0  0  0  0
   39.2880   31.7040   40.8470 N   0  0  0  0  0  0  0  0  0  0  0  0
   38.9010   33.0240   40.7400 C   0  0  0  0  0  0  0  0  0  0  0  0
   37.7660   33.2980   40.0860 N   0  0  0  0  0  0  0  0  0  0  0  0
   36.1040   32.3950   39.0040 H   0  0  0  0  0  0  0  0  0  0  0  0
   36.9050   30.1120   39.2670 H   0  0  0  0  0  0  0  0  0  0  0  0
   39.5020   33.8100   41.1740 H   0  0  0  0  0  0  0  0  0  0  0  0
  1  2  1  0  0  0  0
  2  6  1  0  0  0  0
  2  3  2  0  0  0  0
  3  7  1  0  0  0  0
  4  8  1  0  0  0  0
  4  3  1  0  0  0  0
  5 10  1  6  0  0  0
  5  1  1  0  0  0  0
  5  4  1  0  0  0  0
  9  4  1  0  0  0  0
 11  5  1  0  0  0  0
 11 15  1  0  0  0  0
 12 13  1  0  0  0  0
 12 11  1  0  0  0  0
 13 14  1  0  0  0  0
 14 15  1  0  0  0  0
 16 18  1  0  0  0  0
 16  1  1  0  0  0  0
 17 16  1  0  0  0  0
 19 20  2  0  0  0  0
 19 24  1  0  0  0  0
 20 21  1  0  0  0  0
 21 16  1  0  0  0  0
 21 22  2  0  0  0  0
 23 22  1  0  0  0  0
 23 27  1  0  0  0  0
 24 23  2  0  0  0  0
 25 19  1  0  0  0  0
 26 20  1  0  0  0  0
M  END
>  <minimizedAffinity>
-4.71331072

$$$$

 OpenBabel03252504563D

 27 29  0  0  1  0  0  0  0  0999 V2000
   38.2020   28.7340   42.5460 N   0  0  0  0  0  0  0  0  0  0  0  0
   37.3340   28.5860   43.6790 C   0  0  0  0  0  0  0  0  0  0  0  0
   36.5130   27.4120   43.2590 C   0  0  0  0  0  0  0  0  0  0  0  0
   37.0170   26.9000   41.9480 C   0  0  0  0  0  0  0  0  0  0  0  0
   38.3610   27.6070   41.7400 C   0  0  2  0  0  0  0  0  0  0  0  0
   37.1160   29.0010   44.6150 H   0  0  0  0  0  0  0  0  0  0  0  0
   35.6940   26.9050   43.7830 H   0  0  0  0  0  0  0  0  0  0  0  0
   37.1830   25.8310   42.0990 H   0  0  0  0  0  0  0  0  0  0  0  0
   36.2740   27.1440   41.1820 H   0  0  0  0  0  0  0  0  0  0  0  0
   38.3730   27.7640   40.6400 H   0  0  0  0  0  0  0  0  0  0  0  0
   39.4820   26.6560   42.0510 C   0  0  0  0  0  3  0  0  0  0  0  0
   39.0620   25.2060   42.1090 C   0  0  0  0  0  2  0  0  0  0  0  0
   40.0140   24.4500   42.9530 C   0  0  0  0  0  2  0  0  0  0  0  0
   40.8440   25.4930   43.6380 C   0  0  0  0  0  2  0  0  0  0  0  0
   40.0850   26.8130   43.4270 C   0  0  0  0  0  2  0  0  0  0  0  0
   38.6850   30.0000   42.3360 C   0  0  0  0  0  0  0  0  0  0  0  0
   39.8220   29.9780   42.3020 H   0  0  0  0  0  0  0  0  0  0  0  0
   38.5110   30.7720   43.1290 H   0  0  0  0  0  0  0  0  0  0  0  0
   36.8690   31.7340   39.5050 C   0  0  0  0  0  0  0  0  0  0  0  0
   37.0260   31.0910   40.7470 C   0  0  0  0  0  0  0  0  0  0  0  0
   38.2730   30.6340   41.0810 C   0  0  0  0  0  0  0  0  0  0  0  0
   39.2630   30.8270   40.2020 N   0  0  0  0  0  0  0  0  0  0  0  0
   39.1070   31.4590   38.9860 C   0  0  0  0  0  0  0  0  0  0  0  0
   37.8890   31.9070   38.6590 N   0  0  0  0  0  0  0  0  0  0  0  0
   35.8300   32.0540   39.3530 H   0  0  0  0  0  0  0  0  0  0  0  0
   36.2460   30.9220   41.4670 H   0  0  0  0  0  0  0  0  0  0  0  0
   39.9480   31.5840   38.3200 H   0  0  0  0  0  0  0  0  0  0  0  0
  1  2  1  0  0  0  0
  2  6  1  0  0  0  0
  3  2  2  0  0  0  0
  3  7  1  0  0  0  0
  4  8  1  0  0  0  0
  4  3  1  0  0  0  0
  5 10  1  6  0  0  0
  5  4  1  0  0  0  0
  5 11  1  0  0  0  0
  5  1  1  0  0  0  0
  9  4  1  0  0  0  0
 11 12  1  0  0  0  0
 11 15  1  0  0  0  0
 12 13  1  0  0  0  0
 13 14  1  0  0  0  0
 15 14  1  0  0  0  0
 16  1  1  0  0  0  0
 16 18  1  0  0  0  0
 17 16  1  0  0  0  0
 19 20  1  0  0  0  0
 20 21  2  0  0  0  0
 20 26  1  0  0  0  0
 21 16  1  0  0  0  0
 22 21  1  0  0  0  0
 23 22  2  0  0  0  0
 24 23  1  0  0  0  0
 24 19  2  0  0  0  0
 25 19  1  0  0  0  0
 27 23  1  0  0  0  0
M  END
>  <minimizedAffinity>
-4.68917227

$$$$

 OpenBabel03252504563D

 27 29  0  0  1  0  0  0  0  0999 V2000
   36.6480   30.8460   39.8120 N   0  0  0  0  0  0  0  0  0  0  0  0
   37.0460   32.1820   39.4680 C   0  0  0  0  0  0  0  0  0  0  0  0
   37.9150   31.9250   38.2820 C   0  0  0  0  0  0  0  0  0  0  0  0
   37.8940   30.4640   37.9600 C   0  0  0  0  0  0  0  0  0  0  0  0
   36.7440   29.8940   38.7980 C   0  0  2  0  0  0  0  0  0  0  0  0
   36.9300   33.1800   39.7580 H   0  0  0  0  0  0  0  0  0  0  0  0
   38.4700   32.6300   37.6520 H   0  0  0  0  0  0  0  0  0  0  0  0
   37.6420   30.4040   36.9000 H   0  0  0  0  0  0  0  0  0  0  0  0
   38.8720   30.0470   38.2230 H   0  0  0  0  0  0  0  0  0  0  0  0
   37.1340   28.8910   39.0750 H   0  0  0  0  0  0  0  0  0  0  0  0
   35.5490   29.6630   37.9170 C   0  0  0  0  0  3  0  0  0  0  0  0
   34.5930   28.6140   38.4360 C   0  0  0  0  0  2  0  0  0  0  0  0
   33.8200   28.0510   37.3070 C   0  0  0  0  0  2  0  0  0  0  0  0
   34.5060   28.5500   36.0730 C   0  0  0  0  0  2  0  0  0  0  0  0
   35.8630   29.0860   36.5560 C   0  0  0  0  0  2  0  0  0  0  0  0
   36.3240   30.6490   41.1290 C   0  0  0  0  0  0  0  0  0  0  0  0
   35.2400   30.3160   41.2150 H   0  0  0  0  0  0  0  0  0  0  0  0
   36.3280   31.5360   41.8140 H   0  0  0  0  0  0  0  0  0  0  0  0
   38.8940   28.6320   43.0390 C   0  0  0  0  0  0  0  0  0  0  0  0
   38.3630   29.7360   42.3450 C   0  0  0  0  0  0  0  0  0  0  0  0
   37.1010   29.6200   41.8260 C   0  0  0  0  0  0  0  0  0  0  0  0
   36.4550   28.4630   42.0090 N   0  0  0  0  0  0  0  0  0  0  0  0
   36.9780   27.3830   42.6900 C   0  0  0  0  0  0  0  0  0  0  0  0
   38.2100   27.4950   43.2000 N   0  0  0  0  0  0  0  0  0  0  0  0
   39.9060   28.8460   43.4070 H   0  0  0  0  0  0  0  0  0  0  0  0
   38.8630   30.6730   42.1830 H   0  0  0  0  0  0  0  0  0  0  0  0
   36.4030   26.4750   42.8050 H   0  0  0  0  0  0  0  0  0  0  0  0
  1 16  1  0  0  0  0
  2  6  1  0  0  0  0
  2  1  1  0  0  0  0
  3  2  2  0  0  0  0
  4  9  1  0  0  0  0
  4  3  1  0  0  0  0
  4  5  1  0  0  0  0
  5 10  1  1  0  0  0
  5  1  1  0  0  0  0
  7  3  1  0  0  0  0
  8  4  1  0  0  0  0
 11 12  1  0  0  0  0
 11  5  1  0  0  0  0
 13 12  1  0  0  0  0
 14 15  1  0  0  0  0
 14 13  1  0  0  0  0
 15 11  1  0  0  0  0
 16 17  1  0  0  0  0
 16 18  1  0  0  0  0
 16 21  1  0  0  0  0
 19 24  1  0  0  0  0
 19 25  1  0  0  0  0
 20 19  2  0  0  0  0
 21 22  2  0  0  0  0
 21 20  1  0  0  0  0
 22 23  1  0  0  0  0
 23 27  1  0  0  0  0
 23 24  2  0  0  0  0
 26 20  1  0  0  0  0
M  END
>  <minimizedAffinity>
-4.62963629

$$$$

 OpenBabel03252504563D

 27 29  0  0  1  0  0  0  0  0999 V2000
   37.7720   29.3930   41.8940 N   0  0  0  0  0  0  0  0  0  0  0  0
   38.5720   29.2860   43.0810 C   0  0  0  0  0  0  0  0  0  0  0  0
   39.9210   29.6450   42.5500 C   0  0  0  0  0  0  0  0  0  0  0  0
   39.8010   30.0230   41.1080 C   0  0  0  0  0  0  0  0  0  0  0  0
   38.2950   30.1790   40.8670 C   0  0  2  0  0  0  0  0  0  0  0  0
   38.5140   29.0590   44.1010 H   0  0  0  0  0  0  0  0  0  0  0  0
   40.8860   29.7040   43.0680 H   0  0  0  0  0  0  0  0  0  0  0  0
   40.2900   30.9950   41.0210 H   0  0  0  0  0  0  0  0  0  0  0  0
   40.2560   29.2260   40.5110 H   0  0  0  0  0  0  0  0  0  0  0  0
   38.1850   29.8000   39.8280 H   0  0  0  0  0  0  0  0  0  0  0  0
   37.9420   31.6400   40.8330 C   0  0  0  0  0  3  0  0  0  0  0  0
   37.0460   32.0300   39.6800 C   0  0  0  0  0  2  0  0  0  0  0  0
   37.2240   33.4690   39.3840 C   0  0  0  0  0  2  0  0  0  0  0  0
   38.4330   33.8850   40.1660 C   0  0  0  0  0  2  0  0  0  0  0  0
   39.1070   32.5700   40.5920 C   0  0  0  0  0  2  0  0  0  0  0  0
   36.6400   28.6210   41.8760 C   0  0  0  0  0  0  0  0  0  0  0  0
   35.9160   29.0150   41.0920 H   0  0  0  0  0  0  0  0  0  0  0  0
   35.9870   28.6170   42.7860 H   0  0  0  0  0  0  0  0  0  0  0  0
   37.1780   24.8750   41.8620 C   0  0  0  0  0  0  0  0  0  0  0  0
   37.0820   26.1720   42.4010 C   0  0  0  0  0  0  0  0  0  0  0  0
   36.8430   27.2090   41.5390 C   0  0  0  0  0  0  0  0  0  0  0  0
   36.7180   26.9220   40.2380 N   0  0  0  0  0  0  0  0  0  0  0  0
   36.8120   25.6500   39.7130 C   0  0  0  0  0  0  0  0  0  0  0  0
   37.0440   24.6350   40.5530 N   0  0  0  0  0  0  0  0  0  0  0  0
   37.3690   24.1330   42.6480 H   0  0  0  0  0  0  0  0  0  0  0  0
   37.1820   26.4260   43.4400 H   0  0  0  0  0  0  0  0  0  0  0  0
   36.7000   25.4850   38.6510 H   0  0  0  0  0  0  0  0  0  0  0  0
  1  2  1  0  0  0  0
  2  6  1  0  0  0  0
  3  7  1  0  0  0  0
  3  2  2  0  0  0  0
  4  3  1  0  0  0  0
  5 10  1  6  0  0  0
  5  4  1  0  0  0  0
  5  1  1  0  0  0  0
  8  4  1  0  0  0  0
  9  4  1  0  0  0  0
 11  5  1  0  0  0  0
 12 11  1  0  0  0  0
 13 12  1  0  0  0  0
 13 14  1  0  0  0  0
 14 15  1  0  0  0  0
 15 11  1  0  0  0  0
 16  1  1  0  0  0  0
 16 18  1  0  0  0  0
 17 16  1  0  0  0  0
 19 20  1  0  0  0  0
 19 25  1  0  0  0  0
 20 26  1  0  0  0  0
 21 16  1  0  0  0  0
 21 20  2  0  0  0  0
 22 21  1  0  0  0  0
 23 22  2  0  0  0  0
 23 24  1  0  0  0  0
 24 19  2  0  0  0  0
 27 23  1  0  0  0  0
M  END
>  <minimizedAffinity>
-4.56183052

$$$$

 OpenBabel03252504563D

 27 29  0  0  1  0  0  0  0  0999 V2000
   38.9800   31.4500   40.8090 N   0  0  0  0  0  0  0  0  0  0  0  0
   38.0690   32.5480   40.6430 C   0  0  0  0  0  0  0  0  0  0  0  0
   36.9260   31.8710   39.9610 C   0  0  0  0  0  0  0  0  0  0  0  0
   37.2110   30.4060   39.8550 C   0  0  0  0  0  0  0  0  0  0  0  0
   38.4200   30.1730   40.7680 C   0  0  2  0  0  0  0  0  0  0  0  0
   37.9630   33.5720   40.8310 H   0  0  0  0  0  0  0  0  0  0  0  0
   35.9730   32.2840   39.6110 H   0  0  0  0  0  0  0  0  0  0  0  0
   36.3330   29.9090   40.2730 H   0  0  0  0  0  0  0  0  0  0  0  0
   37.4100   30.1760   38.8030 H   0  0  0  0  0  0  0  0  0  0  0  0
   38.9800   29.3880   40.2160 H   0  0  0  0  0  0  0  0  0  0  0  0
   37.9620   29.5510   42.0570 C   0  0  0  0  0  3  0  0  0  0  0  0
   38.9990   28.6750   42.7210 C   0  0  0  0  0  2  0  0  0  0  0  0
   38.3240   27.6900   43.5950 C   0  0  0  0  0  2  0  0  0  0  0  0
   36.8710   27.7810   43.2410 C   0  0  0  0  0  2  0  0  0  0  0  0
   36.8280   28.5630   41.9180 C   0  0  0  0  0  2  0  0  0  0  0  0
   40.3050   31.7910   40.8800 C   0  0  0  0  0  0  0  0  0  0  0  0
   40.9230   30.8810   41.1700 H   0  0  0  0  0  0  0  0  0  0  0  0
   40.6220   32.5240   41.6660 H   0  0  0  0  0  0  0  0  0  0  0  0
   41.4630   32.3620   37.3230 C   0  0  0  0  0  0  0  0  0  0  0  0
   40.8830   31.6750   38.4060 C   0  0  0  0  0  0  0  0  0  0  0  0
   40.9000   32.2810   39.6340 C   0  0  0  0  0  0  0  0  0  0  0  0
   41.4700   33.4890   39.7250 N   0  0  0  0  0  0  0  0  0  0  0  0
   42.0370   34.1600   38.6610 C   0  0  0  0  0  0  0  0  0  0  0  0
   42.0190   33.5700   37.4600 N   0  0  0  0  0  0  0  0  0  0  0  0
   41.3860   31.7780   36.3960 H   0  0  0  0  0  0  0  0  0  0  0  0
   40.4230   30.7050   38.3570 H   0  0  0  0  0  0  0  0  0  0  0  0
   42.4810   35.1350   38.8010 H   0  0  0  0  0  0  0  0  0  0  0  0
  1 16  1  0  0  0  0
  2  1  1  0  0  0  0
  2  6  1  0  0  0  0
  3  2  2  0  0  0  0
  4  3  1  0  0  0  0
  4  8  1  0  0  0  0
  4  5  1  0  0  0  0
  5 10  1  6  0  0  0
  5  1  1  0  0  0  0
  5 11  1  0  0  0  0
  7  3  1  0  0  0  0
  9  4  1  0  0  0  0
 11 12  1  0  0  0  0
 12 13  1  0  0  0  0
 14 13  1  0  0  0  0
 15 11  1  0  0  0  0
 15 14  1  0  0  0  0
 16 17  1  0  0  0  0
 16 18  1  0  0  0  0
 19 24  2  0  0  0  0
 19 20  1  0  0  0  0
 20 21  2  0  0  0  0
 21 22  1  0  0  0  0
 21 16  1  0  0  0  0
 23 27  1  0  0  0  0
 23 22  2  0  0  0  0
 24 23  1  0  0  0  0
 25 19  1  0  0  0  0
 26 20  1  0  0  0  0
M  END
>  <minimizedAffinity>
-4.53545952

$$$$

 OpenBabel03252504563D

 27 29  0  0  1  0  0  0  0  0999 V2000
   37.6480   29.3730   41.8850 N   0  0  0  0  0  0  0  0  0  0  0  0
   38.4520   29.2460   43.0680 C   0  0  0  0  0  0  0  0  0  0  0  0
   39.8040   29.5860   42.5330 C   0  0  0  0  0  0  0  0  0  0  0  0
   39.6830   29.9750   41.0940 C   0  0  0  0  0  0  0  0  0  0  0  0
   38.1790   30.1570   40.8610 C   0  0  2  0  0  0  0  0  0  0  0  0
   38.3950   29.0140   44.0870 H   0  0  0  0  0  0  0  0  0  0  0  0
   40.7720   29.6270   43.0460 H   0  0  0  0  0  0  0  0  0  0  0  0
   40.1870   30.9390   41.0100 H   0  0  0  0  0  0  0  0  0  0  0  0
   40.1220   29.1740   40.4900 H   0  0  0  0  0  0  0  0  0  0  0  0
   38.0580   29.7850   39.8200 H   0  0  0  0  0  0  0  0  0  0  0  0
   37.8490   31.6230   40.8360 C   0  0  0  0  0  3  0  0  0  0  0  0
   37.0440   32.0530   39.6320 C   0  0  0  0  0  2  0  0  0  0  0  0
   37.2620   33.4960   39.3850 C   0  0  0  0  0  2  0  0  0  0  0  0
   38.4180   33.8740   40.2600 C   0  0  0  0  0  2  0  0  0  0  0  0
   39.0410   32.5400   40.7010 C   0  0  0  0  0  2  0  0  0  0  0  0
   36.5040   28.6190   41.8680 C   0  0  0  0  0  0  0  0  0  0  0  0
   35.7040   29.1170   42.5060 H   0  0  0  0  0  0  0  0  0  0  0  0
   36.5360   27.5970   42.3270 H   0  0  0  0  0  0  0  0  0  0  0  0
   34.4970   28.8640   38.6690 C   0  0  0  0  0  0  0  0  0  0  0  0
   34.8930   29.1810   39.9820 C   0  0  0  0  0  0  0  0  0  0  0  0
   35.8880   28.4330   40.5520 C   0  0  0  0  0  0  0  0  0  0  0  0
   36.4190   27.4440   39.8230 N   0  0  0  0  0  0  0  0  0  0  0  0
   36.0300   27.1360   38.5360 C   0  0  0  0  0  0  0  0  0  0  0  0
   35.0590   27.8670   37.9770 N   0  0  0  0  0  0  0  0  0  0  0  0
   33.6970   29.5310   38.3240 H   0  0  0  0  0  0  0  0  0  0  0  0
   34.4790   29.9680   40.5870 H   0  0  0  0  0  0  0  0  0  0  0  0
   36.5000   26.3240   37.9990 H   0  0  0  0  0  0  0  0  0  0  0  0
  1  2  1  0  0  0  0
  2  6  1  0  0  0  0
  3  7  1  0  0  0  0
  3  2  2  0  0  0  0
  4  3  1  0  0  0  0
  5 10  1  6  0  0  0
  5  4  1  0  0  0  0
  5  1  1  0  0  0  0
  8  4  1  0  0  0  0
  9  4  1  0  0  0  0
 11  5  1  0  0  0  0
 12 11  1  0  0  0  0
 13 12  1  0  0  0  0
 13 14  1  0  0  0  0
 14 15  1  0  0  0  0
 15 11  1  0  0  0  0
 16  1  1  0  0  0  0
 16 18  1  0  0  0  0
 16 17  1  0  0  0  0
 19 20  1  0  0  0  0
 20 21  2  0  0  0  0
 20 26  1  0  0  0  0
 21 16  1  0  0  0  0
 22 21  1  0  0  0  0
 23 22  2  0  0  0  0
 24 23  1  0  0  0  0
 24 19  2  0  0  0  0
 25 19  1  0  0  0  0
 27 23  1  0  0  0  0
M  END
>  <minimizedAffinity>
-4.47815228

$$$$

 OpenBabel03252504563D

 27 29  0  0  1  0  0  0  0  0999 V2000
   36.4020   29.0090   40.7830 N   0  0  0  0  0  0  0  0  0  0  0  0
   35.1190   29.2310   40.1780 C   0  0  0  0  0  0  0  0  0  0  0  0
   35.2470   28.4190   38.9310 C   0  0  0  0  0  0  0  0  0  0  0  0
   36.5620   27.7070   38.9370 C   0  0  0  0  0  0  0  0  0  0  0  0
   37.0910   27.8700   40.3660 C   0  0  2  0  0  0  0  0  0  0  0  0
   34.2120   29.7330   40.3210 H   0  0  0  0  0  0  0  0  0  0  0  0
   34.5280   28.2640   38.1180 H   0  0  0  0  0  0  0  0  0  0  0  0
   36.3250   26.6580   38.7500 H   0  0  0  0  0  0  0  0  0  0  0  0
   37.2020   28.1750   38.1810 H   0  0  0  0  0  0  0  0  0  0  0  0
   38.1850   27.9690   40.1990 H   0  0  0  0  0  0  0  0  0  0  0  0
   36.8850   26.5900   41.1260 C   0  0  0  0  0  3  0  0  0  0  0  0
   38.0540   26.1970   42.0000 C   0  0  0  0  0  2  0  0  0  0  0  0
   38.0290   24.7350   42.2260 C   0  0  0  0  0  2  0  0  0  0  0  0
   37.0160   24.2040   41.2580 C   0  0  0  0  0  2  0  0  0  0  0  0
   36.7670   25.3530   40.2670 C   0  0  0  0  0  2  0  0  0  0  0  0
   36.8380   30.0040   41.6190 C   0  0  0  0  0  0  0  0  0  0  0  0
   37.5270   29.5670   42.4130 H   0  0  0  0  0  0  0  0  0  0  0  0
   36.0820   30.5270   42.2600 H   0  0  0  0  0  0  0  0  0  0  0  0
   38.0570   33.0480   39.7330 C   0  0  0  0  0  0  0  0  0  0  0  0
   37.1390   32.0830   40.1860 C   0  0  0  0  0  0  0  0  0  0  0  0
   37.6100   31.0730   40.9820 C   0  0  0  0  0  0  0  0  0  0  0  0
   38.9160   31.0680   41.2750 N   0  0  0  0  0  0  0  0  0  0  0  0
   39.8130   32.0170   40.8300 C   0  0  0  0  0  0  0  0  0  0  0  0
   39.3540   33.0060   40.0540 N   0  0  0  0  0  0  0  0  0  0  0  0
   37.5610   33.8030   39.1080 H   0  0  0  0  0  0  0  0  0  0  0  0
   36.0880   32.0640   39.9610 H   0  0  0  0  0  0  0  0  0  0  0  0
   40.8570   31.9580   41.1040 H   0  0  0  0  0  0  0  0  0  0  0  0
  1 16  1  0  0  0  0
  2  6  1  0  0  0  0
  2  1  1  0  0  0  0
  3  4  1  0  0  0  0
  3  2  2  0  0  0  0
  4  5  1  0  0  0  0
  5 10  1  6  0  0  0
  5  1  1  0  0  0  0
  5 11  1  0  0  0  0
  7  3  1  0  0  0  0
  8  4  1  0  0  0  0
  9  4  1  0  0  0  0
 11 12  1  0  0  0  0
 12 13  1  0  0  0  0
 14 13  1  0  0  0  0
 15 11  1  0  0  0  0
 15 14  1  0  0  0  0
 16 18  1  0  0  0  0
 16 17  1  0  0  0  0
 19 24  2  0  0  0  0
 19 20  1  0  0  0  0
 20 21  2  0  0  0  0
 21 22  1  0  0  0  0
 21 16  1  0  0  0  0
 23 27  1  0  0  0  0
 23 22  2  0  0  0  0
 24 23  1  0  0  0  0
 25 19  1  0  0  0  0
 26 20  1  0  0  0  0
M  END
>  <minimizedAffinity>
-4.46077824

$$$$
