
 OpenBabel03252507583D

 23 25  0  0  1  0  0  0  0  0999 V2000
   45.7370   32.5610   44.6860 C   0  0  1  0  0  0  0  0  0  0  0  0
   47.2140   32.3490   44.8020 C   0  0  0  0  0  0  0  0  0  0  0  0
   46.4500   32.8950   45.9580 C   0  0  2  0  0  0  0  0  0  0  0  0
   45.1010   31.6580   44.6130 H   0  0  0  0  0  0  0  0  0  0  0  0
   47.5390   31.2910   44.8180 H   0  0  0  0  0  0  0  0  0  0  0  0
   47.8100   32.9790   44.1320 H   0  0  0  0  0  0  0  0  0  0  0  0
   46.6680   33.9720   46.1900 H   0  0  0  0  0  0  0  0  0  0  0  0
   44.3510   34.7140   42.0550 C   0  0  0  0  0  0  0  0  0  0  0  0
   44.3030   35.9840   42.6740 C   0  0  0  0  0  0  0  0  0  0  0  0
   44.7500   36.0940   44.0140 C   0  0  0  0  0  0  0  0  0  0  0  0
   45.1980   34.9590   44.6160 N   0  0  0  0  0  0  0  0  0  0  0  0
   45.2140   33.7640   43.9580 C   0  0  0  0  0  0  0  0  0  0  0  0
   44.8010   33.6380   42.7050 N   0  0  0  0  0  0  0  0  0  0  0  0
   43.9470   36.8860   42.1910 H   0  0  0  0  0  0  0  0  0  0  0  0
   44.7390   37.0390   44.5390 H   0  0  0  0  0  0  0  0  0  0  0  0
   43.8850   34.7260   40.7120 C   0  0  0  0  0  0  0  0  0  0  0  0
   44.1210   33.8250   39.8480 O   0  0  0  0  0  0  0  0  0  0  0  0
   43.2670   35.4770   40.1990 H   0  0  0  0  0  0  0  0  0  0  0  0
   46.3790   32.0200   47.1570 C   0  0  0  0  0  0  0  0  0  0  0  0
   45.2000   32.3130   48.0520 C   0  0  0  0  0  0  0  0  0  0  0  0
   45.5470   31.4720   49.2830 C   0  0  0  0  0  0  0  0  0  0  0  0
   47.0120   31.1330   49.1870 C   0  0  0  0  0  0  0  0  0  0  0  0
   47.5230   32.1010   48.1090 C   0  0  0  0  0  0  0  0  0  0  0  0
  1  4  1  1  0  0  0
  1  2  1  0  0  0  0
  1  3  1  0  0  0  0
  2  5  1  0  0  0  0
  2  3  1  0  0  0  0
  3  7  1  1  0  0  0
  3 19  1  0  0  0  0
  6  2  1  0  0  0  0
  8  9  2  0  0  0  0
  8 13  1  0  0  0  0
  9 10  1  0  0  0  0
 10 15  1  0  0  0  0
 10 11  2  0  0  0  0
 12 11  1  0  0  0  0
 12  1  1  0  0  0  0
 13 12  2  0  0  0  0
 14  9  1  0  0  0  0
 16  8  1  0  0  0  0
 17 16  2  0  0  0  0
 18 16  1  0  0  0  0
 19 20  1  0  0  0  0
 19 23  1  0  0  0  0
 20 21  1  0  0  0  0
 22 21  1  0  0  0  0
 23 22  1  0  0  0  0
M  END
>  <minimizedAffinity>
-4.78660393

>  <minimizedRMSD>
2.36528182

$$$$
