
     RDKit          3D

 26 27  0  0  0  0  0  0  0  0999 V2000
   44.3882   35.7674   44.4271 C   0  0  0  0  0  0  0  0  0  0  0  0
   44.6655   35.0657   43.2607 C   0  0  0  0  0  0  0  0  0  0  0  0
   45.2933   33.8244   43.3891 C   0  0  0  0  0  0  0  0  0  0  0  0
   45.5876   33.3909   44.6340 N   0  0  0  0  0  0  0  0  0  0  0  0
   45.3077   34.0913   45.7481 C   0  0  0  0  0  0  0  0  0  0  0  0
   44.6983   35.3020   45.6685 N   0  0  0  0  0  0  0  0  0  0  0  0
   44.2584   35.7242   42.0095 C   0  0  0  0  0  0  0  0  0  0  0  0
   43.9029   36.7418   44.4440 H   0  0  0  0  0  0  0  0  0  0  0  0
   45.4879   33.3196   42.4718 H   0  0  0  0  0  0  0  0  0  0  0  0
   45.5539   33.7195   46.7167 H   0  0  0  0  0  0  0  0  0  0  0  0
   44.3067   36.8008   42.0971 H   0  0  0  0  0  0  0  0  0  0  0  0
   44.9425   35.4240   41.1743 H   0  0  0  0  0  0  0  0  0  0  0  0
   42.8520   35.3217   41.6537 C   0  0  0  0  0  0  0  0  0  0  0  0
   42.3709   35.9688   40.3693 C   0  0  0  0  0  0  0  0  0  0  0  0
   40.9127   35.5371   40.3953 C   0  0  0  0  0  0  0  0  0  0  0  0
   40.5267   35.8436   41.8289 C   0  0  0  0  0  0  0  0  0  0  0  0
   41.8346   35.8562   42.6279 C   0  0  0  0  0  0  0  0  0  0  0  0
   42.8018   34.2086   41.5918 H   0  0  0  0  0  0  0  0  0  0  0  0
   42.9064   35.5866   39.4866 H   0  0  0  0  0  0  0  0  0  0  0  0
   42.4691   37.0666   40.5062 H   0  0  0  0  0  0  0  0  0  0  0  0
   40.2948   36.0869   39.6648 H   0  0  0  0  0  0  0  0  0  0  0  0
   40.9258   34.4483   40.2305 H   0  0  0  0  0  0  0  0  0  0  0  0
   39.9813   36.7911   41.8819 H   0  0  0  0  0  0  0  0  0  0  0  0
   39.9017   34.9719   42.1714 H   0  0  0  0  0  0  0  0  0  0  0  0
   42.0756   36.9237   42.8002 H   0  0  0  0  0  0  0  0  0  0  0  0
   41.7324   35.2572   43.5432 H   0  0  0  0  0  0  0  0  0  0  0  0
  1  6  2  0
  2  3  2  0
  2  1  1  0
  3  4  1  0
  4  5  2  0
  6  5  1  0
  7  2  1  0
  1  8  1  0
  3  9  1  0
  5 10  1  0
  7 11  1  0
  7 12  1  0
 13 14  1  0
 14 15  1  0
 15 16  1  0
 16 17  1  0
 17 13  1  0
 13 18  1  0
 14 19  1  0
 14 20  1  0
 15 21  1  0
 15 22  1  0
 16 23  1  0
 16 24  1  0
 17 25  1  0
 17 26  1  0
  7 13  1  0
M  ISO  5   8  14   9  14  10  14  11   8  12   8
M  END
>  <DihAtoms>  (1) 
1,6,12,13

>  <DihDeg>  (1) 
-59.998963838777236

$$$$
