REMARK  Name = 
REMARK  3 active torsions:
REMARK  status: ('A' for Active; 'I' for Inactive)
REMARK    1  A    between atoms: C_1  and  C_8
REMARK    2  A    between atoms: C_4  and  C_12
REMARK    3  A    between atoms: C_14  and  C_30
REMARK                            x       y       z     vdW  Elec       q    Type
REMARK                         _______ _______ _______ _____ _____    ______ ____
ROOT
ATOM      1  C   UNL     1      46.886  34.915  42.154  0.00  0.00    +0.000 C 
ATOM      2  C   UNL     1      46.380  33.903  41.158  0.00  0.00    +0.000 C 
ATOM      3  C   UNL     1      47.580  33.888  40.211  0.00  0.00    +0.000 C 
ATOM      4  C   UNL     1      48.786  34.101  41.110  0.00  0.00    +0.000 C 
ATOM      5  C   UNL     1      48.245  34.291  42.478  0.00  0.00    +0.000 C 
ATOM      6  H   UNL     1      47.010  35.900  41.703  0.00  0.00    +0.000 HD
ATOM      7  H   UNL     1      45.459  34.228  40.637  0.00  0.00    +0.000 HD
ATOM      8  H   UNL     1      46.240  32.951  41.678  0.00  0.00    +0.000 HD
ATOM      9  H   UNL     1      47.618  32.933  39.652  0.00  0.00    +0.000 HD
ATOM     10  H   UNL     1      47.469  34.785  39.569  0.00  0.00    +0.000 HD
ATOM     11  H   UNL     1      49.327  35.029  40.832  0.00  0.00    +0.000 HD
ATOM     12  H   UNL     1      47.870  33.401  43.006  0.00  0.00    +0.000 HD
ATOM     13  H   UNL     1      48.722  35.060  43.089  0.00  0.00    +0.000 HD
ENDROOT
BRANCH   1  16
ATOM     14  C   UNL     1      44.433  36.087  44.771  0.00  0.00    +0.000 A 
ATOM     15  C   UNL     1      45.161  36.078  43.570  0.00  0.00    +0.000 A 
ATOM     16  C   UNL     1      46.050  35.016  43.380  0.00  0.00    +0.000 A 
ATOM     17  N   UNL     1      46.186  34.029  44.352  0.00  0.00    +0.000 NA
ATOM     18  C   UNL     1      45.450  34.102  45.488  0.00  0.00    +0.000 A 
ATOM     19  N   UNL     1      44.589  35.113  45.695  0.00  0.00    +0.000 NA
ATOM     20  H   UNL     1      43.735  36.895  44.951  0.00  0.00    +0.000 HD
ATOM     21  H   UNL     1      45.064  36.835  42.812  0.00  0.00    +0.000 HD
ATOM     22  H   UNL     1      45.655  33.273  46.154  0.00  0.00    +0.000 HD
ENDBRANCH   1  16
BRANCH   4  23
ATOM     23  C   UNL     1      49.708  32.943  41.156  0.00  0.00    +0.000 C 
ATOM     24  C   UNL     1      49.599  32.028  42.314  0.00  0.00    +0.000 C 
ATOM     25  C   UNL     1      50.870  32.763  41.961  0.00  0.00    +0.000 C 
ATOM     26  H   UNL     1      49.651  32.414  40.152  0.00  0.00    +0.000 HD
ATOM     27  H   UNL     1      49.504  30.924  42.084  0.00  0.00    +0.000 HD
ATOM     28  H   UNL     1      49.421  32.185  43.352  0.00  0.00    +0.000 HD
ATOM     29  H   UNL     1      51.625  32.034  41.502  0.00  0.00    +0.000 HD
BRANCH  25  30
ATOM     30  C   UNL     1      51.600  33.669  42.854  0.00  0.00    +0.000 C 
ATOM     31  C   UNL     1      50.674  34.507  43.676  0.00  0.00    +0.000 C 
ATOM     32  C   UNL     1      50.032  35.367  42.575  0.00  0.00    +0.000 C 
ATOM     33  C   UNL     1      51.173  35.618  41.599  0.00  0.00    +0.000 C 
ATOM     34  C   UNL     1      52.322  34.746  42.056  0.00  0.00    +0.000 C 
ENDBRANCH  25  30
ENDBRANCH   4  23
TORSDOF 3
