REMARK  Name = 
REMARK  4 active torsions:
REMARK  status: ('A' for Active; 'I' for Inactive)
REMARK    1  A    between atoms: C_1  and  C_15
REMARK    2  A    between atoms: C_3  and  C_4
REMARK    3  A    between atoms: C_18  and  C_20
REMARK    4  A    between atoms: C_22  and  C_39
REMARK                            x       y       z     vdW  Elec       q    Type
REMARK                         _______ _______ _______ _____ _____    ______ ____
ROOT
ATOM      1  C   UNL     1      46.685  33.462  43.099  0.00  0.00    +0.000 C 
ATOM      2  C   UNL     1      46.979  34.828  42.679  0.00  0.00    +0.000 C 
ATOM      3  C   UNL     1      48.096  33.853  42.690  0.00  0.00    +0.000 C 
ATOM      4  H   UNL     1      46.148  32.778  42.419  0.00  0.00    +0.000 HD
ATOM      5  H   UNL     1      47.090  35.619  43.488  0.00  0.00    +0.000 HD
ATOM      6  H   UNL     1      46.446  35.204  41.823  0.00  0.00    +0.000 HD
ATOM      7  H   UNL     1      48.850  33.785  43.479  0.00  0.00    +0.000 HD
ENDROOT
BRANCH   3   8
ATOM      8  C   UNL     1      48.521  33.295  41.376  0.00  0.00    +0.000 A 
ATOM      9  C   UNL     1      49.355  32.206  41.232  0.00  0.00    +0.000 A 
ATOM     10  C   UNL     1      49.718  31.753  39.978  0.00  0.00    +0.000 A 
ATOM     11  C   UNL     1      49.252  32.383  38.845  0.00  0.00    +0.000 A 
ATOM     12  N   UNL     1      49.592  31.960  37.596  0.00  0.00    +0.000 NA
ATOM     13  C   UNL     1      49.119  32.599  36.502  0.00  0.00    +0.000 A 
ATOM     14  C   UNL     1      48.261  33.723  36.560  0.00  0.00    +0.000 A 
ATOM     15  C   UNL     1      47.907  34.163  37.815  0.00  0.00    +0.000 A 
ATOM     16  C   UNL     1      48.403  33.493  38.933  0.00  0.00    +0.000 A 
ATOM     17  C   UNL     1      48.069  33.908  40.208  0.00  0.00    +0.000 A 
ATOM     18  H   UNL     1      49.703  31.734  42.137  0.00  0.00    +0.000 HD
ATOM     19  H   UNL     1      50.379  30.890  39.874  0.00  0.00    +0.000 HD
ATOM     20  H   UNL     1      49.400  32.249  35.517  0.00  0.00    +0.000 HD
ATOM     21  H   UNL     1      47.926  34.177  35.637  0.00  0.00    +0.000 HD
ATOM     22  H   UNL     1      47.254  35.017  37.916  0.00  0.00    +0.000 HD
ATOM     23  H   UNL     1      47.417  34.771  40.203  0.00  0.00    +0.000 HD
ENDBRANCH   3   8
BRANCH   1  25
ATOM     24  C   UNL     1      45.550  33.946  45.297  0.00  0.00    +0.000 A 
ATOM     25  C   UNL     1      46.476  33.144  44.541  0.00  0.00    +0.000 A 
ATOM     26  C   UNL     1      47.128  32.126  45.190  0.00  0.00    +0.000 A 
ATOM     27  N   UNL     1      46.838  31.961  46.507  0.00  0.00    +0.000 NA
ATOM     28  C   UNL     1      45.979  32.706  47.204  0.00  0.00    +0.000 A 
ATOM     29  N   UNL     1      45.327  33.709  46.599  0.00  0.00    +0.000 NA
ATOM     30  H   UNL     1      45.028  34.751  44.809  0.00  0.00    +0.000 HD
ATOM     31  H   UNL     1      47.821  31.513  44.654  0.00  0.00    +0.000 HD
BRANCH  28  32
ATOM     32  C   UNL     1      45.769  32.375  48.635  0.00  0.00    +0.000 C 
ATOM     33  C   UNL     1      46.283  31.169  49.252  0.00  0.00    +0.000 C 
ATOM     34  C   UNL     1      44.805  31.214  48.905  0.00  0.00    +0.000 C 
ATOM     35  H   UNL     1      45.536  33.315  49.231  0.00  0.00    +0.000 HD
ATOM     36  H   UNL     1      46.993  30.553  48.675  0.00  0.00    +0.000 HD
ATOM     37  H   UNL     1      46.590  31.259  50.314  0.00  0.00    +0.000 HD
ATOM     38  H   UNL     1      44.177  31.363  49.827  0.00  0.00    +0.000 HD
BRANCH  34  39
ATOM     39  C   UNL     1      44.331  30.293  47.841  0.00  0.00    +0.000 C 
ATOM     40  C   UNL     1      42.953  29.774  48.316  0.00  0.00    +0.000 C 
ATOM     41  C   UNL     1      43.370  28.894  49.473  0.00  0.00    +0.000 C 
ATOM     42  C   UNL     1      44.696  28.308  49.077  0.00  0.00    +0.000 C 
ATOM     43  C   UNL     1      45.047  28.969  47.780  0.00  0.00    +0.000 C 
ENDBRANCH  34  39
ENDBRANCH  28  32
ENDBRANCH   1  25
TORSDOF 4
