
 OpenBabel03252505403D

 24 26  0  0  1  0  0  0  0  0999 V2000
   45.4970   34.0560   44.0870 C   0  0  0  0  0  0  0  0  0  0  0  0
   46.5870   33.5260   43.3490 C   0  0  0  0  0  0  0  0  0  0  0  0
   47.4660   32.6700   44.0020 C   0  0  0  0  0  0  0  0  0  0  0  0
   47.2370   32.3840   45.3130 N   0  0  0  0  0  0  0  0  0  0  0  0
   46.1840   32.9110   45.9830 C   0  0  0  0  0  0  0  0  0  0  0  0
   45.3180   33.7460   45.3570 N   0  0  0  0  0  0  0  0  0  0  0  0
   46.7070   33.7930   42.3240 H   0  0  0  0  0  0  0  0  0  0  0  0
   48.3140   32.2380   43.4900 H   0  0  0  0  0  0  0  0  0  0  0  0
   44.5390   34.9810   43.4290 C   0  0  1  0  0  0  0  0  0  0  0  0
   45.1180   36.3900   43.1700 C   0  0  0  0  0  0  0  0  0  0  0  0
   44.7570   35.4590   42.0610 C   0  0  2  0  0  0  0  0  0  0  0  0
   43.5740   35.0190   43.9820 H   0  0  0  0  0  0  0  0  0  0  0  0
   46.1930   36.5330   43.3460 H   0  0  0  0  0  0  0  0  0  0  0  0
   44.4450   37.2450   43.3120 H   0  0  0  0  0  0  0  0  0  0  0  0
   45.6110   34.9380   41.5260 H   0  0  0  0  0  0  0  0  0  0  0  0
   43.5450   35.6000   41.2180 C   0  0  0  0  0  3  0  0  0  0  0  0
   43.5120   34.6090   40.0870 C   0  0  0  0  0  2  0  0  0  0  0  0
   42.0600   34.7600   39.6270 C   0  0  0  0  0  2  0  0  0  0  0  0
   41.3530   34.5880   40.9710 C   0  0  0  0  0  2  0  0  0  0  0  0
   42.2370   35.3740   41.9260 C   0  0  0  0  0  2  0  0  0  0  0  0
   46.1130   32.4830   47.4180 C   0  0  0  0  0  0  0  0  0  0  0  0
   45.1080   33.1260   48.0960 F   0  0  0  0  0  0  0  0  0  0  0  0
   47.3250   32.7690   48.0520 F   0  0  0  0  0  0  0  0  0  0  0  0
   45.9790   31.1000   47.4620 F   0  0  0  0  0  0  0  0  0  0  0  0
  1  6  1  0  0  0  0
  2  3  1  0  0  0  0
  2  1  2  0  0  0  0
  3  4  2  0  0  0  0
  4  5  1  0  0  0  0
  5 21  1  0  0  0  0
  6  5  2  0  0  0  0
  7  2  1  0  0  0  0
  8  3  1  0  0  0  0
  9 12  1  1  0  0  0
  9  1  1  0  0  0  0
 10 14  1  0  0  0  0
 10 13  1  0  0  0  0
 10  9  1  0  0  0  0
 11 15  1  6  0  0  0
 11 10  1  0  0  0  0
 11  9  1  0  0  0  0
 16 20  1  0  0  0  0
 16 11  1  0  0  0  0
 17 16  1  0  0  0  0
 18 17  1  0  0  0  0
 18 19  1  0  0  0  0
 19 20  1  0  0  0  0
 21 24  1  0  0  0  0
 21 23  1  0  0  0  0
 21 22  1  0  0  0  0
M  END
>  <minimizedAffinity>
-5.02911901

>  <minimizedRMSD>
1.08704066

$$$$
