
 OpenBabel03252509303D

 17 18  0  0  0  0  0  0  0  0999 V2000
   44.5350   36.0590   44.4650 C   0  0  0  0  0  0  0  0  0  0  0  0
   45.3610   35.8650   43.3300 C   0  0  0  0  0  0  0  0  0  0  0  0
   46.2220   34.7670   43.3580 C   0  0  0  0  0  0  0  0  0  0  0  0
   46.2290   33.9460   44.4580 N   0  0  0  0  0  0  0  0  0  0  0  0
   45.4100   34.1900   45.5130 C   0  0  0  0  0  0  0  0  0  0  0  0
   44.5750   35.2320   45.5180 N   0  0  0  0  0  0  0  0  0  0  0  0
   43.8600   36.8960   44.4770 H   0  0  0  0  0  0  0  0  0  0  0  0
   45.3070   36.5500   42.4950 H   0  0  0  0  0  0  0  0  0  0  0  0
   45.5040   33.4770   46.3200 H   0  0  0  0  0  0  0  0  0  0  0  0
   47.0790   34.5540   42.1940 C   0  0  0  0  0  0  0  0  0  0  0  0
   47.2630   35.4990   41.6600 H   0  0  0  0  0  0  0  0  0  0  0  0
   46.6540   33.7550   41.5360 H   0  0  0  0  0  0  0  0  0  0  0  0
   48.3970   34.0150   42.7080 C   0  0  0  0  0  3  0  0  0  0  0  0
   48.7070   32.6690   42.1070 C   0  0  0  0  0  2  0  0  0  0  0  0
   50.1410   32.7280   41.6130 C   0  0  0  0  0  2  0  0  0  0  0  0
   50.7060   33.8600   42.4820 C   0  0  0  0  0  2  0  0  0  0  0  0
   49.5680   34.8530   42.3020 C   0  0  0  0  0  2  0  0  0  0  0  0
  1  7  1  0  0  0  0
  1  6  1  0  0  0  0
  2  3  1  0  0  0  0
  2  1  2  0  0  0  0
  3  4  2  0  0  0  0
  4  5  1  0  0  0  0
  5  6  2  0  0  0  0
  5  9  1  0  0  0  0
  8  2  1  0  0  0  0
 10 13  1  0  0  0  0
 10  3  1  0  0  0  0
 11 10  1  0  0  0  0
 12 10  1  0  0  0  0
 14 13  1  0  0  0  0
 15 14  1  0  0  0  0
 15 16  1  0  0  0  0
 17 16  1  0  0  0  0
 17 13  1  0  0  0  0
M  END
>  <minimizedAffinity>
-4.4198761

>  <minimizedRMSD>
0.855143845

$$$$
