
     RDKit          3D

 32 34  0  0  0  0  0  0  0  0999 V2000
   46.0835   34.7499   43.3858 C   0  0  0  0  0  0  0  0  0  0  0  0
   45.1853   35.7661   43.7820 C   0  0  0  0  0  0  0  0  0  0  0  0
   44.5623   35.6521   45.0496 C   0  0  0  0  0  0  0  0  0  0  0  0
   44.8756   34.5627   45.8031 N   0  0  0  0  0  0  0  0  0  0  0  0
   45.7530   33.6193   45.3555 C   0  0  0  0  0  0  0  0  0  0  0  0
   46.3468   33.7049   44.1744 N   0  0  0  0  0  0  0  0  0  0  0  0
   46.6528   34.9727   42.1022 C   0  0  0  0  0  0  0  0  0  0  0  0
   47.8306   35.3965   41.8871 O   0  0  0  0  0  0  0  0  0  0  0  0
   46.0595   32.4553   46.2513 C   0  0  1  0  0  0  0  0  0  0  0  0
   47.0015   32.6324   47.3996 C   0  0  0  0  0  0  0  0  0  0  0  0
   45.5322   32.6161   47.6415 C   0  0  2  0  0  0  0  0  0  0  0  0
   44.9379   36.6318   43.1808 H   0  0  0  0  0  0  0  0  0  0  0  0
   43.8659   36.3977   45.4076 H   0  0  0  0  0  0  0  0  0  0  0  0
   46.2020   34.8269   41.1086 H   0  0  0  0  0  0  0  0  0  0  0  0
   46.0492   31.4673   45.7527 H   0  0  0  0  0  0  0  0  0  0  0  0
   47.6028   31.7393   47.6576 H   0  0  0  0  0  0  0  0  0  0  0  0
   47.5877   33.5569   47.3595 H   0  0  0  0  0  0  0  0  0  0  0  0
   45.1026   33.6075   47.9466 H   0  0  0  0  0  0  0  0  0  0  0  0
   45.0185   31.4658   48.4315 C   0  0  0  0  0  0  0  0  0  0  0  0
   45.8987   30.2426   48.3626 C   0  0  0  0  0  0  0  0  0  0  0  0
   44.9986   29.1932   49.0211 C   0  0  0  0  0  0  0  0  0  0  0  0
   43.5981   29.7500   49.0176 C   0  0  0  0  0  0  0  0  0  0  0  0
   43.6911   30.9208   48.0279 C   0  0  0  0  0  0  0  0  0  0  0  0
   44.9768   31.7490   49.4985 H   0  0  0  0  0  0  0  0  0  0  0  0
   46.8230   30.3470   48.9772 H   0  0  0  0  0  0  0  0  0  0  0  0
   46.1105   29.9252   47.3365 H   0  0  0  0  0  0  0  0  0  0  0  0
   45.0396   28.2372   48.4461 H   0  0  0  0  0  0  0  0  0  0  0  0
   45.3555   28.9931   50.0578 H   0  0  0  0  0  0  0  0  0  0  0  0
   43.4270   30.2399   50.0201 H   0  0  0  0  0  0  0  0  0  0  0  0
   42.8153   29.0340   48.7621 H   0  0  0  0  0  0  0  0  0  0  0  0
   42.8357   31.5811   48.1357 H   0  0  0  0  0  0  0  0  0  0  0  0
   43.6938   30.4763   47.0106 H   0  0  0  0  0  0  0  0  0  0  0  0
  1  2  2  0
  1  6  1  0
  2  3  1  0
  3  4  2  0
  5  4  1  0
  5  9  1  0
  6  5  2  0
  7  1  1  0
  8  7  2  0
  9 10  1  0
  9 11  1  0
 10 11  1  0
  2 12  1  0
  3 13  1  0
  7 14  1  0
  9 15  1  6
 10 16  1  0
 10 17  1  0
 11 18  1  6
 19 20  1  0
 20 21  1  0
 21 22  1  0
 22 23  1  0
 23 19  1  0
 19 24  1  0
 20 25  1  0
 20 26  1  0
 21 27  1  0
 21 28  1  0
 22 29  1  0
 22 30  1  0
 23 31  1  0
 23 32  1  0
 11 19  1  0
M  ISO  7  12  14  13  14  14   6  15  13  16  13  17  13  18  13
M  END
>  <DihAtoms>  (1) 
8,10,18,19

>  <DihDeg>  (1) 
59.90306765587917

$$$$
