
     RDKit          3D

 24 25  0  0  0  0  0  0  0  0999 V2000
   45.0032   35.4828   44.1882 C   0  0  0  0  0  0  0  0  0  0  0  0
   45.9913   34.9240   43.3300 C   0  0  0  0  0  0  0  0  0  0  0  0
   46.7082   33.8355   43.8433 C   0  0  0  0  0  0  0  0  0  0  0  0
   46.4403   33.3815   45.0829 N   0  0  0  0  0  0  0  0  0  0  0  0
   45.4913   33.9468   45.8596 C   0  0  0  0  0  0  0  0  0  0  0  0
   44.7783   34.9853   45.4226 N   0  0  0  0  0  0  0  0  0  0  0  0
   44.2853   36.5470   43.7173 O   0  0  0  0  0  0  0  0  0  0  0  0
   47.4429   33.4201   43.2049 H   0  0  0  0  0  0  0  0  0  0  0  0
   45.2589   33.5981   46.8602 H   0  0  0  0  0  0  0  0  0  0  0  0
   44.6988   37.4883   43.7473 H   0  0  0  0  0  0  0  0  0  0  0  0
   46.1764   35.5301   41.9869 C   0  0  0  0  0  0  0  0  0  0  0  0
   45.8399   37.0032   42.0265 C   0  0  0  0  0  0  0  0  0  0  0  0
   44.4885   37.1502   41.3704 C   0  0  0  0  0  0  0  0  0  0  0  0
   44.1910   35.8654   40.6369 C   0  0  0  0  0  0  0  0  0  0  0  0
   45.2665   34.8715   41.0068 C   0  0  0  0  0  0  0  0  0  0  0  0
   47.2546   35.4040   41.7158 H   0  0  0  0  0  0  0  0  0  0  0  0
   46.6062   37.6446   41.5300 H   0  0  0  0  0  0  0  0  0  0  0  0
   45.7554   37.3473   43.0743 H   0  0  0  0  0  0  0  0  0  0  0  0
   44.4638   38.0500   40.7134 H   0  0  0  0  0  0  0  0  0  0  0  0
   43.6930   37.3207   42.1455 H   0  0  0  0  0  0  0  0  0  0  0  0
   43.1975   35.4527   40.9088 H   0  0  0  0  0  0  0  0  0  0  0  0
   44.2202   36.0243   39.5196 H   0  0  0  0  0  0  0  0  0  0  0  0
   44.8376   33.9099   41.3528 H   0  0  0  0  0  0  0  0  0  0  0  0
   45.8925   34.6095   40.1042 H   0  0  0  0  0  0  0  0  0  0  0  0
  1  6  2  0
  2  3  2  0
  2  1  1  0
  3  4  1  0
  4  5  2  0
  6  5  1  0
  7  1  1  0
  3  8  1  0
  5  9  1  0
  7 10  1  0
 11 12  1  0
 12 13  1  0
 13 14  1  0
 14 15  1  0
 15 11  1  0
 11 16  1  0
 12 17  1  0
 12 18  1  0
 13 19  1  0
 13 20  1  0
 14 21  1  0
 14 22  1  0
 15 23  1  0
 15 24  1  0
  2 11  1  0
M  ISO  3   8  14   9  14  10   3
M  END
>  <DihAtoms>  (1) 
2,1,10,11

>  <DihDeg>  (1) 
89.99152022864307

$$$$
