
 OpenBabel03252504253D

 17 18  0  0  0  0  0  0  0  0999 V2000
   44.3570   35.8960   43.7390 C   0  0  0  0  0  0  0  0  0  0  0  0
   44.2590   35.0820   42.6190 C   0  0  0  0  0  0  0  0  0  0  0  0
   44.6900   33.7590   42.7440 C   0  0  0  0  0  0  0  0  0  0  0  0
   45.1730   33.3620   43.9420 N   0  0  0  0  0  0  0  0  0  0  0  0
   45.2570   34.1730   45.0120 C   0  0  0  0  0  0  0  0  0  0  0  0
   44.8480   35.4660   44.9340 N   0  0  0  0  0  0  0  0  0  0  0  0
   44.0510   36.9420   43.7540 H   0  0  0  0  0  0  0  0  0  0  0  0
   44.5990   33.1690   41.8630 H   0  0  0  0  0  0  0  0  0  0  0  0
   45.6430   33.8270   45.9440 H   0  0  0  0  0  0  0  0  0  0  0  0
   43.7030   35.7190   41.4150 C   0  0  0  0  0  0  0  0  0  0  0  0
   43.4850   36.7640   41.5870 H   0  0  0  0  0  0  0  0  0  0  0  0
   44.4410   35.6640   40.5720 H   0  0  0  0  0  0  0  0  0  0  0  0
   42.4390   35.0150   41.0000 C   0  0  0  0  0  3  0  0  0  0  0  0
   42.2130   35.0630   39.5010 C   0  0  0  0  0  2  0  0  0  0  0  0
   40.8170   34.4650   39.4330 C   0  0  0  0  0  2  0  0  0  0  0  0
   40.1030   35.2220   40.5360 C   0  0  0  0  0  2  0  0  0  0  0  0
   41.2000   35.7180   41.4870 C   0  0  0  0  0  2  0  0  0  0  0  0
  1  7  1  0  0  0  0
  1  6  1  0  0  0  0
  2  3  1  0  0  0  0
  2  1  2  0  0  0  0
  3  4  2  0  0  0  0
  4  5  1  0  0  0  0
  5  9  1  0  0  0  0
  6  5  2  0  0  0  0
  8  3  1  0  0  0  0
 10 11  1  0  0  0  0
 10  2  1  0  0  0  0
 12 10  1  0  0  0  0
 13 10  1  0  0  0  0
 13 17  1  0  0  0  0
 14 13  1  0  0  0  0
 15 14  1  0  0  0  0
 15 16  1  0  0  0  0
 16 17  1  0  0  0  0
M  END
>  <minimizedAffinity>
-4.07962275

>  <minimizedRMSD>
0.871428668

$$$$
