
 OpenBabel03252504083D

 15 16  0  0  0  0  0  0  0  0999 V2000
   35.9340   29.8290   40.7710 C   0  0  0  0  0  0  0  0  0  0  0  0
   36.7000   28.8010   41.3880 C   0  0  0  0  0  0  0  0  0  0  0  0
   36.7940   27.5950   40.6820 C   0  0  0  0  0  0  0  0  0  0  0  0
   36.1770   27.4660   39.4910 N   0  0  0  0  0  0  0  0  0  0  0  0
   35.4610   28.4720   38.9460 C   0  0  0  0  0  0  0  0  0  0  0  0
   35.3380   29.6420   39.5730 N   0  0  0  0  0  0  0  0  0  0  0  0
   37.3630   26.8300   41.1420 H   0  0  0  0  0  0  0  0  0  0  0  0
   34.9570   28.3900   37.9890 H   0  0  0  0  0  0  0  0  0  0  0  0
   37.3230   29.0870   42.7050 C   0  0  0  0  0  3  0  0  0  0  0  0
   38.7670   29.4960   42.5230 C   0  0  0  0  0  2  0  0  0  0  0  0
   39.6030   28.3080   42.9320 C   0  0  0  0  0  2  0  0  0  0  0  0
   38.7060   27.3500   43.6800 C   0  0  0  0  0  2  0  0  0  0  0  0
   37.2900   27.8620   43.5550 C   0  0  0  0  0  2  0  0  0  0  0  0
   35.8220   31.0190   41.4340 O   0  0  0  0  0  0  0  0  0  0  0  0
   35.1400   31.1090   42.1980 H   0  0  0  0  0  0  0  0  0  0  0  0
  1  2  1  0  0  0  0
  1 14  1  0  0  0  0
  2  9  1  0  0  0  0
  3  7  1  0  0  0  0
  3  2  2  0  0  0  0
  4  3  1  0  0  0  0
  5  4  2  0  0  0  0
  5  6  1  0  0  0  0
  6  1  2  0  0  0  0
  8  5  1  0  0  0  0
  9 13  1  0  0  0  0
 10  9  1  0  0  0  0
 10 11  1  0  0  0  0
 11 12  1  0  0  0  0
 13 12  1  0  0  0  0
 14 15  1  0  0  0  0
M  END
>  <minimizedAffinity>
-4.61376524

$$$$

 OpenBabel03252504083D

 15 16  0  0  0  0  0  0  0  0999 V2000
   36.8810   30.8370   40.9900 C   0  0  0  0  0  0  0  0  0  0  0  0
   37.5930   29.7120   41.4920 C   0  0  0  0  0  0  0  0  0  0  0  0
   38.9440   29.6280   41.1330 C   0  0  0  0  0  0  0  0  0  0  0  0
   39.4910   30.5830   40.3550 N   0  0  0  0  0  0  0  0  0  0  0  0
   38.7730   31.6330   39.9030 C   0  0  0  0  0  0  0  0  0  0  0  0
   37.4830   31.7630   40.2130 N   0  0  0  0  0  0  0  0  0  0  0  0
   39.4740   28.7920   41.5070 H   0  0  0  0  0  0  0  0  0  0  0  0
   39.1930   32.4120   39.2760 H   0  0  0  0  0  0  0  0  0  0  0  0
   36.8580   28.7390   42.3390 C   0  0  0  0  0  3  0  0  0  0  0  0
   37.5440   28.5870   43.6780 C   0  0  0  0  0  2  0  0  0  0  0  0
   38.2690   27.2640   43.6380 C   0  0  0  0  0  2  0  0  0  0  0  0
   37.7390   26.4840   42.4600 C   0  0  0  0  0  2  0  0  0  0  0  0
   36.8370   27.4060   41.6730 C   0  0  0  0  0  2  0  0  0  0  0  0
   35.5600   30.9490   41.3220 O   0  0  0  0  0  0  0  0  0  0  0  0
   34.8610   30.4010   40.8020 H   0  0  0  0  0  0  0  0  0  0  0  0
  1 14  1  0  0  0  0
  1  2  1  0  0  0  0
  2  9  1  0  0  0  0
  3  2  2  0  0  0  0
  3  7  1  0  0  0  0
  4  3  1  0  0  0  0
  5  6  1  0  0  0  0
  5  4  2  0  0  0  0
  6  1  2  0  0  0  0
  8  5  1  0  0  0  0
  9 10  1  0  0  0  0
 11 10  1  0  0  0  0
 12 11  1  0  0  0  0
 13  9  1  0  0  0  0
 13 12  1  0  0  0  0
 15 14  1  0  0  0  0
M  END
>  <minimizedAffinity>
-4.51697016

$$$$

 OpenBabel03252504083D

 15 16  0  0  0  0  0  0  0  0999 V2000
   37.0170   28.2000   42.5450 C   0  0  0  0  0  0  0  0  0  0  0  0
   36.5220   28.2060   41.2110 C   0  0  0  0  0  0  0  0  0  0  0  0
   36.7030   27.0240   40.4820 C   0  0  0  0  0  0  0  0  0  0  0  0
   37.3150   25.9700   41.0560 N   0  0  0  0  0  0  0  0  0  0  0  0
   37.7670   26.0130   42.3270 C   0  0  0  0  0  0  0  0  0  0  0  0
   37.6220   27.1120   43.0680 N   0  0  0  0  0  0  0  0  0  0  0  0
   36.3350   27.0290   39.4890 H   0  0  0  0  0  0  0  0  0  0  0  0
   38.2620   25.1770   42.8090 H   0  0  0  0  0  0  0  0  0  0  0  0
   35.8690   29.4420   40.7120 C   0  0  0  0  0  3  0  0  0  0  0  0
   34.6920   29.0940   39.8290 C   0  0  0  0  0  2  0  0  0  0  0  0
   35.1380   29.3380   38.4080 C   0  0  0  0  0  2  0  0  0  0  0  0
   36.4090   30.1520   38.4580 C   0  0  0  0  0  2  0  0  0  0  0  0
   36.8390   30.2340   39.9030 C   0  0  0  0  0  2  0  0  0  0  0  0
   36.8560   29.3390   43.2850 O   0  0  0  0  0  0  0  0  0  0  0  0
   37.5100   30.1220   43.1530 H   0  0  0  0  0  0  0  0  0  0  0  0
  1  6  1  0  0  0  0
  1 14  1  0  0  0  0
  2  1  2  0  0  0  0
  3  4  2  0  0  0  0
  3  2  1  0  0  0  0
  4  5  1  0  0  0  0
  5  8  1  0  0  0  0
  5  6  2  0  0  0  0
  7  3  1  0  0  0  0
  9  2  1  0  0  0  0
 10  9  1  0  0  0  0
 11 12  1  0  0  0  0
 11 10  1  0  0  0  0
 12 13  1  0  0  0  0
 13  9  1  0  0  0  0
 15 14  1  0  0  0  0
M  END
>  <minimizedAffinity>
-4.22826767

$$$$

 OpenBabel03252504083D

 15 16  0  0  0  0  0  0  0  0999 V2000
   37.3140   29.1340   42.3470 C   0  0  0  0  0  0  0  0  0  0  0  0
   37.6380   27.8370   41.8600 C   0  0  0  0  0  0  0  0  0  0  0  0
   37.9230   27.7460   40.4920 C   0  0  0  0  0  0  0  0  0  0  0  0
   37.8800   28.8520   39.7240 N   0  0  0  0  0  0  0  0  0  0  0  0
   37.5670   30.0620   40.2340 C   0  0  0  0  0  0  0  0  0  0  0  0
   37.2860   30.2080   41.5290 N   0  0  0  0  0  0  0  0  0  0  0  0
   38.1640   26.7810   40.1300 H   0  0  0  0  0  0  0  0  0  0  0  0
   37.5260   30.9650   39.6340 H   0  0  0  0  0  0  0  0  0  0  0  0
   37.6470   26.7080   42.8260 C   0  0  0  0  0  3  0  0  0  0  0  0
   39.0590   26.4190   43.2810 C   0  0  0  0  0  2  0  0  0  0  0  0
   39.4920   25.1670   42.5590 C   0  0  0  0  0  2  0  0  0  0  0  0
   38.2580   24.5230   41.9740 C   0  0  0  0  0  2  0  0  0  0  0  0
   37.1080   25.4820   42.1720 C   0  0  0  0  0  2  0  0  0  0  0  0
   37.0300   29.2570   43.6790 O   0  0  0  0  0  0  0  0  0  0  0  0
   36.0930   29.0050   44.0210 H   0  0  0  0  0  0  0  0  0  0  0  0
  1 14  1  0  0  0  0
  2  1  1  0  0  0  0
  2  9  1  0  0  0  0
  3  2  2  0  0  0  0
  4  5  2  0  0  0  0
  4  3  1  0  0  0  0
  5  6  1  0  0  0  0
  6  1  2  0  0  0  0
  7  3  1  0  0  0  0
  8  5  1  0  0  0  0
  9 10  1  0  0  0  0
 11 10  1  0  0  0  0
 12 13  1  0  0  0  0
 12 11  1  0  0  0  0
 13  9  1  0  0  0  0
 14 15  1  0  0  0  0
M  END
>  <minimizedAffinity>
-4.1259551

$$$$

 OpenBabel03252504083D

 15 16  0  0  0  0  0  0  0  0999 V2000
   36.2900   31.1420   40.3460 C   0  0  0  0  0  0  0  0  0  0  0  0
   36.2150   30.2000   39.2820 C   0  0  0  0  0  0  0  0  0  0  0  0
   36.9020   30.5390   38.1100 C   0  0  0  0  0  0  0  0  0  0  0  0
   37.5800   31.7010   38.0430 N   0  0  0  0  0  0  0  0  0  0  0  0
   37.6220   32.5640   39.0820 C   0  0  0  0  0  0  0  0  0  0  0  0
   36.9860   32.2920   40.2220 N   0  0  0  0  0  0  0  0  0  0  0  0
   36.8470   29.8390   37.3180 H   0  0  0  0  0  0  0  0  0  0  0  0
   38.1610   33.5040   39.0500 H   0  0  0  0  0  0  0  0  0  0  0  0
   35.4290   28.9590   39.5000 C   0  0  0  0  0  3  0  0  0  0  0  0
   36.2020   27.7560   39.0090 C   0  0  0  0  0  2  0  0  0  0  0  0
   35.5710   27.3470   37.7010 C   0  0  0  0  0  2  0  0  0  0  0  0
   34.2390   28.0500   37.5930 C   0  0  0  0  0  2  0  0  0  0  0  0
   34.1500   29.0320   38.7370 C   0  0  0  0  0  2  0  0  0  0  0  0
   35.6300   30.8410   41.5050 O   0  0  0  0  0  0  0  0  0  0  0  0
   34.6160   31.0050   41.5650 H   0  0  0  0  0  0  0  0  0  0  0  0
  1 14  1  0  0  0  0
  2  9  1  0  0  0  0
  2  1  2  0  0  0  0
  3  2  1  0  0  0  0
  4  3  2  0  0  0  0
  4  5  1  0  0  0  0
  5  6  2  0  0  0  0
  6  1  1  0  0  0  0
  7  3  1  0  0  0  0
  8  5  1  0  0  0  0
 10  9  1  0  0  0  0
 11 10  1  0  0  0  0
 12 11  1  0  0  0  0
 12 13  1  0  0  0  0
 13  9  1  0  0  0  0
 14 15  1  0  0  0  0
M  END
>  <minimizedAffinity>
-4.10147047

$$$$

 OpenBabel03252504083D

 15 16  0  0  0  0  0  0  0  0999 V2000
   39.2290   24.7910   42.7750 C   0  0  0  0  0  0  0  0  0  0  0  0
   38.6400   26.0820   42.6790 C   0  0  0  0  0  0  0  0  0  0  0  0
   39.4910   27.1670   42.9260 C   0  0  0  0  0  0  0  0  0  0  0  0
   40.7840   26.9480   43.2330 N   0  0  0  0  0  0  0  0  0  0  0  0
   41.2970   25.7010   43.3120 C   0  0  0  0  0  0  0  0  0  0  0  0
   40.5330   24.6320   43.0870 N   0  0  0  0  0  0  0  0  0  0  0  0
   39.0530   28.1280   42.8550 H   0  0  0  0  0  0  0  0  0  0  0  0
   42.3340   25.5010   43.5580 H   0  0  0  0  0  0  0  0  0  0  0  0
   37.1990   26.1710   42.3310 C   0  0  0  0  0  3  0  0  0  0  0  0
   37.0260   26.2460   40.8310 C   0  0  0  0  0  2  0  0  0  0  0  0
   36.6920   27.6820   40.5110 C   0  0  0  0  0  2  0  0  0  0  0  0
   36.3170   28.3660   41.8040 C   0  0  0  0  0  2  0  0  0  0  0  0
   36.6110   27.4030   42.9290 C   0  0  0  0  0  2  0  0  0  0  0  0
   38.4250   23.7100   42.5390 O   0  0  0  0  0  0  0  0  0  0  0  0
   37.8040   23.3710   43.2850 H   0  0  0  0  0  0  0  0  0  0  0  0
  1  6  1  0  0  0  0
  2  1  2  0  0  0  0
  2  3  1  0  0  0  0
  3  4  2  0  0  0  0
  4  5  1  0  0  0  0
  5  8  1  0  0  0  0
  6  5  2  0  0  0  0
  7  3  1  0  0  0  0
  9  2  1  0  0  0  0
  9 13  1  0  0  0  0
 10  9  1  0  0  0  0
 11 10  1  0  0  0  0
 11 12  1  0  0  0  0
 12 13  1  0  0  0  0
 14  1  1  0  0  0  0
 14 15  1  0  0  0  0
M  END
>  <minimizedAffinity>
-4.04977179

$$$$

 OpenBabel03252504083D

 15 16  0  0  0  0  0  0  0  0999 V2000
   37.3570   24.6760   41.5180 C   0  0  0  0  0  0  0  0  0  0  0  0
   37.4210   26.0790   41.7450 C   0  0  0  0  0  0  0  0  0  0  0  0
   36.9200   26.8920   40.7200 C   0  0  0  0  0  0  0  0  0  0  0  0
   36.4160   26.3290   39.6050 N   0  0  0  0  0  0  0  0  0  0  0  0
   36.3770   24.9900   39.4360 C   0  0  0  0  0  0  0  0  0  0  0  0
   36.8400   24.1690   40.3780 N   0  0  0  0  0  0  0  0  0  0  0  0
   36.9680   27.9360   40.8890 H   0  0  0  0  0  0  0  0  0  0  0  0
   35.9770   24.5160   38.5470 H   0  0  0  0  0  0  0  0  0  0  0  0
   38.0040   26.5560   43.0250 C   0  0  0  0  0  3  0  0  0  0  0  0
   37.1200   27.6180   43.6390 C   0  0  0  0  0  2  0  0  0  0  0  0
   37.8090   28.9390   43.3960 C   0  0  0  0  0  2  0  0  0  0  0  0
   39.2290   28.6470   42.9760 C   0  0  0  0  0  2  0  0  0  0  0  0
   39.3460   27.1550   42.7760 C   0  0  0  0  0  2  0  0  0  0  0  0
   37.8380   23.8540   42.4990 O   0  0  0  0  0  0  0  0  0  0  0  0
   38.8520   23.6950   42.5720 H   0  0  0  0  0  0  0  0  0  0  0  0
  1  2  1  0  0  0  0
  1 14  1  0  0  0  0
  2  9  1  0  0  0  0
  3  7  1  0  0  0  0
  3  2  2  0  0  0  0
  4  3  1  0  0  0  0
  5  4  2  0  0  0  0
  5  6  1  0  0  0  0
  6  1  2  0  0  0  0
  8  5  1  0  0  0  0
  9 10  1  0  0  0  0
 11 10  1  0  0  0  0
 12 11  1  0  0  0  0
 13 12  1  0  0  0  0
 13  9  1  0  0  0  0
 14 15  1  0  0  0  0
M  END
>  <minimizedAffinity>
-4.02877855

$$$$

 OpenBabel03252504083D

 15 16  0  0  0  0  0  0  0  0999 V2000
   36.3210   30.8680   40.0030 C   0  0  0  0  0  0  0  0  0  0  0  0
   37.4260   31.6880   39.6430 C   0  0  0  0  0  0  0  0  0  0  0  0
   37.9410   31.4980   38.3550 C   0  0  0  0  0  0  0  0  0  0  0  0
   37.3860   30.5790   37.5410 N   0  0  0  0  0  0  0  0  0  0  0  0
   36.3360   29.8240   37.9280 C   0  0  0  0  0  0  0  0  0  0  0  0
   35.8060   29.9620   39.1430 N   0  0  0  0  0  0  0  0  0  0  0  0
   38.7630   32.1090   38.0870 H   0  0  0  0  0  0  0  0  0  0  0  0
   35.8750   29.0790   37.2900 H   0  0  0  0  0  0  0  0  0  0  0  0
   37.9320   32.6590   40.6460 C   0  0  0  0  0  3  0  0  0  0  0  0
   38.1560   34.0090   40.0020 C   0  0  0  0  0  2  0  0  0  0  0  0
   39.6480   34.1560   39.8250 C   0  0  0  0  0  2  0  0  0  0  0  0
   40.3170   33.0950   40.6650 C   0  0  0  0  0  2  0  0  0  0  0  0
   39.2340   32.1850   41.1950 C   0  0  0  0  0  2  0  0  0  0  0  0
   35.7940   31.0280   41.2540 O   0  0  0  0  0  0  0  0  0  0  0  0
   36.2570   30.5820   42.0570 H   0  0  0  0  0  0  0  0  0  0  0  0
  1 14  1  0  0  0  0
  2  1  1  0  0  0  0
  2  9  1  0  0  0  0
  3  2  2  0  0  0  0
  4  5  2  0  0  0  0
  4  3  1  0  0  0  0
  5  6  1  0  0  0  0
  6  1  2  0  0  0  0
  7  3  1  0  0  0  0
  8  5  1  0  0  0  0
  9 13  1  0  0  0  0
 10  9  1  0  0  0  0
 11 10  1  0  0  0  0
 11 12  1  0  0  0  0
 12 13  1  0  0  0  0
 14 15  1  0  0  0  0
M  END
>  <minimizedAffinity>
-4.02467775

$$$$

 OpenBabel03252504083D

 15 16  0  0  0  0  0  0  0  0999 V2000
   37.2990   27.8910   43.0530 C   0  0  0  0  0  0  0  0  0  0  0  0
   37.4320   28.6510   41.8580 C   0  0  0  0  0  0  0  0  0  0  0  0
   38.7370   28.8190   41.3770 C   0  0  0  0  0  0  0  0  0  0  0  0
   39.7720   28.2720   42.0440 N   0  0  0  0  0  0  0  0  0  0  0  0
   39.5940   27.5580   43.1760 C   0  0  0  0  0  0  0  0  0  0  0  0
   38.3750   27.3660   43.6790 N   0  0  0  0  0  0  0  0  0  0  0  0
   38.8360   29.3840   40.4880 H   0  0  0  0  0  0  0  0  0  0  0  0
   40.4120   27.1100   43.7290 H   0  0  0  0  0  0  0  0  0  0  0  0
   36.2000   29.1920   41.2310 C   0  0  0  0  0  3  0  0  0  0  0  0
   35.9980   28.5860   39.8610 C   0  0  0  0  0  2  0  0  0  0  0  0
   36.3890   29.6480   38.8630 C   0  0  0  0  0  2  0  0  0  0  0  0
   36.4700   30.9640   39.5990 C   0  0  0  0  0  2  0  0  0  0  0  0
   36.3220   30.6700   41.0730 C   0  0  0  0  0  2  0  0  0  0  0  0
   36.0380   27.7080   43.5500 O   0  0  0  0  0  0  0  0  0  0  0  0
   35.5980   28.4590   44.0970 H   0  0  0  0  0  0  0  0  0  0  0  0
  1 14  1  0  0  0  0
  1  6  1  0  0  0  0
  2  1  2  0  0  0  0
  3  2  1  0  0  0  0
  3  4  2  0  0  0  0
  4  5  1  0  0  0  0
  5  6  2  0  0  0  0
  5  8  1  0  0  0  0
  7  3  1  0  0  0  0
  9  2  1  0  0  0  0
 10  9  1  0  0  0  0
 11 12  1  0  0  0  0
 11 10  1  0  0  0  0
 12 13  1  0  0  0  0
 13  9  1  0  0  0  0
 14 15  1  0  0  0  0
M  END
>  <minimizedAffinity>
-3.99837089

$$$$
