
 OpenBabel03252504073D

 15 16  0  0  0  0  0  0  0  0999 V2000
   45.1120   35.8070   43.6760 C   0  0  0  0  0  0  0  0  0  0  0  0
   46.1100   34.9150   43.1940 C   0  0  0  0  0  0  0  0  0  0  0  0
   46.4820   33.8790   44.0610 C   0  0  0  0  0  0  0  0  0  0  0  0
   45.8980   33.7770   45.2710 N   0  0  0  0  0  0  0  0  0  0  0  0
   44.9540   34.6500   45.6840 C   0  0  0  0  0  0  0  0  0  0  0  0
   44.5620   35.6540   44.9000 N   0  0  0  0  0  0  0  0  0  0  0  0
   47.2240   33.2160   43.7030 H   0  0  0  0  0  0  0  0  0  0  0  0
   44.4720   34.5870   46.6530 H   0  0  0  0  0  0  0  0  0  0  0  0
   46.6650   35.1510   41.8370 C   0  0  0  0  0  3  0  0  0  0  0  0
   46.3530   33.9810   40.9330 C   0  0  0  0  0  2  0  0  0  0  0  0
   47.6350   33.1980   40.7880 C   0  0  0  0  0  2  0  0  0  0  0  0
   48.7620   34.0670   41.2890 C   0  0  0  0  0  2  0  0  0  0  0  0
   48.1470   35.2950   41.9160 C   0  0  0  0  0  2  0  0  0  0  0  0
   44.7270   36.8290   42.8540 O   0  0  0  0  0  0  0  0  0  0  0  0
   45.3100   37.6740   42.7920 H   0  0  0  0  0  0  0  0  0  0  0  0
  1  6  1  0  0  0  0
  2  1  2  0  0  0  0
  2  3  1  0  0  0  0
  3  4  2  0  0  0  0
  4  5  1  0  0  0  0
  5  8  1  0  0  0  0
  6  5  2  0  0  0  0
  7  3  1  0  0  0  0
  9 13  1  0  0  0  0
  9  2  1  0  0  0  0
 10  9  1  0  0  0  0
 11 10  1  0  0  0  0
 11 12  1  0  0  0  0
 12 13  1  0  0  0  0
 14  1  1  0  0  0  0
 15 14  1  0  0  0  0
M  END
>  <minimizedAffinity>
-4.4575963

>  <minimizedRMSD>
1.520684

$$$$
