
 OpenBabel03252505403D

 24 26  0  0  1  0  0  0  0  0999 V2000
   45.4970   34.0560   44.0870 C   0  0  0  0  0  0  0  0  0  0  0  0
   46.5870   33.5250   43.3480 C   0  0  0  0  0  0  0  0  0  0  0  0
   47.4650   32.6690   44.0010 C   0  0  0  0  0  0  0  0  0  0  0  0
   47.2370   32.3830   45.3120 N   0  0  0  0  0  0  0  0  0  0  0  0
   46.1840   32.9100   45.9830 C   0  0  0  0  0  0  0  0  0  0  0  0
   45.3190   33.7460   45.3570 N   0  0  0  0  0  0  0  0  0  0  0  0
   46.7060   33.7930   42.3240 H   0  0  0  0  0  0  0  0  0  0  0  0
   48.3130   32.2360   43.4890 H   0  0  0  0  0  0  0  0  0  0  0  0
   44.5390   34.9810   43.4290 C   0  0  1  0  0  0  0  0  0  0  0  0
   45.1180   36.3890   43.1700 C   0  0  0  0  0  0  0  0  0  0  0  0
   44.7570   35.4590   42.0610 C   0  0  2  0  0  0  0  0  0  0  0  0
   43.5740   35.0190   43.9830 H   0  0  0  0  0  0  0  0  0  0  0  0
   46.1930   36.5320   43.3450 H   0  0  0  0  0  0  0  0  0  0  0  0
   44.4460   37.2450   43.3120 H   0  0  0  0  0  0  0  0  0  0  0  0
   45.6100   34.9380   41.5250 H   0  0  0  0  0  0  0  0  0  0  0  0
   43.5440   35.6000   41.2190 C   0  0  0  0  0  3  0  0  0  0  0  0
   43.5110   34.6110   40.0860 C   0  0  0  0  0  2  0  0  0  0  0  0
   42.0590   34.7620   39.6270 C   0  0  0  0  0  2  0  0  0  0  0  0
   41.3530   34.5890   40.9710 C   0  0  0  0  0  2  0  0  0  0  0  0
   42.2360   35.3740   41.9270 C   0  0  0  0  0  2  0  0  0  0  0  0
   46.1140   32.4820   47.4170 C   0  0  0  0  0  0  0  0  0  0  0  0
   45.1080   33.1260   48.0960 F   0  0  0  0  0  0  0  0  0  0  0  0
   47.3260   32.7690   48.0510 F   0  0  0  0  0  0  0  0  0  0  0  0
   45.9810   31.1000   47.4620 F   0  0  0  0  0  0  0  0  0  0  0  0
  1  6  1  0  0  0  0
  2  3  1  0  0  0  0
  2  1  2  0  0  0  0
  3  4  2  0  0  0  0
  4  5  1  0  0  0  0
  5 21  1  0  0  0  0
  6  5  2  0  0  0  0
  7  2  1  0  0  0  0
  8  3  1  0  0  0  0
  9 12  1  1  0  0  0
  9  1  1  0  0  0  0
 10 14  1  0  0  0  0
 10 13  1  0  0  0  0
 10  9  1  0  0  0  0
 11 15  1  6  0  0  0
 11 10  1  0  0  0  0
 11  9  1  0  0  0  0
 16 20  1  0  0  0  0
 16 11  1  0  0  0  0
 17 16  1  0  0  0  0
 18 17  1  0  0  0  0
 18 19  1  0  0  0  0
 19 20  1  0  0  0  0
 21 24  1  0  0  0  0
 21 23  1  0  0  0  0
 21 22  1  0  0  0  0
M  END
>  <minimizedAffinity>
-5.02898502

>  <minimizedRMSD>
0.826043367

$$$$
