
 OpenBabel03252501553D

 17 18  0  0  0  0  0  0  0  0999 V2000
   45.1830   34.3320   45.6800 C   0  0  0  0  0  0  0  0  0  0  0  0
   45.3860   34.8300   44.3970 C   0  0  0  0  0  0  0  0  0  0  0  0
   46.3750   34.2530   43.6150 C   0  0  0  0  0  0  0  0  0  0  0  0
   47.0970   33.2340   44.1300 N   0  0  0  0  0  0  0  0  0  0  0  0
   46.8700   32.7730   45.3910 C   0  0  0  0  0  0  0  0  0  0  0  0
   45.9150   33.3100   46.1820 N   0  0  0  0  0  0  0  0  0  0  0  0
   44.4370   34.7160   46.3640 H   0  0  0  0  0  0  0  0  0  0  0  0
   47.5300   31.9570   45.6530 H   0  0  0  0  0  0  0  0  0  0  0  0
   46.5600   34.8120   42.2550 C   0  0  0  0  0  0  0  0  0  0  0  0
   46.5790   33.6340   41.3070 C   0  0  0  0  0  0  0  0  0  0  0  0
   47.3160   34.2170   40.1180 C   0  0  0  0  0  0  0  0  0  0  0  0
   48.5320   34.8000   40.8230 C   0  0  0  0  0  0  0  0  0  0  0  0
   47.9660   35.3950   42.0960 C   0  0  0  0  0  0  0  0  0  0  0  0
   44.5050   35.9440   44.0020 C   0  0  0  0  0  0  0  0  0  0  0  0
   44.6720   36.8040   44.7120 H   0  0  0  0  0  0  0  0  0  0  0  0
   43.4420   35.6350   44.2150 H   0  0  0  0  0  0  0  0  0  0  0  0
   44.6400   36.3230   42.9930 H   0  0  0  0  0  0  0  0  0  0  0  0
  1  6  1  0  0  0  0
  1  7  1  0  0  0  0
  2  1  2  0  0  0  0
  3  4  2  0  0  0  0
  3  2  1  0  0  0  0
  4  5  1  0  0  0  0
  5  8  1  0  0  0  0
  5  6  2  0  0  0  0
  9  3  1  0  0  0  0
 10  9  1  0  0  0  0
 11 12  1  0  0  0  0
 11 10  1  0  0  0  0
 12 13  1  0  0  0  0
 13  9  1  0  0  0  0
 14 16  1  0  0  0  0
 14  2  1  0  0  0  0
 14 15  1  0  0  0  0
 17 14  1  0  0  0  0
M  END
>  <minimizedAffinity>
-4.3078599

>  <minimizedRMSD>
2.27566481

$$$$
