
 OpenBabel03252504253D

 17 18  0  0  0  0  0  0  0  0999 V2000
   35.7270   28.5820   41.0860 C   0  0  0  0  0  0  0  0  0  0  0  0
   36.7230   28.4880   42.0490 C   0  0  0  0  0  0  0  0  0  0  0  0
   37.5950   29.5710   42.1830 C   0  0  0  0  0  0  0  0  0  0  0  0
   37.4150   30.6320   41.3680 N   0  0  0  0  0  0  0  0  0  0  0  0
   36.4410   30.6980   40.4410 C   0  0  0  0  0  0  0  0  0  0  0  0
   35.5710   29.6680   40.2790 N   0  0  0  0  0  0  0  0  0  0  0  0
   34.9940   27.7990   40.8960 H   0  0  0  0  0  0  0  0  0  0  0  0
   38.3430   29.4580   42.9330 H   0  0  0  0  0  0  0  0  0  0  0  0
   36.3260   31.5520   39.8140 H   0  0  0  0  0  0  0  0  0  0  0  0
   36.7380   27.2400   42.8290 C   0  0  0  0  0  0  0  0  0  0  0  0
   37.1740   27.3920   43.8070 H   0  0  0  0  0  0  0  0  0  0  0  0
   35.6910   26.8670   42.9820 H   0  0  0  0  0  0  0  0  0  0  0  0
   37.5260   26.1880   42.0960 C   0  0  0  0  0  3  0  0  0  0  0  0
   36.8800   24.8180   42.1770 C   0  0  0  0  0  2  0  0  0  0  0  0
   37.9750   23.9780   41.5380 C   0  0  0  0  0  2  0  0  0  0  0  0
   39.2130   24.5010   42.2410 C   0  0  0  0  0  2  0  0  0  0  0  0
   38.8550   25.9030   42.7460 C   0  0  0  0  0  2  0  0  0  0  0  0
  1  2  1  0  0  0  0
  2  3  2  0  0  0  0
  2 10  1  0  0  0  0
  3  8  1  0  0  0  0
  4  3  1  0  0  0  0
  5  4  2  0  0  0  0
  6  5  1  0  0  0  0
  6  1  2  0  0  0  0
  7  1  1  0  0  0  0
  9  5  1  0  0  0  0
 10 12  1  0  0  0  0
 10 11  1  0  0  0  0
 13 14  1  0  0  0  0
 13 17  1  0  0  0  0
 13 10  1  0  0  0  0
 15 14  1  0  0  0  0
 15 16  1  0  0  0  0
 16 17  1  0  0  0  0
M  END
>  <minimizedAffinity>
-4.07741451

$$$$

 OpenBabel03252504253D

 17 18  0  0  0  0  0  0  0  0999 V2000
   37.4680   30.8750   40.8250 C   0  0  0  0  0  0  0  0  0  0  0  0
   38.7020   30.9210   41.4590 C   0  0  0  0  0  0  0  0  0  0  0  0
   39.4380   32.1040   41.3530 C   0  0  0  0  0  0  0  0  0  0  0  0
   38.9030   33.1190   40.6410 N   0  0  0  0  0  0  0  0  0  0  0  0
   37.7040   33.0470   40.0350 C   0  0  0  0  0  0  0  0  0  0  0  0
   36.9550   31.9170   40.1140 N   0  0  0  0  0  0  0  0  0  0  0  0
   36.8120   30.0050   40.8420 H   0  0  0  0  0  0  0  0  0  0  0  0
   40.3780   32.0970   41.8540 H   0  0  0  0  0  0  0  0  0  0  0  0
   37.3100   33.8690   39.4800 H   0  0  0  0  0  0  0  0  0  0  0  0
   39.0920   29.7000   42.1820 C   0  0  0  0  0  0  0  0  0  0  0  0
   39.9230   29.2040   41.6980 H   0  0  0  0  0  0  0  0  0  0  0  0
   39.4160   29.9550   43.2250 H   0  0  0  0  0  0  0  0  0  0  0  0
   37.9260   28.7520   42.2540 C   0  0  0  0  0  3  0  0  0  0  0  0
   37.4830   28.4830   43.6790 C   0  0  0  0  0  2  0  0  0  0  0  0
   36.4650   27.3820   43.4290 C   0  0  0  0  0  2  0  0  0  0  0  0
   37.2160   26.4800   42.4700 C   0  0  0  0  0  2  0  0  0  0  0  0
   38.2870   27.3570   41.8110 C   0  0  0  0  0  2  0  0  0  0  0  0
  1  7  1  0  0  0  0
  1  2  1  0  0  0  0
  2 10  1  0  0  0  0
  3  2  2  0  0  0  0
  3  8  1  0  0  0  0
  4  3  1  0  0  0  0
  5  6  1  0  0  0  0
  5  4  2  0  0  0  0
  6  1  2  0  0  0  0
  9  5  1  0  0  0  0
 10 13  1  0  0  0  0
 10 12  1  0  0  0  0
 11 10  1  0  0  0  0
 13 14  1  0  0  0  0
 15 14  1  0  0  0  0
 16 15  1  0  0  0  0
 17 13  1  0  0  0  0
 17 16  1  0  0  0  0
M  END
>  <minimizedAffinity>
-3.96764231

$$$$

 OpenBabel03252504253D

 17 18  0  0  0  0  0  0  0  0999 V2000
   38.7600   26.5890   43.0380 C   0  0  0  0  0  0  0  0  0  0  0  0
   37.4510   26.3870   42.6220 C   0  0  0  0  0  0  0  0  0  0  0  0
   37.1090   25.1130   42.1600 C   0  0  0  0  0  0  0  0  0  0  0  0
   38.0730   24.1670   42.1480 N   0  0  0  0  0  0  0  0  0  0  0  0
   39.3350   24.3890   42.5570 C   0  0  0  0  0  0  0  0  0  0  0  0
   39.7090   25.6120   43.0140 N   0  0  0  0  0  0  0  0  0  0  0  0
   39.1340   27.5400   43.4150 H   0  0  0  0  0  0  0  0  0  0  0  0
   36.0970   25.0010   41.8510 H   0  0  0  0  0  0  0  0  0  0  0  0
   40.0730   23.6190   42.5350 H   0  0  0  0  0  0  0  0  0  0  0  0
   36.5640   27.5570   42.7200 C   0  0  0  0  0  0  0  0  0  0  0  0
   35.5230   27.2630   42.7290 H   0  0  0  0  0  0  0  0  0  0  0  0
   36.7630   28.1140   43.6730 H   0  0  0  0  0  0  0  0  0  0  0  0
   36.8050   28.4820   41.5580 C   0  0  0  0  0  3  0  0  0  0  0  0
   37.2520   29.8630   41.9980 C   0  0  0  0  0  2  0  0  0  0  0  0
   37.2170   30.5840   40.6600 C   0  0  0  0  0  2  0  0  0  0  0  0
   35.8780   30.1380   40.1050 C   0  0  0  0  0  2  0  0  0  0  0  0
   35.5360   28.8270   40.8210 C   0  0  0  0  0  2  0  0  0  0  0  0
  1  7  1  0  0  0  0
  2 10  1  0  0  0  0
  2  1  2  0  0  0  0
  3  2  1  0  0  0  0
  4  3  2  0  0  0  0
  4  5  1  0  0  0  0
  5  6  2  0  0  0  0
  6  1  1  0  0  0  0
  8  3  1  0  0  0  0
  9  5  1  0  0  0  0
 10 11  1  0  0  0  0
 10 12  1  0  0  0  0
 13 14  1  0  0  0  0
 13 10  1  0  0  0  0
 15 14  1  0  0  0  0
 16 15  1  0  0  0  0
 16 17  1  0  0  0  0
 17 13  1  0  0  0  0
M  END
>  <minimizedAffinity>
-3.86745977

$$$$

 OpenBabel03252504253D

 17 18  0  0  0  0  0  0  0  0999 V2000
   38.0390   23.4190   41.0060 C   0  0  0  0  0  0  0  0  0  0  0  0
   37.1270   24.4660   41.0260 C   0  0  0  0  0  0  0  0  0  0  0  0
   36.5700   24.8600   39.8070 C   0  0  0  0  0  0  0  0  0  0  0  0
   36.9570   24.2000   38.6940 N   0  0  0  0  0  0  0  0  0  0  0  0
   37.8440   23.1890   38.7010 C   0  0  0  0  0  0  0  0  0  0  0  0
   38.4090   22.7740   39.8650 N   0  0  0  0  0  0  0  0  0  0  0  0
   38.5340   23.0320   41.8950 H   0  0  0  0  0  0  0  0  0  0  0  0
   35.8760   25.6650   39.8670 H   0  0  0  0  0  0  0  0  0  0  0  0
   38.1270   22.6890   37.8030 H   0  0  0  0  0  0  0  0  0  0  0  0
   36.8490   25.0420   42.3510 C   0  0  0  0  0  0  0  0  0  0  0  0
   35.7910   25.0210   42.5760 H   0  0  0  0  0  0  0  0  0  0  0  0
   37.3730   24.4510   43.1480 H   0  0  0  0  0  0  0  0  0  0  0  0
   37.3360   26.4650   42.4040 C   0  0  0  0  0  3  0  0  0  0  0  0
   38.7050   26.5870   43.0450 C   0  0  0  0  0  2  0  0  0  0  0  0
   38.8180   28.1010   43.1250 C   0  0  0  0  0  2  0  0  0  0  0  0
   37.4590   28.4830   43.6790 C   0  0  0  0  0  2  0  0  0  0  0  0
   36.5190   27.3220   43.3360 C   0  0  0  0  0  2  0  0  0  0  0  0
  1  2  1  0  0  0  0
  1  7  1  0  0  0  0
  2 10  1  0  0  0  0
  3  8  1  0  0  0  0
  3  2  2  0  0  0  0
  4  5  2  0  0  0  0
  4  3  1  0  0  0  0
  5  6  1  0  0  0  0
  6  1  2  0  0  0  0
  9  5  1  0  0  0  0
 10 13  1  0  0  0  0
 10 11  1  0  0  0  0
 10 12  1  0  0  0  0
 13 14  1  0  0  0  0
 13 17  1  0  0  0  0
 14 15  1  0  0  0  0
 15 16  1  0  0  0  0
 17 16  1  0  0  0  0
M  END
>  <minimizedAffinity>
-3.85582256

$$$$

 OpenBabel03252504253D

 17 18  0  0  0  0  0  0  0  0999 V2000
   36.7410   29.7700   38.9090 C   0  0  0  0  0  0  0  0  0  0  0  0
   36.4790   30.0650   40.2400 C   0  0  0  0  0  0  0  0  0  0  0  0
   36.6580   31.3880   40.6540 C   0  0  0  0  0  0  0  0  0  0  0  0
   37.0750   32.2860   39.7360 N   0  0  0  0  0  0  0  0  0  0  0  0
   37.3220   31.9730   38.4510 C   0  0  0  0  0  0  0  0  0  0  0  0
   37.1600   30.7000   38.0060 N   0  0  0  0  0  0  0  0  0  0  0  0
   36.6350   28.7740   38.4800 H   0  0  0  0  0  0  0  0  0  0  0  0
   36.4470   31.5720   41.6810 H   0  0  0  0  0  0  0  0  0  0  0  0
   37.6490   32.7080   37.7510 H   0  0  0  0  0  0  0  0  0  0  0  0
   36.0350   28.9330   41.0680 C   0  0  0  0  0  0  0  0  0  0  0  0
   35.3730   29.2600   41.8590 H   0  0  0  0  0  0  0  0  0  0  0  0
   35.4700   28.1940   40.4420 H   0  0  0  0  0  0  0  0  0  0  0  0
   37.2270   28.2440   41.6760 C   0  0  0  0  0  3  0  0  0  0  0  0
   37.0260   26.7470   41.8090 C   0  0  0  0  0  2  0  0  0  0  0  0
   38.2710   26.3890   42.6060 C   0  0  0  0  0  2  0  0  0  0  0  0
   38.2670   27.4590   43.6800 C   0  0  0  0  0  2  0  0  0  0  0  0
   37.4400   28.6210   43.1190 C   0  0  0  0  0  2  0  0  0  0  0  0
  1  2  1  0  0  0  0
  2  3  2  0  0  0  0
  2 10  1  0  0  0  0
  3  8  1  0  0  0  0
  4  3  1  0  0  0  0
  5  4  2  0  0  0  0
  6  5  1  0  0  0  0
  6  1  2  0  0  0  0
  7  1  1  0  0  0  0
  9  5  1  0  0  0  0
 10 13  1  0  0  0  0
 10 11  1  0  0  0  0
 12 10  1  0  0  0  0
 13 14  1  0  0  0  0
 13 17  1  0  0  0  0
 14 15  1  0  0  0  0
 15 16  1  0  0  0  0
 17 16  1  0  0  0  0
M  END
>  <minimizedAffinity>
-3.84306026

$$$$

 OpenBabel03252504253D

 17 18  0  0  0  0  0  0  0  0999 V2000
   38.8510   30.6010   41.8440 C   0  0  0  0  0  0  0  0  0  0  0  0
   37.7150   29.8660   42.1560 C   0  0  0  0  0  0  0  0  0  0  0  0
   36.5350   30.1850   41.4800 C   0  0  0  0  0  0  0  0  0  0  0  0
   36.5780   31.1840   40.5720 N   0  0  0  0  0  0  0  0  0  0  0  0
   37.6930   31.8810   40.2890 C   0  0  0  0  0  0  0  0  0  0  0  0
   38.8610   31.6040   40.9230 N   0  0  0  0  0  0  0  0  0  0  0  0
   39.8220   30.4380   42.3100 H   0  0  0  0  0  0  0  0  0  0  0  0
   35.6880   29.5980   41.7480 H   0  0  0  0  0  0  0  0  0  0  0  0
   37.6920   32.6650   39.5650 H   0  0  0  0  0  0  0  0  0  0  0  0
   37.8930   28.8210   43.1770 C   0  0  0  0  0  0  0  0  0  0  0  0
   38.6670   29.0890   43.8840 H   0  0  0  0  0  0  0  0  0  0  0  0
   36.9430   28.6820   43.7570 H   0  0  0  0  0  0  0  0  0  0  0  0
   38.2560   27.5180   42.5180 C   0  0  0  0  0  3  0  0  0  0  0  0
   37.1170   26.5170   42.5430 C   0  0  0  0  0  2  0  0  0  0  0  0
   37.8380   25.2920   42.0050 C   0  0  0  0  0  2  0  0  0  0  0  0
   39.1210   25.3090   42.8130 C   0  0  0  0  0  2  0  0  0  0  0  0
   39.3070   26.7560   43.2830 C   0  0  0  0  0  2  0  0  0  0  0  0
  1  2  1  0  0  0  0
  1  7  1  0  0  0  0
  2 10  1  0  0  0  0
  3  8  1  0  0  0  0
  3  2  2  0  0  0  0
  4  3  1  0  0  0  0
  5  4  2  0  0  0  0
  5  6  1  0  0  0  0
  6  1  2  0  0  0  0
  9  5  1  0  0  0  0
 10 12  1  0  0  0  0
 10 11  1  0  0  0  0
 13 14  1  0  0  0  0
 13 10  1  0  0  0  0
 13 17  1  0  0  0  0
 15 14  1  0  0  0  0
 15 16  1  0  0  0  0
 16 17  1  0  0  0  0
M  END
>  <minimizedAffinity>
-3.8121357

$$$$

 OpenBabel03252504253D

 17 18  0  0  0  0  0  0  0  0999 V2000
   36.9640   30.0230   41.5900 C   0  0  0  0  0  0  0  0  0  0  0  0
   38.0210   29.6530   42.4100 C   0  0  0  0  0  0  0  0  0  0  0  0
   39.1930   30.4090   42.3320 C   0  0  0  0  0  0  0  0  0  0  0  0
   39.2200   31.4440   41.4640 N   0  0  0  0  0  0  0  0  0  0  0  0
   38.1810   31.7800   40.6790 C   0  0  0  0  0  0  0  0  0  0  0  0
   37.0220   31.0730   40.7240 N   0  0  0  0  0  0  0  0  0  0  0  0
   36.0060   29.5050   41.5690 H   0  0  0  0  0  0  0  0  0  0  0  0
   39.9790   30.0930   42.9770 H   0  0  0  0  0  0  0  0  0  0  0  0
   38.2350   32.6050   40.0040 H   0  0  0  0  0  0  0  0  0  0  0  0
   37.7760   28.4930   43.2810 C   0  0  0  0  0  0  0  0  0  0  0  0
   38.1340   28.6710   44.2860 H   0  0  0  0  0  0  0  0  0  0  0  0
   36.6760   28.2860   43.3490 H   0  0  0  0  0  0  0  0  0  0  0  0
   38.4640   27.2770   42.7210 C   0  0  0  0  0  3  0  0  0  0  0  0
   37.5200   26.1030   42.5500 C   0  0  0  0  0  2  0  0  0  0  0  0
   38.5200   25.0210   42.1740 C   0  0  0  0  0  2  0  0  0  0  0  0
   39.6100   25.2370   43.2050 C   0  0  0  0  0  2  0  0  0  0  0  0
   39.4660   26.6870   43.6800 C   0  0  0  0  0  2  0  0  0  0  0  0
  1  2  1  0  0  0  0
  2 10  1  0  0  0  0
  3  2  2  0  0  0  0
  3  8  1  0  0  0  0
  4  3  1  0  0  0  0
  5  6  1  0  0  0  0
  5  4  2  0  0  0  0
  6  1  2  0  0  0  0
  7  1  1  0  0  0  0
  9  5  1  0  0  0  0
 10 12  1  0  0  0  0
 10 11  1  0  0  0  0
 13 10  1  0  0  0  0
 13 17  1  0  0  0  0
 14 13  1  0  0  0  0
 15 14  1  0  0  0  0
 15 16  1  0  0  0  0
 16 17  1  0  0  0  0
M  END
>  <minimizedAffinity>
-3.8021338

$$$$

 OpenBabel03252504253D

 17 18  0  0  0  0  0  0  0  0999 V2000
   38.1900   27.5310   43.6760 C   0  0  0  0  0  0  0  0  0  0  0  0
   38.8990   26.8760   42.6780 C   0  0  0  0  0  0  0  0  0  0  0  0
   39.0820   27.5500   41.4680 C   0  0  0  0  0  0  0  0  0  0  0  0
   38.5560   28.7880   41.3490 N   0  0  0  0  0  0  0  0  0  0  0  0
   37.8720   29.4000   42.3330 C   0  0  0  0  0  0  0  0  0  0  0  0
   37.6720   28.7820   43.5250 N   0  0  0  0  0  0  0  0  0  0  0  0
   37.9890   27.1000   44.6560 H   0  0  0  0  0  0  0  0  0  0  0  0
   39.6310   27.0130   40.7300 H   0  0  0  0  0  0  0  0  0  0  0  0
   37.4700   30.3800   42.2060 H   0  0  0  0  0  0  0  0  0  0  0  0
   39.3840   25.5300   43.0200 C   0  0  0  0  0  0  0  0  0  0  0  0
   40.3880   25.3670   42.6530 H   0  0  0  0  0  0  0  0  0  0  0  0
   39.4100   25.4000   44.1340 H   0  0  0  0  0  0  0  0  0  0  0  0
   38.4690   24.4900   42.4310 C   0  0  0  0  0  3  0  0  0  0  0  0
   38.9170   24.0360   41.0550 C   0  0  0  0  0  2  0  0  0  0  0  0
   37.7260   23.1730   40.6680 C   0  0  0  0  0  2  0  0  0  0  0  0
   36.5620   24.0640   41.0560 C   0  0  0  0  0  2  0  0  0  0  0  0
   37.1030   25.0380   42.1080 C   0  0  0  0  0  2  0  0  0  0  0  0
  1  7  1  0  0  0  0
  2 10  1  0  0  0  0
  2  1  2  0  0  0  0
  3  2  1  0  0  0  0
  4  3  2  0  0  0  0
  4  5  1  0  0  0  0
  5  6  2  0  0  0  0
  6  1  1  0  0  0  0
  8  3  1  0  0  0  0
  9  5  1  0  0  0  0
 10 12  1  0  0  0  0
 11 10  1  0  0  0  0
 13 10  1  0  0  0  0
 14 13  1  0  0  0  0
 15 14  1  0  0  0  0
 15 16  1  0  0  0  0
 16 17  1  0  0  0  0
 17 13  1  0  0  0  0
M  END
>  <minimizedAffinity>
-3.78772259

$$$$

 OpenBabel03252504253D

 17 18  0  0  0  0  0  0  0  0999 V2000
   38.1390   29.5330   42.3650 C   0  0  0  0  0  0  0  0  0  0  0  0
   36.9140   29.1120   41.8660 C   0  0  0  0  0  0  0  0  0  0  0  0
   36.4860   27.8260   42.2060 C   0  0  0  0  0  0  0  0  0  0  0  0
   37.2920   27.0800   42.9920 N   0  0  0  0  0  0  0  0  0  0  0  0
   38.4770   27.5120   43.4620 C   0  0  0  0  0  0  0  0  0  0  0  0
   38.9290   28.7560   43.1570 N   0  0  0  0  0  0  0  0  0  0  0  0
   38.5680   30.5140   42.1640 H   0  0  0  0  0  0  0  0  0  0  0  0
   35.5420   27.5430   41.8040 H   0  0  0  0  0  0  0  0  0  0  0  0
   39.0890   26.8970   44.0820 H   0  0  0  0  0  0  0  0  0  0  0  0
   36.1990   30.0880   41.0280 C   0  0  0  0  0  0  0  0  0  0  0  0
   35.3340   29.6420   40.5550 H   0  0  0  0  0  0  0  0  0  0  0  0
   35.8330   30.9420   41.6560 H   0  0  0  0  0  0  0  0  0  0  0  0
   37.1200   30.6240   39.9660 C   0  0  0  0  0  3  0  0  0  0  0  0
   37.0540   32.1350   39.8500 C   0  0  0  0  0  2  0  0  0  0  0  0
   37.9110   32.3350   38.6100 C   0  0  0  0  0  2  0  0  0  0  0  0
   37.3580   31.2740   37.6790 C   0  0  0  0  0  2  0  0  0  0  0  0
   36.6950   30.2240   38.5770 C   0  0  0  0  0  2  0  0  0  0  0  0
  1  6  1  0  0  0  0
  2  3  1  0  0  0  0
  2  1  2  0  0  0  0
  3  4  2  0  0  0  0
  4  5  1  0  0  0  0
  5  9  1  0  0  0  0
  6  5  2  0  0  0  0
  7  1  1  0  0  0  0
  8  3  1  0  0  0  0
 10 12  1  0  0  0  0
 10  2  1  0  0  0  0
 11 10  1  0  0  0  0
 13 10  1  0  0  0  0
 14 13  1  0  0  0  0
 15 14  1  0  0  0  0
 16 17  1  0  0  0  0
 16 15  1  0  0  0  0
 17 13  1  0  0  0  0
M  END
>  <minimizedAffinity>
-3.78163433

$$$$
