
 OpenBabel03252507583D

 23 25  0  0  1  0  0  0  0  0999 V2000
   45.8960   32.3810   45.0790 C   0  0  1  0  0  0  0  0  0  0  0  0
   47.1490   32.4050   45.8980 C   0  0  0  0  0  0  0  0  0  0  0  0
   45.8600   32.8460   46.5010 C   0  0  2  0  0  0  0  0  0  0  0  0
   45.4940   31.3890   44.7980 H   0  0  0  0  0  0  0  0  0  0  0  0
   47.5580   31.4110   46.1620 H   0  0  0  0  0  0  0  0  0  0  0  0
   47.9070   33.1080   45.5340 H   0  0  0  0  0  0  0  0  0  0  0  0
   45.8000   33.9490   46.7090 H   0  0  0  0  0  0  0  0  0  0  0  0
   45.7870   34.2850   41.9420 C   0  0  0  0  0  0  0  0  0  0  0  0
   45.1730   35.4990   42.3260 C   0  0  0  0  0  0  0  0  0  0  0  0
   44.7910   35.6570   43.6810 C   0  0  0  0  0  0  0  0  0  0  0  0
   45.0430   34.6190   44.5250 N   0  0  0  0  0  0  0  0  0  0  0  0
   45.6380   33.4740   44.0840 C   0  0  0  0  0  0  0  0  0  0  0  0
   46.0040   33.3040   42.8220 N   0  0  0  0  0  0  0  0  0  0  0  0
   44.9750   36.3230   41.6520 H   0  0  0  0  0  0  0  0  0  0  0  0
   44.3180   36.5630   44.0340 H   0  0  0  0  0  0  0  0  0  0  0  0
   46.1340   34.2420   40.5640 C   0  0  0  0  0  0  0  0  0  0  0  0
   47.3120   34.3490   40.1020 O   0  0  0  0  0  0  0  0  0  0  0  0
   45.4800   34.1150   39.6880 H   0  0  0  0  0  0  0  0  0  0  0  0
   45.3340   31.9940   47.5990 C   0  0  0  0  0  3  0  0  0  0  0  0
   45.9020   32.3350   48.9550 C   0  0  0  0  0  2  0  0  0  0  0  0
   45.3990   31.1540   49.7910 C   0  0  0  0  0  2  0  0  0  0  0  0
   44.9850   30.0750   48.8240 C   0  0  0  0  0  2  0  0  0  0  0  0
   45.6140   30.5330   47.5000 C   0  0  0  0  0  2  0  0  0  0  0  0
  1  4  1  6  0  0  0
  1  2  1  0  0  0  0
  1  3  1  0  0  0  0
  2  5  1  0  0  0  0
  2  3  1  0  0  0  0
  3  7  1  1  0  0  0
  3 19  1  0  0  0  0
  6  2  1  0  0  0  0
  8  9  2  0  0  0  0
  8 13  1  0  0  0  0
  9 10  1  0  0  0  0
 10 15  1  0  0  0  0
 10 11  2  0  0  0  0
 12 11  1  0  0  0  0
 12  1  1  0  0  0  0
 13 12  2  0  0  0  0
 14  9  1  0  0  0  0
 16  8  1  0  0  0  0
 17 16  2  0  0  0  0
 18 16  1  0  0  0  0
 19 20  1  0  0  0  0
 20 21  1  0  0  0  0
 22 21  1  0  0  0  0
 23 19  1  0  0  0  0
 23 22  1  0  0  0  0
M  END
>  <minimizedAffinity>
-4.39095783

>  <minimizedRMSD>
1.59832871

$$$$
