
 OpenBabel03252505343D

 26 28  0  0  0  0  0  0  0  0999 V2000
   46.8960   34.9010   41.9660 C   0  0  0  0  0  0  0  0  0  0  0  0
   48.1090   35.5320   41.9340 C   0  0  0  0  0  0  0  0  0  0  0  0
   48.9840   35.5110   40.8580 C   0  0  0  0  0  0  0  0  0  0  0  0
   48.6020   34.7980   39.7250 C   0  0  0  0  0  0  0  0  0  0  0  0
   47.3790   34.1610   39.7550 C   0  0  0  0  0  0  0  0  0  0  0  0
   46.5280   34.2010   40.8450 C   0  0  0  0  0  0  0  0  0  0  0  0
   48.4690   36.1080   42.7880 H   0  0  0  0  0  0  0  0  0  0  0  0
   49.9340   36.0280   40.8850 H   0  0  0  0  0  0  0  0  0  0  0  0
   49.2860   34.7860   38.8910 H   0  0  0  0  0  0  0  0  0  0  0  0
   47.1250   33.6180   38.8480 H   0  0  0  0  0  0  0  0  0  0  0  0
   44.4710   36.0580   44.5900 C   0  0  0  0  0  0  0  0  0  0  0  0
   45.2080   36.0770   43.3800 C   0  0  0  0  0  0  0  0  0  0  0  0
   46.0850   35.0070   43.1580 C   0  0  0  0  0  0  0  0  0  0  0  0
   46.2020   34.0100   44.0810 N   0  0  0  0  0  0  0  0  0  0  0  0
   45.4580   34.0630   45.2240 C   0  0  0  0  0  0  0  0  0  0  0  0
   44.6020   35.0760   45.4750 N   0  0  0  0  0  0  0  0  0  0  0  0
   45.5770   33.0400   46.1980 N   0  0  0  0  0  0  0  0  0  0  0  0
   43.8230   36.9190   44.6740 H   0  0  0  0  0  0  0  0  0  0  0  0
   45.1490   36.8380   42.6250 H   0  0  0  0  0  0  0  0  0  0  0  0
   46.3880   33.1850   46.8400 H   0  0  0  0  0  0  0  0  0  0  0  0
   44.7760   32.3880   45.9920 H   0  0  0  0  0  0  0  0  0  0  0  0
   45.2210   33.4960   40.8240 C   0  0  0  0  0  3  0  0  0  0  0  0
   44.9620   32.8040   42.1670 C   0  0  0  0  0  2  0  0  0  0  0  0
   43.4400   32.7800   42.1540 C   0  0  0  0  0  2  0  0  0  0  0  0
   43.1740   34.2510   41.8190 C   0  0  0  0  0  2  0  0  0  0  0  0
   44.0480   34.3860   40.5830 C   0  0  0  0  0  2  0  0  0  0  0  0
  1 13  1  0  0  0  0
  2  1  1  0  0  0  0
  2  7  1  0  0  0  0
  3  8  1  0  0  0  0
  3  2  2  0  0  0  0
  4  5  2  0  0  0  0
  4  3  1  0  0  0  0
  5  6  1  0  0  0  0
  6  1  2  0  0  0  0
  9  4  1  0  0  0  0
 10  5  1  0  0  0  0
 11 18  1  0  0  0  0
 11 16  1  0  0  0  0
 12 11  2  0  0  0  0
 13 12  1  0  0  0  0
 13 14  2  0  0  0  0
 14 15  1  0  0  0  0
 15 16  2  0  0  0  0
 15 17  1  0  0  0  0
 17 20  1  0  0  0  0
 19 12  1  0  0  0  0
 21 17  1  0  0  0  0
 22  6  1  0  0  0  0
 22 23  1  0  0  0  0
 24 23  1  0  0  0  0
 25 24  1  0  0  0  0
 26 22  1  0  0  0  0
 26 25  1  0  0  0  0
M  END
>  <minimizedAffinity>
-5.82475567

>  <minimizedRMSD>
0.435236871

$$$$
