
     RDKit          3D

 30 32  0  0  0  0  0  0  0  0999 V2000
   44.6059   35.8863   44.3218 C   0  0  0  0  0  0  0  0  0  0  0  0
   45.3395   35.9438   43.0700 C   0  0  0  0  0  0  0  0  0  0  0  0
   46.2888   34.9338   43.0231 C   0  0  0  0  0  0  0  0  0  0  0  0
   46.4655   34.0240   44.0577 N   0  0  0  0  0  0  0  0  0  0  0  0
   45.7367   34.0483   45.1786 C   0  0  0  0  0  0  0  0  0  0  0  0
   44.7955   34.9904   45.3145 N   0  0  0  0  0  0  0  0  0  0  0  0
   47.0767   34.7924   41.7464 C   0  0  0  0  0  0  0  0  0  0  0  0
   48.4596   35.4592   41.8800 C   0  0  0  0  0  0  0  0  0  0  0  0
   48.2288   33.9357   41.7658 C   0  0  0  0  0  0  0  0  0  0  0  0
   43.8213   36.5968   44.5449 H   0  0  0  0  0  0  0  0  0  0  0  0
   46.0670   33.2465   45.8100 H   0  0  0  0  0  0  0  0  0  0  0  0
   46.6015   35.1119   40.8239 H   0  0  0  0  0  0  0  0  0  0  0  0
   48.9248   35.9303   41.0191 H   0  0  0  0  0  0  0  0  0  0  0  0
   48.7351   35.7940   42.8668 H   0  0  0  0  0  0  0  0  0  0  0  0
   48.4597   33.3329   42.6844 H   0  0  0  0  0  0  0  0  0  0  0  0
   48.6893   33.4622   40.8765 H   0  0  0  0  0  0  0  0  0  0  0  0
   45.0231   36.9250   42.0969 C   0  0  0  0  0  0  0  0  0  0  0  0
   45.5849   38.3049   42.1450 C   0  0  0  0  0  0  0  0  0  0  0  0
   44.6839   38.9824   41.1206 C   0  0  0  0  0  0  0  0  0  0  0  0
   44.1561   37.8946   40.2062 C   0  0  0  0  0  0  0  0  0  0  0  0
   44.9131   36.6190   40.6557 C   0  0  0  0  0  0  0  0  0  0  0  0
   43.9099   37.2002   42.3312 H   0  0  0  0  0  0  0  0  0  0  0  0
   46.5980   38.4082   41.7292 H   0  0  0  0  0  0  0  0  0  0  0  0
   45.5312   38.8052   43.1121 H   0  0  0  0  0  0  0  0  0  0  0  0
   45.2395   39.7631   40.5436 H   0  0  0  0  0  0  0  0  0  0  0  0
   43.8569   39.4400   41.7217 H   0  0  0  0  0  0  0  0  0  0  0  0
   43.0856   37.7328   40.4646 H   0  0  0  0  0  0  0  0  0  0  0  0
   44.3277   38.0865   39.1366 H   0  0  0  0  0  0  0  0  0  0  0  0
   44.2824   35.7266   40.4572 H   0  0  0  0  0  0  0  0  0  0  0  0
   45.7840   36.5969   40.0294 H   0  0  0  0  0  0  0  0  0  0  0  0
  1  6  2  0
  2  1  1  0
  3  2  2  0
  3  4  1  0
  4  5  2  0
  5  6  1  0
  7  8  1  0
  7  9  1  0
  7  3  1  0
  8  9  1  0
  1 10  1  0
  5 11  1  0
  7 12  1  0
  8 13  1  0
  8 14  1  0
  9 15  1  0
  9 16  1  0
 17 18  1  0
 18 19  1  0
 19 20  1  0
 20 21  1  0
 21 17  1  0
 17 22  1  0
 18 23  1  0
 18 24  1  0
 19 25  1  0
 19 26  1  0
 20 27  1  0
 20 28  1  0
 21 29  1  0
 21 30  1  0
  2 17  1  0
M  ISO  7  10  14  11  14  12  13  13  13  14  13  15  13  16  13
M  END
>  <DihAtoms>  (1) 
0,1,16,17

>  <DihDeg>  (1) 
114.37959357672285

$$$$
