
 OpenBabel03252509163D

 21 23  0  0  0  0  0  0  0  0999 V2000
   46.0360   33.2040   45.5610 C   0  0  0  0  0  0  0  0  0  0  0  0
   45.3440   33.5450   46.7570 C   0  0  0  0  0  0  0  0  0  0  0  0
   45.3450   32.6500   47.7770 C   0  0  0  0  0  0  0  0  0  0  0  0
   46.0360   31.4210   47.6010 C   0  0  0  0  0  0  0  0  0  0  0  0
   46.7160   31.5440   45.8980 S   0  0  0  0  0  0  0  0  0  0  0  0
   44.8410   34.4960   46.8230 H   0  0  0  0  0  0  0  0  0  0  0  0
   44.8600   32.8050   48.7040 H   0  0  0  0  0  0  0  0  0  0  0  0
   45.4300   35.6930   42.8770 C   0  0  0  0  0  0  0  0  0  0  0  0
   46.6130   35.5070   42.1150 C   0  0  0  0  0  0  0  0  0  0  0  0
   47.5490   34.5560   42.5440 C   0  0  0  0  0  0  0  0  0  0  0  0
   47.2580   33.8580   43.6880 N   0  0  0  0  0  0  0  0  0  0  0  0
   46.1170   34.0720   44.3790 C   0  0  0  0  0  0  0  0  0  0  0  0
   45.1990   34.9860   43.9820 N   0  0  0  0  0  0  0  0  0  0  0  0
   44.7140   36.4290   42.5390 H   0  0  0  0  0  0  0  0  0  0  0  0
   46.8310   36.0580   41.2230 H   0  0  0  0  0  0  0  0  0  0  0  0
   48.4720   34.3570   42.0180 H   0  0  0  0  0  0  0  0  0  0  0  0
   46.2450   30.2930   48.4210 C   0  0  0  0  0  3  0  0  0  0  0  0
   45.0540   29.4360   48.7420 C   0  0  0  0  0  2  0  0  0  0  0  0
   44.9940   28.4340   47.6480 C   0  0  0  0  0  2  0  0  0  0  0  0
   46.4400   28.1460   47.3260 C   0  0  0  0  0  2  0  0  0  0  0  0
   47.2230   29.3290   47.8060 C   0  0  0  0  0  2  0  0  0  0  0  0
  1  5  1  0  0  0  0
  1  2  2  0  0  0  0
  2  6  1  0  0  0  0
  2  3  1  0  0  0  0
  3  7  1  0  0  0  0
  4  3  2  0  0  0  0
  4 17  1  0  0  0  0
  5  4  1  0  0  0  0
  8 13  1  0  0  0  0
  9 10  1  0  0  0  0
  9  8  2  0  0  0  0
 10 11  2  0  0  0  0
 11 12  1  0  0  0  0
 12  1  1  0  0  0  0
 13 12  2  0  0  0  0
 14  8  1  0  0  0  0
 15  9  1  0  0  0  0
 16 10  1  0  0  0  0
 17 18  1  0  0  0  0
 19 18  1  0  0  0  0
 20 19  1  0  0  0  0
 20 21  1  0  0  0  0
 21 17  1  0  0  0  0
M  END
>  <minimizedAffinity>
-4.0220623

>  <minimizedRMSD>
2.49604964

$$$$
