
     RDKit          3D

 39 41  0  0  0  0  0  0  0  0999 V2000
   46.8450   34.8848   42.7106 C   0  0  0  0  0  0  0  0  0  0  0  0
   48.0542   34.5559   42.0812 C   0  0  0  0  0  0  0  0  0  0  0  0
   48.7680   33.4616   42.5960 C   0  0  0  0  0  0  0  0  0  0  0  0
   48.2353   32.8040   43.6633 N   0  0  0  0  0  0  0  0  0  0  0  0
   47.0828   33.1457   44.2354 C   0  0  0  0  0  0  0  0  0  0  0  0
   46.3897   34.1880   43.7556 N   0  0  0  0  0  0  0  0  0  0  0  0
   46.0023   30.3672   43.5962 Cl  0  0  0  0  0  0  0  0  0  0  0  0
   46.0621   31.1256   45.1883 C   0  0  0  0  0  0  0  0  0  0  0  0
   46.5719   32.3935   45.3788 C   0  0  0  0  0  0  0  0  0  0  0  0
   46.6049   32.9592   46.6363 C   0  0  0  0  0  0  0  0  0  0  0  0
   46.1228   32.2540   47.7264 C   0  0  0  0  0  0  0  0  0  0  0  0
   45.6243   30.9969   47.4955 C   0  0  0  0  0  0  0  0  0  0  0  0
   45.0152   30.1070   48.8766 Cl  0  0  0  0  0  0  0  0  0  0  0  0
   45.5754   30.4040   46.2645 C   0  0  0  0  0  0  0  0  0  0  0  0
   48.5274   35.3321   40.9443 C   0  0  0  0  0  0  0  0  0  0  0  0
   48.1188   34.5905   39.6742 C   0  0  0  0  0  0  0  0  0  0  0  0
   46.2345   35.7173   42.3722 H   0  0  0  0  0  0  0  0  0  0  0  0
   49.7012   33.1648   42.1525 H   0  0  0  0  0  0  0  0  0  0  0  0
   47.0025   33.9573   46.8088 H   0  0  0  0  0  0  0  0  0  0  0  0
   46.1512   32.7026   48.7106 H   0  0  0  0  0  0  0  0  0  0  0  0
   45.1793   29.4181   46.1140 H   0  0  0  0  0  0  0  0  0  0  0  0
   48.0795   36.3333   40.9844 H   0  0  0  0  0  0  0  0  0  0  0  0
   49.6294   35.4328   40.9073 H   0  0  0  0  0  0  0  0  0  0  0  0
   48.4506   33.5524   39.6869 H   0  0  0  0  0  0  0  0  0  0  0  0
   47.0121   34.5624   39.5999 H   0  0  0  0  0  0  0  0  0  0  0  0
   48.6108   35.3992   38.5069 C   0  0  0  0  0  0  0  0  0  0  0  0
   48.6050   34.6337   37.2008 C   0  0  0  0  0  0  0  0  0  0  0  0
   48.8700   35.7777   36.2126 C   0  0  0  0  0  0  0  0  0  0  0  0
   47.9748   36.8637   36.7249 C   0  0  0  0  0  0  0  0  0  0  0  0
   47.7030   36.5615   38.1822 C   0  0  0  0  0  0  0  0  0  0  0  0
   49.6176   35.7722   38.7338 H   0  0  0  0  0  0  0  0  0  0  0  0
   47.5899   34.2727   37.0360 H   0  0  0  0  0  0  0  0  0  0  0  0
   49.4023   33.8682   37.1338 H   0  0  0  0  0  0  0  0  0  0  0  0
   48.6253   35.4620   35.1794 H   0  0  0  0  0  0  0  0  0  0  0  0
   49.9480   36.0234   36.3101 H   0  0  0  0  0  0  0  0  0  0  0  0
   47.0697   36.9063   36.0998 H   0  0  0  0  0  0  0  0  0  0  0  0
   48.5499   37.8321   36.6527 H   0  0  0  0  0  0  0  0  0  0  0  0
   48.0029   37.4347   38.8115 H   0  0  0  0  0  0  0  0  0  0  0  0
   46.6278   36.2753   38.3335 H   0  0  0  0  0  0  0  0  0  0  0  0
  1  6  2  0
  2  3  2  0
  2  1  1  0
  3  4  1  0
  4  5  2  0
  5  9  1  0
  6  5  1  0
  7  8  1  0
  8  9  2  0
  8 14  1  0
  9 10  1  0
 10 11  2  0
 12 11  1  0
 12 13  1  0
 14 12  2  0
 15  2  1  0
 16 15  1  0
  1 17  1  0
  3 18  1  0
 10 19  1  0
 11 20  1  0
 14 21  1  0
 15 22  1  0
 15 23  1  0
 16 24  1  0
 16 25  1  0
 26 27  1  0
 27 28  1  0
 28 29  1  0
 29 30  1  0
 30 26  1  0
 26 31  1  0
 27 32  1  0
 27 33  1  0
 28 34  1  0
 28 35  1  0
 29 36  1  0
 29 37  1  0
 30 38  1  0
 30 39  1  0
 16 26  1  0
M  ISO  8  17  14  18  14  19  14  20  14  21  14  22   8  23   8  24   8
M  ISO  1  25   8
M  END
>  <DihAtoms>  (1) 
14,15,25,26

>  <DihDeg>  (1) 
60.006915845126876

$$$$
