REMARK  Name = 
REMARK  3 active torsions:
REMARK  status: ('A' for Active; 'I' for Inactive)
REMARK    1  A    between atoms: C_1  and  C_18
REMARK    2  A    between atoms: C_3  and  C_4
REMARK    3  A    between atoms: C_16  and  C_33
REMARK                            x       y       z     vdW  Elec       q    Type
REMARK                         _______ _______ _______ _____ _____    ______ ____
ROOT
ATOM      1  C   UNL     1      46.383  32.667  45.863  0.00  0.00    +0.000 C 
ATOM      2  C   UNL     1      46.973  32.834  47.200  0.00  0.00    +0.000 C 
ATOM      3  C   UNL     1      45.546  32.205  46.952  0.00  0.00    +0.000 C 
ATOM      4  H   UNL     1      47.141  32.028  45.284  0.00  0.00    +0.000 HD
ATOM      5  H   UNL     1      46.976  33.797  47.727  0.00  0.00    +0.000 HD
ATOM      6  H   UNL     1      47.611  32.077  47.690  0.00  0.00    +0.000 HD
ATOM      7  H   UNL     1      44.868  32.885  47.561  0.00  0.00    +0.000 HD
ENDROOT
BRANCH   3   8
ATOM      8  C   UNL     1      45.299  30.804  47.300  0.00  0.00    +0.000 A 
ATOM      9  C   UNL     1      45.170  30.269  48.543  0.00  0.00    +0.000 A 
ATOM     10  C   UNL     1      45.067  28.915  48.840  0.00  0.00    +0.000 A 
ATOM     11  C   UNL     1      45.102  28.034  47.748  0.00  0.00    +0.000 A 
ATOM     12  C   UNL     1      45.231  28.560  46.462  0.00  0.00    +0.000 A 
ATOM     13  C   UNL     1      45.198  27.654  45.420  0.00  0.00    +0.000 A 
ATOM     14  C   UNL     1      45.253  28.132  44.111  0.00  0.00    +0.000 A 
ATOM     15  C   UNL     1      45.335  29.487  43.861  0.00  0.00    +0.000 A 
ATOM     16  C   UNL     1      45.366  30.339  44.939  0.00  0.00    +0.000 A 
ATOM     17  C   UNL     1      45.323  29.912  46.257  0.00  0.00    +0.000 A 
ATOM     18  H   UNL     1      45.148  30.994  49.359  0.00  0.00    +0.000 HD
ATOM     19  H   UNL     1      44.966  28.573  49.864  0.00  0.00    +0.000 HD
ATOM     20  H   UNL     1      45.026  26.984  47.980  0.00  0.00    +0.000 HD
ATOM     21  H   UNL     1      45.130  26.590  45.642  0.00  0.00    +0.000 HD
ATOM     22  H   UNL     1      45.222  27.326  43.364  0.00  0.00    +0.000 HD
ATOM     23  H   UNL     1      45.363  29.653  42.813  0.00  0.00    +0.000 HD
ATOM     24  H   UNL     1      45.343  31.297  44.503  0.00  0.00    +0.000 HD
ENDBRANCH   3   8
BRANCH   1  29
ATOM     25  C   UNL     1      44.608  35.739  44.840  0.00  0.00    +0.000 A 
ATOM     26  C   UNL     1      45.144  35.971  43.524  0.00  0.00    +0.000 A 
ATOM     27  C   UNL     1      46.123  35.052  43.034  0.00  0.00    +0.000 A 
ATOM     28  N   UNL     1      46.500  34.025  43.806  0.00  0.00    +0.000 NA
ATOM     29  C   UNL     1      45.953  33.849  45.060  0.00  0.00    +0.000 A 
ATOM     30  N   UNL     1      45.041  34.679  45.556  0.00  0.00    +0.000 NA
ATOM     31  H   UNL     1      43.871  36.453  45.178  0.00  0.00    +0.000 HD
ATOM     32  H   UNL     1      44.840  36.789  42.915  0.00  0.00    +0.000 HD
BRANCH  27  33
ATOM     33  C   UNL     1      46.724  35.216  41.697  0.00  0.00    +0.000 C 
ATOM     34  C   UNL     1      47.950  34.347  41.511  0.00  0.00    +0.000 C 
ATOM     35  C   UNL     1      47.696  33.504  40.293  0.00  0.00    +0.000 C 
ATOM     36  C   UNL     1      46.677  34.285  39.508  0.00  0.00    +0.000 C 
ATOM     37  C   UNL     1      45.769  34.814  40.578  0.00  0.00    +0.000 C 
ENDBRANCH  27  33
ENDBRANCH   1  29
TORSDOF 3
