
     RDKit          3D

 33 35  0  0  0  0  0  0  0  0999 V2000
   45.5293   34.1555   44.4148 C   0  0  0  0  0  0  0  0  0  0  0  0
   46.5094   33.6122   43.5440 C   0  0  0  0  0  0  0  0  0  0  0  0
   47.4019   32.6822   44.0626 C   0  0  0  0  0  0  0  0  0  0  0  0
   47.2923   32.3401   45.3760 N   0  0  0  0  0  0  0  0  0  0  0  0
   46.3417   32.8832   46.1745 C   0  0  0  0  0  0  0  0  0  0  0  0
   45.4640   33.7915   45.6809 N   0  0  0  0  0  0  0  0  0  0  0  0
   46.3939   32.3861   47.5878 C   0  0  0  0  0  0  0  0  0  0  0  0
   45.3868   32.9168   48.3561 F   0  0  0  0  0  0  0  0  0  0  0  0
   47.6183   32.7379   48.1633 F   0  0  0  0  0  0  0  0  0  0  0  0
   46.3690   30.9971   47.5712 F   0  0  0  0  0  0  0  0  0  0  0  0
   44.5613   35.1594   43.9031 C   0  0  1  0  0  0  0  0  0  0  0  0
   44.9032   36.6107   44.3049 C   0  0  0  0  0  0  0  0  0  0  0  0
   44.9469   36.1443   42.8888 C   0  0  2  0  0  0  0  0  0  0  0  0
   46.5395   33.9247   42.5258 H   0  0  0  0  0  0  0  0  0  0  0  0
   48.1685   32.2352   43.4458 H   0  0  0  0  0  0  0  0  0  0  0  0
   43.5166   34.8825   44.1742 H   0  0  0  0  0  0  0  0  0  0  0  0
   45.8774   36.7853   44.7830 H   0  0  0  0  0  0  0  0  0  0  0  0
   44.0666   37.2730   44.5630 H   0  0  0  0  0  0  0  0  0  0  0  0
   45.9715   35.9582   42.4385 H   0  0  0  0  0  0  0  0  0  0  0  0
   43.9172   36.4724   41.8727 C   0  0  0  0  0  0  0  0  0  0  0  0
   44.4753   36.4992   40.4758 C   0  0  0  0  0  0  0  0  0  0  0  0
   43.1799   36.5204   39.6596 C   0  0  0  0  0  0  0  0  0  0  0  0
   42.4619   35.3334   40.3002 C   0  0  0  0  0  0  0  0  0  0  0  0
   42.7713   35.5017   41.7785 C   0  0  0  0  0  0  0  0  0  0  0  0
   43.5183   37.4880   42.1068 H   0  0  0  0  0  0  0  0  0  0  0  0
   44.9322   35.5078   40.2148 H   0  0  0  0  0  0  0  0  0  0  0  0
   45.1239   37.3563   40.2785 H   0  0  0  0  0  0  0  0  0  0  0  0
   43.3572   36.3510   38.5914 H   0  0  0  0  0  0  0  0  0  0  0  0
   42.6811   37.4734   39.9010 H   0  0  0  0  0  0  0  0  0  0  0  0
   41.3796   35.3558   40.0768 H   0  0  0  0  0  0  0  0  0  0  0  0
   42.9440   34.4103   39.9210 H   0  0  0  0  0  0  0  0  0  0  0  0
   41.8683   35.9297   42.2516 H   0  0  0  0  0  0  0  0  0  0  0  0
   43.0159   34.5297   42.2074 H   0  0  0  0  0  0  0  0  0  0  0  0
  1  6  2  0
  2  3  2  0
  2  1  1  0
  3  4  1  0
  4  5  2  0
  5  7  1  0
  6  5  1  0
  7  9  1  0
  7  8  1  0
 10  7  1  0
 11 12  1  0
 11  1  1  0
 13 11  1  0
 13 12  1  0
  2 14  1  0
  3 15  1  0
 11 16  1  6
 12 17  1  0
 12 18  1  0
 13 19  1  6
 20 21  1  0
 21 22  1  0
 22 23  1  0
 23 24  1  0
 24 20  1  0
 20 25  1  0
 21 26  1  0
 21 27  1  0
 22 28  1  0
 22 29  1  0
 23 30  1  0
 23 31  1  0
 24 32  1  0
 24 33  1  0
 13 20  1  0
M  ISO  6  14  14  15  14  16  13  17  13  18  13  19  13
M  END
>  <DihAtoms>  (1) 
10,12,19,20

>  <DihDeg>  (1) 
60.27050932620724

$$$$
