
 OpenBabel03252509293D

 17 18  0  0  0  0  0  0  0  0999 V2000
   44.7460   36.0250   44.0060 C   0  0  0  0  0  0  0  0  0  0  0  0
   45.7430   35.5680   43.1080 C   0  0  0  0  0  0  0  0  0  0  0  0
   46.4850   34.4550   43.5060 C   0  0  0  0  0  0  0  0  0  0  0  0
   46.2220   33.8700   44.7190 N   0  0  0  0  0  0  0  0  0  0  0  0
   45.2510   34.3600   45.5310 C   0  0  0  0  0  0  0  0  0  0  0  0
   44.5230   35.4230   45.1810 N   0  0  0  0  0  0  0  0  0  0  0  0
   44.1560   36.8810   43.7310 H   0  0  0  0  0  0  0  0  0  0  0  0
   45.9010   36.0750   42.1660 H   0  0  0  0  0  0  0  0  0  0  0  0
   45.1350   33.8180   46.4600 H   0  0  0  0  0  0  0  0  0  0  0  0
   47.5160   33.9720   42.5900 C   0  0  0  0  0  0  0  0  0  0  0  0
   47.6690   32.8880   42.7030 H   0  0  0  0  0  0  0  0  0  0  0  0
   48.4590   34.5620   42.7150 H   0  0  0  0  0  0  0  0  0  0  0  0
   47.0280   34.2570   41.1850 C   0  0  0  0  0  3  0  0  0  0  0  0
   48.1440   34.7780   40.3160 C   0  0  0  0  0  2  0  0  0  0  0  0
   48.1050   33.9780   39.0260 C   0  0  0  0  0  2  0  0  0  0  0  0
   46.6470   33.4980   39.0210 C   0  0  0  0  0  2  0  0  0  0  0  0
   46.5750   33.0270   40.4650 C   0  0  0  0  0  2  0  0  0  0  0  0
  1  6  1  0  0  0  0
  2  3  1  0  0  0  0
  2  1  2  0  0  0  0
  3  4  2  0  0  0  0
  4  5  1  0  0  0  0
  5  9  1  0  0  0  0
  6  5  2  0  0  0  0
  7  1  1  0  0  0  0
  8  2  1  0  0  0  0
 10 11  1  0  0  0  0
 10 12  1  0  0  0  0
 10  3  1  0  0  0  0
 13 10  1  0  0  0  0
 14 13  1  0  0  0  0
 15 14  1  0  0  0  0
 16 15  1  0  0  0  0
 16 17  1  0  0  0  0
 17 13  1  0  0  0  0
M  END
>  <minimizedAffinity>
-3.9994936

>  <minimizedRMSD>
2.35941982

$$$$
