
 OpenBabel03252509303D

 17 18  0  0  0  0  0  0  0  0999 V2000
   44.4200   35.9400   44.8550 C   0  0  0  0  0  0  0  0  0  0  0  0
   44.6710   35.7340   43.4750 C   0  0  0  0  0  0  0  0  0  0  0  0
   45.3110   34.5460   43.1220 C   0  0  0  0  0  0  0  0  0  0  0  0
   45.6590   33.6520   44.1040 N   0  0  0  0  0  0  0  0  0  0  0  0
   45.3880   33.9130   45.4090 C   0  0  0  0  0  0  0  0  0  0  0  0
   44.7780   35.0400   45.7810 N   0  0  0  0  0  0  0  0  0  0  0  0
   43.9290   36.8450   45.1620 H   0  0  0  0  0  0  0  0  0  0  0  0
   44.3710   36.4790   42.7510 H   0  0  0  0  0  0  0  0  0  0  0  0
   45.7090   33.1370   46.0910 H   0  0  0  0  0  0  0  0  0  0  0  0
   45.5760   34.3200   41.7030 C   0  0  0  0  0  0  0  0  0  0  0  0
   45.2110   35.1610   41.0940 H   0  0  0  0  0  0  0  0  0  0  0  0
   45.1600   33.3320   41.3790 H   0  0  0  0  0  0  0  0  0  0  0  0
   47.0780   34.2120   41.5460 C   0  0  0  0  0  3  0  0  0  0  0  0
   47.4700   34.1490   40.0920 C   0  0  0  0  0  2  0  0  0  0  0  0
   48.5900   35.1560   39.8960 C   0  0  0  0  0  2  0  0  0  0  0  0
   49.1350   35.2720   41.3270 C   0  0  0  0  0  2  0  0  0  0  0  0
   47.8040   35.4180   42.0490 C   0  0  0  0  0  2  0  0  0  0  0  0
  1  7  1  0  0  0  0
  1  6  1  0  0  0  0
  2  1  2  0  0  0  0
  3  2  1  0  0  0  0
  3  4  2  0  0  0  0
  4  5  1  0  0  0  0
  5  6  2  0  0  0  0
  5  9  1  0  0  0  0
  8  2  1  0  0  0  0
 10  3  1  0  0  0  0
 11 10  1  0  0  0  0
 12 10  1  0  0  0  0
 13 10  1  0  0  0  0
 13 17  1  0  0  0  0
 14 13  1  0  0  0  0
 15 14  1  0  0  0  0
 15 16  1  0  0  0  0
 16 17  1  0  0  0  0
M  END
>  <minimizedAffinity>
-4.21263075

>  <minimizedRMSD>
2.47942567

$$$$
