
 OpenBabel03242521053D

 30 33  0  0  1  0  0  0  0  0999 V2000
   46.7240   34.7590   42.1080 C   0  0  0  0  0  0  0  0  0  0  0  0
   47.9310   35.3910   41.8690 C   0  0  0  0  0  0  0  0  0  0  0  0
   48.6660   35.2710   40.7160 C   0  0  0  0  0  0  0  0  0  0  0  0
   48.1780   34.4590   39.7070 C   0  0  0  0  0  0  0  0  0  0  0  0
   46.9880   33.8480   39.9660 C   0  0  0  0  0  0  0  0  0  0  0  0
   46.3030   33.9900   41.1010 N   0  0  0  0  0  0  0  0  0  0  0  0
   48.3400   36.0390   42.6490 H   0  0  0  0  0  0  0  0  0  0  0  0
   49.6030   35.8060   40.6180 H   0  0  0  0  0  0  0  0  0  0  0  0
   48.7860   34.3970   38.8280 H   0  0  0  0  0  0  0  0  0  0  0  0
   44.4570   35.9480   44.8710 C   0  0  0  0  0  0  0  0  0  0  0  0
   45.0930   35.9440   43.6210 C   0  0  0  0  0  0  0  0  0  0  0  0
   45.9770   34.9180   43.3530 C   0  0  0  0  0  0  0  0  0  0  0  0
   46.1860   33.9700   44.3070 N   0  0  0  0  0  0  0  0  0  0  0  0
   45.5610   33.9910   45.5080 C   0  0  0  0  0  0  0  0  0  0  0  0
   44.6950   34.9970   45.7700 N   0  0  0  0  0  0  0  0  0  0  0  0
   43.7590   36.7670   45.0700 H   0  0  0  0  0  0  0  0  0  0  0  0
   44.9430   36.6860   42.8480 H   0  0  0  0  0  0  0  0  0  0  0  0
   45.8050   33.1830   46.1910 H   0  0  0  0  0  0  0  0  0  0  0  0
   46.4420   32.9690   38.8950 C   0  0  2  0  0  0  0  0  0  0  0  0
   47.4370   32.2180   38.0790 C   0  0  0  0  0  0  0  0  0  0  0  0
   46.6260   33.3310   37.4970 C   0  0  1  0  0  0  0  0  0  0  0  0
   45.5460   32.3400   39.1630 H   0  0  0  0  0  0  0  0  0  0  0  0
   48.5220   32.3670   38.2190 H   0  0  0  0  0  0  0  0  0  0  0  0
   47.2060   31.2130   37.6780 H   0  0  0  0  0  0  0  0  0  0  0  0
   47.2010   34.2630   37.2730 H   0  0  0  0  0  0  0  0  0  0  0  0
   45.4630   33.0600   36.5730 C   0  0  0  0  0  0  0  0  0  0  0  0
   44.4130   32.1940   37.1930 C   0  0  0  0  0  0  0  0  0  0  0  0
   44.2790   30.9690   36.3180 C   0  0  0  0  0  0  0  0  0  0  0  0
   44.9510   31.3160   35.0220 C   0  0  0  0  0  0  0  0  0  0  0  0
   46.0520   32.2420   35.4180 C   0  0  0  0  0  0  0  0  0  0  0  0
  1 12  1  0  0  0  0
  2  1  1  0  0  0  0
  2  7  1  0  0  0  0
  3  2  2  0  0  0  0
  4  5  2  0  0  0  0
  4  3  1  0  0  0  0
  5  6  1  0  0  0  0
  6  1  2  0  0  0  0
  8  3  1  0  0  0  0
  9  4  1  0  0  0  0
 10 16  1  0  0  0  0
 10 15  1  0  0  0  0
 11 10  2  0  0  0  0
 12 11  1  0  0  0  0
 12 13  2  0  0  0  0
 13 14  1  0  0  0  0
 14 15  2  0  0  0  0
 14 18  1  0  0  0  0
 17 11  1  0  0  0  0
 19 22  1  1  0  0  0
 19  5  1  0  0  0  0
 20 23  1  0  0  0  0
 20 19  1  0  0  0  0
 21 25  1  6  0  0  0
 21 20  1  0  0  0  0
 21 19  1  0  0  0  0
 24 20  1  0  0  0  0
 26 27  1  0  0  0  0
 26 21  1  0  0  0  0
 28 27  1  0  0  0  0
 29 30  1  0  0  0  0
 29 28  1  0  0  0  0
 30 26  1  0  0  0  0
M  END
>  <minimizedAffinity>
-5.58480597

>  <minimizedRMSD>
0.833451688

$$$$
