
 OpenBabel03252504243D

 17 18  0  0  0  0  0  0  0  0999 V2000
   44.5500   35.5940   44.9240 C   0  0  0  0  0  0  0  0  0  0  0  0
   45.2470   35.4440   43.7330 C   0  0  0  0  0  0  0  0  0  0  0  0
   46.1590   34.3890   43.6470 C   0  0  0  0  0  0  0  0  0  0  0  0
   46.3020   33.5890   44.7260 N   0  0  0  0  0  0  0  0  0  0  0  0
   45.6130   33.7560   45.8690 C   0  0  0  0  0  0  0  0  0  0  0  0
   44.7160   34.7680   45.9950 N   0  0  0  0  0  0  0  0  0  0  0  0
   43.8170   36.3800   45.1010 H   0  0  0  0  0  0  0  0  0  0  0  0
   46.6720   34.3100   42.7180 H   0  0  0  0  0  0  0  0  0  0  0  0
   45.7500   33.1040   46.7030 H   0  0  0  0  0  0  0  0  0  0  0  0
   44.9360   36.4300   42.6860 C   0  0  0  0  0  0  0  0  0  0  0  0
   44.3510   37.2500   43.0780 H   0  0  0  0  0  0  0  0  0  0  0  0
   45.8830   36.8630   42.2690 H   0  0  0  0  0  0  0  0  0  0  0  0
   44.1720   35.7690   41.5700 C   0  0  0  0  0  3  0  0  0  0  0  0
   42.8600   35.1720   42.0410 C   0  0  0  0  0  2  0  0  0  0  0  0
   42.4440   34.4370   40.7760 C   0  0  0  0  0  2  0  0  0  0  0  0
   43.7330   33.7390   40.3870 C   0  0  0  0  0  2  0  0  0  0  0  0
   44.8630   34.5350   41.0500 C   0  0  0  0  0  2  0  0  0  0  0  0
  1  7  1  0  0  0  0
  1  6  1  0  0  0  0
  2  1  2  0  0  0  0
  3  2  1  0  0  0  0
  3  4  2  0  0  0  0
  4  5  1  0  0  0  0
  5  6  2  0  0  0  0
  5  9  1  0  0  0  0
  8  3  1  0  0  0  0
 10 11  1  0  0  0  0
 10  2  1  0  0  0  0
 12 10  1  0  0  0  0
 13 14  1  0  0  0  0
 13 10  1  0  0  0  0
 15 14  1  0  0  0  0
 16 15  1  0  0  0  0
 16 17  1  0  0  0  0
 17 13  1  0  0  0  0
M  END
>  <minimizedAffinity>
-3.73968077

>  <minimizedRMSD>
1.41078591

$$$$
