
 OpenBabel03242517093D

 30 32  0  0  1  0  0  0  0  0999 V2000
   36.4610   30.4870   40.2620 C   0  0  2  0  0  0  0  0  0  0  0  0
   36.6890   29.8900   38.9270 C   0  0  2  0  0  0  0  0  0  0  0  0
   37.7800   30.5700   38.1490 C   0  0  0  0  0  0  0  0  0  0  0  0
   37.6300   32.0710   38.0540 C   0  0  0  0  0  0  0  0  0  0  0  0
   37.1460   32.7140   39.3220 C   0  0  0  0  0  0  0  0  0  0  0  0
   37.2380   31.7730   40.4990 C   0  0  0  0  0  0  0  0  0  0  0  0
   35.3900   30.7650   40.4770 H   0  0  0  0  0  0  0  0  0  0  0  0
   37.0690   28.8380   39.0730 H   0  0  0  0  0  0  0  0  0  0  0  0
   38.7970   30.3260   38.4230 H   0  0  0  0  0  0  0  0  0  0  0  0
   37.6640   30.1940   37.0890 H   0  0  0  0  0  0  0  0  0  0  0  0
   37.0160   32.3530   37.1810 H   0  0  0  0  0  0  0  0  0  0  0  0
   38.6420   32.4910   37.8340 H   0  0  0  0  0  0  0  0  0  0  0  0
   37.7730   33.5990   39.6120 H   0  0  0  0  0  0  0  0  0  0  0  0
   36.1000   33.0650   39.2390 H   0  0  0  0  0  0  0  0  0  0  0  0
   38.2990   31.4800   40.6280 H   0  0  0  0  0  0  0  0  0  0  0  0
   36.8710   32.2810   41.3920 H   0  0  0  0  0  0  0  0  0  0  0  0
   36.8340   29.5600   41.3490 C   0  0  0  0  0  0  0  0  0  0  0  0
   37.9880   29.9190   42.0950 C   0  0  0  0  0  0  0  0  0  0  0  0
   38.4280   29.1020   43.1410 C   0  0  0  0  0  0  0  0  0  0  0  0
   37.6850   27.9650   43.3810 N   0  0  0  0  0  0  0  0  0  0  0  0
   36.5940   27.6500   42.6570 C   0  0  0  0  0  0  0  0  0  0  0  0
   36.1690   28.4430   41.6460 N   0  0  0  0  0  0  0  0  0  0  0  0
   38.6090   30.7780   41.9700 H   0  0  0  0  0  0  0  0  0  0  0  0
   39.2940   29.3170   43.7430 H   0  0  0  0  0  0  0  0  0  0  0  0
   36.1130   26.7360   42.9560 H   0  0  0  0  0  0  0  0  0  0  0  0
   35.4480   29.6560   38.1030 C   0  0  0  0  0  3  0  0  0  0  0  0
   35.8850   29.0890   36.7690 C   0  0  0  0  0  2  0  0  0  0  0  0
   34.5680   28.6740   36.1680 C   0  0  0  0  0  2  0  0  0  0  0  0
   33.7220   28.2680   37.3320 C   0  0  0  0  0  2  0  0  0  0  0  0
   34.4860   28.6690   38.6000 C   0  0  0  0  0  2  0  0  0  0  0  0
  1  7  1  1  0  0  0
  1  6  1  0  0  0  0
  1 17  1  0  0  0  0
  2  8  1  1  0  0  0
  2  1  1  0  0  0  0
  3  9  1  0  0  0  0
  3  2  1  0  0  0  0
  4  3  1  0  0  0  0
  4  5  1  0  0  0  0
  5 13  1  0  0  0  0
  5  6  1  0  0  0  0
  6 15  1  0  0  0  0
  6 16  1  0  0  0  0
 10  3  1  0  0  0  0
 11  4  1  0  0  0  0
 12  4  1  0  0  0  0
 14  5  1  0  0  0  0
 17 22  2  0  0  0  0
 17 18  1  0  0  0  0
 18 19  2  0  0  0  0
 19 20  1  0  0  0  0
 19 24  1  0  0  0  0
 21 25  1  0  0  0  0
 21 20  2  0  0  0  0
 22 21  1  0  0  0  0
 23 18  1  0  0  0  0
 26 30  1  0  0  0  0
 26  2  1  0  0  0  0
 27 26  1  0  0  0  0
 28 27  1  0  0  0  0
 28 29  1  0  0  0  0
 29 30  1  0  0  0  0
M  END
>  <minimizedAffinity>
-5.18482494

$$$$

 OpenBabel03242517093D

 30 32  0  0  1  0  0  0  0  0999 V2000
   36.9180   28.5260   39.9160 C   0  0  2  0  0  0  0  0  0  0  0  0
   35.9530   29.6380   40.0590 C   0  0  2  0  0  0  0  0  0  0  0  0
   34.5360   29.2400   39.7560 C   0  0  0  0  0  0  0  0  0  0  0  0
   34.3610   28.5350   38.4300 C   0  0  0  0  0  0  0  0  0  0  0  0
   35.4620   27.5680   38.1070 C   0  0  0  0  0  0  0  0  0  0  0  0
   36.3160   27.2650   39.3140 C   0  0  0  0  0  0  0  0  0  0  0  0
   37.8050   28.7520   39.2580 H   0  0  0  0  0  0  0  0  0  0  0  0
   35.9270   29.9440   41.1440 H   0  0  0  0  0  0  0  0  0  0  0  0
   34.0080   28.6940   40.5260 H   0  0  0  0  0  0  0  0  0  0  0  0
   33.9730   30.2150   39.6490 H   0  0  0  0  0  0  0  0  0  0  0  0
   34.1890   29.2610   37.6160 H   0  0  0  0  0  0  0  0  0  0  0  0
   33.4100   27.9490   38.4900 H   0  0  0  0  0  0  0  0  0  0  0  0
   35.0640   26.5700   37.7790 H   0  0  0  0  0  0  0  0  0  0  0  0
   36.1210   27.9400   37.3000 H   0  0  0  0  0  0  0  0  0  0  0  0
   35.6670   26.8220   40.0970 H   0  0  0  0  0  0  0  0  0  0  0  0
   37.1020   26.5640   39.0300 H   0  0  0  0  0  0  0  0  0  0  0  0
   37.5040   28.1370   41.2150 C   0  0  0  0  0  0  0  0  0  0  0  0
   36.5740   27.7950   42.2320 C   0  0  0  0  0  0  0  0  0  0  0  0
   37.0290   27.4210   43.5010 C   0  0  0  0  0  0  0  0  0  0  0  0
   38.3970   27.4110   43.6790 N   0  0  0  0  0  0  0  0  0  0  0  0
   39.2550   27.7400   42.6960 C   0  0  0  0  0  0  0  0  0  0  0  0
   38.8120   28.1010   41.4690 N   0  0  0  0  0  0  0  0  0  0  0  0
   35.5080   27.7770   42.1690 H   0  0  0  0  0  0  0  0  0  0  0  0
   36.3770   27.1510   44.3130 H   0  0  0  0  0  0  0  0  0  0  0  0
   40.2920   27.6880   42.9760 H   0  0  0  0  0  0  0  0  0  0  0  0
   36.3490   30.9280   39.3860 C   0  0  0  0  0  3  0  0  0  0  0  0
   36.9700   31.8210   40.4400 C   0  0  0  0  0  2  0  0  0  0  0  0
   37.5370   32.9350   39.5990 C   0  0  0  0  0  2  0  0  0  0  0  0
   37.9290   32.2860   38.3100 C   0  0  0  0  0  2  0  0  0  0  0  0
   37.3770   30.8560   38.3440 C   0  0  0  0  0  2  0  0  0  0  0  0
  1  7  1  6  0  0  0
  1  2  1  0  0  0  0
  1 17  1  0  0  0  0
  2  8  1  1  0  0  0
  3  2  1  0  0  0  0
  3  9  1  0  0  0  0
  4 12  1  0  0  0  0
  4  3  1  0  0  0  0
  5  4  1  0  0  0  0
  5  6  1  0  0  0  0
  6  1  1  0  0  0  0
  6 15  1  0  0  0  0
 10  3  1  0  0  0  0
 11  4  1  0  0  0  0
 13  5  1  0  0  0  0
 14  5  1  0  0  0  0
 16  6  1  0  0  0  0
 17 22  2  0  0  0  0
 17 18  1  0  0  0  0
 18 19  2  0  0  0  0
 19 20  1  0  0  0  0
 19 24  1  0  0  0  0
 21 25  1  0  0  0  0
 21 20  2  0  0  0  0
 22 21  1  0  0  0  0
 23 18  1  0  0  0  0
 26  2  1  0  0  0  0
 26 27  1  0  0  0  0
 28 27  1  0  0  0  0
 29 30  1  0  0  0  0
 29 28  1  0  0  0  0
 30 26  1  0  0  0  0
M  END
>  <minimizedAffinity>
-5.05123186

$$$$

 OpenBabel03242517093D

 30 32  0  0  1  0  0  0  0  0999 V2000
   37.1030   27.9780   40.8080 C   0  0  2  0  0  0  0  0  0  0  0  0
   36.7860   26.9480   41.8220 C   0  0  2  0  0  0  0  0  0  0  0  0
   36.5480   27.5150   43.1930 C   0  0  0  0  0  0  0  0  0  0  0  0
   37.6420   28.4370   43.6800 C   0  0  0  0  0  0  0  0  0  0  0  0
   38.1910   29.3420   42.6150 C   0  0  0  0  0  0  0  0  0  0  0  0
   37.3080   29.3680   41.3910 C   0  0  0  0  0  0  0  0  0  0  0  0
   38.0410   27.7830   40.2150 H   0  0  0  0  0  0  0  0  0  0  0  0
   35.8010   26.4730   41.5450 H   0  0  0  0  0  0  0  0  0  0  0  0
   35.5850   27.9730   43.3700 H   0  0  0  0  0  0  0  0  0  0  0  0
   36.5810   26.6240   43.8890 H   0  0  0  0  0  0  0  0  0  0  0  0
   38.4360   27.8720   44.1980 H   0  0  0  0  0  0  0  0  0  0  0  0
   37.1970   29.0880   44.4720 H   0  0  0  0  0  0  0  0  0  0  0  0
   38.2400   30.4120   42.9550 H   0  0  0  0  0  0  0  0  0  0  0  0
   39.2100   29.0490   42.3030 H   0  0  0  0  0  0  0  0  0  0  0  0
   36.3060   29.7350   41.6910 H   0  0  0  0  0  0  0  0  0  0  0  0
   37.7490   30.0330   40.6460 H   0  0  0  0  0  0  0  0  0  0  0  0
   36.0350   28.0970   39.7940 C   0  0  0  0  0  0  0  0  0  0  0  0
   35.0160   29.0430   40.0810 C   0  0  0  0  0  0  0  0  0  0  0  0
   33.9560   29.2240   39.1880 C   0  0  0  0  0  0  0  0  0  0  0  0
   33.9770   28.4430   38.0500 N   0  0  0  0  0  0  0  0  0  0  0  0
   34.9580   27.5550   37.8040 C   0  0  0  0  0  0  0  0  0  0  0  0
   35.9830   27.3810   38.6700 N   0  0  0  0  0  0  0  0  0  0  0  0
   34.9330   29.6800   40.9340 H   0  0  0  0  0  0  0  0  0  0  0  0
   33.1530   29.9230   39.3470 H   0  0  0  0  0  0  0  0  0  0  0  0
   34.8460   27.0160   36.8790 H   0  0  0  0  0  0  0  0  0  0  0  0
   37.7070   25.7530   41.8390 C   0  0  0  0  0  3  0  0  0  0  0  0
   36.8930   24.5430   41.4360 C   0  0  0  0  0  2  0  0  0  0  0  0
   37.9660   23.5020   41.2500 C   0  0  0  0  0  2  0  0  0  0  0  0
   39.1600   24.2600   40.7630 C   0  0  0  0  0  2  0  0  0  0  0  0
   38.8240   25.7510   40.8920 C   0  0  0  0  0  2  0  0  0  0  0  0
  1  7  1  6  0  0  0
  1  6  1  0  0  0  0
  1  2  1  0  0  0  0
  2  8  1  6  0  0  0
  2 26  1  0  0  0  0
  2  3  1  0  0  0  0
  3  9  1  0  0  0  0
  3  4  1  0  0  0  0
  3 10  1  0  0  0  0
  4 11  1  0  0  0  0
  4 12  1  0  0  0  0
  5 13  1  0  0  0  0
  5  4  1  0  0  0  0
  6 15  1  0  0  0  0
  6  5  1  0  0  0  0
 14  5  1  0  0  0  0
 16  6  1  0  0  0  0
 17 18  1  0  0  0  0
 17  1  1  0  0  0  0
 18 23  1  0  0  0  0
 19 24  1  0  0  0  0
 19 18  2  0  0  0  0
 20 19  1  0  0  0  0
 21 20  2  0  0  0  0
 21 22  1  0  0  0  0
 22 17  2  0  0  0  0
 25 21  1  0  0  0  0
 27 26  1  0  0  0  0
 28 27  1  0  0  0  0
 29 30  1  0  0  0  0
 29 28  1  0  0  0  0
 30 26  1  0  0  0  0
M  END
>  <minimizedAffinity>
-5.01387072

$$$$

 OpenBabel03242517093D

 30 32  0  0  1  0  0  0  0  0999 V2000
   39.0330   28.3290   41.3760 C   0  0  2  0  0  0  0  0  0  0  0  0
   38.1370   27.3620   42.0460 C   0  0  2  0  0  0  0  0  0  0  0  0
   38.5100   27.0960   43.4770 C   0  0  0  0  0  0  0  0  0  0  0  0
   39.9600   26.7210   43.6800 C   0  0  0  0  0  0  0  0  0  0  0  0
   40.9130   27.5030   42.8240 C   0  0  0  0  0  0  0  0  0  0  0  0
   40.2520   28.7100   42.2050 C   0  0  0  0  0  0  0  0  0  0  0  0
   39.4630   27.9740   40.3970 H   0  0  0  0  0  0  0  0  0  0  0  0
   37.1090   27.8220   42.1100 H   0  0  0  0  0  0  0  0  0  0  0  0
   38.2270   27.8470   44.2020 H   0  0  0  0  0  0  0  0  0  0  0  0
   37.9230   26.1740   43.7680 H   0  0  0  0  0  0  0  0  0  0  0  0
   40.1050   25.6320   43.5800 H   0  0  0  0  0  0  0  0  0  0  0  0
   40.2120   26.9420   44.7460 H   0  0  0  0  0  0  0  0  0  0  0  0
   41.7700   27.9200   43.4190 H   0  0  0  0  0  0  0  0  0  0  0  0
   41.3450   26.8890   42.0120 H   0  0  0  0  0  0  0  0  0  0  0  0
   39.8850   29.3630   43.0210 H   0  0  0  0  0  0  0  0  0  0  0  0
   40.9800   29.2420   41.5900 H   0  0  0  0  0  0  0  0  0  0  0  0
   38.3350   29.5880   41.0450 C   0  0  0  0  0  0  0  0  0  0  0  0
   36.9530   29.6290   41.3680 C   0  0  0  0  0  0  0  0  0  0  0  0
   36.2020   30.7740   41.0860 C   0  0  0  0  0  0  0  0  0  0  0  0
   36.8800   31.8180   40.4930 N   0  0  0  0  0  0  0  0  0  0  0  0
   38.1920   31.7510   40.1990 C   0  0  0  0  0  0  0  0  0  0  0  0
   38.9180   30.6420   40.4730 N   0  0  0  0  0  0  0  0  0  0  0  0
   36.3630   28.8660   41.8270 H   0  0  0  0  0  0  0  0  0  0  0  0
   35.1520   30.8680   41.3050 H   0  0  0  0  0  0  0  0  0  0  0  0
   38.5890   32.6390   39.7400 H   0  0  0  0  0  0  0  0  0  0  0  0
   37.8580   26.0970   41.2740 C   0  0  0  0  0  3  0  0  0  0  0  0
   37.0030   25.2050   42.1500 C   0  0  0  0  0  2  0  0  0  0  0  0
   36.5980   24.1250   41.1820 C   0  0  0  0  0  2  0  0  0  0  0  0
   36.5070   24.8080   39.8550 C   0  0  0  0  0  2  0  0  0  0  0  0
   37.0780   26.2200   40.0400 C   0  0  0  0  0  2  0  0  0  0  0  0
  1  7  1  6  0  0  0
  1  2  1  0  0  0  0
  1  6  1  0  0  0  0
  2  8  1  1  0  0  0
  2  3  1  0  0  0  0
  3  4  1  0  0  0  0
  3 10  1  0  0  0  0
  3  9  1  0  0  0  0
  4 12  1  0  0  0  0
  5 13  1  0  0  0  0
  5  4  1  0  0  0  0
  6  5  1  0  0  0  0
  6 15  1  0  0  0  0
 11  4  1  0  0  0  0
 14  5  1  0  0  0  0
 16  6  1  0  0  0  0
 17 18  1  0  0  0  0
 17  1  1  0  0  0  0
 18 23  1  0  0  0  0
 19 24  1  0  0  0  0
 19 18  2  0  0  0  0
 20 19  1  0  0  0  0
 21 22  1  0  0  0  0
 21 20  2  0  0  0  0
 22 17  2  0  0  0  0
 25 21  1  0  0  0  0
 26  2  1  0  0  0  0
 26 27  1  0  0  0  0
 28 27  1  0  0  0  0
 29 30  1  0  0  0  0
 29 28  1  0  0  0  0
 30 26  1  0  0  0  0
M  END
>  <minimizedAffinity>
-4.97187424

$$$$

 OpenBabel03242517093D

 30 32  0  0  1  0  0  0  0  0999 V2000
   37.0860   30.0340   40.1380 C   0  0  2  0  0  0  0  0  0  0  0  0
   37.9520   28.8390   40.2230 C   0  0  2  0  0  0  0  0  0  0  0  0
   38.0530   28.0810   38.9290 C   0  0  0  0  0  0  0  0  0  0  0  0
   36.7190   27.7410   38.3060 C   0  0  0  0  0  0  0  0  0  0  0  0
   35.7000   28.8380   38.4170 C   0  0  0  0  0  0  0  0  0  0  0  0
   36.3280   30.1490   38.8230 C   0  0  0  0  0  0  0  0  0  0  0  0
   36.2830   30.0930   40.9270 H   0  0  0  0  0  0  0  0  0  0  0  0
   39.0080   29.1830   40.4240 H   0  0  0  0  0  0  0  0  0  0  0  0
   38.7090   28.4930   38.1750 H   0  0  0  0  0  0  0  0  0  0  0  0
   38.5130   27.0860   39.2060 H   0  0  0  0  0  0  0  0  0  0  0  0
   36.3400   26.7770   38.6850 H   0  0  0  0  0  0  0  0  0  0  0  0
   36.8990   27.5640   37.2160 H   0  0  0  0  0  0  0  0  0  0  0  0
   35.2010   29.0510   37.4340 H   0  0  0  0  0  0  0  0  0  0  0  0
   34.9030   28.5940   39.1450 H   0  0  0  0  0  0  0  0  0  0  0  0
   37.0740   30.4300   38.0540 H   0  0  0  0  0  0  0  0  0  0  0  0
   35.5500   30.9110   38.8960 H   0  0  0  0  0  0  0  0  0  0  0  0
   37.8570   31.2850   40.2930 C   0  0  0  0  0  0  0  0  0  0  0  0
   37.2120   32.4650   39.8390 C   0  0  0  0  0  0  0  0  0  0  0  0
   37.8620   33.6990   39.9330 C   0  0  0  0  0  0  0  0  0  0  0  0
   39.1290   33.6810   40.4800 N   0  0  0  0  0  0  0  0  0  0  0  0
   39.7150   32.5450   40.9030 C   0  0  0  0  0  0  0  0  0  0  0  0
   39.0830   31.3520   40.8100 N   0  0  0  0  0  0  0  0  0  0  0  0
   36.2380   32.5580   39.4090 H   0  0  0  0  0  0  0  0  0  0  0  0
   37.4290   34.6290   39.6080 H   0  0  0  0  0  0  0  0  0  0  0  0
   40.7020   32.6800   41.3070 H   0  0  0  0  0  0  0  0  0  0  0  0
   37.6950   27.9370   41.4050 C   0  0  0  0  0  3  0  0  0  0  0  0
   38.6840   28.3100   42.4890 C   0  0  0  0  0  2  0  0  0  0  0  0
   38.1550   27.5310   43.6640 C   0  0  0  0  0  2  0  0  0  0  0  0
   36.6740   27.4900   43.4670 C   0  0  0  0  0  2  0  0  0  0  0  0
   36.3940   28.0510   42.0680 C   0  0  0  0  0  2  0  0  0  0  0  0
  1  2  1  0  0  0  0
  1 17  1  0  0  0  0
  1  7  1  1  0  0  0
  2  8  1  1  0  0  0
  2 26  1  0  0  0  0
  3 10  1  0  0  0  0
  3  2  1  0  0  0  0
  4  5  1  0  0  0  0
  4 11  1  0  0  0  0
  4  3  1  0  0  0  0
  5  6  1  0  0  0  0
  5 14  1  0  0  0  0
  6 16  1  0  0  0  0
  6  1  1  0  0  0  0
  9  3  1  0  0  0  0
 12  4  1  0  0  0  0
 13  5  1  0  0  0  0
 15  6  1  0  0  0  0
 17 22  1  0  0  0  0
 18 19  1  0  0  0  0
 18 17  2  0  0  0  0
 19 20  2  0  0  0  0
 20 21  1  0  0  0  0
 21 25  1  0  0  0  0
 22 21  2  0  0  0  0
 23 18  1  0  0  0  0
 24 19  1  0  0  0  0
 26 30  1  0  0  0  0
 26 27  1  0  0  0  0
 27 28  1  0  0  0  0
 29 28  1  0  0  0  0
 30 29  1  0  0  0  0
M  END
>  <minimizedAffinity>
-4.93689775

$$$$

 OpenBabel03242517093D

 30 32  0  0  1  0  0  0  0  0999 V2000
   38.6230   26.2680   42.9910 C   0  0  2  0  0  0  0  0  0  0  0  0
   38.2000   26.1640   41.5780 C   0  0  2  0  0  0  0  0  0  0  0  0
   37.5560   27.4170   41.0550 C   0  0  0  0  0  0  0  0  0  0  0  0
   36.4340   27.9440   41.9200 C   0  0  0  0  0  0  0  0  0  0  0  0
   36.7020   27.8370   43.3930 C   0  0  0  0  0  0  0  0  0  0  0  0
   38.1550   27.5420   43.6790 C   0  0  0  0  0  0  0  0  0  0  0  0
   38.2500   25.4390   43.6580 H   0  0  0  0  0  0  0  0  0  0  0  0
   39.1250   26.0430   40.9420 H   0  0  0  0  0  0  0  0  0  0  0  0
   38.2180   28.2300   40.7880 H   0  0  0  0  0  0  0  0  0  0  0  0
   37.0630   27.1110   40.0840 H   0  0  0  0  0  0  0  0  0  0  0  0
   35.4690   27.4900   41.6360 H   0  0  0  0  0  0  0  0  0  0  0  0
   36.3150   29.0300   41.6820 H   0  0  0  0  0  0  0  0  0  0  0  0
   36.4940   28.8000   43.9310 H   0  0  0  0  0  0  0  0  0  0  0  0
   36.0870   27.0530   43.8730 H   0  0  0  0  0  0  0  0  0  0  0  0
   38.7660   28.3670   43.2630 H   0  0  0  0  0  0  0  0  0  0  0  0
   38.2990   27.4680   44.7580 H   0  0  0  0  0  0  0  0  0  0  0  0
   40.0930   26.2280   43.1300 C   0  0  0  0  0  0  0  0  0  0  0  0
   40.7080   27.4470   43.5210 C   0  0  0  0  0  0  0  0  0  0  0  0
   42.0960   27.5140   43.6710 C   0  0  0  0  0  0  0  0  0  0  0  0
   42.7950   26.3510   43.4190 N   0  0  0  0  0  0  0  0  0  0  0  0
   42.1840   25.2100   43.0500 C   0  0  0  0  0  0  0  0  0  0  0  0
   40.8400   25.1470   42.9060 N   0  0  0  0  0  0  0  0  0  0  0  0
   40.2370   28.3810   43.7340 H   0  0  0  0  0  0  0  0  0  0  0  0
   42.6230   28.4070   43.9640 H   0  0  0  0  0  0  0  0  0  0  0  0
   42.8520   24.3830   42.8880 H   0  0  0  0  0  0  0  0  0  0  0  0
   37.4220   24.9210   41.2250 C   0  0  0  0  0  3  0  0  0  0  0  0
   36.8880   25.0990   39.8200 C   0  0  0  0  0  2  0  0  0  0  0  0
   36.3690   23.7190   39.5140 C   0  0  0  0  0  2  0  0  0  0  0  0
   37.2770   22.7910   40.2560 C   0  0  0  0  0  2  0  0  0  0  0  0
   38.1640   23.6600   41.1560 C   0  0  0  0  0  2  0  0  0  0  0  0
  1 17  1  0  0  0  0
  1  7  1  1  0  0  0
  1  6  1  0  0  0  0
  2  8  1  6  0  0  0
  2  1  1  0  0  0  0
  3  2  1  0  0  0  0
  3  4  1  0  0  0  0
  4  5  1  0  0  0  0
  5  6  1  0  0  0  0
  5 14  1  0  0  0  0
  5 13  1  0  0  0  0
  6 16  1  0  0  0  0
  9  3  1  0  0  0  0
 10  3  1  0  0  0  0
 11  4  1  0  0  0  0
 12  4  1  0  0  0  0
 15  6  1  0  0  0  0
 17 18  1  0  0  0  0
 18 19  2  0  0  0  0
 18 23  1  0  0  0  0
 19 24  1  0  0  0  0
 20 19  1  0  0  0  0
 21 20  2  0  0  0  0
 22 21  1  0  0  0  0
 22 17  2  0  0  0  0
 25 21  1  0  0  0  0
 26  2  1  0  0  0  0
 27 26  1  0  0  0  0
 28 27  1  0  0  0  0
 28 29  1  0  0  0  0
 29 30  1  0  0  0  0
 30 26  1  0  0  0  0
M  END
>  <minimizedAffinity>
-4.82568598

$$$$

 OpenBabel03242517093D

 30 32  0  0  1  0  0  0  0  0999 V2000
   36.6390   29.6370   38.4770 C   0  0  2  0  0  0  0  0  0  0  0  0
   36.1960   29.3740   39.8630 C   0  0  2  0  0  0  0  0  0  0  0  0
   36.0530   30.6200   40.6910 C   0  0  0  0  0  0  0  0  0  0  0  0
   37.2690   31.5180   40.6710 C   0  0  0  0  0  0  0  0  0  0  0  0
   37.9240   31.6230   39.3250 C   0  0  0  0  0  0  0  0  0  0  0  0
   37.0400   31.0840   38.2260 C   0  0  0  0  0  0  0  0  0  0  0  0
   37.5360   29.0390   38.1460 H   0  0  0  0  0  0  0  0  0  0  0  0
   35.1520   28.9480   39.8230 H   0  0  0  0  0  0  0  0  0  0  0  0
   35.1640   31.2130   40.5280 H   0  0  0  0  0  0  0  0  0  0  0  0
   35.9720   30.2560   41.7580 H   0  0  0  0  0  0  0  0  0  0  0  0
   37.9830   31.2350   41.4630 H   0  0  0  0  0  0  0  0  0  0  0  0
   36.9260   32.5440   40.9540 H   0  0  0  0  0  0  0  0  0  0  0  0
   38.1240   32.6890   39.0340 H   0  0  0  0  0  0  0  0  0  0  0  0
   38.8910   31.0850   39.2880 H   0  0  0  0  0  0  0  0  0  0  0  0
   36.1010   31.6730   38.2140 H   0  0  0  0  0  0  0  0  0  0  0  0
   37.5600   31.1750   37.2710 H   0  0  0  0  0  0  0  0  0  0  0  0
   35.5870   29.3130   37.4920 C   0  0  0  0  0  0  0  0  0  0  0  0
   34.3390   28.9080   38.0350 C   0  0  0  0  0  0  0  0  0  0  0  0
   33.2820   28.5710   37.1850 C   0  0  0  0  0  0  0  0  0  0  0  0
   33.5350   28.6580   35.8320 N   0  0  0  0  0  0  0  0  0  0  0  0
   34.7290   29.0460   35.3460 C   0  0  0  0  0  0  0  0  0  0  0  0
   35.7510   29.3720   36.1700 N   0  0  0  0  0  0  0  0  0  0  0  0
   34.0690   28.8190   39.0650 H   0  0  0  0  0  0  0  0  0  0  0  0
   32.3130   28.2570   37.5340 H   0  0  0  0  0  0  0  0  0  0  0  0
   34.7830   29.0680   34.2720 H   0  0  0  0  0  0  0  0  0  0  0  0
   36.9440   28.2810   40.5850 C   0  0  0  0  0  3  0  0  0  0  0  0
   36.3770   28.1860   41.9850 C   0  0  0  0  0  2  0  0  0  0  0  0
   37.0200   26.9200   42.4880 C   0  0  0  0  0  2  0  0  0  0  0  0
   37.1650   26.0520   41.2790 C   0  0  0  0  0  2  0  0  0  0  0  0
   36.8110   26.9170   40.0640 C   0  0  0  0  0  2  0  0  0  0  0  0
  1  7  1  6  0  0  0
  1  2  1  0  0  0  0
  2  8  1  6  0  0  0
  2 26  1  0  0  0  0
  2  3  1  0  0  0  0
  3 10  1  0  0  0  0
  4  3  1  0  0  0  0
  4 12  1  0  0  0  0
  4 11  1  0  0  0  0
  5  4  1  0  0  0  0
  6  1  1  0  0  0  0
  6  5  1  0  0  0  0
  9  3  1  0  0  0  0
 13  5  1  0  0  0  0
 14  5  1  0  0  0  0
 15  6  1  0  0  0  0
 16  6  1  0  0  0  0
 17 18  1  0  0  0  0
 17  1  1  0  0  0  0
 18 23  1  0  0  0  0
 19 24  1  0  0  0  0
 19 18  2  0  0  0  0
 20 19  1  0  0  0  0
 21 20  2  0  0  0  0
 21 22  1  0  0  0  0
 22 17  2  0  0  0  0
 25 21  1  0  0  0  0
 26 27  1  0  0  0  0
 27 28  1  0  0  0  0
 29 28  1  0  0  0  0
 30 26  1  0  0  0  0
 30 29  1  0  0  0  0
M  END
>  <minimizedAffinity>
-4.80909777

$$$$

 OpenBabel03242517093D

 30 32  0  0  1  0  0  0  0  0999 V2000
   37.1830   26.6070   41.2820 C   0  0  2  0  0  0  0  0  0  0  0  0
   38.0960   27.7710   41.2820 C   0  0  2  0  0  0  0  0  0  0  0  0
   38.5880   28.1430   42.6520 C   0  0  0  0  0  0  0  0  0  0  0  0
   37.4910   28.3140   43.6780 C   0  0  0  0  0  0  0  0  0  0  0  0
   36.3890   27.3020   43.5620 C   0  0  0  0  0  0  0  0  0  0  0  0
   36.7800   26.1450   42.6750 C   0  0  0  0  0  0  0  0  0  0  0  0
   36.2030   26.7760   40.7510 H   0  0  0  0  0  0  0  0  0  0  0  0
   39.0320   27.4830   40.7210 H   0  0  0  0  0  0  0  0  0  0  0  0
   39.3780   27.5330   43.0670 H   0  0  0  0  0  0  0  0  0  0  0  0
   39.0440   29.1710   42.5310 H   0  0  0  0  0  0  0  0  0  0  0  0
   37.1100   29.3500   43.6800 H   0  0  0  0  0  0  0  0  0  0  0  0
   37.9580   28.1840   44.6850 H   0  0  0  0  0  0  0  0  0  0  0  0
   36.1420   26.8330   44.5520 H   0  0  0  0  0  0  0  0  0  0  0  0
   35.4560   27.7440   43.1660 H   0  0  0  0  0  0  0  0  0  0  0  0
   37.6720   25.6550   43.1140 H   0  0  0  0  0  0  0  0  0  0  0  0
   35.9480   25.4410   42.6170 H   0  0  0  0  0  0  0  0  0  0  0  0
   37.7810   25.4380   40.6040 C   0  0  0  0  0  0  0  0  0  0  0  0
   37.5290   24.1800   41.2120 C   0  0  0  0  0  0  0  0  0  0  0  0
   38.0590   23.0130   40.6520 C   0  0  0  0  0  0  0  0  0  0  0  0
   38.8150   23.1740   39.5090 N   0  0  0  0  0  0  0  0  0  0  0  0
   39.0360   24.3810   38.9550 C   0  0  0  0  0  0  0  0  0  0  0  0
   38.5220   25.5090   39.4990 N   0  0  0  0  0  0  0  0  0  0  0  0
   36.9560   23.9770   42.0900 H   0  0  0  0  0  0  0  0  0  0  0  0
   37.9060   22.0310   41.0630 H   0  0  0  0  0  0  0  0  0  0  0  0
   39.6430   24.3570   38.0670 H   0  0  0  0  0  0  0  0  0  0  0  0
   37.6220   28.9640   40.4910 C   0  0  0  0  0  3  0  0  0  0  0  0
   36.1380   28.7930   40.2490 C   0  0  0  0  0  2  0  0  0  0  0  0
   35.7620   30.1410   39.6930 C   0  0  0  0  0  2  0  0  0  0  0  0
   36.6810   31.1080   40.3690 C   0  0  0  0  0  2  0  0  0  0  0  0
   37.7190   30.2780   41.1330 C   0  0  0  0  0  2  0  0  0  0  0  0
  1  7  1  6  0  0  0
  1  6  1  0  0  0  0
  2  8  1  6  0  0  0
  2  1  1  0  0  0  0
  2  3  1  0  0  0  0
  3  9  1  0  0  0  0
  3  4  1  0  0  0  0
  4 11  1  0  0  0  0
  4 12  1  0  0  0  0
  5  4  1  0  0  0  0
  5 13  1  0  0  0  0
  6 15  1  0  0  0  0
  6  5  1  0  0  0  0
 10  3  1  0  0  0  0
 14  5  1  0  0  0  0
 16  6  1  0  0  0  0
 17 18  1  0  0  0  0
 17  1  1  0  0  0  0
 18 23  1  0  0  0  0
 19 24  1  0  0  0  0
 19 18  2  0  0  0  0
 20 19  1  0  0  0  0
 21 22  1  0  0  0  0
 21 20  2  0  0  0  0
 22 17  2  0  0  0  0
 25 21  1  0  0  0  0
 26 30  1  0  0  0  0
 26  2  1  0  0  0  0
 27 26  1  0  0  0  0
 28 27  1  0  0  0  0
 28 29  1  0  0  0  0
 29 30  1  0  0  0  0
M  END
>  <minimizedAffinity>
-4.79175282

$$$$

 OpenBabel03242517093D

 30 32  0  0  1  0  0  0  0  0999 V2000
   38.0140   28.4940   40.8610 C   0  0  2  0  0  0  0  0  0  0  0  0
   36.9460   27.5310   41.2080 C   0  0  2  0  0  0  0  0  0  0  0  0
   36.3280   27.7850   42.5540 C   0  0  0  0  0  0  0  0  0  0  0  0
   37.3290   27.9130   43.6800 C   0  0  0  0  0  0  0  0  0  0  0  0
   38.5690   28.6720   43.3050 C   0  0  0  0  0  0  0  0  0  0  0  0
   38.3990   29.4200   42.0060 C   0  0  0  0  0  0  0  0  0  0  0  0
   38.9890   28.0240   40.5450 H   0  0  0  0  0  0  0  0  0  0  0  0
   36.0940   27.6760   40.4820 H   0  0  0  0  0  0  0  0  0  0  0  0
   35.6110   28.5910   42.6160 H   0  0  0  0  0  0  0  0  0  0  0  0
   35.7380   26.8490   42.7880 H   0  0  0  0  0  0  0  0  0  0  0  0
   37.5580   26.9270   44.1200 H   0  0  0  0  0  0  0  0  0  0  0  0
   36.8290   28.4800   44.5030 H   0  0  0  0  0  0  0  0  0  0  0  0
   38.8240   29.4630   44.0610 H   0  0  0  0  0  0  0  0  0  0  0  0
   39.4510   28.0100   43.2120 H   0  0  0  0  0  0  0  0  0  0  0  0
   37.5620   30.1380   42.1240 H   0  0  0  0  0  0  0  0  0  0  0  0
   39.3250   29.9490   41.7740 H   0  0  0  0  0  0  0  0  0  0  0  0
   37.6290   29.3590   39.7270 C   0  0  0  0  0  0  0  0  0  0  0  0
   37.7470   30.7560   39.9510 C   0  0  0  0  0  0  0  0  0  0  0  0
   37.3980   31.6590   38.9430 C   0  0  0  0  0  0  0  0  0  0  0  0
   36.9490   31.1080   37.7600 N   0  0  0  0  0  0  0  0  0  0  0  0
   36.8490   29.7790   37.5760 C   0  0  0  0  0  0  0  0  0  0  0  0
   37.1870   28.9070   38.5540 N   0  0  0  0  0  0  0  0  0  0  0  0
   38.0860   31.2530   40.8330 H   0  0  0  0  0  0  0  0  0  0  0  0
   37.4630   32.7280   39.0490 H   0  0  0  0  0  0  0  0  0  0  0  0
   36.4840   29.4920   36.6050 H   0  0  0  0  0  0  0  0  0  0  0  0
   37.2890   26.0790   40.9910 C   0  0  0  0  0  3  0  0  0  0  0  0
   38.7950   25.9770   40.8760 C   0  0  0  0  0  2  0  0  0  0  0  0
   39.0040   24.4860   40.9220 C   0  0  0  0  0  2  0  0  0  0  0  0
   37.9130   23.9690   41.8040 C   0  0  0  0  0  2  0  0  0  0  0  0
   36.9610   25.1420   42.0690 C   0  0  0  0  0  2  0  0  0  0  0  0
  1  7  1  6  0  0  0
  1  2  1  0  0  0  0
  1  6  1  0  0  0  0
  2  8  1  6  0  0  0
  2  3  1  0  0  0  0
  3  9  1  0  0  0  0
  3 10  1  0  0  0  0
  3  4  1  0  0  0  0
  4 11  1  0  0  0  0
  4 12  1  0  0  0  0
  5  4  1  0  0  0  0
  5 13  1  0  0  0  0
  6 15  1  0  0  0  0
  6  5  1  0  0  0  0
 14  5  1  0  0  0  0
 16  6  1  0  0  0  0
 17 18  1  0  0  0  0
 17  1  1  0  0  0  0
 18 23  1  0  0  0  0
 19 24  1  0  0  0  0
 19 18  2  0  0  0  0
 20 19  1  0  0  0  0
 21 20  2  0  0  0  0
 21 22  1  0  0  0  0
 22 17  2  0  0  0  0
 25 21  1  0  0  0  0
 26  2  1  0  0  0  0
 26 30  1  0  0  0  0
 27 28  1  0  0  0  0
 27 26  1  0  0  0  0
 28 29  1  0  0  0  0
 29 30  1  0  0  0  0
M  END
>  <minimizedAffinity>
-4.79045773

$$$$
