
 OpenBabel03252504253D

 17 18  0  0  0  0  0  0  0  0999 V2000
   44.1890   35.8600   43.7370 C   0  0  0  0  0  0  0  0  0  0  0  0
   44.1000   35.0160   42.6380 C   0  0  0  0  0  0  0  0  0  0  0  0
   44.6580   33.7410   42.7560 C   0  0  0  0  0  0  0  0  0  0  0  0
   45.2470   33.4160   43.9280 N   0  0  0  0  0  0  0  0  0  0  0  0
   45.3190   34.2530   44.9780 C   0  0  0  0  0  0  0  0  0  0  0  0
   44.7890   35.5010   44.9060 N   0  0  0  0  0  0  0  0  0  0  0  0
   43.7890   36.8730   43.7550 H   0  0  0  0  0  0  0  0  0  0  0  0
   44.5690   33.1270   41.8920 H   0  0  0  0  0  0  0  0  0  0  0  0
   45.7910   33.9630   45.8900 H   0  0  0  0  0  0  0  0  0  0  0  0
   43.4160   35.5740   41.4610 C   0  0  0  0  0  0  0  0  0  0  0  0
   43.4010   36.6550   41.4900 H   0  0  0  0  0  0  0  0  0  0  0  0
   43.9510   35.2720   40.5230 H   0  0  0  0  0  0  0  0  0  0  0  0
   42.0020   35.0630   41.4000 C   0  0  0  0  0  3  0  0  0  0  0  0
   41.8050   34.0320   40.3040 C   0  0  0  0  0  2  0  0  0  0  0  0
   40.2940   33.8720   40.3720 C   0  0  0  0  0  2  0  0  0  0  0  0
   39.8330   35.3150   40.4270 C   0  0  0  0  0  2  0  0  0  0  0  0
   41.0240   36.1210   40.9590 C   0  0  0  0  0  2  0  0  0  0  0  0
  1  7  1  0  0  0  0
  1  6  1  0  0  0  0
  2  3  1  0  0  0  0
  2  1  2  0  0  0  0
  3  4  2  0  0  0  0
  4  5  1  0  0  0  0
  5  9  1  0  0  0  0
  6  5  2  0  0  0  0
  8  3  1  0  0  0  0
 10 11  1  0  0  0  0
 10  2  1  0  0  0  0
 12 10  1  0  0  0  0
 13 10  1  0  0  0  0
 14 15  1  0  0  0  0
 14 13  1  0  0  0  0
 15 16  1  0  0  0  0
 16 17  1  0  0  0  0
 17 13  1  0  0  0  0
M  END
>  <minimizedAffinity>
-3.94317245

>  <minimizedRMSD>
1.28329504

$$$$
