
     RDKit          3D

 35 37  0  0  0  0  0  0  0  0999 V2000
   44.4127   36.1704   44.7826 C   0  0  0  0  0  0  0  0  0  0  0  0
   45.0666   36.0775   43.5302 C   0  0  0  0  0  0  0  0  0  0  0  0
   45.9037   34.9720   43.3329 C   0  0  0  0  0  0  0  0  0  0  0  0
   46.0620   34.0437   44.3209 N   0  0  0  0  0  0  0  0  0  0  0  0
   45.3974   34.2030   45.5020 C   0  0  0  0  0  0  0  0  0  0  0  0
   44.5824   35.2537   45.7300 N   0  0  0  0  0  0  0  0  0  0  0  0
   45.5596   33.2529   46.5421 N   0  0  0  0  0  0  0  0  0  0  0  0
   46.6306   34.7550   42.1027 C   0  0  0  0  0  0  0  0  0  0  0  0
   47.8590   35.3359   41.9505 C   0  0  0  0  0  0  0  0  0  0  0  0
   48.6601   35.2104   40.8244 C   0  0  0  0  0  0  0  0  0  0  0  0
   48.1809   34.4367   39.7698 C   0  0  0  0  0  0  0  0  0  0  0  0
   46.9420   33.8502   39.9220 C   0  0  0  0  0  0  0  0  0  0  0  0
   46.1669   33.9947   41.0588 C   0  0  0  0  0  0  0  0  0  0  0  0
   43.7914   37.0513   44.8428 H   0  0  0  0  0  0  0  0  0  0  0  0
   44.9735   36.7820   42.7237 H   0  0  0  0  0  0  0  0  0  0  0  0
   46.4149   33.4236   47.1167 H   0  0  0  0  0  0  0  0  0  0  0  0
   44.7326   32.6095   46.4397 H   0  0  0  0  0  0  0  0  0  0  0  0
   48.2943   35.9545   42.7367 H   0  0  0  0  0  0  0  0  0  0  0  0
   49.6264   35.6919   40.7548 H   0  0  0  0  0  0  0  0  0  0  0  0
   48.8066   34.3425   38.8982 H   0  0  0  0  0  0  0  0  0  0  0  0
   46.6113   33.2573   39.0742 H   0  0  0  0  0  0  0  0  0  0  0  0
   44.8384   33.3400   41.1696 C   0  0  0  0  0  0  0  0  0  0  0  0
   44.8119   32.0401   40.3575 C   0  0  0  0  0  0  0  0  0  0  0  0
   43.7394   31.2787   41.1260 C   0  0  0  0  0  0  0  0  0  0  0  0
   44.2834   31.4560   42.5466 C   0  0  0  0  0  0  0  0  0  0  0  0
   44.4524   32.9663   42.5616 C   0  0  0  0  0  0  0  0  0  0  0  0
   44.0323   33.9799   40.7227 H   0  0  0  0  0  0  0  0  0  0  0  0
   45.7583   31.5228   40.5190 H   0  0  0  0  0  0  0  0  0  0  0  0
   44.5384   32.2186   39.3037 H   0  0  0  0  0  0  0  0  0  0  0  0
   42.7732   31.8114   41.0374 H   0  0  0  0  0  0  0  0  0  0  0  0
   43.6478   30.2350   40.8234 H   0  0  0  0  0  0  0  0  0  0  0  0
   45.2593   30.9204   42.5380 H   0  0  0  0  0  0  0  0  0  0  0  0
   43.5950   31.0888   43.3105 H   0  0  0  0  0  0  0  0  0  0  0  0
   45.1195   33.3205   43.3571 H   0  0  0  0  0  0  0  0  0  0  0  0
   43.4248   33.3652   42.8049 H   0  0  0  0  0  0  0  0  0  0  0  0
  1  6  2  0
  2  1  1  0
  3  2  2  0
  3  4  1  0
  4  5  2  0
  5  6  1  0
  5  7  1  0
  8  3  1  0
  9  8  2  0
 10  9  1  0
 11 12  1  0
 11 10  2  0
 12 13  2  0
 13  8  1  0
  1 14  1  0
  2 15  1  0
  7 16  1  0
  7 17  1  0
  9 18  1  0
 10 19  1  0
 11 20  1  0
 12 21  1  0
 22 23  1  0
 23 24  1  0
 24 25  1  0
 25 26  1  0
 26 22  1  0
 22 27  1  0
 23 28  1  0
 23 29  1  0
 24 30  1  0
 24 31  1  0
 25 32  1  0
 25 33  1  0
 26 34  1  0
 26 35  1  0
 13 22  1  0
M  ISO  6  14  14  15  14  18  14  19  14  20  14  21  14
M  END
>  <DihAtoms>  (1) 
11,12,21,22

>  <DihDeg>  (1) 
-90.00388833909366

$$$$
