
 OpenBabel03252508433D

 27 29  0  0  0  0  0  0  0  0999 V2000
   45.1010   33.8960   41.6200 C   0  0  0  0  0  0  0  0  0  0  0  0
   46.2850   34.2170   40.9600 C   0  0  0  0  0  0  0  0  0  0  0  0
   46.4420   33.7970   39.6490 C   0  0  0  0  0  0  0  0  0  0  0  0
   45.4460   33.0890   39.0430 C   0  0  0  0  0  0  0  0  0  0  0  0
   44.2750   32.7590   39.6630 C   0  0  0  0  0  0  0  0  0  0  0  0
   44.1570   33.1980   40.9740 C   0  0  0  0  0  0  0  0  0  0  0  0
   47.3270   34.0100   39.0840 H   0  0  0  0  0  0  0  0  0  0  0  0
   45.5680   32.7590   38.0140 H   0  0  0  0  0  0  0  0  0  0  0  0
   43.4630   32.2020   39.2240 H   0  0  0  0  0  0  0  0  0  0  0  0
   43.2700   32.9930   41.5650 H   0  0  0  0  0  0  0  0  0  0  0  0
   44.4170   35.9500   44.7230 C   0  0  0  0  0  0  0  0  0  0  0  0
   44.4740   35.6060   43.3520 C   0  0  0  0  0  0  0  0  0  0  0  0
   44.9920   34.3630   42.9930 C   0  0  0  0  0  0  0  0  0  0  0  0
   45.4150   33.5510   43.9910 N   0  0  0  0  0  0  0  0  0  0  0  0
   45.3520   33.9030   45.3000 C   0  0  0  0  0  0  0  0  0  0  0  0
   44.8570   35.0940   45.6680 N   0  0  0  0  0  0  0  0  0  0  0  0
   43.9930   36.9400   44.8370 H   0  0  0  0  0  0  0  0  0  0  0  0
   44.1520   36.2120   42.5400 H   0  0  0  0  0  0  0  0  0  0  0  0
   45.6930   33.2460   46.0890 H   0  0  0  0  0  0  0  0  0  0  0  0
   47.3550   34.9840   41.6550 C   0  0  0  0  0  0  0  0  0  0  0  0
   47.1690   36.0570   41.4770 H   0  0  0  0  0  0  0  0  0  0  0  0
   47.2350   34.7590   42.7340 H   0  0  0  0  0  0  0  0  0  0  0  0
   48.7410   34.6480   41.1970 C   0  0  0  0  0  0  0  0  0  0  0  0
   49.6920   35.1730   42.2730 C   0  0  0  0  0  0  0  0  0  0  0  0
   50.6670   34.0460   42.5470 C   0  0  0  0  0  0  0  0  0  0  0  0
   49.7350   32.8390   42.4900 C   0  0  0  0  0  0  0  0  0  0  0  0
   48.8880   33.1240   41.2670 C   0  0  0  0  0  0  0  0  0  0  0  0
  1 13  1  0  0  0  0
  2  1  2  0  0  0  0
  2 20  1  0  0  0  0
  3  2  1  0  0  0  0
  4  3  2  0  0  0  0
  4  5  1  0  0  0  0
  5  6  2  0  0  0  0
  6 10  1  0  0  0  0
  6  1  1  0  0  0  0
  7  3  1  0  0  0  0
  8  4  1  0  0  0  0
  9  5  1  0  0  0  0
 11 17  1  0  0  0  0
 11 16  1  0  0  0  0
 12 11  2  0  0  0  0
 13 12  1  0  0  0  0
 13 14  2  0  0  0  0
 14 15  1  0  0  0  0
 15 16  2  0  0  0  0
 15 19  1  0  0  0  0
 18 12  1  0  0  0  0
 20 22  1  0  0  0  0
 21 20  1  0  0  0  0
 23 27  1  0  0  0  0
 23 20  1  0  0  0  0
 23 24  1  0  0  0  0
 24 25  1  0  0  0  0
 26 25  1  0  0  0  0
 27 26  1  0  0  0  0
M  END
>  <minimizedAffinity>
-5.12474918

>  <minimizedRMSD>
1.79017556

$$$$
