REMARK  Name = 
REMARK  2 active torsions:
REMARK  status: ('A' for Active; 'I' for Inactive)
REMARK    1  A    between atoms: C_3  and  C_7
REMARK    2  A    between atoms: C_7  and  C_13
REMARK                            x       y       z     vdW  Elec       q    Type
REMARK                         _______ _______ _______ _____ _____    ______ ____
ROOT
ATOM      1  C   UNL     1      44.562  36.005  44.499  0.00  0.00    +0.000 A 
ATOM      2  C   UNL     1      45.302  35.929  43.293  0.00  0.00    +0.000 A 
ATOM      3  C   UNL     1      46.193  34.862  43.168  0.00  0.00    +0.000 A 
ATOM      4  N   UNL     1      46.308  33.958  44.194  0.00  0.00    +0.000 NA
ATOM      5  C   UNL     1      45.567  34.091  45.324  0.00  0.00    +0.000 A 
ATOM      6  N   UNL     1      44.706  35.100  45.476  0.00  0.00    +0.000 NA
ATOM      7  H   UNL     1      43.867  36.815  44.629  0.00  0.00    +0.000 HD
ATOM      8  H   UNL     1      45.165  36.675  42.522  0.00  0.00    +0.000 HD
ATOM      9  H   UNL     1      45.743  33.320  46.062  0.00  0.00    +0.000 HD
ENDROOT
BRANCH   3  10
ATOM     10  C   UNL     1      46.963  34.770  41.929  0.00  0.00    +0.000 C 
ATOM     11  H   UNL     1      47.602  35.656  41.794  0.00  0.00    +0.000 HD
ATOM     12  H   UNL     1      46.284  34.583  41.059  0.00  0.00    +0.000 HD
BRANCH  10  13
ATOM     13  C   UNL     1      47.841  33.542  42.045  0.00  0.00    +0.000 C 
ATOM     14  C   UNL     1      47.311  32.412  41.202  0.00  0.00    +0.000 C 
ATOM     15  C   UNL     1      48.485  31.869  40.407  0.00  0.00    +0.000 C 
ATOM     16  C   UNL     1      49.665  32.322  41.278  0.00  0.00    +0.000 C 
ATOM     17  C   UNL     1      49.220  33.758  41.507  0.00  0.00    +0.000 C 
ENDBRANCH  10  13
ENDBRANCH   3  10
TORSDOF 2
