REMARK  Name = 
REMARK  4 active torsions:
REMARK  status: ('A' for Active; 'I' for Inactive)
REMARK    1  A    between atoms: C_2  and  C_15
REMARK    2  A    between atoms: C_5  and  C_9
REMARK    3  A    between atoms: C_15  and  C_16
REMARK    4  A    between atoms: C_16  and  C_26
REMARK                            x       y       z     vdW  Elec       q    Type
REMARK                         _______ _______ _______ _____ _____    ______ ____
ROOT
ATOM      1  C   UNL     1      46.845  34.885  42.711  0.00  0.00    +0.000 A 
ATOM      2  C   UNL     1      48.054  34.556  42.081  0.00  0.00    +0.000 A 
ATOM      3  C   UNL     1      48.768  33.462  42.596  0.00  0.00    +0.000 A 
ATOM      4  N   UNL     1      48.235  32.804  43.663  0.00  0.00    +0.000 NA
ATOM      5  C   UNL     1      47.083  33.146  44.235  0.00  0.00    +0.000 A 
ATOM      6  N   UNL     1      46.390  34.188  43.756  0.00  0.00    +0.000 NA
ATOM      7  H   UNL     1      46.234  35.717  42.372  0.00  0.00    +0.000 HD
ATOM      8  H   UNL     1      49.701  33.165  42.153  0.00  0.00    +0.000 HD
ENDROOT
BRANCH   5  11
ATOM      9 CL   UNL     1      46.002  30.367  43.596  0.00  0.00    +0.000 Cl
ATOM     10  C   UNL     1      46.062  31.126  45.188  0.00  0.00    +0.000 A 
ATOM     11  C   UNL     1      46.572  32.394  45.379  0.00  0.00    +0.000 A 
ATOM     12  C   UNL     1      46.605  32.959  46.636  0.00  0.00    +0.000 A 
ATOM     13  C   UNL     1      46.123  32.254  47.726  0.00  0.00    +0.000 A 
ATOM     14  C   UNL     1      45.624  30.997  47.495  0.00  0.00    +0.000 A 
ATOM     15 CL   UNL     1      45.015  30.107  48.877  0.00  0.00    +0.000 Cl
ATOM     16  C   UNL     1      45.575  30.404  46.264  0.00  0.00    +0.000 A 
ATOM     17  H   UNL     1      47.002  33.957  46.809  0.00  0.00    +0.000 HD
ATOM     18  H   UNL     1      46.151  32.703  48.711  0.00  0.00    +0.000 HD
ATOM     19  H   UNL     1      45.179  29.418  46.114  0.00  0.00    +0.000 HD
ENDBRANCH   5  11
BRANCH   2  20
ATOM     20  C   UNL     1      48.527  35.332  40.944  0.00  0.00    +0.000 C 
ATOM     21  H   UNL     1      48.080  36.333  40.984  0.00  0.00    +0.000 HD
ATOM     22  H   UNL     1      49.629  35.433  40.907  0.00  0.00    +0.000 HD
BRANCH  20  23
ATOM     23  C   UNL     1      48.119  34.590  39.674  0.00  0.00    +0.000 C 
ATOM     24  H   UNL     1      48.451  33.552  39.687  0.00  0.00    +0.000 HD
ATOM     25  H   UNL     1      47.012  34.562  39.600  0.00  0.00    +0.000 HD
BRANCH  23  26
ATOM     26  C   UNL     1      48.611  35.399  38.507  0.00  0.00    +0.000 C 
ATOM     27  C   UNL     1      48.605  34.634  37.201  0.00  0.00    +0.000 C 
ATOM     28  C   UNL     1      48.870  35.778  36.213  0.00  0.00    +0.000 C 
ATOM     29  C   UNL     1      47.975  36.864  36.725  0.00  0.00    +0.000 C 
ATOM     30  C   UNL     1      47.703  36.562  38.182  0.00  0.00    +0.000 C 
ENDBRANCH  23  26
ENDBRANCH  20  23
ENDBRANCH   2  20
TORSDOF 4
