
     RDKit          3D

 26 27  0  0  0  0  0  0  0  0999 V2000
   44.5624   36.0050   44.4987 C   0  0  0  0  0  0  0  0  0  0  0  0
   45.3021   35.9288   43.2932 C   0  0  0  0  0  0  0  0  0  0  0  0
   46.1928   34.8621   43.1679 C   0  0  0  0  0  0  0  0  0  0  0  0
   46.3083   33.9580   44.1936 N   0  0  0  0  0  0  0  0  0  0  0  0
   45.5673   34.0908   45.3244 C   0  0  0  0  0  0  0  0  0  0  0  0
   44.7056   35.1003   45.4762 N   0  0  0  0  0  0  0  0  0  0  0  0
   46.9634   34.7701   41.9290 C   0  0  0  0  0  0  0  0  0  0  0  0
   43.8668   36.8145   44.6286 H   0  0  0  0  0  0  0  0  0  0  0  0
   45.1647   36.6746   42.5216 H   0  0  0  0  0  0  0  0  0  0  0  0
   45.7433   33.3196   46.0621 H   0  0  0  0  0  0  0  0  0  0  0  0
   47.6025   35.6562   41.7938 H   0  0  0  0  0  0  0  0  0  0  0  0
   46.2841   34.5830   41.0594 H   0  0  0  0  0  0  0  0  0  0  0  0
   47.8412   33.5423   42.0455 C   0  0  0  0  0  0  0  0  0  0  0  0
   49.1736   33.8822   42.6617 C   0  0  0  0  0  0  0  0  0  0  0  0
   49.4251   32.8591   43.7552 C   0  0  0  0  0  0  0  0  0  0  0  0
   48.5310   31.7022   43.2875 C   0  0  0  0  0  0  0  0  0  0  0  0
   47.2826   32.5124   42.9754 C   0  0  0  0  0  0  0  0  0  0  0  0
   47.9352   33.1058   41.0255 H   0  0  0  0  0  0  0  0  0  0  0  0
   49.2224   34.9231   43.0200 H   0  0  0  0  0  0  0  0  0  0  0  0
   49.9489   33.6599   41.8748 H   0  0  0  0  0  0  0  0  0  0  0  0
   50.4694   32.5618   43.8589 H   0  0  0  0  0  0  0  0  0  0  0  0
   48.9521   33.2071   44.7150 H   0  0  0  0  0  0  0  0  0  0  0  0
   48.3837   30.9530   44.0606 H   0  0  0  0  0  0  0  0  0  0  0  0
   48.8991   31.3023   42.3218 H   0  0  0  0  0  0  0  0  0  0  0  0
   46.4891   31.8868   42.5264 H   0  0  0  0  0  0  0  0  0  0  0  0
   46.9278   33.0284   43.9072 H   0  0  0  0  0  0  0  0  0  0  0  0
  1  6  2  0
  2  1  1  0
  3  2  2  0
  3  4  1  0
  4  5  2  0
  5  6  1  0
  7  3  1  0
  1  8  1  0
  2  9  1  0
  5 10  1  0
  7 11  1  0
  7 12  1  0
 13 14  1  0
 14 15  1  0
 15 16  1  0
 16 17  1  0
 17 13  1  0
 13 18  1  0
 14 19  1  0
 14 20  1  0
 15 21  1  0
 15 22  1  0
 16 23  1  0
 16 24  1  0
 17 25  1  0
 17 26  1  0
  7 13  1  0
M  ISO  5   8  14   9  14  10  14  11   8  12   8
M  END
>  <DihAtoms>  (1) 
2,6,12,13

>  <DihDeg>  (1) 
59.99723585598789

$$$$
