
 OpenBabel03252504253D

 17 18  0  0  0  0  0  0  0  0999 V2000
   44.6630   35.5230   44.6050 C   0  0  0  0  0  0  0  0  0  0  0  0
   45.4650   34.9780   43.6120 C   0  0  0  0  0  0  0  0  0  0  0  0
   46.2560   33.8770   43.9520 C   0  0  0  0  0  0  0  0  0  0  0  0
   46.1880   33.4200   45.2210 N   0  0  0  0  0  0  0  0  0  0  0  0
   45.4020   33.9670   46.1660 C   0  0  0  0  0  0  0  0  0  0  0  0
   44.6170   35.0370   45.8770 N   0  0  0  0  0  0  0  0  0  0  0  0
   44.0080   36.3790   44.4500 H   0  0  0  0  0  0  0  0  0  0  0  0
   46.8550   33.4900   43.1620 H   0  0  0  0  0  0  0  0  0  0  0  0
   45.3720   33.5810   47.1590 H   0  0  0  0  0  0  0  0  0  0  0  0
   45.3840   35.6330   42.2970 C   0  0  0  0  0  0  0  0  0  0  0  0
   45.0620   36.6620   42.3880 H   0  0  0  0  0  0  0  0  0  0  0  0
   46.3920   35.6400   41.8050 H   0  0  0  0  0  0  0  0  0  0  0  0
   44.4170   34.8920   41.4130 C   0  0  0  0  0  3  0  0  0  0  0  0
   43.0750   35.5890   41.3090 C   0  0  0  0  0  2  0  0  0  0  0  0
   42.2950   34.5310   40.5440 C   0  0  0  0  0  2  0  0  0  0  0  0
   42.6650   33.2690   41.2990 C   0  0  0  0  0  2  0  0  0  0  0  0
   43.9950   33.5700   42.0010 C   0  0  0  0  0  2  0  0  0  0  0  0
  1  6  1  0  0  0  0
  2  3  1  0  0  0  0
  2  1  2  0  0  0  0
  3  4  2  0  0  0  0
  4  5  1  0  0  0  0
  5  9  1  0  0  0  0
  6  5  2  0  0  0  0
  7  1  1  0  0  0  0
  8  3  1  0  0  0  0
 10 11  1  0  0  0  0
 10  2  1  0  0  0  0
 12 10  1  0  0  0  0
 13 17  1  0  0  0  0
 13 10  1  0  0  0  0
 14 13  1  0  0  0  0
 15 16  1  0  0  0  0
 15 14  1  0  0  0  0
 16 17  1  0  0  0  0
M  END
>  <minimizedAffinity>
-3.72253251

>  <minimizedRMSD>
1.4412595

$$$$
