
 OpenBabel03252503133D

 30 33  0  0  0  0  0  0  0  0999 V2000
   45.5480   36.2130   43.2640 C   0  0  0  0  0  0  0  0  0  0  0  0
   46.1910   34.9760   43.0310 C   0  0  0  0  0  0  0  0  0  0  0  0
   45.9360   34.0070   43.9790 C   0  0  0  0  0  0  0  0  0  0  0  0
   45.1320   34.2200   45.0520 N   0  0  0  0  0  0  0  0  0  0  0  0
   44.5420   35.4340   45.2210 C   0  0  0  0  0  0  0  0  0  0  0  0
   44.7520   36.4200   44.3280 N   0  0  0  0  0  0  0  0  0  0  0  0
   45.7250   37.0120   42.5310 H   0  0  0  0  0  0  0  0  0  0  0  0
   43.9070   35.5720   46.0860 H   0  0  0  0  0  0  0  0  0  0  0  0
   46.5350   32.7460   43.8330 C   0  0  0  0  0  0  0  0  0  0  0  0
   47.7790   32.2470   44.0920 C   0  0  0  0  0  0  0  0  0  0  0  0
   48.1100   30.9820   43.8610 C   0  0  0  0  0  0  0  0  0  0  0  0
   47.1150   30.1780   43.3360 C   0  0  0  0  0  0  0  0  0  0  0  0
   45.6880   31.3220   43.1900 S   0  0  0  0  0  0  0  0  0  0  0  0
   48.4990   32.9800   44.5120 H   0  0  0  0  0  0  0  0  0  0  0  0
   49.0700   30.5150   44.0400 H   0  0  0  0  0  0  0  0  0  0  0  0
   47.1080   29.1410   43.0600 H   0  0  0  0  0  0  0  0  0  0  0  0
   47.0140   34.8090   41.9020 C   0  0  0  0  0  0  0  0  0  0  0  0
   48.2110   35.2100   42.0230 O   0  0  0  0  0  0  0  0  0  0  0  0
   46.4640   34.1900   40.6520 C   0  0  0  0  0  0  0  0  0  0  0  0
   45.1430   33.9130   40.3840 C   0  0  0  0  0  0  0  0  0  0  0  0
   45.1250   33.3660   39.1550 N   0  0  0  0  0  0  0  0  0  0  0  0
   46.4100   33.3130   38.6860 C   0  0  0  0  0  0  0  0  0  0  0  0
   47.2290   33.8230   39.6140 N   0  0  0  0  0  0  0  0  0  0  0  0
   44.3790   34.1370   41.0970 H   0  0  0  0  0  0  0  0  0  0  0  0
   44.2400   33.0630   38.7100 H   0  0  0  0  0  0  0  0  0  0  0  0
   46.7840   32.7610   37.3390 C   0  0  0  0  0  0  0  0  0  0  0  0
   47.1040   31.3020   37.3750 C   0  0  0  0  0  0  0  0  0  0  0  0
   48.6130   31.2330   37.3320 C   0  0  0  0  0  0  0  0  0  0  0  0
   49.0870   32.4790   36.6440 C   0  0  0  0  0  0  0  0  0  0  0  0
   47.9800   33.4880   36.7720 C   0  0  0  0  0  0  0  0  0  0  0  0
  1  6  1  0  0  0  0
  2  1  2  0  0  0  0
  2  3  1  0  0  0  0
  3  4  2  0  0  0  0
  4  5  1  0  0  0  0
  5  8  1  0  0  0  0
  6  5  2  0  0  0  0
  7  1  1  0  0  0  0
  9  3  1  0  0  0  0
  9 10  2  0  0  0  0
 10 14  1  0  0  0  0
 11 15  1  0  0  0  0
 11 10  1  0  0  0  0
 12 11  2  0  0  0  0
 13 12  1  0  0  0  0
 13  9  1  0  0  0  0
 16 12  1  0  0  0  0
 17 18  2  0  0  0  0
 17  2  1  0  0  0  0
 19 17  1  0  0  0  0
 20 19  2  0  0  0  0
 20 24  1  0  0  0  0
 21 20  1  0  0  0  0
 22 21  1  0  0  0  0
 22 23  2  0  0  0  0
 23 19  1  0  0  0  0
 25 21  1  0  0  0  0
 26 27  1  0  0  0  0
 26 22  1  0  0  0  0
 28 27  1  0  0  0  0
 29 30  1  0  0  0  0
 29 28  1  0  0  0  0
 30 26  1  0  0  0  0
M  END
>  <minimizedAffinity>
-4.75879192

>  <minimizedRMSD>
1.12819803

$$$$
