
 OpenBabel03252508123D

 26 28  0  0  1  0  0  0  0  0999 V2000
   36.1910   28.8240   41.5400 C   0  0  0  0  0  0  0  0  0  0  0  0
   36.1470   28.1750   40.6510 H   0  0  0  0  0  0  0  0  0  0  0  0
   35.1130   28.9280   41.8530 H   0  0  0  0  0  0  0  0  0  0  0  0
   37.0290   28.3040   42.6750 C   0  0  1  0  0  0  0  0  0  0  0  0
   36.3510   27.3770   43.6330 C   0  0  0  0  0  0  0  0  0  0  0  0
   37.4010   26.8710   42.7550 C   0  0  1  0  0  0  0  0  0  0  0  0
   37.6110   29.0910   43.2480 H   0  0  0  0  0  0  0  0  0  0  0  0
   36.5070   27.4620   44.7270 H   0  0  0  0  0  0  0  0  0  0  0  0
   35.2900   27.1480   43.3990 H   0  0  0  0  0  0  0  0  0  0  0  0
   38.3730   26.6520   43.2870 H   0  0  0  0  0  0  0  0  0  0  0  0
   37.2230   26.0090   41.5540 C   0  0  0  0  0  3  0  0  0  0  0  0
   38.4830   26.0080   40.7410 C   0  0  0  0  0  2  0  0  0  0  0  0
   39.2680   24.8260   41.2470 C   0  0  0  0  0  2  0  0  0  0  0  0
   38.3530   23.9980   42.0980 C   0  0  0  0  0  2  0  0  0  0  0  0
   36.9900   24.5870   41.9270 C   0  0  0  0  0  2  0  0  0  0  0  0
   37.9410   30.4470   41.3680 C   0  0  0  0  0  3  0  0  0  0  0  0
   36.7120   30.1620   41.0890 C   0  0  0  0  0  3  0  0  0  0  0  0
   40.2800   33.1630   40.6160 C   0  0  0  0  0  0  0  0  0  0  0  0
   39.4570   34.1610   40.0820 C   0  0  0  0  0  0  0  0  0  0  0  0
   38.1160   33.8820   39.9990 C   0  0  0  0  0  0  0  0  0  0  0  0
   37.6770   32.6860   40.4270 N   0  0  0  0  0  0  0  0  0  0  0  0
   38.4700   31.7360   40.9360 C   0  0  0  0  0  0  0  0  0  0  0  0
   39.7760   31.9850   41.0270 N   0  0  0  0  0  0  0  0  0  0  0  0
   41.3280   33.4320   40.6600 H   0  0  0  0  0  0  0  0  0  0  0  0
   39.7640   35.1220   39.7310 H   0  0  0  0  0  0  0  0  0  0  0  0
   37.3640   34.5510   39.6110 H   0  0  0  0  0  0  0  0  0  0  0  0
  1  3  1  0  0  0  0
  1  4  1  0  0  0  0
  2  1  1  0  0  0  0
  4  6  1  0  0  0  0
  4  7  1  1  0  0  0
  4  5  1  0  0  0  0
  5  8  1  0  0  0  0
  6 10  1  1  0  0  0
  6  5  1  0  0  0  0
  9  5  1  0  0  0  0
 11 15  1  0  0  0  0
 11  6  1  0  0  0  0
 12 13  1  0  0  0  0
 12 11  1  0  0  0  0
 13 14  1  0  0  0  0
 15 14  1  0  0  0  0
 17 16  2  0  0  0  0
 17  1  1  0  0  0  0
 18 24  1  0  0  0  0
 18 23  1  0  0  0  0
 19 18  2  0  0  0  0
 20 19  1  0  0  0  0
 20 21  2  0  0  0  0
 21 22  1  0  0  0  0
 22 23  2  0  0  0  0
 22 16  1  0  0  0  0
 25 19  1  0  0  0  0
 26 20  1  0  0  0  0
M  END
>  <minimizedAffinity>
-4.956357

$$$$

 OpenBabel03252508123D

 26 28  0  0  1  0  0  0  0  0999 V2000
   38.0800   28.0890   43.6800 C   0  0  0  0  0  0  0  0  0  0  0  0
   37.1300   27.5620   43.8610 H   0  0  0  0  0  0  0  0  0  0  0  0
   38.4370   28.3670   44.7130 H   0  0  0  0  0  0  0  0  0  0  0  0
   39.1270   27.2950   42.9490 C   0  0  1  0  0  0  0  0  0  0  0  0
   39.4190   25.9290   43.4820 C   0  0  0  0  0  0  0  0  0  0  0  0
   38.7670   26.0770   42.1850 C   0  0  1  0  0  0  0  0  0  0  0  0
   40.0990   27.8440   42.7480 H   0  0  0  0  0  0  0  0  0  0  0  0
   40.4570   25.5500   43.5640 H   0  0  0  0  0  0  0  0  0  0  0  0
   38.8140   25.6250   44.3620 H   0  0  0  0  0  0  0  0  0  0  0  0
   39.4380   25.8380   41.3080 H   0  0  0  0  0  0  0  0  0  0  0  0
   37.3340   25.8180   41.8700 C   0  0  0  0  0  3  0  0  0  0  0  0
   37.1000   25.9920   40.4000 C   0  0  0  0  0  2  0  0  0  0  0  0
   37.2880   24.6160   39.8140 C   0  0  0  0  0  2  0  0  0  0  0  0
   37.3180   23.6350   40.9470 C   0  0  0  0  0  2  0  0  0  0  0  0
   36.9510   24.4110   42.1710 C   0  0  0  0  0  2  0  0  0  0  0  0
   38.6530   29.7880   42.0940 C   0  0  0  0  0  3  0  0  0  0  0  0
   37.7550   29.3400   42.9090 C   0  0  0  0  0  3  0  0  0  0  0  0
   36.9500   32.1870   39.9140 C   0  0  0  0  0  0  0  0  0  0  0  0
   37.8000   33.2980   39.9280 C   0  0  0  0  0  0  0  0  0  0  0  0
   38.9430   33.1960   40.6800 C   0  0  0  0  0  0  0  0  0  0  0  0
   39.1760   32.0540   41.3500 N   0  0  0  0  0  0  0  0  0  0  0  0
   38.3590   30.9960   41.3320 C   0  0  0  0  0  0  0  0  0  0  0  0
   37.2420   31.0720   40.6070 N   0  0  0  0  0  0  0  0  0  0  0  0
   36.0630   32.3170   39.3060 H   0  0  0  0  0  0  0  0  0  0  0  0
   37.6520   34.2220   39.4120 H   0  0  0  0  0  0  0  0  0  0  0  0
   39.6890   33.9680   40.7860 H   0  0  0  0  0  0  0  0  0  0  0  0
  1  2  1  0  0  0  0
  1  3  1  0  0  0  0
  4  7  1  6  0  0  0
  4  5  1  0  0  0  0
  4  1  1  0  0  0  0
  5  8  1  0  0  0  0
  5  9  1  0  0  0  0
  6 10  1  6  0  0  0
  6  4  1  0  0  0  0
  6  5  1  0  0  0  0
 11 15  1  0  0  0  0
 11  6  1  0  0  0  0
 12 11  1  0  0  0  0
 13 12  1  0  0  0  0
 13 14  1  0  0  0  0
 14 15  1  0  0  0  0
 16 17  2  0  0  0  0
 17  1  1  0  0  0  0
 18 19  2  0  0  0  0
 18 23  1  0  0  0  0
 19 20  1  0  0  0  0
 20 26  1  0  0  0  0
 20 21  2  0  0  0  0
 22 21  1  0  0  0  0
 22 16  1  0  0  0  0
 23 22  2  0  0  0  0
 24 18  1  0  0  0  0
 25 19  1  0  0  0  0
M  END
>  <minimizedAffinity>
-4.84481382

$$$$

 OpenBabel03252508123D

 26 28  0  0  1  0  0  0  0  0999 V2000
   38.8750   28.3140   43.1650 C   0  0  0  0  0  0  0  0  0  0  0  0
   39.5010   28.3650   44.0700 H   0  0  0  0  0  0  0  0  0  0  0  0
   39.4220   27.5890   42.4970 H   0  0  0  0  0  0  0  0  0  0  0  0
   37.4570   27.8670   43.3890 C   0  0  1  0  0  0  0  0  0  0  0  0
   36.5140   28.0440   42.2420 C   0  0  0  0  0  0  0  0  0  0  0  0
   36.9010   26.7000   42.6630 C   0  0  1  0  0  0  0  0  0  0  0  0
   36.9750   28.2430   44.3440 H   0  0  0  0  0  0  0  0  0  0  0  0
   35.4820   28.4190   42.3950 H   0  0  0  0  0  0  0  0  0  0  0  0
   36.9620   28.4750   41.3230 H   0  0  0  0  0  0  0  0  0  0  0  0
   36.0820   26.1390   43.2020 H   0  0  0  0  0  0  0  0  0  0  0  0
   37.8310   25.7760   41.9570 C   0  0  0  0  0  3  0  0  0  0  0  0
   37.3880   24.3590   42.1610 C   0  0  0  0  0  2  0  0  0  0  0  0
   36.4930   24.0610   40.9870 C   0  0  0  0  0  2  0  0  0  0  0  0
   36.6700   25.1620   39.9840 C   0  0  0  0  0  2  0  0  0  0  0  0
   37.8080   25.9920   40.4840 C   0  0  0  0  0  2  0  0  0  0  0  0
   39.7140   29.8810   41.5630 C   0  0  0  0  0  3  0  0  0  0  0  0
   38.8880   29.6810   42.5360 C   0  0  0  0  0  3  0  0  0  0  0  0
   38.9850   33.3950   40.8340 C   0  0  0  0  0  0  0  0  0  0  0  0
   39.8300   33.6840   39.7570 C   0  0  0  0  0  0  0  0  0  0  0  0
   40.6260   32.6640   39.3000 C   0  0  0  0  0  0  0  0  0  0  0  0
   40.5500   31.4660   39.9040 N   0  0  0  0  0  0  0  0  0  0  0  0
   39.7400   31.1970   40.9330 C   0  0  0  0  0  0  0  0  0  0  0  0
   38.9570   32.1720   41.3940 N   0  0  0  0  0  0  0  0  0  0  0  0
   38.3780   34.2320   41.1560 H   0  0  0  0  0  0  0  0  0  0  0  0
   39.9210   34.6210   39.2510 H   0  0  0  0  0  0  0  0  0  0  0  0
   41.3240   32.7390   38.4810 H   0  0  0  0  0  0  0  0  0  0  0  0
  1  4  1  0  0  0  0
  1  2  1  0  0  0  0
  3  1  1  0  0  0  0
  4  7  1  1  0  0  0
  5  8  1  0  0  0  0
  5  6  1  0  0  0  0
  5  4  1  0  0  0  0
  6 10  1  1  0  0  0
  6  4  1  0  0  0  0
  9  5  1  0  0  0  0
 11 12  1  0  0  0  0
 11  6  1  0  0  0  0
 13 12  1  0  0  0  0
 14 15  1  0  0  0  0
 14 13  1  0  0  0  0
 15 11  1  0  0  0  0
 16 17  2  0  0  0  0
 17  1  1  0  0  0  0
 18 24  1  0  0  0  0
 18 23  1  0  0  0  0
 19 18  2  0  0  0  0
 20 19  1  0  0  0  0
 20 21  2  0  0  0  0
 21 22  1  0  0  0  0
 22 23  2  0  0  0  0
 22 16  1  0  0  0  0
 25 19  1  0  0  0  0
 26 20  1  0  0  0  0
M  END
>  <minimizedAffinity>
-4.79557991

$$$$

 OpenBabel03252508123D

 26 28  0  0  1  0  0  0  0  0999 V2000
   36.5910   28.6400   41.6200 C   0  0  0  0  0  0  0  0  0  0  0  0
   37.1100   28.0030   40.8860 H   0  0  0  0  0  0  0  0  0  0  0  0
   35.5040   28.5550   41.3330 H   0  0  0  0  0  0  0  0  0  0  0  0
   36.7940   28.2580   43.0600 C   0  0  1  0  0  0  0  0  0  0  0  0
   36.5780   26.8190   43.4040 C   0  0  0  0  0  0  0  0  0  0  0  0
   37.9220   27.3860   43.4670 C   0  0  1  0  0  0  0  0  0  0  0  0
   36.2640   28.9180   43.8150 H   0  0  0  0  0  0  0  0  0  0  0  0
   36.0370   26.5200   44.3230 H   0  0  0  0  0  0  0  0  0  0  0  0
   36.3050   26.1650   42.5500 H   0  0  0  0  0  0  0  0  0  0  0  0
   38.3010   27.5430   44.5190 H   0  0  0  0  0  0  0  0  0  0  0  0
   39.0370   27.1510   42.5080 C   0  0  0  0  0  3  0  0  0  0  0  0
   40.3500   27.2970   43.2150 C   0  0  0  0  0  2  0  0  0  0  0  0
   40.6970   25.9050   43.6760 C   0  0  0  0  0  2  0  0  0  0  0  0
   39.7710   24.9490   42.9860 C   0  0  0  0  0  2  0  0  0  0  0  0
   39.0220   25.7600   41.9780 C   0  0  0  0  0  2  0  0  0  0  0  0
   38.1590   30.2180   40.7360 C   0  0  0  0  0  3  0  0  0  0  0  0
   37.0580   30.0520   41.3930 C   0  0  0  0  0  3  0  0  0  0  0  0
   40.3780   33.0650   40.1200 C   0  0  0  0  0  0  0  0  0  0  0  0
   39.4960   34.1460   40.0150 C   0  0  0  0  0  0  0  0  0  0  0  0
   38.1590   33.8750   40.1660 C   0  0  0  0  0  0  0  0  0  0  0  0
   37.7800   32.6070   40.4010 N   0  0  0  0  0  0  0  0  0  0  0  0
   38.6290   31.5780   40.4990 C   0  0  0  0  0  0  0  0  0  0  0  0
   39.9320   31.8180   40.3580 N   0  0  0  0  0  0  0  0  0  0  0  0
   41.4200   33.3310   39.9950 H   0  0  0  0  0  0  0  0  0  0  0  0
   39.7550   35.1660   39.8300 H   0  0  0  0  0  0  0  0  0  0  0  0
   37.3670   34.6040   40.1110 H   0  0  0  0  0  0  0  0  0  0  0  0
  1  4  1  0  0  0  0
  2  1  1  0  0  0  0
  3  1  1  0  0  0  0
  4  5  1  0  0  0  0
  4  6  1  0  0  0  0
  4  7  1  1  0  0  0
  5  6  1  0  0  0  0
  5  8  1  0  0  0  0
  6 10  1  1  0  0  0
  9  5  1  0  0  0  0
 11 12  1  0  0  0  0
 11  6  1  0  0  0  0
 12 13  1  0  0  0  0
 14 13  1  0  0  0  0
 15 11  1  0  0  0  0
 15 14  1  0  0  0  0
 16 17  2  0  0  0  0
 17  1  1  0  0  0  0
 18 23  1  0  0  0  0
 19 18  2  0  0  0  0
 19 20  1  0  0  0  0
 20 21  2  0  0  0  0
 21 22  1  0  0  0  0
 22 16  1  0  0  0  0
 23 22  2  0  0  0  0
 24 18  1  0  0  0  0
 25 19  1  0  0  0  0
 26 20  1  0  0  0  0
M  END
>  <minimizedAffinity>
-4.58567858

$$$$

 OpenBabel03252508123D

 26 28  0  0  1  0  0  0  0  0999 V2000
   37.2650   29.6360   38.5180 C   0  0  0  0  0  0  0  0  0  0  0  0
   37.8860   28.7610   38.7710 H   0  0  0  0  0  0  0  0  0  0  0  0
   36.7540   29.3370   37.5590 H   0  0  0  0  0  0  0  0  0  0  0  0
   36.2560   30.0300   39.5610 C   0  0  1  0  0  0  0  0  0  0  0  0
   35.2030   29.0190   39.8840 C   0  0  0  0  0  0  0  0  0  0  0  0
   36.2160   29.3540   40.8800 C   0  0  1  0  0  0  0  0  0  0  0  0
   35.7780   31.0480   39.4120 H   0  0  0  0  0  0  0  0  0  0  0  0
   34.1430   29.3110   40.0210 H   0  0  0  0  0  0  0  0  0  0  0  0
   35.2820   28.0600   39.3310 H   0  0  0  0  0  0  0  0  0  0  0  0
   35.8250   29.9810   41.7340 H   0  0  0  0  0  0  0  0  0  0  0  0
   37.3720   28.5130   41.2970 C   0  0  0  0  0  3  0  0  0  0  0  0
   38.0650   29.1490   42.4640 C   0  0  0  0  0  2  0  0  0  0  0  0
   37.4160   28.5360   43.6780 C   0  0  0  0  0  2  0  0  0  0  0  0
   36.6020   27.3630   43.2200 C   0  0  0  0  0  2  0  0  0  0  0  0
   36.9340   27.1730   41.7750 C   0  0  0  0  0  2  0  0  0  0  0  0
   39.1890   30.9500   39.0660 C   0  0  0  0  0  3  0  0  0  0  0  0
   38.2000   30.7840   38.2510 C   0  0  0  0  0  3  0  0  0  0  0  0
   41.6620   33.1140   37.4500 C   0  0  0  0  0  0  0  0  0  0  0  0
   41.8220   34.1610   38.3640 C   0  0  0  0  0  0  0  0  0  0  0  0
   41.0830   34.0970   39.5180 C   0  0  0  0  0  0  0  0  0  0  0  0
   40.2600   33.0500   39.7010 N   0  0  0  0  0  0  0  0  0  0  0  0
   40.1120   32.0530   38.8230 C   0  0  0  0  0  0  0  0  0  0  0  0
   40.8210   32.0930   37.6950 N   0  0  0  0  0  0  0  0  0  0  0  0
   42.2680   33.2110   36.5570 H   0  0  0  0  0  0  0  0  0  0  0  0
   42.4630   35.0100   38.2570 H   0  0  0  0  0  0  0  0  0  0  0  0
   41.1020   34.8300   40.3100 H   0  0  0  0  0  0  0  0  0  0  0  0
  1  2  1  0  0  0  0
  1  4  1  0  0  0  0
  3  1  1  0  0  0  0
  4  7  1  6  0  0  0
  4  5  1  0  0  0  0
  4  6  1  0  0  0  0
  5  8  1  0  0  0  0
  5  6  1  0  0  0  0
  6 11  1  0  0  0  0
  6 10  1  1  0  0  0
  9  5  1  0  0  0  0
 11 15  1  0  0  0  0
 11 12  1  0  0  0  0
 12 13  1  0  0  0  0
 14 13  1  0  0  0  0
 15 14  1  0  0  0  0
 17  1  1  0  0  0  0
 17 16  2  0  0  0  0
 18 23  2  0  0  0  0
 18 19  1  0  0  0  0
 19 20  2  0  0  0  0
 20 21  1  0  0  0  0
 20 26  1  0  0  0  0
 22 16  1  0  0  0  0
 22 21  2  0  0  0  0
 23 22  1  0  0  0  0
 24 18  1  0  0  0  0
 25 19  1  0  0  0  0
M  END
>  <minimizedAffinity>
-4.56588554

$$$$

 OpenBabel03252508123D

 26 28  0  0  1  0  0  0  0  0999 V2000
   35.8580   29.6750   38.0610 C   0  0  0  0  0  0  0  0  0  0  0  0
   35.2790   30.3660   38.6940 H   0  0  0  0  0  0  0  0  0  0  0  0
   35.2540   29.6070   37.1100 H   0  0  0  0  0  0  0  0  0  0  0  0
   37.2690   30.1030   37.7660 C   0  0  1  0  0  0  0  0  0  0  0  0
   37.4320   31.3300   36.9270 C   0  0  0  0  0  0  0  0  0  0  0  0
   37.8210   31.3570   38.3330 C   0  0  1  0  0  0  0  0  0  0  0  0
   37.9540   29.2830   37.3850 H   0  0  0  0  0  0  0  0  0  0  0  0
   38.1890   31.3810   36.1190 H   0  0  0  0  0  0  0  0  0  0  0  0
   36.4850   31.8190   36.6160 H   0  0  0  0  0  0  0  0  0  0  0  0
   38.9390   31.3640   38.4960 H   0  0  0  0  0  0  0  0  0  0  0  0
   37.0960   32.0270   39.4480 C   0  0  0  0  0  3  0  0  0  0  0  0
   37.7160   31.6410   40.7570 C   0  0  0  0  0  2  0  0  0  0  0  0
   38.7440   32.7080   41.0280 C   0  0  0  0  0  2  0  0  0  0  0  0
   38.5030   33.8320   40.0650 C   0  0  0  0  0  2  0  0  0  0  0  0
   37.2190   33.5090   39.3710 C   0  0  0  0  0  2  0  0  0  0  0  0
   36.8150   28.1000   39.5870 C   0  0  0  0  0  3  0  0  0  0  0  0
   35.8610   28.3370   38.7480 C   0  0  0  0  0  3  0  0  0  0  0  0
   37.1730   25.5670   42.2060 C   0  0  0  0  0  0  0  0  0  0  0  0
   36.8340   24.3760   41.5550 C   0  0  0  0  0  0  0  0  0  0  0  0
   36.4960   24.4690   40.2270 C   0  0  0  0  0  0  0  0  0  0  0  0
   36.5110   25.6780   39.6400 N   0  0  0  0  0  0  0  0  0  0  0  0
   36.8360   26.8110   40.2700 C   0  0  0  0  0  0  0  0  0  0  0  0
   37.1680   26.7460   41.5590 N   0  0  0  0  0  0  0  0  0  0  0  0
   37.4310   25.4400   43.2510 H   0  0  0  0  0  0  0  0  0  0  0  0
   36.8090   23.3980   41.9830 H   0  0  0  0  0  0  0  0  0  0  0  0
   36.2140   23.6400   39.5980 H   0  0  0  0  0  0  0  0  0  0  0  0
  1  2  1  0  0  0  0
  1 17  1  0  0  0  0
  3  1  1  0  0  0  0
  4  7  1  6  0  0  0
  4  1  1  0  0  0  0
  4  6  1  0  0  0  0
  5  4  1  0  0  0  0
  5  6  1  0  0  0  0
  6 10  1  1  0  0  0
  6 11  1  0  0  0  0
  8  5  1  0  0  0  0
  9  5  1  0  0  0  0
 11 12  1  0  0  0  0
 12 13  1  0  0  0  0
 14 13  1  0  0  0  0
 15 11  1  0  0  0  0
 15 14  1  0  0  0  0
 16 22  1  0  0  0  0
 17 16  2  0  0  0  0
 18 24  1  0  0  0  0
 19 25  1  0  0  0  0
 19 18  2  0  0  0  0
 20 19  1  0  0  0  0
 21 20  2  0  0  0  0
 21 22  1  0  0  0  0
 22 23  2  0  0  0  0
 23 18  1  0  0  0  0
 26 20  1  0  0  0  0
M  END
>  <minimizedAffinity>
-4.5286026

$$$$

 OpenBabel03252508123D

 26 28  0  0  1  0  0  0  0  0999 V2000
   36.1310   29.4480   39.2030 C   0  0  0  0  0  0  0  0  0  0  0  0
   35.3550   29.6220   38.4390 H   0  0  0  0  0  0  0  0  0  0  0  0
   37.0960   29.6800   38.6670 H   0  0  0  0  0  0  0  0  0  0  0  0
   36.0020   30.2770   40.4510 C   0  0  1  0  0  0  0  0  0  0  0  0
   37.2340   30.4210   41.2850 C   0  0  0  0  0  0  0  0  0  0  0  0
   36.6980   31.5800   40.5780 C   0  0  1  0  0  0  0  0  0  0  0  0
   35.1170   30.0220   41.1130 H   0  0  0  0  0  0  0  0  0  0  0  0
   37.1950   30.3530   42.3910 H   0  0  0  0  0  0  0  0  0  0  0  0
   38.1360   29.9120   40.8880 H   0  0  0  0  0  0  0  0  0  0  0  0
   36.1970   32.3340   41.2530 H   0  0  0  0  0  0  0  0  0  0  0  0
   37.2620   32.2210   39.3570 C   0  0  0  0  0  3  0  0  0  0  0  0
   37.1430   33.7110   39.4680 C   0  0  0  0  0  2  0  0  0  0  0  0
   38.4460   34.1570   40.0810 C   0  0  0  0  0  2  0  0  0  0  0  0
   39.3960   32.9990   40.0310 C   0  0  0  0  0  2  0  0  0  0  0  0
   38.7180   31.9470   39.2140 C   0  0  0  0  0  2  0  0  0  0  0  0
   37.2180   27.3980   39.7860 C   0  0  0  0  0  3  0  0  0  0  0  0
   36.0910   27.9860   39.5530 C   0  0  0  0  0  3  0  0  0  0  0  0
   36.2720   23.8620   39.9010 C   0  0  0  0  0  0  0  0  0  0  0  0
   37.2160   23.3030   40.7690 C   0  0  0  0  0  0  0  0  0  0  0  0
   38.1520   24.1540   41.3020 C   0  0  0  0  0  0  0  0  0  0  0  0
   38.1090   25.4530   40.9640 N   0  0  0  0  0  0  0  0  0  0  0  0
   37.2040   25.9810   40.1330 C   0  0  0  0  0  0  0  0  0  0  0  0
   36.2840   25.1740   39.6040 N   0  0  0  0  0  0  0  0  0  0  0  0
   35.5560   23.1500   39.5090 H   0  0  0  0  0  0  0  0  0  0  0  0
   37.2850   22.2780   41.0630 H   0  0  0  0  0  0  0  0  0  0  0  0
   38.9380   23.8660   41.9820 H   0  0  0  0  0  0  0  0  0  0  0  0
  1 17  1  0  0  0  0
  1  4  1  0  0  0  0
  2  1  1  0  0  0  0
  3  1  1  0  0  0  0
  4  6  1  0  0  0  0
  4  7  1  1  0  0  0
  4  5  1  0  0  0  0
  5  8  1  0  0  0  0
  6 10  1  1  0  0  0
  6  5  1  0  0  0  0
  9  5  1  0  0  0  0
 11 12  1  0  0  0  0
 11  6  1  0  0  0  0
 12 13  1  0  0  0  0
 14 13  1  0  0  0  0
 15 11  1  0  0  0  0
 15 14  1  0  0  0  0
 16 22  1  0  0  0  0
 17 16  2  0  0  0  0
 18 19  1  0  0  0  0
 19 25  1  0  0  0  0
 19 20  2  0  0  0  0
 20 26  1  0  0  0  0
 21 20  1  0  0  0  0
 22 21  2  0  0  0  0
 23 18  2  0  0  0  0
 23 22  1  0  0  0  0
 24 18  1  0  0  0  0
M  END
>  <minimizedAffinity>
-4.27449799

$$$$

 OpenBabel03252508123D

 26 28  0  0  1  0  0  0  0  0999 V2000
   35.6540   30.0030   40.6440 C   0  0  0  0  0  0  0  0  0  0  0  0
   35.3290   29.8150   41.6800 H   0  0  0  0  0  0  0  0  0  0  0  0
   35.4820   31.1080   40.5020 H   0  0  0  0  0  0  0  0  0  0  0  0
   37.0830   29.6430   40.3450 C   0  0  1  0  0  0  0  0  0  0  0  0
   38.1160   30.1780   41.2840 C   0  0  0  0  0  0  0  0  0  0  0  0
   37.8490   28.7440   41.2410 C   0  0  1  0  0  0  0  0  0  0  0  0
   37.4120   29.8170   39.2730 H   0  0  0  0  0  0  0  0  0  0  0  0
   39.0730   30.5960   40.9140 H   0  0  0  0  0  0  0  0  0  0  0  0
   37.7200   30.7790   42.1300 H   0  0  0  0  0  0  0  0  0  0  0  0
   38.6660   28.1440   40.7430 H   0  0  0  0  0  0  0  0  0  0  0  0
   37.1150   27.9400   42.2580 C   0  0  0  0  0  3  0  0  0  0  0  0
   37.2270   26.4830   41.9270 C   0  0  0  0  0  2  0  0  0  0  0  0
   38.4360   26.0060   42.6890 C   0  0  0  0  0  2  0  0  0  0  0  0
   38.8150   27.0780   43.6660 C   0  0  0  0  0  2  0  0  0  0  0  0
   37.7150   28.0880   43.6130 C   0  0  0  0  0  2  0  0  0  0  0  0
   35.1580   28.9500   38.5540 C   0  0  0  0  0  3  0  0  0  0  0  0
   34.7310   29.2320   39.7400 C   0  0  0  0  0  3  0  0  0  0  0  0
   33.6850   26.1880   36.6530 C   0  0  0  0  0  0  0  0  0  0  0  0
   32.5990   26.7850   36.0020 C   0  0  0  0  0  0  0  0  0  0  0  0
   32.4020   28.1250   36.2250 C   0  0  0  0  0  0  0  0  0  0  0  0
   33.2480   28.7750   37.0430 N   0  0  0  0  0  0  0  0  0  0  0  0
   34.2830   28.1980   37.6610 C   0  0  0  0  0  0  0  0  0  0  0  0
   34.4950   26.8970   37.4590 N   0  0  0  0  0  0  0  0  0  0  0  0
   33.7970   25.1310   36.4440 H   0  0  0  0  0  0  0  0  0  0  0  0
   31.9050   26.3060   35.3470 H   0  0  0  0  0  0  0  0  0  0  0  0
   31.6100   28.7170   35.7940 H   0  0  0  0  0  0  0  0  0  0  0  0
  1  2  1  0  0  0  0
  3  1  1  0  0  0  0
  4  7  1  6  0  0  0
  4  1  1  0  0  0  0
  4  6  1  0  0  0  0
  4  5  1  0  0  0  0
  5  9  1  0  0  0  0
  6 10  1  6  0  0  0
  6  5  1  0  0  0  0
  6 11  1  0  0  0  0
  8  5  1  0  0  0  0
 11 15  1  0  0  0  0
 12 11  1  0  0  0  0
 12 13  1  0  0  0  0
 13 14  1  0  0  0  0
 15 14  1  0  0  0  0
 16 17  2  0  0  0  0
 17  1  1  0  0  0  0
 18 23  1  0  0  0  0
 19 20  1  0  0  0  0
 19 18  2  0  0  0  0
 20 21  2  0  0  0  0
 21 22  1  0  0  0  0
 22 16  1  0  0  0  0
 23 22  2  0  0  0  0
 24 18  1  0  0  0  0
 25 19  1  0  0  0  0
 26 20  1  0  0  0  0
M  END
>  <minimizedAffinity>
-4.19376755

$$$$

 OpenBabel03252508123D

 26 28  0  0  1  0  0  0  0  0999 V2000
   33.2390   28.6050   37.2860 C   0  0  0  0  0  0  0  0  0  0  0  0
   32.3410   28.8700   37.8660 H   0  0  0  0  0  0  0  0  0  0  0  0
   33.1570   27.4880   37.1540 H   0  0  0  0  0  0  0  0  0  0  0  0
   33.3690   29.2900   35.9540 C   0  0  1  0  0  0  0  0  0  0  0  0
   32.7860   28.5750   34.7770 C   0  0  0  0  0  0  0  0  0  0  0  0
   32.1780   29.8160   35.2460 C   0  0  1  0  0  0  0  0  0  0  0  0
   34.4110   29.6620   35.7000 H   0  0  0  0  0  0  0  0  0  0  0  0
   33.3210   28.5270   33.8070 H   0  0  0  0  0  0  0  0  0  0  0  0
   32.2940   27.6080   35.0080 H   0  0  0  0  0  0  0  0  0  0  0  0
   32.3670   30.7000   34.5680 H   0  0  0  0  0  0  0  0  0  0  0  0
   30.8970   29.9570   35.9920 C   0  0  0  0  0  3  0  0  0  0  0  0
   30.8380   31.3050   36.6460 C   0  0  0  0  0  2  0  0  0  0  0  0
   30.1410   32.1890   35.6450 C   0  0  0  0  0  2  0  0  0  0  0  0
   29.5430   31.3070   34.5910 C   0  0  0  0  0  2  0  0  0  0  0  0
   29.7210   29.9060   35.0800 C   0  0  0  0  0  2  0  0  0  0  0  0
   34.2390   29.0400   39.4160 C   0  0  0  0  0  3  0  0  0  0  0  0
   34.4340   28.9220   38.1440 C   0  0  0  0  0  3  0  0  0  0  0  0
   37.0440   30.8170   40.9600 C   0  0  0  0  0  0  0  0  0  0  0  0
   37.5180   29.9080   41.9130 C   0  0  0  0  0  0  0  0  0  0  0  0
   36.8680   28.7020   41.9980 C   0  0  0  0  0  0  0  0  0  0  0  0
   35.8310   28.4680   41.1770 N   0  0  0  0  0  0  0  0  0  0  0  0
   35.3830   29.3410   40.2690 C   0  0  0  0  0  0  0  0  0  0  0  0
   35.9990   30.5190   40.1670 N   0  0  0  0  0  0  0  0  0  0  0  0
   37.5900   31.7520   40.9320 H   0  0  0  0  0  0  0  0  0  0  0  0
   38.3370   30.0550   42.5840 H   0  0  0  0  0  0  0  0  0  0  0  0
   37.1210   27.9070   42.6820 H   0  0  0  0  0  0  0  0  0  0  0  0
  1  2  1  0  0  0  0
  1 17  1  0  0  0  0
  3  1  1  0  0  0  0
  4  7  1  6  0  0  0
  4  1  1  0  0  0  0
  5  9  1  0  0  0  0
  5  6  1  0  0  0  0
  5  4  1  0  0  0  0
  6 10  1  6  0  0  0
  6  4  1  0  0  0  0
  6 11  1  0  0  0  0
  8  5  1  0  0  0  0
 11 12  1  0  0  0  0
 13 12  1  0  0  0  0
 14 15  1  0  0  0  0
 14 13  1  0  0  0  0
 15 11  1  0  0  0  0
 16 22  1  0  0  0  0
 17 16  2  0  0  0  0
 18 19  1  0  0  0  0
 19 20  2  0  0  0  0
 19 25  1  0  0  0  0
 20 26  1  0  0  0  0
 21 20  1  0  0  0  0
 22 21  2  0  0  0  0
 23 22  1  0  0  0  0
 23 18  2  0  0  0  0
 24 18  1  0  0  0  0
M  END
>  <minimizedAffinity>
-4.17276049

$$$$
