
 OpenBabel03252505403D

 24 26  0  0  1  0  0  0  0  0999 V2000
   46.5100   33.0930   45.0500 C   0  0  0  0  0  0  0  0  0  0  0  0
   47.6010   32.9350   44.1560 C   0  0  0  0  0  0  0  0  0  0  0  0
   47.6750   33.7830   43.0570 C   0  0  0  0  0  0  0  0  0  0  0  0
   46.7020   34.7210   42.8950 N   0  0  0  0  0  0  0  0  0  0  0  0
   45.6760   34.8390   43.7710 C   0  0  0  0  0  0  0  0  0  0  0  0
   45.5920   34.0190   44.8480 N   0  0  0  0  0  0  0  0  0  0  0  0
   48.3280   32.1790   44.3430 H   0  0  0  0  0  0  0  0  0  0  0  0
   48.4840   33.7080   42.3430 H   0  0  0  0  0  0  0  0  0  0  0  0
   46.3880   32.2020   46.2310 C   0  0  1  0  0  0  0  0  0  0  0  0
   45.8510   30.7940   45.8920 C   0  0  0  0  0  0  0  0  0  0  0  0
   47.2400   31.0200   46.3870 C   0  0  2  0  0  0  0  0  0  0  0  0
   45.8030   32.6910   47.0430 H   0  0  0  0  0  0  0  0  0  0  0  0
   45.7570   30.5340   44.8290 H   0  0  0  0  0  0  0  0  0  0  0  0
   45.1590   30.3330   46.6080 H   0  0  0  0  0  0  0  0  0  0  0  0
   48.0770   30.9560   45.6240 H   0  0  0  0  0  0  0  0  0  0  0  0
   47.6900   30.7180   47.7680 C   0  0  0  0  0  3  0  0  0  0  0  0
   48.9130   29.8430   47.7960 C   0  0  0  0  0  2  0  0  0  0  0  0
   49.3210   29.9820   49.2650 C   0  0  0  0  0  2  0  0  0  0  0  0
   49.3230   31.5060   49.3800 C   0  0  0  0  0  2  0  0  0  0  0  0
   48.0880   31.9110   48.5930 C   0  0  0  0  0  2  0  0  0  0  0  0
   44.7040   35.9220   43.4110 C   0  0  0  0  0  0  0  0  0  0  0  0
   43.6330   35.9570   44.2700 F   0  0  0  0  0  0  0  0  0  0  0  0
   44.2220   35.7070   42.1170 F   0  0  0  0  0  0  0  0  0  0  0  0
   45.3850   37.1320   43.3650 F   0  0  0  0  0  0  0  0  0  0  0  0
  1  9  1  0  0  0  0
  2  7  1  0  0  0  0
  2  1  2  0  0  0  0
  3  2  1  0  0  0  0
  4  3  2  0  0  0  0
  4  5  1  0  0  0  0
  5  6  2  0  0  0  0
  6  1  1  0  0  0  0
  8  3  1  0  0  0  0
  9 11  1  0  0  0  0
  9 12  1  1  0  0  0
 10  9  1  0  0  0  0
 10 11  1  0  0  0  0
 10 14  1  0  0  0  0
 11 15  1  6  0  0  0
 11 16  1  0  0  0  0
 13 10  1  0  0  0  0
 16 17  1  0  0  0  0
 16 20  1  0  0  0  0
 17 18  1  0  0  0  0
 18 19  1  0  0  0  0
 20 19  1  0  0  0  0
 21  5  1  0  0  0  0
 21 22  1  0  0  0  0
 23 21  1  0  0  0  0
 24 21  1  0  0  0  0
M  END
>  <minimizedAffinity>
-5.03578997

>  <minimizedRMSD>
7.13389158

$$$$
