
 OpenBabel03252508213D

 30 32  0  0  0  0  0  0  0  0999 V2000
   44.9060   33.6320   41.3640 C   0  0  0  0  0  0  0  0  0  0  0  0
   44.4470   34.0850   42.2370 H   0  0  0  0  0  0  0  0  0  0  0  0
   45.0390   32.5400   41.6230 H   0  0  0  0  0  0  0  0  0  0  0  0
   46.2270   34.1300   40.9900 C   0  0  0  0  0  0  0  0  0  0  0  0
   46.8370   33.8610   39.7840 C   0  0  0  0  0  0  0  0  0  0  0  0
   48.0780   34.3130   39.3950 C   0  0  0  0  0  0  0  0  0  0  0  0
   48.7610   35.1070   40.3090 C   0  0  0  0  0  0  0  0  0  0  0  0
   48.1650   35.3950   41.5370 C   0  0  0  0  0  0  0  0  0  0  0  0
   46.9130   34.9240   41.8990 C   0  0  0  0  0  0  0  0  0  0  0  0
   46.3070   33.2360   39.0560 H   0  0  0  0  0  0  0  0  0  0  0  0
   48.5080   34.0660   38.4310 H   0  0  0  0  0  0  0  0  0  0  0  0
   49.7210   35.4710   40.0390 H   0  0  0  0  0  0  0  0  0  0  0  0
   48.7790   36.0220   42.1770 H   0  0  0  0  0  0  0  0  0  0  0  0
   46.3490   35.2730   43.2160 C   0  0  0  0  0  0  0  0  0  0  0  0
   46.1840   34.1220   44.1530 C   0  0  0  0  0  0  0  0  0  0  0  0
   45.0100   34.4900   45.0670 C   0  0  0  0  0  0  0  0  0  0  0  0
   44.6170   35.9080   44.6450 C   0  0  0  0  0  0  0  0  0  0  0  0
   44.9670   35.8530   43.1520 C   0  0  0  0  0  0  0  0  0  0  0  0
   43.9500   33.6190   40.1770 C   0  0  0  0  0  0  0  0  0  0  0  0
   43.9320   32.6210   39.6940 H   0  0  0  0  0  0  0  0  0  0  0  0
   44.2750   34.4130   39.4460 H   0  0  0  0  0  0  0  0  0  0  0  0
   40.9630   35.6200   41.2770 C   0  0  0  0  0  0  0  0  0  0  0  0
   42.2640   35.3020   40.8120 C   0  0  0  0  0  0  0  0  0  0  0  0
   42.5990   33.9630   40.6610 C   0  0  0  0  0  0  0  0  0  0  0  0
   41.6390   33.0480   40.9760 N   0  0  0  0  0  0  0  0  0  0  0  0
   40.4200   33.3620   41.4120 C   0  0  0  0  0  0  0  0  0  0  0  0
   40.0710   34.6600   41.5670 N   0  0  0  0  0  0  0  0  0  0  0  0
   40.6960   36.6680   41.3980 H   0  0  0  0  0  0  0  0  0  0  0  0
   42.9270   36.1090   40.6000 H   0  0  0  0  0  0  0  0  0  0  0  0
   39.6820   32.5960   41.6520 H   0  0  0  0  0  0  0  0  0  0  0  0
  1  3  1  0  0  0  0
  1  2  1  0  0  0  0
  4  1  1  0  0  0  0
  4  9  1  0  0  0  0
  5  4  2  0  0  0  0
  6  5  1  0  0  0  0
  6  7  2  0  0  0  0
  7  8  1  0  0  0  0
  8  9  2  0  0  0  0
  8 13  1  0  0  0  0
  9 14  1  0  0  0  0
 10  5  1  0  0  0  0
 11  6  1  0  0  0  0
 12  7  1  0  0  0  0
 14 15  1  0  0  0  0
 15 16  1  0  0  0  0
 17 16  1  0  0  0  0
 18 14  1  0  0  0  0
 18 17  1  0  0  0  0
 19 24  1  0  0  0  0
 19  1  1  0  0  0  0
 20 19  1  0  0  0  0
 21 19  1  0  0  0  0
 22 28  1  0  0  0  0
 22 27  1  0  0  0  0
 23 22  2  0  0  0  0
 24 23  1  0  0  0  0
 24 25  2  0  0  0  0
 25 26  1  0  0  0  0
 26 27  2  0  0  0  0
 26 30  1  0  0  0  0
 29 23  1  0  0  0  0
M  END
>  <minimizedAffinity>
-5.57612753

>  <minimizedRMSD>
0.731360674

$$$$
