
     RDKit          3D

 26 27  0  0  0  0  0  0  0  0999 V2000
   44.3882   35.7674   44.4271 C   0  0  0  0  0  0  0  0  0  0  0  0
   44.6655   35.0657   43.2607 C   0  0  0  0  0  0  0  0  0  0  0  0
   45.2933   33.8244   43.3891 C   0  0  0  0  0  0  0  0  0  0  0  0
   45.5876   33.3909   44.6340 N   0  0  0  0  0  0  0  0  0  0  0  0
   45.3077   34.0913   45.7481 C   0  0  0  0  0  0  0  0  0  0  0  0
   44.6983   35.3020   45.6685 N   0  0  0  0  0  0  0  0  0  0  0  0
   44.2584   35.7242   42.0095 C   0  0  0  0  0  0  0  0  0  0  0  0
   43.9029   36.7418   44.4440 H   0  0  0  0  0  0  0  0  0  0  0  0
   45.4879   33.3196   42.4718 H   0  0  0  0  0  0  0  0  0  0  0  0
   45.5539   33.7195   46.7167 H   0  0  0  0  0  0  0  0  0  0  0  0
   44.3067   36.8008   42.0971 H   0  0  0  0  0  0  0  0  0  0  0  0
   44.9425   35.4240   41.1743 H   0  0  0  0  0  0  0  0  0  0  0  0
   42.8520   35.3217   41.6537 C   0  0  0  0  0  0  0  0  0  0  0  0
   42.7704   34.6271   40.3081 C   0  0  0  0  0  0  0  0  0  0  0  0
   41.2596   34.5340   40.1589 C   0  0  0  0  0  0  0  0  0  0  0  0
   40.8255   35.9341   40.5454 C   0  0  0  0  0  0  0  0  0  0  0  0
   41.9575   36.5081   41.4046 C   0  0  0  0  0  0  0  0  0  0  0  0
   42.4457   34.6774   42.4692 H   0  0  0  0  0  0  0  0  0  0  0  0
   43.2528   33.6377   40.3223 H   0  0  0  0  0  0  0  0  0  0  0  0
   43.2075   35.3225   39.5605 H   0  0  0  0  0  0  0  0  0  0  0  0
   40.9508   34.2638   39.1345 H   0  0  0  0  0  0  0  0  0  0  0  0
   40.9330   33.8111   40.9228 H   0  0  0  0  0  0  0  0  0  0  0  0
   40.6206   36.5298   39.6503 H   0  0  0  0  0  0  0  0  0  0  0  0
   39.9115   35.8049   41.1902 H   0  0  0  0  0  0  0  0  0  0  0  0
   42.5140   37.2056   40.7480 H   0  0  0  0  0  0  0  0  0  0  0  0
   41.5535   36.9649   42.3185 H   0  0  0  0  0  0  0  0  0  0  0  0
  1  6  2  0
  2  3  2  0
  2  1  1  0
  3  4  1  0
  4  5  2  0
  6  5  1  0
  7  2  1  0
  1  8  1  0
  3  9  1  0
  5 10  1  0
  7 11  1  0
  7 12  1  0
 13 14  1  0
 14 15  1  0
 15 16  1  0
 16 17  1  0
 17 13  1  0
 13 18  1  0
 14 19  1  0
 14 20  1  0
 15 21  1  0
 15 22  1  0
 16 23  1  0
 16 24  1  0
 17 25  1  0
 17 26  1  0
  7 13  1  0
M  ISO  5   8  14   9  14  10  14  11   8  12   8
M  END
>  <DihAtoms>  (1) 
1,6,12,13

>  <DihDeg>  (1) 
-59.998963838777236

$$$$
