REMARK  Name = 
REMARK  2 active torsions:
REMARK  status: ('A' for Active; 'I' for Inactive)
REMARK    1  A    between atoms: C_2  and  C_17
REMARK    2  A    between atoms: C_3  and  C_7
REMARK                            x       y       z     vdW  Elec       q    Type
REMARK                         _______ _______ _______ _____ _____    ______ ____
ROOT
ATOM      1  C   UNL     1      44.606  35.886  44.322  0.00  0.00    +0.000 A 
ATOM      2  C   UNL     1      45.340  35.944  43.070  0.00  0.00    +0.000 A 
ATOM      3  C   UNL     1      46.289  34.934  43.023  0.00  0.00    +0.000 A 
ATOM      4  N   UNL     1      46.465  34.024  44.058  0.00  0.00    +0.000 NA
ATOM      5  C   UNL     1      45.737  34.048  45.179  0.00  0.00    +0.000 A 
ATOM      6  N   UNL     1      44.795  34.990  45.315  0.00  0.00    +0.000 NA
ATOM      7  H   UNL     1      43.821  36.597  44.545  0.00  0.00    +0.000 HD
ATOM      8  H   UNL     1      46.067  33.246  45.810  0.00  0.00    +0.000 HD
ENDROOT
BRANCH   3   9
ATOM      9  C   UNL     1      47.077  34.792  41.746  0.00  0.00    +0.000 C 
ATOM     10  C   UNL     1      48.460  35.459  41.880  0.00  0.00    +0.000 C 
ATOM     11  C   UNL     1      48.229  33.936  41.766  0.00  0.00    +0.000 C 
ATOM     12  H   UNL     1      46.602  35.112  40.824  0.00  0.00    +0.000 HD
ATOM     13  H   UNL     1      48.925  35.930  41.019  0.00  0.00    +0.000 HD
ATOM     14  H   UNL     1      48.735  35.794  42.867  0.00  0.00    +0.000 HD
ATOM     15  H   UNL     1      48.460  33.333  42.684  0.00  0.00    +0.000 HD
ATOM     16  H   UNL     1      48.689  33.462  40.877  0.00  0.00    +0.000 HD
ENDBRANCH   3   9
BRANCH   2  17
ATOM     17  C   UNL     1      45.023  36.925  42.097  0.00  0.00    +0.000 C 
ATOM     18  C   UNL     1      45.813  38.180  41.944  0.00  0.00    +0.000 C 
ATOM     19  C   UNL     1      44.870  38.967  41.045  0.00  0.00    +0.000 C 
ATOM     20  C   UNL     1      44.003  37.957  40.319  0.00  0.00    +0.000 C 
ATOM     21  C   UNL     1      44.598  36.585  40.723  0.00  0.00    +0.000 C 
ENDBRANCH   2  17
TORSDOF 2
