
 OpenBabel03242521063D

 30 33  0  0  1  0  0  0  0  0999 V2000
   37.5110   30.8480   40.7030 C   0  0  0  0  0  0  0  0  0  0  0  0
   36.3440   30.8170   39.9620 C   0  0  0  0  0  0  0  0  0  0  0  0
   35.4080   29.8150   40.0130 C   0  0  0  0  0  0  0  0  0  0  0  0
   35.6330   28.7480   40.8650 C   0  0  0  0  0  0  0  0  0  0  0  0
   36.7900   28.8020   41.5840 C   0  0  0  0  0  0  0  0  0  0  0  0
   37.6760   29.7950   41.5060 N   0  0  0  0  0  0  0  0  0  0  0  0
   36.1400   31.6470   39.2800 H   0  0  0  0  0  0  0  0  0  0  0  0
   34.5200   29.8760   39.3940 H   0  0  0  0  0  0  0  0  0  0  0  0
   34.8750   27.9910   40.8700 H   0  0  0  0  0  0  0  0  0  0  0  0
   39.2330   34.1610   40.2020 C   0  0  0  0  0  0  0  0  0  0  0  0
   38.1820   33.2330   40.2340 C   0  0  0  0  0  0  0  0  0  0  0  0
   38.4790   31.9390   40.6140 C   0  0  0  0  0  0  0  0  0  0  0  0
   39.7650   31.6320   40.9360 N   0  0  0  0  0  0  0  0  0  0  0  0
   40.7660   32.5430   40.8980 C   0  0  0  0  0  0  0  0  0  0  0  0
   40.4740   33.8110   40.5250 N   0  0  0  0  0  0  0  0  0  0  0  0
   38.9830   35.1830   39.8980 H   0  0  0  0  0  0  0  0  0  0  0  0
   37.1530   33.4540   39.9830 H   0  0  0  0  0  0  0  0  0  0  0  0
   41.7540   32.1850   41.1750 H   0  0  0  0  0  0  0  0  0  0  0  0
   37.0550   27.6650   42.5080 C   0  0  2  0  0  0  0  0  0  0  0  0
   38.0560   27.9020   43.5860 C   0  0  0  0  0  0  0  0  0  0  0  0
   38.3320   26.9680   42.4520 C   0  0  1  0  0  0  0  0  0  0  0  0
   36.1570   27.0900   42.8750 H   0  0  0  0  0  0  0  0  0  0  0  0
   38.6200   28.8490   43.6450 H   0  0  0  0  0  0  0  0  0  0  0  0
   37.9560   27.4180   44.5750 H   0  0  0  0  0  0  0  0  0  0  0  0
   39.0910   27.3340   41.7170 H   0  0  0  0  0  0  0  0  0  0  0  0
   38.2900   25.4700   42.6350 C   0  0  0  0  0  3  0  0  0  0  0  0
   39.4540   24.7710   42.0080 C   0  0  0  0  0  2  0  0  0  0  0  0
   38.8900   23.7990   40.9970 C   0  0  0  0  0  2  0  0  0  0  0  0
   37.4330   23.6650   41.3260 C   0  0  0  0  0  2  0  0  0  0  0  0
   37.0530   25.0070   41.8560 C   0  0  0  0  0  2  0  0  0  0  0  0
  1  6  1  0  0  0  0
  2  3  1  0  0  0  0
  2  1  2  0  0  0  0
  3  4  2  0  0  0  0
  4  9  1  0  0  0  0
  4  5  1  0  0  0  0
  5 19  1  0  0  0  0
  6  5  2  0  0  0  0
  7  2  1  0  0  0  0
  8  3  1  0  0  0  0
 10 11  2  0  0  0  0
 10 15  1  0  0  0  0
 11 12  1  0  0  0  0
 12  1  1  0  0  0  0
 12 13  2  0  0  0  0
 14 13  1  0  0  0  0
 14 18  1  0  0  0  0
 15 14  2  0  0  0  0
 16 10  1  0  0  0  0
 17 11  1  0  0  0  0
 19 22  1  1  0  0  0
 19 20  1  0  0  0  0
 20 23  1  0  0  0  0
 20 24  1  0  0  0  0
 21 25  1  6  0  0  0
 21 19  1  0  0  0  0
 21 26  1  0  0  0  0
 21 20  1  0  0  0  0
 27 26  1  0  0  0  0
 28 29  1  0  0  0  0
 28 27  1  0  0  0  0
 29 30  1  0  0  0  0
 30 26  1  0  0  0  0
M  END
>  <minimizedAffinity>
-5.80810595

$$$$

 OpenBabel03242521063D

 30 33  0  0  1  0  0  0  0  0999 V2000
   37.6510   30.7700   40.8470 C   0  0  0  0  0  0  0  0  0  0  0  0
   36.4430   30.8180   40.1760 C   0  0  0  0  0  0  0  0  0  0  0  0
   35.4740   29.8460   40.2330 C   0  0  0  0  0  0  0  0  0  0  0  0
   35.7090   28.7290   41.0150 C   0  0  0  0  0  0  0  0  0  0  0  0
   36.9060   28.7070   41.6650 C   0  0  0  0  0  0  0  0  0  0  0  0
   37.8230   29.6710   41.5840 N   0  0  0  0  0  0  0  0  0  0  0  0
   36.2300   31.6890   39.5500 H   0  0  0  0  0  0  0  0  0  0  0  0
   34.5550   29.9700   39.6720 H   0  0  0  0  0  0  0  0  0  0  0  0
   34.9250   28.0010   41.0280 H   0  0  0  0  0  0  0  0  0  0  0  0
   40.8370   32.7790   40.7810 C   0  0  0  0  0  0  0  0  0  0  0  0
   40.0130   31.6510   40.9010 C   0  0  0  0  0  0  0  0  0  0  0  0
   38.6520   31.8300   40.7540 C   0  0  0  0  0  0  0  0  0  0  0  0
   38.1820   33.0830   40.5040 N   0  0  0  0  0  0  0  0  0  0  0  0
   38.9950   34.1610   40.3920 C   0  0  0  0  0  0  0  0  0  0  0  0
   40.3280   33.9830   40.5350 N   0  0  0  0  0  0  0  0  0  0  0  0
   41.9140   32.6220   40.9000 H   0  0  0  0  0  0  0  0  0  0  0  0
   40.3640   30.6470   41.0990 H   0  0  0  0  0  0  0  0  0  0  0  0
   38.5080   35.1110   40.1910 H   0  0  0  0  0  0  0  0  0  0  0  0
   37.1820   27.5140   42.5140 C   0  0  2  0  0  0  0  0  0  0  0  0
   38.2780   27.6480   43.5140 C   0  0  0  0  0  0  0  0  0  0  0  0
   38.4100   26.7570   42.3220 C   0  0  1  0  0  0  0  0  0  0  0  0
   36.2870   26.9700   42.9290 H   0  0  0  0  0  0  0  0  0  0  0  0
   38.8960   28.5610   43.5680 H   0  0  0  0  0  0  0  0  0  0  0  0
   38.2310   27.1230   44.4860 H   0  0  0  0  0  0  0  0  0  0  0  0
   39.1270   27.1180   41.5430 H   0  0  0  0  0  0  0  0  0  0  0  0
   38.3010   25.2560   42.4420 C   0  0  0  0  0  3  0  0  0  0  0  0
   39.4080   24.5300   41.7460 C   0  0  0  0  0  2  0  0  0  0  0  0
   38.7650   23.6320   40.7150 C   0  0  0  0  0  2  0  0  0  0  0  0
   37.3130   23.5530   41.0880 C   0  0  0  0  0  2  0  0  0  0  0  0
   37.0180   24.8870   41.6880 C   0  0  0  0  0  2  0  0  0  0  0  0
  1  6  1  0  0  0  0
  2  3  1  0  0  0  0
  2  1  2  0  0  0  0
  3  4  2  0  0  0  0
  4  9  1  0  0  0  0
  4  5  1  0  0  0  0
  5 19  1  0  0  0  0
  6  5  2  0  0  0  0
  7  2  1  0  0  0  0
  8  3  1  0  0  0  0
 10 16  1  0  0  0  0
 10 11  1  0  0  0  0
 11 17  1  0  0  0  0
 12  1  1  0  0  0  0
 12 11  2  0  0  0  0
 13 12  1  0  0  0  0
 14 13  2  0  0  0  0
 14 15  1  0  0  0  0
 15 10  2  0  0  0  0
 18 14  1  0  0  0  0
 19 22  1  1  0  0  0
 19 20  1  0  0  0  0
 20 23  1  0  0  0  0
 20 24  1  0  0  0  0
 21 25  1  6  0  0  0
 21 26  1  0  0  0  0
 21 19  1  0  0  0  0
 21 20  1  0  0  0  0
 27 26  1  0  0  0  0
 28 29  1  0  0  0  0
 28 27  1  0  0  0  0
 29 30  1  0  0  0  0
 30 26  1  0  0  0  0
M  END
>  <minimizedAffinity>
-5.78486443

$$$$

 OpenBabel03242521063D

 30 33  0  0  1  0  0  0  0  0999 V2000
   37.3560   26.2110   41.7860 C   0  0  0  0  0  0  0  0  0  0  0  0
   37.9000   26.4620   43.0330 C   0  0  0  0  0  0  0  0  0  0  0  0
   37.9050   27.6860   43.6550 C   0  0  0  0  0  0  0  0  0  0  0  0
   37.3270   28.7590   43.0000 C   0  0  0  0  0  0  0  0  0  0  0  0
   36.7990   28.4850   41.7740 C   0  0  0  0  0  0  0  0  0  0  0  0
   36.8130   27.2810   41.2020 N   0  0  0  0  0  0  0  0  0  0  0  0
   38.3630   25.6320   43.5730 H   0  0  0  0  0  0  0  0  0  0  0  0
   38.3560   27.7880   44.6350 H   0  0  0  0  0  0  0  0  0  0  0  0
   37.3560   29.6910   43.5260 H   0  0  0  0  0  0  0  0  0  0  0  0
   38.2200   22.7160   40.6800 C   0  0  0  0  0  0  0  0  0  0  0  0
   38.3560   23.9370   41.3550 C   0  0  0  0  0  0  0  0  0  0  0  0
   37.3750   24.8890   41.1640 C   0  0  0  0  0  0  0  0  0  0  0  0
   36.3340   24.5980   40.3360 N   0  0  0  0  0  0  0  0  0  0  0  0
   36.2220   23.4110   39.6930 C   0  0  0  0  0  0  0  0  0  0  0  0
   37.1840   22.4790   39.8810 N   0  0  0  0  0  0  0  0  0  0  0  0
   39.0060   21.9700   40.8410 H   0  0  0  0  0  0  0  0  0  0  0  0
   39.1730   24.1910   42.0170 H   0  0  0  0  0  0  0  0  0  0  0  0
   35.3490   23.2900   39.0570 H   0  0  0  0  0  0  0  0  0  0  0  0
   36.1710   29.6250   41.0500 C   0  0  2  0  0  0  0  0  0  0  0  0
   35.0750   29.2860   40.0980 C   0  0  0  0  0  0  0  0  0  0  0  0
   36.4000   29.7890   39.6210 C   0  0  1  0  0  0  0  0  0  0  0  0
   35.9420   30.5470   41.6560 H   0  0  0  0  0  0  0  0  0  0  0  0
   34.7990   28.2370   39.8930 H   0  0  0  0  0  0  0  0  0  0  0  0
   34.2270   29.9770   39.9340 H   0  0  0  0  0  0  0  0  0  0  0  0
   37.0340   29.0260   39.1050 H   0  0  0  0  0  0  0  0  0  0  0  0
   36.5740   31.2050   39.1260 C   0  0  0  0  0  3  0  0  0  0  0  0
   37.5630   31.3170   38.0100 C   0  0  0  0  0  2  0  0  0  0  0  0
   38.6480   32.2610   38.4760 C   0  0  0  0  0  2  0  0  0  0  0  0
   38.0850   32.9740   39.6700 C   0  0  0  0  0  2  0  0  0  0  0  0
   37.1870   31.9680   40.3070 C   0  0  0  0  0  2  0  0  0  0  0  0
  1  2  1  0  0  0  0
  2  7  1  0  0  0  0
  2  3  2  0  0  0  0
  3  8  1  0  0  0  0
  4  9  1  0  0  0  0
  4  3  1  0  0  0  0
  5  4  2  0  0  0  0
  6  5  1  0  0  0  0
  6  1  2  0  0  0  0
 10 16  1  0  0  0  0
 10 11  1  0  0  0  0
 11 17  1  0  0  0  0
 12 11  2  0  0  0  0
 12  1  1  0  0  0  0
 13 12  1  0  0  0  0
 14 15  1  0  0  0  0
 14 13  2  0  0  0  0
 15 10  2  0  0  0  0
 18 14  1  0  0  0  0
 19 22  1  1  0  0  0
 19  5  1  0  0  0  0
 20 19  1  0  0  0  0
 21 25  1  6  0  0  0
 21 20  1  0  0  0  0
 21 19  1  0  0  0  0
 23 20  1  0  0  0  0
 24 20  1  0  0  0  0
 26 21  1  0  0  0  0
 26 30  1  0  0  0  0
 27 28  1  0  0  0  0
 27 26  1  0  0  0  0
 28 29  1  0  0  0  0
 29 30  1  0  0  0  0
M  END
>  <minimizedAffinity>
-5.44425631

$$$$

 OpenBabel03242521063D

 30 33  0  0  1  0  0  0  0  0999 V2000
   36.1210   29.6190   39.0450 C   0  0  0  0  0  0  0  0  0  0  0  0
   36.5360   30.8270   39.5760 C   0  0  0  0  0  0  0  0  0  0  0  0
   36.9380   31.0170   40.8750 C   0  0  0  0  0  0  0  0  0  0  0  0
   36.9320   29.9290   41.7300 C   0  0  0  0  0  0  0  0  0  0  0  0
   36.5190   28.7520   41.1830 C   0  0  0  0  0  0  0  0  0  0  0  0
   36.1350   28.6070   39.9140 N   0  0  0  0  0  0  0  0  0  0  0  0
   36.5510   31.7040   38.9220 H   0  0  0  0  0  0  0  0  0  0  0  0
   37.2480   32.0020   41.2030 H   0  0  0  0  0  0  0  0  0  0  0  0
   37.2530   30.1280   42.7320 H   0  0  0  0  0  0  0  0  0  0  0  0
   34.2190   28.9410   35.8650 C   0  0  0  0  0  0  0  0  0  0  0  0
   34.4580   29.0300   37.2430 C   0  0  0  0  0  0  0  0  0  0  0  0
   35.7020   29.4670   37.6540 C   0  0  0  0  0  0  0  0  0  0  0  0
   36.6270   29.7860   36.7070 N   0  0  0  0  0  0  0  0  0  0  0  0
   36.3760   29.6920   35.3790 C   0  0  0  0  0  0  0  0  0  0  0  0
   35.1570   29.2650   34.9790 N   0  0  0  0  0  0  0  0  0  0  0  0
   33.2290   28.5930   35.5540 H   0  0  0  0  0  0  0  0  0  0  0  0
   33.7390   28.7830   38.0130 H   0  0  0  0  0  0  0  0  0  0  0  0
   37.1890   29.9730   34.7160 H   0  0  0  0  0  0  0  0  0  0  0  0
   36.5040   27.5670   42.0840 C   0  0  2  0  0  0  0  0  0  0  0  0
   37.2890   27.6790   43.3450 C   0  0  0  0  0  0  0  0  0  0  0  0
   37.7060   26.7600   42.2420 C   0  0  1  0  0  0  0  0  0  0  0  0
   35.5080   27.0640   42.2440 H   0  0  0  0  0  0  0  0  0  0  0  0
   37.9060   28.5700   43.5580 H   0  0  0  0  0  0  0  0  0  0  0  0
   36.9580   27.1750   44.2720 H   0  0  0  0  0  0  0  0  0  0  0  0
   38.6220   27.0800   41.6860 H   0  0  0  0  0  0  0  0  0  0  0  0
   37.5070   25.2680   42.3410 C   0  0  0  0  0  3  0  0  0  0  0  0
   38.7880   24.5000   42.2650 C   0  0  0  0  0  2  0  0  0  0  0  0
   38.6740   23.5690   41.0790 C   0  0  0  0  0  2  0  0  0  0  0  0
   37.2150   23.5260   40.7310 C   0  0  0  0  0  2  0  0  0  0  0  0
   36.7140   24.8860   41.0840 C   0  0  0  0  0  2  0  0  0  0  0  0
  1  2  2  0  0  0  0
  1  6  1  0  0  0  0
  2  3  1  0  0  0  0
  3  8  1  0  0  0  0
  3  4  2  0  0  0  0
  4  9  1  0  0  0  0
  5  4  1  0  0  0  0
  5 19  1  0  0  0  0
  6  5  2  0  0  0  0
  7  2  1  0  0  0  0
 10 11  1  0  0  0  0
 11 12  2  0  0  0  0
 11 17  1  0  0  0  0
 12  1  1  0  0  0  0
 13 12  1  0  0  0  0
 14 13  2  0  0  0  0
 15 14  1  0  0  0  0
 15 10  2  0  0  0  0
 16 10  1  0  0  0  0
 18 14  1  0  0  0  0
 19 21  1  0  0  0  0
 19 22  1  1  0  0  0
 19 20  1  0  0  0  0
 20 23  1  0  0  0  0
 20 24  1  0  0  0  0
 21 25  1  6  0  0  0
 21 26  1  0  0  0  0
 21 20  1  0  0  0  0
 27 26  1  0  0  0  0
 28 27  1  0  0  0  0
 29 28  1  0  0  0  0
 29 30  1  0  0  0  0
 30 26  1  0  0  0  0
M  END
>  <minimizedAffinity>
-5.38696384

$$$$

 OpenBabel03242521063D

 30 33  0  0  1  0  0  0  0  0999 V2000
   38.5370   24.8310   41.9490 C   0  0  0  0  0  0  0  0  0  0  0  0
   39.5630   24.4060   42.7740 C   0  0  0  0  0  0  0  0  0  0  0  0
   40.2720   25.2160   43.6270 C   0  0  0  0  0  0  0  0  0  0  0  0
   39.9480   26.5610   43.6770 C   0  0  0  0  0  0  0  0  0  0  0  0
   38.9350   26.9530   42.8550 C   0  0  0  0  0  0  0  0  0  0  0  0
   38.2690   26.1350   42.0400 N   0  0  0  0  0  0  0  0  0  0  0  0
   39.8400   23.3490   42.7550 H   0  0  0  0  0  0  0  0  0  0  0  0
   41.0610   24.7930   44.2370 H   0  0  0  0  0  0  0  0  0  0  0  0
   40.5290   27.1510   44.3560 H   0  0  0  0  0  0  0  0  0  0  0  0
   37.4420   21.9570   39.7760 C   0  0  0  0  0  0  0  0  0  0  0  0
   38.2670   22.6980   40.6330 C   0  0  0  0  0  0  0  0  0  0  0  0
   37.8110   23.9300   41.0580 C   0  0  0  0  0  0  0  0  0  0  0  0
   36.5940   24.3610   40.6260 N   0  0  0  0  0  0  0  0  0  0  0  0
   35.8120   23.6290   39.7970 C   0  0  0  0  0  0  0  0  0  0  0  0
   36.2590   22.4220   39.3820 N   0  0  0  0  0  0  0  0  0  0  0  0
   37.8150   20.9820   39.4470 H   0  0  0  0  0  0  0  0  0  0  0  0
   39.2360   22.3760   40.9900 H   0  0  0  0  0  0  0  0  0  0  0  0
   34.8610   24.0730   39.5180 H   0  0  0  0  0  0  0  0  0  0  0  0
   38.5690   28.3960   42.8910 C   0  0  2  0  0  0  0  0  0  0  0  0
   37.3560   28.7560   43.6790 C   0  0  0  0  0  0  0  0  0  0  0  0
   37.3810   28.8610   42.1880 C   0  0  1  0  0  0  0  0  0  0  0  0
   39.4110   29.1300   43.0430 H   0  0  0  0  0  0  0  0  0  0  0  0
   36.7260   27.9800   44.1480 H   0  0  0  0  0  0  0  0  0  0  0  0
   37.2880   29.7220   44.2130 H   0  0  0  0  0  0  0  0  0  0  0  0
   36.7630   28.0980   41.6530 H   0  0  0  0  0  0  0  0  0  0  0  0
   37.4900   30.1960   41.4930 C   0  0  0  0  0  3  0  0  0  0  0  0
   36.2340   30.5910   40.7830 C   0  0  0  0  0  2  0  0  0  0  0  0
   36.5910   30.7710   39.3250 C   0  0  0  0  0  2  0  0  0  0  0  0
   38.0880   30.8650   39.2780 C   0  0  0  0  0  2  0  0  0  0  0  0
   38.5440   29.9910   40.3980 C   0  0  0  0  0  2  0  0  0  0  0  0
  1  6  2  0  0  0  0
  1  2  1  0  0  0  0
  2  3  2  0  0  0  0
  3  4  1  0  0  0  0
  3  8  1  0  0  0  0
  4  9  1  0  0  0  0
  5 19  1  0  0  0  0
  5  4  2  0  0  0  0
  6  5  1  0  0  0  0
  7  2  1  0  0  0  0
 10 11  1  0  0  0  0
 11 17  1  0  0  0  0
 11 12  2  0  0  0  0
 12  1  1  0  0  0  0
 13 12  1  0  0  0  0
 14 13  2  0  0  0  0
 15 10  2  0  0  0  0
 15 14  1  0  0  0  0
 16 10  1  0  0  0  0
 18 14  1  0  0  0  0
 19 22  1  1  0  0  0
 19 20  1  0  0  0  0
 20 23  1  0  0  0  0
 20 24  1  0  0  0  0
 21 25  1  6  0  0  0
 21 19  1  0  0  0  0
 21 20  1  0  0  0  0
 26 21  1  0  0  0  0
 27 26  1  0  0  0  0
 28 27  1  0  0  0  0
 29 28  1  0  0  0  0
 29 30  1  0  0  0  0
 30 26  1  0  0  0  0
M  END
>  <minimizedAffinity>
-5.30823946

$$$$

 OpenBabel03242521063D

 30 33  0  0  1  0  0  0  0  0999 V2000
   36.6380   30.2880   38.6980 C   0  0  0  0  0  0  0  0  0  0  0  0
   37.0550   31.6050   38.7680 C   0  0  0  0  0  0  0  0  0  0  0  0
   37.5790   32.2040   39.8860 C   0  0  0  0  0  0  0  0  0  0  0  0
   37.7060   31.4480   41.0390 C   0  0  0  0  0  0  0  0  0  0  0  0
   37.2880   30.1550   40.9440 C   0  0  0  0  0  0  0  0  0  0  0  0
   36.7830   29.6090   39.8370 N   0  0  0  0  0  0  0  0  0  0  0  0
   36.9670   32.2260   37.8720 H   0  0  0  0  0  0  0  0  0  0  0  0
   37.8800   33.2450   39.8480 H   0  0  0  0  0  0  0  0  0  0  0  0
   38.1190   31.9600   41.8840 H   0  0  0  0  0  0  0  0  0  0  0  0
   34.5100   28.4930   36.1610 C   0  0  0  0  0  0  0  0  0  0  0  0
   34.8950   28.9990   37.4100 C   0  0  0  0  0  0  0  0  0  0  0  0
   36.0860   29.6940   37.4830 C   0  0  0  0  0  0  0  0  0  0  0  0
   36.8200   29.8530   36.3470 N   0  0  0  0  0  0  0  0  0  0  0  0
   36.4290   29.3560   35.1490 C   0  0  0  0  0  0  0  0  0  0  0  0
   35.2630   28.6750   35.0800 N   0  0  0  0  0  0  0  0  0  0  0  0
   33.5640   27.9440   36.1180 H   0  0  0  0  0  0  0  0  0  0  0  0
   34.3290   28.8860   38.3250 H   0  0  0  0  0  0  0  0  0  0  0  0
   37.0950   29.5440   34.3110 H   0  0  0  0  0  0  0  0  0  0  0  0
   37.4140   29.3220   42.1710 C   0  0  2  0  0  0  0  0  0  0  0  0
   38.6110   29.5690   43.0240 C   0  0  0  0  0  0  0  0  0  0  0  0
   38.4490   28.3000   42.2510 C   0  0  1  0  0  0  0  0  0  0  0  0
   36.4780   29.1710   42.7800 H   0  0  0  0  0  0  0  0  0  0  0  0
   39.3950   30.2830   42.7160 H   0  0  0  0  0  0  0  0  0  0  0  0
   38.5630   29.4550   44.1230 H   0  0  0  0  0  0  0  0  0  0  0  0
   39.1380   28.1900   41.3770 H   0  0  0  0  0  0  0  0  0  0  0  0
   38.0660   27.0060   42.9280 C   0  0  0  0  0  3  0  0  0  0  0  0
   39.1560   25.9830   42.8960 C   0  0  0  0  0  2  0  0  0  0  0  0
   38.6020   24.7720   42.1810 C   0  0  0  0  0  2  0  0  0  0  0  0
   37.1130   24.9540   42.1610 C   0  0  0  0  0  2  0  0  0  0  0  0
   36.9260   26.4320   42.0780 C   0  0  0  0  0  2  0  0  0  0  0  0
  1  2  2  0  0  0  0
  1  6  1  0  0  0  0
  2  3  1  0  0  0  0
  3  4  2  0  0  0  0
  4  9  1  0  0  0  0
  5  4  1  0  0  0  0
  5 19  1  0  0  0  0
  6  5  2  0  0  0  0
  7  2  1  0  0  0  0
  8  3  1  0  0  0  0
 10 11  1  0  0  0  0
 11 12  2  0  0  0  0
 11 17  1  0  0  0  0
 12  1  1  0  0  0  0
 13 12  1  0  0  0  0
 14 13  2  0  0  0  0
 15 14  1  0  0  0  0
 15 10  2  0  0  0  0
 16 10  1  0  0  0  0
 18 14  1  0  0  0  0
 19 21  1  0  0  0  0
 19 22  1  1  0  0  0
 19 20  1  0  0  0  0
 20 24  1  0  0  0  0
 21 25  1  6  0  0  0
 21 26  1  0  0  0  0
 21 20  1  0  0  0  0
 23 20  1  0  0  0  0
 27 26  1  0  0  0  0
 28 27  1  0  0  0  0
 29 28  1  0  0  0  0
 30 29  1  0  0  0  0
 30 26  1  0  0  0  0
M  END
>  <minimizedAffinity>
-5.24594164

$$$$

 OpenBabel03242521063D

 30 33  0  0  1  0  0  0  0  0999 V2000
   37.4690   28.3870   41.5740 C   0  0  0  0  0  0  0  0  0  0  0  0
   36.1780   28.1780   41.1230 C   0  0  0  0  0  0  0  0  0  0  0  0
   35.3900   29.1310   40.5260 C   0  0  0  0  0  0  0  0  0  0  0  0
   35.9110   30.4010   40.3550 C   0  0  0  0  0  0  0  0  0  0  0  0
   37.1840   30.5810   40.8080 C   0  0  0  0  0  0  0  0  0  0  0  0
   37.9180   29.6290   41.3830 N   0  0  0  0  0  0  0  0  0  0  0  0
   35.7410   27.1830   41.2450 H   0  0  0  0  0  0  0  0  0  0  0  0
   34.3880   28.8750   40.2040 H   0  0  0  0  0  0  0  0  0  0  0  0
   35.2600   31.1090   39.8860 H   0  0  0  0  0  0  0  0  0  0  0  0
   39.9030   26.4290   43.6780 C   0  0  0  0  0  0  0  0  0  0  0  0
   39.2240   27.5490   43.1780 C   0  0  0  0  0  0  0  0  0  0  0  0
   38.2690   27.3400   42.2040 C   0  0  0  0  0  0  0  0  0  0  0  0
   38.0360   26.0670   41.7810 N   0  0  0  0  0  0  0  0  0  0  0  0
   38.7030   24.9980   42.2770 C   0  0  0  0  0  0  0  0  0  0  0  0
   39.6380   25.2050   43.2320 N   0  0  0  0  0  0  0  0  0  0  0  0
   40.6570   26.6100   44.4510 H   0  0  0  0  0  0  0  0  0  0  0  0
   39.3910   28.5690   43.4990 H   0  0  0  0  0  0  0  0  0  0  0  0
   38.4340   24.0290   41.8640 H   0  0  0  0  0  0  0  0  0  0  0  0
   37.7670   31.9410   40.6350 C   0  0  2  0  0  0  0  0  0  0  0  0
   37.3100   32.7150   39.4470 C   0  0  0  0  0  0  0  0  0  0  0  0
   38.7070   32.1950   39.5530 C   0  0  1  0  0  0  0  0  0  0  0  0
   37.8430   32.5810   41.5600 H   0  0  0  0  0  0  0  0  0  0  0  0
   36.6310   32.2690   38.6990 H   0  0  0  0  0  0  0  0  0  0  0  0
   37.2190   33.8170   39.4840 H   0  0  0  0  0  0  0  0  0  0  0  0
   38.9460   31.3470   38.8630 H   0  0  0  0  0  0  0  0  0  0  0  0
   39.8670   33.1070   39.8700 C   0  0  0  0  0  3  0  0  0  0  0  0
   40.7920   33.3020   38.7110 C   0  0  0  0  0  2  0  0  0  0  0  0
   42.1590   32.8300   39.1540 C   0  0  0  0  0  2  0  0  0  0  0  0
   42.0960   32.7420   40.6500 C   0  0  0  0  0  2  0  0  0  0  0  0
   40.6820   32.3630   40.9360 C   0  0  0  0  0  2  0  0  0  0  0  0
  1 12  1  0  0  0  0
  2  7  1  0  0  0  0
  2  1  2  0  0  0  0
  3  2  1  0  0  0  0
  4  3  2  0  0  0  0
  4  5  1  0  0  0  0
  5  6  2  0  0  0  0
  6  1  1  0  0  0  0
  8  3  1  0  0  0  0
  9  4  1  0  0  0  0
 10 16  1  0  0  0  0
 11 17  1  0  0  0  0
 11 10  2  0  0  0  0
 12 11  1  0  0  0  0
 13 12  2  0  0  0  0
 13 14  1  0  0  0  0
 14 15  2  0  0  0  0
 15 10  1  0  0  0  0
 18 14  1  0  0  0  0
 19  5  1  0  0  0  0
 19 22  1  1  0  0  0
 20 24  1  0  0  0  0
 20 21  1  0  0  0  0
 20 19  1  0  0  0  0
 21 25  1  6  0  0  0
 21 26  1  0  0  0  0
 21 19  1  0  0  0  0
 23 20  1  0  0  0  0
 26 30  1  0  0  0  0
 27 28  1  0  0  0  0
 27 26  1  0  0  0  0
 28 29  1  0  0  0  0
 29 30  1  0  0  0  0
M  END
>  <minimizedAffinity>
-5.18716288

$$$$

 OpenBabel03242521063D

 30 33  0  0  1  0  0  0  0  0999 V2000
   37.5060   26.2670   41.6560 C   0  0  0  0  0  0  0  0  0  0  0  0
   36.8630   26.3830   42.8760 C   0  0  0  0  0  0  0  0  0  0  0  0
   36.8980   27.4950   43.6790 C   0  0  0  0  0  0  0  0  0  0  0  0
   37.6270   28.5920   43.2520 C   0  0  0  0  0  0  0  0  0  0  0  0
   38.2500   28.4520   42.0490 C   0  0  0  0  0  0  0  0  0  0  0  0
   38.1920   27.3540   41.2960 N   0  0  0  0  0  0  0  0  0  0  0  0
   36.2800   25.5320   43.2380 H   0  0  0  0  0  0  0  0  0  0  0  0
   36.3620   27.4950   44.6210 H   0  0  0  0  0  0  0  0  0  0  0  0
   37.6240   29.4350   43.9130 H   0  0  0  0  0  0  0  0  0  0  0  0
   37.6300   22.7360   40.3510 C   0  0  0  0  0  0  0  0  0  0  0  0
   37.7490   23.7880   41.2710 C   0  0  0  0  0  0  0  0  0  0  0  0
   37.4390   25.0610   40.8360 C   0  0  0  0  0  0  0  0  0  0  0  0
   37.0360   25.2300   39.5460 N   0  0  0  0  0  0  0  0  0  0  0  0
   36.9270   24.2010   38.6730 C   0  0  0  0  0  0  0  0  0  0  0  0
   37.2320   22.9540   39.1010 N   0  0  0  0  0  0  0  0  0  0  0  0
   37.8800   21.7320   40.7100 H   0  0  0  0  0  0  0  0  0  0  0  0
   38.0670   23.6770   42.2990 H   0  0  0  0  0  0  0  0  0  0  0  0
   36.5970   24.4540   37.6700 H   0  0  0  0  0  0  0  0  0  0  0  0
   39.0400   29.6190   41.5680 C   0  0  2  0  0  0  0  0  0  0  0  0
   39.4670   30.6050   42.6000 C   0  0  0  0  0  0  0  0  0  0  0  0
   38.4440   30.9480   41.5650 C   0  0  1  0  0  0  0  0  0  0  0  0
   39.8530   29.4060   40.8170 H   0  0  0  0  0  0  0  0  0  0  0  0
   39.1470   30.5070   43.6530 H   0  0  0  0  0  0  0  0  0  0  0  0
   40.4240   31.1520   42.5080 H   0  0  0  0  0  0  0  0  0  0  0  0
   37.3990   31.0490   41.9530 H   0  0  0  0  0  0  0  0  0  0  0  0
   38.7770   31.8330   40.3890 C   0  0  0  0  0  3  0  0  0  0  0  0
   37.7030   32.8280   40.0830 C   0  0  0  0  0  2  0  0  0  0  0  0
   37.2570   32.5700   38.6620 C   0  0  0  0  0  2  0  0  0  0  0  0
   38.3230   31.7130   38.0460 C   0  0  0  0  0  2  0  0  0  0  0  0
   38.8300   30.8890   39.1810 C   0  0  0  0  0  2  0  0  0  0  0  0
  1  2  1  0  0  0  0
  2  7  1  0  0  0  0
  2  3  2  0  0  0  0
  3  8  1  0  0  0  0
  4  3  1  0  0  0  0
  4  9  1  0  0  0  0
  5  4  2  0  0  0  0
  6  1  2  0  0  0  0
  6  5  1  0  0  0  0
 10 16  1  0  0  0  0
 10 11  1  0  0  0  0
 11 17  1  0  0  0  0
 12 11  2  0  0  0  0
 12  1  1  0  0  0  0
 13 12  1  0  0  0  0
 14 15  1  0  0  0  0
 14 13  2  0  0  0  0
 15 10  2  0  0  0  0
 18 14  1  0  0  0  0
 19 22  1  6  0  0  0
 19  5  1  0  0  0  0
 19 20  1  0  0  0  0
 20 23  1  0  0  0  0
 21 19  1  0  0  0  0
 21 25  1  1  0  0  0
 21 20  1  0  0  0  0
 24 20  1  0  0  0  0
 26 21  1  0  0  0  0
 27 26  1  0  0  0  0
 28 27  1  0  0  0  0
 29 28  1  0  0  0  0
 29 30  1  0  0  0  0
 30 26  1  0  0  0  0
M  END
>  <minimizedAffinity>
-5.05427885

$$$$

 OpenBabel03242521063D

 30 33  0  0  1  0  0  0  0  0999 V2000
   37.4590   28.7770   41.0350 C   0  0  0  0  0  0  0  0  0  0  0  0
   37.6220   29.4030   42.2580 C   0  0  0  0  0  0  0  0  0  0  0  0
   37.7260   28.7550   43.4640 C   0  0  0  0  0  0  0  0  0  0  0  0
   37.6650   27.3720   43.4750 C   0  0  0  0  0  0  0  0  0  0  0  0
   37.5040   26.7810   42.2580 C   0  0  0  0  0  0  0  0  0  0  0  0
   37.4070   27.4450   41.1070 N   0  0  0  0  0  0  0  0  0  0  0  0
   37.6750   30.4950   42.2790 H   0  0  0  0  0  0  0  0  0  0  0  0
   37.8530   29.3300   44.3740 H   0  0  0  0  0  0  0  0  0  0  0  0
   37.7500   26.9130   44.4380 H   0  0  0  0  0  0  0  0  0  0  0  0
   36.5590   29.9740   37.5790 C   0  0  0  0  0  0  0  0  0  0  0  0
   36.5410   29.1570   38.7180 C   0  0  0  0  0  0  0  0  0  0  0  0
   37.3540   29.5110   39.7770 C   0  0  0  0  0  0  0  0  0  0  0  0
   38.1260   30.6260   39.6630 N   0  0  0  0  0  0  0  0  0  0  0  0
   38.1290   31.4030   38.5530 C   0  0  0  0  0  0  0  0  0  0  0  0
   37.3320   31.0550   37.5170 N   0  0  0  0  0  0  0  0  0  0  0  0
   35.9100   29.6810   36.7480 H   0  0  0  0  0  0  0  0  0  0  0  0
   35.9370   28.2670   38.8320 H   0  0  0  0  0  0  0  0  0  0  0  0
   38.7850   32.2680   38.5740 H   0  0  0  0  0  0  0  0  0  0  0  0
   37.4350   25.2930   42.2440 C   0  0  2  0  0  0  0  0  0  0  0  0
   38.6970   24.5650   42.5530 C   0  0  0  0  0  0  0  0  0  0  0  0
   38.0970   24.5460   41.1840 C   0  0  1  0  0  0  0  0  0  0  0  0
   36.5370   24.8230   42.7380 H   0  0  0  0  0  0  0  0  0  0  0  0
   39.6470   25.1060   42.7110 H   0  0  0  0  0  0  0  0  0  0  0  0
   38.6820   23.5940   43.0820 H   0  0  0  0  0  0  0  0  0  0  0  0
   38.6640   25.1280   40.4150 H   0  0  0  0  0  0  0  0  0  0  0  0
   37.3680   23.3340   40.6590 C   0  0  0  0  0  3  0  0  0  0  0  0
   37.9750   22.7820   39.4080 C   0  0  0  0  0  2  0  0  0  0  0  0
   36.9020   22.8210   38.3440 C   0  0  0  0  0  2  0  0  0  0  0  0
   35.6070   23.0180   39.0750 C   0  0  0  0  0  2  0  0  0  0  0  0
   35.9780   23.8450   40.2600 C   0  0  0  0  0  2  0  0  0  0  0  0
  1  6  2  0  0  0  0
  1  2  1  0  0  0  0
  2  7  1  0  0  0  0
  2  3  2  0  0  0  0
  3  4  1  0  0  0  0
  3  8  1  0  0  0  0
  4  9  1  0  0  0  0
  5  4  2  0  0  0  0
  6  5  1  0  0  0  0
 10 11  1  0  0  0  0
 11 17  1  0  0  0  0
 11 12  2  0  0  0  0
 12  1  1  0  0  0  0
 13 12  1  0  0  0  0
 14 18  1  0  0  0  0
 14 13  2  0  0  0  0
 15 10  2  0  0  0  0
 15 14  1  0  0  0  0
 16 10  1  0  0  0  0
 19  5  1  0  0  0  0
 19 20  1  0  0  0  0
 19 22  1  1  0  0  0
 20 23  1  0  0  0  0
 20 24  1  0  0  0  0
 21 25  1  6  0  0  0
 21 19  1  0  0  0  0
 21 20  1  0  0  0  0
 26 21  1  0  0  0  0
 27 26  1  0  0  0  0
 28 29  1  0  0  0  0
 28 27  1  0  0  0  0
 29 30  1  0  0  0  0
 30 26  1  0  0  0  0
M  END
>  <minimizedAffinity>
-5.04480314

$$$$
