
 OpenBabel03242514073D

 39 42  0  0  1  0  0  0  0  0999 V2000
   38.1830   29.8390   41.4230 C   0  0  1  0  0  0  0  0  0  0  0  0
   38.8540   29.7860   42.7860 C   0  0  0  0  0  0  0  0  0  0  0  0
   38.8440   28.3140   43.1940 C   0  0  0  0  0  0  0  0  0  0  0  0
   37.3660   28.0620   43.5470 C   0  0  0  0  0  0  0  0  0  0  0  0
   36.6140   28.1240   42.2410 C   0  0  0  0  0  0  0  0  0  0  0  0
   36.8050   29.3500   41.4000 C   0  0  2  0  0  0  0  0  0  0  0  0
   38.8290   29.1330   40.8010 H   0  0  0  0  0  0  0  0  0  0  0  0
   39.9280   30.0280   42.6100 H   0  0  0  0  0  0  0  0  0  0  0  0
   38.3600   30.4290   43.5150 H   0  0  0  0  0  0  0  0  0  0  0  0
   39.1320   27.6950   42.3450 H   0  0  0  0  0  0  0  0  0  0  0  0
   39.4490   28.2020   44.1040 H   0  0  0  0  0  0  0  0  0  0  0  0
   37.1850   27.0810   43.9720 H   0  0  0  0  0  0  0  0  0  0  0  0
   37.0520   28.9300   44.1560 H   0  0  0  0  0  0  0  0  0  0  0  0
   35.5580   27.8580   42.3900 H   0  0  0  0  0  0  0  0  0  0  0  0
   37.1380   27.2980   41.6590 H   0  0  0  0  0  0  0  0  0  0  0  0
   36.1040   30.1230   41.7690 H   0  0  0  0  0  0  0  0  0  0  0  0
   39.7850   32.7130   39.7730 C   0  0  0  0  0  0  0  0  0  0  0  0
   38.7060   33.5350   39.5540 C   0  0  0  0  0  0  0  0  0  0  0  0
   37.4140   33.2370   39.9300 C   0  0  0  0  0  0  0  0  0  0  0  0
   37.2930   32.0050   40.5630 C   0  0  0  0  0  0  0  0  0  0  0  0
   38.3680   31.1500   40.7930 C   0  0  0  0  0  0  0  0  0  0  0  0
   39.6160   31.5160   40.3930 N   0  0  0  0  0  0  0  0  0  0  0  0
   38.9170   34.4700   39.0510 H   0  0  0  0  0  0  0  0  0  0  0  0
   36.6050   33.9000   39.7410 H   0  0  0  0  0  0  0  0  0  0  0  0
   36.2640   31.8200   40.8740 H   0  0  0  0  0  0  0  0  0  0  0  0
   43.3440   33.5500   39.8990 C   0  0  0  0  0  0  0  0  0  0  0  0
   43.6430   33.9690   38.6130 C   0  0  0  0  0  0  0  0  0  0  0  0
   42.5960   33.9580   37.6980 C   0  0  0  0  0  0  0  0  0  0  0  0
   41.3590   33.5430   38.1180 N   0  0  0  0  0  0  0  0  0  0  0  0
   41.1300   33.1420   39.3990 C   0  0  0  0  0  0  0  0  0  0  0  0
   42.1020   33.1460   40.2700 N   0  0  0  0  0  0  0  0  0  0  0  0
   44.1620   33.5560   40.6260 H   0  0  0  0  0  0  0  0  0  0  0  0
   44.6080   34.2940   38.2820 H   0  0  0  0  0  0  0  0  0  0  0  0
   42.6870   34.2610   36.6510 H   0  0  0  0  0  0  0  0  0  0  0  0
   36.3310   28.9170   40.0330 C   0  0  0  0  0  3  0  0  0  0  0  0
   34.8380   29.1100   39.8170 C   0  0  0  0  0  2  0  0  0  0  0  0
   34.7420   28.4830   38.4150 C   0  0  0  0  0  2  0  0  0  0  0  0
   35.8450   27.4100   38.3760 C   0  0  0  0  0  2  0  0  0  0  0  0
   36.2720   27.3770   39.8730 C   0  0  0  0  0  2  0  0  0  0  0  0
  1  7  1  6  0  0  0
  1  2  1  0  0  0  0
  2  3  1  0  0  0  0
  2  9  1  0  0  0  0
  3  4  1  0  0  0  0
  3 11  1  0  0  0  0
  4 12  1  0  0  0  0
  4 13  1  0  0  0  0
  5 14  1  0  0  0  0
  5  4  1  0  0  0  0
  6  1  1  0  0  0  0
  6 16  1  1  0  0  0
  6  5  1  0  0  0  0
  8  2  1  0  0  0  0
 10  3  1  0  0  0  0
 15  5  1  0  0  0  0
 17 22  1  0  0  0  0
 18 17  2  0  0  0  0
 18 19  1  0  0  0  0
 19 20  2  0  0  0  0
 20 21  1  0  0  0  0
 20 25  1  0  0  0  0
 21  1  1  0  0  0  0
 22 21  2  0  0  0  0
 23 18  1  0  0  0  0
 24 19  1  0  0  0  0
 26 31  1  0  0  0  0
 26 32  1  0  0  0  0
 27 26  2  0  0  0  0
 28 29  2  0  0  0  0
 28 27  1  0  0  0  0
 29 30  1  0  0  0  0
 30 17  1  0  0  0  0
 30 31  2  0  0  0  0
 33 27  1  0  0  0  0
 34 28  1  0  0  0  0
 35  6  1  0  0  0  0
 36 35  1  0  0  0  0
 37 36  1  0  0  0  0
 38 37  1  0  0  0  0
 38 39  1  0  0  0  0
 39 35  1  0  0  0  0
M  END
>  <minimizedAffinity>
-6.24076605

$$$$

 OpenBabel03242514073D

 39 42  0  0  1  0  0  0  0  0999 V2000
   36.6610   29.5290   39.5570 C   0  0  1  0  0  0  0  0  0  0  0  0
   35.9040   29.3770   38.2470 C   0  0  0  0  0  0  0  0  0  0  0  0
   34.9130   28.2370   38.4730 C   0  0  0  0  0  0  0  0  0  0  0  0
   35.8150   26.9890   38.4770 C   0  0  0  0  0  0  0  0  0  0  0  0
   36.6290   27.0720   39.7440 C   0  0  0  0  0  0  0  0  0  0  0  0
   37.3960   28.3380   39.9810 C   0  0  2  0  0  0  0  0  0  0  0  0
   35.8230   29.7230   40.3070 H   0  0  0  0  0  0  0  0  0  0  0  0
   35.2740   30.2910   38.1480 H   0  0  0  0  0  0  0  0  0  0  0  0
   36.5720   29.1950   37.4040 H   0  0  0  0  0  0  0  0  0  0  0  0
   34.4360   28.3520   39.4460 H   0  0  0  0  0  0  0  0  0  0  0  0
   34.2400   28.1860   37.6060 H   0  0  0  0  0  0  0  0  0  0  0  0
   35.2620   26.0570   38.5150 H   0  0  0  0  0  0  0  0  0  0  0  0
   36.5070   27.1180   37.6240 H   0  0  0  0  0  0  0  0  0  0  0  0
   37.2350   26.1650   39.8740 H   0  0  0  0  0  0  0  0  0  0  0  0
   35.7990   27.0940   40.5230 H   0  0  0  0  0  0  0  0  0  0  0  0
   38.3590   28.2530   39.4420 H   0  0  0  0  0  0  0  0  0  0  0  0
   39.3430   31.9520   38.8590 C   0  0  0  0  0  0  0  0  0  0  0  0
   38.8820   33.0640   39.5220 C   0  0  0  0  0  0  0  0  0  0  0  0
   37.7070   33.1070   40.2410 C   0  0  0  0  0  0  0  0  0  0  0  0
   37.0110   31.9030   40.2380 C   0  0  0  0  0  0  0  0  0  0  0  0
   37.4530   30.7620   39.5710 C   0  0  0  0  0  0  0  0  0  0  0  0
   38.6260   30.7990   38.8810 N   0  0  0  0  0  0  0  0  0  0  0  0
   39.5030   33.9470   39.4550 H   0  0  0  0  0  0  0  0  0  0  0  0
   37.3830   33.9880   40.7400 H   0  0  0  0  0  0  0  0  0  0  0  0
   36.1060   31.9670   40.8440 H   0  0  0  0  0  0  0  0  0  0  0  0
   42.4640   33.1060   37.3400 C   0  0  0  0  0  0  0  0  0  0  0  0
   43.0690   31.9490   36.8780 C   0  0  0  0  0  0  0  0  0  0  0  0
   42.3830   30.7600   37.1000 C   0  0  0  0  0  0  0  0  0  0  0  0
   41.1750   30.8070   37.7470 N   0  0  0  0  0  0  0  0  0  0  0  0
   40.6340   31.9800   38.1770 C   0  0  0  0  0  0  0  0  0  0  0  0
   41.2650   33.1050   37.9770 N   0  0  0  0  0  0  0  0  0  0  0  0
   42.9960   34.0470   37.1700 H   0  0  0  0  0  0  0  0  0  0  0  0
   44.0110   31.9090   36.3730 H   0  0  0  0  0  0  0  0  0  0  0  0
   42.7400   29.7740   36.7900 H   0  0  0  0  0  0  0  0  0  0  0  0
   37.6950   28.2970   41.4600 C   0  0  0  0  0  3  0  0  0  0  0  0
   38.5980   27.1420   41.8670 C   0  0  0  0  0  2  0  0  0  0  0  0
   38.5770   27.3790   43.3880 C   0  0  0  0  0  2  0  0  0  0  0  0
   37.2020   28.0050   43.6800 C   0  0  0  0  0  2  0  0  0  0  0  0
   36.4940   27.8050   42.3080 C   0  0  0  0  0  2  0  0  0  0  0  0
  1 21  1  0  0  0  0
  1  6  1  0  0  0  0
  1  7  1  1  0  0  0
  2  3  1  0  0  0  0
  2  1  1  0  0  0  0
  3  4  1  0  0  0  0
  3 10  1  0  0  0  0
  4 12  1  0  0  0  0
  4  5  1  0  0  0  0
  5 14  1  0  0  0  0
  5  6  1  0  0  0  0
  5 15  1  0  0  0  0
  6 16  1  6  0  0  0
  6 35  1  0  0  0  0
  8  2  1  0  0  0  0
  9  2  1  0  0  0  0
 11  3  1  0  0  0  0
 13  4  1  0  0  0  0
 17 22  2  0  0  0  0
 17 18  1  0  0  0  0
 18 19  2  0  0  0  0
 19 24  1  0  0  0  0
 20 19  1  0  0  0  0
 20 25  1  0  0  0  0
 21 20  2  0  0  0  0
 22 21  1  0  0  0  0
 23 18  1  0  0  0  0
 26 31  1  0  0  0  0
 27 28  1  0  0  0  0
 27 26  2  0  0  0  0
 28 29  2  0  0  0  0
 29 30  1  0  0  0  0
 30 17  1  0  0  0  0
 31 30  2  0  0  0  0
 32 26  1  0  0  0  0
 33 27  1  0  0  0  0
 34 28  1  0  0  0  0
 35 36  1  0  0  0  0
 35 39  1  0  0  0  0
 36 37  1  0  0  0  0
 37 38  1  0  0  0  0
 39 38  1  0  0  0  0
M  END
>  <minimizedAffinity>
-5.90703344

$$$$

 OpenBabel03242514073D

 39 42  0  0  1  0  0  0  0  0999 V2000
   37.7180   28.6060   41.2470 C   0  0  1  0  0  0  0  0  0  0  0  0
   37.3390   29.3950   42.4900 C   0  0  0  0  0  0  0  0  0  0  0  0
   37.6910   28.4970   43.6740 C   0  0  0  0  0  0  0  0  0  0  0  0
   36.5960   27.4150   43.6260 C   0  0  0  0  0  0  0  0  0  0  0  0
   36.8830   26.5910   42.3960 C   0  0  0  0  0  0  0  0  0  0  0  0
   37.0230   27.3290   41.0980 C   0  0  2  0  0  0  0  0  0  0  0  0
   38.8280   28.3970   41.4170 H   0  0  0  0  0  0  0  0  0  0  0  0
   38.0590   30.2440   42.5480 H   0  0  0  0  0  0  0  0  0  0  0  0
   36.2890   29.6940   42.4850 H   0  0  0  0  0  0  0  0  0  0  0  0
   38.6680   28.0420   43.5130 H   0  0  0  0  0  0  0  0  0  0  0  0
   37.5730   29.0800   44.5980 H   0  0  0  0  0  0  0  0  0  0  0  0
   36.6210   26.7390   44.4740 H   0  0  0  0  0  0  0  0  0  0  0  0
   35.6480   27.9570   43.4540 H   0  0  0  0  0  0  0  0  0  0  0  0
   36.2020   25.7320   42.3380 H   0  0  0  0  0  0  0  0  0  0  0  0
   37.9370   26.2290   42.6290 H   0  0  0  0  0  0  0  0  0  0  0  0
   36.0060   27.4760   40.6860 H   0  0  0  0  0  0  0  0  0  0  0  0
   38.7260   31.0460   38.6840 C   0  0  0  0  0  0  0  0  0  0  0  0
   37.6760   30.9620   37.8020 C   0  0  0  0  0  0  0  0  0  0  0  0
   36.5810   30.1430   37.9750 C   0  0  0  0  0  0  0  0  0  0  0  0
   36.6320   29.3910   39.1440 C   0  0  0  0  0  0  0  0  0  0  0  0
   37.6870   29.4530   40.0520 C   0  0  0  0  0  0  0  0  0  0  0  0
   38.7340   30.2890   39.8100 N   0  0  0  0  0  0  0  0  0  0  0  0
   37.7410   31.5920   36.9250 H   0  0  0  0  0  0  0  0  0  0  0  0
   35.7870   30.1060   37.2690 H   0  0  0  0  0  0  0  0  0  0  0  0
   35.7340   28.7820   39.2620 H   0  0  0  0  0  0  0  0  0  0  0  0
   41.6340   32.7370   37.2440 C   0  0  0  0  0  0  0  0  0  0  0  0
   41.8440   33.8240   38.0760 C   0  0  0  0  0  0  0  0  0  0  0  0
   40.9660   33.9670   39.1440 C   0  0  0  0  0  0  0  0  0  0  0  0
   39.9680   33.0410   39.3040 N   0  0  0  0  0  0  0  0  0  0  0  0
   39.8140   31.9930   38.4490 C   0  0  0  0  0  0  0  0  0  0  0  0
   40.6300   31.8440   37.4410 N   0  0  0  0  0  0  0  0  0  0  0  0
   42.3200   32.6160   36.4010 H   0  0  0  0  0  0  0  0  0  0  0  0
   42.6230   34.5480   37.9540 H   0  0  0  0  0  0  0  0  0  0  0  0
   41.0130   34.7760   39.8790 H   0  0  0  0  0  0  0  0  0  0  0  0
   37.7380   26.3410   40.2070 C   0  0  0  0  0  3  0  0  0  0  0  0
   37.0490   24.9880   40.1210 C   0  0  0  0  0  2  0  0  0  0  0  0
   38.0950   24.2710   39.2480 C   0  0  0  0  0  2  0  0  0  0  0  0
   39.4390   24.9270   39.6080 C   0  0  0  0  0  2  0  0  0  0  0  0
   39.0290   25.7710   40.8500 C   0  0  0  0  0  2  0  0  0  0  0  0
  1  7  1  1  0  0  0
  1  2  1  0  0  0  0
  2  8  1  0  0  0  0
  2  3  1  0  0  0  0
  3 11  1  0  0  0  0
  4  3  1  0  0  0  0
  4 12  1  0  0  0  0
  5 15  1  0  0  0  0
  5  4  1  0  0  0  0
  6 16  1  6  0  0  0
  6  1  1  0  0  0  0
  6  5  1  0  0  0  0
  9  2  1  0  0  0  0
 10  3  1  0  0  0  0
 13  4  1  0  0  0  0
 14  5  1  0  0  0  0
 17 22  1  0  0  0  0
 18 19  1  0  0  0  0
 18 17  2  0  0  0  0
 19 20  2  0  0  0  0
 20 25  1  0  0  0  0
 20 21  1  0  0  0  0
 21  1  1  0  0  0  0
 22 21  2  0  0  0  0
 23 18  1  0  0  0  0
 24 19  1  0  0  0  0
 26 31  2  0  0  0  0
 26 27  1  0  0  0  0
 27 28  2  0  0  0  0
 28 29  1  0  0  0  0
 28 34  1  0  0  0  0
 30 17  1  0  0  0  0
 30 29  2  0  0  0  0
 31 30  1  0  0  0  0
 32 26  1  0  0  0  0
 33 27  1  0  0  0  0
 35 39  1  0  0  0  0
 35  6  1  0  0  0  0
 36 35  1  0  0  0  0
 37 38  1  0  0  0  0
 37 36  1  0  0  0  0
 38 39  1  0  0  0  0
M  END
>  <minimizedAffinity>
-5.88053036

$$$$

 OpenBabel03242514073D

 39 42  0  0  1  0  0  0  0  0999 V2000
   36.9340   27.8770   39.8030 C   0  0  1  0  0  0  0  0  0  0  0  0
   36.2250   26.6360   39.2830 C   0  0  0  0  0  0  0  0  0  0  0  0
   36.0150   26.8760   37.7890 C   0  0  0  0  0  0  0  0  0  0  0  0
   34.8940   27.9310   37.7600 C   0  0  0  0  0  0  0  0  0  0  0  0
   35.5100   29.2020   38.2900 C   0  0  0  0  0  0  0  0  0  0  0  0
   36.1960   29.1250   39.6200 C   0  0  2  0  0  0  0  0  0  0  0  0
   37.8740   27.9130   39.1560 H   0  0  0  0  0  0  0  0  0  0  0  0
   36.9690   25.8090   39.3410 H   0  0  0  0  0  0  0  0  0  0  0  0
   35.2910   26.4420   39.8140 H   0  0  0  0  0  0  0  0  0  0  0  0
   36.9240   27.2890   37.3520 H   0  0  0  0  0  0  0  0  0  0  0  0
   35.6390   25.9470   37.3380 H   0  0  0  0  0  0  0  0  0  0  0  0
   34.5300   28.1460   36.7620 H   0  0  0  0  0  0  0  0  0  0  0  0
   34.1440   27.5900   38.4970 H   0  0  0  0  0  0  0  0  0  0  0  0
   34.8000   30.0370   38.2120 H   0  0  0  0  0  0  0  0  0  0  0  0
   36.3570   29.3490   37.5430 H   0  0  0  0  0  0  0  0  0  0  0  0
   35.4230   29.2480   40.4030 H   0  0  0  0  0  0  0  0  0  0  0  0
   39.2350   27.2250   42.6000 C   0  0  0  0  0  0  0  0  0  0  0  0
   38.3950   27.3590   43.6790 C   0  0  0  0  0  0  0  0  0  0  0  0
   37.0500   27.6470   43.5840 C   0  0  0  0  0  0  0  0  0  0  0  0
   36.6070   27.7930   42.2740 C   0  0  0  0  0  0  0  0  0  0  0  0
   37.4380   27.6670   41.1630 C   0  0  0  0  0  0  0  0  0  0  0  0
   38.7570   27.3810   41.3390 N   0  0  0  0  0  0  0  0  0  0  0  0
   38.8480   27.2260   44.6520 H   0  0  0  0  0  0  0  0  0  0  0  0
   36.4330   27.7440   44.4440 H   0  0  0  0  0  0  0  0  0  0  0  0
   35.5340   27.9870   42.2390 H   0  0  0  0  0  0  0  0  0  0  0  0
   42.2910   25.2840   43.1320 C   0  0  0  0  0  0  0  0  0  0  0  0
   43.2990   26.2340   43.1580 C   0  0  0  0  0  0  0  0  0  0  0  0
   42.9090   27.5570   42.9880 C   0  0  0  0  0  0  0  0  0  0  0  0
   41.5780   27.8340   42.8100 N   0  0  0  0  0  0  0  0  0  0  0  0
   40.6350   26.8530   42.7950 C   0  0  0  0  0  0  0  0  0  0  0  0
   40.9840   25.6050   42.9520 N   0  0  0  0  0  0  0  0  0  0  0  0
   42.5880   24.2400   43.2650 H   0  0  0  0  0  0  0  0  0  0  0  0
   44.3390   26.0200   43.2970 H   0  0  0  0  0  0  0  0  0  0  0  0
   43.5970   28.4080   42.9860 H   0  0  0  0  0  0  0  0  0  0  0  0
   37.0660   30.3600   39.6400 C   0  0  0  0  0  3  0  0  0  0  0  0
   36.5500   31.4540   40.5620 C   0  0  0  0  0  2  0  0  0  0  0  0
   37.6040   32.5260   40.2330 C   0  0  0  0  0  2  0  0  0  0  0  0
   38.0060   32.2620   38.7710 C   0  0  0  0  0  2  0  0  0  0  0  0
   36.9270   31.2190   38.3570 C   0  0  0  0  0  2  0  0  0  0  0  0
  1  7  1  6  0  0  0
  1 21  1  0  0  0  0
  2  8  1  0  0  0  0
  2  1  1  0  0  0  0
  2  9  1  0  0  0  0
  3  2  1  0  0  0  0
  4  3  1  0  0  0  0
  4  5  1  0  0  0  0
  4 13  1  0  0  0  0
  5  6  1  0  0  0  0
  6 35  1  0  0  0  0
  6  1  1  0  0  0  0
  6 16  1  1  0  0  0
 10  3  1  0  0  0  0
 11  3  1  0  0  0  0
 12  4  1  0  0  0  0
 14  5  1  0  0  0  0
 15  5  1  0  0  0  0
 17 30  1  0  0  0  0
 17 18  1  0  0  0  0
 18 23  1  0  0  0  0
 19 18  2  0  0  0  0
 19 24  1  0  0  0  0
 20 19  1  0  0  0  0
 21 22  1  0  0  0  0
 21 20  2  0  0  0  0
 22 17  2  0  0  0  0
 25 20  1  0  0  0  0
 26 27  1  0  0  0  0
 26 32  1  0  0  0  0
 27 33  1  0  0  0  0
 28 27  2  0  0  0  0
 29 28  1  0  0  0  0
 30 29  2  0  0  0  0
 30 31  1  0  0  0  0
 31 26  2  0  0  0  0
 34 28  1  0  0  0  0
 35 36  1  0  0  0  0
 37 36  1  0  0  0  0
 38 37  1  0  0  0  0
 39 38  1  0  0  0  0
 39 35  1  0  0  0  0
M  END
>  <minimizedAffinity>
-5.8306284

$$$$

 OpenBabel03242514073D

 39 42  0  0  1  0  0  0  0  0999 V2000
   36.1330   28.3080   40.1410 C   0  0  1  0  0  0  0  0  0  0  0  0
   35.4810   29.4040   39.3130 C   0  0  0  0  0  0  0  0  0  0  0  0
   34.3160   28.7350   38.5860 C   0  0  0  0  0  0  0  0  0  0  0  0
   35.0180   27.8860   37.5110 C   0  0  0  0  0  0  0  0  0  0  0  0
   35.7210   26.7770   38.2540 C   0  0  0  0  0  0  0  0  0  0  0  0
   36.6420   27.1770   39.3660 C   0  0  2  0  0  0  0  0  0  0  0  0
   35.2690   27.9420   40.7910 H   0  0  0  0  0  0  0  0  0  0  0  0
   35.0040   30.0990   40.0420 H   0  0  0  0  0  0  0  0  0  0  0  0
   36.1860   29.8800   38.6300 H   0  0  0  0  0  0  0  0  0  0  0  0
   33.7760   28.0860   39.2750 H   0  0  0  0  0  0  0  0  0  0  0  0
   33.7220   29.5150   38.0900 H   0  0  0  0  0  0  0  0  0  0  0  0
   34.3320   27.4170   36.8140 H   0  0  0  0  0  0  0  0  0  0  0  0
   35.7950   28.5410   37.0730 H   0  0  0  0  0  0  0  0  0  0  0  0
   36.1710   26.0650   37.5500 H   0  0  0  0  0  0  0  0  0  0  0  0
   34.8370   26.2880   38.7810 H   0  0  0  0  0  0  0  0  0  0  0  0
   37.6260   27.4140   38.9180 H   0  0  0  0  0  0  0  0  0  0  0  0
   38.6800   30.5070   41.6310 C   0  0  0  0  0  0  0  0  0  0  0  0
   38.8130   29.9570   42.8830 C   0  0  0  0  0  0  0  0  0  0  0  0
   38.1190   28.8500   43.3230 C   0  0  0  0  0  0  0  0  0  0  0  0
   37.2520   28.3270   42.3690 C   0  0  0  0  0  0  0  0  0  0  0  0
   37.0940   28.8670   41.0950 C   0  0  0  0  0  0  0  0  0  0  0  0
   37.8170   29.9630   40.7350 N   0  0  0  0  0  0  0  0  0  0  0  0
   39.5150   30.4480   43.5440 H   0  0  0  0  0  0  0  0  0  0  0  0
   38.2490   28.4550   44.3010 H   0  0  0  0  0  0  0  0  0  0  0  0
   36.7470   27.4340   42.7420 H   0  0  0  0  0  0  0  0  0  0  0  0
   41.5560   32.6150   40.8120 C   0  0  0  0  0  0  0  0  0  0  0  0
   40.9990   33.8340   40.4650 C   0  0  0  0  0  0  0  0  0  0  0  0
   39.6120   33.9200   40.5170 C   0  0  0  0  0  0  0  0  0  0  0  0
   38.8980   32.8150   40.9020 N   0  0  0  0  0  0  0  0  0  0  0  0
   39.5070   31.6430   41.2310 C   0  0  0  0  0  0  0  0  0  0  0  0
   40.8080   31.5450   41.1860 N   0  0  0  0  0  0  0  0  0  0  0  0
   42.6460   32.5370   40.7740 H   0  0  0  0  0  0  0  0  0  0  0  0
   41.5540   34.6980   40.1640 H   0  0  0  0  0  0  0  0  0  0  0  0
   39.0390   34.8190   40.2700 H   0  0  0  0  0  0  0  0  0  0  0  0
   36.8000   25.9070   40.1670 C   0  0  0  0  0  3  0  0  0  0  0  0
   38.2270   25.3810   40.2010 C   0  0  0  0  0  2  0  0  0  0  0  0
   37.9580   24.0860   40.9880 C   0  0  0  0  0  2  0  0  0  0  0  0
   36.5230   23.6760   40.6130 C   0  0  0  0  0  2  0  0  0  0  0  0
   36.2360   24.6590   39.4410 C   0  0  0  0  0  2  0  0  0  0  0  0
  1  7  1  1  0  0  0
  1 21  1  0  0  0  0
  2  8  1  0  0  0  0
  2  1  1  0  0  0  0
  3 10  1  0  0  0  0
  3  2  1  0  0  0  0
  4  5  1  0  0  0  0
  4  3  1  0  0  0  0
  5 15  1  0  0  0  0
  5  6  1  0  0  0  0
  6 16  1  6  0  0  0
  6  1  1  0  0  0  0
  6 35  1  0  0  0  0
  9  2  1  0  0  0  0
 11  3  1  0  0  0  0
 12  4  1  0  0  0  0
 13  4  1  0  0  0  0
 14  5  1  0  0  0  0
 17 18  1  0  0  0  0
 18 19  2  0  0  0  0
 18 23  1  0  0  0  0
 19 24  1  0  0  0  0
 20 25  1  0  0  0  0
 20 19  1  0  0  0  0
 21 20  2  0  0  0  0
 22 21  1  0  0  0  0
 22 17  2  0  0  0  0
 26 31  1  0  0  0  0
 27 28  1  0  0  0  0
 27 26  2  0  0  0  0
 28 29  2  0  0  0  0
 29 30  1  0  0  0  0
 30 17  1  0  0  0  0
 31 30  2  0  0  0  0
 32 26  1  0  0  0  0
 33 27  1  0  0  0  0
 34 28  1  0  0  0  0
 35 36  1  0  0  0  0
 36 37  1  0  0  0  0
 38 37  1  0  0  0  0
 39 35  1  0  0  0  0
 39 38  1  0  0  0  0
M  END
>  <minimizedAffinity>
-5.80093908

$$$$

 OpenBabel03242514073D

 39 42  0  0  1  0  0  0  0  0999 V2000
   37.9930   30.5440   40.7430 C   0  0  1  0  0  0  0  0  0  0  0  0
   36.7080   31.2040   40.2710 C   0  0  0  0  0  0  0  0  0  0  0  0
   37.1360   32.2630   39.2570 C   0  0  0  0  0  0  0  0  0  0  0  0
   37.7600   33.3580   40.1410 C   0  0  0  0  0  0  0  0  0  0  0  0
   39.0430   32.7730   40.6780 C   0  0  0  0  0  0  0  0  0  0  0  0
   38.9490   31.4500   41.3770 C   0  0  2  0  0  0  0  0  0  0  0  0
   38.4480   30.1620   39.7680 H   0  0  0  0  0  0  0  0  0  0  0  0
   36.1680   30.4340   39.6730 H   0  0  0  0  0  0  0  0  0  0  0  0
   36.1300   31.6200   41.0970 H   0  0  0  0  0  0  0  0  0  0  0  0
   37.8920   31.8490   38.5900 H   0  0  0  0  0  0  0  0  0  0  0  0
   36.2340   32.6670   38.7760 H   0  0  0  0  0  0  0  0  0  0  0  0
   38.0250   34.2550   39.5930 H   0  0  0  0  0  0  0  0  0  0  0  0
   37.0670   33.4860   40.9920 H   0  0  0  0  0  0  0  0  0  0  0  0
   39.6040   33.5280   41.2450 H   0  0  0  0  0  0  0  0  0  0  0  0
   39.5890   32.5410   39.7060 H   0  0  0  0  0  0  0  0  0  0  0  0
   38.6710   31.6470   42.4310 H   0  0  0  0  0  0  0  0  0  0  0  0
   37.2810   27.0260   41.5570 C   0  0  0  0  0  0  0  0  0  0  0  0
   37.2740   27.0620   42.9310 C   0  0  0  0  0  0  0  0  0  0  0  0
   37.4770   28.2020   43.6780 C   0  0  0  0  0  0  0  0  0  0  0  0
   37.6950   29.3380   42.9060 C   0  0  0  0  0  0  0  0  0  0  0  0
   37.7120   29.3290   41.5130 C   0  0  0  0  0  0  0  0  0  0  0  0
   37.5020   28.1610   40.8460 N   0  0  0  0  0  0  0  0  0  0  0  0
   37.0960   26.1180   43.4290 H   0  0  0  0  0  0  0  0  0  0  0  0
   37.4650   28.1890   44.7410 H   0  0  0  0  0  0  0  0  0  0  0  0
   37.8180   30.2240   43.5310 H   0  0  0  0  0  0  0  0  0  0  0  0
   36.9390   23.4800   40.7250 C   0  0  0  0  0  0  0  0  0  0  0  0
   36.4150   23.4780   39.4440 C   0  0  0  0  0  0  0  0  0  0  0  0
   36.1780   24.7210   38.8680 C   0  0  0  0  0  0  0  0  0  0  0  0
   36.4750   25.8480   39.5900 N   0  0  0  0  0  0  0  0  0  0  0  0
   36.9900   25.7820   40.8490 C   0  0  0  0  0  0  0  0  0  0  0  0
   37.2170   24.6230   41.4040 N   0  0  0  0  0  0  0  0  0  0  0  0
   37.1290   22.5060   41.1860 H   0  0  0  0  0  0  0  0  0  0  0  0
   36.1830   22.6000   38.8780 H   0  0  0  0  0  0  0  0  0  0  0  0
   35.7680   24.8700   37.8650 H   0  0  0  0  0  0  0  0  0  0  0  0
   40.3720   30.9450   41.3670 C   0  0  0  0  0  3  0  0  0  0  0  0
   41.0690   31.0620   42.7140 C   0  0  0  0  0  2  0  0  0  0  0  0
   42.4600   30.5660   42.2790 C   0  0  0  0  0  2  0  0  0  0  0  0
   42.5940   30.9830   40.8040 C   0  0  0  0  0  2  0  0  0  0  0  0
   41.3520   31.9080   40.6490 C   0  0  0  0  0  2  0  0  0  0  0  0
  1  7  1  6  0  0  0
  1  6  1  0  0  0  0
  1 21  1  0  0  0  0
  2  1  1  0  0  0  0
  2  9  1  0  0  0  0
  3  4  1  0  0  0  0
  3  2  1  0  0  0  0
  4  5  1  0  0  0  0
  4 13  1  0  0  0  0
  5 14  1  0  0  0  0
  5  6  1  0  0  0  0
  6 16  1  1  0  0  0
  8  2  1  0  0  0  0
 10  3  1  0  0  0  0
 11  3  1  0  0  0  0
 12  4  1  0  0  0  0
 15  5  1  0  0  0  0
 17 18  1  0  0  0  0
 18 23  1  0  0  0  0
 18 19  2  0  0  0  0
 19 24  1  0  0  0  0
 20 25  1  0  0  0  0
 20 19  1  0  0  0  0
 21 20  2  0  0  0  0
 22 21  1  0  0  0  0
 22 17  2  0  0  0  0
 26 32  1  0  0  0  0
 26 31  1  0  0  0  0
 27 26  2  0  0  0  0
 28 27  1  0  0  0  0
 28 29  2  0  0  0  0
 29 30  1  0  0  0  0
 30 31  2  0  0  0  0
 30 17  1  0  0  0  0
 33 27  1  0  0  0  0
 34 28  1  0  0  0  0
 35  6  1  0  0  0  0
 35 36  1  0  0  0  0
 37 36  1  0  0  0  0
 38 37  1  0  0  0  0
 39 38  1  0  0  0  0
 39 35  1  0  0  0  0
M  END
>  <minimizedAffinity>
-5.66397047

$$$$

 OpenBabel03242514073D

 39 42  0  0  1  0  0  0  0  0999 V2000
   38.6550   27.9740   41.5100 C   0  0  1  0  0  0  0  0  0  0  0  0
   39.7810   28.6560   42.2700 C   0  0  0  0  0  0  0  0  0  0  0  0
   40.8000   27.5590   42.5710 C   0  0  0  0  0  0  0  0  0  0  0  0
   40.1100   26.7380   43.6760 C   0  0  0  0  0  0  0  0  0  0  0  0
   38.9510   26.0400   43.0090 C   0  0  0  0  0  0  0  0  0  0  0  0
   37.9900   26.8950   42.2400 C   0  0  2  0  0  0  0  0  0  0  0  0
   39.1990   27.5230   40.6140 H   0  0  0  0  0  0  0  0  0  0  0  0
   40.2870   29.3250   41.5360 H   0  0  0  0  0  0  0  0  0  0  0  0
   39.4250   29.1600   43.1700 H   0  0  0  0  0  0  0  0  0  0  0  0
   40.9460   26.9400   41.6870 H   0  0  0  0  0  0  0  0  0  0  0  0
   41.7020   28.0280   42.9900 H   0  0  0  0  0  0  0  0  0  0  0  0
   40.7440   25.9670   44.1010 H   0  0  0  0  0  0  0  0  0  0  0  0
   39.6930   27.4790   44.3830 H   0  0  0  0  0  0  0  0  0  0  0  0
   38.4590   25.3520   43.7100 H   0  0  0  0  0  0  0  0  0  0  0  0
   39.5010   25.4430   42.2100 H   0  0  0  0  0  0  0  0  0  0  0  0
   37.2510   27.2990   42.9590 H   0  0  0  0  0  0  0  0  0  0  0  0
   36.4240   29.6570   39.1150 C   0  0  0  0  0  0  0  0  0  0  0  0
   35.9870   30.7270   39.8580 C   0  0  0  0  0  0  0  0  0  0  0  0
   36.3840   30.9870   41.1520 C   0  0  0  0  0  0  0  0  0  0  0  0
   37.2850   30.0530   41.6520 C   0  0  0  0  0  0  0  0  0  0  0  0
   37.7410   28.9570   40.9230 C   0  0  0  0  0  0  0  0  0  0  0  0
   37.3020   28.7690   39.6480 N   0  0  0  0  0  0  0  0  0  0  0  0
   35.2850   31.3890   39.3690 H   0  0  0  0  0  0  0  0  0  0  0  0
   36.0220   31.8260   41.6950 H   0  0  0  0  0  0  0  0  0  0  0  0
   37.6010   30.3110   42.6640 H   0  0  0  0  0  0  0  0  0  0  0  0
   34.4310   28.9210   36.1370 C   0  0  0  0  0  0  0  0  0  0  0  0
   35.2710   29.2240   35.0790 C   0  0  0  0  0  0  0  0  0  0  0  0
   36.5400   29.6890   35.4080 C   0  0  0  0  0  0  0  0  0  0  0  0
   36.8730   29.8130   36.7320 N   0  0  0  0  0  0  0  0  0  0  0  0
   35.9980   29.4980   37.7270 C   0  0  0  0  0  0  0  0  0  0  0  0
   34.8040   29.0610   37.4350 N   0  0  0  0  0  0  0  0  0  0  0  0
   33.4310   28.5550   35.8880 H   0  0  0  0  0  0  0  0  0  0  0  0
   35.0140   29.1270   34.0440 H   0  0  0  0  0  0  0  0  0  0  0  0
   37.3050   29.9650   34.6770 H   0  0  0  0  0  0  0  0  0  0  0  0
   37.2710   25.9070   41.3530 C   0  0  0  0  0  3  0  0  0  0  0  0
   36.9660   24.5830   42.0380 C   0  0  0  0  0  2  0  0  0  0  0  0
   36.3570   23.8520   40.8280 C   0  0  0  0  0  2  0  0  0  0  0  0
   37.0650   24.4470   39.5980 C   0  0  0  0  0  2  0  0  0  0  0  0
   38.1950   25.2710   40.2820 C   0  0  0  0  0  2  0  0  0  0  0  0
  1  7  1  6  0  0  0
  1  6  1  0  0  0  0
  1  2  1  0  0  0  0
  2  3  1  0  0  0  0
  2  9  1  0  0  0  0
  3 11  1  0  0  0  0
  3  4  1  0  0  0  0
  4 12  1  0  0  0  0
  4 13  1  0  0  0  0
  5  4  1  0  0  0  0
  5 14  1  0  0  0  0
  6 16  1  1  0  0  0
  6  5  1  0  0  0  0
  8  2  1  0  0  0  0
 10  3  1  0  0  0  0
 15  5  1  0  0  0  0
 17 22  2  0  0  0  0
 17 18  1  0  0  0  0
 18 19  2  0  0  0  0
 19 20  1  0  0  0  0
 19 24  1  0  0  0  0
 20 25  1  0  0  0  0
 21  1  1  0  0  0  0
 21 20  2  0  0  0  0
 22 21  1  0  0  0  0
 23 18  1  0  0  0  0
 26 31  1  0  0  0  0
 27 28  1  0  0  0  0
 27 26  2  0  0  0  0
 28 29  2  0  0  0  0
 29 30  1  0  0  0  0
 30 17  1  0  0  0  0
 31 30  2  0  0  0  0
 32 26  1  0  0  0  0
 33 27  1  0  0  0  0
 34 28  1  0  0  0  0
 35 36  1  0  0  0  0
 35  6  1  0  0  0  0
 37 36  1  0  0  0  0
 38 39  1  0  0  0  0
 38 37  1  0  0  0  0
 39 35  1  0  0  0  0
M  END
>  <minimizedAffinity>
-5.63283443

$$$$

 OpenBabel03242514073D

 39 42  0  0  1  0  0  0  0  0999 V2000
   38.6930   29.0420   41.5050 C   0  0  1  0  0  0  0  0  0  0  0  0
   39.3300   28.7060   42.8450 C   0  0  0  0  0  0  0  0  0  0  0  0
   38.7190   27.3720   43.2700 C   0  0  0  0  0  0  0  0  0  0  0  0
   37.2860   27.7610   43.6770 C   0  0  0  0  0  0  0  0  0  0  0  0
   36.5810   28.1380   42.3980 C   0  0  0  0  0  0  0  0  0  0  0  0
   37.2370   29.1740   41.5370 C   0  0  2  0  0  0  0  0  0  0  0  0
   38.9610   28.1330   40.8690 H   0  0  0  0  0  0  0  0  0  0  0  0
   40.3990   28.4780   42.6280 H   0  0  0  0  0  0  0  0  0  0  0  0
   39.1780   29.4950   43.5830 H   0  0  0  0  0  0  0  0  0  0  0  0
   38.6910   26.6930   42.4180 H   0  0  0  0  0  0  0  0  0  0  0  0
   39.2560   27.0130   44.1590 H   0  0  0  0  0  0  0  0  0  0  0  0
   36.7270   26.9440   44.1190 H   0  0  0  0  0  0  0  0  0  0  0  0
   37.3870   28.6780   44.2870 H   0  0  0  0  0  0  0  0  0  0  0  0
   35.5180   28.3370   42.5870 H   0  0  0  0  0  0  0  0  0  0  0  0
   36.6900   27.1700   41.8080 H   0  0  0  0  0  0  0  0  0  0  0  0
   36.9370   30.1680   41.9210 H   0  0  0  0  0  0  0  0  0  0  0  0
   40.7770   30.9390   39.1380 C   0  0  0  0  0  0  0  0  0  0  0  0
   40.6050   32.2230   39.5950 C   0  0  0  0  0  0  0  0  0  0  0  0
   39.8360   32.5620   40.6870 C   0  0  0  0  0  0  0  0  0  0  0  0
   39.2340   31.4680   41.3000 C   0  0  0  0  0  0  0  0  0  0  0  0
   39.3860   30.1570   40.8550 C   0  0  0  0  0  0  0  0  0  0  0  0
   40.1650   29.9030   39.7670 N   0  0  0  0  0  0  0  0  0  0  0  0
   41.1200   32.9970   39.0410 H   0  0  0  0  0  0  0  0  0  0  0  0
   39.7270   33.5690   41.0100 H   0  0  0  0  0  0  0  0  0  0  0  0
   38.6620   31.7720   42.1780 H   0  0  0  0  0  0  0  0  0  0  0  0
   43.4050   31.2470   36.6110 C   0  0  0  0  0  0  0  0  0  0  0  0
   43.3040   30.0820   35.8690 C   0  0  0  0  0  0  0  0  0  0  0  0
   42.3140   29.1850   36.2530 C   0  0  0  0  0  0  0  0  0  0  0  0
   41.5150   29.5040   37.3210 N   0  0  0  0  0  0  0  0  0  0  0  0
   41.6660   30.6680   38.0110 C   0  0  0  0  0  0  0  0  0  0  0  0
   42.5910   31.5210   37.6630 N   0  0  0  0  0  0  0  0  0  0  0  0
   44.1810   31.9590   36.3160 H   0  0  0  0  0  0  0  0  0  0  0  0
   43.9260   29.8310   35.0350 H   0  0  0  0  0  0  0  0  0  0  0  0
   42.1210   28.2290   35.7590 H   0  0  0  0  0  0  0  0  0  0  0  0
   36.5760   28.9860   40.1920 C   0  0  0  0  0  3  0  0  0  0  0  0
   35.0720   29.2160   40.2160 C   0  0  0  0  0  2  0  0  0  0  0  0
   34.7760   28.8410   38.7520 C   0  0  0  0  0  2  0  0  0  0  0  0
   35.8360   27.7890   38.3830 C   0  0  0  0  0  2  0  0  0  0  0  0
   36.4560   27.4960   39.7800 C   0  0  0  0  0  2  0  0  0  0  0  0
  1  7  1  6  0  0  0
  1  6  1  0  0  0  0
  1  2  1  0  0  0  0
  2  3  1  0  0  0  0
  2  9  1  0  0  0  0
  3  4  1  0  0  0  0
  3 11  1  0  0  0  0
  4 12  1  0  0  0  0
  4 13  1  0  0  0  0
  5 14  1  0  0  0  0
  5  4  1  0  0  0  0
  6 16  1  1  0  0  0
  6  5  1  0  0  0  0
  8  2  1  0  0  0  0
 10  3  1  0  0  0  0
 15  5  1  0  0  0  0
 17 18  2  0  0  0  0
 17 22  1  0  0  0  0
 18 19  1  0  0  0  0
 19 24  1  0  0  0  0
 19 20  2  0  0  0  0
 20 25  1  0  0  0  0
 21 20  1  0  0  0  0
 21  1  1  0  0  0  0
 22 21  2  0  0  0  0
 23 18  1  0  0  0  0
 26 31  1  0  0  0  0
 27 28  1  0  0  0  0
 27 26  2  0  0  0  0
 28 29  2  0  0  0  0
 29 30  1  0  0  0  0
 30 17  1  0  0  0  0
 31 30  2  0  0  0  0
 32 26  1  0  0  0  0
 33 27  1  0  0  0  0
 34 28  1  0  0  0  0
 35 36  1  0  0  0  0
 35  6  1  0  0  0  0
 37 36  1  0  0  0  0
 38 37  1  0  0  0  0
 38 39  1  0  0  0  0
 39 35  1  0  0  0  0
M  END
>  <minimizedAffinity>
-5.61999512

$$$$

 OpenBabel03242514073D

 39 42  0  0  1  0  0  0  0  0999 V2000
   36.5160   28.9350   41.2390 C   0  0  1  0  0  0  0  0  0  0  0  0
   36.6750   27.7030   42.1170 C   0  0  0  0  0  0  0  0  0  0  0  0
   37.1350   28.2220   43.4780 C   0  0  0  0  0  0  0  0  0  0  0  0
   38.5970   28.6300   43.2180 C   0  0  0  0  0  0  0  0  0  0  0  0
   38.5340   29.8440   42.3230 C   0  0  0  0  0  0  0  0  0  0  0  0
   37.7360   29.7200   41.0610 C   0  0  2  0  0  0  0  0  0  0  0  0
   35.7650   29.5620   41.8270 H   0  0  0  0  0  0  0  0  0  0  0  0
   35.6460   27.3140   42.2900 H   0  0  0  0  0  0  0  0  0  0  0  0
   37.3660   26.9770   41.6870 H   0  0  0  0  0  0  0  0  0  0  0  0
   36.5500   29.0990   43.7540 H   0  0  0  0  0  0  0  0  0  0  0  0
   37.1220   27.3860   44.1900 H   0  0  0  0  0  0  0  0  0  0  0  0
   39.1290   28.9240   44.1160 H   0  0  0  0  0  0  0  0  0  0  0  0
   39.0380   27.8040   42.6310 H   0  0  0  0  0  0  0  0  0  0  0  0
   39.5380   30.2600   42.1660 H   0  0  0  0  0  0  0  0  0  0  0  0
   37.9240   30.5510   42.9750 H   0  0  0  0  0  0  0  0  0  0  0  0
   38.3920   29.2660   40.2930 H   0  0  0  0  0  0  0  0  0  0  0  0
   35.7280   27.3810   37.9970 C   0  0  0  0  0  0  0  0  0  0  0  0
   34.5020   27.9380   37.7210 C   0  0  0  0  0  0  0  0  0  0  0  0
   33.8630   28.8490   38.5350 C   0  0  0  0  0  0  0  0  0  0  0  0
   34.5790   29.1620   39.6850 C   0  0  0  0  0  0  0  0  0  0  0  0
   35.8210   28.6090   39.9910 C   0  0  0  0  0  0  0  0  0  0  0  0
   36.3880   27.7150   39.1350 N   0  0  0  0  0  0  0  0  0  0  0  0
   34.0340   27.6210   36.7990 H   0  0  0  0  0  0  0  0  0  0  0  0
   32.9130   29.2570   38.2860 H   0  0  0  0  0  0  0  0  0  0  0  0
   34.0570   29.9090   40.2850 H   0  0  0  0  0  0  0  0  0  0  0  0
   38.1100   25.1330   36.3690 C   0  0  0  0  0  0  0  0  0  0  0  0
   37.4840   24.7670   35.1890 C   0  0  0  0  0  0  0  0  0  0  0  0
   36.2240   25.3080   34.9620 C   0  0  0  0  0  0  0  0  0  0  0  0
   35.6920   26.1540   35.9000 N   0  0  0  0  0  0  0  0  0  0  0  0
   36.3600   26.4740   37.0430 C   0  0  0  0  0  0  0  0  0  0  0  0
   37.5430   25.9740   37.2710 N   0  0  0  0  0  0  0  0  0  0  0  0
   39.1030   24.7120   36.5560 H   0  0  0  0  0  0  0  0  0  0  0  0
   37.8980   24.1080   34.4540 H   0  0  0  0  0  0  0  0  0  0  0  0
   35.6160   25.1070   34.0750 H   0  0  0  0  0  0  0  0  0  0  0  0
   37.4890   31.1550   40.6590 C   0  0  0  0  0  3  0  0  0  0  0  0
   37.4640   31.3700   39.1540 C   0  0  0  0  0  2  0  0  0  0  0  0
   37.3000   32.9010   39.1600 C   0  0  0  0  0  2  0  0  0  0  0  0
   38.0040   33.3780   40.4420 C   0  0  0  0  0  2  0  0  0  0  0  0
   38.7200   32.0680   40.8850 C   0  0  0  0  0  2  0  0  0  0  0  0
  1  7  1  1  0  0  0
  1  2  1  0  0  0  0
  2  8  1  0  0  0  0
  2  3  1  0  0  0  0
  3 10  1  0  0  0  0
  3 11  1  0  0  0  0
  4  3  1  0  0  0  0
  4 12  1  0  0  0  0
  5 15  1  0  0  0  0
  5  4  1  0  0  0  0
  6 16  1  6  0  0  0
  6  1  1  0  0  0  0
  6  5  1  0  0  0  0
  9  2  1  0  0  0  0
 13  4  1  0  0  0  0
 14  5  1  0  0  0  0
 17 22  1  0  0  0  0
 18 17  2  0  0  0  0
 18 19  1  0  0  0  0
 19 20  2  0  0  0  0
 20 21  1  0  0  0  0
 20 25  1  0  0  0  0
 21  1  1  0  0  0  0
 22 21  2  0  0  0  0
 23 18  1  0  0  0  0
 24 19  1  0  0  0  0
 26 32  1  0  0  0  0
 26 31  1  0  0  0  0
 27 26  2  0  0  0  0
 28 27  1  0  0  0  0
 28 29  2  0  0  0  0
 29 30  1  0  0  0  0
 30 31  2  0  0  0  0
 30 17  1  0  0  0  0
 33 27  1  0  0  0  0
 34 28  1  0  0  0  0
 35 39  1  0  0  0  0
 35  6  1  0  0  0  0
 36 37  1  0  0  0  0
 36 35  1  0  0  0  0
 37 38  1  0  0  0  0
 38 39  1  0  0  0  0
M  END
>  <minimizedAffinity>
-5.54714251

$$$$
