
     RDKit          3D

 24 25  0  0  0  0  0  0  0  0999 V2000
   45.0032   35.4828   44.1882 C   0  0  0  0  0  0  0  0  0  0  0  0
   45.9913   34.9240   43.3300 C   0  0  0  0  0  0  0  0  0  0  0  0
   46.7082   33.8355   43.8433 C   0  0  0  0  0  0  0  0  0  0  0  0
   46.4403   33.3815   45.0829 N   0  0  0  0  0  0  0  0  0  0  0  0
   45.4913   33.9468   45.8596 C   0  0  0  0  0  0  0  0  0  0  0  0
   44.7783   34.9853   45.4226 N   0  0  0  0  0  0  0  0  0  0  0  0
   44.2853   36.5470   43.7173 O   0  0  0  0  0  0  0  0  0  0  0  0
   47.4429   33.4201   43.2049 H   0  0  0  0  0  0  0  0  0  0  0  0
   45.2589   33.5981   46.8602 H   0  0  0  0  0  0  0  0  0  0  0  0
   44.6988   37.4883   43.7473 H   0  0  0  0  0  0  0  0  0  0  0  0
   46.1764   35.5301   41.9869 C   0  0  0  0  0  0  0  0  0  0  0  0
   46.2026   37.0377   42.0921 C   0  0  0  0  0  0  0  0  0  0  0  0
   44.8644   37.5240   41.5909 C   0  0  0  0  0  0  0  0  0  0  0  0
   44.1992   36.3777   40.8693 C   0  0  0  0  0  0  0  0  0  0  0  0
   45.0419   35.1455   41.0995 C   0  0  0  0  0  0  0  0  0  0  0  0
   47.1611   35.1692   41.5970 H   0  0  0  0  0  0  0  0  0  0  0  0
   47.0439   37.5052   41.5274 H   0  0  0  0  0  0  0  0  0  0  0  0
   46.3087   37.3447   43.1494 H   0  0  0  0  0  0  0  0  0  0  0  0
   44.9858   38.4334   40.9584 H   0  0  0  0  0  0  0  0  0  0  0  0
   44.2147   37.8397   42.4516 H   0  0  0  0  0  0  0  0  0  0  0  0
   43.1695   36.1953   41.2400 H   0  0  0  0  0  0  0  0  0  0  0  0
   44.1512   36.5754   39.7587 H   0  0  0  0  0  0  0  0  0  0  0  0
   44.4359   34.2954   41.4714 H   0  0  0  0  0  0  0  0  0  0  0  0
   45.4933   34.7860   40.1289 H   0  0  0  0  0  0  0  0  0  0  0  0
  1  6  2  0
  2  3  2  0
  2  1  1  0
  3  4  1  0
  4  5  2  0
  6  5  1  0
  7  1  1  0
  3  8  1  0
  5  9  1  0
  7 10  1  0
 11 12  1  0
 12 13  1  0
 13 14  1  0
 14 15  1  0
 15 11  1  0
 11 16  1  0
 12 17  1  0
 12 18  1  0
 13 19  1  0
 13 20  1  0
 14 21  1  0
 14 22  1  0
 15 23  1  0
 15 24  1  0
  2 11  1  0
M  ISO  3   8  14   9  14  10   3
M  END
>  <DihAtoms>  (1) 
2,1,10,11

>  <DihDeg>  (1) 
89.99152022864307

$$$$
