REMARK  Name = 
REMARK  3 active torsions:
REMARK  status: ('A' for Active; 'I' for Inactive)
REMARK    1  A    between atoms: C_1  and  C_11
REMARK    2  A    between atoms: C_5  and  C_7
REMARK    3  A    between atoms: C_13  and  C_20
REMARK                            x       y       z     vdW  Elec       q    Type
REMARK                         _______ _______ _______ _____ _____    ______ ____
ROOT
ATOM      1  C   UNL     1      45.529  34.156  44.415  0.00  0.00    +0.000 A 
ATOM      2  C   UNL     1      46.509  33.612  43.544  0.00  0.00    +0.000 A 
ATOM      3  C   UNL     1      47.402  32.682  44.063  0.00  0.00    +0.000 A 
ATOM      4  N   UNL     1      47.292  32.340  45.376  0.00  0.00    +0.000 NA
ATOM      5  C   UNL     1      46.342  32.883  46.175  0.00  0.00    +0.000 A 
ATOM      6  N   UNL     1      45.464  33.791  45.681  0.00  0.00    +0.000 NA
ATOM      7  H   UNL     1      46.539  33.925  42.526  0.00  0.00    +0.000 HD
ATOM      8  H   UNL     1      48.169  32.235  43.446  0.00  0.00    +0.000 HD
ENDROOT
BRANCH   1   9
ATOM      9  C   UNL     1      44.561  35.159  43.903  0.00  0.00    +0.000 C 
ATOM     10  C   UNL     1      44.903  36.611  44.305  0.00  0.00    +0.000 C 
ATOM     11  C   UNL     1      44.947  36.144  42.889  0.00  0.00    +0.000 C 
ATOM     12  H   UNL     1      43.517  34.883  44.174  0.00  0.00    +0.000 HD
ATOM     13  H   UNL     1      45.877  36.785  44.783  0.00  0.00    +0.000 HD
ATOM     14  H   UNL     1      44.067  37.273  44.563  0.00  0.00    +0.000 HD
ATOM     15  H   UNL     1      45.971  35.958  42.438  0.00  0.00    +0.000 HD
BRANCH  11  16
ATOM     16  C   UNL     1      43.917  36.472  41.873  0.00  0.00    +0.000 C 
ATOM     17  C   UNL     1      42.787  35.479  41.857  0.00  0.00    +0.000 C 
ATOM     18  C   UNL     1      41.768  36.232  40.997  0.00  0.00    +0.000 C 
ATOM     19  C   UNL     1      41.757  37.569  41.737  0.00  0.00    +0.000 C 
ATOM     20  C   UNL     1      43.224  37.795  42.060  0.00  0.00    +0.000 C 
ENDBRANCH  11  16
ENDBRANCH   1   9
BRANCH   5  21
ATOM     21  C   UNL     1      46.394  32.386  47.588  0.00  0.00    +0.000 C 
ATOM     22  F   UNL     1      45.387  32.917  48.356  0.00  0.00    +0.000 F 
ATOM     23  F   UNL     1      47.618  32.738  48.163  0.00  0.00    +0.000 F 
ATOM     24  F   UNL     1      46.369  30.997  47.571  0.00  0.00    +0.000 F 
ENDBRANCH   5  21
TORSDOF 3
