
     RDKit          3D

 52 57  0  0  0  0  0  0  0  0999 V2000
   46.6853   33.4624   43.0986 C   0  0  1  0  0  0  0  0  0  0  0  0
   46.9793   34.8277   42.6786 C   0  0  0  0  0  0  0  0  0  0  0  0
   48.0957   33.8531   42.6900 C   0  0  2  0  0  0  0  0  0  0  0  0
   48.5208   33.2951   41.3761 C   0  0  0  0  0  0  0  0  0  0  0  0
   49.3546   32.2065   41.2321 C   0  0  0  0  0  0  0  0  0  0  0  0
   49.7184   31.7526   39.9778 C   0  0  0  0  0  0  0  0  0  0  0  0
   49.2521   32.3832   38.8452 C   0  0  0  0  0  0  0  0  0  0  0  0
   49.5923   31.9599   37.5955 N   0  0  0  0  0  0  0  0  0  0  0  0
   49.1192   32.5992   36.5016 C   0  0  0  0  0  0  0  0  0  0  0  0
   48.2606   33.7228   36.5599 C   0  0  0  0  0  0  0  0  0  0  0  0
   47.9070   34.1633   37.8153 C   0  0  0  0  0  0  0  0  0  0  0  0
   48.4030   33.4935   38.9327 C   0  0  0  0  0  0  0  0  0  0  0  0
   48.0689   33.9080   40.2077 C   0  0  0  0  0  0  0  0  0  0  0  0
   45.5502   33.9462   45.2970 C   0  0  0  0  0  0  0  0  0  0  0  0
   46.4762   33.1440   44.5415 C   0  0  0  0  0  0  0  0  0  0  0  0
   47.1278   32.1259   45.1897 C   0  0  0  0  0  0  0  0  0  0  0  0
   46.8383   31.9610   46.5067 N   0  0  0  0  0  0  0  0  0  0  0  0
   45.9793   32.7060   47.2037 C   0  0  0  0  0  0  0  0  0  0  0  0
   45.3269   33.7086   46.5994 N   0  0  0  0  0  0  0  0  0  0  0  0
   45.7694   32.3747   48.6354 C   0  0  2  0  0  0  0  0  0  0  0  0
   46.2834   31.1685   49.2517 C   0  0  0  0  0  0  0  0  0  0  0  0
   44.8052   31.2140   48.9048 C   0  0  2  0  0  0  0  0  0  0  0  0
   46.1477   32.7782   42.4185 H   0  0  0  0  0  0  0  0  0  0  0  0
   47.0898   35.6194   43.4883 H   0  0  0  0  0  0  0  0  0  0  0  0
   46.4462   35.2036   41.8232 H   0  0  0  0  0  0  0  0  0  0  0  0
   48.8503   33.7845   43.4792 H   0  0  0  0  0  0  0  0  0  0  0  0
   49.7033   31.7342   42.1374 H   0  0  0  0  0  0  0  0  0  0  0  0
   50.3790   30.8897   39.8736 H   0  0  0  0  0  0  0  0  0  0  0  0
   49.4002   32.2486   35.5175 H   0  0  0  0  0  0  0  0  0  0  0  0
   47.9265   34.1772   35.6373 H   0  0  0  0  0  0  0  0  0  0  0  0
   47.2540   35.0168   37.9159 H   0  0  0  0  0  0  0  0  0  0  0  0
   47.4171   34.7709   40.2033 H   0  0  0  0  0  0  0  0  0  0  0  0
   45.0275   34.7508   44.8093 H   0  0  0  0  0  0  0  0  0  0  0  0
   47.8214   31.5134   44.6544 H   0  0  0  0  0  0  0  0  0  0  0  0
   45.5358   33.3151   49.2314 H   0  0  0  0  0  0  0  0  0  0  0  0
   46.9931   30.5531   48.6754 H   0  0  0  0  0  0  0  0  0  0  0  0
   46.5898   31.2588   50.3139 H   0  0  0  0  0  0  0  0  0  0  0  0
   44.1770   31.3628   49.8265 H   0  0  0  0  0  0  0  0  0  0  0  0
   44.3306   30.2932   47.8413 C   0  0  0  0  0  0  0  0  0  0  0  0
   43.1678   29.4877   48.4679 C   0  0  0  0  0  0  0  0  0  0  0  0
   43.9238   28.6286   49.4556 C   0  0  0  0  0  0  0  0  0  0  0  0
   45.2474   28.3365   48.8065 C   0  0  0  0  0  0  0  0  0  0  0  0
   45.2512   29.1381   47.5421 C   0  0  0  0  0  0  0  0  0  0  0  0
   43.9824   30.8023   46.9218 H   0  0  0  0  0  0  0  0  0  0  0  0
   42.6522   28.8972   47.7036 H   0  0  0  0  0  0  0  0  0  0  0  0
   42.5278   30.2093   49.0018 H   0  0  0  0  0  0  0  0  0  0  0  0
   43.3610   27.6862   49.6941 H   0  0  0  0  0  0  0  0  0  0  0  0
   44.0644   29.1664   50.4155 H   0  0  0  0  0  0  0  0  0  0  0  0
   45.3828   27.2427   48.6133 H   0  0  0  0  0  0  0  0  0  0  0  0
   46.0484   28.6104   49.5040 H   0  0  0  0  0  0  0  0  0  0  0  0
   46.2550   29.4068   47.1953 H   0  0  0  0  0  0  0  0  0  0  0  0
   44.7202   28.5082   46.7620 H   0  0  0  0  0  0  0  0  0  0  0  0
  1 15  1  0
  2  3  1  0
  2  1  1  0
  3  1  1  0
  4  3  1  0
  5  4  2  0
  6  5  1  0
  7 12  1  0
  7  6  2  0
  8  7  1  0
  9 10  1  0
  9  8  2  0
 10 11  2  0
 11 12  1  0
 12 13  2  0
 13  4  1  0
 14 19  2  0
 15 16  2  0
 15 14  1  0
 16 17  1  0
 17 18  2  0
 18 20  1  0
 19 18  1  0
 20 22  1  0
 20 21  1  0
 22 21  1  0
  1 23  1  6
  2 24  1  0
  2 25  1  0
  3 26  1  1
  5 27  1  0
  6 28  1  0
  9 29  1  0
 10 30  1  0
 11 31  1  0
 13 32  1  0
 14 33  1  0
 16 34  1  0
 20 35  1  1
 21 36  1  0
 21 37  1  0
 22 38  1  1
 39 40  1  0
 40 41  1  0
 41 42  1  0
 42 43  1  0
 43 39  1  0
 39 44  1  0
 40 45  1  0
 40 46  1  0
 41 47  1  0
 41 48  1  0
 42 49  1  0
 42 50  1  0
 43 51  1  0
 43 52  1  0
 22 39  1  0
M  ISO  8  23  13  24  13  25  13  26  13  27  14  28  14  29  14  30  14
M  ISO  8  31  14  32  14  33  14  34  14  35  13  36  13  37  13  38  13
M  END
>  <DihAtoms>  (1) 
19,21,38,39

>  <DihDeg>  (1) 
-168.14019798131844

$$$$
