
 OpenBabel03242518133D

 27 29  0  0  0  0  0  0  0  0999 V2000
   48.6540   33.8330   42.2480 C   0  0  0  0  0  0  0  0  0  0  0  0
   49.4220   34.1180   42.9960 H   0  0  0  0  0  0  0  0  0  0  0  0
   47.8580   33.2630   42.7990 H   0  0  0  0  0  0  0  0  0  0  0  0
   49.2350   33.0190   41.2350 C   0  0  0  0  0  0  0  0  0  0  0  0
   48.8990   32.5940   39.9050 C   0  0  0  0  0  0  0  0  0  0  0  0
   49.7600   31.7790   39.2260 C   0  0  0  0  0  0  0  0  0  0  0  0
   50.9780   31.3840   39.8980 C   0  0  0  0  0  0  0  0  0  0  0  0
   50.9190   32.1760   41.5240 S   0  0  0  0  0  0  0  0  0  0  0  0
   47.9620   32.9800   39.5670 H   0  0  0  0  0  0  0  0  0  0  0  0
   49.5320   31.4470   38.2290 H   0  0  0  0  0  0  0  0  0  0  0  0
   51.9830   30.5510   39.3620 C   0  0  0  0  0  0  0  0  0  0  0  0
   51.7660   30.2770   37.8880 C   0  0  0  0  0  0  0  0  0  0  0  0
   53.1060   30.5020   37.2210 C   0  0  0  0  0  0  0  0  0  0  0  0
   53.7470   31.5590   38.0590 C   0  0  0  0  0  0  0  0  0  0  0  0
   53.3610   31.1690   39.4710 C   0  0  0  0  0  0  0  0  0  0  0  0
   47.9960   35.1040   41.7790 C   0  0  0  0  0  0  0  0  0  0  0  0
   48.2860   35.2950   40.7520 H   0  0  0  0  0  0  0  0  0  0  0  0
   48.3780   35.9690   42.3910 H   0  0  0  0  0  0  0  0  0  0  0  0
   46.5460   34.9770   41.9420 C   0  0  0  0  0  0  0  0  0  0  0  0
   45.8840   35.4760   43.0570 C   0  0  0  0  0  0  0  0  0  0  0  0
   44.5070   35.3100   43.1280 C   0  0  0  0  0  0  0  0  0  0  0  0
   43.8820   34.6770   42.1170 N   0  0  0  0  0  0  0  0  0  0  0  0
   44.5400   34.2050   41.0530 C   0  0  0  0  0  0  0  0  0  0  0  0
   45.8510   34.3600   40.9800 N   0  0  0  0  0  0  0  0  0  0  0  0
   46.4220   35.9800   43.8500 H   0  0  0  0  0  0  0  0  0  0  0  0
   43.9230   35.6760   43.9740 H   0  0  0  0  0  0  0  0  0  0  0  0
   44.0310   33.6960   40.2410 H   0  0  0  0  0  0  0  0  0  0  0  0
  1  3  1  0  0  0  0
  1  2  1  0  0  0  0
  4  8  1  0  0  0  0
  4  1  1  0  0  0  0
  5  4  2  0  0  0  0
  6  7  2  0  0  0  0
  6  5  1  0  0  0  0
  7  8  1  0  0  0  0
  9  5  1  0  0  0  0
 10  6  1  0  0  0  0
 11 15  1  0  0  0  0
 11  7  1  0  0  0  0
 12 11  1  0  0  0  0
 13 12  1  0  0  0  0
 13 14  1  0  0  0  0
 14 15  1  0  0  0  0
 16 19  1  0  0  0  0
 16  1  1  0  0  0  0
 16 18  1  0  0  0  0
 17 16  1  0  0  0  0
 19 20  1  0  0  0  0
 20 21  2  0  0  0  0
 20 25  1  0  0  0  0
 21 26  1  0  0  0  0
 22 21  1  0  0  0  0
 23 22  2  0  0  0  0
 24 23  1  0  0  0  0
 24 19  2  0  0  0  0
 27 23  1  0  0  0  0
M  END
>  <minimizedAffinity>
-4.01236153

>  <minimizedRMSD>
1.23882353

$$$$
