
 OpenBabel03242519223D

 30 32  0  0  0  0  0  0  0  0999 V2000
   46.6320   33.6830   43.1380 C   0  0  0  0  0  0  0  0  0  0  0  0
   45.9180   34.6750   42.3110 C   0  0  0  0  0  0  0  0  0  0  0  0
   45.4770   35.8880   43.0720 C   0  0  0  0  0  0  0  0  0  0  0  0
   44.6280   35.5320   44.2770 C   0  0  0  0  0  0  0  0  0  0  0  0
   45.1360   34.3490   45.0490 C   0  0  0  0  0  0  0  0  0  0  0  0
   46.5330   33.9550   44.6340 C   0  0  0  0  0  0  0  0  0  0  0  0
   46.2290   32.6320   43.0230 H   0  0  0  0  0  0  0  0  0  0  0  0
   46.4260   34.9860   41.3950 H   0  0  0  0  0  0  0  0  0  0  0  0
   44.9670   34.1800   41.9570 H   0  0  0  0  0  0  0  0  0  0  0  0
   44.7720   36.4430   42.3840 H   0  0  0  0  0  0  0  0  0  0  0  0
   46.2410   36.6030   43.3480 H   0  0  0  0  0  0  0  0  0  0  0  0
   43.5620   35.3780   44.0140 H   0  0  0  0  0  0  0  0  0  0  0  0
   44.6490   36.3980   44.9670 H   0  0  0  0  0  0  0  0  0  0  0  0
   44.4930   33.4520   44.8720 H   0  0  0  0  0  0  0  0  0  0  0  0
   45.1610   34.5300   46.1280 H   0  0  0  0  0  0  0  0  0  0  0  0
   46.8180   33.0620   45.1950 H   0  0  0  0  0  0  0  0  0  0  0  0
   47.2150   34.7720   44.9120 H   0  0  0  0  0  0  0  0  0  0  0  0
   48.0660   33.5830   42.8040 C   0  0  0  0  0  0  0  0  0  0  0  0
   48.7850   34.8090   42.7820 C   0  0  0  0  0  0  0  0  0  0  0  0
   50.1470   34.7820   42.4830 C   0  0  0  0  0  0  0  0  0  0  0  0
   50.7070   33.5470   42.2240 N   0  0  0  0  0  0  0  0  0  0  0  0
   49.9940   32.4020   42.2530 C   0  0  0  0  0  0  0  0  0  0  0  0
   48.6910   32.4270   42.5400 N   0  0  0  0  0  0  0  0  0  0  0  0
   48.4260   35.7860   42.9670 H   0  0  0  0  0  0  0  0  0  0  0  0
   50.7670   35.6650   42.4450 H   0  0  0  0  0  0  0  0  0  0  0  0
   50.6490   31.1000   41.9670 C   0  0  0  0  0  0  0  0  0  0  0  0
   51.7810   31.2760   40.9510 C   0  0  0  0  0  0  0  0  0  0  0  0
   52.4180   29.9020   41.0030 C   0  0  0  0  0  0  0  0  0  0  0  0
   52.3980   29.5840   42.4670 C   0  0  0  0  0  0  0  0  0  0  0  0
   51.4420   30.5610   43.1340 C   0  0  0  0  0  0  0  0  0  0  0  0
  1  6  1  0  0  0  0
  2  3  1  0  0  0  0
  2  1  1  0  0  0  0
  3 11  1  0  0  0  0
  3  4  1  0  0  0  0
  4 13  1  0  0  0  0
  4  5  1  0  0  0  0
  5 15  1  0  0  0  0
  6 17  1  0  0  0  0
  6  5  1  0  0  0  0
  6 16  1  0  0  0  0
  7  1  1  0  0  0  0
  8  2  1  0  0  0  0
  9  2  1  0  0  0  0
 10  3  1  0  0  0  0
 12  4  1  0  0  0  0
 14  5  1  0  0  0  0
 18  1  1  0  0  0  0
 19 18  1  0  0  0  0
 19 24  1  0  0  0  0
 20 19  2  0  0  0  0
 21 22  2  0  0  0  0
 21 20  1  0  0  0  0
 22 23  1  0  0  0  0
 23 18  2  0  0  0  0
 25 20  1  0  0  0  0
 26 22  1  0  0  0  0
 26 30  1  0  0  0  0
 27 28  1  0  0  0  0
 27 26  1  0  0  0  0
 28 29  1  0  0  0  0
 29 30  1  0  0  0  0
M  END
>  <minimizedAffinity>
-4.40040779

>  <minimizedRMSD>
2.54491305

$$$$
