
 OpenBabel03252507583D

 23 25  0  0  1  0  0  0  0  0999 V2000
   46.4380   32.6360   45.6890 C   0  0  1  0  0  0  0  0  0  0  0  0
   47.1190   32.9580   46.9830 C   0  0  0  0  0  0  0  0  0  0  0  0
   45.6420   32.7580   46.9500 C   0  0  2  0  0  0  0  0  0  0  0  0
   46.6430   31.6450   45.2430 H   0  0  0  0  0  0  0  0  0  0  0  0
   47.7650   32.1560   47.3870 H   0  0  0  0  0  0  0  0  0  0  0  0
   47.5840   33.9500   47.0080 H   0  0  0  0  0  0  0  0  0  0  0  0
   45.0460   33.6930   47.1250 H   0  0  0  0  0  0  0  0  0  0  0  0
   46.7350   34.8670   42.7890 C   0  0  0  0  0  0  0  0  0  0  0  0
   45.6460   35.7520   42.9530 C   0  0  0  0  0  0  0  0  0  0  0  0
   44.7990   35.5710   44.0750 C   0  0  0  0  0  0  0  0  0  0  0  0
   45.0970   34.5490   44.9220 N   0  0  0  0  0  0  0  0  0  0  0  0
   46.1660   33.7320   44.7000 C   0  0  0  0  0  0  0  0  0  0  0  0
   46.9710   33.8820   43.6580 N   0  0  0  0  0  0  0  0  0  0  0  0
   45.4120   36.5650   42.2770 H   0  0  0  0  0  0  0  0  0  0  0  0
   43.9500   36.2170   44.2540 H   0  0  0  0  0  0  0  0  0  0  0  0
   47.5180   35.1490   41.6360 C   0  0  0  0  0  0  0  0  0  0  0  0
   48.6220   35.7780   41.6360 O   0  0  0  0  0  0  0  0  0  0  0  0
   47.3240   34.8870   40.5850 H   0  0  0  0  0  0  0  0  0  0  0  0
   45.1350   31.5690   47.6820 C   0  0  0  0  0  3  0  0  0  0  0  0
   45.4600   31.5800   49.1550 C   0  0  0  0  0  2  0  0  0  0  0  0
   45.0620   30.1560   49.5570 C   0  0  0  0  0  2  0  0  0  0  0  0
   44.9610   29.3530   48.2860 C   0  0  0  0  0  2  0  0  0  0  0  0
   45.6650   30.2450   47.2520 C   0  0  0  0  0  2  0  0  0  0  0  0
  1  4  1  6  0  0  0
  1  3  1  0  0  0  0
  1  2  1  0  0  0  0
  2  6  1  0  0  0  0
  2  5  1  0  0  0  0
  3  2  1  0  0  0  0
  3  7  1  1  0  0  0
  3 19  1  0  0  0  0
  8  9  2  0  0  0  0
  8 13  1  0  0  0  0
  9 10  1  0  0  0  0
 10 15  1  0  0  0  0
 10 11  2  0  0  0  0
 12 11  1  0  0  0  0
 12  1  1  0  0  0  0
 13 12  2  0  0  0  0
 14  9  1  0  0  0  0
 16  8  1  0  0  0  0
 17 16  2  0  0  0  0
 18 16  1  0  0  0  0
 19 20  1  0  0  0  0
 20 21  1  0  0  0  0
 22 21  1  0  0  0  0
 23 19  1  0  0  0  0
 23 22  1  0  0  0  0
M  END
>  <minimizedAffinity>
-4.53457546

>  <minimizedRMSD>
0.958419979

$$$$
