
     RDKit          3D

 49 51  0  0  0  0  0  0  0  0999 V2000
   46.5733   34.9051   43.2488 O   0  0  0  0  0  0  0  0  0  0  0  0
   46.8023   33.9760   42.2295 C   0  0  1  0  0  0  0  0  0  0  0  0
   46.0744   34.4141   40.9559 C   0  0  0  0  0  0  0  0  0  0  0  0
   46.6957   33.4842   39.9436 C   0  0  0  0  0  0  0  0  0  0  0  0
   48.0759   33.1416   40.4735 C   0  0  0  0  0  0  0  0  0  0  0  0
   48.2167   33.9577   41.7419 C   0  0  1  0  0  0  0  0  0  0  0  0
   48.7581   35.3372   41.4633 C   0  0  0  0  0  0  0  0  0  0  0  0
   49.6565   35.7520   42.4209 O   0  0  0  0  0  0  0  0  0  0  0  0
   44.7239   35.3493   44.9927 O   0  0  0  0  0  0  0  0  0  0  0  0
   45.5765   34.2377   44.4109 P   0  0  1  0  0  0  0  0  0  0  0  0
   44.6045   33.0355   43.7139 O   0  0  0  0  0  0  0  0  0  0  0  0
   46.4730   33.4916   45.6027 O   0  0  0  0  0  0  0  0  0  0  0  0
   46.2308   32.1541   45.5706 C   0  0  0  0  0  0  0  0  0  0  0  0
   45.6562   31.9025   49.2382 C   0  0  0  0  0  0  0  0  0  0  0  0
   45.9921   32.4550   47.9911 C   0  0  0  0  0  0  0  0  0  0  0  0
   45.8840   31.6082   46.8941 C   0  0  0  0  0  0  0  0  0  0  0  0
   45.4678   30.3159   47.0778 N   0  0  0  0  0  0  0  0  0  0  0  0
   45.1533   29.8182   48.2904 C   0  0  0  0  0  0  0  0  0  0  0  0
   45.2489   30.6099   49.3569 N   0  0  0  0  0  0  0  0  0  0  0  0
   46.4559   32.9643   42.4484 H   0  0  0  0  0  0  0  0  0  0  0  0
   45.0067   34.1036   41.0795 H   0  0  0  0  0  0  0  0  0  0  0  0
   46.1574   35.4722   40.7390 H   0  0  0  0  0  0  0  0  0  0  0  0
   46.8773   34.1075   39.0297 H   0  0  0  0  0  0  0  0  0  0  0  0
   46.0822   32.6151   39.6944 H   0  0  0  0  0  0  0  0  0  0  0  0
   48.8856   33.3872   39.7586 H   0  0  0  0  0  0  0  0  0  0  0  0
   48.1742   32.0636   40.7061 H   0  0  0  0  0  0  0  0  0  0  0  0
   48.8286   33.3967   42.4719 H   0  0  0  0  0  0  0  0  0  0  0  0
   49.2743   35.2687   40.4667 H   0  0  0  0  0  0  0  0  0  0  0  0
   47.9681   36.1203   41.4195 H   0  0  0  0  0  0  0  0  0  0  0  0
   49.9739   35.0232   43.0277 H   0  0  0  0  0  0  0  0  0  0  0  0
   43.8924   33.5407   43.2250 H   0  0  0  0  0  0  0  0  0  0  0  0
   47.2043   31.6619   45.2983 H   0  0  0  0  0  0  0  0  0  0  0  0
   45.5095   31.7755   44.8530 H   0  0  0  0  0  0  0  0  0  0  0  0
   45.7565   32.6053   50.0702 H   0  0  0  0  0  0  0  0  0  0  0  0
   46.3161   33.4711   47.8699 H   0  0  0  0  0  0  0  0  0  0  0  0
   44.7039   28.4117   48.4654 C   0  0  0  0  0  0  0  0  0  0  0  0
   45.6836   27.6468   49.3274 C   0  0  0  0  0  0  0  0  0  0  0  0
   46.7138   27.0488   48.3850 C   0  0  0  0  0  0  0  0  0  0  0  0
   46.1954   27.2149   46.9909 C   0  0  0  0  0  0  0  0  0  0  0  0
   44.7553   27.6548   47.1414 C   0  0  0  0  0  0  0  0  0  0  0  0
   43.6906   28.3582   48.9055 H   0  0  0  0  0  0  0  0  0  0  0  0
   46.1452   28.3957   50.0326 H   0  0  0  0  0  0  0  0  0  0  0  0
   45.1873   26.8637   49.9457 H   0  0  0  0  0  0  0  0  0  0  0  0
   46.7902   25.9443   48.5891 H   0  0  0  0  0  0  0  0  0  0  0  0
   47.6882   27.5653   48.5510 H   0  0  0  0  0  0  0  0  0  0  0  0
   46.7481   28.0352   46.4544 H   0  0  0  0  0  0  0  0  0  0  0  0
   46.2850   26.3060   46.3550 H   0  0  0  0  0  0  0  0  0  0  0  0
   44.4963   28.3108   46.2751 H   0  0  0  0  0  0  0  0  0  0  0  0
   44.0727   26.8010   47.1400 H   0  0  0  0  0  0  0  0  0  0  0  0
 10  1  1  6
  2  1  1  0
  3  2  1  0
  4  5  1  0
  4  3  1  0
  5  6  1  0
  6  2  1  0
  7  6  1  0
  7  8  1  0
 10  9  2  0
 10 12  1  0
 11 10  1  0
 13 12  1  0
 13 16  1  0
 14 19  2  0
 15 14  1  0
 16 17  1  0
 16 15  2  0
 17 18  2  0
 18 19  1  0
  2 20  1  1
  3 21  1  0
  3 22  1  0
  4 23  1  0
  4 24  1  0
  5 25  1  0
  5 26  1  0
  6 27  1  1
  7 28  1  0
  7 29  1  0
  8 30  1  0
 11 31  1  0
 13 32  1  0
 13 33  1  0
 14 34  1  0
 15 35  1  0
 36 37  1  0
 37 38  1  0
 38 39  1  0
 39 40  1  0
 40 36  1  0
 36 41  1  0
 37 42  1  0
 37 43  1  0
 38 44  1  0
 38 45  1  0
 39 46  1  0
 39 47  1  0
 40 48  1  0
 40 49  1  0
 18 36  1  0
M  ISO  8  20  13  21  13  22  13  23  13  24  13  25  13  26  13  27  13
M  ISO  8  28   8  29   8  30   3  31   3  32   8  33   8  34  14  35  14
M  END
>  <DihAtoms>  (1) 
16,17,35,36

>  <DihDeg>  (1) 
-122.78798551548368

$$$$
