
 OpenBabel03242511093D

 39 43  0  0  1  0  0  0  0  0999 V2000
   47.2800   32.9520   43.8490 C   0  0  0  0  0  0  0  0  0  0  0  0
   47.4160   32.0220   44.8710 C   0  0  0  0  0  0  0  0  0  0  0  0
   46.7080   32.0820   46.0600 C   0  0  0  0  0  0  0  0  0  0  0  0
   45.8080   33.1040   46.2830 C   0  0  0  0  0  0  0  0  0  0  0  0
   45.6470   34.0440   45.2940 C   0  0  0  0  0  0  0  0  0  0  0  0
   44.7410   35.0560   45.5200 C   0  0  0  0  0  0  0  0  0  0  0  0
   44.5230   36.0320   44.5530 C   0  0  0  0  0  0  0  0  0  0  0  0
   45.2510   35.9260   43.3800 C   0  0  0  0  0  0  0  0  0  0  0  0
   46.1450   34.9180   43.1700 C   0  0  0  0  0  0  0  0  0  0  0  0
   46.3650   33.9550   44.1240 C   0  0  0  0  0  0  0  0  0  0  0  0
   48.1230   31.2110   44.7070 H   0  0  0  0  0  0  0  0  0  0  0  0
   46.9060   31.2960   46.7740 H   0  0  0  0  0  0  0  0  0  0  0  0
   45.2720   33.1230   47.2190 H   0  0  0  0  0  0  0  0  0  0  0  0
   44.2160   35.0530   46.4730 H   0  0  0  0  0  0  0  0  0  0  0  0
   43.7720   36.7720   44.8790 H   0  0  0  0  0  0  0  0  0  0  0  0
   44.9060   36.7770   42.8090 H   0  0  0  0  0  0  0  0  0  0  0  0
   46.7730   35.0290   41.8370 C   0  0  0  0  0  0  0  0  0  0  0  0
   46.6260   33.6710   41.0510 C   0  0  0  0  0  0  0  0  0  0  0  0
   47.3640   34.1470   39.7730 C   0  0  0  0  0  0  0  0  0  0  0  0
   48.5360   34.9680   40.3270 C   0  0  0  0  0  0  0  0  0  0  0  0
   48.2600   34.9570   41.8000 C   0  0  0  0  0  0  0  0  0  0  0  0
   48.0310   32.8650   42.6580 N   0  0  0  0  0  0  0  0  0  0  0  0
   47.8430   33.6830   42.0310 H   0  0  0  0  0  0  0  0  0  0  0  0
   50.3350   31.7930   42.2600 C   0  0  1  0  0  0  0  0  0  0  0  0
   49.4940   31.6380   41.0070 C   0  0  0  0  0  0  0  0  0  0  0  0
   48.9030   31.7530   42.4260 C   0  0  2  0  0  0  0  0  0  0  0  0
   50.9790   32.7050   42.1590 H   0  0  0  0  0  0  0  0  0  0  0  0
   49.2980   32.4760   40.3400 H   0  0  0  0  0  0  0  0  0  0  0  0
   49.3840   30.6410   40.5570 H   0  0  0  0  0  0  0  0  0  0  0  0
   48.4990   30.8040   42.8780 H   0  0  0  0  0  0  0  0  0  0  0  0
   51.5640   28.8930   44.2420 C   0  0  0  0  0  0  0  0  0  0  0  0
   52.7250   28.5210   43.4990 C   0  0  0  0  0  0  0  0  0  0  0  0
   53.0510   29.2770   42.3220 C   0  0  0  0  0  0  0  0  0  0  0  0
   52.2560   30.2940   41.9720 N   0  0  0  0  0  0  0  0  0  0  0  0
   51.1580   30.6220   42.7020 C   0  0  0  0  0  0  0  0  0  0  0  0
   50.8170   29.9200   43.8340 N   0  0  0  0  0  0  0  0  0  0  0  0
   51.3250   28.3220   45.1230 H   0  0  0  0  0  0  0  0  0  0  0  0
   53.3300   27.6910   43.8290 H   0  0  0  0  0  0  0  0  0  0  0  0
   53.9330   28.9870   41.7650 H   0  0  0  0  0  0  0  0  0  0  0  0
  1 10  2  0  0  0  0
  1  2  1  0  0  0  0
  2  3  2  0  0  0  0
  3  4  1  0  0  0  0
  3 12  1  0  0  0  0
  4 13  1  0  0  0  0
  5  6  1  0  0  0  0
  5  4  2  0  0  0  0
  6 14  1  0  0  0  0
  7 15  1  0  0  0  0
  7  6  2  0  0  0  0
  8  7  1  0  0  0  0
  9  8  2  0  0  0  0
  9 10  1  0  0  0  0
 10  5  1  0  0  0  0
 11  2  1  0  0  0  0
 16  8  1  0  0  0  0
 17  9  1  0  0  0  0
 18 17  1  0  0  0  0
 19 20  1  0  0  0  0
 19 18  1  0  0  0  0
 20 21  1  0  0  0  0
 21 17  1  0  0  0  0
 22  1  1  0  0  0  0
 23 22  1  0  0  0  0
 24 27  1  1  0  0  0
 24 26  1  0  0  0  0
 24 35  1  0  0  0  0
 25 24  1  0  0  0  0
 25 26  1  0  0  0  0
 26 22  1  0  0  0  0
 26 30  1  1  0  0  0
 28 25  1  0  0  0  0
 29 25  1  0  0  0  0
 31 37  1  0  0  0  0
 32 38  1  0  0  0  0
 32 31  2  0  0  0  0
 33 32  1  0  0  0  0
 34 33  2  0  0  0  0
 34 35  1  0  0  0  0
 35 36  2  0  0  0  0
 36 31  1  0  0  0  0
 39 33  1  0  0  0  0
M  END
>  <minimizedAffinity>
-5.89897728

>  <minimizedRMSD>
2.40642786

$$$$
