REMARK  Name = 
REMARK  3 active torsions:
REMARK  status: ('A' for Active; 'I' for Inactive)
REMARK    1  A    between atoms: CA_1  and  C_7
REMARK    2  A    between atoms: C_5  and  C_9
REMARK    3  A    between atoms: C_11  and  C_19
REMARK                            x       y       z     vdW  Elec       q    Type
REMARK                         _______ _______ _______ _____ _____    ______ ____
ROOT
ATOM      1  C   UNL     1      46.059  32.455  46.251  0.00  0.00    +0.000 C 
ATOM      2  C   UNL     1      47.002  32.632  47.400  0.00  0.00    +0.000 C 
ATOM      3  C   UNL     1      45.532  32.616  47.642  0.00  0.00    +0.000 C 
ATOM      4  H   UNL     1      46.049  31.467  45.753  0.00  0.00    +0.000 HD
ATOM      5  H   UNL     1      47.603  31.739  47.658  0.00  0.00    +0.000 HD
ATOM      6  H   UNL     1      47.588  33.557  47.359  0.00  0.00    +0.000 HD
ATOM      7  H   UNL     1      45.103  33.608  47.947  0.00  0.00    +0.000 HD
ENDROOT
BRANCH   1  12
ATOM      8  CA  UNL     1      46.084  34.750  43.386  0.00  0.00    +0.000 A 
ATOM      9  C   UNL     1      45.185  35.766  43.782  0.00  0.00    +0.000 A 
ATOM     10  C   UNL     1      44.562  35.652  45.050  0.00  0.00    +0.000 A 
ATOM     11  N   UNL     1      44.876  34.563  45.803  0.00  0.00    +0.000 NA
ATOM     12  C   UNL     1      45.753  33.619  45.355  0.00  0.00    +0.000 A 
ATOM     13  N   UNL     1      46.347  33.705  44.174  0.00  0.00    +0.000 NA
ATOM     14  H   UNL     1      44.938  36.632  43.181  0.00  0.00    +0.000 HD
ATOM     15  H   UNL     1      43.866  36.398  45.408  0.00  0.00    +0.000 HD
BRANCH   8  16
ATOM     16  C   UNL     1      46.653  34.973  42.102  0.00  0.00    +0.000 C 
ATOM     17  O   UNL     1      47.831  35.397  41.887  0.00  0.00    +0.000 OA
ATOM     18  H   UNL     1      46.202  34.827  41.109  0.00  0.00    +0.000 HD
ENDBRANCH   8  16
ENDBRANCH   1  12
BRANCH   3  19
ATOM     19  C   UNL     1      45.019  31.466  48.431  0.00  0.00    +0.000 C 
ATOM     20  C   UNL     1      44.217  31.873  49.643  0.00  0.00    +0.000 C 
ATOM     21  C   UNL     1      44.072  30.531  50.366  0.00  0.00    +0.000 C 
ATOM     22  C   UNL     1      45.105  29.602  49.782  0.00  0.00    +0.000 C 
ATOM     23  C   UNL     1      46.040  30.555  49.022  0.00  0.00    +0.000 C 
ENDBRANCH   3  19
TORSDOF 3
