
 OpenBabel03252508553D

 39 42  0  0  1  0  0  0  0  0999 V2000
   37.0480   29.6690   41.4260 C   0  0  0  0  0  0  0  0  0  0  0  0
   37.7460   30.0280   42.4160 O   0  0  0  0  0  0  0  0  0  0  0  0
   37.1430   28.2210   41.5560 N   0  0  0  0  0  0  0  0  0  0  0  0
   36.6320   27.7010   42.8180 C   0  0  0  0  0  0  0  0  0  0  0  0
   37.8660   27.4640   43.6790 C   0  0  0  0  0  0  0  0  0  0  0  0
   38.9790   27.0040   42.7360 C   0  0  0  0  0  0  0  0  0  0  0  0
   38.4140   26.2480   41.5490 C   0  0  0  0  0  0  0  0  0  0  0  0
   37.6610   27.2380   40.6330 C   0  0  1  0  0  0  0  0  0  0  0  0
   35.9050   28.3760   43.2930 H   0  0  0  0  0  0  0  0  0  0  0  0
   36.1240   26.7160   42.6140 H   0  0  0  0  0  0  0  0  0  0  0  0
   37.6830   26.7170   44.4700 H   0  0  0  0  0  0  0  0  0  0  0  0
   38.1720   28.4390   44.1280 H   0  0  0  0  0  0  0  0  0  0  0  0
   39.5890   26.2990   43.3120 H   0  0  0  0  0  0  0  0  0  0  0  0
   39.6420   27.8400   42.4300 H   0  0  0  0  0  0  0  0  0  0  0  0
   37.7460   25.4690   41.9450 H   0  0  0  0  0  0  0  0  0  0  0  0
   39.3080   25.8540   41.0080 H   0  0  0  0  0  0  0  0  0  0  0  0
   38.4080   27.6630   39.9500 H   0  0  0  0  0  0  0  0  0  0  0  0
   36.6180   26.4110   39.9400 C   0  0  0  0  0  3  0  0  0  0  0  0
   36.8300   26.1800   38.4880 C   0  0  0  0  0  2  0  0  0  0  0  0
   35.9550   24.9460   38.2230 C   0  0  0  0  0  2  0  0  0  0  0  0
   36.4220   24.0600   39.3660 C   0  0  0  0  0  2  0  0  0  0  0  0
   36.7550   24.9980   40.5080 C   0  0  0  0  0  2  0  0  0  0  0  0
   36.3980   30.4540   40.5050 O   0  0  0  0  0  0  0  0  0  0  0  0
   36.6170   30.4630   39.1490 C   0  0  0  0  0  0  0  0  0  0  0  0
   37.5300   31.4090   38.6420 C   0  0  0  0  0  0  0  0  0  0  0  0
   37.7310   31.3930   37.2580 C   0  0  0  0  0  0  0  0  0  0  0  0
   37.0570   30.4960   36.4900 N   0  0  0  0  0  0  0  0  0  0  0  0
   36.2030   29.6230   37.0240 C   0  0  0  0  0  0  0  0  0  0  0  0
   35.9820   29.6060   38.3540 N   0  0  0  0  0  0  0  0  0  0  0  0
   38.4380   32.1250   36.8650 H   0  0  0  0  0  0  0  0  0  0  0  0
   35.6580   28.9010   36.4240 H   0  0  0  0  0  0  0  0  0  0  0  0
   38.1970   32.3200   39.5340 C   0  0  0  0  0  0  0  0  0  0  0  0
   37.7070   33.5950   39.8220 C   0  0  0  0  0  0  0  0  0  0  0  0
   38.6330   34.1140   40.6990 C   0  0  0  0  0  0  0  0  0  0  0  0
   39.6140   33.2260   40.9310 N   0  0  0  0  0  0  0  0  0  0  0  0
   39.3260   32.1630   40.2200 N   0  0  0  0  0  0  0  0  0  0  0  0
   36.8140   34.0660   39.4480 H   0  0  0  0  0  0  0  0  0  0  0  0
   38.5300   35.1180   41.1170 H   0  0  0  0  0  0  0  0  0  0  0  0
   40.4200   33.4440   41.5810 H   0  0  0  0  0  0  0  0  0  0  0  0
  1  3  1  0  0  0  0
  1  2  2  0  0  0  0
  3  4  1  0  0  0  0
  4  9  1  0  0  0  0
  4  5  1  0  0  0  0
  5 12  1  0  0  0  0
  5 11  1  0  0  0  0
  6 13  1  0  0  0  0
  6  5  1  0  0  0  0
  7 15  1  0  0  0  0
  7  6  1  0  0  0  0
  8 17  1  6  0  0  0
  8  7  1  0  0  0  0
  8  3  1  0  0  0  0
 10  4  1  0  0  0  0
 14  6  1  0  0  0  0
 16  7  1  0  0  0  0
 18 22  1  0  0  0  0
 18  8  1  0  0  0  0
 19 18  1  0  0  0  0
 20 19  1  0  0  0  0
 20 21  1  0  0  0  0
 21 22  1  0  0  0  0
 23  1  1  0  0  0  0
 24 23  1  0  0  0  0
 25 24  1  0  0  0  0
 25 32  1  0  0  0  0
 26 25  2  0  0  0  0
 27 28  2  0  0  0  0
 27 26  1  0  0  0  0
 28 29  1  0  0  0  0
 29 24  2  0  0  0  0
 30 26  1  0  0  0  0
 31 28  1  0  0  0  0
 32 33  1  0  0  0  0
 32 36  2  0  0  0  0
 33 34  2  0  0  0  0
 34 35  1  0  0  0  0
 34 38  1  0  0  0  0
 35 39  1  0  0  0  0
 36 35  1  0  0  0  0
 37 33  1  0  0  0  0
M  END
>  <minimizedAffinity>
-6.07934046

$$$$

 OpenBabel03252508553D

 39 42  0  0  1  0  0  0  0  0999 V2000
   38.1510   29.3780   40.7120 C   0  0  0  0  0  0  0  0  0  0  0  0
   38.5440   30.0170   41.7290 O   0  0  0  0  0  0  0  0  0  0  0  0
   37.7340   28.1300   41.3380 N   0  0  0  0  0  0  0  0  0  0  0  0
   36.6870   28.2860   42.3410 C   0  0  0  0  0  0  0  0  0  0  0  0
   37.4110   28.2580   43.6790 C   0  0  0  0  0  0  0  0  0  0  0  0
   38.5730   27.2750   43.5310 C   0  0  0  0  0  0  0  0  0  0  0  0
   38.2400   26.1780   42.5380 C   0  0  0  0  0  0  0  0  0  0  0  0
   38.1980   26.7800   41.1160 C   0  0  1  0  0  0  0  0  0  0  0  0
   36.0940   29.2010   42.1960 H   0  0  0  0  0  0  0  0  0  0  0  0
   35.9970   27.3980   42.2700 H   0  0  0  0  0  0  0  0  0  0  0  0
   36.7440   27.9590   44.5060 H   0  0  0  0  0  0  0  0  0  0  0  0
   37.8360   29.2720   43.8700 H   0  0  0  0  0  0  0  0  0  0  0  0
   38.6960   26.8020   44.5120 H   0  0  0  0  0  0  0  0  0  0  0  0
   39.5290   27.7870   43.2920 H   0  0  0  0  0  0  0  0  0  0  0  0
   37.2690   25.7560   42.8320 H   0  0  0  0  0  0  0  0  0  0  0  0
   39.0930   25.4600   42.6080 H   0  0  0  0  0  0  0  0  0  0  0  0
   39.2270   26.7520   40.7340 H   0  0  0  0  0  0  0  0  0  0  0  0
   37.2510   25.9050   40.3500 C   0  0  0  0  0  3  0  0  0  0  0  0
   37.8220   25.2020   39.1730 C   0  0  0  0  0  2  0  0  0  0  0  0
   36.8200   24.0590   38.9570 C   0  0  0  0  0  2  0  0  0  0  0  0
   36.7310   23.5330   40.3810 C   0  0  0  0  0  2  0  0  0  0  0  0
   36.9100   24.7390   41.2800 C   0  0  0  0  0  2  0  0  0  0  0  0
   38.1370   29.7810   39.3990 O   0  0  0  0  0  0  0  0  0  0  0  0
   39.2360   30.0860   38.6330 C   0  0  0  0  0  0  0  0  0  0  0  0
   39.5590   31.4480   38.4700 C   0  0  0  0  0  0  0  0  0  0  0  0
   40.6820   31.7250   37.6850 C   0  0  0  0  0  0  0  0  0  0  0  0
   41.3880   30.7030   37.1320 N   0  0  0  0  0  0  0  0  0  0  0  0
   41.0350   29.4310   37.3200 C   0  0  0  0  0  0  0  0  0  0  0  0
   39.9580   29.1220   38.0700 N   0  0  0  0  0  0  0  0  0  0  0  0
   40.9340   32.7800   37.5590 H   0  0  0  0  0  0  0  0  0  0  0  0
   41.5870   28.6040   36.8850 H   0  0  0  0  0  0  0  0  0  0  0  0
   38.7530   32.4620   39.0950 C   0  0  0  0  0  0  0  0  0  0  0  0
   39.2660   33.3790   40.0140 C   0  0  0  0  0  0  0  0  0  0  0  0
   38.1770   34.1510   40.3540 C   0  0  0  0  0  0  0  0  0  0  0  0
   37.0820   33.7390   39.6940 N   0  0  0  0  0  0  0  0  0  0  0  0
   37.4570   32.7280   38.9490 N   0  0  0  0  0  0  0  0  0  0  0  0
   40.2770   33.4670   40.3760 H   0  0  0  0  0  0  0  0  0  0  0  0
   38.2540   34.9730   41.0690 H   0  0  0  0  0  0  0  0  0  0  0  0
   36.1430   34.2090   39.8240 H   0  0  0  0  0  0  0  0  0  0  0  0
  1  3  1  0  0  0  0
  1  2  2  0  0  0  0
  3  4  1  0  0  0  0
  4  5  1  0  0  0  0
  5 12  1  0  0  0  0
  5 11  1  0  0  0  0
  6  5  1  0  0  0  0
  6 13  1  0  0  0  0
  7 16  1  0  0  0  0
  7 15  1  0  0  0  0
  7  6  1  0  0  0  0
  8 17  1  6  0  0  0
  8  3  1  0  0  0  0
  8  7  1  0  0  0  0
  9  4  1  0  0  0  0
 10  4  1  0  0  0  0
 14  6  1  0  0  0  0
 18  8  1  0  0  0  0
 18 22  1  0  0  0  0
 19 18  1  0  0  0  0
 20 19  1  0  0  0  0
 20 21  1  0  0  0  0
 21 22  1  0  0  0  0
 23  1  1  0  0  0  0
 24 23  1  0  0  0  0
 25 24  1  0  0  0  0
 25 32  1  0  0  0  0
 26 25  2  0  0  0  0
 27 28  2  0  0  0  0
 27 26  1  0  0  0  0
 28 29  1  0  0  0  0
 29 24  2  0  0  0  0
 30 26  1  0  0  0  0
 31 28  1  0  0  0  0
 32 33  1  0  0  0  0
 33 34  2  0  0  0  0
 33 37  1  0  0  0  0
 34 38  1  0  0  0  0
 35 39  1  0  0  0  0
 35 34  1  0  0  0  0
 36 32  2  0  0  0  0
 36 35  1  0  0  0  0
M  END
>  <minimizedAffinity>
-5.92574167

$$$$

 OpenBabel03252508553D

 39 42  0  0  1  0  0  0  0  0999 V2000
   36.3340   29.6240   40.6070 C   0  0  0  0  0  0  0  0  0  0  0  0
   35.3300   28.9150   40.8970 O   0  0  0  0  0  0  0  0  0  0  0  0
   37.3640   28.9420   41.3800 N   0  0  0  0  0  0  0  0  0  0  0  0
   37.5470   27.5400   41.0240 C   0  0  0  0  0  0  0  0  0  0  0  0
   36.7850   26.7580   42.0850 C   0  0  0  0  0  0  0  0  0  0  0  0
   36.9410   27.5280   43.3970 C   0  0  0  0  0  0  0  0  0  0  0  0
   38.2620   28.2720   43.4420 C   0  0  0  0  0  0  0  0  0  0  0  0
   38.2170   29.4410   42.4340 C   0  0  1  0  0  0  0  0  0  0  0  0
   37.2070   27.3140   40.0030 H   0  0  0  0  0  0  0  0  0  0  0  0
   38.6450   27.2990   41.0970 H   0  0  0  0  0  0  0  0  0  0  0  0
   37.1590   25.7250   42.1870 H   0  0  0  0  0  0  0  0  0  0  0  0
   35.7040   26.7550   41.8110 H   0  0  0  0  0  0  0  0  0  0  0  0
   36.9640   26.7720   44.1900 H   0  0  0  0  0  0  0  0  0  0  0  0
   36.0740   28.1910   43.6000 H   0  0  0  0  0  0  0  0  0  0  0  0
   39.0530   27.5500   43.1960 H   0  0  0  0  0  0  0  0  0  0  0  0
   38.3230   28.6840   44.4790 H   0  0  0  0  0  0  0  0  0  0  0  0
   37.7700   30.2940   42.9620 H   0  0  0  0  0  0  0  0  0  0  0  0
   39.6460   29.6670   42.0350 C   0  0  0  0  0  3  0  0  0  0  0  0
   40.2720   30.9160   42.5370 C   0  0  0  0  0  2  0  0  0  0  0  0
   41.7700   30.6000   42.4210 C   0  0  0  0  0  2  0  0  0  0  0  0
   41.7900   29.2360   43.0900 C   0  0  0  0  0  2  0  0  0  0  0  0
   40.4590   28.5930   42.7590 C   0  0  0  0  0  2  0  0  0  0  0  0
   36.3990   30.7250   39.7870 O   0  0  0  0  0  0  0  0  0  0  0  0
   37.4430   31.6150   39.7060 C   0  0  0  0  0  0  0  0  0  0  0  0
   38.3910   31.4160   38.6820 C   0  0  0  0  0  0  0  0  0  0  0  0
   39.4400   32.3380   38.6260 C   0  0  0  0  0  0  0  0  0  0  0  0
   39.4970   33.3500   39.5330 N   0  0  0  0  0  0  0  0  0  0  0  0
   38.5710   33.4890   40.4810 C   0  0  0  0  0  0  0  0  0  0  0  0
   37.5430   32.6210   40.5690 N   0  0  0  0  0  0  0  0  0  0  0  0
   40.1740   32.1850   37.8330 H   0  0  0  0  0  0  0  0  0  0  0  0
   38.6030   34.2910   41.2120 H   0  0  0  0  0  0  0  0  0  0  0  0
   38.2470   30.3150   37.7680 C   0  0  0  0  0  0  0  0  0  0  0  0
   38.9700   29.1270   37.8910 C   0  0  0  0  0  0  0  0  0  0  0  0
   38.5330   28.3630   36.8310 C   0  0  0  0  0  0  0  0  0  0  0  0
   37.6130   29.0310   36.1150 N   0  0  0  0  0  0  0  0  0  0  0  0
   37.4630   30.1940   36.6990 N   0  0  0  0  0  0  0  0  0  0  0  0
   39.7000   28.8650   38.6380 H   0  0  0  0  0  0  0  0  0  0  0  0
   38.9190   27.3580   36.6490 H   0  0  0  0  0  0  0  0  0  0  0  0
   37.1590   28.6070   35.2590 H   0  0  0  0  0  0  0  0  0  0  0  0
  1  2  2  0  0  0  0
  1  3  1  0  0  0  0
  3  8  1  0  0  0  0
  4 10  1  0  0  0  0
  4  3  1  0  0  0  0
  4  5  1  0  0  0  0
  5 11  1  0  0  0  0
  5  6  1  0  0  0  0
  6  7  1  0  0  0  0
  6 14  1  0  0  0  0
  6 13  1  0  0  0  0
  7 16  1  0  0  0  0
  8 17  1  1  0  0  0
  8  7  1  0  0  0  0
  9  4  1  0  0  0  0
 12  5  1  0  0  0  0
 15  7  1  0  0  0  0
 18  8  1  0  0  0  0
 18 19  1  0  0  0  0
 18 22  1  0  0  0  0
 20 19  1  0  0  0  0
 20 21  1  0  0  0  0
 22 21  1  0  0  0  0
 23  1  1  0  0  0  0
 24 23  1  0  0  0  0
 24 29  1  0  0  0  0
 25 24  2  0  0  0  0
 26 25  1  0  0  0  0
 26 27  2  0  0  0  0
 27 28  1  0  0  0  0
 28 29  2  0  0  0  0
 28 31  1  0  0  0  0
 30 26  1  0  0  0  0
 32 33  1  0  0  0  0
 32 25  1  0  0  0  0
 33 37  1  0  0  0  0
 34 33  2  0  0  0  0
 35 36  1  0  0  0  0
 35 34  1  0  0  0  0
 36 32  2  0  0  0  0
 38 34  1  0  0  0  0
 39 35  1  0  0  0  0
M  END
>  <minimizedAffinity>
-5.86988068

$$$$

 OpenBabel03252508553D

 39 42  0  0  1  0  0  0  0  0999 V2000
   37.7700   27.5900   38.4420 C   0  0  0  0  0  0  0  0  0  0  0  0
   37.3740   27.0570   37.3680 O   0  0  0  0  0  0  0  0  0  0  0  0
   37.2730   28.9470   38.2550 N   0  0  0  0  0  0  0  0  0  0  0  0
   35.8280   29.0350   38.0860 C   0  0  0  0  0  0  0  0  0  0  0  0
   35.6110   29.1690   36.5850 C   0  0  0  0  0  0  0  0  0  0  0  0
   36.7750   30.0000   36.0440 C   0  0  0  0  0  0  0  0  0  0  0  0
   37.2790   30.9810   37.0840 C   0  0  0  0  0  0  0  0  0  0  0  0
   37.9900   30.2000   38.2120 C   0  0  1  0  0  0  0  0  0  0  0  0
   35.2970   28.1750   38.5180 H   0  0  0  0  0  0  0  0  0  0  0  0
   35.4690   29.9710   38.6010 H   0  0  0  0  0  0  0  0  0  0  0  0
   34.6430   29.6430   36.3460 H   0  0  0  0  0  0  0  0  0  0  0  0
   35.6680   28.1520   36.1300 H   0  0  0  0  0  0  0  0  0  0  0  0
   36.3670   30.5850   35.2120 H   0  0  0  0  0  0  0  0  0  0  0  0
   37.5870   29.3650   35.6320 H   0  0  0  0  0  0  0  0  0  0  0  0
   36.4070   31.5360   37.4590 H   0  0  0  0  0  0  0  0  0  0  0  0
   38.0280   31.6110   36.5450 H   0  0  0  0  0  0  0  0  0  0  0  0
   39.0330   30.0710   37.8930 H   0  0  0  0  0  0  0  0  0  0  0  0
   37.8390   31.0570   39.4340 C   0  0  0  0  0  3  0  0  0  0  0  0
   39.1010   31.5300   40.0570 C   0  0  0  0  0  2  0  0  0  0  0  0
   38.6250   32.7310   40.8880 C   0  0  0  0  0  2  0  0  0  0  0  0
   37.8010   33.4520   39.8340 C   0  0  0  0  0  2  0  0  0  0  0  0
   37.2130   32.3670   38.9550 C   0  0  0  0  0  2  0  0  0  0  0  0
   38.4710   27.0180   39.4760 O   0  0  0  0  0  0  0  0  0  0  0  0
   38.0750   25.9320   40.2200 C   0  0  0  0  0  0  0  0  0  0  0  0
   37.6120   26.1730   41.5280 C   0  0  0  0  0  0  0  0  0  0  0  0
   37.2180   25.0480   42.2590 C   0  0  0  0  0  0  0  0  0  0  0  0
   37.2980   23.8140   41.6930 N   0  0  0  0  0  0  0  0  0  0  0  0
   37.7450   23.6460   40.4490 C   0  0  0  0  0  0  0  0  0  0  0  0
   38.1350   24.7050   39.7110 N   0  0  0  0  0  0  0  0  0  0  0  0
   36.8580   25.2340   43.2730 H   0  0  0  0  0  0  0  0  0  0  0  0
   37.8150   22.6680   39.9830 H   0  0  0  0  0  0  0  0  0  0  0  0
   37.5630   27.5150   42.0420 C   0  0  0  0  0  0  0  0  0  0  0  0
   38.6220   28.1010   42.7380 C   0  0  0  0  0  0  0  0  0  0  0  0
   38.1620   29.3630   43.0410 C   0  0  0  0  0  0  0  0  0  0  0  0
   36.9170   29.5380   42.5660 N   0  0  0  0  0  0  0  0  0  0  0  0
   36.5850   28.4160   41.9750 N   0  0  0  0  0  0  0  0  0  0  0  0
   39.5780   27.6690   42.9840 H   0  0  0  0  0  0  0  0  0  0  0  0
   38.7710   30.0810   43.5930 H   0  0  0  0  0  0  0  0  0  0  0  0
   36.3930   30.4470   42.7000 H   0  0  0  0  0  0  0  0  0  0  0  0
  1 23  1  0  0  0  0
  2  1  2  0  0  0  0
  3  1  1  0  0  0  0
  4  3  1  0  0  0  0
  4  9  1  0  0  0  0
  4 10  1  0  0  0  0
  5  4  1  0  0  0  0
  6  5  1  0  0  0  0
  6  7  1  0  0  0  0
  7 15  1  0  0  0  0
  7  8  1  0  0  0  0
  8 17  1  6  0  0  0
  8  3  1  0  0  0  0
  8 18  1  0  0  0  0
 11  5  1  0  0  0  0
 12  5  1  0  0  0  0
 13  6  1  0  0  0  0
 14  6  1  0  0  0  0
 16  7  1  0  0  0  0
 18 19  1  0  0  0  0
 19 20  1  0  0  0  0
 21 20  1  0  0  0  0
 22 18  1  0  0  0  0
 22 21  1  0  0  0  0
 23 24  1  0  0  0  0
 24 25  1  0  0  0  0
 25 32  1  0  0  0  0
 25 26  2  0  0  0  0
 26 30  1  0  0  0  0
 27 26  1  0  0  0  0
 28 27  2  0  0  0  0
 29 24  2  0  0  0  0
 29 28  1  0  0  0  0
 31 28  1  0  0  0  0
 32 33  1  0  0  0  0
 33 37  1  0  0  0  0
 33 34  2  0  0  0  0
 34 38  1  0  0  0  0
 35 39  1  0  0  0  0
 35 34  1  0  0  0  0
 36 32  2  0  0  0  0
 36 35  1  0  0  0  0
M  END
>  <minimizedAffinity>
-5.79781818

$$$$

 OpenBabel03252508553D

 39 42  0  0  1  0  0  0  0  0999 V2000
   39.3360   28.8730   40.9790 C   0  0  0  0  0  0  0  0  0  0  0  0
   40.1640   28.9920   41.9260 O   0  0  0  0  0  0  0  0  0  0  0  0
   38.6310   27.6700   41.4020 N   0  0  0  0  0  0  0  0  0  0  0  0
   37.9830   27.7840   42.7020 C   0  0  0  0  0  0  0  0  0  0  0  0
   38.9280   27.1000   43.6800 C   0  0  0  0  0  0  0  0  0  0  0  0
   39.5620   25.9270   42.9320 C   0  0  0  0  0  0  0  0  0  0  0  0
   38.6190   25.3730   41.8810 C   0  0  0  0  0  0  0  0  0  0  0  0
   38.4840   26.3980   40.7340 C   0  0  1  0  0  0  0  0  0  0  0  0
   37.7660   28.8260   42.9780 H   0  0  0  0  0  0  0  0  0  0  0  0
   37.0100   27.2160   42.6620 H   0  0  0  0  0  0  0  0  0  0  0  0
   38.4060   26.7540   44.5880 H   0  0  0  0  0  0  0  0  0  0  0  0
   39.7380   27.8200   43.9470 H   0  0  0  0  0  0  0  0  0  0  0  0
   39.7170   25.1410   43.6790 H   0  0  0  0  0  0  0  0  0  0  0  0
   40.5580   26.1840   42.5140 H   0  0  0  0  0  0  0  0  0  0  0  0
   37.6560   25.1820   42.3740 H   0  0  0  0  0  0  0  0  0  0  0  0
   39.1270   24.4550   41.4960 H   0  0  0  0  0  0  0  0  0  0  0  0
   39.3080   26.1970   40.0360 H   0  0  0  0  0  0  0  0  0  0  0  0
   37.1270   26.1480   40.1450 C   0  0  0  0  0  3  0  0  0  0  0  0
   37.0630   26.0760   38.6630 C   0  0  0  0  0  2  0  0  0  0  0  0
   35.7440   25.3250   38.4290 C   0  0  0  0  0  2  0  0  0  0  0  0
   35.9440   24.1660   39.3910 C   0  0  0  0  0  2  0  0  0  0  0  0
   36.7510   24.7200   40.5470 C   0  0  0  0  0  2  0  0  0  0  0  0
   39.1750   29.6760   39.8760 O   0  0  0  0  0  0  0  0  0  0  0  0
   38.9940   31.0380   39.8840 C   0  0  0  0  0  0  0  0  0  0  0  0
   37.6710   31.5200   39.9350 C   0  0  0  0  0  0  0  0  0  0  0  0
   37.5210   32.9100   39.9410 C   0  0  0  0  0  0  0  0  0  0  0  0
   38.6220   33.7070   39.8990 N   0  0  0  0  0  0  0  0  0  0  0  0
   39.8520   33.1950   39.8510 C   0  0  0  0  0  0  0  0  0  0  0  0
   40.0390   31.8600   39.8430 N   0  0  0  0  0  0  0  0  0  0  0  0
   36.4960   33.2840   39.9820 H   0  0  0  0  0  0  0  0  0  0  0  0
   40.7400   33.8180   39.8160 H   0  0  0  0  0  0  0  0  0  0  0  0
   36.5670   30.5990   39.9780 C   0  0  0  0  0  0  0  0  0  0  0  0
   36.0600   29.9690   38.8410 C   0  0  0  0  0  0  0  0  0  0  0  0
   35.0320   29.1900   39.3240 C   0  0  0  0  0  0  0  0  0  0  0  0
   34.9200   29.3310   40.6560 N   0  0  0  0  0  0  0  0  0  0  0  0
   35.8500   30.1790   41.0180 N   0  0  0  0  0  0  0  0  0  0  0  0
   36.3910   30.0670   37.8200 H   0  0  0  0  0  0  0  0  0  0  0  0
   34.4260   28.5630   38.6670 H   0  0  0  0  0  0  0  0  0  0  0  0
   34.1840   28.8110   41.2110 H   0  0  0  0  0  0  0  0  0  0  0  0
  1  3  1  0  0  0  0
  1  2  2  0  0  0  0
  3  4  1  0  0  0  0
  4  9  1  0  0  0  0
  4  5  1  0  0  0  0
  5 12  1  0  0  0  0
  5 11  1  0  0  0  0
  6 13  1  0  0  0  0
  6  5  1  0  0  0  0
  7 15  1  0  0  0  0
  7  6  1  0  0  0  0
  8 17  1  6  0  0  0
  8  3  1  0  0  0  0
  8  7  1  0  0  0  0
 10  4  1  0  0  0  0
 14  6  1  0  0  0  0
 16  7  1  0  0  0  0
 18 22  1  0  0  0  0
 18  8  1  0  0  0  0
 19 18  1  0  0  0  0
 20 19  1  0  0  0  0
 20 21  1  0  0  0  0
 21 22  1  0  0  0  0
 23 24  1  0  0  0  0
 23  1  1  0  0  0  0
 24 25  1  0  0  0  0
 25 26  2  0  0  0  0
 25 32  1  0  0  0  0
 26 30  1  0  0  0  0
 27 26  1  0  0  0  0
 28 27  2  0  0  0  0
 29 28  1  0  0  0  0
 29 24  2  0  0  0  0
 31 28  1  0  0  0  0
 32 36  2  0  0  0  0
 33 34  2  0  0  0  0
 33 32  1  0  0  0  0
 34 35  1  0  0  0  0
 35 36  1  0  0  0  0
 35 39  1  0  0  0  0
 37 33  1  0  0  0  0
 38 34  1  0  0  0  0
M  END
>  <minimizedAffinity>
-5.79393244

$$$$

 OpenBabel03252508553D

 39 42  0  0  1  0  0  0  0  0999 V2000
   37.7780   30.3770   38.2340 C   0  0  0  0  0  0  0  0  0  0  0  0
   36.9260   30.5510   37.3180 O   0  0  0  0  0  0  0  0  0  0  0  0
   37.0520   29.4440   39.0860 N   0  0  0  0  0  0  0  0  0  0  0  0
   36.6770   28.2000   38.4260 C   0  0  0  0  0  0  0  0  0  0  0  0
   35.2140   28.3770   38.0440 C   0  0  0  0  0  0  0  0  0  0  0  0
   34.5660   29.2030   39.1560 C   0  0  0  0  0  0  0  0  0  0  0  0
   35.2390   28.9490   40.4910 C   0  0  0  0  0  0  0  0  0  0  0  0
   36.6540   29.5690   40.4690 C   0  0  1  0  0  0  0  0  0  0  0  0
   37.3180   27.9680   37.5620 H   0  0  0  0  0  0  0  0  0  0  0  0
   36.7700   27.3620   39.1740 H   0  0  0  0  0  0  0  0  0  0  0  0
   34.6980   27.4100   37.9180 H   0  0  0  0  0  0  0  0  0  0  0  0
   35.1670   28.9700   37.1000 H   0  0  0  0  0  0  0  0  0  0  0  0
   33.5340   28.8430   39.2360 H   0  0  0  0  0  0  0  0  0  0  0  0
   34.5190   30.2830   38.9040 H   0  0  0  0  0  0  0  0  0  0  0  0
   35.2720   27.8600   40.6380 H   0  0  0  0  0  0  0  0  0  0  0  0
   34.6110   29.4940   41.2370 H   0  0  0  0  0  0  0  0  0  0  0  0
   36.5410   30.6170   40.7760 H   0  0  0  0  0  0  0  0  0  0  0  0
   37.4550   28.7450   41.4340 C   0  0  0  0  0  3  0  0  0  0  0  0
   38.0850   29.4870   42.5560 C   0  0  0  0  0  2  0  0  0  0  0  0
   38.3490   28.3710   43.5770 C   0  0  0  0  0  2  0  0  0  0  0  0
   36.9830   27.7040   43.5760 C   0  0  0  0  0  2  0  0  0  0  0  0
   36.4480   27.8580   42.1670 C   0  0  0  0  0  2  0  0  0  0  0  0
   39.0300   30.9290   38.3570 O   0  0  0  0  0  0  0  0  0  0  0  0
   39.3620   32.0210   39.1220 C   0  0  0  0  0  0  0  0  0  0  0  0
   40.6980   32.4670   39.0780 C   0  0  0  0  0  0  0  0  0  0  0  0
   41.0030   33.5790   39.8670 C   0  0  0  0  0  0  0  0  0  0  0  0
   40.0300   34.1610   40.6180 N   0  0  0  0  0  0  0  0  0  0  0  0
   38.7810   33.6960   40.6210 C   0  0  0  0  0  0  0  0  0  0  0  0
   38.4460   32.6250   39.8730 N   0  0  0  0  0  0  0  0  0  0  0  0
   42.0380   33.9250   39.8330 H   0  0  0  0  0  0  0  0  0  0  0  0
   37.9930   34.1490   41.2150 H   0  0  0  0  0  0  0  0  0  0  0  0
   41.6590   31.7860   38.2520 C   0  0  0  0  0  0  0  0  0  0  0  0
   42.4730   30.7560   38.7270 C   0  0  0  0  0  0  0  0  0  0  0  0
   43.2260   30.3970   37.6310 C   0  0  0  0  0  0  0  0  0  0  0  0
   42.8980   31.1490   36.5660 N   0  0  0  0  0  0  0  0  0  0  0  0
   41.9590   31.9700   36.9680 N   0  0  0  0  0  0  0  0  0  0  0  0
   42.5080   30.3370   39.7180 H   0  0  0  0  0  0  0  0  0  0  0  0
   43.9720   29.6020   37.6800 H   0  0  0  0  0  0  0  0  0  0  0  0
   43.3700   31.0210   35.6280 H   0  0  0  0  0  0  0  0  0  0  0  0
  1 23  1  0  0  0  0
  1  3  1  0  0  0  0
  2  1  2  0  0  0  0
  3  8  1  0  0  0  0
  4  3  1  0  0  0  0
  4 10  1  0  0  0  0
  5  4  1  0  0  0  0
  5  6  1  0  0  0  0
  6 13  1  0  0  0  0
  6  7  1  0  0  0  0
  7 15  1  0  0  0  0
  7 16  1  0  0  0  0
  8  7  1  0  0  0  0
  8 17  1  1  0  0  0
  8 18  1  0  0  0  0
  9  4  1  0  0  0  0
 11  5  1  0  0  0  0
 12  5  1  0  0  0  0
 14  6  1  0  0  0  0
 18 22  1  0  0  0  0
 18 19  1  0  0  0  0
 19 20  1  0  0  0  0
 21 20  1  0  0  0  0
 22 21  1  0  0  0  0
 23 24  1  0  0  0  0
 24 29  1  0  0  0  0
 25 24  2  0  0  0  0
 25 26  1  0  0  0  0
 26 27  2  0  0  0  0
 27 28  1  0  0  0  0
 28 31  1  0  0  0  0
 29 28  2  0  0  0  0
 30 26  1  0  0  0  0
 32 33  1  0  0  0  0
 32 25  1  0  0  0  0
 33 37  1  0  0  0  0
 34 38  1  0  0  0  0
 34 33  2  0  0  0  0
 35 36  1  0  0  0  0
 35 34  1  0  0  0  0
 36 32  2  0  0  0  0
 39 35  1  0  0  0  0
M  END
>  <minimizedAffinity>
-5.72645998

$$$$

 OpenBabel03252508553D

 39 42  0  0  1  0  0  0  0  0999 V2000
   39.5990   29.4490   41.9100 C   0  0  0  0  0  0  0  0  0  0  0  0
   39.9050   28.7880   42.9420 O   0  0  0  0  0  0  0  0  0  0  0  0
   38.2640   28.9220   41.6540 N   0  0  0  0  0  0  0  0  0  0  0  0
   37.3220   29.1250   42.7480 C   0  0  0  0  0  0  0  0  0  0  0  0
   37.2780   27.7940   43.4860 C   0  0  0  0  0  0  0  0  0  0  0  0
   37.4260   26.6990   42.4290 C   0  0  0  0  0  0  0  0  0  0  0  0
   36.8440   27.1380   41.0990 C   0  0  0  0  0  0  0  0  0  0  0  0
   37.7430   28.2380   40.4930 C   0  0  1  0  0  0  0  0  0  0  0  0
   37.6040   29.9640   43.4000 H   0  0  0  0  0  0  0  0  0  0  0  0
   36.3090   29.3410   42.3050 H   0  0  0  0  0  0  0  0  0  0  0  0
   36.3420   27.6680   44.0570 H   0  0  0  0  0  0  0  0  0  0  0  0
   38.1600   27.7410   44.1680 H   0  0  0  0  0  0  0  0  0  0  0  0
   36.8280   25.8530   42.7850 H   0  0  0  0  0  0  0  0  0  0  0  0
   38.4740   26.3450   42.3360 H   0  0  0  0  0  0  0  0  0  0  0  0
   35.8260   27.5040   41.2930 H   0  0  0  0  0  0  0  0  0  0  0  0
   36.8890   26.2290   40.4520 H   0  0  0  0  0  0  0  0  0  0  0  0
   38.5310   27.7220   39.9270 H   0  0  0  0  0  0  0  0  0  0  0  0
   36.8290   29.0600   39.6340 C   0  0  0  0  0  3  0  0  0  0  0  0
   37.1590   29.1010   38.1860 C   0  0  0  0  0  2  0  0  0  0  0  0
   35.8260   29.5370   37.5590 C   0  0  0  0  0  2  0  0  0  0  0  0
   34.8930   28.5610   38.2550 C   0  0  0  0  0  2  0  0  0  0  0  0
   35.4850   28.3290   39.6300 C   0  0  0  0  0  2  0  0  0  0  0  0
   40.3420   30.3920   41.2440 O   0  0  0  0  0  0  0  0  0  0  0  0
   40.6840   30.3630   39.9130 C   0  0  0  0  0  0  0  0  0  0  0  0
   40.1130   31.3380   39.0720 C   0  0  0  0  0  0  0  0  0  0  0  0
   40.4810   31.2820   37.7240 C   0  0  0  0  0  0  0  0  0  0  0  0
   41.3430   30.3190   37.3010 N   0  0  0  0  0  0  0  0  0  0  0  0
   41.8520   29.4200   38.1420 C   0  0  0  0  0  0  0  0  0  0  0  0
   41.5230   29.4410   39.4500 N   0  0  0  0  0  0  0  0  0  0  0  0
   40.0390   32.0380   37.0720 H   0  0  0  0  0  0  0  0  0  0  0  0
   42.5410   28.6460   37.8190 H   0  0  0  0  0  0  0  0  0  0  0  0
   39.2100   32.3190   39.6120 C   0  0  0  0  0  0  0  0  0  0  0  0
   39.6390   33.5420   40.1300 C   0  0  0  0  0  0  0  0  0  0  0  0
   38.4750   34.1590   40.5290 C   0  0  0  0  0  0  0  0  0  0  0  0
   37.4140   33.3750   40.2740 N   0  0  0  0  0  0  0  0  0  0  0  0
   37.8840   32.2820   39.7260 N   0  0  0  0  0  0  0  0  0  0  0  0
   40.6460   33.9190   40.2030 H   0  0  0  0  0  0  0  0  0  0  0  0
   38.4760   35.1520   40.9850 H   0  0  0  0  0  0  0  0  0  0  0  0
   36.4280   33.6780   40.5120 H   0  0  0  0  0  0  0  0  0  0  0  0
  1  2  2  0  0  0  0
  3  1  1  0  0  0  0
  3  4  1  0  0  0  0
  4  9  1  0  0  0  0
  4  5  1  0  0  0  0
  5 11  1  0  0  0  0
  5 12  1  0  0  0  0
  6 13  1  0  0  0  0
  6  5  1  0  0  0  0
  7 15  1  0  0  0  0
  7  6  1  0  0  0  0
  8 17  1  6  0  0  0
  8  7  1  0  0  0  0
  8  3  1  0  0  0  0
 10  4  1  0  0  0  0
 14  6  1  0  0  0  0
 16  7  1  0  0  0  0
 18  8  1  0  0  0  0
 19 18  1  0  0  0  0
 20 19  1  0  0  0  0
 20 21  1  0  0  0  0
 21 22  1  0  0  0  0
 22 18  1  0  0  0  0
 23  1  1  0  0  0  0
 24 23  1  0  0  0  0
 25 32  1  0  0  0  0
 25 24  2  0  0  0  0
 26 25  1  0  0  0  0
 27 26  2  0  0  0  0
 27 28  1  0  0  0  0
 28 29  2  0  0  0  0
 29 24  1  0  0  0  0
 30 26  1  0  0  0  0
 31 28  1  0  0  0  0
 32 36  2  0  0  0  0
 32 33  1  0  0  0  0
 33 37  1  0  0  0  0
 33 34  2  0  0  0  0
 34 38  1  0  0  0  0
 35 39  1  0  0  0  0
 35 34  1  0  0  0  0
 36 35  1  0  0  0  0
M  END
>  <minimizedAffinity>
-5.69754648

$$$$

 OpenBabel03252508553D

 39 42  0  0  1  0  0  0  0  0999 V2000
   37.0210   29.6610   41.1270 C   0  0  0  0  0  0  0  0  0  0  0  0
   37.6930   30.1480   42.0800 O   0  0  0  0  0  0  0  0  0  0  0  0
   37.1000   28.2430   41.4540 N   0  0  0  0  0  0  0  0  0  0  0  0
   36.5490   27.9010   42.7600 C   0  0  0  0  0  0  0  0  0  0  0  0
   37.7560   27.7770   43.6800 C   0  0  0  0  0  0  0  0  0  0  0  0
   38.8910   27.1890   42.8410 C   0  0  0  0  0  0  0  0  0  0  0  0
   38.3540   26.2830   41.7500 C   0  0  0  0  0  0  0  0  0  0  0  0
   37.6360   27.1430   40.6870 C   0  0  1  0  0  0  0  0  0  0  0  0
   35.8150   28.6370   43.1170 H   0  0  0  0  0  0  0  0  0  0  0  0
   36.0390   26.8990   42.6750 H   0  0  0  0  0  0  0  0  0  0  0  0
   37.5450   27.1440   44.5580 H   0  0  0  0  0  0  0  0  0  0  0  0
   38.0570   28.8020   44.0030 H   0  0  0  0  0  0  0  0  0  0  0  0
   39.4790   26.5660   43.5240 H   0  0  0  0  0  0  0  0  0  0  0  0
   39.5700   27.9730   42.4440 H   0  0  0  0  0  0  0  0  0  0  0  0
   37.6690   25.5670   42.2280 H   0  0  0  0  0  0  0  0  0  0  0  0
   39.2610   25.8150   41.2940 H   0  0  0  0  0  0  0  0  0  0  0  0
   38.4060   27.4680   39.9760 H   0  0  0  0  0  0  0  0  0  0  0  0
   36.6060   26.2350   40.0820 C   0  0  0  0  0  3  0  0  0  0  0  0
   36.7320   25.9900   38.6230 C   0  0  0  0  0  2  0  0  0  0  0  0
   35.9280   24.6950   38.4380 C   0  0  0  0  0  2  0  0  0  0  0  0
   36.5320   23.8650   39.5580 C   0  0  0  0  0  2  0  0  0  0  0  0
   36.8790   24.8450   40.6600 C   0  0  0  0  0  2  0  0  0  0  0  0
   36.4030   30.3180   40.0910 O   0  0  0  0  0  0  0  0  0  0  0  0
   35.7790   29.7310   39.0170 C   0  0  0  0  0  0  0  0  0  0  0  0
   36.4240   29.8050   37.7660 C   0  0  0  0  0  0  0  0  0  0  0  0
   35.7630   29.1980   36.6940 C   0  0  0  0  0  0  0  0  0  0  0  0
   34.5660   28.5860   36.9000 N   0  0  0  0  0  0  0  0  0  0  0  0
   34.0010   28.5470   38.1060 C   0  0  0  0  0  0  0  0  0  0  0  0
   34.6070   29.1190   39.1660 N   0  0  0  0  0  0  0  0  0  0  0  0
   36.2630   29.2550   35.7250 H   0  0  0  0  0  0  0  0  0  0  0  0
   33.0470   28.0620   38.2860 H   0  0  0  0  0  0  0  0  0  0  0  0
   37.6910   30.4750   37.6460 C   0  0  0  0  0  0  0  0  0  0  0  0
   38.9080   29.8520   37.9280 C   0  0  0  0  0  0  0  0  0  0  0  0
   39.8450   30.8330   37.6870 C   0  0  0  0  0  0  0  0  0  0  0  0
   39.2480   31.9680   37.2860 N   0  0  0  0  0  0  0  0  0  0  0  0
   37.9610   31.7240   37.2720 N   0  0  0  0  0  0  0  0  0  0  0  0
   39.0800   28.8410   38.2580 H   0  0  0  0  0  0  0  0  0  0  0  0
   40.9140   30.6530   37.8190 H   0  0  0  0  0  0  0  0  0  0  0  0
   39.8040   32.8370   37.0530 H   0  0  0  0  0  0  0  0  0  0  0  0
  1  3  1  0  0  0  0
  1  2  2  0  0  0  0
  3  4  1  0  0  0  0
  4  9  1  0  0  0  0
  4  5  1  0  0  0  0
  5 12  1  0  0  0  0
  5 11  1  0  0  0  0
  6 13  1  0  0  0  0
  6  5  1  0  0  0  0
  7 15  1  0  0  0  0
  7  6  1  0  0  0  0
  8 17  1  6  0  0  0
  8  3  1  0  0  0  0
  8  7  1  0  0  0  0
 10  4  1  0  0  0  0
 14  6  1  0  0  0  0
 16  7  1  0  0  0  0
 18 22  1  0  0  0  0
 18  8  1  0  0  0  0
 19 18  1  0  0  0  0
 20 19  1  0  0  0  0
 20 21  1  0  0  0  0
 21 22  1  0  0  0  0
 23  1  1  0  0  0  0
 24 29  1  0  0  0  0
 24 23  1  0  0  0  0
 25 24  2  0  0  0  0
 26 27  2  0  0  0  0
 26 25  1  0  0  0  0
 27 28  1  0  0  0  0
 28 31  1  0  0  0  0
 28 29  2  0  0  0  0
 30 26  1  0  0  0  0
 32 25  1  0  0  0  0
 32 33  1  0  0  0  0
 33 37  1  0  0  0  0
 34 38  1  0  0  0  0
 34 33  2  0  0  0  0
 35 34  1  0  0  0  0
 36 35  1  0  0  0  0
 36 32  2  0  0  0  0
 39 35  1  0  0  0  0
M  END
>  <minimizedAffinity>
-5.69090796

$$$$

 OpenBabel03252508553D

 39 42  0  0  1  0  0  0  0  0999 V2000
   40.2480   30.0820   40.4990 C   0  0  0  0  0  0  0  0  0  0  0  0
   41.1480   30.9180   40.7900 O   0  0  0  0  0  0  0  0  0  0  0  0
   39.2180   30.9790   39.9900 N   0  0  0  0  0  0  0  0  0  0  0  0
   39.6340   31.7760   38.8430 C   0  0  0  0  0  0  0  0  0  0  0  0
   39.9880   33.1420   39.4150 C   0  0  0  0  0  0  0  0  0  0  0  0
   39.0160   33.4020   40.5660 C   0  0  0  0  0  0  0  0  0  0  0  0
   37.6830   32.7220   40.3230 C   0  0  0  0  0  0  0  0  0  0  0  0
   37.8650   31.1940   40.4490 C   0  0  1  0  0  0  0  0  0  0  0  0
   40.4660   31.3180   38.2880 H   0  0  0  0  0  0  0  0  0  0  0  0
   38.7540   31.8780   38.1470 H   0  0  0  0  0  0  0  0  0  0  0  0
   39.9230   33.9390   38.6550 H   0  0  0  0  0  0  0  0  0  0  0  0
   41.0200   33.0890   39.8370 H   0  0  0  0  0  0  0  0  0  0  0  0
   38.8360   34.4830   40.5710 H   0  0  0  0  0  0  0  0  0  0  0  0
   39.4520   33.1380   41.5520 H   0  0  0  0  0  0  0  0  0  0  0  0
   37.3470   33.0120   39.3170 H   0  0  0  0  0  0  0  0  0  0  0  0
   37.0220   33.0830   41.1480 H   0  0  0  0  0  0  0  0  0  0  0  0
   37.7440   30.9510   41.5130 H   0  0  0  0  0  0  0  0  0  0  0  0
   36.8000   30.6000   39.5740 C   0  0  0  0  0  3  0  0  0  0  0  0
   37.0570   29.2240   39.0790 C   0  0  0  0  0  2  0  0  0  0  0  0
   35.6480   28.7450   38.7010 C   0  0  0  0  0  2  0  0  0  0  0  0
   34.9040   29.1350   39.9670 C   0  0  0  0  0  2  0  0  0  0  0  0
   35.5840   30.3890   40.4770 C   0  0  0  0  0  2  0  0  0  0  0  0
   40.2690   28.7150   40.6370 O   0  0  0  0  0  0  0  0  0  0  0  0
   40.9780   28.0070   41.5770 C   0  0  0  0  0  0  0  0  0  0  0  0
   40.2960   27.6060   42.7430 C   0  0  0  0  0  0  0  0  0  0  0  0
   41.0440   26.8880   43.6800 C   0  0  0  0  0  0  0  0  0  0  0  0
   42.3540   26.6180   43.4320 N   0  0  0  0  0  0  0  0  0  0  0  0
   42.9490   27.0220   42.3100 C   0  0  0  0  0  0  0  0  0  0  0  0
   42.2610   27.7180   41.3810 N   0  0  0  0  0  0  0  0  0  0  0  0
   40.5160   26.5770   44.5830 H   0  0  0  0  0  0  0  0  0  0  0  0
   43.9930   26.8150   42.0980 H   0  0  0  0  0  0  0  0  0  0  0  0
   38.9070   27.9380   42.9170 C   0  0  0  0  0  0  0  0  0  0  0  0
   37.8710   27.0590   42.5990 C   0  0  0  0  0  0  0  0  0  0  0  0
   36.7300   27.7630   42.9140 C   0  0  0  0  0  0  0  0  0  0  0  0
   37.0430   28.9800   43.3890 N   0  0  0  0  0  0  0  0  0  0  0  0
   38.3510   29.0560   43.3790 N   0  0  0  0  0  0  0  0  0  0  0  0
   37.9420   26.0610   42.1990 H   0  0  0  0  0  0  0  0  0  0  0  0
   35.7330   27.3380   42.7750 H   0  0  0  0  0  0  0  0  0  0  0  0
   36.2980   29.6700   43.6860 H   0  0  0  0  0  0  0  0  0  0  0  0
  1 23  1  0  0  0  0
  1  2  2  0  0  0  0
  3  8  1  0  0  0  0
  3  1  1  0  0  0  0
  4  5  1  0  0  0  0
  4  3  1  0  0  0  0
  5 12  1  0  0  0  0
  5  6  1  0  0  0  0
  6 13  1  0  0  0  0
  6 14  1  0  0  0  0
  7  8  1  0  0  0  0
  7  6  1  0  0  0  0
  7 16  1  0  0  0  0
  8 17  1  1  0  0  0
  9  4  1  0  0  0  0
 10  4  1  0  0  0  0
 11  5  1  0  0  0  0
 15  7  1  0  0  0  0
 18  8  1  0  0  0  0
 18 22  1  0  0  0  0
 19 18  1  0  0  0  0
 20 19  1  0  0  0  0
 20 21  1  0  0  0  0
 21 22  1  0  0  0  0
 23 24  1  0  0  0  0
 24 25  1  0  0  0  0
 25 32  1  0  0  0  0
 25 26  2  0  0  0  0
 26 30  1  0  0  0  0
 27 26  1  0  0  0  0
 28 27  2  0  0  0  0
 29 24  2  0  0  0  0
 29 28  1  0  0  0  0
 31 28  1  0  0  0  0
 32 36  2  0  0  0  0
 33 34  2  0  0  0  0
 33 32  1  0  0  0  0
 34 35  1  0  0  0  0
 35 39  1  0  0  0  0
 36 35  1  0  0  0  0
 37 33  1  0  0  0  0
 38 34  1  0  0  0  0
M  END
>  <minimizedAffinity>
-5.65106058

$$$$
