
 OpenBabel03242523543D

 41 44  0  0  1  0  0  0  0  0999 V2000
   42.8140   34.5170   38.7490 C   0  0  1  0  0  0  0  0  0  0  0  0
   42.9530   35.1810   40.1130 C   0  0  1  0  0  0  0  0  0  0  0  0
   41.6620   35.4000   40.6310 O   0  0  0  0  0  0  0  0  0  0  0  0
   40.7370   35.7410   39.6420 C   0  0  0  0  0  0  0  0  0  0  0  0
   40.4330   34.5730   38.7260 C   0  0  2  0  0  0  0  0  0  0  0  0
   41.6490   33.5850   38.8520 C   0  0  1  0  0  0  0  0  0  0  0  0
   43.7650   33.9910   38.5260 H   0  0  0  0  0  0  0  0  0  0  0  0
   43.5340   36.1130   40.0780 H   0  0  0  0  0  0  0  0  0  0  0  0
   41.0280   36.6570   39.0900 H   0  0  0  0  0  0  0  0  0  0  0  0
   39.8090   35.9860   40.1650 H   0  0  0  0  0  0  0  0  0  0  0  0
   39.5140   34.0250   38.9980 H   0  0  0  0  0  0  0  0  0  0  0  0
   41.4350   33.3000   39.9340 H   0  0  0  0  0  0  0  0  0  0  0  0
   42.5950   35.4720   37.7490 O   0  0  0  0  0  0  0  0  0  0  0  0
   43.4630   35.7830   37.4450 H   0  0  0  0  0  0  0  0  0  0  0  0
   40.4490   34.9960   37.4060 O   0  0  0  0  0  0  0  0  0  0  0  0
   39.9850   34.3700   36.7960 H   0  0  0  0  0  0  0  0  0  0  0  0
   43.4900   34.1920   40.9510 O   0  0  0  0  0  0  0  0  0  0  0  0
   44.5980   34.3350   41.6860 C   0  0  0  0  0  0  0  0  0  0  0  0
   45.8630   34.4320   41.0850 C   0  0  0  0  0  0  0  0  0  0  0  0
   46.9710   34.5800   41.9030 C   0  0  0  0  0  0  0  0  0  0  0  0
   46.8040   34.6290   43.2760 N   0  0  0  0  0  0  0  0  0  0  0  0
   45.5680   34.5320   43.8200 C   0  0  0  0  0  0  0  0  0  0  0  0
   44.4720   34.3860   43.0310 N   0  0  0  0  0  0  0  0  0  0  0  0
   45.9690   34.3900   40.0100 H   0  0  0  0  0  0  0  0  0  0  0  0
   45.4540   34.5720   44.8950 H   0  0  0  0  0  0  0  0  0  0  0  0
   48.3530   34.6800   41.3320 C   0  0  0  0  0  0  0  0  0  0  0  0
   49.0710   36.0160   41.5050 C   0  0  0  0  0  0  0  0  0  0  0  0
   49.4980   34.7130   42.1850 C   0  0  0  0  0  0  0  0  0  0  0  0
   48.3910   34.3420   40.2830 H   0  0  0  0  0  0  0  0  0  0  0  0
   48.6260   36.7690   42.1870 H   0  0  0  0  0  0  0  0  0  0  0  0
   49.7310   36.3820   40.7040 H   0  0  0  0  0  0  0  0  0  0  0  0
   49.3980   34.6720   43.2890 H   0  0  0  0  0  0  0  0  0  0  0  0
   50.4650   34.2900   41.8300 H   0  0  0  0  0  0  0  0  0  0  0  0
   41.5220   32.6550   37.8880 O   0  0  0  0  0  0  0  0  0  0  0  0
   40.8360   31.4880   37.9260 C   0  0  0  0  0  0  0  0  0  0  0  0
   39.6110   31.4190   37.4680 O   0  0  0  0  0  0  0  0  0  0  0  0
   40.8400   30.0400   38.3020 C   0  0  0  0  0  3  0  0  0  0  0  0
   42.2780   29.5570   38.0910 C   0  0  0  0  0  2  0  0  0  0  0  0
   42.0990   28.0770   38.3510 C   0  0  0  0  0  2  0  0  0  0  0  0
   40.8310   27.7890   37.5780 C   0  0  0  0  0  2  0  0  0  0  0  0
   40.1080   29.1240   37.4060 C   0  0  0  0  0  2  0  0  0  0  0  0
  1  7  1  6  0  0  0
  1  6  1  0  0  0  0
  1  2  1  0  0  0  0
  2  8  1  6  0  0  0
  2  3  1  0  0  0  0
  2 17  1  0  0  0  0
  4 10  1  0  0  0  0
  4  3  1  0  0  0  0
  5  6  1  0  0  0  0
  5 11  1  1  0  0  0
  5  4  1  0  0  0  0
  6 12  1  1  0  0  0
  9  4  1  0  0  0  0
 13  1  1  0  0  0  0
 14 13  1  0  0  0  0
 15  5  1  0  0  0  0
 16 15  1  0  0  0  0
 17 18  1  0  0  0  0
 18 23  1  0  0  0  0
 19 18  2  0  0  0  0
 19 20  1  0  0  0  0
 20 21  2  0  0  0  0
 21 22  1  0  0  0  0
 22 25  1  0  0  0  0
 23 22  2  0  0  0  0
 24 19  1  0  0  0  0
 26 27  1  0  0  0  0
 26 20  1  0  0  0  0
 26 28  1  0  0  0  0
 27 28  1  0  0  0  0
 27 30  1  0  0  0  0
 28 32  1  0  0  0  0
 29 26  1  0  0  0  0
 31 27  1  0  0  0  0
 33 28  1  0  0  0  0
 34 35  1  0  0  0  0
 34  6  1  0  0  0  0
 35 37  1  0  0  0  0
 36 35  2  0  0  0  0
 38 37  1  0  0  0  0
 38 39  1  0  0  0  0
 40 39  1  0  0  0  0
 41 40  1  0  0  0  0
 41 37  1  0  0  0  0
M  END
>  <minimizedAffinity>
-5.6272893

>  <minimizedRMSD>
0.107591696

$$$$
