
     RDKit          3D

 50 53  0  0  0  0  0  0  0  0999 V2000
   42.8288   34.4786   38.7783 C   0  0  1  0  0  0  0  0  0  0  0  0
   42.9552   35.1605   40.1345 C   0  0  1  0  0  0  0  0  0  0  0  0
   41.6591   35.3805   40.6399 O   0  0  0  0  0  0  0  0  0  0  0  0
   40.7409   35.7053   39.6386 C   0  0  0  0  0  0  0  0  0  0  0  0
   40.4478   34.5247   38.7348 C   0  0  2  0  0  0  0  0  0  0  0  0
   41.6675   33.5443   38.8834 C   0  0  1  0  0  0  0  0  0  0  0  0
   42.6151   35.4207   37.7635 O   0  0  0  0  0  0  0  0  0  0  0  0
   40.4726   34.9324   37.4104 O   0  0  0  0  0  0  0  0  0  0  0  0
   43.4890   34.1831   40.9893 O   0  0  0  0  0  0  0  0  0  0  0  0
   44.6032   34.3314   41.7143 C   0  0  0  0  0  0  0  0  0  0  0  0
   45.8598   34.4465   41.1014 C   0  0  0  0  0  0  0  0  0  0  0  0
   46.9754   34.6000   41.9092 C   0  0  0  0  0  0  0  0  0  0  0  0
   46.8205   34.6347   43.2838 N   0  0  0  0  0  0  0  0  0  0  0  0
   45.5923   34.5200   43.8398 C   0  0  0  0  0  0  0  0  0  0  0  0
   44.4899   34.3693   43.0611 N   0  0  0  0  0  0  0  0  0  0  0  0
   48.3503   34.7194   41.3261 C   0  0  0  0  0  0  0  0  0  0  0  0
   49.0647   36.0539   41.5225 C   0  0  0  0  0  0  0  0  0  0  0  0
   49.5049   34.7356   42.1657 C   0  0  0  0  0  0  0  0  0  0  0  0
   41.5520   32.6024   37.9292 O   0  0  0  0  0  0  0  0  0  0  0  0
   40.9068   31.4124   37.9914 C   0  0  0  0  0  0  0  0  0  0  0  0
   39.6701   31.3006   37.5729 O   0  0  0  0  0  0  0  0  0  0  0  0
   43.7843   33.9542   38.5693 H   0  0  0  0  0  0  0  0  0  0  0  0
   43.5333   36.0942   40.0931 H   0  0  0  0  0  0  0  0  0  0  0  0
   41.0319   36.6164   39.0784 H   0  0  0  0  0  0  0  0  0  0  0  0
   39.8073   35.9525   40.1523 H   0  0  0  0  0  0  0  0  0  0  0  0
   39.5295   33.9767   39.0057 H   0  0  0  0  0  0  0  0  0  0  0  0
   41.4460   33.2714   39.9656 H   0  0  0  0  0  0  0  0  0  0  0  0
   43.4844   35.7323   37.4642 H   0  0  0  0  0  0  0  0  0  0  0  0
   40.0168   34.2967   36.8042 H   0  0  0  0  0  0  0  0  0  0  0  0
   45.9562   34.4162   40.0245 H   0  0  0  0  0  0  0  0  0  0  0  0
   45.4879   34.5487   44.9164 H   0  0  0  0  0  0  0  0  0  0  0  0
   48.3783   34.4067   40.2680 H   0  0  0  0  0  0  0  0  0  0  0  0
   48.6236   36.7875   42.2279 H   0  0  0  0  0  0  0  0  0  0  0  0
   49.7137   36.4418   40.7244 H   0  0  0  0  0  0  0  0  0  0  0  0
   49.4166   34.6679   43.2703 H   0  0  0  0  0  0  0  0  0  0  0  0
   50.4687   34.3257   41.7904 H   0  0  0  0  0  0  0  0  0  0  0  0
   40.9714   29.9662   38.3693 C   0  0  0  0  0  0  0  0  0  0  0  0
   41.9681   29.8811   39.5286 C   0  0  0  0  0  0  0  0  0  0  0  0
   42.0495   28.3793   39.6951 C   0  0  0  0  0  0  0  0  0  0  0  0
   42.1583   27.9241   38.2565 C   0  0  0  0  0  0  0  0  0  0  0  0
   41.6057   29.0580   37.3949 C   0  0  0  0  0  0  0  0  0  0  0  0
   39.9764   29.5877   38.6794 H   0  0  0  0  0  0  0  0  0  0  0  0
   41.6306   30.4247   40.4070 H   0  0  0  0  0  0  0  0  0  0  0  0
   42.9402   30.2660   39.1038 H   0  0  0  0  0  0  0  0  0  0  0  0
   42.9784   28.1630   40.2598 H   0  0  0  0  0  0  0  0  0  0  0  0
   41.1342   28.0485   40.2057 H   0  0  0  0  0  0  0  0  0  0  0  0
   41.5144   27.0179   38.1625 H   0  0  0  0  0  0  0  0  0  0  0  0
   43.2092   27.6795   38.0012 H   0  0  0  0  0  0  0  0  0  0  0  0
   42.4889   29.5628   36.9534 H   0  0  0  0  0  0  0  0  0  0  0  0
   40.9809   28.6563   36.5955 H   0  0  0  0  0  0  0  0  0  0  0  0
  1  6  1  0
  1  2  1  0
  2  3  1  0
  2  9  1  0
  4  3  1  0
  5  6  1  0
  5  4  1  0
  7  1  1  0
  8  5  1  0
  9 10  1  0
 10 15  1  0
 11 10  2  0
 11 12  1  0
 12 13  2  0
 13 14  1  0
 15 14  2  0
 16 17  1  0
 16 12  1  0
 16 18  1  0
 17 18  1  0
 19 20  1  0
 19  6  1  0
 21 20  2  0
  1 22  1  6
  2 23  1  6
  4 24  1  0
  4 25  1  0
  5 26  1  1
  6 27  1  1
  7 28  1  0
  8 29  1  0
 11 30  1  0
 14 31  1  0
 16 32  1  0
 17 33  1  0
 17 34  1  0
 18 35  1  0
 18 36  1  0
 37 38  1  0
 38 39  1  0
 39 40  1  0
 40 41  1  0
 41 37  1  0
 37 42  1  0
 38 43  1  0
 38 44  1  0
 39 45  1  0
 39 46  1  0
 40 47  1  0
 40 48  1  0
 41 49  1  0
 41 50  1  0
 20 37  1  0
M  ISO  8  22  13  23  13  24  13  25  13  26  13  27  13  28   3  29   3
M  ISO  7  30  14  31  14  32  13  33  13  34  13  35  13  36  13
M  END
>  <DihAtoms>  (1) 
18,19,36,37

>  <DihDeg>  (1) 
179.21650530101203

$$$$
