
 OpenBabel03242523543D

 41 44  0  0  1  0  0  0  0  0999 V2000
   42.7920   34.3880   38.7910 C   0  0  1  0  0  0  0  0  0  0  0  0
   43.0050   35.1480   40.0940 C   0  0  1  0  0  0  0  0  0  0  0  0
   41.7430   35.4880   40.6170 O   0  0  0  0  0  0  0  0  0  0  0  0
   40.8170   35.8070   39.6210 C   0  0  0  0  0  0  0  0  0  0  0  0
   40.4190   34.5910   38.8080 C   0  0  2  0  0  0  0  0  0  0  0  0
   41.5760   33.5420   38.9910 C   0  0  1  0  0  0  0  0  0  0  0  0
   43.7040   33.7870   38.5930 H   0  0  0  0  0  0  0  0  0  0  0  0
   43.6410   36.0360   39.9720 H   0  0  0  0  0  0  0  0  0  0  0  0
   41.1490   36.6560   38.9910 H   0  0  0  0  0  0  0  0  0  0  0  0
   39.9180   36.1510   40.1400 H   0  0  0  0  0  0  0  0  0  0  0  0
   39.4750   34.1260   39.1410 H   0  0  0  0  0  0  0  0  0  0  0  0
   41.3710   33.3580   40.0960 H   0  0  0  0  0  0  0  0  0  0  0  0
   42.6090   35.2720   37.7200 O   0  0  0  0  0  0  0  0  0  0  0  0
   43.4870   35.5030   37.3770 H   0  0  0  0  0  0  0  0  0  0  0  0
   40.4300   34.9060   37.4580 O   0  0  0  0  0  0  0  0  0  0  0  0
   39.9150   34.2640   36.9100 H   0  0  0  0  0  0  0  0  0  0  0  0
   43.5000   34.1960   40.9990 O   0  0  0  0  0  0  0  0  0  0  0  0
   44.6150   34.3410   41.7230 C   0  0  0  0  0  0  0  0  0  0  0  0
   45.8730   34.4450   41.1090 C   0  0  0  0  0  0  0  0  0  0  0  0
   46.9890   34.5950   41.9170 C   0  0  0  0  0  0  0  0  0  0  0  0
   46.8350   34.6400   43.2910 N   0  0  0  0  0  0  0  0  0  0  0  0
   45.6050   34.5370   43.8480 C   0  0  0  0  0  0  0  0  0  0  0  0
   44.5020   34.3890   43.0700 N   0  0  0  0  0  0  0  0  0  0  0  0
   45.9690   34.4060   40.0340 H   0  0  0  0  0  0  0  0  0  0  0  0
   45.5010   34.5740   44.9240 H   0  0  0  0  0  0  0  0  0  0  0  0
   48.3650   34.7010   41.3330 C   0  0  0  0  0  0  0  0  0  0  0  0
   49.0850   36.0360   41.5120 C   0  0  0  0  0  0  0  0  0  0  0  0
   49.5190   34.7260   42.1740 C   0  0  0  0  0  0  0  0  0  0  0  0
   48.3920   34.3740   40.2800 H   0  0  0  0  0  0  0  0  0  0  0  0
   48.6460   36.7810   42.2060 H   0  0  0  0  0  0  0  0  0  0  0  0
   49.7360   36.4100   40.7080 H   0  0  0  0  0  0  0  0  0  0  0  0
   49.4300   34.6730   43.2780 H   0  0  0  0  0  0  0  0  0  0  0  0
   50.4820   34.3070   41.8040 H   0  0  0  0  0  0  0  0  0  0  0  0
   41.3700   32.5480   38.1070 O   0  0  0  0  0  0  0  0  0  0  0  0
   40.5310   31.4890   38.2090 C   0  0  0  0  0  0  0  0  0  0  0  0
   40.2070   30.7910   37.1480 O   0  0  0  0  0  0  0  0  0  0  0  0
   39.6900   30.6330   39.1020 C   0  0  0  0  0  3  0  0  0  0  0  0
   38.4730   30.2250   38.2660 C   0  0  0  0  0  2  0  0  0  0  0  0
   37.6560   29.5140   39.3220 C   0  0  0  0  0  2  0  0  0  0  0  0
   37.7840   30.4660   40.4920 C   0  0  0  0  0  2  0  0  0  0  0  0
   39.0300   31.3100   40.2340 C   0  0  0  0  0  2  0  0  0  0  0  0
  1  7  1  6  0  0  0
  1  6  1  0  0  0  0
  1  2  1  0  0  0  0
  2  8  1  6  0  0  0
  2  3  1  0  0  0  0
  2 17  1  0  0  0  0
  4 10  1  0  0  0  0
  4  3  1  0  0  0  0
  5  6  1  0  0  0  0
  5 11  1  1  0  0  0
  5  4  1  0  0  0  0
  6 12  1  1  0  0  0
  9  4  1  0  0  0  0
 13  1  1  0  0  0  0
 14 13  1  0  0  0  0
 15  5  1  0  0  0  0
 16 15  1  0  0  0  0
 17 18  1  0  0  0  0
 18 23  1  0  0  0  0
 19 18  2  0  0  0  0
 19 20  1  0  0  0  0
 20 21  2  0  0  0  0
 21 22  1  0  0  0  0
 22 25  1  0  0  0  0
 23 22  2  0  0  0  0
 24 19  1  0  0  0  0
 26 27  1  0  0  0  0
 26 20  1  0  0  0  0
 26 28  1  0  0  0  0
 27 28  1  0  0  0  0
 27 30  1  0  0  0  0
 28 32  1  0  0  0  0
 29 26  1  0  0  0  0
 31 27  1  0  0  0  0
 33 28  1  0  0  0  0
 34 35  1  0  0  0  0
 34  6  1  0  0  0  0
 35 37  1  0  0  0  0
 36 35  2  0  0  0  0
 37 41  1  0  0  0  0
 38 37  1  0  0  0  0
 38 39  1  0  0  0  0
 39 40  1  0  0  0  0
 41 40  1  0  0  0  0
M  END
>  <minimizedAffinity>
-6.28277683

>  <minimizedRMSD>
1.66854084

$$$$
