
 OpenBabel03242523543D

 41 44  0  0  1  0  0  0  0  0999 V2000
   42.6790   34.4020   38.9370 C   0  0  1  0  0  0  0  0  0  0  0  0
   43.0150   35.1910   40.1960 C   0  0  1  0  0  0  0  0  0  0  0  0
   41.8100   35.6420   40.7690 O   0  0  0  0  0  0  0  0  0  0  0  0
   40.8570   35.9910   39.8100 C   0  0  0  0  0  0  0  0  0  0  0  0
   40.3310   34.7790   39.0680 C   0  0  2  0  0  0  0  0  0  0  0  0
   41.4170   33.6560   39.2330 C   0  0  1  0  0  0  0  0  0  0  0  0
   43.5330   33.7290   38.7170 H   0  0  0  0  0  0  0  0  0  0  0  0
   43.7060   36.0250   40.0070 H   0  0  0  0  0  0  0  0  0  0  0  0
   41.2150   36.7910   39.1300 H   0  0  0  0  0  0  0  0  0  0  0  0
   40.0140   36.4190   40.3600 H   0  0  0  0  0  0  0  0  0  0  0  0
   39.3750   34.3970   39.4660 H   0  0  0  0  0  0  0  0  0  0  0  0
   41.2600   33.5270   40.3530 H   0  0  0  0  0  0  0  0  0  0  0  0
   42.5020   35.2580   37.8430 O   0  0  0  0  0  0  0  0  0  0  0  0
   43.3740   35.4110   37.4460 H   0  0  0  0  0  0  0  0  0  0  0  0
   40.2910   35.0440   37.7070 O   0  0  0  0  0  0  0  0  0  0  0  0
   39.7020   34.4220   37.2120 H   0  0  0  0  0  0  0  0  0  0  0  0
   43.4890   34.2390   41.1120 O   0  0  0  0  0  0  0  0  0  0  0  0
   44.6240   34.3530   41.8100 C   0  0  0  0  0  0  0  0  0  0  0  0
   45.8650   34.4780   41.1660 C   0  0  0  0  0  0  0  0  0  0  0  0
   47.0030   34.5930   41.9470 C   0  0  0  0  0  0  0  0  0  0  0  0
   46.8880   34.5830   43.3270 N   0  0  0  0  0  0  0  0  0  0  0  0
   45.6730   34.4610   43.9120 C   0  0  0  0  0  0  0  0  0  0  0  0
   44.5490   34.3460   43.1600 N   0  0  0  0  0  0  0  0  0  0  0  0
   45.9310   34.4820   40.0870 H   0  0  0  0  0  0  0  0  0  0  0  0
   45.5990   34.4550   44.9910 H   0  0  0  0  0  0  0  0  0  0  0  0
   48.3630   34.7190   41.3310 C   0  0  0  0  0  0  0  0  0  0  0  0
   49.0850   36.0500   41.5280 C   0  0  0  0  0  0  0  0  0  0  0  0
   49.5390   34.7230   42.1400 C   0  0  0  0  0  0  0  0  0  0  0  0
   48.3630   34.4230   40.2680 H   0  0  0  0  0  0  0  0  0  0  0  0
   48.6630   36.7740   42.2550 H   0  0  0  0  0  0  0  0  0  0  0  0
   49.7130   36.4490   40.7180 H   0  0  0  0  0  0  0  0  0  0  0  0
   49.4800   34.6390   43.2450 H   0  0  0  0  0  0  0  0  0  0  0  0
   50.4930   34.3170   41.7330 H   0  0  0  0  0  0  0  0  0  0  0  0
   41.0930   32.6490   38.4010 O   0  0  0  0  0  0  0  0  0  0  0  0
   40.1810   31.6640   38.5840 C   0  0  0  0  0  0  0  0  0  0  0  0
   39.6170   31.0780   37.5560 O   0  0  0  0  0  0  0  0  0  0  0  0
   39.4190   30.8210   39.5570 C   0  0  0  0  0  3  0  0  0  0  0  0
   38.1960   30.3030   38.7950 C   0  0  0  0  0  2  0  0  0  0  0  0
   37.4570   29.6160   39.9220 C   0  0  0  0  0  2  0  0  0  0  0  0
   37.5770   30.6410   41.0280 C   0  0  0  0  0  2  0  0  0  0  0  0
   38.7670   31.5310   40.6740 C   0  0  0  0  0  2  0  0  0  0  0  0
  1  7  1  6  0  0  0
  1  6  1  0  0  0  0
  1  2  1  0  0  0  0
  2  8  1  6  0  0  0
  2  3  1  0  0  0  0
  2 17  1  0  0  0  0
  4 10  1  0  0  0  0
  4  3  1  0  0  0  0
  5  6  1  0  0  0  0
  5 11  1  1  0  0  0
  5  4  1  0  0  0  0
  6 12  1  1  0  0  0
  9  4  1  0  0  0  0
 13  1  1  0  0  0  0
 14 13  1  0  0  0  0
 15  5  1  0  0  0  0
 16 15  1  0  0  0  0
 17 18  1  0  0  0  0
 18 23  1  0  0  0  0
 19 18  2  0  0  0  0
 19 20  1  0  0  0  0
 20 21  2  0  0  0  0
 21 22  1  0  0  0  0
 22 25  1  0  0  0  0
 23 22  2  0  0  0  0
 24 19  1  0  0  0  0
 26 27  1  0  0  0  0
 26 20  1  0  0  0  0
 26 28  1  0  0  0  0
 27 28  1  0  0  0  0
 27 30  1  0  0  0  0
 28 32  1  0  0  0  0
 29 26  1  0  0  0  0
 31 27  1  0  0  0  0
 33 28  1  0  0  0  0
 34 35  1  0  0  0  0
 34  6  1  0  0  0  0
 35 37  1  0  0  0  0
 36 35  2  0  0  0  0
 37 41  1  0  0  0  0
 38 37  1  0  0  0  0
 38 39  1  0  0  0  0
 39 40  1  0  0  0  0
 41 40  1  0  0  0  0
M  END
>  <minimizedAffinity>
-6.32574987

>  <minimizedRMSD>
1.36958957

$$$$
