
 OpenBabel03242523543D

 41 44  0  0  1  0  0  0  0  0999 V2000
   42.8150   34.3690   38.9500 C   0  0  1  0  0  0  0  0  0  0  0  0
   43.0300   35.1960   40.2110 C   0  0  1  0  0  0  0  0  0  0  0  0
   41.7730   35.6250   40.6770 O   0  0  0  0  0  0  0  0  0  0  0  0
   40.8890   35.9250   39.6380 C   0  0  0  0  0  0  0  0  0  0  0  0
   40.4550   34.6820   38.8880 C   0  0  2  0  0  0  0  0  0  0  0  0
   41.5550   33.5940   39.1650 C   0  0  1  0  0  0  0  0  0  0  0  0
   43.7020   33.7160   38.8140 H   0  0  0  0  0  0  0  0  0  0  0  0
   43.7110   36.0450   40.0550 H   0  0  0  0  0  0  0  0  0  0  0  0
   41.2770   36.7190   38.9680 H   0  0  0  0  0  0  0  0  0  0  0  0
   39.9940   36.3410   40.1100 H   0  0  0  0  0  0  0  0  0  0  0  0
   39.4820   34.2810   39.2210 H   0  0  0  0  0  0  0  0  0  0  0  0
   41.3140   33.4870   40.2730 H   0  0  0  0  0  0  0  0  0  0  0  0
   42.7010   35.1940   37.8240 O   0  0  0  0  0  0  0  0  0  0  0  0
   43.5970   35.3640   37.4920 H   0  0  0  0  0  0  0  0  0  0  0  0
   40.5140   34.9140   37.5230 O   0  0  0  0  0  0  0  0  0  0  0  0
   39.9830   34.2640   36.9990 H   0  0  0  0  0  0  0  0  0  0  0  0
   43.4570   34.2800   41.1840 O   0  0  0  0  0  0  0  0  0  0  0  0
   44.6040   34.3700   41.8660 C   0  0  0  0  0  0  0  0  0  0  0  0
   45.8350   34.4940   41.2050 C   0  0  0  0  0  0  0  0  0  0  0  0
   46.9870   34.5850   41.9690 C   0  0  0  0  0  0  0  0  0  0  0  0
   46.8930   34.5530   43.3500 N   0  0  0  0  0  0  0  0  0  0  0  0
   45.6870   34.4330   43.9530 C   0  0  0  0  0  0  0  0  0  0  0  0
   44.5500   34.3420   43.2170 N   0  0  0  0  0  0  0  0  0  0  0  0
   45.8840   34.5160   40.1250 H   0  0  0  0  0  0  0  0  0  0  0  0
   45.6300   34.4090   45.0330 H   0  0  0  0  0  0  0  0  0  0  0  0
   48.3380   34.7090   41.3330 C   0  0  0  0  0  0  0  0  0  0  0  0
   49.0700   36.0340   41.5310 C   0  0  0  0  0  0  0  0  0  0  0  0
   49.5260   34.6980   42.1250 C   0  0  0  0  0  0  0  0  0  0  0  0
   48.3200   34.4210   40.2680 H   0  0  0  0  0  0  0  0  0  0  0  0
   48.6640   36.7540   42.2700 H   0  0  0  0  0  0  0  0  0  0  0  0
   49.6890   36.4360   40.7150 H   0  0  0  0  0  0  0  0  0  0  0  0
   49.4830   34.6050   43.2300 H   0  0  0  0  0  0  0  0  0  0  0  0
   50.4710   34.2910   41.7000 H   0  0  0  0  0  0  0  0  0  0  0  0
   41.3240   32.5590   38.3370 O   0  0  0  0  0  0  0  0  0  0  0  0
   40.3870   31.5860   38.4420 C   0  0  0  0  0  0  0  0  0  0  0  0
   39.8530   31.0560   37.3690 O   0  0  0  0  0  0  0  0  0  0  0  0
   39.5710   30.7200   39.3480 C   0  0  0  0  0  3  0  0  0  0  0  0
   38.3240   30.3350   38.5470 C   0  0  0  0  0  2  0  0  0  0  0  0
   37.5380   29.6100   39.6180 C   0  0  0  0  0  2  0  0  0  0  0  0
   37.7120   30.5400   40.7980 C   0  0  0  0  0  2  0  0  0  0  0  0
   38.9550   31.3820   40.5140 C   0  0  0  0  0  2  0  0  0  0  0  0
  1  7  1  6  0  0  0
  1  6  1  0  0  0  0
  1  2  1  0  0  0  0
  2  8  1  6  0  0  0
  2  3  1  0  0  0  0
  2 17  1  0  0  0  0
  4 10  1  0  0  0  0
  4  3  1  0  0  0  0
  5  6  1  0  0  0  0
  5 11  1  1  0  0  0
  5  4  1  0  0  0  0
  6 12  1  1  0  0  0
  9  4  1  0  0  0  0
 13  1  1  0  0  0  0
 14 13  1  0  0  0  0
 15  5  1  0  0  0  0
 16 15  1  0  0  0  0
 17 18  1  0  0  0  0
 18 23  1  0  0  0  0
 19 18  2  0  0  0  0
 19 20  1  0  0  0  0
 20 21  2  0  0  0  0
 21 22  1  0  0  0  0
 22 25  1  0  0  0  0
 23 22  2  0  0  0  0
 24 19  1  0  0  0  0
 26 27  1  0  0  0  0
 26 20  1  0  0  0  0
 26 28  1  0  0  0  0
 27 28  1  0  0  0  0
 27 30  1  0  0  0  0
 28 32  1  0  0  0  0
 29 26  1  0  0  0  0
 31 27  1  0  0  0  0
 33 28  1  0  0  0  0
 34 35  1  0  0  0  0
 34  6  1  0  0  0  0
 35 37  1  0  0  0  0
 36 35  2  0  0  0  0
 37 41  1  0  0  0  0
 38 37  1  0  0  0  0
 38 39  1  0  0  0  0
 39 40  1  0  0  0  0
 41 40  1  0  0  0  0
M  END
>  <minimizedAffinity>
-6.32764912

>  <minimizedRMSD>
1.22000921

$$$$
