
 OpenBabel03252508593D

 43 45  0  0  1  0  0  0  0  0999 V2000
   47.2050   34.1170   43.0190 N   0  0  0  0  0  0  0  0  0  0  0  0
   46.7420   35.3740   42.5480 C   0  0  0  0  0  0  0  0  0  0  0  0
   45.2730   35.6450   42.7880 C   0  0  0  0  0  0  0  0  0  0  0  0
   44.7100   35.0210   44.0370 C   0  0  0  0  0  0  0  0  0  0  0  0
   45.8000   34.3660   44.8540 C   0  0  0  0  0  0  0  0  0  0  0  0
   46.4250   33.3300   43.8500 C   0  0  2  0  0  0  0  0  0  0  0  0
   46.9440   35.5930   41.4940 H   0  0  0  0  0  0  0  0  0  0  0  0
   47.3190   36.1450   43.1300 H   0  0  0  0  0  0  0  0  0  0  0  0
   44.6680   35.3710   41.8850 H   0  0  0  0  0  0  0  0  0  0  0  0
   45.1430   36.7430   42.8930 H   0  0  0  0  0  0  0  0  0  0  0  0
   44.0310   34.2040   43.7120 H   0  0  0  0  0  0  0  0  0  0  0  0
   44.0990   35.7290   44.6210 H   0  0  0  0  0  0  0  0  0  0  0  0
   46.5350   35.1390   45.1000 H   0  0  0  0  0  0  0  0  0  0  0  0
   45.3690   33.8300   45.7050 H   0  0  0  0  0  0  0  0  0  0  0  0
   45.5720   32.7940   43.3870 H   0  0  0  0  0  0  0  0  0  0  0  0
   48.1530   33.4790   42.1560 C   0  0  0  0  0  0  0  0  0  0  0  0
   48.8260   32.8210   42.7440 H   0  0  0  0  0  0  0  0  0  0  0  0
   48.7820   34.2770   41.6950 H   0  0  0  0  0  0  0  0  0  0  0  0
   47.4160   32.6940   41.1200 C   0  0  0  0  0  0  0  0  0  0  0  0
   47.4020   31.6160   41.2990 H   0  0  0  0  0  0  0  0  0  0  0  0
   46.3450   33.0360   41.0560 H   0  0  0  0  0  0  0  0  0  0  0  0
   49.3540   32.3290   37.9190 C   0  0  0  0  0  0  0  0  0  0  0  0
   48.8020   32.0530   39.1840 C   0  0  0  0  0  0  0  0  0  0  0  0
   47.9950   32.9940   39.7840 C   0  0  0  0  0  0  0  0  0  0  0  0
   47.7730   34.1400   39.1200 N   0  0  0  0  0  0  0  0  0  0  0  0
   48.3040   34.3940   37.9130 C   0  0  0  0  0  0  0  0  0  0  0  0
   49.0960   33.4970   37.3010 N   0  0  0  0  0  0  0  0  0  0  0  0
   49.9910   31.5740   37.4570 H   0  0  0  0  0  0  0  0  0  0  0  0
   49.0480   31.0970   39.6260 H   0  0  0  0  0  0  0  0  0  0  0  0
   48.0060   35.3680   37.5490 H   0  0  0  0  0  0  0  0  0  0  0  0
   47.1960   32.5480   44.6960 O   0  0  0  0  0  0  0  0  0  0  0  0
   45.8470   30.5360   43.6020 O   0  0  0  0  0  0  0  0  0  0  0  0
   46.6090   30.9820   44.8550 P   0  0  2  0  0  0  0  0  0  0  0  0
   45.4250   31.0420   46.0880 O   0  0  0  0  0  0  0  0  0  0  0  0
   45.7380   31.6260   46.8180 H   0  0  0  0  0  0  0  0  0  0  0  0
   47.7830   29.9060   45.3200 O   0  0  0  0  0  0  0  0  0  0  0  0
   47.5590   28.6080   45.7510 C   0  0  0  0  0  0  0  0  0  0  0  0
   47.0170   27.5160   44.9730 C   0  0  0  0  0  0  0  0  0  0  0  0
   46.7570   27.7850   43.8910 H   0  0  0  0  0  0  0  0  0  0  0  0
   47.0270   26.1230   46.2520 S   0  0  0  0  0  0  0  0  0  0  0  0
   47.7540   27.3030   47.5500 C   0  0  0  0  0  0  0  0  0  0  0  0
   47.9370   26.8610   48.5380 H   0  0  0  0  0  0  0  0  0  0  0  0
   47.8780   28.3500   47.0160 N   0  0  0  0  0  0  0  0  0  0  0  0
  1  6  1  0  0  0  0
  2  3  1  0  0  0  0
  2  1  1  0  0  0  0
  2  8  1  0  0  0  0
  3 10  1  0  0  0  0
  3  4  1  0  0  0  0
  4 12  1  0  0  0  0
  4  5  1  0  0  0  0
  5 13  1  0  0  0  0
  5 14  1  0  0  0  0
  6 15  1  6  0  0  0
  6 31  1  0  0  0  0
  6  5  1  0  0  0  0
  7  2  1  0  0  0  0
  9  3  1  0  0  0  0
 11  4  1  0  0  0  0
 16 17  1  0  0  0  0
 16  1  1  0  0  0  0
 18 16  1  0  0  0  0
 19 20  1  0  0  0  0
 19 16  1  0  0  0  0
 21 19  1  0  0  0  0
 22 23  1  0  0  0  0
 23 29  1  0  0  0  0
 23 24  2  0  0  0  0
 24 19  1  0  0  0  0
 25 24  1  0  0  0  0
 26 25  2  0  0  0  0
 27 26  1  0  0  0  0
 27 22  2  0  0  0  0
 28 22  1  0  0  0  0
 30 26  1  0  0  0  0
 31 33  1  0  0  0  0
 33 32  2  6  0  0  0
 33 36  1  0  0  0  0
 33 34  1  0  0  0  0
 34 35  1  0  0  0  0
 36 37  1  0  0  0  0
 37 43  1  0  0  0  0
 38 37  2  0  0  0  0
 38 40  1  0  0  0  0
 39 38  1  0  0  0  0
 40 41  1  0  0  0  0
 41 42  1  0  0  0  0
 43 41  2  0  0  0  0
M  END
>  <minimizedAffinity>
-3.79345679

>  <minimizedRMSD>
0.478236347

$$$$
