
 OpenBabel03242518013D

 35 37  0  0  0  0  0  0  0  0999 V2000
   46.3810   31.6040   45.6230 C   0  0  0  0  0  0  0  0  0  0  0  0
   46.2740   30.6400   45.0380 H   0  0  0  0  0  0  0  0  0  0  0  0
   45.3390   31.8600   45.8630 H   0  0  0  0  0  0  0  0  0  0  0  0
   47.3900   32.2450   47.8020 C   0  0  0  0  0  0  0  0  0  0  0  0
   47.2610   31.3160   46.7430 C   0  0  0  0  0  0  0  0  0  0  0  0
   48.0110   30.1460   46.8440 C   0  0  0  0  0  0  0  0  0  0  0  0
   48.8030   29.9580   47.9170 N   0  0  0  0  0  0  0  0  0  0  0  0
   48.9010   30.8670   48.9070 C   0  0  0  0  0  0  0  0  0  0  0  0
   48.1990   32.0010   48.8480 N   0  0  0  0  0  0  0  0  0  0  0  0
   46.8590   33.1610   47.8120 H   0  0  0  0  0  0  0  0  0  0  0  0
   47.9150   29.4260   46.0300 H   0  0  0  0  0  0  0  0  0  0  0  0
   49.8120   30.5250   50.0270 C   0  0  0  0  0  0  0  0  0  0  0  0
   50.1630   29.2180   50.5040 C   0  0  0  0  0  0  0  0  0  0  0  0
   49.6960   28.4030   49.9690 H   0  0  0  0  0  0  0  0  0  0  0  0
   51.3150   29.7090   51.8830 S   0  0  0  0  0  0  0  0  0  0  0  0
   51.0910   31.5660   51.5390 C   0  0  0  0  0  0  0  0  0  0  0  0
   51.6630   32.1740   52.2100 H   0  0  0  0  0  0  0  0  0  0  0  0
   50.2560   31.6800   50.5210 N   0  0  0  0  0  0  0  0  0  0  0  0
   47.0810   32.6230   44.7390 C   0  0  0  0  0  0  0  0  0  0  0  0
   47.4410   32.1260   43.8290 H   0  0  0  0  0  0  0  0  0  0  0  0
   48.0250   33.0080   45.2280 H   0  0  0  0  0  0  0  0  0  0  0  0
   46.4990   34.5040   43.2740 C   0  0  0  0  0  0  0  0  0  0  0  0
   46.2840   33.8250   44.4590 C   0  0  0  0  0  0  0  0  0  0  0  0
   45.3630   34.2120   45.3900 C   0  0  0  0  0  0  0  0  0  0  0  0
   44.6110   35.3400   45.1320 C   0  0  0  0  0  0  0  0  0  0  0  0
   44.7500   36.0730   43.9970 C   0  0  0  0  0  0  0  0  0  0  0  0
   45.7050   35.6230   43.0920 C   0  0  0  0  0  0  0  0  0  0  0  0
   45.1540   33.7390   46.3100 H   0  0  0  0  0  0  0  0  0  0  0  0
   43.8580   35.7040   45.8350 H   0  0  0  0  0  0  0  0  0  0  0  0
   44.1660   36.9670   43.7750 H   0  0  0  0  0  0  0  0  0  0  0  0
   45.8200   36.2110   42.1770 H   0  0  0  0  0  0  0  0  0  0  0  0
   47.6600   34.0530   42.0570 S   0  0  0  0  0  0  0  0  0  0  0  0
   48.9930   34.7420   42.2560 O   0  0  0  0  0  0  0  0  0  0  0  0
   47.1850   34.5560   40.7160 O   0  0  0  0  0  0  0  0  0  0  0  0
   47.8230   32.7150   41.9130 H   0  0  0  0  0  0  0  0  0  0  0  0
  1  3  1  0  0  0  0
  1  5  1  0  0  0  0
  2  1  1  0  0  0  0
  4 10  1  0  0  0  0
  4  9  1  0  0  0  0
  5  6  1  0  0  0  0
  5  4  2  0  0  0  0
  6  7  2  0  0  0  0
  7  8  1  0  0  0  0
  8 12  1  0  0  0  0
  9  8  2  0  0  0  0
 11  6  1  0  0  0  0
 12 13  2  0  0  0  0
 12 18  1  0  0  0  0
 13 15  1  0  0  0  0
 14 13  1  0  0  0  0
 16 15  1  0  0  0  0
 16 17  1  0  0  0  0
 18 16  2  0  0  0  0
 19 21  1  0  0  0  0
 19  1  1  0  0  0  0
 20 19  1  0  0  0  0
 22 23  1  0  0  0  0
 23 19  1  0  0  0  0
 23 24  2  0  0  0  0
 24 28  1  0  0  0  0
 25 24  1  0  0  0  0
 25 29  1  0  0  0  0
 26 25  2  0  0  0  0
 27 22  2  0  0  0  0
 27 26  1  0  0  0  0
 30 26  1  0  0  0  0
 31 27  1  0  0  0  0
 32 33  2  0  0  0  0
 32 22  1  0  0  0  0
 34 32  2  0  0  0  0
 35 32  1  0  0  0  0
M  END
>  <minimizedAffinity>
-5.63030338

>  <minimizedRMSD>
0.306643218

$$$$
