
 OpenBabel03252503193D

 37 40  0  0  0  0  0  0  0  0999 V2000
   45.6970   34.1550   40.7430 C   0  0  0  0  0  0  0  0  0  0  0  0
   44.3400   34.1460   40.5620 C   0  0  0  0  0  0  0  0  0  0  0  0
   44.1290   33.4520   39.4150 N   0  0  0  0  0  0  0  0  0  0  0  0
   45.3090   33.0610   38.9270 C   0  0  0  0  0  0  0  0  0  0  0  0
   46.2750   33.4930   39.7440 N   0  0  0  0  0  0  0  0  0  0  0  0
   45.6110   32.3130   37.7560 N   0  0  0  0  0  0  0  0  0  0  0  0
   43.6010   34.5890   41.1870 H   0  0  0  0  0  0  0  0  0  0  0  0
   45.7750   32.9100   36.8970 H   0  0  0  0  0  0  0  0  0  0  0  0
   45.6640   31.2600   37.7560 H   0  0  0  0  0  0  0  0  0  0  0  0
   42.8710   33.1500   38.7730 C   0  0  0  0  0  0  0  0  0  0  0  0
   42.8970   33.5260   37.7090 H   0  0  0  0  0  0  0  0  0  0  0  0
   42.7680   32.0520   38.6670 H   0  0  0  0  0  0  0  0  0  0  0  0
   41.7010   33.7770   39.4650 C   0  0  0  0  0  0  0  0  0  0  0  0
   41.1930   35.0650   39.0670 C   0  0  0  0  0  0  0  0  0  0  0  0
   41.5930   35.6460   38.2850 H   0  0  0  0  0  0  0  0  0  0  0  0
   39.8230   35.2860   40.2280 S   0  0  0  0  0  0  0  0  0  0  0  0
   40.1540   33.6080   41.0630 C   0  0  0  0  0  0  0  0  0  0  0  0
   39.5730   33.2090   41.8950 H   0  0  0  0  0  0  0  0  0  0  0  0
   41.0480   33.2210   40.4710 N   0  0  0  0  0  0  0  0  0  0  0  0
   46.4610   34.7940   41.8700 C   0  0  0  0  0  0  0  0  0  0  0  0
   47.6450   35.2170   41.7890 O   0  0  0  0  0  0  0  0  0  0  0  0
   45.2080   36.1660   43.4630 C   0  0  0  0  0  0  0  0  0  0  0  0
   45.8390   34.9520   43.1380 C   0  0  0  0  0  0  0  0  0  0  0  0
   45.7850   33.9950   44.1340 C   0  0  0  0  0  0  0  0  0  0  0  0
   45.1890   34.1900   45.3090 N   0  0  0  0  0  0  0  0  0  0  0  0
   44.5910   35.3900   45.5700 C   0  0  0  0  0  0  0  0  0  0  0  0
   44.6080   36.3580   44.6490 N   0  0  0  0  0  0  0  0  0  0  0  0
   45.1940   36.9880   42.7430 H   0  0  0  0  0  0  0  0  0  0  0  0
   44.1040   35.5600   46.5210 H   0  0  0  0  0  0  0  0  0  0  0  0
   46.4070   32.7340   43.8810 C   0  0  0  0  0  0  0  0  0  0  0  0
   47.6630   32.2310   43.9610 C   0  0  0  0  0  0  0  0  0  0  0  0
   47.9700   30.9940   43.6580 C   0  0  0  0  0  0  0  0  0  0  0  0
   46.9460   30.2310   43.2540 C   0  0  0  0  0  0  0  0  0  0  0  0
   45.4880   31.3150   43.3060 S   0  0  0  0  0  0  0  0  0  0  0  0
   48.4020   32.9830   44.3110 H   0  0  0  0  0  0  0  0  0  0  0  0
   48.9540   30.5450   43.7060 H   0  0  0  0  0  0  0  0  0  0  0  0
   46.9590   29.1030   42.9310 H   0  0  0  0  0  0  0  0  0  0  0  0
  1 20  1  0  0  0  0
  2  1  2  0  0  0  0
  2  7  1  0  0  0  0
  3  2  1  0  0  0  0
  4  3  1  0  0  0  0
  4  5  2  0  0  0  0
  5  1  1  0  0  0  0
  6  9  1  0  0  0  0
  6  4  1  0  0  0  0
  8  6  1  0  0  0  0
 10  3  1  0  0  0  0
 10 13  1  0  0  0  0
 11 10  1  0  0  0  0
 12 10  1  0  0  0  0
 13 19  1  0  0  0  0
 14 13  2  0  0  0  0
 14 16  1  0  0  0  0
 15 14  1  0  0  0  0
 16 17  1  0  0  0  0
 17 18  1  0  0  0  0
 19 17  2  0  0  0  0
 20 23  1  0  0  0  0
 21 20  2  0  0  0  0
 22 27  1  0  0  0  0
 23 22  2  0  0  0  0
 23 24  1  0  0  0  0
 24 25  2  0  0  0  0
 25 26  1  0  0  0  0
 26 29  1  0  0  0  0
 27 26  2  0  0  0  0
 28 22  1  0  0  0  0
 30 31  2  0  0  0  0
 30 24  1  0  0  0  0
 31 35  1  0  0  0  0
 32 36  1  0  0  0  0
 32 31  1  0  0  0  0
 33 34  1  0  0  0  0
 33 32  2  0  0  0  0
 34 30  1  0  0  0  0
 37 33  1  0  0  0  0
M  END
>  <minimizedAffinity>
-5.25329781

>  <minimizedRMSD>
1.69598031

$$$$
