
     RDKit          3D

 45 48  0  0  0  0  0  0  0  0999 V2000
   43.1994   33.2281   41.1626 C   0  0  0  0  0  0  0  0  0  0  0  0
   44.2312   34.0736   41.7861 C   0  0  0  0  0  0  0  0  0  0  0  0
   43.8806   35.2554   42.3998 C   0  0  0  0  0  0  0  0  0  0  0  0
   44.8858   36.0290   42.9654 C   0  0  0  0  0  0  0  0  0  0  0  0
   46.1751   35.5710   42.8829 N   0  0  0  0  0  0  0  0  0  0  0  0
   46.4709   34.4247   42.2839 C   0  0  0  0  0  0  0  0  0  0  0  0
   45.4894   33.6964   41.7447 N   0  0  0  0  0  0  0  0  0  0  0  0
   47.8700   34.0047   42.2629 C   0  0  0  0  0  0  0  0  0  0  0  0
   48.2113   32.6807   42.0044 C   0  0  0  0  0  0  0  0  0  0  0  0
   49.5289   32.2919   41.9920 C   0  0  0  0  0  0  0  0  0  0  0  0
   50.4259   33.3114   42.2517 C   0  0  0  0  0  0  0  0  0  0  0  0
   50.1389   34.6468   42.5155 C   0  0  0  0  0  0  0  0  0  0  0  0
   48.8161   34.9475   42.5091 N   0  0  0  0  0  0  0  0  0  0  0  0
   41.9043   33.9568   41.2069 C   0  0  0  0  0  0  0  0  0  0  0  0
   41.0009   33.5109   40.3306 N   0  0  0  0  0  0  0  0  0  0  0  0
   40.3271   32.2540   40.3361 C   0  0  0  0  0  0  0  0  0  0  0  0
   38.9518   32.7230   40.8039 C   0  0  0  0  0  0  0  0  0  0  0  0
   38.3277   33.6934   39.9218 C   0  0  0  0  0  0  0  0  0  0  0  0
   39.1623   34.5039   39.0638 C   0  0  0  0  0  0  0  0  0  0  0  0
   40.6626   34.4672   39.2517 C   0  0  0  0  0  0  0  0  0  0  0  0
   41.7819   35.3888   38.3192 S   0  0  0  0  0  0  0  0  0  0  0  0
   43.5036   32.9668   40.1267 H   0  0  0  0  0  0  0  0  0  0  0  0
   43.1716   32.2589   41.7376 H   0  0  0  0  0  0  0  0  0  0  0  0
   42.9508   35.7671   42.5803 H   0  0  0  0  0  0  0  0  0  0  0  0
   44.8042   36.9820   43.4854 H   0  0  0  0  0  0  0  0  0  0  0  0
   47.4498   31.9242   41.8068 H   0  0  0  0  0  0  0  0  0  0  0  0
   49.8882   31.3067   41.8050 H   0  0  0  0  0  0  0  0  0  0  0  0
   51.4892   33.0606   42.2549 H   0  0  0  0  0  0  0  0  0  0  0  0
   50.9141   35.3550   42.7039 H   0  0  0  0  0  0  0  0  0  0  0  0
   41.5403   33.9493   42.2571 H   0  0  0  0  0  0  0  0  0  0  0  0
   42.1968   35.0519   41.0483 H   0  0  0  0  0  0  0  0  0  0  0  0
   40.7142   31.6379   41.1749 H   0  0  0  0  0  0  0  0  0  0  0  0
   40.3224   31.6498   39.4457 H   0  0  0  0  0  0  0  0  0  0  0  0
   39.0770   33.0718   41.8658 H   0  0  0  0  0  0  0  0  0  0  0  0
   38.3430   31.7790   40.8961 H   0  0  0  0  0  0  0  0  0  0  0  0
   37.5949   33.1508   39.2562 H   0  0  0  0  0  0  0  0  0  0  0  0
   37.6841   34.3812   40.5225 H   0  0  0  0  0  0  0  0  0  0  0  0
   38.8336   35.1538   38.3114 H   0  0  0  0  0  0  0  0  0  0  0  0
   41.1950   36.8104   37.4754 C   0  0  0  0  0  0  0  0  0  0  0  0
   41.5556   37.5494   36.2430 C   0  0  0  0  0  0  0  0  0  0  0  0
   42.4660   37.0204   35.5806 H   0  0  0  0  0  0  0  0  0  0  0  0
   40.3535   38.9979   36.2810 S   0  0  0  0  0  0  0  0  0  0  0  0
   39.6280   38.3325   37.9008 C   0  0  0  0  0  0  0  0  0  0  0  0
   38.8227   39.0768   38.1588 H   0  0  0  0  0  0  0  0  0  0  0  0
   40.2166   37.3804   38.1357 N   0  0  0  0  0  0  0  0  0  0  0  0
  1 14  1  0
  1  2  1  0
  2  3  2  0
  3  4  1  0
  5  4  2  0
  6  5  1  0
  7  2  1  0
  7  6  2  0
  8  6  1  0
  8 13  1  0
  9  8  2  0
 10  9  1  0
 10 11  2  0
 11 12  1  0
 13 12  2  0
 15 14  1  0
 16 15  1  0
 16 17  1  0
 18 17  1  0
 19 20  2  0
 19 18  1  0
 20 15  1  0
 21 20  1  0
  1 22  1  0
  1 23  1  0
  3 24  1  0
  4 25  1  0
  9 26  1  0
 10 27  1  0
 11 28  1  0
 12 29  1  0
 14 30  1  0
 14 31  1  0
 16 32  1  0
 16 33  1  0
 17 34  1  0
 17 35  1  0
 18 36  1  0
 18 37  1  0
 19 38  1  0
 39 40  2  0
 40 41  1  0
 40 42  1  0
 42 43  1  0
 43 44  1  0
 43 45  2  0
 45 39  1  0
 21 39  1  0
M  ISO  8  22   8  23   8  24  14  25  14  26  14  27  14  28  14  29  14
M  ISO  8  30   8  31   8  32  13  33  13  34  13  35  13  36  13  37  13
M  ISO  3  38  13  41  15  44  16
M  END
>  <DihAtoms>  (1) 
19,20,38,39

>  <DihDeg>  (1) 
14.192179780591209

$$$$
