
 OpenBabel03252509043D

 46 48  0  0  1  0  0  0  0  0999 V2000
   47.0550   34.3500   43.2370 N   0  0  0  0  0  0  0  0  0  0  0  0
   46.7070   34.8730   41.9760 C   0  0  0  0  0  0  0  0  0  0  0  0
   45.2700   34.6300   41.5640 C   0  0  0  0  0  0  0  0  0  0  0  0
   44.2970   34.6910   42.7170 C   0  0  0  0  0  0  0  0  0  0  0  0
   44.9810   35.0100   44.0270 C   0  0  0  0  0  0  0  0  0  0  0  0
   46.1040   33.9110   44.1310 C   0  0  2  0  0  0  0  0  0  0  0  0
   47.3380   34.5890   41.1350 H   0  0  0  0  0  0  0  0  0  0  0  0
   46.8000   35.9970   42.0490 H   0  0  0  0  0  0  0  0  0  0  0  0
   44.9890   35.2850   40.7270 H   0  0  0  0  0  0  0  0  0  0  0  0
   45.2410   33.5870   41.1690 H   0  0  0  0  0  0  0  0  0  0  0  0
   43.6890   33.8000   42.8550 H   0  0  0  0  0  0  0  0  0  0  0  0
   43.6180   35.5520   42.5120 H   0  0  0  0  0  0  0  0  0  0  0  0
   45.4590   35.9960   43.9900 H   0  0  0  0  0  0  0  0  0  0  0  0
   44.2610   34.8650   44.8400 H   0  0  0  0  0  0  0  0  0  0  0  0
   45.5720   32.9740   43.9120 H   0  0  0  0  0  0  0  0  0  0  0  0
   48.3690   33.7550   43.2890 C   0  0  0  0  0  0  0  0  0  0  0  0
   48.7660   33.8260   44.3010 H   0  0  0  0  0  0  0  0  0  0  0  0
   49.0340   34.3610   42.6300 H   0  0  0  0  0  0  0  0  0  0  0  0
   48.2770   32.3460   42.8330 C   0  0  0  0  0  0  0  0  0  0  0  0
   48.4360   31.6460   43.6620 H   0  0  0  0  0  0  0  0  0  0  0  0
   47.2650   32.1110   42.4120 H   0  0  0  0  0  0  0  0  0  0  0  0
   51.5470   31.8960   41.0480 C   0  0  0  0  0  0  0  0  0  0  0  0
   50.5980   32.1230   42.0490 C   0  0  0  0  0  0  0  0  0  0  0  0
   49.2700   32.1020   41.7540 C   0  0  0  0  0  0  0  0  0  0  0  0
   48.9190   31.8590   40.4840 N   0  0  0  0  0  0  0  0  0  0  0  0
   49.8230   31.6390   39.5120 C   0  0  0  0  0  0  0  0  0  0  0  0
   51.1380   31.6540   39.7740 N   0  0  0  0  0  0  0  0  0  0  0  0
   52.6000   31.9000   41.2210 H   0  0  0  0  0  0  0  0  0  0  0  0
   50.9990   32.3080   43.0390 H   0  0  0  0  0  0  0  0  0  0  0  0
   49.3760   31.4620   38.5540 H   0  0  0  0  0  0  0  0  0  0  0  0
   46.5050   34.0360   45.4470 O   0  0  0  0  0  0  0  0  0  0  0  0
   45.8280   31.4690   45.4610 O   0  0  0  0  0  0  0  0  0  0  0  0
   46.2430   32.6580   46.3560 P   0  0  2  0  0  0  0  0  0  0  0  0
   44.8510   32.9620   47.3070 O   0  0  0  0  0  0  0  0  0  0  0  0
   45.0660   32.9090   48.2700 H   0  0  0  0  0  0  0  0  0  0  0  0
   47.5010   32.2620   47.3610 O   0  0  0  0  0  0  0  0  0  0  0  0
   47.6780   30.8890   47.3650 C   0  0  0  0  0  0  0  0  0  0  0  0
   46.7360   30.3530   47.5320 H   0  0  0  0  0  0  0  0  0  0  0  0
   48.0810   30.5500   46.3730 H   0  0  0  0  0  0  0  0  0  0  0  0
   48.6530   30.4600   48.4320 C   0  0  0  0  0  0  0  0  0  0  0  0
   49.0940   31.4130   49.4350 C   0  0  0  0  0  0  0  0  0  0  0  0
   48.7590   32.4420   49.4660 H   0  0  0  0  0  0  0  0  0  0  0  0
   50.2250   30.3740   50.4350 S   0  0  0  0  0  0  0  0  0  0  0  0
   49.9200   28.8620   49.3570 C   0  0  0  0  0  0  0  0  0  0  0  0
   50.3520   27.8700   49.4690 H   0  0  0  0  0  0  0  0  0  0  0  0
   49.1430   29.2390   48.5170 N   0  0  0  0  0  0  0  0  0  0  0  0
  1 16  1  0  0  0  0
  1  6  1  0  0  0  0
  2  8  1  0  0  0  0
  2  1  1  0  0  0  0
  3  2  1  0  0  0  0
  3  4  1  0  0  0  0
  4 11  1  0  0  0  0
  4  5  1  0  0  0  0
  5  6  1  0  0  0  0
  5 14  1  0  0  0  0
  6 15  1  6  0  0  0
  6 31  1  0  0  0  0
  7  2  1  0  0  0  0
  9  3  1  0  0  0  0
 10  3  1  0  0  0  0
 12  4  1  0  0  0  0
 13  5  1  0  0  0  0
 16 17  1  0  0  0  0
 18 16  1  0  0  0  0
 19 16  1  0  0  0  0
 19 20  1  0  0  0  0
 21 19  1  0  0  0  0
 22 28  1  0  0  0  0
 22 23  1  0  0  0  0
 23 29  1  0  0  0  0
 24 23  2  0  0  0  0
 24 19  1  0  0  0  0
 25 24  1  0  0  0  0
 26 27  1  0  0  0  0
 26 25  2  0  0  0  0
 27 22  2  0  0  0  0
 30 26  1  0  0  0  0
 31 33  1  0  0  0  0
 33 32  2  6  0  0  0
 33 34  1  0  0  0  0
 33 36  1  0  0  0  0
 34 35  1  0  0  0  0
 36 37  1  0  0  0  0
 37 38  1  0  0  0  0
 37 40  1  0  0  0  0
 39 37  1  0  0  0  0
 40 46  1  0  0  0  0
 40 41  2  0  0  0  0
 41 42  1  0  0  0  0
 41 43  1  0  0  0  0
 44 45  1  0  0  0  0
 44 43  1  0  0  0  0
 46 44  2  0  0  0  0
M  END
>  <minimizedAffinity>
-4.68920469

>  <minimizedRMSD>
2.84045458

$$$$
