
 OpenBabel03242516363D

 42 45  0  0  1  0  0  0  0  0999 V2000
   37.6160   32.3170   40.4180 C   0  0  2  0  0  0  0  0  0  0  0  0
   38.6980   31.8890   39.3900 C   0  0  1  0  0  0  0  0  0  0  0  0
   37.9080   31.7410   38.2900 O   0  0  0  0  0  0  0  0  0  0  0  0
   36.8570   30.9140   38.7340 C   0  0  0  0  0  0  0  0  0  0  0  0
   36.7650   31.0760   40.2680 C   0  0  1  0  0  0  0  0  0  0  0  0
   38.0430   32.4590   41.4120 H   0  0  0  0  0  0  0  0  0  0  0  0
   39.0690   30.8910   39.7310 H   0  0  0  0  0  0  0  0  0  0  0  0
   37.0110   29.8620   38.4520 H   0  0  0  0  0  0  0  0  0  0  0  0
   35.9160   31.2770   38.2970 H   0  0  0  0  0  0  0  0  0  0  0  0
   35.7380   31.2560   40.6190 H   0  0  0  0  0  0  0  0  0  0  0  0
   41.6700   34.0760   38.4740 C   0  0  0  0  0  0  0  0  0  0  0  0
   40.8110   32.9820   38.4050 C   0  0  0  0  0  0  0  0  0  0  0  0
   39.7500   32.9050   39.2750 C   0  0  0  0  0  0  0  0  0  0  0  0
   39.6050   33.9340   40.1720 N   0  0  0  0  0  0  0  0  0  0  0  0
   40.4430   34.9810   40.2240 C   0  0  0  0  0  0  0  0  0  0  0  0
   41.4800   35.0510   39.3700 N   0  0  0  0  0  0  0  0  0  0  0  0
   42.4710   34.0250   37.7350 H   0  0  0  0  0  0  0  0  0  0  0  0
   40.8680   32.1470   37.7290 H   0  0  0  0  0  0  0  0  0  0  0  0
   40.2940   35.7740   40.9490 H   0  0  0  0  0  0  0  0  0  0  0  0
   36.8730   33.3600   39.9320 O   0  0  0  0  0  0  0  0  0  0  0  0
   36.5830   34.0010   40.6190 H   0  0  0  0  0  0  0  0  0  0  0  0
   37.3810   29.9960   40.8290 O   0  0  0  0  0  0  0  0  0  0  0  0
   36.7310   28.0880   42.0520 C   0  0  1  0  0  0  0  0  0  0  0  0
   36.9730   29.6810   42.1260 C   0  0  1  0  0  0  0  0  0  0  0  0
   38.0440   29.6690   42.9410 O   0  0  0  0  0  0  0  0  0  0  0  0
   38.9340   28.8770   42.1680 C   0  0  0  0  0  0  0  0  0  0  0  0
   38.1470   27.5980   42.0280 C   0  0  1  0  0  0  0  0  0  0  0  0
   36.1110   27.8700   41.2030 H   0  0  0  0  0  0  0  0  0  0  0  0
   35.9700   30.0010   42.3940 H   0  0  0  0  0  0  0  0  0  0  0  0
   39.1620   29.3800   41.2260 H   0  0  0  0  0  0  0  0  0  0  0  0
   39.8390   28.7150   42.7970 H   0  0  0  0  0  0  0  0  0  0  0  0
   38.3390   27.1520   41.0340 H   0  0  0  0  0  0  0  0  0  0  0  0
   36.1960   27.7620   43.3050 O   0  0  0  0  0  0  0  0  0  0  0  0
   36.5660   28.3840   43.9840 H   0  0  0  0  0  0  0  0  0  0  0  0
   38.4330   26.7680   43.0920 O   0  0  0  0  0  0  0  0  0  0  0  0
   39.7910   26.4390   43.2910 C   0  0  0  0  0  0  0  0  0  0  0  0
   40.2210   25.5360   42.3390 C   0  0  0  0  0  0  0  0  0  0  0  0
   39.8180   24.9950   41.4680 H   0  0  0  0  0  0  0  0  0  0  0  0
   41.9930   25.2650   42.7960 S   0  0  0  0  0  0  0  0  0  0  0  0
   41.8070   26.4770   44.2540 C   0  0  0  0  0  0  0  0  0  0  0  0
   42.4790   26.9040   45.1020 H   0  0  0  0  0  0  0  0  0  0  0  0
   40.7280   26.7810   44.1520 N   0  0  0  0  0  0  0  0  0  0  0  0
  1  6  1  1  0  0  0
  2  7  1  1  0  0  0
  2  1  1  0  0  0  0
  3  4  1  0  0  0  0
  3  2  1  0  0  0  0
  4  5  1  0  0  0  0
  5  1  1  0  0  0  0
  5 10  1  1  0  0  0
  5 22  1  0  0  0  0
  8  4  1  0  0  0  0
  9  4  1  0  0  0  0
 11 16  1  0  0  0  0
 12 11  2  0  0  0  0
 12 13  1  0  0  0  0
 13  2  1  0  0  0  0
 13 14  2  0  0  0  0
 14 15  1  0  0  0  0
 15 19  1  0  0  0  0
 16 15  2  0  0  0  0
 17 11  1  0  0  0  0
 18 12  1  0  0  0  0
 20  1  1  0  0  0  0
 20 21  1  0  0  0  0
 22 24  1  0  0  0  0
 23 28  1  6  0  0  0
 23 24  1  0  0  0  0
 23 33  1  0  0  0  0
 24 29  1  1  0  0  0
 24 25  1  0  0  0  0
 26 31  1  0  0  0  0
 26 25  1  0  0  0  0
 27 32  1  6  0  0  0
 27 23  1  0  0  0  0
 27 26  1  0  0  0  0
 27 35  1  0  0  0  0
 30 26  1  0  0  0  0
 33 34  1  0  0  0  0
 35 36  1  0  0  0  0
 36 42  1  0  0  0  0
 37 39  1  0  0  0  0
 37 36  2  0  0  0  0
 38 37  1  0  0  0  0
 39 40  1  0  0  0  0
 40 41  1  0  0  0  0
 42 40  2  0  0  0  0
M  END
>  <minimizedAffinity>
-6.23800135

$$$$

 OpenBabel03242516363D

 42 45  0  0  1  0  0  0  0  0999 V2000
   38.2910   26.1530   41.6870 C   0  0  2  0  0  0  0  0  0  0  0  0
   38.9140   27.1270   42.7230 C   0  0  1  0  0  0  0  0  0  0  0  0
   37.9520   27.0690   43.6860 O   0  0  0  0  0  0  0  0  0  0  0  0
   36.7530   27.3090   42.9830 C   0  0  0  0  0  0  0  0  0  0  0  0
   37.0030   26.9260   41.5070 C   0  0  1  0  0  0  0  0  0  0  0  0
   38.9050   26.0770   40.7890 H   0  0  0  0  0  0  0  0  0  0  0  0
   38.9100   28.1360   42.2390 H   0  0  0  0  0  0  0  0  0  0  0  0
   36.4230   28.3540   43.0740 H   0  0  0  0  0  0  0  0  0  0  0  0
   35.9750   26.6420   43.3800 H   0  0  0  0  0  0  0  0  0  0  0  0
   36.2120   26.2850   41.0910 H   0  0  0  0  0  0  0  0  0  0  0  0
   42.2450   26.4460   44.4250 C   0  0  0  0  0  0  0  0  0  0  0  0
   41.0040   27.0480   44.2240 C   0  0  0  0  0  0  0  0  0  0  0  0
   40.2460   26.6760   43.1390 C   0  0  0  0  0  0  0  0  0  0  0  0
   40.7730   25.7160   42.3110 N   0  0  0  0  0  0  0  0  0  0  0  0
   41.9710   25.1470   42.5210 C   0  0  0  0  0  0  0  0  0  0  0  0
   42.7080   25.5160   43.5840 N   0  0  0  0  0  0  0  0  0  0  0  0
   42.7520   26.8230   45.3150 H   0  0  0  0  0  0  0  0  0  0  0  0
   40.5360   27.8010   44.8320 H   0  0  0  0  0  0  0  0  0  0  0  0
   42.3510   24.3930   41.8420 H   0  0  0  0  0  0  0  0  0  0  0  0
   37.9530   24.9660   42.2820 O   0  0  0  0  0  0  0  0  0  0  0  0
   38.0680   24.1800   41.7040 H   0  0  0  0  0  0  0  0  0  0  0  0
   37.2260   28.0820   40.8180 O   0  0  0  0  0  0  0  0  0  0  0  0
   36.6920   30.3030   41.4040 C   0  0  1  0  0  0  0  0  0  0  0  0
   36.1340   28.9470   40.7320 C   0  0  1  0  0  0  0  0  0  0  0  0
   36.0200   29.3980   39.4690 O   0  0  0  0  0  0  0  0  0  0  0  0
   37.3650   29.7810   39.2210 C   0  0  0  0  0  0  0  0  0  0  0  0
   37.5890   30.8000   40.3110 C   0  0  1  0  0  0  0  0  0  0  0  0
   37.1400   30.0630   42.3490 H   0  0  0  0  0  0  0  0  0  0  0  0
   35.3130   28.7370   41.4120 H   0  0  0  0  0  0  0  0  0  0  0  0
   38.0190   28.9070   39.2700 H   0  0  0  0  0  0  0  0  0  0  0  0
   37.3760   30.2680   38.2200 H   0  0  0  0  0  0  0  0  0  0  0  0
   38.6340   30.7360   40.6690 H   0  0  0  0  0  0  0  0  0  0  0  0
   35.5770   31.1500   41.4480 O   0  0  0  0  0  0  0  0  0  0  0  0
   34.9840   30.9410   40.6810 H   0  0  0  0  0  0  0  0  0  0  0  0
   37.2160   32.0460   39.8530 O   0  0  0  0  0  0  0  0  0  0  0  0
   38.1600   33.0850   40.0060 C   0  0  0  0  0  0  0  0  0  0  0  0
   39.4310   32.5700   40.1730 C   0  0  0  0  0  0  0  0  0  0  0  0
   39.9280   31.5890   40.2220 H   0  0  0  0  0  0  0  0  0  0  0  0
   40.4720   34.0900   40.3480 S   0  0  0  0  0  0  0  0  0  0  0  0
   38.9220   35.1800   40.1540 C   0  0  0  0  0  0  0  0  0  0  0  0
   38.6720   36.3150   40.1420 H   0  0  0  0  0  0  0  0  0  0  0  0
   38.1190   34.4020   40.0270 N   0  0  0  0  0  0  0  0  0  0  0  0
  1  6  1  6  0  0  0
  1 20  1  0  0  0  0
  1  2  1  0  0  0  0
  2  7  1  6  0  0  0
  2 13  1  0  0  0  0
  2  3  1  0  0  0  0
  4  8  1  0  0  0  0
  4  9  1  0  0  0  0
  4  3  1  0  0  0  0
  5 10  1  6  0  0  0
  5  1  1  0  0  0  0
  5  4  1  0  0  0  0
 11 17  1  0  0  0  0
 12 11  1  0  0  0  0
 12 18  1  0  0  0  0
 13 12  2  0  0  0  0
 14 15  2  0  0  0  0
 14 13  1  0  0  0  0
 15 16  1  0  0  0  0
 16 11  2  0  0  0  0
 19 15  1  0  0  0  0
 21 20  1  0  0  0  0
 22  5  1  0  0  0  0
 23 33  1  0  0  0  0
 23 28  1  1  0  0  0
 24 22  1  0  0  0  0
 24 23  1  0  0  0  0
 24 29  1  1  0  0  0
 25 24  1  0  0  0  0
 26 30  1  0  0  0  0
 26 25  1  0  0  0  0
 26 27  1  0  0  0  0
 27 32  1  1  0  0  0
 27 23  1  0  0  0  0
 31 26  1  0  0  0  0
 34 33  1  0  0  0  0
 35 36  1  0  0  0  0
 35 27  1  0  0  0  0
 36 42  1  0  0  0  0
 36 37  2  0  0  0  0
 37 38  1  0  0  0  0
 37 39  1  0  0  0  0
 40 39  1  0  0  0  0
 41 40  1  0  0  0  0
 42 40  2  0  0  0  0
M  END
>  <minimizedAffinity>
-6.08709908

$$$$

 OpenBabel03242516363D

 42 45  0  0  1  0  0  0  0  0999 V2000
   38.1800   32.5860   40.6210 C   0  0  2  0  0  0  0  0  0  0  0  0
   39.0390   32.1570   39.4010 C   0  0  1  0  0  0  0  0  0  0  0  0
   38.0520   32.0300   38.4710 O   0  0  0  0  0  0  0  0  0  0  0  0
   37.0940   31.2100   39.1010 C   0  0  0  0  0  0  0  0  0  0  0  0
   37.2990   31.3560   40.6260 C   0  0  1  0  0  0  0  0  0  0  0  0
   38.7900   32.7120   41.5160 H   0  0  0  0  0  0  0  0  0  0  0  0
   39.4550   31.1500   39.6560 H   0  0  0  0  0  0  0  0  0  0  0  0
   37.1770   30.1600   38.7860 H   0  0  0  0  0  0  0  0  0  0  0  0
   36.0920   31.5890   38.8550 H   0  0  0  0  0  0  0  0  0  0  0  0
   36.3610   31.5450   41.1680 H   0  0  0  0  0  0  0  0  0  0  0  0
   41.3990   35.1340   39.2530 C   0  0  0  0  0  0  0  0  0  0  0  0
   40.3400   34.3570   39.7150 C   0  0  0  0  0  0  0  0  0  0  0  0
   40.0640   33.1610   39.0960 C   0  0  0  0  0  0  0  0  0  0  0  0
   40.8690   32.8060   38.0420 N   0  0  0  0  0  0  0  0  0  0  0  0
   41.8860   33.5680   37.6110 C   0  0  0  0  0  0  0  0  0  0  0  0
   42.1510   34.7370   38.2200 N   0  0  0  0  0  0  0  0  0  0  0  0
   41.5190   36.0580   39.8220 H   0  0  0  0  0  0  0  0  0  0  0  0
   39.6750   34.5760   40.5320 H   0  0  0  0  0  0  0  0  0  0  0  0
   42.4980   33.2510   36.7730 H   0  0  0  0  0  0  0  0  0  0  0  0
   37.3710   33.6430   40.2940 O   0  0  0  0  0  0  0  0  0  0  0  0
   37.2270   34.2800   41.0290 H   0  0  0  0  0  0  0  0  0  0  0  0
   37.9970   30.2640   41.0500 O   0  0  0  0  0  0  0  0  0  0  0  0
   36.6650   28.4290   41.6990 C   0  0  1  0  0  0  0  0  0  0  0  0
   37.5340   29.6800   42.2310 C   0  0  1  0  0  0  0  0  0  0  0  0
   38.5320   28.9820   42.8040 O   0  0  0  0  0  0  0  0  0  0  0  0
   39.0010   28.2520   41.6800 C   0  0  0  0  0  0  0  0  0  0  0  0
   37.7590   27.4950   41.2800 C   0  0  1  0  0  0  0  0  0  0  0  0
   35.9850   28.7750   40.9440 H   0  0  0  0  0  0  0  0  0  0  0  0
   36.7550   30.2280   42.7520 H   0  0  0  0  0  0  0  0  0  0  0  0
   39.3850   28.9360   40.9210 H   0  0  0  0  0  0  0  0  0  0  0  0
   39.7810   27.5530   42.0610 H   0  0  0  0  0  0  0  0  0  0  0  0
   37.7240   27.3980   40.1780 H   0  0  0  0  0  0  0  0  0  0  0  0
   36.0820   27.8980   42.8560 O   0  0  0  0  0  0  0  0  0  0  0  0
   36.6920   28.0520   43.6240 H   0  0  0  0  0  0  0  0  0  0  0  0
   37.7150   26.2970   41.9610 O   0  0  0  0  0  0  0  0  0  0  0  0
   38.0540   25.1390   41.2280 C   0  0  0  0  0  0  0  0  0  0  0  0
   37.1530   24.1220   41.4750 C   0  0  0  0  0  0  0  0  0  0  0  0
   36.2460   23.9460   42.0740 H   0  0  0  0  0  0  0  0  0  0  0  0
   37.7910   22.7390   40.4240 S   0  0  0  0  0  0  0  0  0  0  0  0
   39.2200   23.8480   39.8260 C   0  0  0  0  0  0  0  0  0  0  0  0
   40.1320   23.7550   39.1100 H   0  0  0  0  0  0  0  0  0  0  0  0
   39.0070   24.8030   40.3810 N   0  0  0  0  0  0  0  0  0  0  0  0
  1  5  1  0  0  0  0
  1  6  1  1  0  0  0
  2  7  1  1  0  0  0
  2  1  1  0  0  0  0
  3  4  1  0  0  0  0
  3  2  1  0  0  0  0
  4  5  1  0  0  0  0
  5 22  1  0  0  0  0
  5 10  1  1  0  0  0
  8  4  1  0  0  0  0
  9  4  1  0  0  0  0
 11 12  1  0  0  0  0
 11 17  1  0  0  0  0
 12 18  1  0  0  0  0
 13  2  1  0  0  0  0
 13 12  2  0  0  0  0
 14 13  1  0  0  0  0
 15 14  2  0  0  0  0
 15 16  1  0  0  0  0
 16 11  2  0  0  0  0
 19 15  1  0  0  0  0
 20  1  1  0  0  0  0
 20 21  1  0  0  0  0
 22 24  1  0  0  0  0
 23 28  1  6  0  0  0
 23 24  1  0  0  0  0
 23 33  1  0  0  0  0
 24 29  1  1  0  0  0
 24 25  1  0  0  0  0
 26 31  1  0  0  0  0
 26 25  1  0  0  0  0
 27 32  1  6  0  0  0
 27 26  1  0  0  0  0
 27 23  1  0  0  0  0
 27 35  1  0  0  0  0
 30 26  1  0  0  0  0
 33 34  1  0  0  0  0
 36 37  2  0  0  0  0
 36 35  1  0  0  0  0
 37 38  1  0  0  0  0
 39 37  1  0  0  0  0
 40 42  2  0  0  0  0
 40 39  1  0  0  0  0
 41 40  1  0  0  0  0
 42 36  1  0  0  0  0
M  END
>  <minimizedAffinity>
-5.94674635

$$$$

 OpenBabel03242516363D

 42 45  0  0  1  0  0  0  0  0999 V2000
   36.9140   28.3990   41.7000 C   0  0  2  0  0  0  0  0  0  0  0  0
   38.3190   27.7400   41.7220 C   0  0  1  0  0  0  0  0  0  0  0  0
   38.7520   28.1840   42.9350 O   0  0  0  0  0  0  0  0  0  0  0  0
   38.5220   29.5740   42.8900 C   0  0  0  0  0  0  0  0  0  0  0  0
   37.4110   29.8200   41.8440 C   0  0  1  0  0  0  0  0  0  0  0  0
   36.3900   28.1930   40.7660 H   0  0  0  0  0  0  0  0  0  0  0  0
   38.9040   28.2320   40.9050 H   0  0  0  0  0  0  0  0  0  0  0  0
   39.4350   30.1360   42.6430 H   0  0  0  0  0  0  0  0  0  0  0  0
   38.1440   29.8990   43.8700 H   0  0  0  0  0  0  0  0  0  0  0  0
   36.6150   30.4820   42.2130 H   0  0  0  0  0  0  0  0  0  0  0  0
   38.7650   23.9640   41.7630 C   0  0  0  0  0  0  0  0  0  0  0  0
   39.0990   25.2990   41.9790 C   0  0  0  0  0  0  0  0  0  0  0  0
   38.2230   26.2820   41.5860 C   0  0  0  0  0  0  0  0  0  0  0  0
   37.0530   25.8740   40.9950 N   0  0  0  0  0  0  0  0  0  0  0  0
   36.7480   24.5810   40.7950 C   0  0  0  0  0  0  0  0  0  0  0  0
   37.6100   23.6240   41.1820 N   0  0  0  0  0  0  0  0  0  0  0  0
   39.5370   23.2780   42.1170 H   0  0  0  0  0  0  0  0  0  0  0  0
   39.9930   25.6850   42.4350 H   0  0  0  0  0  0  0  0  0  0  0  0
   35.8130   24.3000   40.3230 H   0  0  0  0  0  0  0  0  0  0  0  0
   36.2260   28.1090   42.8490 O   0  0  0  0  0  0  0  0  0  0  0  0
   35.2580   28.0020   42.7200 H   0  0  0  0  0  0  0  0  0  0  0  0
   38.0180   30.2390   40.6960 O   0  0  0  0  0  0  0  0  0  0  0  0
   38.2460   32.5830   40.7980 C   0  0  1  0  0  0  0  0  0  0  0  0
   37.4540   31.3660   40.0970 C   0  0  1  0  0  0  0  0  0  0  0  0
   37.9530   31.5100   38.8560 O   0  0  0  0  0  0  0  0  0  0  0  0
   39.3380   31.3570   39.1270 C   0  0  0  0  0  0  0  0  0  0  0  0
   39.5720   32.4780   40.1090 C   0  0  1  0  0  0  0  0  0  0  0  0
   38.2230   32.4460   41.8630 H   0  0  0  0  0  0  0  0  0  0  0  0
   36.4420   31.6080   40.4120 H   0  0  0  0  0  0  0  0  0  0  0  0
   39.5370   30.3570   39.5180 H   0  0  0  0  0  0  0  0  0  0  0  0
   39.8710   31.5560   38.1690 H   0  0  0  0  0  0  0  0  0  0  0  0
   40.3240   32.1630   40.8570 H   0  0  0  0  0  0  0  0  0  0  0  0
   37.6120   33.7330   40.3120 O   0  0  0  0  0  0  0  0  0  0  0  0
   37.2740   33.5520   39.3970 H   0  0  0  0  0  0  0  0  0  0  0  0
   39.8990   33.6270   39.4200 O   0  0  0  0  0  0  0  0  0  0  0  0
   41.2270   33.7310   38.9540 C   0  0  0  0  0  0  0  0  0  0  0  0
   42.1190   33.7050   40.0080 C   0  0  0  0  0  0  0  0  0  0  0  0
   42.1020   33.6270   41.1060 H   0  0  0  0  0  0  0  0  0  0  0  0
   43.7590   33.8500   39.1650 S   0  0  0  0  0  0  0  0  0  0  0  0
   42.8880   33.9220   37.4720 C   0  0  0  0  0  0  0  0  0  0  0  0
   43.1980   34.0160   36.3550 H   0  0  0  0  0  0  0  0  0  0  0  0
   41.8080   33.8440   37.7760 N   0  0  0  0  0  0  0  0  0  0  0  0
  1  6  1  6  0  0  0
  1  2  1  0  0  0  0
  1  5  1  0  0  0  0
  1 20  1  0  0  0  0
  2  7  1  6  0  0  0
  2  3  1  0  0  0  0
  4  3  1  0  0  0  0
  4  9  1  0  0  0  0
  5 10  1  1  0  0  0
  5  4  1  0  0  0  0
  8  4  1  0  0  0  0
 11 12  1  0  0  0  0
 11 17  1  0  0  0  0
 12 18  1  0  0  0  0
 13  2  1  0  0  0  0
 13 12  2  0  0  0  0
 14 13  1  0  0  0  0
 15 14  2  0  0  0  0
 15 16  1  0  0  0  0
 16 11  2  0  0  0  0
 19 15  1  0  0  0  0
 21 20  1  0  0  0  0
 22  5  1  0  0  0  0
 23 28  1  1  0  0  0
 24 29  1  1  0  0  0
 24 22  1  0  0  0  0
 24 23  1  0  0  0  0
 25 26  1  0  0  0  0
 25 24  1  0  0  0  0
 26 30  1  0  0  0  0
 26 27  1  0  0  0  0
 27 23  1  0  0  0  0
 27 32  1  1  0  0  0
 31 26  1  0  0  0  0
 33 23  1  0  0  0  0
 34 33  1  0  0  0  0
 35 27  1  0  0  0  0
 36 35  1  0  0  0  0
 36 37  2  0  0  0  0
 37 38  1  0  0  0  0
 39 37  1  0  0  0  0
 40 42  2  0  0  0  0
 40 39  1  0  0  0  0
 41 40  1  0  0  0  0
 42 36  1  0  0  0  0
M  END
>  <minimizedAffinity>
-5.72181034

$$$$

 OpenBabel03242516363D

 42 45  0  0  1  0  0  0  0  0999 V2000
   36.6740   30.1560   41.4590 C   0  0  2  0  0  0  0  0  0  0  0  0
   37.5210   30.4160   40.1850 C   0  0  1  0  0  0  0  0  0  0  0  0
   36.5500   30.2690   39.2410 O   0  0  0  0  0  0  0  0  0  0  0  0
   35.9490   29.0350   39.5620 C   0  0  0  0  0  0  0  0  0  0  0  0
   36.2220   28.7680   41.0590 C   0  0  1  0  0  0  0  0  0  0  0  0
   37.2860   30.1910   42.3610 H   0  0  0  0  0  0  0  0  0  0  0  0
   38.2490   29.5690   40.1200 H   0  0  0  0  0  0  0  0  0  0  0  0
   36.3280   28.2160   38.9340 H   0  0  0  0  0  0  0  0  0  0  0  0
   34.8620   29.1290   39.4260 H   0  0  0  0  0  0  0  0  0  0  0  0
   35.3190   28.4720   41.6130 H   0  0  0  0  0  0  0  0  0  0  0  0
   39.8150   33.4300   40.5230 C   0  0  0  0  0  0  0  0  0  0  0  0
   39.4350   32.0910   40.5890 C   0  0  0  0  0  0  0  0  0  0  0  0
   38.1550   31.7390   40.2330 C   0  0  0  0  0  0  0  0  0  0  0  0
   37.3200   32.7500   39.8270 N   0  0  0  0  0  0  0  0  0  0  0  0
   37.7050   34.0350   39.7700 C   0  0  0  0  0  0  0  0  0  0  0  0
   38.9580   34.3740   40.1200 N   0  0  0  0  0  0  0  0  0  0  0  0
   40.8510   33.5860   40.8300 H   0  0  0  0  0  0  0  0  0  0  0  0
   40.0370   31.2550   40.8960 H   0  0  0  0  0  0  0  0  0  0  0  0
   37.0140   34.8050   39.4440 H   0  0  0  0  0  0  0  0  0  0  0  0
   35.5530   30.9430   41.4640 O   0  0  0  0  0  0  0  0  0  0  0  0
   35.2790   31.2450   42.3590 H   0  0  0  0  0  0  0  0  0  0  0  0
   37.2560   27.8830   41.1330 O   0  0  0  0  0  0  0  0  0  0  0  0
   37.8070   25.6020   41.3650 C   0  0  1  0  0  0  0  0  0  0  0  0
   37.1090   26.8680   42.0800 C   0  0  1  0  0  0  0  0  0  0  0  0
   38.0090   27.0440   43.0660 O   0  0  0  0  0  0  0  0  0  0  0  0
   39.1830   27.2550   42.2950 C   0  0  0  0  0  0  0  0  0  0  0  0
   39.2520   25.9710   41.5050 C   0  0  1  0  0  0  0  0  0  0  0  0
   37.4100   25.5010   40.3730 H   0  0  0  0  0  0  0  0  0  0  0  0
   36.1030   26.4750   42.1950 H   0  0  0  0  0  0  0  0  0  0  0  0
   39.0780   28.1590   41.6920 H   0  0  0  0  0  0  0  0  0  0  0  0
   40.0280   27.3170   43.0180 H   0  0  0  0  0  0  0  0  0  0  0  0
   39.6530   26.1800   40.4950 H   0  0  0  0  0  0  0  0  0  0  0  0
   37.5610   24.5340   42.2380 O   0  0  0  0  0  0  0  0  0  0  0  0
   37.5230   24.8810   43.1670 H   0  0  0  0  0  0  0  0  0  0  0  0
   39.9670   25.0330   42.2210 O   0  0  0  0  0  0  0  0  0  0  0  0
   41.3510   25.2660   42.3630 C   0  0  0  0  0  0  0  0  0  0  0  0
   41.9530   25.4060   41.1280 C   0  0  0  0  0  0  0  0  0  0  0  0
   41.6740   25.3910   40.0630 H   0  0  0  0  0  0  0  0  0  0  0  0
   43.7280   25.6980   41.5630 S   0  0  0  0  0  0  0  0  0  0  0  0
   43.2990   25.5680   43.4150 C   0  0  0  0  0  0  0  0  0  0  0  0
   43.8640   25.6330   44.4290 H   0  0  0  0  0  0  0  0  0  0  0  0
   42.1910   25.3790   43.3730 N   0  0  0  0  0  0  0  0  0  0  0  0
  1 20  1  0  0  0  0
  1  6  1  1  0  0  0
  2  7  1  6  0  0  0
  2 13  1  0  0  0  0
  2  1  1  0  0  0  0
  3  4  1  0  0  0  0
  3  2  1  0  0  0  0
  4  5  1  0  0  0  0
  5 22  1  0  0  0  0
  5  1  1  0  0  0  0
  5 10  1  1  0  0  0
  8  4  1  0  0  0  0
  9  4  1  0  0  0  0
 11 12  1  0  0  0  0
 11 17  1  0  0  0  0
 12 18  1  0  0  0  0
 13 12  2  0  0  0  0
 14 13  1  0  0  0  0
 15 14  2  0  0  0  0
 15 16  1  0  0  0  0
 16 11  2  0  0  0  0
 19 15  1  0  0  0  0
 20 21  1  0  0  0  0
 22 24  1  0  0  0  0
 23 28  1  6  0  0  0
 23 27  1  0  0  0  0
 23 24  1  0  0  0  0
 23 33  1  0  0  0  0
 24 29  1  1  0  0  0
 24 25  1  0  0  0  0
 26 31  1  0  0  0  0
 26 25  1  0  0  0  0
 27 32  1  6  0  0  0
 27 35  1  0  0  0  0
 27 26  1  0  0  0  0
 30 26  1  0  0  0  0
 33 34  1  0  0  0  0
 35 36  1  0  0  0  0
 36 42  1  0  0  0  0
 37 39  1  0  0  0  0
 37 36  2  0  0  0  0
 38 37  1  0  0  0  0
 39 40  1  0  0  0  0
 40 41  1  0  0  0  0
 42 40  2  0  0  0  0
M  END
>  <minimizedAffinity>
-5.66219091

$$$$

 OpenBabel03242516363D

 42 45  0  0  1  0  0  0  0  0999 V2000
   36.9290   25.7530   41.6580 C   0  0  2  0  0  0  0  0  0  0  0  0
   38.3470   25.4820   41.0880 C   0  0  1  0  0  0  0  0  0  0  0  0
   39.0200   25.2900   42.2570 O   0  0  0  0  0  0  0  0  0  0  0  0
   38.6730   26.4110   43.0380 C   0  0  0  0  0  0  0  0  0  0  0  0
   37.3280   26.9460   42.4980 C   0  0  1  0  0  0  0  0  0  0  0  0
   36.2150   25.9750   40.8640 H   0  0  0  0  0  0  0  0  0  0  0  0
   38.6760   26.4390   40.6120 H   0  0  0  0  0  0  0  0  0  0  0  0
   39.4510   27.1880   43.0130 H   0  0  0  0  0  0  0  0  0  0  0  0
   38.5160   26.0810   44.0750 H   0  0  0  0  0  0  0  0  0  0  0  0
   36.5920   27.1340   43.2930 H   0  0  0  0  0  0  0  0  0  0  0  0
   38.4360   23.0710   38.1500 C   0  0  0  0  0  0  0  0  0  0  0  0
   38.4370   24.3020   38.8020 C   0  0  0  0  0  0  0  0  0  0  0  0
   38.3400   24.3370   40.1720 C   0  0  0  0  0  0  0  0  0  0  0  0
   38.2500   23.1300   40.8210 N   0  0  0  0  0  0  0  0  0  0  0  0
   38.2520   21.9520   40.1760 C   0  0  0  0  0  0  0  0  0  0  0  0
   38.3460   21.9250   38.8350 N   0  0  0  0  0  0  0  0  0  0  0  0
   38.5170   23.1720   37.0670 H   0  0  0  0  0  0  0  0  0  0  0  0
   38.5050   25.2780   38.3560 H   0  0  0  0  0  0  0  0  0  0  0  0
   38.1780   21.0210   40.7250 H   0  0  0  0  0  0  0  0  0  0  0  0
   36.5630   24.7650   42.5340 O   0  0  0  0  0  0  0  0  0  0  0  0
   35.6040   24.5500   42.5180 H   0  0  0  0  0  0  0  0  0  0  0  0
   37.6050   28.0230   41.7080 O   0  0  0  0  0  0  0  0  0  0  0  0
   36.8240   30.2460   41.6270 C   0  0  1  0  0  0  0  0  0  0  0  0
   36.4920   28.7180   41.2320 C   0  0  1  0  0  0  0  0  0  0  0  0
   36.5850   28.8470   39.8950 O   0  0  0  0  0  0  0  0  0  0  0  0
   37.9240   29.3070   39.7840 C   0  0  0  0  0  0  0  0  0  0  0  0
   37.8720   30.5710   40.6070 C   0  0  1  0  0  0  0  0  0  0  0  0
   37.1040   30.2840   42.6630 H   0  0  0  0  0  0  0  0  0  0  0  0
   35.5760   28.5830   41.7990 H   0  0  0  0  0  0  0  0  0  0  0  0
   38.6150   28.5470   40.1540 H   0  0  0  0  0  0  0  0  0  0  0  0
   38.0870   29.5460   38.7080 H   0  0  0  0  0  0  0  0  0  0  0  0
   38.8350   30.7080   41.1350 H   0  0  0  0  0  0  0  0  0  0  0  0
   35.6660   30.9520   41.2770 O   0  0  0  0  0  0  0  0  0  0  0  0
   35.2400   30.5060   40.4990 H   0  0  0  0  0  0  0  0  0  0  0  0
   37.5090   31.6270   39.7990 O   0  0  0  0  0  0  0  0  0  0  0  0
   38.2980   32.7940   39.8890 C   0  0  0  0  0  0  0  0  0  0  0  0
   39.6180   32.5150   39.5960 C   0  0  0  0  0  0  0  0  0  0  0  0
   40.2400   31.6520   39.3130 H   0  0  0  0  0  0  0  0  0  0  0  0
   40.4380   34.1640   39.7750 S   0  0  0  0  0  0  0  0  0  0  0  0
   38.7650   34.9520   40.2320 C   0  0  0  0  0  0  0  0  0  0  0  0
   38.3660   36.0070   40.5140 H   0  0  0  0  0  0  0  0  0  0  0  0
   38.0800   34.0610   40.1800 N   0  0  0  0  0  0  0  0  0  0  0  0
  1  6  1  6  0  0  0
  1  5  1  0  0  0  0
  1 20  1  0  0  0  0
  2  7  1  6  0  0  0
  2  1  1  0  0  0  0
  2  3  1  0  0  0  0
  3  4  1  0  0  0  0
  4  9  1  0  0  0  0
  5  4  1  0  0  0  0
  5 10  1  1  0  0  0
  8  4  1  0  0  0  0
 11 12  2  0  0  0  0
 11 16  1  0  0  0  0
 12 13  1  0  0  0  0
 13 14  2  0  0  0  0
 13  2  1  0  0  0  0
 15 19  1  0  0  0  0
 15 14  1  0  0  0  0
 16 15  2  0  0  0  0
 17 11  1  0  0  0  0
 18 12  1  0  0  0  0
 21 20  1  0  0  0  0
 22  5  1  0  0  0  0
 23 28  1  1  0  0  0
 24 23  1  0  0  0  0
 24 22  1  0  0  0  0
 24 29  1  1  0  0  0
 25 24  1  0  0  0  0
 26 25  1  0  0  0  0
 26 30  1  0  0  0  0
 26 27  1  0  0  0  0
 27 32  1  1  0  0  0
 27 23  1  0  0  0  0
 31 26  1  0  0  0  0
 33 23  1  0  0  0  0
 34 33  1  0  0  0  0
 35 36  1  0  0  0  0
 35 27  1  0  0  0  0
 36 42  1  0  0  0  0
 37 39  1  0  0  0  0
 37 36  2  0  0  0  0
 38 37  1  0  0  0  0
 39 40  1  0  0  0  0
 40 41  1  0  0  0  0
 42 40  2  0  0  0  0
M  END
>  <minimizedAffinity>
-5.52457285

$$$$

 OpenBabel03242516363D

 42 45  0  0  1  0  0  0  0  0999 V2000
   37.0420   27.8750   39.4480 C   0  0  2  0  0  0  0  0  0  0  0  0
   37.2820   28.0180   40.9750 C   0  0  1  0  0  0  0  0  0  0  0  0
   35.9990   28.2330   41.3800 O   0  0  0  0  0  0  0  0  0  0  0  0
   35.5470   29.2720   40.5420 C   0  0  0  0  0  0  0  0  0  0  0  0
   36.4160   29.2400   39.2650 C   0  0  1  0  0  0  0  0  0  0  0  0
   37.9780   27.7280   38.9080 H   0  0  0  0  0  0  0  0  0  0  0  0
   37.8840   28.9520   41.1070 H   0  0  0  0  0  0  0  0  0  0  0  0
   35.5980   30.2530   41.0360 H   0  0  0  0  0  0  0  0  0  0  0  0
   34.5070   29.0600   40.2510 H   0  0  0  0  0  0  0  0  0  0  0  0
   35.8210   29.2810   38.3410 H   0  0  0  0  0  0  0  0  0  0  0  0
   39.5700   25.3910   42.4990 C   0  0  0  0  0  0  0  0  0  0  0  0
   39.2020   26.6350   41.9900 C   0  0  0  0  0  0  0  0  0  0  0  0
   37.9210   26.8180   41.5260 C   0  0  0  0  0  0  0  0  0  0  0  0
   37.0730   25.7410   41.5980 N   0  0  0  0  0  0  0  0  0  0  0  0
   37.4450   24.5500   42.0930 C   0  0  0  0  0  0  0  0  0  0  0  0
   38.7000   24.3770   42.5450 N   0  0  0  0  0  0  0  0  0  0  0  0
   40.6080   25.3690   42.8350 H   0  0  0  0  0  0  0  0  0  0  0  0
   39.8150   27.5150   41.9060 H   0  0  0  0  0  0  0  0  0  0  0  0
   36.7450   23.7240   42.1310 H   0  0  0  0  0  0  0  0  0  0  0  0
   36.0550   26.9580   39.1980 O   0  0  0  0  0  0  0  0  0  0  0  0
   36.1940   26.4330   38.3790 H   0  0  0  0  0  0  0  0  0  0  0  0
   37.3540   30.2220   39.3860 O   0  0  0  0  0  0  0  0  0  0  0  0
   37.5480   32.4130   40.2370 C   0  0  1  0  0  0  0  0  0  0  0  0
   36.9210   31.5080   39.0580 C   0  0  1  0  0  0  0  0  0  0  0  0
   37.6640   31.9840   38.0420 O   0  0  0  0  0  0  0  0  0  0  0  0
   38.9650   31.6770   38.5220 C   0  0  0  0  0  0  0  0  0  0  0  0
   38.9880   32.4390   39.8230 C   0  0  1  0  0  0  0  0  0  0  0  0
   37.3070   31.9670   41.1830 H   0  0  0  0  0  0  0  0  0  0  0  0
   35.8650   31.7050   39.2260 H   0  0  0  0  0  0  0  0  0  0  0  0
   39.0820   30.5960   38.6220 H   0  0  0  0  0  0  0  0  0  0  0  0
   39.6820   32.1200   37.7940 H   0  0  0  0  0  0  0  0  0  0  0  0
   39.5710   31.8720   40.5740 H   0  0  0  0  0  0  0  0  0  0  0  0
   37.0230   33.6910   40.0070 O   0  0  0  0  0  0  0  0  0  0  0  0
   36.8820   33.8100   39.0320 H   0  0  0  0  0  0  0  0  0  0  0  0
   39.4450   33.7200   39.5930 O   0  0  0  0  0  0  0  0  0  0  0  0
   40.8280   33.8660   39.3550 C   0  0  0  0  0  0  0  0  0  0  0  0
   41.5510   33.6230   40.5070 C   0  0  0  0  0  0  0  0  0  0  0  0
   41.3690   33.3490   41.5580 H   0  0  0  0  0  0  0  0  0  0  0  0
   43.3010   33.8690   39.9570 S   0  0  0  0  0  0  0  0  0  0  0  0
   42.6950   34.2710   38.1960 C   0  0  0  0  0  0  0  0  0  0  0  0
   43.1690   34.5560   37.1730 H   0  0  0  0  0  0  0  0  0  0  0  0
   41.5810   34.1720   38.3170 N   0  0  0  0  0  0  0  0  0  0  0  0
  1  6  1  6  0  0  0
  1  2  1  0  0  0  0
  2  7  1  1  0  0  0
  2  3  1  0  0  0  0
  2 13  1  0  0  0  0
  4  8  1  0  0  0  0
  4  3  1  0  0  0  0
  5 10  1  6  0  0  0
  5 22  1  0  0  0  0
  5  1  1  0  0  0  0
  5  4  1  0  0  0  0
  9  4  1  0  0  0  0
 11 16  1  0  0  0  0
 11 17  1  0  0  0  0
 12 11  2  0  0  0  0
 13 14  2  0  0  0  0
 13 12  1  0  0  0  0
 14 15  1  0  0  0  0
 15 19  1  0  0  0  0
 15 16  2  0  0  0  0
 18 12  1  0  0  0  0
 20  1  1  0  0  0  0
 21 20  1  0  0  0  0
 23 28  1  1  0  0  0
 24 29  1  6  0  0  0
 24 22  1  0  0  0  0
 24 23  1  0  0  0  0
 25 26  1  0  0  0  0
 25 24  1  0  0  0  0
 26 30  1  0  0  0  0
 26 27  1  0  0  0  0
 27 23  1  0  0  0  0
 27 32  1  1  0  0  0
 31 26  1  0  0  0  0
 33 23  1  0  0  0  0
 34 33  1  0  0  0  0
 35 27  1  0  0  0  0
 36 35  1  0  0  0  0
 36 37  2  0  0  0  0
 37 38  1  0  0  0  0
 39 37  1  0  0  0  0
 40 42  2  0  0  0  0
 40 39  1  0  0  0  0
 41 40  1  0  0  0  0
 42 36  1  0  0  0  0
M  END
>  <minimizedAffinity>
-5.52347898

$$$$

 OpenBabel03242516363D

 42 45  0  0  1  0  0  0  0  0999 V2000
   35.8230   29.4650   40.0800 C   0  0  2  0  0  0  0  0  0  0  0  0
   36.9490   28.4160   40.2840 C   0  0  1  0  0  0  0  0  0  0  0  0
   37.0510   28.4640   41.6410 O   0  0  0  0  0  0  0  0  0  0  0  0
   37.1800   29.8390   41.9250 C   0  0  0  0  0  0  0  0  0  0  0  0
   36.5630   30.6100   40.7370 C   0  0  1  0  0  0  0  0  0  0  0  0
   35.6010   29.6140   39.0230 H   0  0  0  0  0  0  0  0  0  0  0  0
   37.8670   28.8540   39.8170 H   0  0  0  0  0  0  0  0  0  0  0  0
   38.2270   30.1300   42.0900 H   0  0  0  0  0  0  0  0  0  0  0  0
   36.5890   30.0680   42.8230 H   0  0  0  0  0  0  0  0  0  0  0  0
   35.8660   31.4000   41.0550 H   0  0  0  0  0  0  0  0  0  0  0  0
   35.7510   25.4700   38.2000 C   0  0  0  0  0  0  0  0  0  0  0  0
   35.9970   26.8040   38.5160 C   0  0  0  0  0  0  0  0  0  0  0  0
   36.5660   27.1140   39.7280 C   0  0  0  0  0  0  0  0  0  0  0  0
   36.8610   26.0650   40.5640 N   0  0  0  0  0  0  0  0  0  0  0  0
   36.6160   24.7840   40.2420 C   0  0  0  0  0  0  0  0  0  0  0  0
   36.0590   24.4880   39.0540 N   0  0  0  0  0  0  0  0  0  0  0  0
   35.2980   25.3510   37.2150 H   0  0  0  0  0  0  0  0  0  0  0  0
   35.7920   27.6690   37.9100 H   0  0  0  0  0  0  0  0  0  0  0  0
   36.8630   23.9840   40.9310 H   0  0  0  0  0  0  0  0  0  0  0  0
   34.7500   29.1840   40.8840 O   0  0  0  0  0  0  0  0  0  0  0  0
   33.8800   29.4050   40.4830 H   0  0  0  0  0  0  0  0  0  0  0  0
   37.5910   31.0360   39.9490 O   0  0  0  0  0  0  0  0  0  0  0  0
   37.9360   33.3630   40.1080 C   0  0  1  0  0  0  0  0  0  0  0  0
   37.3320   32.1810   39.1930 C   0  0  1  0  0  0  0  0  0  0  0  0
   38.2160   32.2570   38.1820 O   0  0  0  0  0  0  0  0  0  0  0  0
   39.4240   32.0240   38.8910 C   0  0  0  0  0  0  0  0  0  0  0  0
   39.4040   33.1550   39.8900 C   0  0  1  0  0  0  0  0  0  0  0  0
   37.5580   33.2570   41.1070 H   0  0  0  0  0  0  0  0  0  0  0  0
   36.2930   32.4950   39.1590 H   0  0  0  0  0  0  0  0  0  0  0  0
   39.4150   31.0240   39.3310 H   0  0  0  0  0  0  0  0  0  0  0  0
   40.2520   32.1620   38.1590 H   0  0  0  0  0  0  0  0  0  0  0  0
   39.8480   32.8130   40.8440 H   0  0  0  0  0  0  0  0  0  0  0  0
   37.5760   34.5380   39.4350 O   0  0  0  0  0  0  0  0  0  0  0  0
   37.5430   34.3530   38.4610 H   0  0  0  0  0  0  0  0  0  0  0  0
   40.0150   34.2610   39.3390 O   0  0  0  0  0  0  0  0  0  0  0  0
   41.3850   34.1360   39.0230 C   0  0  0  0  0  0  0  0  0  0  0  0
   42.1380   33.9730   40.1700 C   0  0  0  0  0  0  0  0  0  0  0  0
   41.9880   33.9110   41.2590 H   0  0  0  0  0  0  0  0  0  0  0  0
   43.8630   33.8320   39.5150 S   0  0  0  0  0  0  0  0  0  0  0  0
   43.2090   34.0310   37.7370 C   0  0  0  0  0  0  0  0  0  0  0  0
   43.6510   34.0600   36.6620 H   0  0  0  0  0  0  0  0  0  0  0  0
   42.1040   34.1380   37.9180 N   0  0  0  0  0  0  0  0  0  0  0  0
  1  6  1  6  0  0  0
  1  2  1  0  0  0  0
  1  5  1  0  0  0  0
  1 20  1  0  0  0  0
  2  7  1  6  0  0  0
  2  3  1  0  0  0  0
  3  4  1  0  0  0  0
  4  8  1  0  0  0  0
  4  9  1  0  0  0  0
  5 10  1  1  0  0  0
  5  4  1  0  0  0  0
 11 12  2  0  0  0  0
 11 16  1  0  0  0  0
 12 13  1  0  0  0  0
 13  2  1  0  0  0  0
 13 14  2  0  0  0  0
 15 14  1  0  0  0  0
 15 19  1  0  0  0  0
 16 15  2  0  0  0  0
 17 11  1  0  0  0  0
 18 12  1  0  0  0  0
 21 20  1  0  0  0  0
 22  5  1  0  0  0  0
 23 28  1  1  0  0  0
 24 29  1  6  0  0  0
 24 22  1  0  0  0  0
 24 23  1  0  0  0  0
 25 26  1  0  0  0  0
 25 24  1  0  0  0  0
 26 30  1  0  0  0  0
 26 27  1  0  0  0  0
 27 23  1  0  0  0  0
 27 32  1  1  0  0  0
 31 26  1  0  0  0  0
 33 23  1  0  0  0  0
 34 33  1  0  0  0  0
 35 27  1  0  0  0  0
 36 35  1  0  0  0  0
 36 37  2  0  0  0  0
 37 38  1  0  0  0  0
 39 37  1  0  0  0  0
 40 42  2  0  0  0  0
 40 39  1  0  0  0  0
 41 40  1  0  0  0  0
 42 36  1  0  0  0  0
M  END
>  <minimizedAffinity>
-5.49406767

$$$$

 OpenBabel03242516363D

 42 45  0  0  1  0  0  0  0  0999 V2000
   36.6040   30.1360   41.2710 C   0  0  2  0  0  0  0  0  0  0  0  0
   37.3980   30.4750   39.9810 C   0  0  1  0  0  0  0  0  0  0  0  0
   36.3630   30.5410   39.0970 O   0  0  0  0  0  0  0  0  0  0  0  0
   35.6570   29.3390   39.3080 C   0  0  0  0  0  0  0  0  0  0  0  0
   35.9890   28.8600   40.7390 C   0  0  1  0  0  0  0  0  0  0  0  0
   37.2680   29.9990   42.1250 H   0  0  0  0  0  0  0  0  0  0  0  0
   38.0290   29.5780   39.7620 H   0  0  0  0  0  0  0  0  0  0  0  0
   35.9130   28.5740   38.5610 H   0  0  0  0  0  0  0  0  0  0  0  0
   34.5800   29.5530   39.2620 H   0  0  0  0  0  0  0  0  0  0  0  0
   35.0950   28.5830   41.3160 H   0  0  0  0  0  0  0  0  0  0  0  0
   39.9990   33.1900   40.5450 C   0  0  0  0  0  0  0  0  0  0  0  0
   39.4840   31.8970   40.4850 C   0  0  0  0  0  0  0  0  0  0  0  0
   38.1660   31.7140   40.1420 C   0  0  0  0  0  0  0  0  0  0  0  0
   37.4300   32.8420   39.8740 N   0  0  0  0  0  0  0  0  0  0  0  0
   37.9440   34.0810   39.9360 C   0  0  0  0  0  0  0  0  0  0  0  0
   39.2340   34.2530   40.2730 N   0  0  0  0  0  0  0  0  0  0  0  0
   41.0530   33.2070   40.8280 H   0  0  0  0  0  0  0  0  0  0  0  0
   40.0040   30.9760   40.6820 H   0  0  0  0  0  0  0  0  0  0  0  0
   37.3290   34.9460   39.7180 H   0  0  0  0  0  0  0  0  0  0  0  0
   35.5730   31.0200   41.4500 O   0  0  0  0  0  0  0  0  0  0  0  0
   35.3840   31.2300   42.3920 H   0  0  0  0  0  0  0  0  0  0  0  0
   36.9290   27.8780   40.6330 O   0  0  0  0  0  0  0  0  0  0  0  0
   36.8290   25.5850   41.1740 C   0  0  1  0  0  0  0  0  0  0  0  0
   37.0790   27.0670   41.7590 C   0  0  1  0  0  0  0  0  0  0  0  0
   38.3880   26.9360   42.0440 O   0  0  0  0  0  0  0  0  0  0  0  0
   38.8910   26.6160   40.7560 C   0  0  0  0  0  0  0  0  0  0  0  0
   38.1150   25.3610   40.4390 C   0  0  1  0  0  0  0  0  0  0  0  0
   35.9200   25.5860   40.6040 H   0  0  0  0  0  0  0  0  0  0  0  0
   36.2690   27.1120   42.4810 H   0  0  0  0  0  0  0  0  0  0  0  0
   38.7190   27.4470   40.0680 H   0  0  0  0  0  0  0  0  0  0  0  0
   39.9730   26.3860   40.8870 H   0  0  0  0  0  0  0  0  0  0  0  0
   37.8900   25.3300   39.3550 H   0  0  0  0  0  0  0  0  0  0  0  0
   36.8450   24.7610   42.3060 O   0  0  0  0  0  0  0  0  0  0  0  0
   37.4570   25.1530   42.9810 H   0  0  0  0  0  0  0  0  0  0  0  0
   38.8060   24.2660   40.9110 O   0  0  0  0  0  0  0  0  0  0  0  0
   38.7300   23.0870   40.1390 C   0  0  0  0  0  0  0  0  0  0  0  0
   39.4000   23.2430   38.9410 C   0  0  0  0  0  0  0  0  0  0  0  0
   39.9780   24.0140   38.4090 H   0  0  0  0  0  0  0  0  0  0  0  0
   39.1660   21.6010   38.1200 S   0  0  0  0  0  0  0  0  0  0  0  0
   38.1600   20.9910   39.6180 C   0  0  0  0  0  0  0  0  0  0  0  0
   37.6100   20.0170   39.9390 H   0  0  0  0  0  0  0  0  0  0  0  0
   38.1820   21.8970   40.2840 N   0  0  0  0  0  0  0  0  0  0  0  0
  1 20  1  0  0  0  0
  1  6  1  1  0  0  0
  2  7  1  6  0  0  0
  2 13  1  0  0  0  0
  2  1  1  0  0  0  0
  3  4  1  0  0  0  0
  3  2  1  0  0  0  0
  4  5  1  0  0  0  0
  5  1  1  0  0  0  0
  5 10  1  1  0  0  0
  8  4  1  0  0  0  0
  9  4  1  0  0  0  0
 11 17  1  0  0  0  0
 12 11  1  0  0  0  0
 12 18  1  0  0  0  0
 13 12  2  0  0  0  0
 14 15  2  0  0  0  0
 14 13  1  0  0  0  0
 15 16  1  0  0  0  0
 16 11  2  0  0  0  0
 19 15  1  0  0  0  0
 20 21  1  0  0  0  0
 22  5  1  0  0  0  0
 22 24  1  0  0  0  0
 23 28  1  6  0  0  0
 23 24  1  0  0  0  0
 23 33  1  0  0  0  0
 24 25  1  0  0  0  0
 24 29  1  1  0  0  0
 26 31  1  0  0  0  0
 26 25  1  0  0  0  0
 27 32  1  6  0  0  0
 27 26  1  0  0  0  0
 27 35  1  0  0  0  0
 27 23  1  0  0  0  0
 30 26  1  0  0  0  0
 33 34  1  0  0  0  0
 36 42  1  0  0  0  0
 36 35  1  0  0  0  0
 37 36  2  0  0  0  0
 38 37  1  0  0  0  0
 39 37  1  0  0  0  0
 39 40  1  0  0  0  0
 40 41  1  0  0  0  0
 40 42  2  0  0  0  0
M  END
>  <minimizedAffinity>
-5.38707447

$$$$
