
     RDKit          3D

 41 45  0  0  0  0  0  0  0  0999 V2000
   44.7940   35.9799   43.3026 Cl  0  0  0  0  0  0  0  0  0  0  0  0
   45.5351   34.7380   44.2422 C   0  0  0  0  0  0  0  0  0  0  0  0
   46.6307   34.0429   43.7485 C   0  0  0  0  0  0  0  0  0  0  0  0
   47.1518   33.0715   44.5810 C   0  0  0  0  0  0  0  0  0  0  0  0
   46.6574   32.7627   45.8400 C   0  0  0  0  0  0  0  0  0  0  0  0
   45.5724   33.4695   46.2974 C   0  0  0  0  0  0  0  0  0  0  0  0
   44.9829   33.0446   47.8900 Cl  0  0  0  0  0  0  0  0  0  0  0  0
   45.0188   34.4489   45.5011 C   0  0  0  0  0  0  0  0  0  0  0  0
   47.3503   31.6997   46.5678 C   0  0  0  0  0  0  0  0  0  0  0  0
   47.4572   30.4177   46.1006 C   0  0  0  0  0  0  0  0  0  0  0  0
   48.1076   29.3934   46.7672 C   0  0  0  0  0  0  0  0  0  0  0  0
   48.6955   29.6729   47.9943 C   0  0  0  0  0  0  0  0  0  0  0  0
   49.3158   28.6672   48.6154 N   0  0  0  0  0  0  0  0  0  0  0  0
   49.9235   28.8360   49.8225 C   0  0  0  0  0  0  0  0  0  0  0  0
   49.8604   30.1188   50.3716 C   0  0  0  0  0  0  0  0  0  0  0  0
   49.2157   31.1414   49.7147 C   0  0  0  0  0  0  0  0  0  0  0  0
   48.6130   30.9324   48.4965 C   0  0  0  0  0  0  0  0  0  0  0  0
   47.9531   31.9473   47.8075 C   0  0  0  0  0  0  0  0  0  0  0  0
   48.7624   35.4537   41.1646 C   0  0  0  0  0  0  0  0  0  0  0  0
   48.2761   34.8677   39.9847 C   0  0  0  0  0  0  0  0  0  0  0  0
   47.1998   33.9761   40.0886 C   0  0  0  0  0  0  0  0  0  0  0  0
   46.7213   33.7583   41.3218 N   0  0  0  0  0  0  0  0  0  0  0  0
   47.1886   34.3202   42.4423 C   0  0  0  0  0  0  0  0  0  0  0  0
   48.2287   35.1853   42.3720 N   0  0  0  0  0  0  0  0  0  0  0  0
   48.0086   32.5463   44.1667 H   0  0  0  0  0  0  0  0  0  0  0  0
   44.1656   34.9941   45.8772 H   0  0  0  0  0  0  0  0  0  0  0  0
   46.9801   30.2389   45.1294 H   0  0  0  0  0  0  0  0  0  0  0  0
   48.1396   28.4091   46.3154 H   0  0  0  0  0  0  0  0  0  0  0  0
   50.4364   28.0487   50.3580 H   0  0  0  0  0  0  0  0  0  0  0  0
   50.3225   30.3330   51.3351 H   0  0  0  0  0  0  0  0  0  0  0  0
   49.1705   32.1361   50.1508 H   0  0  0  0  0  0  0  0  0  0  0  0
   47.9210   32.9404   48.2625 H   0  0  0  0  0  0  0  0  0  0  0  0
   49.5773   36.1104   40.9591 H   0  0  0  0  0  0  0  0  0  0  0  0
   48.6818   35.0620   39.0009 H   0  0  0  0  0  0  0  0  0  0  0  0
   46.6336   33.3205   38.9364 C   0  0  0  0  0  0  0  0  0  0  0  0
   45.2404   33.4842   38.5889 C   0  0  0  0  0  0  0  0  0  0  0  0
   44.4398   34.0676   39.0607 H   0  0  0  0  0  0  0  0  0  0  0  0
   45.0947   32.4006   37.0409 S   0  0  0  0  0  0  0  0  0  0  0  0
   46.9276   31.9178   37.1301 C   0  0  0  0  0  0  0  0  0  0  0  0
   47.4637   31.2740   36.4668 H   0  0  0  0  0  0  0  0  0  0  0  0
   46.9500   32.5525   38.0110 N   0  0  0  0  0  0  0  0  0  0  0  0
  1  2  1  0
  2  8  2  0
  3  2  1  0
  3  4  2  0
  4  5  1  0
  5  6  2  0
  5  9  1  0
  6  7  1  0
  8  6  1  0
  9 18  1  0
 10  9  2  0
 10 11  1  0
 11 12  2  0
 12 17  1  0
 12 13  1  0
 13 14  2  0
 14 15  1  0
 16 15  2  0
 17 16  1  0
 18 17  2  0
 19 24  2  0
 20 21  2  0
 20 19  1  0
 21 22  1  0
 22 23  2  0
 23  3  1  0
 24 23  1  0
  4 25  1  0
  8 26  1  0
 10 27  1  0
 11 28  1  0
 14 29  1  0
 15 30  1  0
 16 31  1  0
 18 32  1  0
 19 33  1  0
 20 34  1  0
 35 36  2  0
 36 37  1  0
 36 38  1  0
 38 39  1  0
 39 40  1  0
 39 41  2  0
 41 35  1  0
 21 35  1  0
M  ISO  8  25  14  26  14  27  14  28  14  29  14  30  14  31  14  32  14
M  ISO  4  33  14  34  14  37  15  40  16
M  END
>  <DihAtoms>  (1) 
19,20,34,35

>  <DihDeg>  (1) 
178.8560852242431

$$$$
