
 OpenBabel03252506013D

 26 28  0  0  0  0  0  0  0  0999 V2000
   44.7610   36.2910   42.8380 Cl  0  0  0  0  0  0  0  0  0  0  0  0
   45.4090   35.0910   43.9100 C   0  0  0  0  0  0  0  0  0  0  0  0
   46.4610   34.3050   43.5270 C   0  0  0  0  0  0  0  0  0  0  0  0
   46.8880   33.3930   44.4540 C   0  0  0  0  0  0  0  0  0  0  0  0
   46.3650   33.2030   45.7060 C   0  0  0  0  0  0  0  0  0  0  0  0
   45.3030   34.0180   46.0560 C   0  0  0  0  0  0  0  0  0  0  0  0
   44.6450   33.7610   47.6660 Cl  0  0  0  0  0  0  0  0  0  0  0  0
   44.8240   34.9580   45.1680 C   0  0  0  0  0  0  0  0  0  0  0  0
   47.7360   32.7690   44.1250 H   0  0  0  0  0  0  0  0  0  0  0  0
   43.9940   35.5720   45.4800 H   0  0  0  0  0  0  0  0  0  0  0  0
   48.7800   35.4330   40.9400 C   0  0  0  0  0  0  0  0  0  0  0  0
   48.3630   34.7560   39.7980 C   0  0  0  0  0  0  0  0  0  0  0  0
   47.2630   33.8960   39.9260 C   0  0  0  0  0  0  0  0  0  0  0  0
   46.6670   33.7710   41.1460 N   0  0  0  0  0  0  0  0  0  0  0  0
   47.0900   34.4330   42.2220 C   0  0  0  0  0  0  0  0  0  0  0  0
   48.1610   35.2750   42.1180 N   0  0  0  0  0  0  0  0  0  0  0  0
   49.6240   36.1190   40.9320 H   0  0  0  0  0  0  0  0  0  0  0  0
   48.8760   34.8970   38.8590 H   0  0  0  0  0  0  0  0  0  0  0  0
   46.9020   33.3480   39.0620 H   0  0  0  0  0  0  0  0  0  0  0  0
   46.9090   32.1840   46.6300 C   0  0  0  0  0  0  0  0  0  0  0  0
   46.7630   30.8150   46.3520 C   0  0  0  0  0  0  0  0  0  0  0  0
   46.2830   30.3090   45.5140 H   0  0  0  0  0  0  0  0  0  0  0  0
   47.5960   30.0190   47.7820 S   0  0  0  0  0  0  0  0  0  0  0  0
   48.0060   31.7220   48.5220 C   0  0  0  0  0  0  0  0  0  0  0  0
   48.5530   32.0270   49.4710 H   0  0  0  0  0  0  0  0  0  0  0  0
   47.5550   32.4380   47.7520 N   0  0  0  0  0  0  0  0  0  0  0  0
  1  2  1  0  0  0  0
  2  8  1  0  0  0  0
  3  2  2  0  0  0  0
  3  4  1  0  0  0  0
  4  5  2  0  0  0  0
  5  6  1  0  0  0  0
  5 20  1  0  0  0  0
  6  7  1  0  0  0  0
  8 10  1  0  0  0  0
  8  6  2  0  0  0  0
  9  4  1  0  0  0  0
 11 16  1  0  0  0  0
 12 13  1  0  0  0  0
 12 11  2  0  0  0  0
 13 14  2  0  0  0  0
 14 15  1  0  0  0  0
 15  3  1  0  0  0  0
 16 15  2  0  0  0  0
 17 11  1  0  0  0  0
 18 12  1  0  0  0  0
 19 13  1  0  0  0  0
 20 26  1  0  0  0  0
 21 20  2  0  0  0  0
 21 23  1  0  0  0  0
 22 21  1  0  0  0  0
 23 24  1  0  0  0  0
 24 25  1  0  0  0  0
 26 24  2  0  0  0  0
M  END
>  <minimizedAffinity>
-5.62191868

>  <minimizedRMSD>
0.95562464

$$$$
