
 OpenBabel03252506053D

 41 45  0  0  0  0  0  0  0  0999 V2000
   44.7980   35.9780   43.3300 Cl  0  0  0  0  0  0  0  0  0  0  0  0
   45.5390   34.7330   44.2650 C   0  0  0  0  0  0  0  0  0  0  0  0
   46.6400   34.0450   43.7720 C   0  0  0  0  0  0  0  0  0  0  0  0
   47.1610   33.0710   44.6010 C   0  0  0  0  0  0  0  0  0  0  0  0
   46.6620   32.7520   45.8560 C   0  0  0  0  0  0  0  0  0  0  0  0
   45.5720   33.4510   46.3130 C   0  0  0  0  0  0  0  0  0  0  0  0
   44.9770   33.0160   47.9000 Cl  0  0  0  0  0  0  0  0  0  0  0  0
   45.0190   34.4340   45.5200 C   0  0  0  0  0  0  0  0  0  0  0  0
   48.0220   32.5510   44.1880 H   0  0  0  0  0  0  0  0  0  0  0  0
   44.1620   34.9740   45.8960 H   0  0  0  0  0  0  0  0  0  0  0  0
   47.3550   31.6880   46.5810 C   0  0  0  0  0  0  0  0  0  0  0  0
   47.4640   30.4070   46.1100 C   0  0  0  0  0  0  0  0  0  0  0  0
   48.1160   29.3810   46.7720 C   0  0  0  0  0  0  0  0  0  0  0  0
   48.7030   29.6570   48.0010 C   0  0  0  0  0  0  0  0  0  0  0  0
   49.3240   28.6500   48.6180 N   0  0  0  0  0  0  0  0  0  0  0  0
   49.9300   28.8150   49.8260 C   0  0  0  0  0  0  0  0  0  0  0  0
   49.8660   30.0960   50.3800 C   0  0  0  0  0  0  0  0  0  0  0  0
   49.2210   31.1200   49.7270 C   0  0  0  0  0  0  0  0  0  0  0  0
   48.6190   30.9140   48.5070 C   0  0  0  0  0  0  0  0  0  0  0  0
   47.9580   31.9310   47.8210 C   0  0  0  0  0  0  0  0  0  0  0  0
   46.9870   30.2310   45.1370 H   0  0  0  0  0  0  0  0  0  0  0  0
   48.1490   28.3980   46.3170 H   0  0  0  0  0  0  0  0  0  0  0  0
   50.4440   28.0270   50.3600 H   0  0  0  0  0  0  0  0  0  0  0  0
   50.3270   30.3080   51.3440 H   0  0  0  0  0  0  0  0  0  0  0  0
   49.1740   32.1130   50.1660 H   0  0  0  0  0  0  0  0  0  0  0  0
   47.9250   32.9230   48.2800 H   0  0  0  0  0  0  0  0  0  0  0  0
   48.7940   35.4590   41.2100 C   0  0  0  0  0  0  0  0  0  0  0  0
   48.2990   34.8980   40.0210 C   0  0  0  0  0  0  0  0  0  0  0  0
   47.2090   34.0220   40.1120 C   0  0  0  0  0  0  0  0  0  0  0  0
   46.7260   33.7940   41.3420 N   0  0  0  0  0  0  0  0  0  0  0  0
   47.2030   34.3320   42.4700 C   0  0  0  0  0  0  0  0  0  0  0  0
   48.2570   35.1810   42.4130 N   0  0  0  0  0  0  0  0  0  0  0  0
   49.6200   36.1050   41.0140 H   0  0  0  0  0  0  0  0  0  0  0  0
   48.7080   35.1000   39.0400 H   0  0  0  0  0  0  0  0  0  0  0  0
   46.6320   33.3940   38.9500 C   0  0  0  0  0  0  0  0  0  0  0  0
   45.3710   32.6910   39.0250 C   0  0  0  0  0  0  0  0  0  0  0  0
   44.6850   32.5220   39.8650 H   0  0  0  0  0  0  0  0  0  0  0  0
   45.1540   32.0880   37.2420 S   0  0  0  0  0  0  0  0  0  0  0  0
   46.7910   32.8840   36.7070 C   0  0  0  0  0  0  0  0  0  0  0  0
   47.2320   32.8750   35.7330 H   0  0  0  0  0  0  0  0  0  0  0  0
   46.8620   33.2020   37.7430 N   0  0  0  0  0  0  0  0  0  0  0  0
  1  2  1  0  0  0  0
  2  8  1  0  0  0  0
  3  2  2  0  0  0  0
  3  4  1  0  0  0  0
  4  5  2  0  0  0  0
  5  6  1  0  0  0  0
  5 11  1  0  0  0  0
  6  7  1  0  0  0  0
  8 10  1  0  0  0  0
  8  6  2  0  0  0  0
  9  4  1  0  0  0  0
 11 20  1  0  0  0  0
 12 11  2  0  0  0  0
 12 13  1  0  0  0  0
 13 14  2  0  0  0  0
 14 19  1  0  0  0  0
 14 15  1  0  0  0  0
 15 16  2  0  0  0  0
 16 23  1  0  0  0  0
 16 17  1  0  0  0  0
 17 24  1  0  0  0  0
 18 25  1  0  0  0  0
 18 17  2  0  0  0  0
 19 18  1  0  0  0  0
 20 26  1  0  0  0  0
 20 19  2  0  0  0  0
 21 12  1  0  0  0  0
 22 13  1  0  0  0  0
 27 32  1  0  0  0  0
 28 29  1  0  0  0  0
 28 27  2  0  0  0  0
 29 30  2  0  0  0  0
 30 31  1  0  0  0  0
 31  3  1  0  0  0  0
 32 31  2  0  0  0  0
 33 27  1  0  0  0  0
 34 28  1  0  0  0  0
 35 36  2  0  0  0  0
 35 29  1  0  0  0  0
 36 37  1  0  0  0  0
 38 36  1  0  0  0  0
 39 38  1  0  0  0  0
 39 41  2  0  0  0  0
 40 39  1  0  0  0  0
 41 35  1  0  0  0  0
M  END
>  <minimizedAffinity>
-7.028162

>  <minimizedRMSD>
0.0944339484

$$$$
