
 OpenBabel03242513043D

 33 36  0  0  0  0  0  0  0  0999 V2000
   46.0850   33.1100   41.4760 C   0  0  0  0  0  0  0  0  0  0  0  0
   47.2570   33.8330   41.2370 C   0  0  0  0  0  0  0  0  0  0  0  0
   48.1530   33.9360   42.2860 C   0  0  0  0  0  0  0  0  0  0  0  0
   47.8280   33.3300   43.4650 N   0  0  0  0  0  0  0  0  0  0  0  0
   46.7000   32.6430   43.6730 C   0  0  0  0  0  0  0  0  0  0  0  0
   45.8180   32.5300   42.6700 N   0  0  0  0  0  0  0  0  0  0  0  0
   45.3080   32.9480   40.7650 H   0  0  0  0  0  0  0  0  0  0  0  0
   46.5190   30.6800   45.1310 C   0  0  0  0  0  0  0  0  0  0  0  0
   46.4520   32.0390   44.9640 C   0  0  0  0  0  0  0  0  0  0  0  0
   46.1430   32.9210   46.0210 C   0  0  0  0  0  0  0  0  0  0  0  0
   45.8900   32.4180   47.2920 C   0  0  0  0  0  0  0  0  0  0  0  0
   45.5730   32.9270   48.5070 N   0  0  0  0  0  0  0  0  0  0  0  0
   45.4540   31.8820   49.3830 C   0  0  0  0  0  0  0  0  0  0  0  0
   45.6980   30.7480   48.6970 N   0  0  0  0  0  0  0  0  0  0  0  0
   45.9690   31.0420   47.4150 C   0  0  0  0  0  0  0  0  0  0  0  0
   46.2700   30.1530   46.3980 C   0  0  0  0  0  0  0  0  0  0  0  0
   46.7610   30.0850   44.2760 H   0  0  0  0  0  0  0  0  0  0  0  0
   46.0910   33.9890   45.8880 H   0  0  0  0  0  0  0  0  0  0  0  0
   45.4640   33.9470   48.6440 H   0  0  0  0  0  0  0  0  0  0  0  0
   45.2050   32.0550   50.4160 H   0  0  0  0  0  0  0  0  0  0  0  0
   46.3180   29.0990   46.5400 H   0  0  0  0  0  0  0  0  0  0  0  0
   49.4150   34.6870   42.1010 C   0  0  0  0  0  0  0  0  0  0  0  0
   49.2170   35.7620   41.2150 F   0  0  0  0  0  0  0  0  0  0  0  0
   49.8200   35.2480   43.2880 F   0  0  0  0  0  0  0  0  0  0  0  0
   50.3550   33.8340   41.5930 F   0  0  0  0  0  0  0  0  0  0  0  0
   47.4700   34.3940   40.0180 O   0  0  0  0  0  0  0  0  0  0  0  0
   47.3480   33.6670   38.8550 C   0  0  0  0  0  0  0  0  0  0  0  0
   48.6210   33.0560   38.7660 C   0  0  0  0  0  0  0  0  0  0  0  0
   49.6920   32.8700   39.1820 H   0  0  0  0  0  0  0  0  0  0  0  0
   48.5150   32.0670   37.2250 S   0  0  0  0  0  0  0  0  0  0  0  0
   46.7430   32.6510   36.9500 C   0  0  0  0  0  0  0  0  0  0  0  0
   45.7050   32.6790   36.3200 H   0  0  0  0  0  0  0  0  0  0  0  0
   46.6060   33.3090   37.8430 N   0  0  0  0  0  0  0  0  0  0  0  0
  1  6  1  0  0  0  0
  2  1  2  0  0  0  0
  2  3  1  0  0  0  0
  3  4  2  0  0  0  0
  4  5  1  0  0  0  0
  5  9  1  0  0  0  0
  6  5  2  0  0  0  0
  7  1  1  0  0  0  0
  8 16  1  0  0  0  0
  9  8  2  0  0  0  0
  9 10  1  0  0  0  0
 10 11  2  0  0  0  0
 11 15  1  0  0  0  0
 11 12  1  0  0  0  0
 12 19  1  0  0  0  0
 12 13  1  0  0  0  0
 13 20  1  0  0  0  0
 14 13  2  0  0  0  0
 15 14  1  0  0  0  0
 16 21  1  0  0  0  0
 16 15  2  0  0  0  0
 17  8  1  0  0  0  0
 18 10  1  0  0  0  0
 22  3  1  0  0  0  0
 22 24  1  0  0  0  0
 23 22  1  0  0  0  0
 25 22  1  0  0  0  0
 26  2  1  0  0  0  0
 27 26  1  0  0  0  0
 28 27  2  0  0  0  0
 28 29  1  0  0  0  0
 30 28  1  0  0  0  0
 31 30  1  0  0  0  0
 31 33  2  0  0  0  0
 32 31  1  0  0  0  0
 33 27  1  0  0  0  0
M  END
>  <minimizedAffinity>
-5.79883146

>  <minimizedRMSD>
1.41297567

$$$$
