
     RDKit          3D

 24 25  0  0  0  0  0  0  0  0999 V2000
   44.9349   34.9242   45.0439 C   0  0  0  0  0  0  0  0  0  0  0  0
   45.4451   35.1775   43.7642 C   0  0  0  0  0  0  0  0  0  0  0  0
   46.5122   34.3912   43.3577 C   0  0  0  0  0  0  0  0  0  0  0  0
   47.0113   33.4342   44.1860 N   0  0  0  0  0  0  0  0  0  0  0  0
   46.4905   33.2248   45.4076 C   0  0  0  0  0  0  0  0  0  0  0  0
   45.4500   33.9710   45.8384 N   0  0  0  0  0  0  0  0  0  0  0  0
   47.0281   34.6794   41.9989 C   0  0  0  0  0  0  0  0  0  0  0  0
   47.9588   33.7105   41.6604 F   0  0  0  0  0  0  0  0  0  0  0  0
   47.6962   35.8662   42.0832 F   0  0  0  0  0  0  0  0  0  0  0  0
   46.0651   34.6175   41.0507 F   0  0  0  0  0  0  0  0  0  0  0  0
   44.8706   36.2250   42.9166 C   0  0  0  0  0  0  0  0  0  0  0  0
   44.9792   37.5175   43.6036 N   0  0  0  0  0  0  0  0  0  0  0  0
   44.0968   35.4813   45.4452 H   0  0  0  0  0  0  0  0  0  0  0  0
   46.9562   32.4397   46.0018 H   0  0  0  0  0  0  0  0  0  0  0  0
   45.4596   36.4961   42.0334 H   0  0  0  0  0  0  0  0  0  0  0  0
   43.8133   36.0367   42.7506 H   0  0  0  0  0  0  0  0  0  0  0  0
   44.1054   38.0728   43.8365 H   0  0  0  0  0  0  0  0  0  0  0  0
   46.0838   38.2725   44.0755 C   0  0  0  0  0  0  0  0  0  0  0  0
   46.2622   38.1098   45.4240 C   0  0  0  0  0  0  0  0  0  0  0  0
   45.8038   37.5558   46.2796 H   0  0  0  0  0  0  0  0  0  0  0  0
   47.6920   39.1429   45.7957 S   0  0  0  0  0  0  0  0  0  0  0  0
   47.8204   39.6542   43.9552 C   0  0  0  0  0  0  0  0  0  0  0  0
   48.6665   40.3873   43.6028 H   0  0  0  0  0  0  0  0  0  0  0  0
   46.9627   39.0781   43.5394 N   0  0  0  0  0  0  0  0  0  0  0  0
  1  6  2  0
  2  1  1  0
  3  2  2  0
  3  4  1  0
  4  5  2  0
  5  6  1  0
  7  9  1  0
  7  3  1  0
  8  7  1  0
 10  7  1  0
 11 12  1  0
 11  2  1  0
  1 13  1  0
  5 14  1  0
 11 15  1  0
 11 16  1  0
 12 17  1  0
 18 19  2  0
 19 20  1  0
 19 21  1  0
 21 22  1  0
 22 23  1  0
 22 24  2  0
 24 18  1  0
 12 18  1  0
M  ISO  7  13  14  14  14  15   8  16   8  17   5  20  15  23  16
M  END
>  <DihAtoms>  (1) 
10,11,17,18

>  <DihDeg>  (1) 
80.14739783661483

$$$$
