
     RDKit          3D

 37 40  0  0  0  0  0  0  0  0999 V2000
   45.2186   36.1575   43.4530 C   0  0  0  0  0  0  0  0  0  0  0  0
   45.8674   34.9508   43.1359 C   0  0  0  0  0  0  0  0  0  0  0  0
   45.8118   33.9927   44.1310 C   0  0  0  0  0  0  0  0  0  0  0  0
   45.1992   34.1807   45.2979 N   0  0  0  0  0  0  0  0  0  0  0  0
   44.5849   35.3741   45.5517 C   0  0  0  0  0  0  0  0  0  0  0  0
   44.6019   36.3424   44.6316 N   0  0  0  0  0  0  0  0  0  0  0  0
   46.4510   32.7393   43.8854 C   0  0  0  0  0  0  0  0  0  0  0  0
   47.7123   32.2513   43.9775 C   0  0  0  0  0  0  0  0  0  0  0  0
   48.0361   31.0165   43.6792 C   0  0  0  0  0  0  0  0  0  0  0  0
   47.0252   30.2408   43.2669 C   0  0  0  0  0  0  0  0  0  0  0  0
   45.5540   31.3084   43.3042 S   0  0  0  0  0  0  0  0  0  0  0  0
   46.5072   34.8002   41.8752 C   0  0  0  0  0  0  0  0  0  0  0  0
   47.6852   35.2394   41.8081 O   0  0  0  0  0  0  0  0  0  0  0  0
   45.7652   34.1493   40.7403 C   0  0  0  0  0  0  0  0  0  0  0  0
   44.4113   34.1260   40.5400 C   0  0  0  0  0  0  0  0  0  0  0  0
   44.2234   33.4262   39.3932 N   0  0  0  0  0  0  0  0  0  0  0  0
   45.4138   33.0446   38.9232 C   0  0  0  0  0  0  0  0  0  0  0  0
   46.3636   33.4896   39.7524 N   0  0  0  0  0  0  0  0  0  0  0  0
   45.7396   32.2957   37.7591 N   0  0  0  0  0  0  0  0  0  0  0  0
   42.9774   33.1092   38.7340 C   0  0  0  0  0  0  0  0  0  0  0  0
   45.2053   36.9793   42.7327 H   0  0  0  0  0  0  0  0  0  0  0  0
   44.0837   35.5385   46.4967 H   0  0  0  0  0  0  0  0  0  0  0  0
   48.4387   33.0120   44.3328 H   0  0  0  0  0  0  0  0  0  0  0  0
   49.0249   30.5802   43.7358 H   0  0  0  0  0  0  0  0  0  0  0  0
   47.0538   29.1127   42.9450 H   0  0  0  0  0  0  0  0  0  0  0  0
   43.6589   34.5637   41.1529 H   0  0  0  0  0  0  0  0  0  0  0  0
   45.9098   32.8924   36.9000 H   0  0  0  0  0  0  0  0  0  0  0  0
   45.8030   31.2437   37.7633 H   0  0  0  0  0  0  0  0  0  0  0  0
   43.0825   32.1247   38.1907 H   0  0  0  0  0  0  0  0  0  0  0  0
   42.1985   32.9116   39.4983 H   0  0  0  0  0  0  0  0  0  0  0  0
   42.5642   34.1507   37.7417 C   0  0  0  0  0  0  0  0  0  0  0  0
   43.3927   34.4853   36.6132 C   0  0  0  0  0  0  0  0  0  0  0  0
   44.3238   34.0375   36.4051 H   0  0  0  0  0  0  0  0  0  0  0  0
   42.4002   35.7641   35.8035 S   0  0  0  0  0  0  0  0  0  0  0  0
   41.0281   35.6422   37.1164 C   0  0  0  0  0  0  0  0  0  0  0  0
   40.1172   36.2417   37.1123 H   0  0  0  0  0  0  0  0  0  0  0  0
   41.4347   34.8362   37.8111 N   0  0  0  0  0  0  0  0  0  0  0  0
  1  6  2  0
  2  1  1  0
  2  3  2  0
  3  4  1  0
  4  5  2  0
  6  5  1  0
  7  8  2  0
  7  3  1  0
  9  8  1  0
 10 11  1  0
 10  9  2  0
 11  7  1  0
 12  2  1  0
 13 12  2  0
 14 12  1  0
 15 14  2  0
 16 15  1  0
 17 16  1  0
 17 18  2  0
 18 14  1  0
 19 17  1  0
 20 16  1  0
  1 21  1  0
  5 22  1  0
  8 23  1  0
  9 24  1  0
 10 25  1  0
 15 26  1  0
 19 27  1  0
 19 28  1  0
 20 29  1  0
 20 30  1  0
 31 32  2  0
 32 33  1  0
 32 34  1  0
 34 35  1  0
 35 36  1  0
 35 37  2  0
 37 31  1  0
 20 31  1  0
M  ISO  8  21  14  22  14  23  14  24  14  25  14  26  14  29   8  30   8
M  ISO  2  33  15  36  16
M  END
>  <DihAtoms>  (1) 
15,19,30,31

>  <DihDeg>  (1) 
90.0424674530789

$$$$
