REMARK  Name = 
REMARK  4 active torsions:
REMARK  status: ('A' for Active; 'I' for Inactive)
REMARK    1  A    between atoms: C_2  and  N_12
REMARK    2  A    between atoms: C_11  and  S_13
REMARK    3  A    between atoms: S_13  and  C_16
REMARK    4  A    between atoms: N_19  and  C_36
REMARK                            x       y       z     vdW  Elec       q    Type
REMARK                         _______ _______ _______ _____ _____    ______ ____
ROOT
ATOM      1  C   UNL     1      44.505  35.535  45.120  0.00  0.00    +0.000 A 
ATOM      2  C   UNL     1      45.169  35.509  43.879  0.00  0.00    +0.000 A 
ATOM      3  C   UNL     1      46.089  34.541  43.642  0.00  0.00    +0.000 A 
ATOM      4  N   UNL     1      46.312  33.648  44.636  0.00  0.00    +0.000 NA
ATOM      5  C   UNL     1      45.684  33.679  45.802  0.00  0.00    +0.000 A 
ATOM      6  N   UNL     1      44.778  34.616  46.058  0.00  0.00    +0.000 NA
ATOM      7  N   UNL     1      46.005  32.680  46.786  0.00  0.00    +0.000 N 
ATOM      8  C   UNL     1      45.261  32.447  47.968  0.00  0.00    +0.000 C 
ATOM      9  C   UNL     1      46.334  32.131  48.995  0.00  0.00    +0.000 C 
ATOM     10  C   UNL     1      47.617  32.000  48.231  0.00  0.00    +0.000 C 
ATOM     11  C   UNL     1      47.133  31.771  46.799  0.00  0.00    +0.000 C 
ATOM     12  H   UNL     1      43.761  36.311  45.322  0.00  0.00    +0.000 HD
ATOM     13  H   UNL     1      46.603  34.504  42.710  0.00  0.00    +0.000 HD
ATOM     14  H   UNL     1      44.479  31.770  48.085  0.00  0.00    +0.000 HD
ATOM     15  H   UNL     1      44.855  33.456  48.295  0.00  0.00    +0.000 HD
ATOM     16  H   UNL     1      46.494  32.948  49.728  0.00  0.00    +0.000 HD
ATOM     17  H   UNL     1      46.082  31.229  49.594  0.00  0.00    +0.000 HD
ATOM     18  H   UNL     1      48.200  31.117  48.558  0.00  0.00    +0.000 HD
ATOM     19  H   UNL     1      48.207  32.945  48.227  0.00  0.00    +0.000 HD
ATOM     20  H   UNL     1      47.941  32.085  46.138  0.00  0.00    +0.000 HD
ENDROOT
BRANCH   2  21
ATOM     21  N   UNL     1      44.819  36.528  42.929  0.00  0.00    +0.000 N 
ATOM     22  H   UNL     1      43.851  36.424  42.554  0.00  0.00    +0.000 HD
ATOM     23  H   UNL     1      45.483  37.294  42.652  0.00  0.00    +0.000 HD
ENDBRANCH   2  21
BRANCH  11  24
ATOM     24  S   UNL     1      46.626  30.079  46.639  0.00  0.00    +0.000 S 
BRANCH  24  27
ATOM     25  O   UNL     1      45.600  30.514  43.486  0.00  0.00    +0.000 OA
ATOM     26  C   UNL     1      44.979  29.986  44.422  0.00  0.00    +0.000 C 
ATOM     27  C   UNL     1      45.081  29.776  45.895  0.00  0.00    +0.000 C 
ATOM     28  C   UNL     1      44.549  28.376  46.034  0.00  0.00    +0.000 C 
ATOM     29  C   UNL     1      43.214  28.584  45.282  0.00  0.00    +0.000 C 
ATOM     30  N   UNL     1      43.739  29.329  44.117  0.00  0.00    +0.000 N 
ATOM     31  H   UNL     1      44.193  30.381  46.231  0.00  0.00    +0.000 HD
ATOM     32  H   UNL     1      44.369  28.103  47.082  0.00  0.00    +0.000 HD
ATOM     33  H   UNL     1      45.146  27.646  45.462  0.00  0.00    +0.000 HD
ATOM     34  H   UNL     1      42.818  27.604  44.981  0.00  0.00    +0.000 HD
ATOM     35  H   UNL     1      42.526  29.193  45.881  0.00  0.00    +0.000 HD
BRANCH  30  36
ATOM     36  C   UNL     1      42.935  29.262  42.911  0.00  0.00    +0.000 A 
ATOM     37  C   UNL     1      43.394  29.629  41.660  0.00  0.00    +0.000 A 
ATOM     38  H   UNL     1      44.456  30.010  41.531  0.00  0.00    +0.000 HD
ATOM     39  S   UNL     1      41.830  29.273  40.641  0.00  0.00    +0.000 S 
ATOM     40  C   UNL     1      40.895  28.697  42.176  0.00  0.00    +0.000 A 
ATOM     41  H   UNL     1      39.867  28.365  42.083  0.00  0.00    +0.000 HD
ATOM     42  N   UNL     1      41.700  28.811  43.110  0.00  0.00    +0.000 NA
ENDBRANCH  30  36
ENDBRANCH  24  27
ENDBRANCH  11  24
TORSDOF 4
