
 OpenBabel03252501473D

 31 33  0  0  0  0  0  0  0  0999 V2000
   44.1580   33.5820   40.7430 C   0  0  0  0  0  0  0  0  0  0  0  0
   44.4500   34.7530   41.4840 C   0  0  0  0  0  0  0  0  0  0  0  0
   43.4610   35.7500   41.5950 C   0  0  0  0  0  0  0  0  0  0  0  0
   42.2660   35.5300   40.9790 N   0  0  0  0  0  0  0  0  0  0  0  0
   42.0370   34.4030   40.2870 C   0  0  0  0  0  0  0  0  0  0  0  0
   42.9630   33.4530   40.1750 N   0  0  0  0  0  0  0  0  0  0  0  0
   44.9020   32.8020   40.6440 H   0  0  0  0  0  0  0  0  0  0  0  0
   43.6690   36.6530   42.1590 H   0  0  0  0  0  0  0  0  0  0  0  0
   39.8060   33.6580   41.7450 F   0  0  0  0  0  0  0  0  0  0  0  0
   39.6340   33.8600   40.4100 C   0  0  0  0  0  0  0  0  0  0  0  0
   40.7340   34.2340   39.6520 C   0  0  0  0  0  0  0  0  0  0  0  0
   40.6240   34.4540   38.2960 C   0  0  0  0  0  0  0  0  0  0  0  0
   39.3690   34.2870   37.7120 C   0  0  0  0  0  0  0  0  0  0  0  0
   38.2550   33.9130   38.4500 C   0  0  0  0  0  0  0  0  0  0  0  0
   38.3930   33.6950   39.8270 C   0  0  0  0  0  0  0  0  0  0  0  0
   41.4970   34.7460   37.7220 H   0  0  0  0  0  0  0  0  0  0  0  0
   39.2690   34.4570   36.6430 H   0  0  0  0  0  0  0  0  0  0  0  0
   37.3080   33.8000   37.9380 H   0  0  0  0  0  0  0  0  0  0  0  0
   37.5340   33.4060   40.4080 H   0  0  0  0  0  0  0  0  0  0  0  0
   45.7610   34.9150   42.1190 C   0  0  0  0  0  0  0  0  0  0  0  0
   46.9140   34.7790   41.4850 C   0  0  0  0  0  0  0  0  0  0  0  0
   48.2290   34.9570   42.1870 C   0  0  0  0  0  0  0  0  0  0  0  0
   48.0140   34.8660   43.2670 H   0  0  0  0  0  0  0  0  0  0  0  0
   48.6420   35.9520   41.9350 H   0  0  0  0  0  0  0  0  0  0  0  0
   49.1700   33.8430   41.8100 C   0  0  0  0  0  0  0  0  0  0  0  0
   48.7500   32.9760   40.7920 C   0  0  0  0  0  0  0  0  0  0  0  0
   47.8730   32.9550   40.2200 H   0  0  0  0  0  0  0  0  0  0  0  0
   50.1250   31.8130   40.6510 S   0  0  0  0  0  0  0  0  0  0  0  0
   51.0860   32.7080   42.0340 C   0  0  0  0  0  0  0  0  0  0  0  0
   52.1110   32.6350   42.6180 H   0  0  0  0  0  0  0  0  0  0  0  0
   50.3360   33.6610   42.3890 N   0  0  0  0  0  0  0  0  0  0  0  0
  1  2  1  0  0  0  0
  2  3  2  0  0  0  0
  2 20  1  0  0  0  0
  3  8  1  0  0  0  0
  4  3  1  0  0  0  0
  5  4  2  0  0  0  0
  6  5  1  0  0  0  0
  6  1  2  0  0  0  0
  7  1  1  0  0  0  0
 10  9  1  0  0  0  0
 11  5  1  0  0  0  0
 11 10  2  0  0  0  0
 12 11  1  0  0  0  0
 13 12  2  0  0  0  0
 13 14  1  0  0  0  0
 14 15  2  0  0  0  0
 15 19  1  0  0  0  0
 15 10  1  0  0  0  0
 16 12  1  0  0  0  0
 17 13  1  0  0  0  0
 18 14  1  0  0  0  0
 21 20  2  0  0  0  0
 21 22  1  0  0  0  0
 22 23  1  0  0  0  0
 24 22  1  0  0  0  0
 25 22  1  0  0  0  0
 25 31  1  0  0  0  0
 26 25  2  0  0  0  0
 27 26  1  0  0  0  0
 28 26  1  0  0  0  0
 28 29  1  0  0  0  0
 29 31  2  0  0  0  0
 29 30  1  0  0  0  0
M  END
>  <minimizedAffinity>
-5.91218805

>  <minimizedRMSD>
2.19991374

$$$$
