
 OpenBabel03252509043D

 46 48  0  0  1  0  0  0  0  0999 V2000
   46.8650   34.4730   43.4120 N   0  0  0  0  0  0  0  0  0  0  0  0
   46.3670   35.5600   42.6670 C   0  0  0  0  0  0  0  0  0  0  0  0
   44.8580   35.6860   42.6650 C   0  0  0  0  0  0  0  0  0  0  0  0
   44.2210   35.2970   43.9770 C   0  0  0  0  0  0  0  0  0  0  0  0
   45.2450   34.8900   45.0120 C   0  0  0  0  0  0  0  0  0  0  0  0
   46.0730   33.7640   44.2860 C   0  0  2  0  0  0  0  0  0  0  0  0
   46.7010   35.6420   41.6340 H   0  0  0  0  0  0  0  0  0  0  0  0
   46.7350   36.5010   43.1720 H   0  0  0  0  0  0  0  0  0  0  0  0
   44.5520   36.6830   42.3160 H   0  0  0  0  0  0  0  0  0  0  0  0
   44.4950   34.9610   41.8990 H   0  0  0  0  0  0  0  0  0  0  0  0
   43.4710   34.5130   43.9100 H   0  0  0  0  0  0  0  0  0  0  0  0
   43.7340   36.2170   44.3770 H   0  0  0  0  0  0  0  0  0  0  0  0
   45.9190   35.7240   45.2450 H   0  0  0  0  0  0  0  0  0  0  0  0
   44.7200   34.4540   45.8680 H   0  0  0  0  0  0  0  0  0  0  0  0
   45.3000   33.1000   43.8730 H   0  0  0  0  0  0  0  0  0  0  0  0
   47.9790   33.7930   42.7940 C   0  0  0  0  0  0  0  0  0  0  0  0
   48.6450   33.4030   43.5630 H   0  0  0  0  0  0  0  0  0  0  0  0
   48.5530   34.5540   42.2150 H   0  0  0  0  0  0  0  0  0  0  0  0
   47.4580   32.7130   41.9200 C   0  0  0  0  0  0  0  0  0  0  0  0
   47.7430   31.7230   42.2950 H   0  0  0  0  0  0  0  0  0  0  0  0
   46.3380   32.7220   41.8720 H   0  0  0  0  0  0  0  0  0  0  0  0
   49.2560   32.1270   38.6780 C   0  0  0  0  0  0  0  0  0  0  0  0
   48.7740   31.9650   39.9820 C   0  0  0  0  0  0  0  0  0  0  0  0
   47.9590   32.9040   40.5330 C   0  0  0  0  0  0  0  0  0  0  0  0
   47.6450   33.9710   39.7870 N   0  0  0  0  0  0  0  0  0  0  0  0
   48.1030   34.1370   38.5330 C   0  0  0  0  0  0  0  0  0  0  0  0
   48.9070   33.2280   37.9630 N   0  0  0  0  0  0  0  0  0  0  0  0
   49.8970   31.4240   38.1950 H   0  0  0  0  0  0  0  0  0  0  0  0
   49.0940   31.0620   40.4890 H   0  0  0  0  0  0  0  0  0  0  0  0
   47.7570   35.0440   38.0760 H   0  0  0  0  0  0  0  0  0  0  0  0
   46.7850   33.2130   45.3340 O   0  0  0  0  0  0  0  0  0  0  0  0
   47.5520   30.7120   44.8810 O   0  0  0  0  0  0  0  0  0  0  0  0
   46.4780   31.5880   45.5660 P   0  0  2  0  0  0  0  0  0  0  0  0
   45.0440   31.2360   44.6960 O   0  0  0  0  0  0  0  0  0  0  0  0
   44.3370   30.9080   45.3030 H   0  0  0  0  0  0  0  0  0  0  0  0
   46.2580   31.1610   47.1530 O   0  0  0  0  0  0  0  0  0  0  0  0
   46.9620   30.0000   47.4240 C   0  0  0  0  0  0  0  0  0  0  0  0
   46.3370   29.2430   47.9110 H   0  0  0  0  0  0  0  0  0  0  0  0
   47.3450   29.5500   46.4680 H   0  0  0  0  0  0  0  0  0  0  0  0
   48.1480   30.2690   48.3160 C   0  0  0  0  0  0  0  0  0  0  0  0
   48.3330   31.5860   48.8980 C   0  0  0  0  0  0  0  0  0  0  0  0
   47.6540   32.4120   48.7260 H   0  0  0  0  0  0  0  0  0  0  0  0
   49.8750   31.3350   49.8560 S   0  0  0  0  0  0  0  0  0  0  0  0
   50.0110   29.5370   49.3220 C   0  0  0  0  0  0  0  0  0  0  0  0
   50.7820   28.8200   49.5950 H   0  0  0  0  0  0  0  0  0  0  0  0
   49.0530   29.3570   48.6120 N   0  0  0  0  0  0  0  0  0  0  0  0
  1  6  1  0  0  0  0
  2  8  1  0  0  0  0
  2  1  1  0  0  0  0
  3  2  1  0  0  0  0
  3  4  1  0  0  0  0
  4 12  1  0  0  0  0
  4  5  1  0  0  0  0
  5 13  1  0  0  0  0
  5 14  1  0  0  0  0
  6 15  1  6  0  0  0
  6  5  1  0  0  0  0
  6 31  1  0  0  0  0
  7  2  1  0  0  0  0
  9  3  1  0  0  0  0
 10  3  1  0  0  0  0
 11  4  1  0  0  0  0
 16  1  1  0  0  0  0
 16 17  1  0  0  0  0
 18 16  1  0  0  0  0
 19 20  1  0  0  0  0
 19 16  1  0  0  0  0
 21 19  1  0  0  0  0
 22 23  1  0  0  0  0
 23 29  1  0  0  0  0
 23 24  2  0  0  0  0
 24 19  1  0  0  0  0
 25 24  1  0  0  0  0
 26 25  2  0  0  0  0
 27 26  1  0  0  0  0
 27 22  2  0  0  0  0
 28 22  1  0  0  0  0
 30 26  1  0  0  0  0
 31 33  1  0  0  0  0
 33 32  2  6  0  0  0
 33 36  1  0  0  0  0
 34 35  1  0  0  0  0
 34 33  1  0  0  0  0
 36 37  1  0  0  0  0
 37 38  1  0  0  0  0
 37 40  1  0  0  0  0
 39 37  1  0  0  0  0
 40 46  1  0  0  0  0
 40 41  2  0  0  0  0
 41 43  1  0  0  0  0
 42 41  1  0  0  0  0
 44 45  1  0  0  0  0
 44 43  1  0  0  0  0
 46 44  2  0  0  0  0
M  END
>  <minimizedAffinity>
-4.46016979

>  <minimizedRMSD>
2.23704362

$$$$
