
 OpenBabel03252506373D

 42 45  0  0  1  0  0  0  0  0999 V2000
   44.5160   35.5100   45.1330 C   0  0  0  0  0  0  0  0  0  0  0  0
   45.1700   35.4940   43.8860 C   0  0  0  0  0  0  0  0  0  0  0  0
   46.0870   34.5270   43.6330 C   0  0  0  0  0  0  0  0  0  0  0  0
   46.3180   33.6260   44.6180 N   0  0  0  0  0  0  0  0  0  0  0  0
   45.7000   33.6470   45.7890 C   0  0  0  0  0  0  0  0  0  0  0  0
   44.7970   34.5830   46.0610 N   0  0  0  0  0  0  0  0  0  0  0  0
   46.0290   32.6400   46.7620 N   0  0  0  0  0  0  0  0  0  0  0  0
   45.2960   32.3970   47.9480 C   0  0  0  0  0  0  0  0  0  0  0  0
   46.3770   32.0720   48.9630 C   0  0  0  0  0  0  0  0  0  0  0  0
   47.6540   31.9470   48.1870 C   0  0  0  0  0  0  0  0  0  0  0  0
   47.1570   31.7310   46.7580 C   0  0  1  0  0  0  0  0  0  0  0  0
   43.7750   36.2840   45.3480 H   0  0  0  0  0  0  0  0  0  0  0  0
   46.5930   34.4980   42.6970 H   0  0  0  0  0  0  0  0  0  0  0  0
   44.5140   31.7200   48.0670 H   0  0  0  0  0  0  0  0  0  0  0  0
   44.8930   33.4040   48.2870 H   0  0  0  0  0  0  0  0  0  0  0  0
   46.5440   32.8830   49.7020 H   0  0  0  0  0  0  0  0  0  0  0  0
   46.1300   31.1650   49.5570 H   0  0  0  0  0  0  0  0  0  0  0  0
   48.2390   31.0610   48.5020 H   0  0  0  0  0  0  0  0  0  0  0  0
   48.2440   32.8920   48.1860 H   0  0  0  0  0  0  0  0  0  0  0  0
   47.9600   32.0500   46.0920 H   0  0  0  0  0  0  0  0  0  0  0  0
   44.8120   36.5210   42.9480 N   0  0  0  0  0  0  0  0  0  0  0  0
   43.8410   36.4200   42.5810 H   0  0  0  0  0  0  0  0  0  0  0  0
   45.4740   37.2890   42.6720 H   0  0  0  0  0  0  0  0  0  0  0  0
   46.6480   30.0400   46.5880 S   0  0  0  0  0  0  0  0  0  0  0  0
   45.6340   30.4020   43.4220 O   0  0  0  0  0  0  0  0  0  0  0  0
   45.0020   29.9130   44.3720 C   0  0  0  0  0  0  0  0  0  0  0  0
   45.0990   29.7440   45.8500 C   0  0  1  0  0  0  0  0  0  0  0  0
   44.5410   28.3580   46.0290 C   0  0  0  0  0  0  0  0  0  0  0  0
   43.2110   28.5690   45.2690 C   0  0  0  0  0  0  0  0  0  0  0  0
   43.7510   29.2700   44.0840 N   0  0  0  0  0  0  0  0  0  0  0  0
   44.2210   30.3740   46.1670 H   0  0  0  0  0  0  0  0  0  0  0  0
   44.3550   28.1190   47.0840 H   0  0  0  0  0  0  0  0  0  0  0  0
   45.1250   27.6010   45.4790 H   0  0  0  0  0  0  0  0  0  0  0  0
   42.7980   27.5880   44.9950 H   0  0  0  0  0  0  0  0  0  0  0  0
   42.5330   29.2070   45.8490 H   0  0  0  0  0  0  0  0  0  0  0  0
   42.9470   29.1830   42.8790 C   0  0  0  0  0  0  0  0  0  0  0  0
   43.2970   29.7700   41.6770 C   0  0  0  0  0  0  0  0  0  0  0  0
   44.2610   30.3630   41.5920 H   0  0  0  0  0  0  0  0  0  0  0  0
   41.8080   29.2310   40.6260 S   0  0  0  0  0  0  0  0  0  0  0  0
   41.0390   28.3160   42.0860 C   0  0  0  0  0  0  0  0  0  0  0  0
   40.0930   27.8030   41.9560 H   0  0  0  0  0  0  0  0  0  0  0  0
   41.8280   28.4800   43.0260 N   0  0  0  0  0  0  0  0  0  0  0  0
  1 12  1  0  0  0  0
  1  6  1  0  0  0  0
  2  1  2  0  0  0  0
  3  2  1  0  0  0  0
  3  4  2  0  0  0  0
  4  5  1  0  0  0  0
  5  6  2  0  0  0  0
  5  7  1  0  0  0  0
  7  8  1  0  0  0  0
  8 14  1  0  0  0  0
  8 15  1  0  0  0  0
  8  9  1  0  0  0  0
  9 17  1  0  0  0  0
  9 16  1  0  0  0  0
 10 18  1  0  0  0  0
 10  9  1  0  0  0  0
 11 20  1  6  0  0  0
 11  7  1  0  0  0  0
 11 10  1  0  0  0  0
 13  3  1  0  0  0  0
 19 10  1  0  0  0  0
 21  2  1  0  0  0  0
 22 21  1  0  0  0  0
 23 21  1  0  0  0  0
 24 11  1  0  0  0  0
 25 26  2  0  0  0  0
 26 27  1  0  0  0  0
 27 28  1  0  0  0  0
 27 31  1  1  0  0  0
 27 24  1  0  0  0  0
 28 32  1  0  0  0  0
 29 35  1  0  0  0  0
 29 28  1  0  0  0  0
 30 26  1  0  0  0  0
 30 29  1  0  0  0  0
 33 28  1  0  0  0  0
 34 29  1  0  0  0  0
 36 42  1  0  0  0  0
 36 30  1  0  0  0  0
 37 36  2  0  0  0  0
 38 37  1  0  0  0  0
 39 37  1  0  0  0  0
 39 40  1  0  0  0  0
 40 42  2  0  0  0  0
 41 40  1  0  0  0  0
M  END
>  <minimizedAffinity>
-5.17588186

>  <minimizedRMSD>
0.0703285486

$$$$
