
 OpenBabel03252508563D

 22 23  0  0  0  0  0  0  0  0999 V2000
   43.8610   35.1560   40.9680 C   0  0  0  0  0  0  0  0  0  0  0  0
   44.5160   34.2920   40.7290 H   0  0  0  0  0  0  0  0  0  0  0  0
   43.9260   35.8770   40.1550 H   0  0  0  0  0  0  0  0  0  0  0  0
   40.0940   35.0530   41.0080 C   0  0  0  0  0  0  0  0  0  0  0  0
   41.4190   35.5550   40.9160 C   0  0  0  0  0  0  0  0  0  0  0  0
   42.4650   34.6560   41.0600 C   0  0  0  0  0  0  0  0  0  0  0  0
   42.1610   33.3540   41.2810 N   0  0  0  0  0  0  0  0  0  0  0  0
   40.8910   32.8960   41.3650 C   0  0  0  0  0  0  0  0  0  0  0  0
   39.8770   33.7450   41.2280 N   0  0  0  0  0  0  0  0  0  0  0  0
   39.3660   35.8440   40.8800 H   0  0  0  0  0  0  0  0  0  0  0  0
   41.6580   36.5940   40.7400 H   0  0  0  0  0  0  0  0  0  0  0  0
   40.6650   31.8530   41.5410 H   0  0  0  0  0  0  0  0  0  0  0  0
   44.2750   35.7130   42.3050 C   0  0  0  0  0  0  0  0  0  0  0  0
   44.6680   36.7400   42.1420 H   0  0  0  0  0  0  0  0  0  0  0  0
   43.4170   35.8180   42.9760 H   0  0  0  0  0  0  0  0  0  0  0  0
   45.3110   34.8040   42.9060 C   0  0  0  0  0  0  0  0  0  0  0  0
   46.7230   34.8410   42.5830 C   0  0  0  0  0  0  0  0  0  0  0  0
   47.1200   35.5450   41.8710 H   0  0  0  0  0  0  0  0  0  0  0  0
   47.3930   33.5390   43.6110 S   0  0  0  0  0  0  0  0  0  0  0  0
   45.6720   33.1390   44.3230 C   0  0  0  0  0  0  0  0  0  0  0  0
   45.4300   32.3350   45.0930 H   0  0  0  0  0  0  0  0  0  0  0  0
   44.9900   33.8840   43.7960 N   0  0  0  0  0  0  0  0  0  0  0  0
  1  6  1  0  0  0  0
  1 13  1  0  0  0  0
  2  1  1  0  0  0  0
  3  1  1  0  0  0  0
  4  9  1  0  0  0  0
  5  4  2  0  0  0  0
  5  6  1  0  0  0  0
  6  7  2  0  0  0  0
  7  8  1  0  0  0  0
  8 12  1  0  0  0  0
  9  8  2  0  0  0  0
 10  4  1  0  0  0  0
 11  5  1  0  0  0  0
 13 16  1  0  0  0  0
 13 15  1  0  0  0  0
 14 13  1  0  0  0  0
 16 22  1  0  0  0  0
 17 16  2  0  0  0  0
 17 19  1  0  0  0  0
 18 17  1  0  0  0  0
 19 20  1  0  0  0  0
 20 21  1  0  0  0  0
 22 20  2  0  0  0  0
M  END
>  <minimizedAffinity>
-3.52349305

>  <minimizedRMSD>
5.22088766

$$$$
