
 OpenBabel03252509043D

 46 48  0  0  1  0  0  0  0  0999 V2000
   46.5940   34.3480   43.7540 N   0  0  0  0  0  0  0  0  0  0  0  0
   46.2320   35.0410   42.5820 C   0  0  0  0  0  0  0  0  0  0  0  0
   44.7400   35.1600   42.3540 C   0  0  0  0  0  0  0  0  0  0  0  0
   43.9500   35.3390   43.6280 C   0  0  0  0  0  0  0  0  0  0  0  0
   44.8380   35.3850   44.8500 C   0  0  0  0  0  0  0  0  0  0  0  0
   45.6800   34.0580   44.7420 C   0  0  2  0  0  0  0  0  0  0  0  0
   46.6760   34.6950   41.6500 H   0  0  0  0  0  0  0  0  0  0  0  0
   46.5910   36.1040   42.7040 H   0  0  0  0  0  0  0  0  0  0  0  0
   44.5220   35.9300   41.6000 H   0  0  0  0  0  0  0  0  0  0  0  0
   44.4230   34.1880   41.9090 H   0  0  0  0  0  0  0  0  0  0  0  0
   43.1720   34.5980   43.7960 H   0  0  0  0  0  0  0  0  0  0  0  0
   43.4700   36.3450   43.5640 H   0  0  0  0  0  0  0  0  0  0  0  0
   45.5250   36.2390   44.8040 H   0  0  0  0  0  0  0  0  0  0  0  0
   44.2050   35.3360   45.7430 H   0  0  0  0  0  0  0  0  0  0  0  0
   44.9220   33.2860   44.5440 H   0  0  0  0  0  0  0  0  0  0  0  0
   47.7310   33.4720   43.5970 C   0  0  0  0  0  0  0  0  0  0  0  0
   47.9290   32.9540   44.5340 H   0  0  0  0  0  0  0  0  0  0  0  0
   48.6170   34.1140   43.3800 H   0  0  0  0  0  0  0  0  0  0  0  0
   47.4560   32.5210   42.4910 C   0  0  0  0  0  0  0  0  0  0  0  0
   47.0190   31.5880   42.8660 H   0  0  0  0  0  0  0  0  0  0  0  0
   46.7200   32.9410   41.7570 H   0  0  0  0  0  0  0  0  0  0  0  0
   51.0990   32.3320   41.6110 C   0  0  0  0  0  0  0  0  0  0  0  0
   49.9060   32.5870   42.2970 C   0  0  0  0  0  0  0  0  0  0  0  0
   48.7110   32.2410   41.7460 C   0  0  0  0  0  0  0  0  0  0  0  0
   48.7270   31.6590   40.5400 N   0  0  0  0  0  0  0  0  0  0  0  0
   49.8670   31.4090   39.8710 C   0  0  0  0  0  0  0  0  0  0  0  0
   51.0590   31.7370   40.3890 N   0  0  0  0  0  0  0  0  0  0  0  0
   52.0630   32.5800   41.9930 H   0  0  0  0  0  0  0  0  0  0  0  0
   50.0170   33.0620   43.2640 H   0  0  0  0  0  0  0  0  0  0  0  0
   49.7030   30.9380   38.9220 H   0  0  0  0  0  0  0  0  0  0  0  0
   46.2500   33.9780   45.9980 O   0  0  0  0  0  0  0  0  0  0  0  0
   45.6540   31.4100   45.6860 O   0  0  0  0  0  0  0  0  0  0  0  0
   46.0610   32.4840   46.7200 P   0  0  2  0  0  0  0  0  0  0  0  0
   44.6930   32.6100   47.7440 O   0  0  0  0  0  0  0  0  0  0  0  0
   44.9400   32.4370   48.6840 H   0  0  0  0  0  0  0  0  0  0  0  0
   47.3630   32.0020   47.6270 O   0  0  0  0  0  0  0  0  0  0  0  0
   47.6190   30.6610   47.3950 C   0  0  0  0  0  0  0  0  0  0  0  0
   46.7060   30.0550   47.4330 H   0  0  0  0  0  0  0  0  0  0  0  0
   48.0670   30.5250   46.3740 H   0  0  0  0  0  0  0  0  0  0  0  0
   48.5910   30.1020   48.4040 C   0  0  0  0  0  0  0  0  0  0  0  0
   49.2670   28.8440   48.1400 C   0  0  0  0  0  0  0  0  0  0  0  0
   49.1110   28.2630   47.2390 H   0  0  0  0  0  0  0  0  0  0  0  0
   50.2890   28.6700   49.6500 S   0  0  0  0  0  0  0  0  0  0  0  0
   49.6490   30.2860   50.3690 C   0  0  0  0  0  0  0  0  0  0  0  0
   49.9180   30.7420   51.3200 H   0  0  0  0  0  0  0  0  0  0  0  0
   48.8770   30.7020   49.5420 N   0  0  0  0  0  0  0  0  0  0  0  0
  1  6  1  0  0  0  0
  2  8  1  0  0  0  0
  2  1  1  0  0  0  0
  3  2  1  0  0  0  0
  3  4  1  0  0  0  0
  4 11  1  0  0  0  0
  4  5  1  0  0  0  0
  5 14  1  0  0  0  0
  6 15  1  6  0  0  0
  6  5  1  0  0  0  0
  6 31  1  0  0  0  0
  7  2  1  0  0  0  0
  9  3  1  0  0  0  0
 10  3  1  0  0  0  0
 12  4  1  0  0  0  0
 13  5  1  0  0  0  0
 16  1  1  0  0  0  0
 16 17  1  0  0  0  0
 18 16  1  0  0  0  0
 19 20  1  0  0  0  0
 19 16  1  0  0  0  0
 21 19  1  0  0  0  0
 22 28  1  0  0  0  0
 22 23  1  0  0  0  0
 23 29  1  0  0  0  0
 24 23  2  0  0  0  0
 24 19  1  0  0  0  0
 25 24  1  0  0  0  0
 26 27  1  0  0  0  0
 26 25  2  0  0  0  0
 27 22  2  0  0  0  0
 30 26  1  0  0  0  0
 31 33  1  0  0  0  0
 33 32  2  6  0  0  0
 33 36  1  0  0  0  0
 33 34  1  0  0  0  0
 34 35  1  0  0  0  0
 37 38  1  0  0  0  0
 37 36  1  0  0  0  0
 37 40  1  0  0  0  0
 39 37  1  0  0  0  0
 40 46  1  0  0  0  0
 41 40  2  0  0  0  0
 41 43  1  0  0  0  0
 42 41  1  0  0  0  0
 43 44  1  0  0  0  0
 44 45  1  0  0  0  0
 46 44  2  0  0  0  0
M  END
>  <minimizedAffinity>
-4.82716179

>  <minimizedRMSD>
2.79241443

$$$$
