
 OpenBabel03242519243D

 38 41  0  0  0  0  0  0  0  0999 V2000
   47.9020   33.7880   42.8890 C   0  0  0  0  0  0  0  0  0  0  0  0
   48.5810   35.0050   42.6610 C   0  0  0  0  0  0  0  0  0  0  0  0
   49.9540   34.9970   42.3410 C   0  0  0  0  0  0  0  0  0  0  0  0
   50.5510   33.7600   42.2740 N   0  0  0  0  0  0  0  0  0  0  0  0
   49.8580   32.6010   42.5030 C   0  0  0  0  0  0  0  0  0  0  0  0
   48.5700   32.6390   42.8000 N   0  0  0  0  0  0  0  0  0  0  0  0
   48.1940   36.0140   42.6930 H   0  0  0  0  0  0  0  0  0  0  0  0
   50.5290   35.8690   42.1570 H   0  0  0  0  0  0  0  0  0  0  0  0
   46.4780   33.9270   43.2200 C   0  0  0  0  0  0  0  0  0  0  0  0
   45.7850   34.9450   42.4320 C   0  0  0  0  0  0  0  0  0  0  0  0
   45.3360   36.1250   43.2110 C   0  0  0  0  0  0  0  0  0  0  0  0
   44.5040   35.7460   44.4280 C   0  0  0  0  0  0  0  0  0  0  0  0
   44.9780   34.5020   45.1320 C   0  0  0  0  0  0  0  0  0  0  0  0
   46.4100   34.1700   44.7390 C   0  0  0  0  0  0  0  0  0  0  0  0
   46.0120   32.9080   43.0680 H   0  0  0  0  0  0  0  0  0  0  0  0
   46.4710   35.3190   41.6400 H   0  0  0  0  0  0  0  0  0  0  0  0
   44.8910   34.5350   41.8820 H   0  0  0  0  0  0  0  0  0  0  0  0
   46.0900   36.8340   43.5370 H   0  0  0  0  0  0  0  0  0  0  0  0
   44.6360   36.7200   42.5540 H   0  0  0  0  0  0  0  0  0  0  0  0
   44.4280   36.6230   45.0820 H   0  0  0  0  0  0  0  0  0  0  0  0
   43.4740   35.5210   44.0690 H   0  0  0  0  0  0  0  0  0  0  0  0
   44.9730   34.6770   46.2200 H   0  0  0  0  0  0  0  0  0  0  0  0
   44.3410   33.6150   44.9060 H   0  0  0  0  0  0  0  0  0  0  0  0
   47.0930   34.9830   45.0350 H   0  0  0  0  0  0  0  0  0  0  0  0
   46.7020   33.2310   45.2200 H   0  0  0  0  0  0  0  0  0  0  0  0
   50.6430   31.3850   42.4090 C   0  0  0  0  0  0  0  0  0  0  0  0
   51.5190   31.2940   41.3710 N   0  0  0  0  0  0  0  0  0  0  0  0
   52.1720   30.1280   41.4270 C   0  0  0  0  0  0  0  0  0  0  0  0
   51.6940   29.4840   42.5190 N   0  0  0  0  0  0  0  0  0  0  0  0
   50.7590   30.2450   43.1220 N   0  0  0  0  0  0  0  0  0  0  0  0
   52.9410   29.7140   40.7710 H   0  0  0  0  0  0  0  0  0  0  0  0
   52.0640   28.1950   43.0260 C   0  0  0  0  0  0  0  0  0  0  0  0
   52.1390   27.7310   44.4120 C   0  0  0  0  0  0  0  0  0  0  0  0
   51.8200   28.6520   45.1610 H   0  0  0  0  0  0  0  0  0  0  0  0
   52.6850   25.9820   44.2240 S   0  0  0  0  0  0  0  0  0  0  0  0
   52.7120   26.1940   42.3400 C   0  0  0  0  0  0  0  0  0  0  0  0
   53.0450   25.1820   41.8720 H   0  0  0  0  0  0  0  0  0  0  0  0
   52.3900   27.2710   42.1450 N   0  0  0  0  0  0  0  0  0  0  0  0
  1  9  1  0  0  0  0
  2  7  1  0  0  0  0
  2  1  2  0  0  0  0
  3  2  1  0  0  0  0
  4  3  2  0  0  0  0
  4  5  1  0  0  0  0
  5  6  2  0  0  0  0
  6  1  1  0  0  0  0
  8  3  1  0  0  0  0
  9 14  1  0  0  0  0
 10 11  1  0  0  0  0
 10  9  1  0  0  0  0
 11 18  1  0  0  0  0
 11 12  1  0  0  0  0
 12 20  1  0  0  0  0
 12 13  1  0  0  0  0
 13 22  1  0  0  0  0
 14 24  1  0  0  0  0
 14 13  1  0  0  0  0
 14 25  1  0  0  0  0
 15  9  1  0  0  0  0
 16 10  1  0  0  0  0
 17 10  1  0  0  0  0
 19 11  1  0  0  0  0
 21 12  1  0  0  0  0
 23 13  1  0  0  0  0
 26  5  1  0  0  0  0
 26 30  2  0  0  0  0
 27 28  2  0  0  0  0
 27 26  1  0  0  0  0
 28 29  1  0  0  0  0
 29 32  1  0  0  0  0
 29 30  1  0  0  0  0
 31 28  1  0  0  0  0
 32 33  2  0  0  0  0
 33 34  1  0  0  0  0
 35 33  1  0  0  0  0
 36 35  1  0  0  0  0
 37 36  1  0  0  0  0
 38 36  2  0  0  0  0
 38 32  1  0  0  0  0
M  END
>  <minimizedAffinity>
-4.18725586

>  <minimizedRMSD>
0.48379308

$$$$
