
 OpenBabel03242512023D

 45 48  0  0  1  0  0  0  0  0999 V2000
   40.1190   28.5650   42.9300 C   0  0  2  0  0  0  0  0  0  0  0  0
   41.4210   28.0020   43.4170 C   0  0  0  0  0  0  0  0  0  0  0  0
   41.5520   26.5570   43.1370 C   0  0  0  0  0  0  0  0  0  0  0  0
   40.4090   25.7360   43.6800 C   0  0  0  0  0  0  0  0  0  0  0  0
   39.0680   26.4030   43.5400 C   0  0  0  0  0  0  0  0  0  0  0  0
   39.0890   27.5590   42.5660 C   0  0  1  0  0  0  0  0  0  0  0  0
   39.7110   29.1730   43.7940 H   0  0  0  0  0  0  0  0  0  0  0  0
   42.2410   28.5430   42.9180 H   0  0  0  0  0  0  0  0  0  0  0  0
   41.5690   28.1480   44.5060 H   0  0  0  0  0  0  0  0  0  0  0  0
   41.6290   26.4110   42.0360 H   0  0  0  0  0  0  0  0  0  0  0  0
   42.4960   26.1770   43.5900 H   0  0  0  0  0  0  0  0  0  0  0  0
   40.6040   25.4680   44.7420 H   0  0  0  0  0  0  0  0  0  0  0  0
   40.4550   24.7630   43.1110 H   0  0  0  0  0  0  0  0  0  0  0  0
   38.3760   25.6400   43.1420 H   0  0  0  0  0  0  0  0  0  0  0  0
   38.7130   26.7790   44.5030 H   0  0  0  0  0  0  0  0  0  0  0  0
   39.1690   27.1010   41.5700 H   0  0  0  0  0  0  0  0  0  0  0  0
   40.2910   29.5440   41.8390 C   0  0  0  0  0  0  0  0  0  0  0  0
   40.1940   30.8570   42.2650 C   0  0  0  0  0  0  0  0  0  0  0  0
   40.3420   31.9050   41.3400 C   0  0  0  0  0  0  0  0  0  0  0  0
   40.5840   31.5090   40.0180 N   0  0  0  0  0  0  0  0  0  0  0  0
   40.6690   30.2130   39.6550 C   0  0  0  0  0  0  0  0  0  0  0  0
   40.5210   29.2420   40.5770 N   0  0  0  0  0  0  0  0  0  0  0  0
   40.0090   31.3590   43.2030 H   0  0  0  0  0  0  0  0  0  0  0  0
   40.3030   32.9570   41.4660 H   0  0  0  0  0  0  0  0  0  0  0  0
   40.8560   29.9740   38.6270 H   0  0  0  0  0  0  0  0  0  0  0  0
   37.7440   28.2310   42.6260 C   0  0  2  0  0  0  0  0  0  0  0  0
   36.5740   27.4110   43.1460 C   0  0  0  0  0  0  0  0  0  0  0  0
   36.6410   27.7960   41.7250 C   0  0  1  0  0  0  0  0  0  0  0  0
   37.7510   29.2640   43.0370 H   0  0  0  0  0  0  0  0  0  0  0  0
   35.7780   27.9250   43.7430 H   0  0  0  0  0  0  0  0  0  0  0  0
   36.7120   26.3510   43.3760 H   0  0  0  0  0  0  0  0  0  0  0  0
   36.9380   27.0200   40.9810 H   0  0  0  0  0  0  0  0  0  0  0  0
   35.8870   28.9440   41.1250 C   0  0  0  0  0  0  0  0  0  0  0  0
   35.8520   28.8140   40.0140 H   0  0  0  0  0  0  0  0  0  0  0  0
   34.8320   28.9290   41.4650 H   0  0  0  0  0  0  0  0  0  0  0  0
   36.5020   30.2770   41.4110 C   0  0  0  0  0  0  0  0  0  0  0  0
   35.7410   30.8570   41.9830 H   0  0  0  0  0  0  0  0  0  0  0  0
   37.3420   30.1320   42.1110 H   0  0  0  0  0  0  0  0  0  0  0  0
   36.8860   30.9820   40.1760 C   0  0  0  0  0  0  0  0  0  0  0  0
   37.1290   30.2760   38.9790 C   0  0  0  0  0  0  0  0  0  0  0  0
   37.0560   29.1590   38.8620 H   0  0  0  0  0  0  0  0  0  0  0  0
   37.5660   31.6550   37.7800 S   0  0  0  0  0  0  0  0  0  0  0  0
   37.3240   32.9260   39.1720 C   0  0  0  0  0  0  0  0  0  0  0  0
   37.4690   33.9950   38.9970 H   0  0  0  0  0  0  0  0  0  0  0  0
   37.0390   32.2790   40.0490 N   0  0  0  0  0  0  0  0  0  0  0  0
  1  2  1  0  0  0  0
  1  7  1  1  0  0  0
  2  9  1  0  0  0  0
  3  2  1  0  0  0  0
  3 11  1  0  0  0  0
  3  4  1  0  0  0  0
  4 12  1  0  0  0  0
  5  4  1  0  0  0  0
  5 15  1  0  0  0  0
  6 16  1  6  0  0  0
  6 26  1  0  0  0  0
  6  1  1  0  0  0  0
  6  5  1  0  0  0  0
  8  2  1  0  0  0  0
 10  3  1  0  0  0  0
 13  4  1  0  0  0  0
 14  5  1  0  0  0  0
 17 18  1  0  0  0  0
 17  1  1  0  0  0  0
 18 23  1  0  0  0  0
 19 24  1  0  0  0  0
 19 18  2  0  0  0  0
 20 19  1  0  0  0  0
 21 20  2  0  0  0  0
 21 22  1  0  0  0  0
 22 17  2  0  0  0  0
 25 21  1  0  0  0  0
 26 29  1  1  0  0  0
 26 27  1  0  0  0  0
 27 31  1  0  0  0  0
 27 30  1  0  0  0  0
 28 32  1  6  0  0  0
 28 26  1  0  0  0  0
 28 27  1  0  0  0  0
 33 36  1  0  0  0  0
 33 35  1  0  0  0  0
 33 28  1  0  0  0  0
 34 33  1  0  0  0  0
 36 37  1  0  0  0  0
 36 38  1  0  0  0  0
 39 36  1  0  0  0  0
 40 39  2  0  0  0  0
 41 40  1  0  0  0  0
 42 40  1  0  0  0  0
 42 43  1  0  0  0  0
 43 45  2  0  0  0  0
 44 43  1  0  0  0  0
 45 39  1  0  0  0  0
M  END
>  <minimizedAffinity>
-5.26815939

$$$$

 OpenBabel03242512023D

 45 48  0  0  1  0  0  0  0  0999 V2000
   39.3070   26.1770   41.2860 C   0  0  2  0  0  0  0  0  0  0  0  0
   40.4790   25.2430   41.3330 C   0  0  0  0  0  0  0  0  0  0  0  0
   40.7830   24.7860   42.7050 C   0  0  0  0  0  0  0  0  0  0  0  0
   40.9970   25.9170   43.6800 C   0  0  0  0  0  0  0  0  0  0  0  0
   40.0620   27.0770   43.4710 C   0  0  0  0  0  0  0  0  0  0  0  0
   38.8780   26.7240   42.5980 C   0  0  1  0  0  0  0  0  0  0  0  0
   39.6420   27.0500   40.6470 H   0  0  0  0  0  0  0  0  0  0  0  0
   40.2520   24.3680   40.7030 H   0  0  0  0  0  0  0  0  0  0  0  0
   41.4030   25.6940   40.9170 H   0  0  0  0  0  0  0  0  0  0  0  0
   39.9510   24.1370   43.0590 H   0  0  0  0  0  0  0  0  0  0  0  0
   41.7070   24.1640   42.6910 H   0  0  0  0  0  0  0  0  0  0  0  0
   42.0550   26.2580   43.6420 H   0  0  0  0  0  0  0  0  0  0  0  0
   40.8660   25.4510   44.6980 H   0  0  0  0  0  0  0  0  0  0  0  0
   39.6730   27.3540   44.4670 H   0  0  0  0  0  0  0  0  0  0  0  0
   40.5780   27.9230   43.0110 H   0  0  0  0  0  0  0  0  0  0  0  0
   38.2380   26.0830   43.2210 H   0  0  0  0  0  0  0  0  0  0  0  0
   38.1520   25.6110   40.5610 C   0  0  0  0  0  0  0  0  0  0  0  0
   37.5360   24.5760   41.2410 C   0  0  0  0  0  0  0  0  0  0  0  0
   36.4150   23.9390   40.6790 C   0  0  0  0  0  0  0  0  0  0  0  0
   36.0090   24.4310   39.4320 N   0  0  0  0  0  0  0  0  0  0  0  0
   36.6470   25.4430   38.8110 C   0  0  0  0  0  0  0  0  0  0  0  0
   37.7170   26.0240   39.3880 N   0  0  0  0  0  0  0  0  0  0  0  0
   37.6920   24.0580   42.1760 H   0  0  0  0  0  0  0  0  0  0  0  0
   35.8140   23.1420   41.0370 H   0  0  0  0  0  0  0  0  0  0  0  0
   36.2870   25.7740   37.8570 H   0  0  0  0  0  0  0  0  0  0  0  0
   38.1050   27.9890   42.3430 C   0  0  2  0  0  0  0  0  0  0  0  0
   37.2600   28.5350   43.4820 C   0  0  0  0  0  0  0  0  0  0  0  0
   36.6180   27.9670   42.2840 C   0  0  1  0  0  0  0  0  0  0  0  0
   38.6700   28.7880   41.8160 H   0  0  0  0  0  0  0  0  0  0  0  0
   37.1610   29.6460   43.5970 H   0  0  0  0  0  0  0  0  0  0  0  0
   37.1630   27.9660   44.4100 H   0  0  0  0  0  0  0  0  0  0  0  0
   36.1720   26.9480   42.3570 H   0  0  0  0  0  0  0  0  0  0  0  0
   36.0640   28.7840   41.1550 C   0  0  0  0  0  0  0  0  0  0  0  0
   36.6020   28.5130   40.2130 H   0  0  0  0  0  0  0  0  0  0  0  0
   34.9990   28.5240   40.9810 H   0  0  0  0  0  0  0  0  0  0  0  0
   36.2080   30.2580   41.3580 C   0  0  0  0  0  0  0  0  0  0  0  0
   35.1910   30.6410   41.6090 H   0  0  0  0  0  0  0  0  0  0  0  0
   36.8140   30.4290   42.2640 H   0  0  0  0  0  0  0  0  0  0  0  0
   36.7450   30.9280   40.1610 C   0  0  0  0  0  0  0  0  0  0  0  0
   37.0940   30.1930   39.0090 C   0  0  0  0  0  0  0  0  0  0  0  0
   37.0010   29.0760   38.9030 H   0  0  0  0  0  0  0  0  0  0  0  0
   37.7000   31.5360   37.8430 S   0  0  0  0  0  0  0  0  0  0  0  0
   37.3470   32.8390   39.1800 C   0  0  0  0  0  0  0  0  0  0  0  0
   37.5420   33.9010   39.0050 H   0  0  0  0  0  0  0  0  0  0  0  0
   36.9490   32.2180   40.0310 N   0  0  0  0  0  0  0  0  0  0  0  0
  1  7  1  6  0  0  0
  1  2  1  0  0  0  0
  1  6  1  0  0  0  0
  2  3  1  0  0  0  0
  3 10  1  0  0  0  0
  3  4  1  0  0  0  0
  4 13  1  0  0  0  0
  5  4  1  0  0  0  0
  5 14  1  0  0  0  0
  6 16  1  1  0  0  0
  6  5  1  0  0  0  0
  8  2  1  0  0  0  0
  9  2  1  0  0  0  0
 11  3  1  0  0  0  0
 12  4  1  0  0  0  0
 15  5  1  0  0  0  0
 17 18  1  0  0  0  0
 17  1  1  0  0  0  0
 18 23  1  0  0  0  0
 19 24  1  0  0  0  0
 19 18  2  0  0  0  0
 20 19  1  0  0  0  0
 21 22  1  0  0  0  0
 21 20  2  0  0  0  0
 22 17  2  0  0  0  0
 25 21  1  0  0  0  0
 26 29  1  6  0  0  0
 26  6  1  0  0  0  0
 26 27  1  0  0  0  0
 27 30  1  0  0  0  0
 27 31  1  0  0  0  0
 28 26  1  0  0  0  0
 28 32  1  1  0  0  0
 28 27  1  0  0  0  0
 33 36  1  0  0  0  0
 33 28  1  0  0  0  0
 34 33  1  0  0  0  0
 35 33  1  0  0  0  0
 36 37  1  0  0  0  0
 36 38  1  0  0  0  0
 39 36  1  0  0  0  0
 40 39  2  0  0  0  0
 41 40  1  0  0  0  0
 42 40  1  0  0  0  0
 42 43  1  0  0  0  0
 43 45  2  0  0  0  0
 44 43  1  0  0  0  0
 45 39  1  0  0  0  0
M  END
>  <minimizedAffinity>
-5.21631336

$$$$

 OpenBabel03242512023D

 45 48  0  0  1  0  0  0  0  0999 V2000
   36.9650   25.9680   41.4820 C   0  0  2  0  0  0  0  0  0  0  0  0
   37.2050   24.6550   42.1650 C   0  0  0  0  0  0  0  0  0  0  0  0
   37.7060   23.6190   41.2370 C   0  0  0  0  0  0  0  0  0  0  0  0
   36.8190   23.4130   40.0350 C   0  0  0  0  0  0  0  0  0  0  0  0
   36.2410   24.6880   39.4860 C   0  0  0  0  0  0  0  0  0  0  0  0
   36.9520   25.9210   39.9980 C   0  0  1  0  0  0  0  0  0  0  0  0
   35.9370   26.3020   41.8210 H   0  0  0  0  0  0  0  0  0  0  0  0
   37.9440   24.8100   42.9670 H   0  0  0  0  0  0  0  0  0  0  0  0
   36.2940   24.2550   42.6540 H   0  0  0  0  0  0  0  0  0  0  0  0
   38.7300   23.9020   40.9040 H   0  0  0  0  0  0  0  0  0  0  0  0
   37.7880   22.6490   41.7770 H   0  0  0  0  0  0  0  0  0  0  0  0
   36.0090   22.6910   40.2790 H   0  0  0  0  0  0  0  0  0  0  0  0
   37.4720   22.8880   39.2790 H   0  0  0  0  0  0  0  0  0  0  0  0
   36.3800   24.6520   38.3900 H   0  0  0  0  0  0  0  0  0  0  0  0
   35.1820   24.7820   39.7360 H   0  0  0  0  0  0  0  0  0  0  0  0
   37.9270   25.9280   39.4900 H   0  0  0  0  0  0  0  0  0  0  0  0
   37.8720   27.0330   41.9550 C   0  0  0  0  0  0  0  0  0  0  0  0
   37.2560   27.9380   42.8020 C   0  0  0  0  0  0  0  0  0  0  0  0
   37.9930   29.0070   43.3400 C   0  0  0  0  0  0  0  0  0  0  0  0
   39.3390   29.0600   42.9550 N   0  0  0  0  0  0  0  0  0  0  0  0
   39.8910   28.1520   42.1260 C   0  0  0  0  0  0  0  0  0  0  0  0
   39.1460   27.1440   41.6340 N   0  0  0  0  0  0  0  0  0  0  0  0
   36.2620   28.0760   43.2020 H   0  0  0  0  0  0  0  0  0  0  0  0
   37.7080   29.7900   43.9950 H   0  0  0  0  0  0  0  0  0  0  0  0
   40.9280   28.2480   41.8680 H   0  0  0  0  0  0  0  0  0  0  0  0
   36.1970   27.1230   39.5020 C   0  0  2  0  0  0  0  0  0  0  0  0
   36.3380   27.4810   38.0320 C   0  0  0  0  0  0  0  0  0  0  0  0
   36.9260   28.3470   39.0690 C   0  0  1  0  0  0  0  0  0  0  0  0
   35.1460   27.1980   39.8550 H   0  0  0  0  0  0  0  0  0  0  0  0
   35.4550   27.9120   37.4930 H   0  0  0  0  0  0  0  0  0  0  0  0
   37.0370   26.9250   37.4000 H   0  0  0  0  0  0  0  0  0  0  0  0
   38.0290   28.3050   39.2310 H   0  0  0  0  0  0  0  0  0  0  0  0
   36.2960   29.6120   39.5690 C   0  0  0  0  0  0  0  0  0  0  0  0
   35.1840   29.4940   39.5540 H   0  0  0  0  0  0  0  0  0  0  0  0
   36.5680   29.7820   40.6310 H   0  0  0  0  0  0  0  0  0  0  0  0
   36.6400   30.8150   38.7490 C   0  0  0  0  0  0  0  0  0  0  0  0
   37.1820   30.4370   37.8500 H   0  0  0  0  0  0  0  0  0  0  0  0
   35.7050   31.2530   38.3610 H   0  0  0  0  0  0  0  0  0  0  0  0
   37.4660   31.7750   39.5000 C   0  0  0  0  0  0  0  0  0  0  0  0
   37.3440   33.1640   39.2880 C   0  0  0  0  0  0  0  0  0  0  0  0
   36.6370   33.6460   38.5570 H   0  0  0  0  0  0  0  0  0  0  0  0
   38.6080   33.8670   40.4890 S   0  0  0  0  0  0  0  0  0  0  0  0
   39.0470   32.1030   41.0410 C   0  0  0  0  0  0  0  0  0  0  0  0
   39.8070   31.9180   41.8040 H   0  0  0  0  0  0  0  0  0  0  0  0
   38.3640   31.4690   40.4080 N   0  0  0  0  0  0  0  0  0  0  0  0
  1  7  1  1  0  0  0
  1 17  1  0  0  0  0
  1  2  1  0  0  0  0
  2  9  1  0  0  0  0
  2  8  1  0  0  0  0
  3 11  1  0  0  0  0
  3  2  1  0  0  0  0
  4 12  1  0  0  0  0
  4  3  1  0  0  0  0
  5 15  1  0  0  0  0
  5  6  1  0  0  0  0
  5  4  1  0  0  0  0
  6 16  1  6  0  0  0
  6  1  1  0  0  0  0
 10  3  1  0  0  0  0
 13  4  1  0  0  0  0
 14  5  1  0  0  0  0
 17 18  1  0  0  0  0
 18 23  1  0  0  0  0
 18 19  2  0  0  0  0
 19 24  1  0  0  0  0
 20 19  1  0  0  0  0
 21 20  2  0  0  0  0
 22 17  2  0  0  0  0
 22 21  1  0  0  0  0
 25 21  1  0  0  0  0
 26 29  1  1  0  0  0
 26  6  1  0  0  0  0
 27 28  1  0  0  0  0
 27 26  1  0  0  0  0
 28 32  1  1  0  0  0
 28 26  1  0  0  0  0
 28 33  1  0  0  0  0
 30 27  1  0  0  0  0
 31 27  1  0  0  0  0
 33 35  1  0  0  0  0
 34 33  1  0  0  0  0
 36 39  1  0  0  0  0
 36 33  1  0  0  0  0
 37 36  1  0  0  0  0
 38 36  1  0  0  0  0
 39 45  1  0  0  0  0
 40 39  2  0  0  0  0
 40 42  1  0  0  0  0
 41 40  1  0  0  0  0
 42 43  1  0  0  0  0
 43 44  1  0  0  0  0
 45 43  2  0  0  0  0
M  END
>  <minimizedAffinity>
-5.187222

$$$$

 OpenBabel03242512023D

 45 48  0  0  1  0  0  0  0  0999 V2000
   38.5600   27.9550   42.8430 C   0  0  2  0  0  0  0  0  0  0  0  0
   39.2200   26.8180   43.5640 C   0  0  0  0  0  0  0  0  0  0  0  0
   39.1680   25.5560   42.7960 C   0  0  0  0  0  0  0  0  0  0  0  0
   37.7700   25.1580   42.3920 C   0  0  0  0  0  0  0  0  0  0  0  0
   36.9100   26.3190   41.9760 C   0  0  0  0  0  0  0  0  0  0  0  0
   37.7120   27.5680   41.6870 C   0  0  1  0  0  0  0  0  0  0  0  0
   37.8860   28.4480   43.6090 H   0  0  0  0  0  0  0  0  0  0  0  0
   40.2720   27.0860   43.7460 H   0  0  0  0  0  0  0  0  0  0  0  0
   38.7710   26.6240   44.5590 H   0  0  0  0  0  0  0  0  0  0  0  0
   39.8050   25.6610   41.8900 H   0  0  0  0  0  0  0  0  0  0  0  0
   39.5970   24.7320   43.4100 H   0  0  0  0  0  0  0  0  0  0  0  0
   37.2840   24.5870   43.2140 H   0  0  0  0  0  0  0  0  0  0  0  0
   37.9100   24.4180   41.5530 H   0  0  0  0  0  0  0  0  0  0  0  0
   36.4060   26.0200   41.0390 H   0  0  0  0  0  0  0  0  0  0  0  0
   36.1740   26.5620   42.7470 H   0  0  0  0  0  0  0  0  0  0  0  0
   38.2260   27.3710   40.7350 H   0  0  0  0  0  0  0  0  0  0  0  0
   39.5110   29.0150   42.4530 C   0  0  0  0  0  0  0  0  0  0  0  0
   40.4640   28.5850   41.5470 C   0  0  0  0  0  0  0  0  0  0  0  0
   41.4370   29.4840   41.0760 C   0  0  0  0  0  0  0  0  0  0  0  0
   41.3480   30.7850   41.5870 N   0  0  0  0  0  0  0  0  0  0  0  0
   40.3970   31.1530   42.4690 C   0  0  0  0  0  0  0  0  0  0  0  0
   39.4850   30.2570   42.8930 N   0  0  0  0  0  0  0  0  0  0  0  0
   40.7050   27.6550   41.0530 H   0  0  0  0  0  0  0  0  0  0  0  0
   42.2370   29.3510   40.3930 H   0  0  0  0  0  0  0  0  0  0  0  0
   40.3820   32.1650   42.8240 H   0  0  0  0  0  0  0  0  0  0  0  0
   36.7400   28.6870   41.4300 C   0  0  2  0  0  0  0  0  0  0  0  0
   35.8820   28.5950   40.1780 C   0  0  0  0  0  0  0  0  0  0  0  0
   36.9410   29.6140   40.2820 C   0  0  1  0  0  0  0  0  0  0  0  0
   36.1580   29.0190   42.3170 H   0  0  0  0  0  0  0  0  0  0  0  0
   34.8340   28.9890   40.2120 H   0  0  0  0  0  0  0  0  0  0  0  0
   36.0460   27.7840   39.4630 H   0  0  0  0  0  0  0  0  0  0  0  0
   37.8900   29.4480   39.7210 H   0  0  0  0  0  0  0  0  0  0  0  0
   36.6990   31.0490   40.6390 C   0  0  0  0  0  0  0  0  0  0  0  0
   35.6450   31.1620   40.9950 H   0  0  0  0  0  0  0  0  0  0  0  0
   37.3410   31.3450   41.4950 H   0  0  0  0  0  0  0  0  0  0  0  0
   36.9000   31.9910   39.4950 C   0  0  0  0  0  0  0  0  0  0  0  0
   36.7590   31.3900   38.5660 H   0  0  0  0  0  0  0  0  0  0  0  0
   36.0730   32.7220   39.4940 H   0  0  0  0  0  0  0  0  0  0  0  0
   38.2320   32.6170   39.5240 C   0  0  0  0  0  0  0  0  0  0  0  0
   38.5110   33.7000   40.3840 C   0  0  0  0  0  0  0  0  0  0  0  0
   37.7730   34.1670   41.0940 H   0  0  0  0  0  0  0  0  0  0  0  0
   40.3130   34.0680   39.9970 S   0  0  0  0  0  0  0  0  0  0  0  0
   40.3170   32.6530   38.7290 C   0  0  0  0  0  0  0  0  0  0  0  0
   41.2130   32.4090   38.1530 H   0  0  0  0  0  0  0  0  0  0  0  0
   39.2640   32.2600   38.7950 N   0  0  0  0  0  0  0  0  0  0  0  0
  1  2  1  0  0  0  0
  1  7  1  1  0  0  0
  2  8  1  0  0  0  0
  2  9  1  0  0  0  0
  3 11  1  0  0  0  0
  3  2  1  0  0  0  0
  4  3  1  0  0  0  0
  4 12  1  0  0  0  0
  5  4  1  0  0  0  0
  5 15  1  0  0  0  0
  6 16  1  6  0  0  0
  6  5  1  0  0  0  0
  6  1  1  0  0  0  0
 10  3  1  0  0  0  0
 13  4  1  0  0  0  0
 14  5  1  0  0  0  0
 17  1  1  0  0  0  0
 17 22  1  0  0  0  0
 18 17  2  0  0  0  0
 19 18  1  0  0  0  0
 19 20  2  0  0  0  0
 20 21  1  0  0  0  0
 21 25  1  0  0  0  0
 21 22  2  0  0  0  0
 23 18  1  0  0  0  0
 24 19  1  0  0  0  0
 26  6  1  0  0  0  0
 26 29  1  1  0  0  0
 27 30  1  0  0  0  0
 27 28  1  0  0  0  0
 27 26  1  0  0  0  0
 28 32  1  6  0  0  0
 28 33  1  0  0  0  0
 28 26  1  0  0  0  0
 31 27  1  0  0  0  0
 33 34  1  0  0  0  0
 33 35  1  0  0  0  0
 36 39  1  0  0  0  0
 36 33  1  0  0  0  0
 37 36  1  0  0  0  0
 38 36  1  0  0  0  0
 39 40  2  0  0  0  0
 40 41  1  0  0  0  0
 42 40  1  0  0  0  0
 43 45  2  0  0  0  0
 43 42  1  0  0  0  0
 44 43  1  0  0  0  0
 45 39  1  0  0  0  0
M  END
>  <minimizedAffinity>
-5.03322124

$$$$

 OpenBabel03242512023D

 45 48  0  0  1  0  0  0  0  0999 V2000
   37.7580   26.1400   39.8370 C   0  0  2  0  0  0  0  0  0  0  0  0
   37.9620   24.8870   39.0380 C   0  0  0  0  0  0  0  0  0  0  0  0
   37.1480   23.7600   39.5390 C   0  0  0  0  0  0  0  0  0  0  0  0
   37.3620   23.4690   41.0030 C   0  0  0  0  0  0  0  0  0  0  0  0
   37.5210   24.7050   41.8450 C   0  0  0  0  0  0  0  0  0  0  0  0
   37.0630   25.9600   41.1360 C   0  0  1  0  0  0  0  0  0  0  0  0
   38.7990   26.5290   40.0590 H   0  0  0  0  0  0  0  0  0  0  0  0
   37.6880   25.0940   37.9920 H   0  0  0  0  0  0  0  0  0  0  0  0
   39.0200   24.5570   39.0240 H   0  0  0  0  0  0  0  0  0  0  0  0
   36.0730   23.9850   39.3540 H   0  0  0  0  0  0  0  0  0  0  0  0
   37.3990   22.8400   38.9640 H   0  0  0  0  0  0  0  0  0  0  0  0
   38.2370   22.7940   41.1330 H   0  0  0  0  0  0  0  0  0  0  0  0
   36.4640   22.8630   41.3130 H   0  0  0  0  0  0  0  0  0  0  0  0
   36.8780   24.5680   42.7330 H   0  0  0  0  0  0  0  0  0  0  0  0
   38.5620   24.8490   42.1450 H   0  0  0  0  0  0  0  0  0  0  0  0
   35.9650   25.8960   41.1100 H   0  0  0  0  0  0  0  0  0  0  0  0
   37.1210   27.2190   39.0560 C   0  0  0  0  0  0  0  0  0  0  0  0
   38.0270   28.1320   38.5460 C   0  0  0  0  0  0  0  0  0  0  0  0
   37.5700   29.2150   37.7750 C   0  0  0  0  0  0  0  0  0  0  0  0
   36.1840   29.2730   37.5850 N   0  0  0  0  0  0  0  0  0  0  0  0
   35.3430   28.3570   38.1050 C   0  0  0  0  0  0  0  0  0  0  0  0
   35.8260   27.3350   38.8390 N   0  0  0  0  0  0  0  0  0  0  0  0
   39.0980   28.2680   38.5830 H   0  0  0  0  0  0  0  0  0  0  0  0
   38.0960   30.0060   37.3040 H   0  0  0  0  0  0  0  0  0  0  0  0
   34.2910   28.4560   37.9240 H   0  0  0  0  0  0  0  0  0  0  0  0
   37.4070   27.1320   42.0130 C   0  0  2  0  0  0  0  0  0  0  0  0
   36.5720   27.3380   43.2670 C   0  0  0  0  0  0  0  0  0  0  0  0
   36.4690   28.2820   42.1400 C   0  0  1  0  0  0  0  0  0  0  0  0
   38.4930   27.2780   42.2010 H   0  0  0  0  0  0  0  0  0  0  0  0
   37.0680   27.7430   44.1860 H   0  0  0  0  0  0  0  0  0  0  0  0
   35.7050   26.6990   43.4550 H   0  0  0  0  0  0  0  0  0  0  0  0
   35.5750   28.2190   41.4770 H   0  0  0  0  0  0  0  0  0  0  0  0
   37.1610   29.6110   42.0860 C   0  0  0  0  0  0  0  0  0  0  0  0
   37.1000   30.0920   43.0940 H   0  0  0  0  0  0  0  0  0  0  0  0
   38.2420   29.4720   41.8820 H   0  0  0  0  0  0  0  0  0  0  0  0
   36.5650   30.5550   41.0910 C   0  0  0  0  0  0  0  0  0  0  0  0
   36.2030   29.9280   40.2420 H   0  0  0  0  0  0  0  0  0  0  0  0
   35.6550   30.9980   41.5310 H   0  0  0  0  0  0  0  0  0  0  0  0
   37.5390   31.5570   40.6310 C   0  0  0  0  0  0  0  0  0  0  0  0
   38.9230   31.2850   40.6360 C   0  0  0  0  0  0  0  0  0  0  0  0
   39.3900   30.3200   40.9790 H   0  0  0  0  0  0  0  0  0  0  0  0
   39.6510   32.8810   39.9620 S   0  0  0  0  0  0  0  0  0  0  0  0
   37.8990   33.6000   39.8080 C   0  0  0  0  0  0  0  0  0  0  0  0
   37.7310   34.6110   39.4270 H   0  0  0  0  0  0  0  0  0  0  0  0
   37.2530   32.7580   40.1840 N   0  0  0  0  0  0  0  0  0  0  0  0
  1  7  1  1  0  0  0
  1  6  1  0  0  0  0
  2  3  1  0  0  0  0
  2  1  1  0  0  0  0
  3  4  1  0  0  0  0
  4 12  1  0  0  0  0
  4 13  1  0  0  0  0
  4  5  1  0  0  0  0
  5 15  1  0  0  0  0
  5 14  1  0  0  0  0
  6 16  1  6  0  0  0
  6  5  1  0  0  0  0
  6 26  1  0  0  0  0
  8  2  1  0  0  0  0
  9  2  1  0  0  0  0
 10  3  1  0  0  0  0
 11  3  1  0  0  0  0
 17  1  1  0  0  0  0
 18 23  1  0  0  0  0
 18 17  2  0  0  0  0
 19 18  1  0  0  0  0
 20 19  2  0  0  0  0
 20 21  1  0  0  0  0
 21 22  2  0  0  0  0
 22 17  1  0  0  0  0
 24 19  1  0  0  0  0
 25 21  1  0  0  0  0
 26 28  1  0  0  0  0
 26 29  1  1  0  0  0
 26 27  1  0  0  0  0
 27 31  1  0  0  0  0
 27 30  1  0  0  0  0
 28 32  1  6  0  0  0
 28 27  1  0  0  0  0
 33 28  1  0  0  0  0
 33 34  1  0  0  0  0
 35 33  1  0  0  0  0
 36 38  1  0  0  0  0
 36 33  1  0  0  0  0
 37 36  1  0  0  0  0
 39 40  2  0  0  0  0
 39 36  1  0  0  0  0
 40 41  1  0  0  0  0
 42 40  1  0  0  0  0
 43 42  1  0  0  0  0
 43 45  2  0  0  0  0
 44 43  1  0  0  0  0
 45 39  1  0  0  0  0
M  END
>  <minimizedAffinity>
-5.00242043

$$$$

 OpenBabel03242512023D

 45 48  0  0  1  0  0  0  0  0999 V2000
   38.5970   30.7310   40.4130 C   0  0  2  0  0  0  0  0  0  0  0  0
   39.2810   32.0060   40.8070 C   0  0  0  0  0  0  0  0  0  0  0  0
   38.3700   33.1690   40.7750 C   0  0  0  0  0  0  0  0  0  0  0  0
   37.6790   33.3530   39.4470 C   0  0  0  0  0  0  0  0  0  0  0  0
   37.2600   32.0600   38.8020 C   0  0  0  0  0  0  0  0  0  0  0  0
   37.2710   30.8950   39.7660 C   0  0  1  0  0  0  0  0  0  0  0  0
   39.2860   30.2400   39.6590 H   0  0  0  0  0  0  0  0  0  0  0  0
   39.6790   31.8860   41.8270 H   0  0  0  0  0  0  0  0  0  0  0  0
   40.1500   32.2430   40.1610 H   0  0  0  0  0  0  0  0  0  0  0  0
   37.6100   33.0510   41.5800 H   0  0  0  0  0  0  0  0  0  0  0  0
   38.9460   34.0960   40.9960 H   0  0  0  0  0  0  0  0  0  0  0  0
   38.3260   33.9400   38.7600 H   0  0  0  0  0  0  0  0  0  0  0  0
   36.7950   34.0160   39.6690 H   0  0  0  0  0  0  0  0  0  0  0  0
   36.2200   32.2010   38.4580 H   0  0  0  0  0  0  0  0  0  0  0  0
   37.9110   31.8080   37.9620 H   0  0  0  0  0  0  0  0  0  0  0  0
   36.4090   31.0560   40.4290 H   0  0  0  0  0  0  0  0  0  0  0  0
   38.5130   29.7600   41.5220 C   0  0  0  0  0  0  0  0  0  0  0  0
   39.6740   29.0270   41.6940 C   0  0  0  0  0  0  0  0  0  0  0  0
   39.7490   28.0650   42.7170 C   0  0  0  0  0  0  0  0  0  0  0  0
   38.5950   27.9320   43.5000 N   0  0  0  0  0  0  0  0  0  0  0  0
   37.4880   28.6720   43.2900 C   0  0  0  0  0  0  0  0  0  0  0  0
   37.4620   29.5820   42.2970 N   0  0  0  0  0  0  0  0  0  0  0  0
   40.6380   28.9710   41.2100 H   0  0  0  0  0  0  0  0  0  0  0  0
   40.5340   27.4140   43.0050 H   0  0  0  0  0  0  0  0  0  0  0  0
   36.6360   28.5220   43.9240 H   0  0  0  0  0  0  0  0  0  0  0  0
   36.9820   29.6470   38.9780 C   0  0  2  0  0  0  0  0  0  0  0  0
   35.7650   29.6590   38.0670 C   0  0  0  0  0  0  0  0  0  0  0  0
   35.7800   28.8230   39.2800 C   0  0  1  0  0  0  0  0  0  0  0  0
   37.8670   29.1810   38.4920 H   0  0  0  0  0  0  0  0  0  0  0  0
   35.8090   29.0980   37.0990 H   0  0  0  0  0  0  0  0  0  0  0  0
   35.0910   30.5200   38.0700 H   0  0  0  0  0  0  0  0  0  0  0  0
   35.1990   29.1690   40.1670 H   0  0  0  0  0  0  0  0  0  0  0  0
   36.0640   27.3510   39.2870 C   0  0  0  0  0  0  0  0  0  0  0  0
   35.6090   26.8980   40.2030 H   0  0  0  0  0  0  0  0  0  0  0  0
   35.5650   26.8600   38.4270 H   0  0  0  0  0  0  0  0  0  0  0  0
   37.5230   27.0250   39.2920 C   0  0  0  0  0  0  0  0  0  0  0  0
   37.7640   26.6530   38.2680 H   0  0  0  0  0  0  0  0  0  0  0  0
   38.0910   27.9640   39.4000 H   0  0  0  0  0  0  0  0  0  0  0  0
   37.8590   26.0190   40.3130 C   0  0  0  0  0  0  0  0  0  0  0  0
   39.1260   25.3990   40.3380 C   0  0  0  0  0  0  0  0  0  0  0  0
   39.9600   25.6060   39.6110 H   0  0  0  0  0  0  0  0  0  0  0  0
   38.9810   24.2450   41.8140 S   0  0  0  0  0  0  0  0  0  0  0  0
   37.2030   24.8510   42.0980 C   0  0  0  0  0  0  0  0  0  0  0  0
   36.5930   24.4610   42.9170 H   0  0  0  0  0  0  0  0  0  0  0  0
   37.0630   25.6020   41.2700 N   0  0  0  0  0  0  0  0  0  0  0  0
  1  7  1  6  0  0  0
  1  2  1  0  0  0  0
  1 17  1  0  0  0  0
  2  8  1  0  0  0  0
  3  2  1  0  0  0  0
  3 11  1  0  0  0  0
  3 10  1  0  0  0  0
  4 13  1  0  0  0  0
  4  3  1  0  0  0  0
  5  4  1  0  0  0  0
  5  6  1  0  0  0  0
  6  1  1  0  0  0  0
  6 16  1  1  0  0  0
  9  2  1  0  0  0  0
 12  4  1  0  0  0  0
 14  5  1  0  0  0  0
 15  5  1  0  0  0  0
 17 18  2  0  0  0  0
 17 22  1  0  0  0  0
 18 19  1  0  0  0  0
 19 24  1  0  0  0  0
 19 20  2  0  0  0  0
 21 20  1  0  0  0  0
 21 25  1  0  0  0  0
 22 21  2  0  0  0  0
 23 18  1  0  0  0  0
 26 29  1  6  0  0  0
 26 28  1  0  0  0  0
 26  6  1  0  0  0  0
 27 31  1  0  0  0  0
 27 26  1  0  0  0  0
 27 28  1  0  0  0  0
 28 33  1  0  0  0  0
 28 32  1  1  0  0  0
 30 27  1  0  0  0  0
 33 36  1  0  0  0  0
 33 34  1  0  0  0  0
 35 33  1  0  0  0  0
 36 38  1  0  0  0  0
 36 39  1  0  0  0  0
 37 36  1  0  0  0  0
 39 40  2  0  0  0  0
 39 45  1  0  0  0  0
 40 42  1  0  0  0  0
 41 40  1  0  0  0  0
 42 43  1  0  0  0  0
 43 44  1  0  0  0  0
 45 43  2  0  0  0  0
M  END
>  <minimizedAffinity>
-4.92234039

$$$$

 OpenBabel03242512023D

 45 48  0  0  1  0  0  0  0  0999 V2000
   38.8630   32.2250   40.9530 C   0  0  2  0  0  0  0  0  0  0  0  0
   38.9890   33.5110   40.1910 C   0  0  0  0  0  0  0  0  0  0  0  0
   40.2660   33.6070   39.4530 C   0  0  0  0  0  0  0  0  0  0  0  0
   41.4800   33.4130   40.3270 C   0  0  0  0  0  0  0  0  0  0  0  0
   41.3040   32.3490   41.3750 C   0  0  0  0  0  0  0  0  0  0  0  0
   40.1200   31.4480   41.1020 C   0  0  1  0  0  0  0  0  0  0  0  0
   38.5210   32.5220   41.9920 H   0  0  0  0  0  0  0  0  0  0  0  0
   38.1530   33.5750   39.4770 H   0  0  0  0  0  0  0  0  0  0  0  0
   38.9110   34.4040   40.8430 H   0  0  0  0  0  0  0  0  0  0  0  0
   40.2670   32.8490   38.6380 H   0  0  0  0  0  0  0  0  0  0  0  0
   40.3410   34.6100   38.9750 H   0  0  0  0  0  0  0  0  0  0  0  0
   41.7680   34.3790   40.7970 H   0  0  0  0  0  0  0  0  0  0  0  0
   42.3150   33.1640   39.6130 H   0  0  0  0  0  0  0  0  0  0  0  0
   42.2140   31.7240   41.3480 H   0  0  0  0  0  0  0  0  0  0  0  0
   41.1700   32.7890   42.3670 H   0  0  0  0  0  0  0  0  0  0  0  0
   40.4220   30.8200   40.2520 H   0  0  0  0  0  0  0  0  0  0  0  0
   37.7810   31.3610   40.4420 C   0  0  0  0  0  0  0  0  0  0  0  0
   38.0390   30.8510   39.1810 C   0  0  0  0  0  0  0  0  0  0  0  0
   37.1020   30.0050   38.5640 C   0  0  0  0  0  0  0  0  0  0  0  0
   35.9460   29.7430   39.3110 N   0  0  0  0  0  0  0  0  0  0  0  0
   35.7430   30.2660   40.5360 C   0  0  0  0  0  0  0  0  0  0  0  0
   36.6690   31.0730   41.0900 N   0  0  0  0  0  0  0  0  0  0  0  0
   38.8360   30.9350   38.4570 H   0  0  0  0  0  0  0  0  0  0  0  0
   37.1150   29.5220   37.6200 H   0  0  0  0  0  0  0  0  0  0  0  0
   34.8370   30.0280   41.0580 H   0  0  0  0  0  0  0  0  0  0  0  0
   39.9610   30.5310   42.2830 C   0  0  2  0  0  0  0  0  0  0  0  0
   41.0060   29.4440   42.4710 C   0  0  0  0  0  0  0  0  0  0  0  0
   39.6290   29.0930   42.0840 C   0  0  1  0  0  0  0  0  0  0  0  0
   39.6990   31.0340   43.2390 H   0  0  0  0  0  0  0  0  0  0  0  0
   41.3000   29.1510   43.5120 H   0  0  0  0  0  0  0  0  0  0  0  0
   41.7830   29.2980   41.7160 H   0  0  0  0  0  0  0  0  0  0  0  0
   39.4340   28.8110   41.0230 H   0  0  0  0  0  0  0  0  0  0  0  0
   38.5840   28.5950   43.0380 C   0  0  0  0  0  0  0  0  0  0  0  0
   38.4960   29.3170   43.8880 H   0  0  0  0  0  0  0  0  0  0  0  0
   37.5900   28.5840   42.5450 H   0  0  0  0  0  0  0  0  0  0  0  0
   38.8920   27.2480   43.6100 C   0  0  0  0  0  0  0  0  0  0  0  0
   39.9990   27.2060   43.7330 H   0  0  0  0  0  0  0  0  0  0  0  0
   38.4840   27.2020   44.6340 H   0  0  0  0  0  0  0  0  0  0  0  0
   38.4140   26.1600   42.7420 C   0  0  0  0  0  0  0  0  0  0  0  0
   37.1710   26.2470   42.0800 C   0  0  0  0  0  0  0  0  0  0  0  0
   36.4600   27.1170   42.1530 H   0  0  0  0  0  0  0  0  0  0  0  0
   37.0960   24.6180   41.1460 S   0  0  0  0  0  0  0  0  0  0  0  0
   38.7950   24.1470   41.8550 C   0  0  0  0  0  0  0  0  0  0  0  0
   39.2710   23.1960   41.6070 H   0  0  0  0  0  0  0  0  0  0  0  0
   39.0520   25.0400   42.4920 N   0  0  0  0  0  0  0  0  0  0  0  0
  1  6  1  0  0  0  0
  1  7  1  1  0  0  0
  2  9  1  0  0  0  0
  2  1  1  0  0  0  0
  3  2  1  0  0  0  0
  3  4  1  0  0  0  0
  4 12  1  0  0  0  0
  4  5  1  0  0  0  0
  5 15  1  0  0  0  0
  6 16  1  6  0  0  0
  6  5  1  0  0  0  0
  6 26  1  0  0  0  0
  8  2  1  0  0  0  0
 10  3  1  0  0  0  0
 11  3  1  0  0  0  0
 13  4  1  0  0  0  0
 14  5  1  0  0  0  0
 17  1  1  0  0  0  0
 17 22  1  0  0  0  0
 18 17  2  0  0  0  0
 19 18  1  0  0  0  0
 19 20  2  0  0  0  0
 20 21  1  0  0  0  0
 21 25  1  0  0  0  0
 21 22  2  0  0  0  0
 23 18  1  0  0  0  0
 24 19  1  0  0  0  0
 26 27  1  0  0  0  0
 26 29  1  1  0  0  0
 27 30  1  0  0  0  0
 28 32  1  6  0  0  0
 28 26  1  0  0  0  0
 28 27  1  0  0  0  0
 28 33  1  0  0  0  0
 31 27  1  0  0  0  0
 33 36  1  0  0  0  0
 33 34  1  0  0  0  0
 35 33  1  0  0  0  0
 36 37  1  0  0  0  0
 36 38  1  0  0  0  0
 39 36  1  0  0  0  0
 40 41  1  0  0  0  0
 40 39  2  0  0  0  0
 42 43  1  0  0  0  0
 42 40  1  0  0  0  0
 43 45  2  0  0  0  0
 44 43  1  0  0  0  0
 45 39  1  0  0  0  0
M  END
>  <minimizedAffinity>
-4.86958981

$$$$

 OpenBabel03242512023D

 45 48  0  0  1  0  0  0  0  0999 V2000
   39.0470   29.8690   42.1330 C   0  0  2  0  0  0  0  0  0  0  0  0
   40.2470   30.6190   42.6290 C   0  0  0  0  0  0  0  0  0  0  0  0
   41.4940   29.8350   42.5020 C   0  0  0  0  0  0  0  0  0  0  0  0
   41.4250   28.4860   43.1720 C   0  0  0  0  0  0  0  0  0  0  0  0
   40.0950   27.8010   43.0120 C   0  0  0  0  0  0  0  0  0  0  0  0
   39.2490   28.4140   41.9180 C   0  0  1  0  0  0  0  0  0  0  0  0
   38.2610   29.9880   42.9410 H   0  0  0  0  0  0  0  0  0  0  0  0
   40.3430   31.5470   42.0460 H   0  0  0  0  0  0  0  0  0  0  0  0
   40.1510   30.9260   43.6900 H   0  0  0  0  0  0  0  0  0  0  0  0
   41.7270   29.7060   41.4220 H   0  0  0  0  0  0  0  0  0  0  0  0
   42.3350   30.4040   42.9580 H   0  0  0  0  0  0  0  0  0  0  0  0
   41.6870   28.5810   44.2490 H   0  0  0  0  0  0  0  0  0  0  0  0
   42.2620   27.8890   42.7100 H   0  0  0  0  0  0  0  0  0  0  0  0
   40.3100   26.7560   42.7230 H   0  0  0  0  0  0  0  0  0  0  0  0
   39.5200   27.8320   43.9400 H   0  0  0  0  0  0  0  0  0  0  0  0
   39.7270   28.1110   40.9750 H   0  0  0  0  0  0  0  0  0  0  0  0
   38.4400   30.4870   40.9370 C   0  0  0  0  0  0  0  0  0  0  0  0
   39.2010   30.3210   39.7930 C   0  0  0  0  0  0  0  0  0  0  0  0
   38.7500   30.8500   38.5710 C   0  0  0  0  0  0  0  0  0  0  0  0
   37.5230   31.5230   38.6250 N   0  0  0  0  0  0  0  0  0  0  0  0
   36.8210   31.6570   39.7680 C   0  0  0  0  0  0  0  0  0  0  0  0
   37.2920   31.1340   40.9160 N   0  0  0  0  0  0  0  0  0  0  0  0
   40.1460   29.8590   39.5470 H   0  0  0  0  0  0  0  0  0  0  0  0
   39.1790   30.8280   37.6020 H   0  0  0  0  0  0  0  0  0  0  0  0
   35.8880   32.1850   39.7440 H   0  0  0  0  0  0  0  0  0  0  0  0
   37.9010   27.7470   41.9550 C   0  0  2  0  0  0  0  0  0  0  0  0
   37.0610   27.9370   43.2070 C   0  0  0  0  0  0  0  0  0  0  0  0
   37.6410   26.6200   42.8920 C   0  0  1  0  0  0  0  0  0  0  0  0
   37.3010   27.8460   41.0250 H   0  0  0  0  0  0  0  0  0  0  0  0
   35.9470   28.0050   43.1040 H   0  0  0  0  0  0  0  0  0  0  0  0
   37.4770   28.4660   44.0680 H   0  0  0  0  0  0  0  0  0  0  0  0
   38.5370   26.2860   43.4670 H   0  0  0  0  0  0  0  0  0  0  0  0
   36.8840   25.4930   42.2570 C   0  0  0  0  0  0  0  0  0  0  0  0
   36.0240   25.2160   42.9180 H   0  0  0  0  0  0  0  0  0  0  0  0
   36.4340   25.8250   41.2990 H   0  0  0  0  0  0  0  0  0  0  0  0
   37.7100   24.2650   42.0410 C   0  0  0  0  0  0  0  0  0  0  0  0
   38.7640   24.5550   42.2590 H   0  0  0  0  0  0  0  0  0  0  0  0
   37.4470   23.5260   42.8170 H   0  0  0  0  0  0  0  0  0  0  0  0
   37.5750   23.7460   40.6700 C   0  0  0  0  0  0  0  0  0  0  0  0
   37.9590   22.4270   40.3490 C   0  0  0  0  0  0  0  0  0  0  0  0
   38.3870   21.6830   41.0770 H   0  0  0  0  0  0  0  0  0  0  0  0
   37.5710   22.3310   38.5120 S   0  0  0  0  0  0  0  0  0  0  0  0
   36.9560   24.1280   38.5600 C   0  0  0  0  0  0  0  0  0  0  0  0
   36.5780   24.6240   37.6630 H   0  0  0  0  0  0  0  0  0  0  0  0
   37.1070   24.4110   39.6400 N   0  0  0  0  0  0  0  0  0  0  0  0
  1  2  1  0  0  0  0
  1  7  1  1  0  0  0
  2  9  1  0  0  0  0
  3  2  1  0  0  0  0
  3 11  1  0  0  0  0
  3  4  1  0  0  0  0
  4 12  1  0  0  0  0
  5  4  1  0  0  0  0
  5 15  1  0  0  0  0
  6 16  1  6  0  0  0
  6 26  1  0  0  0  0
  6  1  1  0  0  0  0
  6  5  1  0  0  0  0
  8  2  1  0  0  0  0
 10  3  1  0  0  0  0
 13  4  1  0  0  0  0
 14  5  1  0  0  0  0
 17  1  1  0  0  0  0
 18 17  2  0  0  0  0
 19 20  2  0  0  0  0
 19 18  1  0  0  0  0
 20 21  1  0  0  0  0
 21 22  2  0  0  0  0
 22 17  1  0  0  0  0
 23 18  1  0  0  0  0
 24 19  1  0  0  0  0
 25 21  1  0  0  0  0
 26 29  1  6  0  0  0
 26 28  1  0  0  0  0
 26 27  1  0  0  0  0
 27 31  1  0  0  0  0
 28 27  1  0  0  0  0
 28 32  1  1  0  0  0
 30 27  1  0  0  0  0
 33 28  1  0  0  0  0
 33 34  1  0  0  0  0
 35 33  1  0  0  0  0
 36 33  1  0  0  0  0
 36 37  1  0  0  0  0
 36 38  1  0  0  0  0
 39 36  1  0  0  0  0
 40 39  2  0  0  0  0
 40 41  1  0  0  0  0
 42 43  1  0  0  0  0
 42 40  1  0  0  0  0
 43 45  2  0  0  0  0
 44 43  1  0  0  0  0
 45 39  1  0  0  0  0
M  END
>  <minimizedAffinity>
-4.83935976

$$$$

 OpenBabel03242512023D

 45 48  0  0  1  0  0  0  0  0999 V2000
   37.2540   27.2650   39.0300 C   0  0  2  0  0  0  0  0  0  0  0  0
   36.7630   27.0620   37.6280 C   0  0  0  0  0  0  0  0  0  0  0  0
   35.5080   26.2820   37.5780 C   0  0  0  0  0  0  0  0  0  0  0  0
   35.6000   24.9520   38.2820 C   0  0  0  0  0  0  0  0  0  0  0  0
   36.3960   24.9990   39.5570 C   0  0  0  0  0  0  0  0  0  0  0  0
   36.6130   26.4090   40.0600 C   0  0  1  0  0  0  0  0  0  0  0  0
   38.3560   27.0010   39.0060 H   0  0  0  0  0  0  0  0  0  0  0  0
   36.5930   28.0490   37.1720 H   0  0  0  0  0  0  0  0  0  0  0  0
   37.5040   26.5450   36.9860 H   0  0  0  0  0  0  0  0  0  0  0  0
   34.6900   26.8890   38.0280 H   0  0  0  0  0  0  0  0  0  0  0  0
   35.2340   26.0920   36.5150 H   0  0  0  0  0  0  0  0  0  0  0  0
   36.0130   24.1830   37.5920 H   0  0  0  0  0  0  0  0  0  0  0  0
   34.5300   24.6470   38.4670 H   0  0  0  0  0  0  0  0  0  0  0  0
   35.8060   24.4590   40.3190 H   0  0  0  0  0  0  0  0  0  0  0  0
   37.3760   24.5330   39.4290 H   0  0  0  0  0  0  0  0  0  0  0  0
   35.6350   26.7360   40.4420 H   0  0  0  0  0  0  0  0  0  0  0  0
   37.2250   28.6820   39.4470 C   0  0  0  0  0  0  0  0  0  0  0  0
   36.0120   29.0650   39.9910 C   0  0  0  0  0  0  0  0  0  0  0  0
   35.8320   30.3850   40.4410 C   0  0  0  0  0  0  0  0  0  0  0  0
   36.9430   31.2250   40.2900 N   0  0  0  0  0  0  0  0  0  0  0  0
   38.1040   30.8010   39.7520 C   0  0  0  0  0  0  0  0  0  0  0  0
   38.2300   29.5270   39.3350 N   0  0  0  0  0  0  0  0  0  0  0  0
   35.0600   28.5900   40.1820 H   0  0  0  0  0  0  0  0  0  0  0  0
   34.9950   30.8630   40.8800 H   0  0  0  0  0  0  0  0  0  0  0  0
   38.9180   31.4940   39.6640 H   0  0  0  0  0  0  0  0  0  0  0  0
   37.5380   26.3350   41.2440 C   0  0  2  0  0  0  0  0  0  0  0  0
   37.3450   25.1800   42.2120 C   0  0  0  0  0  0  0  0  0  0  0  0
   37.0200   26.5570   42.6220 C   0  0  1  0  0  0  0  0  0  0  0  0
   38.6100   26.5210   41.0160 H   0  0  0  0  0  0  0  0  0  0  0  0
   38.2460   24.7330   42.7060 H   0  0  0  0  0  0  0  0  0  0  0  0
   36.5040   24.4930   42.0810 H   0  0  0  0  0  0  0  0  0  0  0  0
   35.9470   26.8570   42.6650 H   0  0  0  0  0  0  0  0  0  0  0  0
   37.9180   27.4250   43.4520 C   0  0  0  0  0  0  0  0  0  0  0  0
   37.5780   27.3820   44.5180 H   0  0  0  0  0  0  0  0  0  0  0  0
   38.9510   27.0220   43.4480 H   0  0  0  0  0  0  0  0  0  0  0  0
   37.9210   28.8590   43.0290 C   0  0  0  0  0  0  0  0  0  0  0  0
   37.3150   28.9110   42.0940 H   0  0  0  0  0  0  0  0  0  0  0  0
   37.3560   29.4450   43.7740 H   0  0  0  0  0  0  0  0  0  0  0  0
   39.2860   29.3630   42.8030 C   0  0  0  0  0  0  0  0  0  0  0  0
   40.3580   28.4790   42.5600 C   0  0  0  0  0  0  0  0  0  0  0  0
   40.2750   27.3580   42.5190 H   0  0  0  0  0  0  0  0  0  0  0  0
   41.8090   29.6560   42.3520 S   0  0  0  0  0  0  0  0  0  0  0  0
   40.6430   31.1270   42.6410 C   0  0  0  0  0  0  0  0  0  0  0  0
   41.0110   32.1560   42.6260 H   0  0  0  0  0  0  0  0  0  0  0  0
   39.6470   30.6250   42.8010 N   0  0  0  0  0  0  0  0  0  0  0  0
  1  7  1  6  0  0  0
  1 17  1  0  0  0  0
  1  6  1  0  0  0  0
  2  1  1  0  0  0  0
  3  2  1  0  0  0  0
  3 10  1  0  0  0  0
  3  4  1  0  0  0  0
  4 13  1  0  0  0  0
  4  5  1  0  0  0  0
  5  6  1  0  0  0  0
  5 14  1  0  0  0  0
  6 16  1  1  0  0  0
  6 26  1  0  0  0  0
  8  2  1  0  0  0  0
  9  2  1  0  0  0  0
 11  3  1  0  0  0  0
 12  4  1  0  0  0  0
 15  5  1  0  0  0  0
 17 18  1  0  0  0  0
 18 23  1  0  0  0  0
 18 19  2  0  0  0  0
 19 24  1  0  0  0  0
 20 19  1  0  0  0  0
 21 20  2  0  0  0  0
 22 17  2  0  0  0  0
 22 21  1  0  0  0  0
 25 21  1  0  0  0  0
 26 29  1  6  0  0  0
 26 27  1  0  0  0  0
 26 28  1  0  0  0  0
 27 28  1  0  0  0  0
 27 30  1  0  0  0  0
 28 32  1  1  0  0  0
 28 33  1  0  0  0  0
 31 27  1  0  0  0  0
 33 34  1  0  0  0  0
 35 33  1  0  0  0  0
 36 33  1  0  0  0  0
 36 38  1  0  0  0  0
 37 36  1  0  0  0  0
 39 36  1  0  0  0  0
 40 39  2  0  0  0  0
 41 40  1  0  0  0  0
 42 40  1  0  0  0  0
 42 43  1  0  0  0  0
 43 45  2  0  0  0  0
 44 43  1  0  0  0  0
 45 39  1  0  0  0  0
M  END
>  <minimizedAffinity>
-4.82271194

$$$$
