
 OpenBabel03252502033D

 32 35  0  0  0  0  0  0  0  0999 V2000
   36.2640   30.8050   40.9390 C   0  0  0  0  0  0  0  0  0  0  0  0
   37.2080   31.6430   40.3350 C   0  0  0  0  0  0  0  0  0  0  0  0
   38.3420   31.0660   39.8500 C   0  0  0  0  0  0  0  0  0  0  0  0
   38.4760   29.7350   39.9850 N   0  0  0  0  0  0  0  0  0  0  0  0
   37.6050   28.9340   40.5470 C   0  0  0  0  0  0  0  0  0  0  0  0
   36.5010   29.4990   41.0180 N   0  0  0  0  0  0  0  0  0  0  0  0
   35.3410   31.2610   41.3350 H   0  0  0  0  0  0  0  0  0  0  0  0
   37.6050   27.4840   40.7690 C   0  0  0  0  0  0  0  0  0  0  0  0
   36.8360   26.6070   40.0650 N   0  0  0  0  0  0  0  0  0  0  0  0
   36.8060   25.2970   40.2280 C   0  0  0  0  0  0  0  0  0  0  0  0
   37.5910   24.7210   41.1660 N   0  0  0  0  0  0  0  0  0  0  0  0
   38.4040   25.4800   41.9350 C   0  0  0  0  0  0  0  0  0  0  0  0
   39.2080   24.8830   42.8940 C   0  0  0  0  0  0  0  0  0  0  0  0
   40.0360   25.6410   43.6790 C   0  0  0  0  0  0  0  0  0  0  0  0
   40.0330   27.0010   43.4730 C   0  0  0  0  0  0  0  0  0  0  0  0
   39.2200   27.5490   42.5100 C   0  0  0  0  0  0  0  0  0  0  0  0
   38.3670   26.8340   41.6930 C   0  0  0  0  0  0  0  0  0  0  0  0
   36.1510   24.6940   39.6090 H   0  0  0  0  0  0  0  0  0  0  0  0
   39.1390   23.8070   42.9800 H   0  0  0  0  0  0  0  0  0  0  0  0
   40.6500   25.1770   44.4130 H   0  0  0  0  0  0  0  0  0  0  0  0
   40.6790   27.6110   44.0810 H   0  0  0  0  0  0  0  0  0  0  0  0
   39.2630   28.6400   42.3950 H   0  0  0  0  0  0  0  0  0  0  0  0
   39.4060   31.8080   39.1990 C   0  0  0  0  0  0  0  0  0  0  0  0
   39.9550   31.3870   37.9250 C   0  0  0  0  0  0  0  0  0  0  0  0
   39.7580   30.5710   37.2540 H   0  0  0  0  0  0  0  0  0  0  0  0
   41.2260   32.6270   37.5590 S   0  0  0  0  0  0  0  0  0  0  0  0
   40.8370   33.5430   39.1810 C   0  0  0  0  0  0  0  0  0  0  0  0
   41.2430   34.4860   39.7050 H   0  0  0  0  0  0  0  0  0  0  0  0
   40.0060   32.9010   39.6190 N   0  0  0  0  0  0  0  0  0  0  0  0
   36.9080   33.0190   40.2800 N   0  0  0  0  0  0  0  0  0  0  0  0
   36.4010   33.0310   39.3460 H   0  0  0  0  0  0  0  0  0  0  0  0
   37.3470   33.3110   41.2030 H   0  0  0  0  0  0  0  0  0  0  0  0
  1  6  1  0  0  0  0
  1  7  1  0  0  0  0
  2  1  2  0  0  0  0
  3  4  2  0  0  0  0
  3  2  1  0  0  0  0
  4  5  1  0  0  0  0
  5  8  1  0  0  0  0
  5  6  2  0  0  0  0
  8 17  1  0  0  0  0
  9 10  1  0  0  0  0
  9  8  2  0  0  0  0
 10 11  2  0  0  0  0
 11 12  1  0  0  0  0
 12 13  1  0  0  0  0
 13 19  1  0  0  0  0
 13 14  2  0  0  0  0
 14 20  1  0  0  0  0
 15 14  1  0  0  0  0
 15 21  1  0  0  0  0
 16 15  2  0  0  0  0
 17 12  2  0  0  0  0
 17 16  1  0  0  0  0
 18 10  1  0  0  0  0
 22 16  1  0  0  0  0
 23 29  1  0  0  0  0
 23  3  1  0  0  0  0
 24 23  2  0  0  0  0
 25 24  1  0  0  0  0
 26 24  1  0  0  0  0
 26 27  1  0  0  0  0
 27 29  2  0  0  0  0
 27 28  1  0  0  0  0
 30  2  1  0  0  0  0
 30 32  1  0  0  0  0
 31 30  1  0  0  0  0
M  END
>  <minimizedAffinity>
-6.0675354

$$$$

 OpenBabel03252502033D

 32 35  0  0  0  0  0  0  0  0999 V2000
   37.1690   32.2130   39.8920 C   0  0  0  0  0  0  0  0  0  0  0  0
   37.0620   31.1650   40.8130 C   0  0  0  0  0  0  0  0  0  0  0  0
   38.1770   30.4210   41.0510 C   0  0  0  0  0  0  0  0  0  0  0  0
   39.3000   30.7430   40.3870 N   0  0  0  0  0  0  0  0  0  0  0  0
   39.4210   31.7190   39.5210 C   0  0  0  0  0  0  0  0  0  0  0  0
   38.3340   32.4430   39.2920 N   0  0  0  0  0  0  0  0  0  0  0  0
   36.2730   32.8230   39.6910 H   0  0  0  0  0  0  0  0  0  0  0  0
   40.5600   32.1900   38.7250 C   0  0  0  0  0  0  0  0  0  0  0  0
   41.0320   33.4680   38.7550 N   0  0  0  0  0  0  0  0  0  0  0  0
   42.0530   33.9340   38.0600 C   0  0  0  0  0  0  0  0  0  0  0  0
   42.7280   33.1110   37.2270 N   0  0  0  0  0  0  0  0  0  0  0  0
   42.3600   31.8150   37.1040 C   0  0  0  0  0  0  0  0  0  0  0  0
   43.0570   30.9740   36.2480 C   0  0  0  0  0  0  0  0  0  0  0  0
   42.6950   29.6600   36.1150 C   0  0  0  0  0  0  0  0  0  0  0  0
   41.6260   29.2200   36.8590 C   0  0  0  0  0  0  0  0  0  0  0  0
   40.9650   30.0890   37.6950 C   0  0  0  0  0  0  0  0  0  0  0  0
   41.2850   31.4200   37.8670 C   0  0  0  0  0  0  0  0  0  0  0  0
   42.3430   34.9740   38.1630 H   0  0  0  0  0  0  0  0  0  0  0  0
   43.8840   31.4150   35.7070 H   0  0  0  0  0  0  0  0  0  0  0  0
   43.2340   29.0210   35.4570 H   0  0  0  0  0  0  0  0  0  0  0  0
   41.3280   28.1900   36.7670 H   0  0  0  0  0  0  0  0  0  0  0  0
   40.1190   29.6760   38.2610 H   0  0  0  0  0  0  0  0  0  0  0  0
   38.2150   29.3060   41.9790 C   0  0  0  0  0  0  0  0  0  0  0  0
   39.3050   28.3500   41.9720 C   0  0  0  0  0  0  0  0  0  0  0  0
   40.2020   28.2360   41.3920 H   0  0  0  0  0  0  0  0  0  0  0  0
   38.8800   27.1850   43.2940 S   0  0  0  0  0  0  0  0  0  0  0  0
   37.2870   28.1530   43.6720 C   0  0  0  0  0  0  0  0  0  0  0  0
   36.4200   28.0400   44.4240 H   0  0  0  0  0  0  0  0  0  0  0  0
   37.3380   28.9960   42.9100 N   0  0  0  0  0  0  0  0  0  0  0  0
   35.8050   30.9640   41.4180 N   0  0  0  0  0  0  0  0  0  0  0  0
   35.9340   31.5990   42.2600 H   0  0  0  0  0  0  0  0  0  0  0  0
   35.3970   30.2850   40.7090 H   0  0  0  0  0  0  0  0  0  0  0  0
  1  2  1  0  0  0  0
  2  3  2  0  0  0  0
  2 30  1  0  0  0  0
  3 23  1  0  0  0  0
  4  3  1  0  0  0  0
  5  4  2  0  0  0  0
  6  5  1  0  0  0  0
  6  1  2  0  0  0  0
  7  1  1  0  0  0  0
  8  9  1  0  0  0  0
  8  5  1  0  0  0  0
 10 18  1  0  0  0  0
 10  9  2  0  0  0  0
 11 10  1  0  0  0  0
 12 11  2  0  0  0  0
 12 17  1  0  0  0  0
 13 12  1  0  0  0  0
 14 13  2  0  0  0  0
 14 15  1  0  0  0  0
 15 16  2  0  0  0  0
 16 17  1  0  0  0  0
 16 22  1  0  0  0  0
 17  8  2  0  0  0  0
 19 13  1  0  0  0  0
 20 14  1  0  0  0  0
 21 15  1  0  0  0  0
 23 29  1  0  0  0  0
 24 23  2  0  0  0  0
 24 26  1  0  0  0  0
 25 24  1  0  0  0  0
 26 27  1  0  0  0  0
 27 28  1  0  0  0  0
 29 27  2  0  0  0  0
 30 31  1  0  0  0  0
 32 30  1  0  0  0  0
M  END
>  <minimizedAffinity>
-6.06389332

$$$$

 OpenBabel03252502033D

 32 35  0  0  0  0  0  0  0  0999 V2000
   36.8940   30.9530   38.3970 C   0  0  0  0  0  0  0  0  0  0  0  0
   38.0930   31.2690   37.7500 C   0  0  0  0  0  0  0  0  0  0  0  0
   39.2450   30.7740   38.2810 C   0  0  0  0  0  0  0  0  0  0  0  0
   39.1500   30.0170   39.3870 N   0  0  0  0  0  0  0  0  0  0  0  0
   38.0380   29.7090   40.0080 C   0  0  0  0  0  0  0  0  0  0  0  0
   36.9180   30.1930   39.4880 N   0  0  0  0  0  0  0  0  0  0  0  0
   35.9540   31.3480   37.9760 H   0  0  0  0  0  0  0  0  0  0  0  0
   37.7720   28.9070   41.2070 C   0  0  0  0  0  0  0  0  0  0  0  0
   37.7740   29.4080   42.4740 N   0  0  0  0  0  0  0  0  0  0  0  0
   37.5380   28.7250   43.5800 C   0  0  0  0  0  0  0  0  0  0  0  0
   37.2630   27.4040   43.5040 N   0  0  0  0  0  0  0  0  0  0  0  0
   37.2300   26.7810   42.3030 C   0  0  0  0  0  0  0  0  0  0  0  0
   36.9470   25.4250   42.2320 C   0  0  0  0  0  0  0  0  0  0  0  0
   36.9090   24.7840   41.0230 C   0  0  0  0  0  0  0  0  0  0  0  0
   37.1620   25.5360   39.8990 C   0  0  0  0  0  0  0  0  0  0  0  0
   37.4380   26.8780   40.0180 C   0  0  0  0  0  0  0  0  0  0  0  0
   37.4890   27.5740   41.2090 C   0  0  0  0  0  0  0  0  0  0  0  0
   37.5660   29.2300   44.5390 H   0  0  0  0  0  0  0  0  0  0  0  0
   36.7610   24.9210   43.1720 H   0  0  0  0  0  0  0  0  0  0  0  0
   36.6910   23.7440   40.9750 H   0  0  0  0  0  0  0  0  0  0  0  0
   37.1360   25.0480   38.9410 H   0  0  0  0  0  0  0  0  0  0  0  0
   37.6310   27.4220   39.0840 H   0  0  0  0  0  0  0  0  0  0  0  0
   40.5590   31.0190   37.7180 C   0  0  0  0  0  0  0  0  0  0  0  0
   41.4290   29.9290   37.3220 C   0  0  0  0  0  0  0  0  0  0  0  0
   41.3480   28.8590   37.3370 H   0  0  0  0  0  0  0  0  0  0  0  0
   42.9170   30.7560   36.6960 S   0  0  0  0  0  0  0  0  0  0  0  0
   42.1540   32.4610   37.0570 C   0  0  0  0  0  0  0  0  0  0  0  0
   42.4970   33.5540   36.9300 H   0  0  0  0  0  0  0  0  0  0  0  0
   41.1400   32.1770   37.4890 N   0  0  0  0  0  0  0  0  0  0  0  0
   38.0110   32.0800   36.5990 N   0  0  0  0  0  0  0  0  0  0  0  0
   37.9030   31.3110   35.8740 H   0  0  0  0  0  0  0  0  0  0  0  0
   38.0990   33.0290   37.0710 H   0  0  0  0  0  0  0  0  0  0  0  0
  1  6  1  0  0  0  0
  2  3  1  0  0  0  0
  2  1  2  0  0  0  0
  3  4  2  0  0  0  0
  4  5  1  0  0  0  0
  5  8  1  0  0  0  0
  6  5  2  0  0  0  0
  7  1  1  0  0  0  0
  8 17  2  0  0  0  0
  8  9  1  0  0  0  0
  9 10  2  0  0  0  0
 10 18  1  0  0  0  0
 11 10  1  0  0  0  0
 12 11  2  0  0  0  0
 13 12  1  0  0  0  0
 13 19  1  0  0  0  0
 14 13  2  0  0  0  0
 15 16  2  0  0  0  0
 15 14  1  0  0  0  0
 16 17  1  0  0  0  0
 17 12  1  0  0  0  0
 20 14  1  0  0  0  0
 21 15  1  0  0  0  0
 22 16  1  0  0  0  0
 23  3  1  0  0  0  0
 24 25  1  0  0  0  0
 24 23  2  0  0  0  0
 26 27  1  0  0  0  0
 26 24  1  0  0  0  0
 27 29  2  0  0  0  0
 28 27  1  0  0  0  0
 29 23  1  0  0  0  0
 30 32  1  0  0  0  0
 30  2  1  0  0  0  0
 31 30  1  0  0  0  0
M  END
>  <minimizedAffinity>
-5.86951685

$$$$

 OpenBabel03252502033D

 32 35  0  0  0  0  0  0  0  0999 V2000
   37.3140   32.4780   40.0140 C   0  0  0  0  0  0  0  0  0  0  0  0
   37.1220   31.3270   40.7870 C   0  0  0  0  0  0  0  0  0  0  0  0
   38.2080   30.5420   41.0270 C   0  0  0  0  0  0  0  0  0  0  0  0
   39.3860   30.9260   40.5080 N   0  0  0  0  0  0  0  0  0  0  0  0
   39.5880   31.9980   39.7820 C   0  0  0  0  0  0  0  0  0  0  0  0
   38.5280   32.7610   39.5510 N   0  0  0  0  0  0  0  0  0  0  0  0
   36.4410   33.1220   39.8130 H   0  0  0  0  0  0  0  0  0  0  0  0
   40.7940   32.5460   39.1520 C   0  0  0  0  0  0  0  0  0  0  0  0
   40.9390   32.7170   37.8090 N   0  0  0  0  0  0  0  0  0  0  0  0
   42.0040   33.2080   37.1990 C   0  0  0  0  0  0  0  0  0  0  0  0
   43.0750   33.5920   37.9290 N   0  0  0  0  0  0  0  0  0  0  0  0
   43.0600   33.4750   39.2770 C   0  0  0  0  0  0  0  0  0  0  0  0
   44.1620   33.8710   40.0200 C   0  0  0  0  0  0  0  0  0  0  0  0
   44.1580   33.7580   41.3850 C   0  0  0  0  0  0  0  0  0  0  0  0
   43.0280   33.2420   41.9740 C   0  0  0  0  0  0  0  0  0  0  0  0
   41.9600   32.8620   41.1980 C   0  0  0  0  0  0  0  0  0  0  0  0
   41.9090   32.9530   39.8210 C   0  0  0  0  0  0  0  0  0  0  0  0
   42.0090   33.2990   36.1190 H   0  0  0  0  0  0  0  0  0  0  0  0
   45.0020   34.2660   39.4640 H   0  0  0  0  0  0  0  0  0  0  0  0
   45.0070   34.0640   41.9490 H   0  0  0  0  0  0  0  0  0  0  0  0
   43.0090   33.1460   43.0460 H   0  0  0  0  0  0  0  0  0  0  0  0
   41.0880   32.4570   41.7280 H   0  0  0  0  0  0  0  0  0  0  0  0
   38.1590   29.3220   41.8110 C   0  0  0  0  0  0  0  0  0  0  0  0
   38.7610   28.0910   41.3360 C   0  0  0  0  0  0  0  0  0  0  0  0
   39.2990   27.8100   40.4500 H   0  0  0  0  0  0  0  0  0  0  0  0
   38.4270   26.8960   42.6580 S   0  0  0  0  0  0  0  0  0  0  0  0
   37.5200   28.2280   43.6690 C   0  0  0  0  0  0  0  0  0  0  0  0
   36.9840   28.2570   44.6900 H   0  0  0  0  0  0  0  0  0  0  0  0
   37.6060   29.1370   42.9900 N   0  0  0  0  0  0  0  0  0  0  0  0
   35.8160   31.0730   41.2510 N   0  0  0  0  0  0  0  0  0  0  0  0
   35.8730   31.5980   42.1730 H   0  0  0  0  0  0  0  0  0  0  0  0
   35.4690   30.4910   40.4310 H   0  0  0  0  0  0  0  0  0  0  0  0
  1  2  1  0  0  0  0
  2  3  2  0  0  0  0
  2 30  1  0  0  0  0
  3 23  1  0  0  0  0
  4  3  1  0  0  0  0
  5  4  2  0  0  0  0
  6  5  1  0  0  0  0
  6  1  2  0  0  0  0
  7  1  1  0  0  0  0
  8  5  1  0  0  0  0
  8 17  1  0  0  0  0
  9  8  2  0  0  0  0
 10  9  1  0  0  0  0
 10 11  2  0  0  0  0
 11 12  1  0  0  0  0
 12 17  2  0  0  0  0
 12 13  1  0  0  0  0
 13 14  2  0  0  0  0
 14 20  1  0  0  0  0
 14 15  1  0  0  0  0
 15 21  1  0  0  0  0
 16 22  1  0  0  0  0
 16 15  2  0  0  0  0
 17 16  1  0  0  0  0
 18 10  1  0  0  0  0
 19 13  1  0  0  0  0
 23 29  1  0  0  0  0
 24 23  2  0  0  0  0
 24 26  1  0  0  0  0
 25 24  1  0  0  0  0
 26 27  1  0  0  0  0
 27 28  1  0  0  0  0
 29 27  2  0  0  0  0
 30 31  1  0  0  0  0
 32 30  1  0  0  0  0
M  END
>  <minimizedAffinity>
-5.818398

$$$$

 OpenBabel03252502033D

 32 35  0  0  0  0  0  0  0  0999 V2000
   36.2450   30.7960   41.0760 C   0  0  0  0  0  0  0  0  0  0  0  0
   37.1930   31.5560   40.3830 C   0  0  0  0  0  0  0  0  0  0  0  0
   38.2570   30.8970   39.8460 C   0  0  0  0  0  0  0  0  0  0  0  0
   38.3220   29.5660   40.0180 N   0  0  0  0  0  0  0  0  0  0  0  0
   37.4450   28.8360   40.6620 C   0  0  0  0  0  0  0  0  0  0  0  0
   36.4100   29.4810   41.1830 N   0  0  0  0  0  0  0  0  0  0  0  0
   35.3780   31.3180   41.5150 H   0  0  0  0  0  0  0  0  0  0  0  0
   37.3750   27.3960   40.9330 C   0  0  0  0  0  0  0  0  0  0  0  0
   37.8780   26.8070   42.0540 N   0  0  0  0  0  0  0  0  0  0  0  0
   37.8350   25.5180   42.3390 C   0  0  0  0  0  0  0  0  0  0  0  0
   37.2490   24.6600   41.4740 N   0  0  0  0  0  0  0  0  0  0  0  0
   36.7080   25.1170   40.3210 C   0  0  0  0  0  0  0  0  0  0  0  0
   36.1070   24.2320   39.4390 C   0  0  0  0  0  0  0  0  0  0  0  0
   35.5560   24.6820   38.2690 C   0  0  0  0  0  0  0  0  0  0  0  0
   35.6250   26.0320   38.0140 C   0  0  0  0  0  0  0  0  0  0  0  0
   36.2300   26.8710   38.9190 C   0  0  0  0  0  0  0  0  0  0  0  0
   36.8020   26.4730   40.1100 C   0  0  0  0  0  0  0  0  0  0  0  0
   38.2700   25.1590   43.2650 H   0  0  0  0  0  0  0  0  0  0  0  0
   36.1030   23.1900   39.7290 H   0  0  0  0  0  0  0  0  0  0  0  0
   35.0970   23.9980   37.5960 H   0  0  0  0  0  0  0  0  0  0  0  0
   35.1970   26.4020   37.0990 H   0  0  0  0  0  0  0  0  0  0  0  0
   36.2540   27.9380   38.6570 H   0  0  0  0  0  0  0  0  0  0  0  0
   39.3170   31.5540   39.1030 C   0  0  0  0  0  0  0  0  0  0  0  0
   39.9020   30.9490   37.9230 C   0  0  0  0  0  0  0  0  0  0  0  0
   39.7390   30.0320   37.3880 H   0  0  0  0  0  0  0  0  0  0  0  0
   41.1510   32.1480   37.3840 S   0  0  0  0  0  0  0  0  0  0  0  0
   40.7070   33.3000   38.8310 C   0  0  0  0  0  0  0  0  0  0  0  0
   41.0790   34.3260   39.2040 H   0  0  0  0  0  0  0  0  0  0  0  0
   39.8820   32.7160   39.3520 N   0  0  0  0  0  0  0  0  0  0  0  0
   36.9710   32.9460   40.3010 N   0  0  0  0  0  0  0  0  0  0  0  0
   36.4050   32.9600   39.4020 H   0  0  0  0  0  0  0  0  0  0  0  0
   37.4880   33.2390   41.1830 H   0  0  0  0  0  0  0  0  0  0  0  0
  1  6  1  0  0  0  0
  1  7  1  0  0  0  0
  2  1  2  0  0  0  0
  3  4  2  0  0  0  0
  3  2  1  0  0  0  0
  4  5  1  0  0  0  0
  5  8  1  0  0  0  0
  5  6  2  0  0  0  0
  8  9  1  0  0  0  0
  9 10  2  0  0  0  0
 10 18  1  0  0  0  0
 11 10  1  0  0  0  0
 12 11  2  0  0  0  0
 13 19  1  0  0  0  0
 13 12  1  0  0  0  0
 14 13  2  0  0  0  0
 15 14  1  0  0  0  0
 15 16  2  0  0  0  0
 16 17  1  0  0  0  0
 17 12  1  0  0  0  0
 17  8  2  0  0  0  0
 20 14  1  0  0  0  0
 21 15  1  0  0  0  0
 22 16  1  0  0  0  0
 23 29  1  0  0  0  0
 23  3  1  0  0  0  0
 24 23  2  0  0  0  0
 25 24  1  0  0  0  0
 26 24  1  0  0  0  0
 26 27  1  0  0  0  0
 27 28  1  0  0  0  0
 27 29  2  0  0  0  0
 30  2  1  0  0  0  0
 30 32  1  0  0  0  0
 31 30  1  0  0  0  0
M  END
>  <minimizedAffinity>
-5.76845551

$$$$

 OpenBabel03252502033D

 32 35  0  0  0  0  0  0  0  0999 V2000
   36.9680   30.4090   36.9030 C   0  0  0  0  0  0  0  0  0  0  0  0
   38.0230   31.3260   36.9790 C   0  0  0  0  0  0  0  0  0  0  0  0
   38.9710   31.1160   37.9340 C   0  0  0  0  0  0  0  0  0  0  0  0
   38.8300   30.0450   38.7330 N   0  0  0  0  0  0  0  0  0  0  0  0
   37.8510   29.1760   38.6780 C   0  0  0  0  0  0  0  0  0  0  0  0
   36.9290   29.3830   37.7480 N   0  0  0  0  0  0  0  0  0  0  0  0
   36.1940   30.5690   36.1340 H   0  0  0  0  0  0  0  0  0  0  0  0
   37.5590   27.9740   39.4680 C   0  0  0  0  0  0  0  0  0  0  0  0
   37.3700   26.7370   38.9290 N   0  0  0  0  0  0  0  0  0  0  0  0
   37.1090   25.6300   39.6000 C   0  0  0  0  0  0  0  0  0  0  0  0
   37.0100   25.6710   40.9480 N   0  0  0  0  0  0  0  0  0  0  0  0
   37.1780   26.8400   41.6080 C   0  0  0  0  0  0  0  0  0  0  0  0
   37.0770   26.8760   42.9910 C   0  0  0  0  0  0  0  0  0  0  0  0
   37.2450   28.0520   43.6710 C   0  0  0  0  0  0  0  0  0  0  0  0
   37.5150   29.1790   42.9300 C   0  0  0  0  0  0  0  0  0  0  0  0
   37.6070   29.0960   41.5610 C   0  0  0  0  0  0  0  0  0  0  0  0
   37.4460   27.9390   40.8250 C   0  0  0  0  0  0  0  0  0  0  0  0
   36.9750   24.6970   39.0640 H   0  0  0  0  0  0  0  0  0  0  0  0
   36.8620   25.9370   43.4840 H   0  0  0  0  0  0  0  0  0  0  0  0
   37.1660   28.0730   44.7320 H   0  0  0  0  0  0  0  0  0  0  0  0
   37.6500   30.1120   43.4490 H   0  0  0  0  0  0  0  0  0  0  0  0
   37.8240   30.0300   41.0270 H   0  0  0  0  0  0  0  0  0  0  0  0
   40.1190   31.9820   38.1290 C   0  0  0  0  0  0  0  0  0  0  0  0
   40.3580   32.6500   39.3930 C   0  0  0  0  0  0  0  0  0  0  0  0
   39.8480   32.6770   40.3380 H   0  0  0  0  0  0  0  0  0  0  0  0
   41.8840   33.5890   39.1160 S   0  0  0  0  0  0  0  0  0  0  0  0
   41.9870   32.9450   37.3290 C   0  0  0  0  0  0  0  0  0  0  0  0
   42.7140   33.0940   36.4460 H   0  0  0  0  0  0  0  0  0  0  0  0
   41.0630   32.2850   37.2640 N   0  0  0  0  0  0  0  0  0  0  0  0
   38.0140   32.3960   36.0620 N   0  0  0  0  0  0  0  0  0  0  0  0
   38.5640   31.9350   35.2790 H   0  0  0  0  0  0  0  0  0  0  0  0
   37.4610   33.0950   36.6430 H   0  0  0  0  0  0  0  0  0  0  0  0
  1  2  2  0  0  0  0
  1  6  1  0  0  0  0
  2  3  1  0  0  0  0
  3 23  1  0  0  0  0
  3  4  2  0  0  0  0
  5  4  1  0  0  0  0
  5  8  1  0  0  0  0
  6  5  2  0  0  0  0
  7  1  1  0  0  0  0
  8 17  1  0  0  0  0
  9  8  2  0  0  0  0
  9 10  1  0  0  0  0
 10 11  2  0  0  0  0
 11 12  1  0  0  0  0
 12 13  1  0  0  0  0
 13 19  1  0  0  0  0
 13 14  2  0  0  0  0
 14 20  1  0  0  0  0
 15 21  1  0  0  0  0
 15 14  1  0  0  0  0
 16 15  2  0  0  0  0
 17 16  1  0  0  0  0
 17 12  2  0  0  0  0
 18 10  1  0  0  0  0
 22 16  1  0  0  0  0
 23 24  2  0  0  0  0
 24 25  1  0  0  0  0
 26 24  1  0  0  0  0
 27 26  1  0  0  0  0
 28 27  1  0  0  0  0
 29 27  2  0  0  0  0
 29 23  1  0  0  0  0
 30 32  1  0  0  0  0
 30  2  1  0  0  0  0
 31 30  1  0  0  0  0
M  END
>  <minimizedAffinity>
-5.76127911

$$$$

 OpenBabel03252502033D

 32 35  0  0  0  0  0  0  0  0999 V2000
   39.3140   32.4690   38.8940 C   0  0  0  0  0  0  0  0  0  0  0  0
   40.3570   32.0690   38.0520 C   0  0  0  0  0  0  0  0  0  0  0  0
   40.6540   30.7410   38.0070 C   0  0  0  0  0  0  0  0  0  0  0  0
   39.9270   29.9090   38.7720 N   0  0  0  0  0  0  0  0  0  0  0  0
   38.9470   30.2630   39.5660 C   0  0  0  0  0  0  0  0  0  0  0  0
   38.6590   31.5570   39.6070 N   0  0  0  0  0  0  0  0  0  0  0  0
   39.0630   33.5430   38.9390 H   0  0  0  0  0  0  0  0  0  0  0  0
   38.0700   29.4880   40.4510 C   0  0  0  0  0  0  0  0  0  0  0  0
   36.7160   29.4240   40.3150 N   0  0  0  0  0  0  0  0  0  0  0  0
   35.8900   28.7380   41.0840 C   0  0  0  0  0  0  0  0  0  0  0  0
   36.3810   28.0150   42.1160 N   0  0  0  0  0  0  0  0  0  0  0  0
   37.7120   27.9930   42.3610 C   0  0  0  0  0  0  0  0  0  0  0  0
   38.2090   27.2490   43.4200 C   0  0  0  0  0  0  0  0  0  0  0  0
   39.5540   27.2170   43.6780 C   0  0  0  0  0  0  0  0  0  0  0  0
   40.3740   27.9470   42.8510 C   0  0  0  0  0  0  0  0  0  0  0  0
   39.8370   28.6700   41.8120 C   0  0  0  0  0  0  0  0  0  0  0  0
   38.4920   28.7380   41.5070 C   0  0  0  0  0  0  0  0  0  0  0  0
   34.8250   28.7600   40.8820 H   0  0  0  0  0  0  0  0  0  0  0  0
   37.4830   26.7080   44.0130 H   0  0  0  0  0  0  0  0  0  0  0  0
   39.9290   26.6450   44.4930 H   0  0  0  0  0  0  0  0  0  0  0  0
   41.4340   27.9340   43.0390 H   0  0  0  0  0  0  0  0  0  0  0  0
   40.5440   29.2320   41.1890 H   0  0  0  0  0  0  0  0  0  0  0  0
   41.7090   30.1810   37.1810 C   0  0  0  0  0  0  0  0  0  0  0  0
   41.8360   28.7510   36.9810 C   0  0  0  0  0  0  0  0  0  0  0  0
   41.2910   27.8920   37.3230 H   0  0  0  0  0  0  0  0  0  0  0  0
   43.2790   28.5840   35.8950 S   0  0  0  0  0  0  0  0  0  0  0  0
   43.5080   30.4720   35.8640 C   0  0  0  0  0  0  0  0  0  0  0  0
   44.2520   31.1980   35.3650 H   0  0  0  0  0  0  0  0  0  0  0  0
   42.6520   30.8230   36.5260 N   0  0  0  0  0  0  0  0  0  0  0  0
   41.0190   33.0760   37.3210 N   0  0  0  0  0  0  0  0  0  0  0  0
   40.4070   33.0660   36.4520 H   0  0  0  0  0  0  0  0  0  0  0  0
   41.7770   33.3100   38.0290 H   0  0  0  0  0  0  0  0  0  0  0  0
  1  7  1  0  0  0  0
  1  6  1  0  0  0  0
  2  1  2  0  0  0  0
  3  2  1  0  0  0  0
  3  4  2  0  0  0  0
  4  5  1  0  0  0  0
  5  6  2  0  0  0  0
  5  8  1  0  0  0  0
  8 17  1  0  0  0  0
  9  8  2  0  0  0  0
  9 10  1  0  0  0  0
 10 11  2  0  0  0  0
 11 12  1  0  0  0  0
 12 13  1  0  0  0  0
 13 14  2  0  0  0  0
 13 19  1  0  0  0  0
 14 20  1  0  0  0  0
 15 21  1  0  0  0  0
 15 14  1  0  0  0  0
 16 15  2  0  0  0  0
 17 16  1  0  0  0  0
 17 12  2  0  0  0  0
 18 10  1  0  0  0  0
 22 16  1  0  0  0  0
 23  3  1  0  0  0  0
 24 23  2  0  0  0  0
 24 25  1  0  0  0  0
 26 24  1  0  0  0  0
 27 26  1  0  0  0  0
 27 29  2  0  0  0  0
 28 27  1  0  0  0  0
 29 23  1  0  0  0  0
 30 32  1  0  0  0  0
 30  2  1  0  0  0  0
 31 30  1  0  0  0  0
M  END
>  <minimizedAffinity>
-5.5004015

$$$$

 OpenBabel03252502033D

 32 35  0  0  0  0  0  0  0  0999 V2000
   39.3580   31.8260   38.2470 C   0  0  0  0  0  0  0  0  0  0  0  0
   38.3680   31.4450   37.3340 C   0  0  0  0  0  0  0  0  0  0  0  0
   37.7190   30.2700   37.5640 C   0  0  0  0  0  0  0  0  0  0  0  0
   38.0720   29.5600   38.6490 N   0  0  0  0  0  0  0  0  0  0  0  0
   38.9950   29.8990   39.5150 C   0  0  0  0  0  0  0  0  0  0  0  0
   39.6250   31.0430   39.2890 N   0  0  0  0  0  0  0  0  0  0  0  0
   39.8910   32.7750   38.0720 H   0  0  0  0  0  0  0  0  0  0  0  0
   39.4890   29.2420   40.7300 C   0  0  0  0  0  0  0  0  0  0  0  0
   40.8000   29.2070   41.0960 N   0  0  0  0  0  0  0  0  0  0  0  0
   41.2890   28.6320   42.1810 C   0  0  0  0  0  0  0  0  0  0  0  0
   40.4540   28.0060   43.0400 N   0  0  0  0  0  0  0  0  0  0  0  0
   39.1240   27.9680   42.7930 C   0  0  0  0  0  0  0  0  0  0  0  0
   38.2720   27.3260   43.6800 C   0  0  0  0  0  0  0  0  0  0  0  0
   36.9240   27.2800   43.4420 C   0  0  0  0  0  0  0  0  0  0  0  0
   36.4630   27.8930   42.3000 C   0  0  0  0  0  0  0  0  0  0  0  0
   37.3440   28.5180   41.4510 C   0  0  0  0  0  0  0  0  0  0  0  0
   38.7090   28.5940   41.6400 C   0  0  0  0  0  0  0  0  0  0  0  0
   42.3550   28.6660   42.3720 H   0  0  0  0  0  0  0  0  0  0  0  0
   38.7320   26.8740   44.5490 H   0  0  0  0  0  0  0  0  0  0  0  0
   36.2770   26.7860   44.1250 H   0  0  0  0  0  0  0  0  0  0  0  0
   35.4060   27.8670   42.0980 H   0  0  0  0  0  0  0  0  0  0  0  0
   36.9130   28.9880   40.5570 H   0  0  0  0  0  0  0  0  0  0  0  0
   36.6720   29.7500   36.7040 C   0  0  0  0  0  0  0  0  0  0  0  0
   36.9150   29.4610   35.3040 C   0  0  0  0  0  0  0  0  0  0  0  0
   37.7680   29.5390   34.6570 H   0  0  0  0  0  0  0  0  0  0  0  0
   35.3200   28.8500   34.6950 S   0  0  0  0  0  0  0  0  0  0  0  0
   34.5470   29.0700   36.4200 C   0  0  0  0  0  0  0  0  0  0  0  0
   33.5040   28.8910   36.8780 H   0  0  0  0  0  0  0  0  0  0  0  0
   35.4250   29.4750   37.0200 N   0  0  0  0  0  0  0  0  0  0  0  0
   38.1270   32.3090   36.2470 N   0  0  0  0  0  0  0  0  0  0  0  0
   37.3810   32.9190   36.6950 H   0  0  0  0  0  0  0  0  0  0  0  0
   38.8210   31.8910   35.5580 H   0  0  0  0  0  0  0  0  0  0  0  0
  1  6  1  0  0  0  0
  2  3  1  0  0  0  0
  2  1  2  0  0  0  0
  3  4  2  0  0  0  0
  4  5  1  0  0  0  0
  5  8  1  0  0  0  0
  6  5  2  0  0  0  0
  7  1  1  0  0  0  0
  8  9  2  0  0  0  0
  8 17  1  0  0  0  0
  9 10  1  0  0  0  0
 10 18  1  0  0  0  0
 10 11  2  0  0  0  0
 12 11  1  0  0  0  0
 12 13  1  0  0  0  0
 13 19  1  0  0  0  0
 14 13  2  0  0  0  0
 14 20  1  0  0  0  0
 15 14  1  0  0  0  0
 16 17  1  0  0  0  0
 16 15  2  0  0  0  0
 17 12  2  0  0  0  0
 21 15  1  0  0  0  0
 22 16  1  0  0  0  0
 23 29  1  0  0  0  0
 23  3  1  0  0  0  0
 24 23  2  0  0  0  0
 25 24  1  0  0  0  0
 26 24  1  0  0  0  0
 26 27  1  0  0  0  0
 27 28  1  0  0  0  0
 27 29  2  0  0  0  0
 30 31  1  0  0  0  0
 30  2  1  0  0  0  0
 32 30  1  0  0  0  0
M  END
>  <minimizedAffinity>
-5.42569304

$$$$

 OpenBabel03252502033D

 32 35  0  0  0  0  0  0  0  0999 V2000
   36.5550   30.0010   41.3570 C   0  0  0  0  0  0  0  0  0  0  0  0
   37.2290   29.0430   42.1220 C   0  0  0  0  0  0  0  0  0  0  0  0
   37.7280   27.9560   41.4710 C   0  0  0  0  0  0  0  0  0  0  0  0
   37.5400   27.8800   40.1430 N   0  0  0  0  0  0  0  0  0  0  0  0
   36.9130   28.7650   39.4090 C   0  0  0  0  0  0  0  0  0  0  0  0
   36.4280   29.8220   40.0450 N   0  0  0  0  0  0  0  0  0  0  0  0
   36.1460   30.8860   41.8730 H   0  0  0  0  0  0  0  0  0  0  0  0
   36.6280   28.8240   37.9710 C   0  0  0  0  0  0  0  0  0  0  0  0
   37.5890   28.8170   37.0050 N   0  0  0  0  0  0  0  0  0  0  0  0
   37.3790   28.8660   35.7010 C   0  0  0  0  0  0  0  0  0  0  0  0
   36.1140   28.9300   35.2290 N   0  0  0  0  0  0  0  0  0  0  0  0
   35.0660   28.9440   36.0850 C   0  0  0  0  0  0  0  0  0  0  0  0
   33.7700   29.0090   35.5940 C   0  0  0  0  0  0  0  0  0  0  0  0
   32.7010   29.0230   36.4490 C   0  0  0  0  0  0  0  0  0  0  0  0
   32.9690   28.9710   37.7970 C   0  0  0  0  0  0  0  0  0  0  0  0
   34.2690   28.9070   38.2380 C   0  0  0  0  0  0  0  0  0  0  0  0
   35.3830   28.8910   37.4220 C   0  0  0  0  0  0  0  0  0  0  0  0
   38.2230   28.8540   35.0210 H   0  0  0  0  0  0  0  0  0  0  0  0
   33.6640   29.0460   34.5180 H   0  0  0  0  0  0  0  0  0  0  0  0
   31.7100   29.0730   36.0660 H   0  0  0  0  0  0  0  0  0  0  0  0
   32.1400   28.9810   38.4840 H   0  0  0  0  0  0  0  0  0  0  0  0
   34.4160   28.8680   39.3260 H   0  0  0  0  0  0  0  0  0  0  0  0
   38.4490   26.8850   42.1340 C   0  0  0  0  0  0  0  0  0  0  0  0
   38.2560   25.4970   41.7600 C   0  0  0  0  0  0  0  0  0  0  0  0
   37.6480   24.9910   41.0340 H   0  0  0  0  0  0  0  0  0  0  0  0
   39.3650   24.5830   42.8660 S   0  0  0  0  0  0  0  0  0  0  0  0
   39.9340   26.2060   43.6800 C   0  0  0  0  0  0  0  0  0  0  0  0
   40.6720   26.4840   44.5210 H   0  0  0  0  0  0  0  0  0  0  0  0
   39.3290   26.9800   43.1070 N   0  0  0  0  0  0  0  0  0  0  0  0
   37.3330   29.2810   43.5070 N   0  0  0  0  0  0  0  0  0  0  0  0
   38.2470   29.8210   43.5050 H   0  0  0  0  0  0  0  0  0  0  0  0
   36.4400   28.7930   43.8170 H   0  0  0  0  0  0  0  0  0  0  0  0
  1  7  1  0  0  0  0
  1  2  1  0  0  0  0
  2 30  1  0  0  0  0
  3  2  2  0  0  0  0
  3 23  1  0  0  0  0
  4  3  1  0  0  0  0
  5  6  1  0  0  0  0
  5  4  2  0  0  0  0
  6  1  2  0  0  0  0
  8  5  1  0  0  0  0
  9  8  2  0  0  0  0
 10  9  1  0  0  0  0
 11 10  2  0  0  0  0
 11 12  1  0  0  0  0
 12 17  1  0  0  0  0
 13 12  2  0  0  0  0
 13 14  1  0  0  0  0
 14 15  2  0  0  0  0
 15 16  1  0  0  0  0
 15 21  1  0  0  0  0
 16 22  1  0  0  0  0
 17  8  1  0  0  0  0
 17 16  2  0  0  0  0
 18 10  1  0  0  0  0
 19 13  1  0  0  0  0
 20 14  1  0  0  0  0
 23 29  1  0  0  0  0
 24 23  2  0  0  0  0
 24 26  1  0  0  0  0
 25 24  1  0  0  0  0
 26 27  1  0  0  0  0
 27 28  1  0  0  0  0
 29 27  2  0  0  0  0
 30 32  1  0  0  0  0
 31 30  1  0  0  0  0
M  END
>  <minimizedAffinity>
-5.41604662

$$$$
