
 OpenBabel03252506373D

 42 45  0  0  1  0  0  0  0  0999 V2000
   44.5100   35.5260   45.1360 C   0  0  0  0  0  0  0  0  0  0  0  0
   45.1650   35.5170   43.8900 C   0  0  0  0  0  0  0  0  0  0  0  0
   46.0840   34.5530   43.6330 C   0  0  0  0  0  0  0  0  0  0  0  0
   46.3150   33.6470   44.6140 N   0  0  0  0  0  0  0  0  0  0  0  0
   45.6960   33.6620   45.7850 C   0  0  0  0  0  0  0  0  0  0  0  0
   44.7910   34.5950   46.0600 N   0  0  0  0  0  0  0  0  0  0  0  0
   46.0250   32.6500   46.7530 N   0  0  0  0  0  0  0  0  0  0  0  0
   45.2900   32.4010   47.9370 C   0  0  0  0  0  0  0  0  0  0  0  0
   46.3700   32.0730   48.9520 C   0  0  0  0  0  0  0  0  0  0  0  0
   47.6480   31.9530   48.1770 C   0  0  0  0  0  0  0  0  0  0  0  0
   47.1540   31.7420   46.7460 C   0  0  1  0  0  0  0  0  0  0  0  0
   43.7670   36.2980   45.3530 H   0  0  0  0  0  0  0  0  0  0  0  0
   46.5910   34.5290   42.6970 H   0  0  0  0  0  0  0  0  0  0  0  0
   44.5090   31.7220   48.0510 H   0  0  0  0  0  0  0  0  0  0  0  0
   44.8850   33.4050   48.2800 H   0  0  0  0  0  0  0  0  0  0  0  0
   46.5350   32.8800   49.6950 H   0  0  0  0  0  0  0  0  0  0  0  0
   46.1240   31.1620   49.5410 H   0  0  0  0  0  0  0  0  0  0  0  0
   48.2340   31.0660   48.4880 H   0  0  0  0  0  0  0  0  0  0  0  0
   48.2370   32.8980   48.1810 H   0  0  0  0  0  0  0  0  0  0  0  0
   47.9570   32.0660   46.0830 H   0  0  0  0  0  0  0  0  0  0  0  0
   44.8070   36.5480   42.9560 N   0  0  0  0  0  0  0  0  0  0  0  0
   43.8370   36.4480   42.5870 H   0  0  0  0  0  0  0  0  0  0  0  0
   45.4680   37.3180   42.6840 H   0  0  0  0  0  0  0  0  0  0  0  0
   46.6470   30.0520   46.5670 S   0  0  0  0  0  0  0  0  0  0  0  0
   45.6400   30.5460   43.4170 O   0  0  0  0  0  0  0  0  0  0  0  0
   45.0150   29.9960   44.3380 C   0  0  0  0  0  0  0  0  0  0  0  0
   45.1090   29.7560   45.8070 C   0  0  1  0  0  0  0  0  0  0  0  0
   44.5830   28.3510   45.9140 C   0  0  0  0  0  0  0  0  0  0  0  0
   43.2520   28.5680   45.1570 C   0  0  0  0  0  0  0  0  0  0  0  0
   43.7810   29.3390   44.0110 N   0  0  0  0  0  0  0  0  0  0  0  0
   44.2150   30.3500   46.1490 H   0  0  0  0  0  0  0  0  0  0  0  0
   44.3970   28.0560   46.9550 H   0  0  0  0  0  0  0  0  0  0  0  0
   45.1870   27.6360   45.3310 H   0  0  0  0  0  0  0  0  0  0  0  0
   42.8630   27.5920   44.8340 H   0  0  0  0  0  0  0  0  0  0  0  0
   42.5570   29.1610   45.7640 H   0  0  0  0  0  0  0  0  0  0  0  0
   42.9850   29.2920   42.7990 C   0  0  0  0  0  0  0  0  0  0  0  0
   43.2130   28.4070   41.7630 C   0  0  0  0  0  0  0  0  0  0  0  0
   44.0640   27.6580   41.8290 H   0  0  0  0  0  0  0  0  0  0  0  0
   41.8180   28.9400   40.5870 S   0  0  0  0  0  0  0  0  0  0  0  0
   41.2350   30.2690   41.7950 C   0  0  0  0  0  0  0  0  0  0  0  0
   40.3860   30.8910   41.5370 H   0  0  0  0  0  0  0  0  0  0  0  0
   42.0010   30.1870   42.7650 N   0  0  0  0  0  0  0  0  0  0  0  0
  1 12  1  0  0  0  0
  1  6  1  0  0  0  0
  2  1  2  0  0  0  0
  3  2  1  0  0  0  0
  3  4  2  0  0  0  0
  4  5  1  0  0  0  0
  5  6  2  0  0  0  0
  5  7  1  0  0  0  0
  7  8  1  0  0  0  0
  8 14  1  0  0  0  0
  8 15  1  0  0  0  0
  8  9  1  0  0  0  0
  9 17  1  0  0  0  0
  9 16  1  0  0  0  0
 10 19  1  0  0  0  0
 10 18  1  0  0  0  0
 10  9  1  0  0  0  0
 11 20  1  6  0  0  0
 11  7  1  0  0  0  0
 11 10  1  0  0  0  0
 13  3  1  0  0  0  0
 21  2  1  0  0  0  0
 22 21  1  0  0  0  0
 23 21  1  0  0  0  0
 24 11  1  0  0  0  0
 25 26  2  0  0  0  0
 26 27  1  0  0  0  0
 27 28  1  0  0  0  0
 27 31  1  1  0  0  0
 27 24  1  0  0  0  0
 28 32  1  0  0  0  0
 29 35  1  0  0  0  0
 29 28  1  0  0  0  0
 30 26  1  0  0  0  0
 30 29  1  0  0  0  0
 33 28  1  0  0  0  0
 34 29  1  0  0  0  0
 36 30  1  0  0  0  0
 37 38  1  0  0  0  0
 37 36  2  0  0  0  0
 39 37  1  0  0  0  0
 39 40  1  0  0  0  0
 40 42  2  0  0  0  0
 41 40  1  0  0  0  0
 42 36  1  0  0  0  0
M  END
>  <minimizedAffinity>
-5.25010777

>  <minimizedRMSD>
0.38350305

$$$$
