
 OpenBabel03252509273D

 28 30  0  0  1  0  0  0  0  0999 V2000
   46.6370   35.1140   41.9250 C   0  0  1  0  0  0  0  0  0  0  0  0
   48.1910   35.2170   41.9560 C   0  0  0  0  0  0  0  0  0  0  0  0
   47.3420   34.0930   41.2730 C   0  0  2  0  0  0  0  0  0  0  0  0
   46.1570   35.9570   41.3870 H   0  0  0  0  0  0  0  0  0  0  0  0
   48.7180   34.9630   42.8740 H   0  0  0  0  0  0  0  0  0  0  0  0
   48.6090   35.9160   41.2230 H   0  0  0  0  0  0  0  0  0  0  0  0
   47.5370   33.0860   41.7590 H   0  0  0  0  0  0  0  0  0  0  0  0
   44.6380   35.3970   45.0920 C   0  0  0  0  0  0  0  0  0  0  0  0
   45.1330   35.7250   43.7880 C   0  0  0  0  0  0  0  0  0  0  0  0
   46.0990   34.8980   43.3190 C   0  0  0  0  0  0  0  0  0  0  0  0
   46.5650   33.8260   44.0470 N   0  0  0  0  0  0  0  0  0  0  0  0
   46.0750   33.5510   45.2680 C   0  0  0  0  0  0  0  0  0  0  0  0
   45.1080   34.3390   45.7910 N   0  0  0  0  0  0  0  0  0  0  0  0
   43.8580   36.0750   45.4540 H   0  0  0  0  0  0  0  0  0  0  0  0
   46.4590   32.7050   45.8150 H   0  0  0  0  0  0  0  0  0  0  0  0
   44.6740   36.8400   43.0660 N   0  0  0  0  0  0  0  0  0  0  0  0
   45.4100   37.5350   43.3720 H   0  0  0  0  0  0  0  0  0  0  0  0
   43.8660   36.9820   42.4180 H   0  0  0  0  0  0  0  0  0  0  0  0
   47.4130   33.9920   39.7700 C   0  0  0  0  0  0  0  0  0  0  0  0
   48.3970   33.5870   39.4600 H   0  0  0  0  0  0  0  0  0  0  0  0
   47.3970   35.0330   39.3880 H   0  0  0  0  0  0  0  0  0  0  0  0
   46.3040   33.1490   39.2190 C   0  0  0  0  0  0  0  0  0  0  0  0
   46.0610   33.0460   37.8510 C   0  0  0  0  0  0  0  0  0  0  0  0
   46.6610   33.5750   37.0680 H   0  0  0  0  0  0  0  0  0  0  0  0
   44.6080   31.8980   37.7870 S   0  0  0  0  0  0  0  0  0  0  0  0
   44.6020   31.7680   39.6690 C   0  0  0  0  0  0  0  0  0  0  0  0
   43.8950   31.1680   40.2580 H   0  0  0  0  0  0  0  0  0  0  0  0
   45.4790   32.4440   39.9830 N   0  0  0  0  0  0  0  0  0  0  0  0
  1  4  1  6  0  0  0
  1  2  1  0  0  0  0
  1 10  1  0  0  0  0
  2  5  1  0  0  0  0
  3  7  1  1  0  0  0
  3  1  1  0  0  0  0
  3  2  1  0  0  0  0
  6  2  1  0  0  0  0
  8 14  1  0  0  0  0
  8 13  1  0  0  0  0
  9  8  2  0  0  0  0
 10  9  1  0  0  0  0
 10 11  2  0  0  0  0
 11 12  1  0  0  0  0
 12 13  2  0  0  0  0
 12 15  1  0  0  0  0
 16 17  1  0  0  0  0
 16  9  1  0  0  0  0
 18 16  1  0  0  0  0
 19  3  1  0  0  0  0
 20 19  1  0  0  0  0
 21 19  1  0  0  0  0
 22 19  1  0  0  0  0
 22 28  1  0  0  0  0
 23 22  2  0  0  0  0
 24 23  1  0  0  0  0
 25 23  1  0  0  0  0
 25 26  1  0  0  0  0
 26 28  2  0  0  0  0
 26 27  1  0  0  0  0
M  END
>  <minimizedAffinity>
-4.46020031

>  <minimizedRMSD>
0.636383176

$$$$
