
 OpenBabel03242523423D

 22 23  0  0  1  0  0  0  0  0999 V2000
   47.6220   35.1700   41.6920 C   0  0  2  0  0  0  0  0  0  0  0  0
   47.4800   36.2610   41.5040 H   0  0  0  0  0  0  0  0  0  0  0  0
   45.6580   35.5530   43.1590 C   0  0  0  0  0  0  0  0  0  0  0  0
   46.8170   34.8320   42.8750 C   0  0  0  0  0  0  0  0  0  0  0  0
   47.1950   33.7760   43.7490 C   0  0  0  0  0  0  0  0  0  0  0  0
   46.3880   33.5380   44.8220 N   0  0  0  0  0  0  0  0  0  0  0  0
   45.2860   34.2570   45.0530 C   0  0  0  0  0  0  0  0  0  0  0  0
   44.9330   35.2490   44.2270 N   0  0  0  0  0  0  0  0  0  0  0  0
   45.3020   36.3680   42.5450 H   0  0  0  0  0  0  0  0  0  0  0  0
   48.0840   33.1950   43.5600 H   0  0  0  0  0  0  0  0  0  0  0  0
   44.6580   34.0470   45.9180 H   0  0  0  0  0  0  0  0  0  0  0  0
   47.2750   34.3800   40.4800 C   0  0  0  0  0  0  0  0  0  0  0  0
   48.2200   34.3110   39.3610 C   0  0  0  0  0  0  0  0  0  0  0  0
   49.1500   34.7800   39.3310 H   0  0  0  0  0  0  0  0  0  0  0  0
   47.3460   33.2660   38.1880 S   0  0  0  0  0  0  0  0  0  0  0  0
   45.8470   33.0760   39.3670 C   0  0  0  0  0  0  0  0  0  0  0  0
   44.9680   32.4910   39.1130 H   0  0  0  0  0  0  0  0  0  0  0  0
   46.1490   33.7110   40.3150 N   0  0  0  0  0  0  0  0  0  0  0  0
   49.0830   35.0200   42.0560 C   0  0  0  0  0  0  0  0  0  0  0  0
   49.6210   35.9990   42.1090 H   0  0  0  0  0  0  0  0  0  0  0  0
   49.5690   34.4870   41.1860 H   0  0  0  0  0  0  0  0  0  0  0  0
   49.1640   34.4420   42.9800 H   0  0  0  0  0  0  0  0  0  0  0  0
  1  2  1  6  0  0  0
  1 19  1  0  0  0  0
  1  4  1  0  0  0  0
  3  8  1  0  0  0  0
  4  3  2  0  0  0  0
  4  5  1  0  0  0  0
  5  6  2  0  0  0  0
  6  7  1  0  0  0  0
  7 11  1  0  0  0  0
  8  7  2  0  0  0  0
  9  3  1  0  0  0  0
 10  5  1  0  0  0  0
 12  1  1  0  0  0  0
 13 12  2  0  0  0  0
 14 13  1  0  0  0  0
 15 13  1  0  0  0  0
 15 16  1  0  0  0  0
 16 18  2  0  0  0  0
 17 16  1  0  0  0  0
 18 12  1  0  0  0  0
 19 20  1  0  0  0  0
 19 22  1  0  0  0  0
 21 19  1  0  0  0  0
M  END
>  <minimizedAffinity>
-3.99119639

>  <minimizedRMSD>
1.35289514

$$$$
