
 OpenBabel03242517583D

 41 43  0  0  0  0  0  0  0  0999 V2000
   36.1770   29.8860   40.7090 O   0  0  0  0  0  0  0  0  0  0  0  0
   36.3920   29.5640   38.2720 C   0  0  0  0  0  0  0  0  0  0  0  0
   35.7080   29.5510   39.4390 C   0  0  0  0  0  0  0  0  0  0  0  0
   34.3810   29.1600   39.4130 C   0  0  0  0  0  0  0  0  0  0  0  0
   33.7360   28.7870   38.2580 C   0  0  0  0  0  0  0  0  0  0  0  0
   34.4460   28.8050   37.0790 C   0  0  0  0  0  0  0  0  0  0  0  0
   35.7760   29.1950   37.0970 C   0  0  0  0  0  0  0  0  0  0  0  0
   33.7640   29.1220   40.3010 H   0  0  0  0  0  0  0  0  0  0  0  0
   32.6960   28.4830   38.2450 H   0  0  0  0  0  0  0  0  0  0  0  0
   33.9580   28.5150   36.1560 H   0  0  0  0  0  0  0  0  0  0  0  0
   36.3480   29.2140   36.1750 H   0  0  0  0  0  0  0  0  0  0  0  0
   38.0260   30.1660   38.3510 S   0  0  0  0  0  0  0  0  0  0  0  0
   38.7870   30.0580   37.1000 O   0  0  0  0  0  0  0  0  0  0  0  0
   38.7580   29.2240   39.3330 O   0  0  0  0  0  0  0  0  0  0  0  0
   38.1320   31.7100   39.1800 C   0  0  0  0  0  0  0  0  0  0  0  0
   39.2170   31.8800   40.0530 C   0  0  0  0  0  0  0  0  0  0  0  0
   40.0310   31.2470   40.3410 H   0  0  0  0  0  0  0  0  0  0  0  0
   39.0010   33.5780   40.7180 S   0  0  0  0  0  0  0  0  0  0  0  0
   37.4130   33.7700   39.6520 C   0  0  0  0  0  0  0  0  0  0  0  0
   36.7370   34.6340   39.5790 H   0  0  0  0  0  0  0  0  0  0  0  0
   37.3480   32.7580   39.1170 N   0  0  0  0  0  0  0  0  0  0  0  0
   38.0060   28.7750   43.5190 C   0  0  0  0  0  0  0  0  0  0  0  0
   37.8500   27.3770   43.4470 C   0  0  0  0  0  0  0  0  0  0  0  0
   37.1150   26.8380   42.4280 C   0  0  0  0  0  0  0  0  0  0  0  0
   36.5840   27.6990   41.5510 N   0  0  0  0  0  0  0  0  0  0  0  0
   36.7290   29.0150   41.6170 C   0  0  0  0  0  0  0  0  0  0  0  0
   37.4430   29.5530   42.6040 N   0  0  0  0  0  0  0  0  0  0  0  0
   38.5860   29.2160   44.3190 H   0  0  0  0  0  0  0  0  0  0  0  0
   38.3170   26.8020   44.1930 H   0  0  0  0  0  0  0  0  0  0  0  0
   36.9160   25.3950   42.2510 C   0  0  0  0  0  0  0  0  0  0  0  0
   37.0480   24.8710   43.2160 H   0  0  0  0  0  0  0  0  0  0  0  0
   35.8550   25.2450   41.9630 H   0  0  0  0  0  0  0  0  0  0  0  0
   37.7810   24.7930   41.1890 C   0  0  0  0  0  0  0  0  0  0  0  0
   37.6640   23.6730   41.3330 H   0  0  0  0  0  0  0  0  0  0  0  0
   38.8470   24.9500   41.2640 H   0  0  0  0  0  0  0  0  0  0  0  0
   37.2980   25.0210   39.8250 C   0  0  0  0  0  3  0  0  0  0  0  0
   36.1880   25.2720   39.1430 C   0  0  0  0  0  3  0  0  0  0  0  0
   36.0510   25.3520   37.6330 C   0  0  0  0  0  0  0  0  0  0  0  0
   35.6920   26.3850   37.4440 H   0  0  0  0  0  0  0  0  0  0  0  0
   37.0650   25.2510   37.2330 H   0  0  0  0  0  0  0  0  0  0  0  0
   35.3250   24.6340   37.2530 H   0  0  0  0  0  0  0  0  0  0  0  0
  1 26  1  0  0  0  0
  2 12  1  0  0  0  0
  2  3  1  0  0  0  0
  3  1  1  0  0  0  0
  4  3  2  0  0  0  0
  4  8  1  0  0  0  0
  5  4  1  0  0  0  0
  6  7  1  0  0  0  0
  6  5  2  0  0  0  0
  7  2  2  0  0  0  0
  9  5  1  0  0  0  0
 10  6  1  0  0  0  0
 11  7  1  0  0  0  0
 12 15  1  0  0  0  0
 12 14  2  0  0  0  0
 13 12  2  0  0  0  0
 15 16  2  0  0  0  0
 16 17  1  0  0  0  0
 16 18  1  0  0  0  0
 19 18  1  0  0  0  0
 20 19  1  0  0  0  0
 21 15  1  0  0  0  0
 21 19  2  0  0  0  0
 22 28  1  0  0  0  0
 23 22  1  0  0  0  0
 23 29  1  0  0  0  0
 24 23  2  0  0  0  0
 25 26  2  0  0  0  0
 25 24  1  0  0  0  0
 26 27  1  0  0  0  0
 27 22  2  0  0  0  0
 30 24  1  0  0  0  0
 30 31  1  0  0  0  0
 32 30  1  0  0  0  0
 33 35  1  0  0  0  0
 33 34  1  0  0  0  0
 33 30  1  0  0  0  0
 36 33  1  0  0  0  0
 37 36  2  0  0  0  0
 38 37  1  0  0  0  0
 39 38  1  0  0  0  0
 40 38  1  0  0  0  0
 41 38  1  0  0  0  0
M  END
>  <minimizedAffinity>
-5.36453867

$$$$

 OpenBabel03242517583D

 41 43  0  0  0  0  0  0  0  0999 V2000
   38.3920   28.1730   39.6970 O   0  0  0  0  0  0  0  0  0  0  0  0
   38.4750   28.9660   42.0310 C   0  0  0  0  0  0  0  0  0  0  0  0
   38.0870   28.1130   41.0560 C   0  0  0  0  0  0  0  0  0  0  0  0
   37.2870   27.0410   41.4080 C   0  0  0  0  0  0  0  0  0  0  0  0
   36.8740   26.8100   42.6990 C   0  0  0  0  0  0  0  0  0  0  0  0
   37.2770   27.6880   43.6800 C   0  0  0  0  0  0  0  0  0  0  0  0
   38.0780   28.7650   43.3340 C   0  0  0  0  0  0  0  0  0  0  0  0
   36.9330   26.3130   40.6900 H   0  0  0  0  0  0  0  0  0  0  0  0
   36.2470   25.9680   42.9680 H   0  0  0  0  0  0  0  0  0  0  0  0
   36.9630   27.5260   44.7050 H   0  0  0  0  0  0  0  0  0  0  0  0
   38.4030   29.4650   44.0970 H   0  0  0  0  0  0  0  0  0  0  0  0
   39.5680   30.2360   41.5460 S   0  0  0  0  0  0  0  0  0  0  0  0
   40.7820   29.7780   40.8590 O   0  0  0  0  0  0  0  0  0  0  0  0
   40.0780   30.8560   42.8660 O   0  0  0  0  0  0  0  0  0  0  0  0
   38.7330   31.5910   40.8050 C   0  0  0  0  0  0  0  0  0  0  0  0
   39.3960   32.8270   40.8340 C   0  0  0  0  0  0  0  0  0  0  0  0
   40.3410   33.1420   41.2270 H   0  0  0  0  0  0  0  0  0  0  0  0
   38.2460   33.9770   39.9810 S   0  0  0  0  0  0  0  0  0  0  0  0
   37.0160   32.5220   39.7250 C   0  0  0  0  0  0  0  0  0  0  0  0
   36.0330   32.5350   39.2340 H   0  0  0  0  0  0  0  0  0  0  0  0
   37.5660   31.6420   40.2130 N   0  0  0  0  0  0  0  0  0  0  0  0
   37.3890   29.7740   36.7130 C   0  0  0  0  0  0  0  0  0  0  0  0
   35.9940   29.5710   36.7160 C   0  0  0  0  0  0  0  0  0  0  0  0
   35.4210   28.8840   37.7480 C   0  0  0  0  0  0  0  0  0  0  0  0
   36.2470   28.4420   38.7060 N   0  0  0  0  0  0  0  0  0  0  0  0
   37.5580   28.6320   38.7060 C   0  0  0  0  0  0  0  0  0  0  0  0
   38.1290   29.3000   37.7060 N   0  0  0  0  0  0  0  0  0  0  0  0
   37.8570   30.3170   35.9020 H   0  0  0  0  0  0  0  0  0  0  0  0
   35.4490   29.9670   35.9090 H   0  0  0  0  0  0  0  0  0  0  0  0
   33.9780   28.6430   37.8570 C   0  0  0  0  0  0  0  0  0  0  0  0
   33.7900   27.6230   38.2430 H   0  0  0  0  0  0  0  0  0  0  0  0
   33.5880   29.3380   38.6290 H   0  0  0  0  0  0  0  0  0  0  0  0
   33.2290   28.8830   36.5850 C   0  0  0  0  0  0  0  0  0  0  0  0
   32.8600   27.8550   36.2780 H   0  0  0  0  0  0  0  0  0  0  0  0
   33.7940   29.2180   35.7280 H   0  0  0  0  0  0  0  0  0  0  0  0
   31.9980   29.6590   36.7540 C   0  0  0  0  0  3  0  0  0  0  0  0
   31.3460   30.6970   36.2490 C   0  0  0  0  0  3  0  0  0  0  0  0
   30.0610   31.3080   36.7820 C   0  0  0  0  0  0  0  0  0  0  0  0
   29.3400   31.2040   35.9460 H   0  0  0  0  0  0  0  0  0  0  0  0
   29.7420   30.6640   37.6080 H   0  0  0  0  0  0  0  0  0  0  0  0
   30.1870   32.3610   37.0330 H   0  0  0  0  0  0  0  0  0  0  0  0
  1  3  1  0  0  0  0
  2  7  1  0  0  0  0
  3  4  1  0  0  0  0
  3  2  2  0  0  0  0
  4  5  2  0  0  0  0
  5  9  1  0  0  0  0
  5  6  1  0  0  0  0
  6 10  1  0  0  0  0
  7  6  2  0  0  0  0
  7 11  1  0  0  0  0
  8  4  1  0  0  0  0
 12  2  1  0  0  0  0
 12 14  2  0  0  0  0
 13 12  2  0  0  0  0
 15 16  2  0  0  0  0
 15 12  1  0  0  0  0
 16 17  1  0  0  0  0
 18 16  1  0  0  0  0
 19 18  1  0  0  0  0
 19 21  2  0  0  0  0
 20 19  1  0  0  0  0
 21 15  1  0  0  0  0
 22 23  2  0  0  0  0
 22 27  1  0  0  0  0
 23 24  1  0  0  0  0
 24 30  1  0  0  0  0
 24 25  2  0  0  0  0
 26 25  1  0  0  0  0
 26  1  1  0  0  0  0
 27 26  2  0  0  0  0
 28 22  1  0  0  0  0
 29 23  1  0  0  0  0
 30 31  1  0  0  0  0
 30 32  1  0  0  0  0
 33 36  1  0  0  0  0
 33 30  1  0  0  0  0
 34 33  1  0  0  0  0
 35 33  1  0  0  0  0
 37 36  2  0  0  0  0
 37 38  1  0  0  0  0
 38 41  1  0  0  0  0
 38 40  1  0  0  0  0
 39 38  1  0  0  0  0
M  END
>  <minimizedAffinity>
-5.33653975

$$$$

 OpenBabel03242517583D

 41 43  0  0  0  0  0  0  0  0999 V2000
   37.9930   31.0340   38.7620 O   0  0  0  0  0  0  0  0  0  0  0  0
   40.1300   32.2110   39.1330 C   0  0  0  0  0  0  0  0  0  0  0  0
   38.7850   32.0880   39.2180 C   0  0  0  0  0  0  0  0  0  0  0  0
   38.0740   33.1110   39.8190 C   0  0  0  0  0  0  0  0  0  0  0  0
   38.6730   34.2380   40.3280 C   0  0  0  0  0  0  0  0  0  0  0  0
   40.0430   34.3480   40.2330 C   0  0  0  0  0  0  0  0  0  0  0  0
   40.7620   33.3270   39.6320 C   0  0  0  0  0  0  0  0  0  0  0  0
   36.9970   33.0910   39.9270 H   0  0  0  0  0  0  0  0  0  0  0  0
   38.1110   35.0350   40.7980 H   0  0  0  0  0  0  0  0  0  0  0  0
   40.5370   35.2280   40.6280 H   0  0  0  0  0  0  0  0  0  0  0  0
   41.8420   33.4000   39.5500 H   0  0  0  0  0  0  0  0  0  0  0  0
   40.9810   30.8440   38.4620 S   0  0  0  0  0  0  0  0  0  0  0  0
   40.3000   30.1760   37.3470 O   0  0  0  0  0  0  0  0  0  0  0  0
   41.0050   29.7890   39.5910 O   0  0  0  0  0  0  0  0  0  0  0  0
   42.6910   31.1690   38.2310 C   0  0  0  0  0  0  0  0  0  0  0  0
   43.0970   31.4930   36.9280 C   0  0  0  0  0  0  0  0  0  0  0  0
   42.5720   31.5890   36.0000 H   0  0  0  0  0  0  0  0  0  0  0  0
   44.9080   31.7640   37.0730 S   0  0  0  0  0  0  0  0  0  0  0  0
   44.7940   31.3750   38.9520 C   0  0  0  0  0  0  0  0  0  0  0  0
   45.6000   31.3600   39.6980 H   0  0  0  0  0  0  0  0  0  0  0  0
   43.6770   31.1610   39.0940 N   0  0  0  0  0  0  0  0  0  0  0  0
   35.0940   29.2760   39.7530 C   0  0  0  0  0  0  0  0  0  0  0  0
   35.4780   28.7380   40.9980 C   0  0  0  0  0  0  0  0  0  0  0  0
   36.7330   28.9910   41.4760 C   0  0  0  0  0  0  0  0  0  0  0  0
   37.5260   29.7500   40.7090 N   0  0  0  0  0  0  0  0  0  0  0  0
   37.1670   30.2560   39.5380 C   0  0  0  0  0  0  0  0  0  0  0  0
   35.9480   30.0180   39.0600 N   0  0  0  0  0  0  0  0  0  0  0  0
   34.1040   29.0850   39.3610 H   0  0  0  0  0  0  0  0  0  0  0  0
   34.7670   28.1580   41.5110 H   0  0  0  0  0  0  0  0  0  0  0  0
   37.2180   28.5000   42.7710 C   0  0  0  0  0  0  0  0  0  0  0  0
   38.3240   28.4820   42.7810 H   0  0  0  0  0  0  0  0  0  0  0  0
   36.9180   29.2460   43.5360 H   0  0  0  0  0  0  0  0  0  0  0  0
   36.6540   27.1710   43.1620 C   0  0  0  0  0  0  0  0  0  0  0  0
   35.5740   27.2110   42.8130 H   0  0  0  0  0  0  0  0  0  0  0  0
   36.5740   26.9530   44.2160 H   0  0  0  0  0  0  0  0  0  0  0  0
   37.2190   26.0410   42.4200 C   0  0  0  0  0  3  0  0  0  0  0  0
   36.9880   24.7670   42.1330 C   0  0  0  0  0  3  0  0  0  0  0  0
   37.9060   23.8300   41.3660 C   0  0  0  0  0  0  0  0  0  0  0  0
   37.3080   23.5210   40.4850 H   0  0  0  0  0  0  0  0  0  0  0  0
   38.7460   24.4440   41.0270 H   0  0  0  0  0  0  0  0  0  0  0  0
   38.1760   22.9550   41.9560 H   0  0  0  0  0  0  0  0  0  0  0  0
  1  3  1  0  0  0  0
  1 26  1  0  0  0  0
  2  3  2  0  0  0  0
  2  7  1  0  0  0  0
  3  4  1  0  0  0  0
  4  8  1  0  0  0  0
  4  5  2  0  0  0  0
  5  9  1  0  0  0  0
  6  5  1  0  0  0  0
  6 10  1  0  0  0  0
  7  6  2  0  0  0  0
 11  7  1  0  0  0  0
 12  2  1  0  0  0  0
 12 14  2  0  0  0  0
 13 12  2  0  0  0  0
 15 12  1  0  0  0  0
 15 21  1  0  0  0  0
 16 18  1  0  0  0  0
 16 15  2  0  0  0  0
 17 16  1  0  0  0  0
 18 19  1  0  0  0  0
 19 21  2  0  0  0  0
 19 20  1  0  0  0  0
 22 23  1  0  0  0  0
 23 24  2  0  0  0  0
 23 29  1  0  0  0  0
 24 30  1  0  0  0  0
 25 24  1  0  0  0  0
 26 25  2  0  0  0  0
 27 26  1  0  0  0  0
 27 22  2  0  0  0  0
 28 22  1  0  0  0  0
 30 31  1  0  0  0  0
 30 33  1  0  0  0  0
 30 32  1  0  0  0  0
 33 35  1  0  0  0  0
 34 33  1  0  0  0  0
 36 33  1  0  0  0  0
 37 36  2  0  0  0  0
 38 41  1  0  0  0  0
 38 37  1  0  0  0  0
 39 38  1  0  0  0  0
 40 38  1  0  0  0  0
M  END
>  <minimizedAffinity>
-5.27489138

$$$$

 OpenBabel03242517583D

 41 43  0  0  0  0  0  0  0  0999 V2000
   36.2260   29.2320   40.2250 O   0  0  0  0  0  0  0  0  0  0  0  0
   38.3000   29.0380   41.5480 C   0  0  0  0  0  0  0  0  0  0  0  0
   36.9870   28.8090   41.3140 C   0  0  0  0  0  0  0  0  0  0  0  0
   36.2780   28.0740   42.2470 C   0  0  0  0  0  0  0  0  0  0  0  0
   36.8480   27.5710   43.3920 C   0  0  0  0  0  0  0  0  0  0  0  0
   38.1850   27.8130   43.6150 C   0  0  0  0  0  0  0  0  0  0  0  0
   38.9020   28.5490   42.6860 C   0  0  0  0  0  0  0  0  0  0  0  0
   35.2250   27.8460   42.1360 H   0  0  0  0  0  0  0  0  0  0  0  0
   36.2870   26.9950   44.1180 H   0  0  0  0  0  0  0  0  0  0  0  0
   38.6570   27.4260   44.5110 H   0  0  0  0  0  0  0  0  0  0  0  0
   39.9570   28.7480   42.8490 H   0  0  0  0  0  0  0  0  0  0  0  0
   39.1650   29.8770   40.2880 S   0  0  0  0  0  0  0  0  0  0  0  0
   39.2000   29.1860   38.9940 O   0  0  0  0  0  0  0  0  0  0  0  0
   40.6380   29.9000   40.7560 O   0  0  0  0  0  0  0  0  0  0  0  0
   38.7750   31.5880   40.2330 C   0  0  0  0  0  0  0  0  0  0  0  0
   39.7350   32.4680   40.7540 C   0  0  0  0  0  0  0  0  0  0  0  0
   40.6960   32.3200   41.2010 H   0  0  0  0  0  0  0  0  0  0  0  0
   38.9950   34.1330   40.5250 S   0  0  0  0  0  0  0  0  0  0  0  0
   37.4490   33.3120   39.7290 C   0  0  0  0  0  0  0  0  0  0  0  0
   36.5440   33.7950   39.3340 H   0  0  0  0  0  0  0  0  0  0  0  0
   37.7100   32.1970   39.7720 N   0  0  0  0  0  0  0  0  0  0  0  0
   34.0350   28.1790   37.6630 C   0  0  0  0  0  0  0  0  0  0  0  0
   34.5060   26.8820   37.3770 C   0  0  0  0  0  0  0  0  0  0  0  0
   35.5740   26.3900   38.0730 C   0  0  0  0  0  0  0  0  0  0  0  0
   36.1090   27.1960   39.0000 N   0  0  0  0  0  0  0  0  0  0  0  0
   35.6680   28.4160   39.2700 C   0  0  0  0  0  0  0  0  0  0  0  0
   34.6280   28.9070   38.6000 N   0  0  0  0  0  0  0  0  0  0  0  0
   33.1900   28.5810   37.1200 H   0  0  0  0  0  0  0  0  0  0  0  0
   34.0030   26.3420   36.6280 H   0  0  0  0  0  0  0  0  0  0  0  0
   36.1220   25.0440   37.8690 C   0  0  0  0  0  0  0  0  0  0  0  0
   35.8920   24.6910   36.8460 H   0  0  0  0  0  0  0  0  0  0  0  0
   37.2270   25.1310   37.9210 H   0  0  0  0  0  0  0  0  0  0  0  0
   35.6780   24.0500   38.8950 C   0  0  0  0  0  0  0  0  0  0  0  0
   35.7890   23.0460   38.3790 H   0  0  0  0  0  0  0  0  0  0  0  0
   34.6410   24.0710   39.1950 H   0  0  0  0  0  0  0  0  0  0  0  0
   36.5700   23.9480   40.0520 C   0  0  0  0  0  3  0  0  0  0  0  0
   36.7880   24.4800   41.2480 C   0  0  0  0  0  3  0  0  0  0  0  0
   37.9420   24.1650   42.1840 C   0  0  0  0  0  0  0  0  0  0  0  0
   37.4530   23.7780   43.1010 H   0  0  0  0  0  0  0  0  0  0  0  0
   38.5000   23.3510   41.7090 H   0  0  0  0  0  0  0  0  0  0  0  0
   38.5250   25.0530   42.4220 H   0  0  0  0  0  0  0  0  0  0  0  0
  1  3  1  0  0  0  0
  2  7  1  0  0  0  0
  3  2  2  0  0  0  0
  3  4  1  0  0  0  0
  4  5  2  0  0  0  0
  5  6  1  0  0  0  0
  5  9  1  0  0  0  0
  6 10  1  0  0  0  0
  7 11  1  0  0  0  0
  7  6  2  0  0  0  0
  8  4  1  0  0  0  0
 12 14  2  0  0  0  0
 12  2  1  0  0  0  0
 13 12  2  0  0  0  0
 15 12  1  0  0  0  0
 15 16  2  0  0  0  0
 16 17  1  0  0  0  0
 18 16  1  0  0  0  0
 19 21  2  0  0  0  0
 19 18  1  0  0  0  0
 20 19  1  0  0  0  0
 21 15  1  0  0  0  0
 22 27  1  0  0  0  0
 23 22  2  0  0  0  0
 23 24  1  0  0  0  0
 24 25  2  0  0  0  0
 25 26  1  0  0  0  0
 26  1  1  0  0  0  0
 27 26  2  0  0  0  0
 28 22  1  0  0  0  0
 29 23  1  0  0  0  0
 30 32  1  0  0  0  0
 30 24  1  0  0  0  0
 30 33  1  0  0  0  0
 31 30  1  0  0  0  0
 33 35  1  0  0  0  0
 33 36  1  0  0  0  0
 34 33  1  0  0  0  0
 36 37  2  0  0  0  0
 37 38  1  0  0  0  0
 38 41  1  0  0  0  0
 38 39  1  0  0  0  0
 40 38  1  0  0  0  0
M  END
>  <minimizedAffinity>
-5.26149035

$$$$

 OpenBabel03242517583D

 41 43  0  0  0  0  0  0  0  0999 V2000
   37.9350   29.9430   38.5730 O   0  0  0  0  0  0  0  0  0  0  0  0
   38.7450   31.3840   40.4050 C   0  0  0  0  0  0  0  0  0  0  0  0
   38.0470   31.1450   39.2710 C   0  0  0  0  0  0  0  0  0  0  0  0
   37.3510   32.1960   38.7010 C   0  0  0  0  0  0  0  0  0  0  0  0
   37.3400   33.4620   39.2360 C   0  0  0  0  0  0  0  0  0  0  0  0
   38.0550   33.6880   40.3900 C   0  0  0  0  0  0  0  0  0  0  0  0
   38.7560   32.6400   40.9670 C   0  0  0  0  0  0  0  0  0  0  0  0
   36.7690   32.0900   37.7950 H   0  0  0  0  0  0  0  0  0  0  0  0
   36.7920   34.2800   38.7850 H   0  0  0  0  0  0  0  0  0  0  0  0
   38.0610   34.6790   40.8310 H   0  0  0  0  0  0  0  0  0  0  0  0
   39.3240   32.8050   41.8770 H   0  0  0  0  0  0  0  0  0  0  0  0
   39.5140   29.9990   41.1350 S   0  0  0  0  0  0  0  0  0  0  0  0
   40.5970   30.3160   42.0750 O   0  0  0  0  0  0  0  0  0  0  0  0
   40.2120   29.2630   39.9700 O   0  0  0  0  0  0  0  0  0  0  0  0
   38.3540   28.7990   41.6800 C   0  0  0  0  0  0  0  0  0  0  0  0
   37.9640   28.8690   43.0260 C   0  0  0  0  0  0  0  0  0  0  0  0
   38.2310   29.5220   43.8320 H   0  0  0  0  0  0  0  0  0  0  0  0
   36.7680   27.4900   43.2230 S   0  0  0  0  0  0  0  0  0  0  0  0
   37.0150   27.0400   41.3710 C   0  0  0  0  0  0  0  0  0  0  0  0
   36.5450   26.2310   40.7940 H   0  0  0  0  0  0  0  0  0  0  0  0
   37.7750   27.8240   41.0230 N   0  0  0  0  0  0  0  0  0  0  0  0
   36.3800   29.2000   35.4900 C   0  0  0  0  0  0  0  0  0  0  0  0
   35.0400   28.9880   35.8720 C   0  0  0  0  0  0  0  0  0  0  0  0
   34.6930   29.1050   37.1880 C   0  0  0  0  0  0  0  0  0  0  0  0
   35.6760   29.4200   38.0420 N   0  0  0  0  0  0  0  0  0  0  0  0
   36.9370   29.6200   37.6860 C   0  0  0  0  0  0  0  0  0  0  0  0
   37.2880   29.5090   36.4060 N   0  0  0  0  0  0  0  0  0  0  0  0
   36.6690   29.1110   34.4520 H   0  0  0  0  0  0  0  0  0  0  0  0
   34.3560   28.7480   35.1110 H   0  0  0  0  0  0  0  0  0  0  0  0
   33.3220   28.9310   37.6820 C   0  0  0  0  0  0  0  0  0  0  0  0
   33.1910   27.9100   38.0870 H   0  0  0  0  0  0  0  0  0  0  0  0
   33.1960   29.6200   38.5430 H   0  0  0  0  0  0  0  0  0  0  0  0
   32.2710   29.2480   36.6670 C   0  0  0  0  0  0  0  0  0  0  0  0
   32.0290   28.2460   36.1910 H   0  0  0  0  0  0  0  0  0  0  0  0
   32.5560   29.8660   35.8280 H   0  0  0  0  0  0  0  0  0  0  0  0
   30.9950   29.6780   37.2430 C   0  0  0  0  0  3  0  0  0  0  0  0
   30.4930   30.4350   38.2090 C   0  0  0  0  0  3  0  0  0  0  0  0
   29.0280   30.5670   38.5890 C   0  0  0  0  0  0  0  0  0  0  0  0
   28.8020   31.6420   38.4410 H   0  0  0  0  0  0  0  0  0  0  0  0
   28.4720   29.9820   37.8500 H   0  0  0  0  0  0  0  0  0  0  0  0
   28.8530   30.2920   39.6290 H   0  0  0  0  0  0  0  0  0  0  0  0
  1  3  1  0  0  0  0
  2  7  1  0  0  0  0
  2 12  1  0  0  0  0
  3  2  2  0  0  0  0
  4  5  2  0  0  0  0
  4  3  1  0  0  0  0
  5  6  1  0  0  0  0
  6 10  1  0  0  0  0
  6  7  2  0  0  0  0
  7 11  1  0  0  0  0
  8  4  1  0  0  0  0
  9  5  1  0  0  0  0
 12 15  1  0  0  0  0
 12 13  2  0  0  0  0
 14 12  2  0  0  0  0
 15 16  2  0  0  0  0
 16 18  1  0  0  0  0
 16 17  1  0  0  0  0
 19 18  1  0  0  0  0
 20 19  1  0  0  0  0
 21 19  2  0  0  0  0
 21 15  1  0  0  0  0
 22 23  2  0  0  0  0
 22 27  1  0  0  0  0
 23 24  1  0  0  0  0
 24 30  1  0  0  0  0
 24 25  2  0  0  0  0
 26 25  1  0  0  0  0
 26  1  1  0  0  0  0
 27 26  2  0  0  0  0
 28 22  1  0  0  0  0
 29 23  1  0  0  0  0
 30 31  1  0  0  0  0
 30 32  1  0  0  0  0
 33 36  1  0  0  0  0
 33 30  1  0  0  0  0
 34 33  1  0  0  0  0
 35 33  1  0  0  0  0
 36 37  2  0  0  0  0
 37 38  1  0  0  0  0
 38 41  1  0  0  0  0
 39 38  1  0  0  0  0
 40 38  1  0  0  0  0
M  END
>  <minimizedAffinity>
-5.20983648

$$$$

 OpenBabel03242517583D

 41 43  0  0  0  0  0  0  0  0999 V2000
   36.5240   29.3580   39.8520 O   0  0  0  0  0  0  0  0  0  0  0  0
   38.4170   28.9490   41.3810 C   0  0  0  0  0  0  0  0  0  0  0  0
   37.1210   28.8520   41.0070 C   0  0  0  0  0  0  0  0  0  0  0  0
   36.2480   28.1820   41.8460 C   0  0  0  0  0  0  0  0  0  0  0  0
   36.6430   27.6160   43.0340 C   0  0  0  0  0  0  0  0  0  0  0  0
   37.9660   27.7240   43.4010 C   0  0  0  0  0  0  0  0  0  0  0  0
   38.8460   28.3950   42.5660 C   0  0  0  0  0  0  0  0  0  0  0  0
   35.1970   28.0600   41.6210 H   0  0  0  0  0  0  0  0  0  0  0  0
   35.9550   27.0920   43.6870 H   0  0  0  0  0  0  0  0  0  0  0  0
   38.3000   27.2850   44.3340 H   0  0  0  0  0  0  0  0  0  0  0  0
   39.8910   28.4870   42.8420 H   0  0  0  0  0  0  0  0  0  0  0  0
   39.4880   29.7110   40.2350 S   0  0  0  0  0  0  0  0  0  0  0  0
   39.5340   29.0750   38.9120 O   0  0  0  0  0  0  0  0  0  0  0  0
   40.9080   29.5100   40.8120 O   0  0  0  0  0  0  0  0  0  0  0  0
   39.3390   31.4610   40.2390 C   0  0  0  0  0  0  0  0  0  0  0  0
   40.5340   32.1910   40.3070 C   0  0  0  0  0  0  0  0  0  0  0  0
   41.5640   31.9060   40.3620 H   0  0  0  0  0  0  0  0  0  0  0  0
   39.9930   33.9460   40.2860 S   0  0  0  0  0  0  0  0  0  0  0  0
   38.1650   33.3580   40.1830 C   0  0  0  0  0  0  0  0  0  0  0  0
   37.2520   33.9670   40.1360 H   0  0  0  0  0  0  0  0  0  0  0  0
   38.2710   32.2170   40.1840 N   0  0  0  0  0  0  0  0  0  0  0  0
   35.4760   26.6060   37.9010 C   0  0  0  0  0  0  0  0  0  0  0  0
   34.3820   27.1390   37.1910 C   0  0  0  0  0  0  0  0  0  0  0  0
   34.0220   28.4410   37.3960 C   0  0  0  0  0  0  0  0  0  0  0  0
   34.7540   29.1330   38.2790 N   0  0  0  0  0  0  0  0  0  0  0  0
   35.7830   28.6340   38.9490 C   0  0  0  0  0  0  0  0  0  0  0  0
   36.1440   27.3670   38.7580 N   0  0  0  0  0  0  0  0  0  0  0  0
   35.7730   25.5770   37.7490 H   0  0  0  0  0  0  0  0  0  0  0  0
   33.8850   26.4980   36.5220 H   0  0  0  0  0  0  0  0  0  0  0  0
   32.9170   29.0960   36.6870 C   0  0  0  0  0  0  0  0  0  0  0  0
   33.2980   29.9460   36.0910 H   0  0  0  0  0  0  0  0  0  0  0  0
   32.5190   28.3630   35.9550 H   0  0  0  0  0  0  0  0  0  0  0  0
   31.7970   29.5250   37.5810 C   0  0  0  0  0  0  0  0  0  0  0  0
   32.3070   30.1130   38.4080 H   0  0  0  0  0  0  0  0  0  0  0  0
   31.2580   28.7540   38.1120 H   0  0  0  0  0  0  0  0  0  0  0  0
   30.8860   30.4970   36.9730 C   0  0  0  0  0  3  0  0  0  0  0  0
   30.8520   31.4610   36.0630 C   0  0  0  0  0  3  0  0  0  0  0  0
   29.6790   32.3760   35.7560 C   0  0  0  0  0  0  0  0  0  0  0  0
   29.4460   32.1760   34.6900 H   0  0  0  0  0  0  0  0  0  0  0  0
   28.8490   32.0180   36.3730 H   0  0  0  0  0  0  0  0  0  0  0  0
   29.9390   33.4260   35.8870 H   0  0  0  0  0  0  0  0  0  0  0  0
  1  3  1  0  0  0  0
  2  7  1  0  0  0  0
  3  2  2  0  0  0  0
  3  4  1  0  0  0  0
  4  5  2  0  0  0  0
  5  6  1  0  0  0  0
  5  9  1  0  0  0  0
  6 10  1  0  0  0  0
  7 11  1  0  0  0  0
  7  6  2  0  0  0  0
  8  4  1  0  0  0  0
 12 15  1  0  0  0  0
 12 14  2  0  0  0  0
 12  2  1  0  0  0  0
 13 12  2  0  0  0  0
 15 16  2  0  0  0  0
 16 17  1  0  0  0  0
 18 16  1  0  0  0  0
 19 21  2  0  0  0  0
 19 18  1  0  0  0  0
 20 19  1  0  0  0  0
 21 15  1  0  0  0  0
 22 27  1  0  0  0  0
 23 24  1  0  0  0  0
 23 22  2  0  0  0  0
 24 25  2  0  0  0  0
 25 26  1  0  0  0  0
 26  1  1  0  0  0  0
 27 26  2  0  0  0  0
 28 22  1  0  0  0  0
 29 23  1  0  0  0  0
 30 24  1  0  0  0  0
 30 33  1  0  0  0  0
 31 30  1  0  0  0  0
 32 30  1  0  0  0  0
 33 35  1  0  0  0  0
 33 34  1  0  0  0  0
 36 33  1  0  0  0  0
 37 36  2  0  0  0  0
 38 41  1  0  0  0  0
 38 37  1  0  0  0  0
 38 40  1  0  0  0  0
 39 38  1  0  0  0  0
M  END
>  <minimizedAffinity>
-5.2081337

$$$$

 OpenBabel03242517583D

 41 43  0  0  0  0  0  0  0  0999 V2000
   36.1550   29.2000   40.4300 O   0  0  0  0  0  0  0  0  0  0  0  0
   37.0850   30.1720   38.3610 C   0  0  0  0  0  0  0  0  0  0  0  0
   36.6480   30.2380   39.6400 C   0  0  0  0  0  0  0  0  0  0  0  0
   36.6730   31.4670   40.2750 C   0  0  0  0  0  0  0  0  0  0  0  0
   37.1200   32.6140   39.6630 C   0  0  0  0  0  0  0  0  0  0  0  0
   37.5620   32.5300   38.3620 C   0  0  0  0  0  0  0  0  0  0  0  0
   37.5390   31.3020   37.7190 C   0  0  0  0  0  0  0  0  0  0  0  0
   36.3420   31.6060   41.2960 H   0  0  0  0  0  0  0  0  0  0  0  0
   37.1380   33.5730   40.1660 H   0  0  0  0  0  0  0  0  0  0  0  0
   37.9190   33.4210   37.8590 H   0  0  0  0  0  0  0  0  0  0  0  0
   37.8830   31.2210   36.6930 H   0  0  0  0  0  0  0  0  0  0  0  0
   37.1290   28.5800   37.6500 S   0  0  0  0  0  0  0  0  0  0  0  0
   38.0280   27.6290   38.3160 O   0  0  0  0  0  0  0  0  0  0  0  0
   37.7450   28.7810   36.2470 O   0  0  0  0  0  0  0  0  0  0  0  0
   35.5270   27.9760   37.2610 C   0  0  0  0  0  0  0  0  0  0  0  0
   34.6010   28.9150   36.7850 C   0  0  0  0  0  0  0  0  0  0  0  0
   34.6560   29.9680   36.6000 H   0  0  0  0  0  0  0  0  0  0  0  0
   33.0760   27.9360   36.4880 S   0  0  0  0  0  0  0  0  0  0  0  0
   33.9980   26.3590   37.0860 C   0  0  0  0  0  0  0  0  0  0  0  0
   33.6170   25.3310   37.1630 H   0  0  0  0  0  0  0  0  0  0  0  0
   35.0410   26.7620   37.3410 N   0  0  0  0  0  0  0  0  0  0  0  0
   37.8920   28.7670   43.4740 C   0  0  0  0  0  0  0  0  0  0  0  0
   38.1920   27.3900   43.4570 C   0  0  0  0  0  0  0  0  0  0  0  0
   37.7900   26.6320   42.3940 C   0  0  0  0  0  0  0  0  0  0  0  0
   37.1240   27.2670   41.4220 N   0  0  0  0  0  0  0  0  0  0  0  0
   36.8400   28.5610   41.4360 C   0  0  0  0  0  0  0  0  0  0  0  0
   37.2260   29.3120   42.4650 N   0  0  0  0  0  0  0  0  0  0  0  0
   38.2040   29.3800   44.3090 H   0  0  0  0  0  0  0  0  0  0  0  0
   38.7240   27.0030   44.2780 H   0  0  0  0  0  0  0  0  0  0  0  0
   38.0770   25.1980   42.2700 C   0  0  0  0  0  0  0  0  0  0  0  0
   38.8140   25.0260   41.4630 H   0  0  0  0  0  0  0  0  0  0  0  0
   38.5740   24.8810   43.2100 H   0  0  0  0  0  0  0  0  0  0  0  0
   36.8570   24.3540   42.0740 C   0  0  0  0  0  0  0  0  0  0  0  0
   35.9910   25.0720   42.2290 H   0  0  0  0  0  0  0  0  0  0  0  0
   36.6710   23.5700   42.7930 H   0  0  0  0  0  0  0  0  0  0  0  0
   36.6740   23.8790   40.7010 C   0  0  0  0  0  3  0  0  0  0  0  0
   35.7930   23.8790   39.7090 C   0  0  0  0  0  3  0  0  0  0  0  0
   35.9220   23.1520   38.3810 C   0  0  0  0  0  0  0  0  0  0  0  0
   35.8870   23.9590   37.6220 H   0  0  0  0  0  0  0  0  0  0  0  0
   36.9230   22.7070   38.3780 H   0  0  0  0  0  0  0  0  0  0  0  0
   35.1010   22.4550   38.2200 H   0  0  0  0  0  0  0  0  0  0  0  0
  1 26  1  0  0  0  0
  2  3  1  0  0  0  0
  3  4  2  0  0  0  0
  3  1  1  0  0  0  0
  4  8  1  0  0  0  0
  5  9  1  0  0  0  0
  5  4  1  0  0  0  0
  6  5  2  0  0  0  0
  7  2  2  0  0  0  0
  7  6  1  0  0  0  0
 10  6  1  0  0  0  0
 11  7  1  0  0  0  0
 12 13  2  0  0  0  0
 12  2  1  0  0  0  0
 14 12  2  0  0  0  0
 15 21  1  0  0  0  0
 15 12  1  0  0  0  0
 16 15  2  0  0  0  0
 17 16  1  0  0  0  0
 18 16  1  0  0  0  0
 18 19  1  0  0  0  0
 19 20  1  0  0  0  0
 19 21  2  0  0  0  0
 22 28  1  0  0  0  0
 23 22  1  0  0  0  0
 23 29  1  0  0  0  0
 24 23  2  0  0  0  0
 25 26  2  0  0  0  0
 25 24  1  0  0  0  0
 26 27  1  0  0  0  0
 27 22  2  0  0  0  0
 30 24  1  0  0  0  0
 30 32  1  0  0  0  0
 31 30  1  0  0  0  0
 33 34  1  0  0  0  0
 33 30  1  0  0  0  0
 33 35  1  0  0  0  0
 36 33  1  0  0  0  0
 37 36  2  0  0  0  0
 38 37  1  0  0  0  0
 39 38  1  0  0  0  0
 40 38  1  0  0  0  0
 41 38  1  0  0  0  0
M  END
>  <minimizedAffinity>
-5.17998219

$$$$

 OpenBabel03242517583D

 41 43  0  0  0  0  0  0  0  0999 V2000
   37.9780   26.7400   38.8380 O   0  0  0  0  0  0  0  0  0  0  0  0
   37.9790   26.5770   41.3000 C   0  0  0  0  0  0  0  0  0  0  0  0
   37.6860   26.1290   40.0570 C   0  0  0  0  0  0  0  0  0  0  0  0
   37.0140   24.9260   39.9390 C   0  0  0  0  0  0  0  0  0  0  0  0
   36.6340   24.1740   41.0250 C   0  0  0  0  0  0  0  0  0  0  0  0
   36.9390   24.6430   42.2830 C   0  0  0  0  0  0  0  0  0  0  0  0
   37.6120   25.8490   42.4090 C   0  0  0  0  0  0  0  0  0  0  0  0
   36.7420   24.4980   38.9830 H   0  0  0  0  0  0  0  0  0  0  0  0
   36.1080   23.2320   40.9260 H   0  0  0  0  0  0  0  0  0  0  0  0
   36.6500   24.0670   43.1540 H   0  0  0  0  0  0  0  0  0  0  0  0
   37.8590   26.2310   43.3940 H   0  0  0  0  0  0  0  0  0  0  0  0
   38.9200   28.0430   41.3820 S   0  0  0  0  0  0  0  0  0  0  0  0
   40.2420   27.9670   40.7490 O   0  0  0  0  0  0  0  0  0  0  0  0
   39.2190   28.2480   42.8840 O   0  0  0  0  0  0  0  0  0  0  0  0
   37.9700   29.4700   41.0030 C   0  0  0  0  0  0  0  0  0  0  0  0
   38.6480   30.5260   40.3760 C   0  0  0  0  0  0  0  0  0  0  0  0
   39.6630   30.6620   40.0650 H   0  0  0  0  0  0  0  0  0  0  0  0
   37.3590   31.8130   40.1370 S   0  0  0  0  0  0  0  0  0  0  0  0
   36.0730   30.6470   40.9630 C   0  0  0  0  0  0  0  0  0  0  0  0
   35.0050   30.8280   41.1500 H   0  0  0  0  0  0  0  0  0  0  0  0
   36.7000   29.7200   41.2110 N   0  0  0  0  0  0  0  0  0  0  0  0
   37.1910   29.5030   36.7820 C   0  0  0  0  0  0  0  0  0  0  0  0
   35.8000   29.6280   36.9650 C   0  0  0  0  0  0  0  0  0  0  0  0
   35.1540   28.7570   37.7960 C   0  0  0  0  0  0  0  0  0  0  0  0
   35.9080   27.8240   38.3910 N   0  0  0  0  0  0  0  0  0  0  0  0
   37.2160   27.7040   38.2200 C   0  0  0  0  0  0  0  0  0  0  0  0
   37.8590   28.5460   37.4130 N   0  0  0  0  0  0  0  0  0  0  0  0
   37.7170   30.1850   36.1270 H   0  0  0  0  0  0  0  0  0  0  0  0
   35.3150   30.4030   36.4450 H   0  0  0  0  0  0  0  0  0  0  0  0
   33.7140   28.8220   38.0740 C   0  0  0  0  0  0  0  0  0  0  0  0
   33.4260   28.0170   38.7770 H   0  0  0  0  0  0  0  0  0  0  0  0
   33.5270   29.7760   38.6080 H   0  0  0  0  0  0  0  0  0  0  0  0
   32.8610   28.7950   36.8450 C   0  0  0  0  0  0  0  0  0  0  0  0
   32.3080   27.8050   36.9100 H   0  0  0  0  0  0  0  0  0  0  0  0
   33.3620   28.7450   35.8900 H   0  0  0  0  0  0  0  0  0  0  0  0
   31.7900   29.7930   36.8400 C   0  0  0  0  0  3  0  0  0  0  0  0
   31.2770   30.7630   36.0940 C   0  0  0  0  0  3  0  0  0  0  0  0
   30.1560   31.7110   36.4860 C   0  0  0  0  0  0  0  0  0  0  0  0
   29.3620   31.5220   35.7340 H   0  0  0  0  0  0  0  0  0  0  0  0
   29.8040   31.3710   37.4650 H   0  0  0  0  0  0  0  0  0  0  0  0
   30.4700   32.7520   36.4380 H   0  0  0  0  0  0  0  0  0  0  0  0
  1  3  1  0  0  0  0
  2 12  1  0  0  0  0
  2  7  1  0  0  0  0
  3  2  2  0  0  0  0
  4  3  1  0  0  0  0
  4  5  2  0  0  0  0
  5  6  1  0  0  0  0
  6  7  2  0  0  0  0
  6 10  1  0  0  0  0
  7 11  1  0  0  0  0
  8  4  1  0  0  0  0
  9  5  1  0  0  0  0
 12 14  2  0  0  0  0
 13 12  2  0  0  0  0
 15 21  1  0  0  0  0
 15 12  1  0  0  0  0
 16 15  2  0  0  0  0
 17 16  1  0  0  0  0
 18 16  1  0  0  0  0
 18 19  1  0  0  0  0
 19 20  1  0  0  0  0
 19 21  2  0  0  0  0
 22 23  2  0  0  0  0
 22 27  1  0  0  0  0
 23 24  1  0  0  0  0
 24 30  1  0  0  0  0
 24 25  2  0  0  0  0
 26 25  1  0  0  0  0
 26  1  1  0  0  0  0
 27 26  2  0  0  0  0
 28 22  1  0  0  0  0
 29 23  1  0  0  0  0
 30 32  1  0  0  0  0
 30 31  1  0  0  0  0
 33 34  1  0  0  0  0
 33 30  1  0  0  0  0
 35 33  1  0  0  0  0
 36 33  1  0  0  0  0
 37 38  1  0  0  0  0
 37 36  2  0  0  0  0
 38 40  1  0  0  0  0
 39 38  1  0  0  0  0
 41 38  1  0  0  0  0
M  END
>  <minimizedAffinity>
-5.17593193

$$$$

 OpenBabel03242517583D

 41 43  0  0  0  0  0  0  0  0999 V2000
   40.1420   29.2850   42.7830 O   0  0  0  0  0  0  0  0  0  0  0  0
   38.9620   27.2500   42.0390 C   0  0  0  0  0  0  0  0  0  0  0  0
   39.0690   28.3940   42.7530 C   0  0  0  0  0  0  0  0  0  0  0  0
   38.0110   28.7560   43.5670 C   0  0  0  0  0  0  0  0  0  0  0  0
   36.8650   28.0070   43.6790 C   0  0  0  0  0  0  0  0  0  0  0  0
   36.7710   26.8450   42.9450 C   0  0  0  0  0  0  0  0  0  0  0  0
   37.8270   26.4750   42.1280 C   0  0  0  0  0  0  0  0  0  0  0  0
   38.0170   29.6550   44.1700 H   0  0  0  0  0  0  0  0  0  0  0  0
   36.0390   28.2970   44.3170 H   0  0  0  0  0  0  0  0  0  0  0  0
   35.8760   26.2380   43.0170 H   0  0  0  0  0  0  0  0  0  0  0  0
   37.7670   25.5620   41.5450 H   0  0  0  0  0  0  0  0  0  0  0  0
   40.2800   26.9010   40.9520 S   0  0  0  0  0  0  0  0  0  0  0  0
   40.4420   27.8550   39.8480 O   0  0  0  0  0  0  0  0  0  0  0  0
   39.8950   25.5720   40.2630 O   0  0  0  0  0  0  0  0  0  0  0  0
   41.7500   26.4560   41.8030 C   0  0  0  0  0  0  0  0  0  0  0  0
   42.9510   26.9600   41.2840 C   0  0  0  0  0  0  0  0  0  0  0  0
   43.1820   27.5830   40.4440 H   0  0  0  0  0  0  0  0  0  0  0  0
   44.2430   26.3040   42.4120 S   0  0  0  0  0  0  0  0  0  0  0  0
   42.8720   25.4240   43.4340 C   0  0  0  0  0  0  0  0  0  0  0  0
   42.9810   24.7990   44.3310 H   0  0  0  0  0  0  0  0  0  0  0  0
   41.9170   25.7160   42.8710 N   0  0  0  0  0  0  0  0  0  0  0  0
   41.5900   32.1450   41.3000 C   0  0  0  0  0  0  0  0  0  0  0  0
   40.4710   32.7960   40.7450 C   0  0  0  0  0  0  0  0  0  0  0  0
   39.2330   32.2380   40.8900 C   0  0  0  0  0  0  0  0  0  0  0  0
   39.1700   31.0840   41.5670 N   0  0  0  0  0  0  0  0  0  0  0  0
   40.2210   30.4700   42.0900 C   0  0  0  0  0  0  0  0  0  0  0  0
   41.4340   31.0030   41.9560 N   0  0  0  0  0  0  0  0  0  0  0  0
   42.5770   32.5750   41.1940 H   0  0  0  0  0  0  0  0  0  0  0  0
   40.6450   33.7000   40.2360 H   0  0  0  0  0  0  0  0  0  0  0  0
   38.0040   32.8510   40.3720 C   0  0  0  0  0  0  0  0  0  0  0  0
   37.2370   32.8980   41.1690 H   0  0  0  0  0  0  0  0  0  0  0  0
   38.2460   33.9030   40.1180 H   0  0  0  0  0  0  0  0  0  0  0  0
   37.4660   32.1820   39.1470 C   0  0  0  0  0  0  0  0  0  0  0  0
   38.3760   31.6980   38.6700 H   0  0  0  0  0  0  0  0  0  0  0  0
   37.0730   32.8130   38.3650 H   0  0  0  0  0  0  0  0  0  0  0  0
   36.5760   31.0520   39.4250 C   0  0  0  0  0  3  0  0  0  0  0  0
   35.9780   30.4230   40.4280 C   0  0  0  0  0  3  0  0  0  0  0  0
   35.1580   29.1470   40.3360 C   0  0  0  0  0  0  0  0  0  0  0  0
   34.1530   29.4400   40.7030 H   0  0  0  0  0  0  0  0  0  0  0  0
   35.0900   28.9090   39.2700 H   0  0  0  0  0  0  0  0  0  0  0  0
   35.5660   28.3580   40.9660 H   0  0  0  0  0  0  0  0  0  0  0  0
  2  7  2  0  0  0  0
  2  3  1  0  0  0  0
  3  1  1  0  0  0  0
  3  4  2  0  0  0  0
  4  5  1  0  0  0  0
  4  8  1  0  0  0  0
  5  9  1  0  0  0  0
  6 10  1  0  0  0  0
  6  5  2  0  0  0  0
  7  6  1  0  0  0  0
 11  7  1  0  0  0  0
 12 15  1  0  0  0  0
 12  2  1  0  0  0  0
 13 12  2  0  0  0  0
 14 12  2  0  0  0  0
 15 21  1  0  0  0  0
 16 15  2  0  0  0  0
 16 18  1  0  0  0  0
 17 16  1  0  0  0  0
 18 19  1  0  0  0  0
 19 20  1  0  0  0  0
 21 19  2  0  0  0  0
 22 27  1  0  0  0  0
 23 24  1  0  0  0  0
 23 22  2  0  0  0  0
 24 25  2  0  0  0  0
 25 26  1  0  0  0  0
 26  1  1  0  0  0  0
 27 26  2  0  0  0  0
 28 22  1  0  0  0  0
 29 23  1  0  0  0  0
 30 24  1  0  0  0  0
 30 31  1  0  0  0  0
 32 30  1  0  0  0  0
 33 36  1  0  0  0  0
 33 30  1  0  0  0  0
 34 33  1  0  0  0  0
 35 33  1  0  0  0  0
 36 37  2  0  0  0  0
 38 37  1  0  0  0  0
 38 39  1  0  0  0  0
 38 41  1  0  0  0  0
 40 38  1  0  0  0  0
M  END
>  <minimizedAffinity>
-5.1624217

$$$$
