
 OpenBabel03242513053D

 33 36  0  0  0  0  0  0  0  0999 V2000
   46.1990   33.0150   41.2870 C   0  0  0  0  0  0  0  0  0  0  0  0
   47.3630   33.7680   41.1070 C   0  0  0  0  0  0  0  0  0  0  0  0
   48.1740   33.9390   42.2160 C   0  0  0  0  0  0  0  0  0  0  0  0
   47.7790   33.3670   43.3900 N   0  0  0  0  0  0  0  0  0  0  0  0
   46.6610   32.6510   43.5410 C   0  0  0  0  0  0  0  0  0  0  0  0
   45.8600   32.4720   42.4800 N   0  0  0  0  0  0  0  0  0  0  0  0
   45.4830   32.8020   40.5280 H   0  0  0  0  0  0  0  0  0  0  0  0
   46.1500   30.7370   44.9870 C   0  0  0  0  0  0  0  0  0  0  0  0
   46.3350   32.0870   44.8330 C   0  0  0  0  0  0  0  0  0  0  0  0
   46.2200   32.9980   45.9050 C   0  0  0  0  0  0  0  0  0  0  0  0
   45.9090   32.5340   47.1780 C   0  0  0  0  0  0  0  0  0  0  0  0
   45.7210   33.0780   48.4040 N   0  0  0  0  0  0  0  0  0  0  0  0
   45.4290   32.0620   49.2740 C   0  0  0  0  0  0  0  0  0  0  0  0
   45.4410   30.9110   48.5720 N   0  0  0  0  0  0  0  0  0  0  0  0
   45.7320   31.1660   47.2870 C   0  0  0  0  0  0  0  0  0  0  0  0
   45.8380   30.2500   46.2540 C   0  0  0  0  0  0  0  0  0  0  0  0
   46.2570   30.1180   44.1210 H   0  0  0  0  0  0  0  0  0  0  0  0
   46.3660   34.0580   45.7810 H   0  0  0  0  0  0  0  0  0  0  0  0
   45.8070   34.0980   48.5520 H   0  0  0  0  0  0  0  0  0  0  0  0
   45.2410   32.2640   50.3140 H   0  0  0  0  0  0  0  0  0  0  0  0
   45.6910   29.2040   46.3870 H   0  0  0  0  0  0  0  0  0  0  0  0
   49.4230   34.7240   42.0950 C   0  0  0  0  0  0  0  0  0  0  0  0
   49.2250   35.8270   41.2430 F   0  0  0  0  0  0  0  0  0  0  0  0
   49.7810   35.2500   43.3120 F   0  0  0  0  0  0  0  0  0  0  0  0
   50.3960   33.9120   41.5840 F   0  0  0  0  0  0  0  0  0  0  0  0
   47.6510   34.2900   39.8860 O   0  0  0  0  0  0  0  0  0  0  0  0
   48.2600   33.5420   38.9040 C   0  0  0  0  0  0  0  0  0  0  0  0
   47.7460   34.1410   37.7300 C   0  0  0  0  0  0  0  0  0  0  0  0
   47.0790   34.9340   37.2000 H   0  0  0  0  0  0  0  0  0  0  0  0
   48.5310   33.1780   36.3800 S   0  0  0  0  0  0  0  0  0  0  0  0
   49.4350   32.1100   37.6430 C   0  0  0  0  0  0  0  0  0  0  0  0
   50.1910   31.2070   37.9440 H   0  0  0  0  0  0  0  0  0  0  0  0
   49.0680   32.5660   38.5940 N   0  0  0  0  0  0  0  0  0  0  0  0
  1  6  1  0  0  0  0
  2  1  2  0  0  0  0
  2  3  1  0  0  0  0
  3  4  2  0  0  0  0
  4  5  1  0  0  0  0
  5  9  1  0  0  0  0
  6  5  2  0  0  0  0
  7  1  1  0  0  0  0
  8 16  1  0  0  0  0
  9  8  2  0  0  0  0
  9 10  1  0  0  0  0
 10 11  2  0  0  0  0
 11 15  1  0  0  0  0
 11 12  1  0  0  0  0
 12 19  1  0  0  0  0
 12 13  1  0  0  0  0
 13 20  1  0  0  0  0
 14 13  2  0  0  0  0
 15 14  1  0  0  0  0
 16 21  1  0  0  0  0
 16 15  2  0  0  0  0
 17  8  1  0  0  0  0
 18 10  1  0  0  0  0
 22  3  1  0  0  0  0
 22 24  1  0  0  0  0
 23 22  1  0  0  0  0
 25 22  1  0  0  0  0
 26  2  1  0  0  0  0
 27 26  1  0  0  0  0
 28 27  2  0  0  0  0
 29 28  1  0  0  0  0
 30 31  1  0  0  0  0
 30 28  1  0  0  0  0
 31 32  1  0  0  0  0
 31 33  2  0  0  0  0
 33 27  1  0  0  0  0
M  END
>  <minimizedAffinity>
-5.83299541

>  <minimizedRMSD>
1.92170382

$$$$
