
 OpenBabel03242511083D

 41 45  0  0  1  0  0  0  0  0999 V2000
   47.1050   32.8650   44.2230 C   0  0  0  0  0  0  0  0  0  0  0  0
   47.1420   32.0890   45.3710 C   0  0  0  0  0  0  0  0  0  0  0  0
   46.3740   32.3530   46.5030 C   0  0  0  0  0  0  0  0  0  0  0  0
   45.5200   33.4400   46.5090 C   0  0  0  0  0  0  0  0  0  0  0  0
   45.4630   34.2170   45.4030 C   0  0  0  0  0  0  0  0  0  0  0  0
   44.6300   35.3260   45.3750 C   0  0  0  0  0  0  0  0  0  0  0  0
   44.5260   36.1680   44.3050 C   0  0  0  0  0  0  0  0  0  0  0  0
   45.3040   35.8630   43.2220 C   0  0  0  0  0  0  0  0  0  0  0  0
   46.1510   34.7580   43.2120 C   0  0  0  0  0  0  0  0  0  0  0  0
   46.2430   33.9220   44.2950 C   0  0  0  0  0  0  0  0  0  0  0  0
   47.7600   31.2090   45.5060 H   0  0  0  0  0  0  0  0  0  0  0  0
   46.3980   31.7540   47.4020 H   0  0  0  0  0  0  0  0  0  0  0  0
   44.9180   33.6620   47.3750 H   0  0  0  0  0  0  0  0  0  0  0  0
   44.0420   35.5130   46.2590 H   0  0  0  0  0  0  0  0  0  0  0  0
   43.8500   37.0220   44.3520 H   0  0  0  0  0  0  0  0  0  0  0  0
   45.1990   36.5540   42.3840 H   0  0  0  0  0  0  0  0  0  0  0  0
   46.9330   34.6740   41.9470 C   0  0  0  0  0  0  0  0  0  0  0  0
   46.6350   34.0630   40.6980 C   0  0  0  0  0  0  0  0  0  0  0  0
   45.7190   33.5000   40.5680 H   0  0  0  0  0  0  0  0  0  0  0  0
   48.0780   34.5200   39.6710 S   0  0  0  0  0  0  0  0  0  0  0  0
   48.8670   35.4760   41.1060 C   0  0  0  0  0  0  0  0  0  0  0  0
   49.8300   35.9660   40.9420 H   0  0  0  0  0  0  0  0  0  0  0  0
   48.0790   35.3330   41.9680 N   0  0  0  0  0  0  0  0  0  0  0  0
   47.9200   32.4990   43.1500 N   0  0  0  0  0  0  0  0  0  0  0  0
   47.6560   33.3420   42.6110 H   0  0  0  0  0  0  0  0  0  0  0  0
   49.9630   31.1730   42.4600 C   0  0  1  0  0  0  0  0  0  0  0  0
   48.7600   30.5230   41.8110 C   0  0  0  0  0  0  0  0  0  0  0  0
   48.6730   31.2710   43.1320 C   0  0  2  0  0  0  0  0  0  0  0  0
   50.3910   31.9450   41.7550 H   0  0  0  0  0  0  0  0  0  0  0  0
   48.2590   30.9600   40.9500 H   0  0  0  0  0  0  0  0  0  0  0  0
   48.6300   29.4130   41.9030 H   0  0  0  0  0  0  0  0  0  0  0  0
   48.5950   30.7070   44.0840 H   0  0  0  0  0  0  0  0  0  0  0  0
   53.1770   29.3500   42.6950 C   0  0  0  0  0  0  0  0  0  0  0  0
   53.0260   28.6600   43.9370 C   0  0  0  0  0  0  0  0  0  0  0  0
   51.8220   28.8480   44.6640 C   0  0  0  0  0  0  0  0  0  0  0  0
   50.8750   29.6570   44.1720 N   0  0  0  0  0  0  0  0  0  0  0  0
   51.0480   30.3010   42.9890 C   0  0  0  0  0  0  0  0  0  0  0  0
   52.1950   30.1430   42.2620 N   0  0  0  0  0  0  0  0  0  0  0  0
   54.0920   29.2100   42.1380 H   0  0  0  0  0  0  0  0  0  0  0  0
   53.8260   28.0130   44.2920 H   0  0  0  0  0  0  0  0  0  0  0  0
   51.7190   28.3200   45.6030 H   0  0  0  0  0  0  0  0  0  0  0  0
  1 10  2  0  0  0  0
  1  2  1  0  0  0  0
  2 11  1  0  0  0  0
  2  3  2  0  0  0  0
  3  4  1  0  0  0  0
  3 12  1  0  0  0  0
  4 13  1  0  0  0  0
  5  4  2  0  0  0  0
  6  5  1  0  0  0  0
  6 14  1  0  0  0  0
  7 15  1  0  0  0  0
  7  6  2  0  0  0  0
  8  7  1  0  0  0  0
  9  8  2  0  0  0  0
  9 10  1  0  0  0  0
 10  5  1  0  0  0  0
 16  8  1  0  0  0  0
 17 23  1  0  0  0  0
 17  9  1  0  0  0  0
 18 17  2  0  0  0  0
 19 18  1  0  0  0  0
 20 18  1  0  0  0  0
 20 21  1  0  0  0  0
 21 23  2  0  0  0  0
 22 21  1  0  0  0  0
 24  1  1  0  0  0  0
 25 24  1  0  0  0  0
 26 29  1  6  0  0  0
 26 37  1  0  0  0  0
 26 28  1  0  0  0  0
 27 31  1  0  0  0  0
 27 26  1  0  0  0  0
 27 28  1  0  0  0  0
 28 24  1  0  0  0  0
 28 32  1  1  0  0  0
 30 27  1  0  0  0  0
 33 34  1  0  0  0  0
 34 40  1  0  0  0  0
 34 35  2  0  0  0  0
 35 41  1  0  0  0  0
 36 35  1  0  0  0  0
 37 36  2  0  0  0  0
 38 33  2  0  0  0  0
 38 37  1  0  0  0  0
 39 33  1  0  0  0  0
M  END
>  <minimizedAffinity>
-5.58333206

>  <minimizedRMSD>
2.4082365

$$$$
