
 OpenBabel03252508593D

 43 45  0  0  1  0  0  0  0  0999 V2000
   47.2260   34.1080   43.0360 N   0  0  0  0  0  0  0  0  0  0  0  0
   46.7710   35.3650   42.5580 C   0  0  0  0  0  0  0  0  0  0  0  0
   45.3000   35.6380   42.7780 C   0  0  0  0  0  0  0  0  0  0  0  0
   44.7200   35.0170   44.0200 C   0  0  0  0  0  0  0  0  0  0  0  0
   45.7980   34.3610   44.8520 C   0  0  0  0  0  0  0  0  0  0  0  0
   46.4350   33.3230   43.8570 C   0  0  2  0  0  0  0  0  0  0  0  0
   46.9880   35.5820   41.5060 H   0  0  0  0  0  0  0  0  0  0  0  0
   47.3430   36.1360   43.1460 H   0  0  0  0  0  0  0  0  0  0  0  0
   44.7070   35.3640   41.8670 H   0  0  0  0  0  0  0  0  0  0  0  0
   45.1700   36.7370   42.8800 H   0  0  0  0  0  0  0  0  0  0  0  0
   44.0440   34.2000   43.6870 H   0  0  0  0  0  0  0  0  0  0  0  0
   44.1030   35.7270   44.5950 H   0  0  0  0  0  0  0  0  0  0  0  0
   46.5310   35.1330   45.1070 H   0  0  0  0  0  0  0  0  0  0  0  0
   45.3550   33.8260   45.6980 H   0  0  0  0  0  0  0  0  0  0  0  0
   45.5870   32.7880   43.3840 H   0  0  0  0  0  0  0  0  0  0  0  0
   48.1850   33.4670   42.1860 C   0  0  0  0  0  0  0  0  0  0  0  0
   48.8630   32.8260   42.7870 H   0  0  0  0  0  0  0  0  0  0  0  0
   48.8060   34.2650   41.7150 H   0  0  0  0  0  0  0  0  0  0  0  0
   47.4600   32.6580   41.1600 C   0  0  0  0  0  0  0  0  0  0  0  0
   47.4780   31.5810   41.3440 H   0  0  0  0  0  0  0  0  0  0  0  0
   46.3800   32.9690   41.1060 H   0  0  0  0  0  0  0  0  0  0  0  0
   49.3590   32.3260   37.9330 C   0  0  0  0  0  0  0  0  0  0  0  0
   48.8270   32.0390   39.2040 C   0  0  0  0  0  0  0  0  0  0  0  0
   48.0180   32.9690   39.8170 C   0  0  0  0  0  0  0  0  0  0  0  0
   47.7740   34.1150   39.1610 N   0  0  0  0  0  0  0  0  0  0  0  0
   48.2860   34.3780   37.9480 C   0  0  0  0  0  0  0  0  0  0  0  0
   49.0800   33.4920   37.3220 N   0  0  0  0  0  0  0  0  0  0  0  0
   49.9990   31.5790   37.4590 H   0  0  0  0  0  0  0  0  0  0  0  0
   49.0900   31.0840   39.6390 H   0  0  0  0  0  0  0  0  0  0  0  0
   47.9720   35.3500   37.5910 H   0  0  0  0  0  0  0  0  0  0  0  0
   47.1930   32.5400   44.7150 O   0  0  0  0  0  0  0  0  0  0  0  0
   45.8440   30.5330   43.6120 O   0  0  0  0  0  0  0  0  0  0  0  0
   46.6000   30.9760   44.8690 P   0  0  2  0  0  0  0  0  0  0  0  0
   45.4080   31.0400   46.0950 O   0  0  0  0  0  0  0  0  0  0  0  0
   45.7190   31.6230   46.8270 H   0  0  0  0  0  0  0  0  0  0  0  0
   47.7680   29.8970   45.3410 O   0  0  0  0  0  0  0  0  0  0  0  0
   47.5320   28.6640   45.9300 C   0  0  0  0  0  0  0  0  0  0  0  0
   46.6260   27.6390   45.4640 C   0  0  0  0  0  0  0  0  0  0  0  0
   46.0590   27.9030   44.5060 H   0  0  0  0  0  0  0  0  0  0  0  0
   46.8780   26.3070   46.7850 S   0  0  0  0  0  0  0  0  0  0  0  0
   48.1420   27.4120   47.6730 C   0  0  0  0  0  0  0  0  0  0  0  0
   48.5840   26.9850   48.5830 H   0  0  0  0  0  0  0  0  0  0  0  0
   48.2170   28.4080   47.0420 N   0  0  0  0  0  0  0  0  0  0  0  0
  1  6  1  0  0  0  0
  2  3  1  0  0  0  0
  2  1  1  0  0  0  0
  2  8  1  0  0  0  0
  3 10  1  0  0  0  0
  3  4  1  0  0  0  0
  4 12  1  0  0  0  0
  4  5  1  0  0  0  0
  5 13  1  0  0  0  0
  5 14  1  0  0  0  0
  6 15  1  6  0  0  0
  6 31  1  0  0  0  0
  6  5  1  0  0  0  0
  7  2  1  0  0  0  0
  9  3  1  0  0  0  0
 11  4  1  0  0  0  0
 16 17  1  0  0  0  0
 16  1  1  0  0  0  0
 18 16  1  0  0  0  0
 19 20  1  0  0  0  0
 19 16  1  0  0  0  0
 21 19  1  0  0  0  0
 22 23  1  0  0  0  0
 23 29  1  0  0  0  0
 23 24  2  0  0  0  0
 24 19  1  0  0  0  0
 25 24  1  0  0  0  0
 26 25  2  0  0  0  0
 27 22  2  0  0  0  0
 27 26  1  0  0  0  0
 28 22  1  0  0  0  0
 30 26  1  0  0  0  0
 31 33  1  0  0  0  0
 33 32  2  6  0  0  0
 33 36  1  0  0  0  0
 33 34  1  0  0  0  0
 34 35  1  0  0  0  0
 36 37  1  0  0  0  0
 37 43  1  0  0  0  0
 38 37  2  0  0  0  0
 38 40  1  0  0  0  0
 39 38  1  0  0  0  0
 40 41  1  0  0  0  0
 41 42  1  0  0  0  0
 43 41  2  0  0  0  0
M  END
>  <minimizedAffinity>
-3.80998659

>  <minimizedRMSD>
0.353460044

$$$$
