
 OpenBabel03252508593D

 43 45  0  0  1  0  0  0  0  0999 V2000
   46.7740   34.4080   43.6000 N   0  0  0  0  0  0  0  0  0  0  0  0
   46.3660   35.3240   42.5950 C   0  0  0  0  0  0  0  0  0  0  0  0
   44.8690   35.5010   42.4610 C   0  0  0  0  0  0  0  0  0  0  0  0
   44.0970   35.3500   43.7440 C   0  0  0  0  0  0  0  0  0  0  0  0
   45.0300   35.1890   44.9230 C   0  0  0  0  0  0  0  0  0  0  0  0
   45.8770   33.9220   44.5360 C   0  0  2  0  0  0  0  0  0  0  0  0
   46.7610   35.1390   41.5900 H   0  0  0  0  0  0  0  0  0  0  0  0
   46.7900   36.3200   42.9040 H   0  0  0  0  0  0  0  0  0  0  0  0
   44.4630   34.8320   41.6580 H   0  0  0  0  0  0  0  0  0  0  0  0
   44.6810   36.5320   42.0930 H   0  0  0  0  0  0  0  0  0  0  0  0
   43.5260   34.4010   43.6680 H   0  0  0  0  0  0  0  0  0  0  0  0
   43.3580   36.1570   43.8860 H   0  0  0  0  0  0  0  0  0  0  0  0
   45.6740   36.0740   44.9550 H   0  0  0  0  0  0  0  0  0  0  0  0
   44.4620   34.9800   45.8330 H   0  0  0  0  0  0  0  0  0  0  0  0
   45.1510   33.1570   44.1940 H   0  0  0  0  0  0  0  0  0  0  0  0
   47.8960   33.5950   43.2330 C   0  0  0  0  0  0  0  0  0  0  0  0
   48.4450   33.2680   44.1410 H   0  0  0  0  0  0  0  0  0  0  0  0
   48.5890   34.2280   42.6300 H   0  0  0  0  0  0  0  0  0  0  0  0
   47.4090   32.4170   42.4550 C   0  0  0  0  0  0  0  0  0  0  0  0
   47.5600   31.4570   42.9530 H   0  0  0  0  0  0  0  0  0  0  0  0
   46.3070   32.5140   42.2440 H   0  0  0  0  0  0  0  0  0  0  0  0
   49.8290   31.6850   39.6740 C   0  0  0  0  0  0  0  0  0  0  0  0
   49.2090   31.6870   40.9370 C   0  0  0  0  0  0  0  0  0  0  0  0
   48.0580   32.4200   41.1170 C   0  0  0  0  0  0  0  0  0  0  0  0
   47.5800   33.1020   40.0630 N   0  0  0  0  0  0  0  0  0  0  0  0
   48.1800   33.0930   38.8620 C   0  0  0  0  0  0  0  0  0  0  0  0
   49.3050   32.3880   38.6530 N   0  0  0  0  0  0  0  0  0  0  0  0
   50.7420   31.0990   39.5460 H   0  0  0  0  0  0  0  0  0  0  0  0
   49.6820   31.1010   41.7140 H   0  0  0  0  0  0  0  0  0  0  0  0
   47.6410   33.7030   38.1490 H   0  0  0  0  0  0  0  0  0  0  0  0
   46.4970   33.6200   45.7390 O   0  0  0  0  0  0  0  0  0  0  0  0
   45.5930   31.1930   45.1430 O   0  0  0  0  0  0  0  0  0  0  0  0
   46.1750   32.0580   46.2660 P   0  0  2  0  0  0  0  0  0  0  0  0
   44.9120   32.1940   47.4110 O   0  0  0  0  0  0  0  0  0  0  0  0
   45.0670   32.9830   47.9810 H   0  0  0  0  0  0  0  0  0  0  0  0
   47.4790   31.3590   47.0160 O   0  0  0  0  0  0  0  0  0  0  0  0
   47.7220   29.9970   47.1020 C   0  0  0  0  0  0  0  0  0  0  0  0
   46.7880   28.9740   47.5130 C   0  0  0  0  0  0  0  0  0  0  0  0
   45.7470   29.3620   47.7900 H   0  0  0  0  0  0  0  0  0  0  0  0
   47.8610   27.4230   47.3640 S   0  0  0  0  0  0  0  0  0  0  0  0
   49.3280   28.4800   46.7840 C   0  0  0  0  0  0  0  0  0  0  0  0
   50.2500   27.9270   46.5630 H   0  0  0  0  0  0  0  0  0  0  0  0
   48.9480   29.6000   46.7700 N   0  0  0  0  0  0  0  0  0  0  0  0
  1  6  1  0  0  0  0
  2  8  1  0  0  0  0
  2  1  1  0  0  0  0
  3  2  1  0  0  0  0
  3  4  1  0  0  0  0
  4 12  1  0  0  0  0
  4  5  1  0  0  0  0
  5 13  1  0  0  0  0
  5 14  1  0  0  0  0
  6 15  1  6  0  0  0
  6  5  1  0  0  0  0
  6 31  1  0  0  0  0
  7  2  1  0  0  0  0
  9  3  1  0  0  0  0
 10  3  1  0  0  0  0
 11  4  1  0  0  0  0
 16  1  1  0  0  0  0
 16 17  1  0  0  0  0
 18 16  1  0  0  0  0
 19 20  1  0  0  0  0
 19 16  1  0  0  0  0
 21 19  1  0  0  0  0
 22 23  1  0  0  0  0
 23 24  2  0  0  0  0
 23 29  1  0  0  0  0
 24 19  1  0  0  0  0
 25 24  1  0  0  0  0
 26 25  2  0  0  0  0
 27 26  1  0  0  0  0
 27 22  2  0  0  0  0
 28 22  1  0  0  0  0
 30 26  1  0  0  0  0
 31 33  1  0  0  0  0
 33 32  2  6  0  0  0
 33 36  1  0  0  0  0
 33 34  1  0  0  0  0
 34 35  1  0  0  0  0
 36 37  1  0  0  0  0
 37 38  2  0  0  0  0
 38 39  1  0  0  0  0
 40 38  1  0  0  0  0
 41 40  1  0  0  0  0
 42 41  1  0  0  0  0
 43 41  2  0  0  0  0
 43 37  1  0  0  0  0
M  END
>  <minimizedAffinity>
-4.22931576

>  <minimizedRMSD>
1.32202256

$$$$
