REMARK  Name = 
REMARK  3 active torsions:
REMARK  status: ('A' for Active; 'I' for Inactive)
REMARK    1  A    between atoms: C_3  and  C_7
REMARK    2  A    between atoms: C_7  and  C_8
REMARK    3  A    between atoms: C_8  and  C_16
REMARK                            x       y       z     vdW  Elec       q    Type
REMARK                         _______ _______ _______ _____ _____    ______ ____
ROOT
ATOM      1  C   UNL     1      46.785  34.769  41.727  0.00  0.00    +0.000 C 
ATOM      2  H   UNL     1      46.844  33.692  41.465  0.00  0.00    +0.000 HD
ATOM      3  H   UNL     1      46.204  35.281  40.962  0.00  0.00    +0.000 HD
ENDROOT
BRANCH   1   6
ATOM      4  C   UNL     1      44.554  36.037  44.486  0.00  0.00    +0.000 A 
ATOM      5  C   UNL     1      45.217  35.950  43.234  0.00  0.00    +0.000 A 
ATOM      6  C   UNL     1      46.079  34.883  43.029  0.00  0.00    +0.000 A 
ATOM      7  N   UNL     1      46.237  33.989  44.034  0.00  0.00    +0.000 NA
ATOM      8  C   UNL     1      45.595  34.090  45.221  0.00  0.00    +0.000 A 
ATOM      9  N   UNL     1      44.765  35.107  45.433  0.00  0.00    +0.000 NA
ATOM     10  H   UNL     1      43.911  36.907  44.529  0.00  0.00    +0.000 HD
ATOM     11  H   UNL     1      45.089  36.665  42.434  0.00  0.00    +0.000 HD
ATOM     12  H   UNL     1      45.732  33.367  46.014  0.00  0.00    +0.000 HD
ENDBRANCH   1   6
BRANCH   1  13
ATOM     13  C   UNL     1      48.187  35.300  41.877  0.00  0.00    +0.000 C 
ATOM     14  H   UNL     1      48.120  36.355  42.218  0.00  0.00    +0.000 HD
ATOM     15  H   UNL     1      48.735  34.762  42.657  0.00  0.00    +0.000 HD
BRANCH  13  16
ATOM     16  C   UNL     1      48.892  35.180  40.554  0.00  0.00    +0.000 A 
ATOM     17  C   UNL     1      48.615  34.156  39.566  0.00  0.00    +0.000 A 
ATOM     18  H   UNL     1      47.865  33.401  39.731  0.00  0.00    +0.000 HD
ATOM     19  S   UNL     1      49.764  34.559  38.255  0.00  0.00    +0.000 S 
ATOM     20  C   UNL     1      50.445  36.045  39.233  0.00  0.00    +0.000 A 
ATOM     21  H   UNL     1      51.266  36.758  38.892  0.00  0.00    +0.000 HD
ATOM     22  N   UNL     1      49.839  36.026  40.197  0.00  0.00    +0.000 NA
ENDBRANCH  13  16
ENDBRANCH   1  13
TORSDOF 3
