
 OpenBabel03252509043D

 46 48  0  0  1  0  0  0  0  0999 V2000
   46.6770   34.5250   43.5310 N   0  0  0  0  0  0  0  0  0  0  0  0
   46.1770   35.5330   42.6850 C   0  0  0  0  0  0  0  0  0  0  0  0
   44.6680   35.6650   42.6820 C   0  0  0  0  0  0  0  0  0  0  0  0
   44.0400   35.4120   44.0310 C   0  0  0  0  0  0  0  0  0  0  0  0
   45.0710   35.1080   45.0940 C   0  0  0  0  0  0  0  0  0  0  0  0
   45.8890   33.9110   44.4780 C   0  0  2  0  0  0  0  0  0  0  0  0
   46.5020   35.5100   41.6460 H   0  0  0  0  0  0  0  0  0  0  0  0
   46.5520   36.5190   43.0900 H   0  0  0  0  0  0  0  0  0  0  0  0
   44.3620   36.6230   42.2370 H   0  0  0  0  0  0  0  0  0  0  0  0
   44.2960   34.8690   41.9950 H   0  0  0  0  0  0  0  0  0  0  0  0
   43.2870   34.6290   44.0500 H   0  0  0  0  0  0  0  0  0  0  0  0
   43.5600   36.3710   44.3410 H   0  0  0  0  0  0  0  0  0  0  0  0
   45.7500   35.9580   45.2370 H   0  0  0  0  0  0  0  0  0  0  0  0
   44.5520   34.7620   45.9940 H   0  0  0  0  0  0  0  0  0  0  0  0
   45.1110   33.2120   44.1400 H   0  0  0  0  0  0  0  0  0  0  0  0
   47.7830   33.7820   42.9760 C   0  0  0  0  0  0  0  0  0  0  0  0
   48.4010   33.3840   43.7800 H   0  0  0  0  0  0  0  0  0  0  0  0
   48.4120   34.5010   42.4020 H   0  0  0  0  0  0  0  0  0  0  0  0
   47.2500   32.7020   42.1080 C   0  0  0  0  0  0  0  0  0  0  0  0
   47.4950   31.7110   42.5080 H   0  0  0  0  0  0  0  0  0  0  0  0
   46.1320   32.7430   42.0340 H   0  0  0  0  0  0  0  0  0  0  0  0
   49.0730   31.9830   38.9080 C   0  0  0  0  0  0  0  0  0  0  0  0
   48.5560   31.8600   40.2020 C   0  0  0  0  0  0  0  0  0  0  0  0
   47.7890   32.8520   40.7310 C   0  0  0  0  0  0  0  0  0  0  0  0
   47.5560   33.9300   39.9720 N   0  0  0  0  0  0  0  0  0  0  0  0
   48.0470   34.0590   38.7270 C   0  0  0  0  0  0  0  0  0  0  0  0
   48.8060   33.0980   38.1790 N   0  0  0  0  0  0  0  0  0  0  0  0
   49.6790   31.2390   38.4430 H   0  0  0  0  0  0  0  0  0  0  0  0
   48.8100   30.9440   40.7210 H   0  0  0  0  0  0  0  0  0  0  0  0
   47.7670   34.9820   38.2580 H   0  0  0  0  0  0  0  0  0  0  0  0
   46.6080   33.4650   45.5710 O   0  0  0  0  0  0  0  0  0  0  0  0
   45.6250   31.1140   44.8250 O   0  0  0  0  0  0  0  0  0  0  0  0
   46.2530   31.8910   46.0040 P   0  0  2  0  0  0  0  0  0  0  0  0
   44.9900   31.9800   47.1580 O   0  0  0  0  0  0  0  0  0  0  0  0
   45.2720   31.5870   48.0190 H   0  0  0  0  0  0  0  0  0  0  0  0
   47.5290   31.0690   46.6710 O   0  0  0  0  0  0  0  0  0  0  0  0
   47.6090   29.8040   46.1150 C   0  0  0  0  0  0  0  0  0  0  0  0
   46.6410   29.2890   46.1230 H   0  0  0  0  0  0  0  0  0  0  0  0
   47.9390   29.8750   45.0440 H   0  0  0  0  0  0  0  0  0  0  0  0
   48.6020   28.9390   46.8490 C   0  0  0  0  0  0  0  0  0  0  0  0
   50.0260   29.1970   46.7150 C   0  0  0  0  0  0  0  0  0  0  0  0
   50.4300   29.9920   46.1020 H   0  0  0  0  0  0  0  0  0  0  0  0
   50.7230   27.8890   47.7920 S   0  0  0  0  0  0  0  0  0  0  0  0
   49.0180   27.2270   48.2320 C   0  0  0  0  0  0  0  0  0  0  0  0
   48.7790   26.3900   48.8860 H   0  0  0  0  0  0  0  0  0  0  0  0
   48.2510   27.9360   47.6290 N   0  0  0  0  0  0  0  0  0  0  0  0
  1  6  1  0  0  0  0
  2  8  1  0  0  0  0
  2  1  1  0  0  0  0
  3  2  1  0  0  0  0
  3  4  1  0  0  0  0
  4 11  1  0  0  0  0
  4 12  1  0  0  0  0
  4  5  1  0  0  0  0
  5 13  1  0  0  0  0
  5 14  1  0  0  0  0
  6 15  1  6  0  0  0
  6  5  1  0  0  0  0
  6 31  1  0  0  0  0
  7  2  1  0  0  0  0
  9  3  1  0  0  0  0
 10  3  1  0  0  0  0
 16  1  1  0  0  0  0
 16 17  1  0  0  0  0
 18 16  1  0  0  0  0
 19 20  1  0  0  0  0
 19 16  1  0  0  0  0
 21 19  1  0  0  0  0
 22 23  1  0  0  0  0
 23 29  1  0  0  0  0
 23 24  2  0  0  0  0
 24 19  1  0  0  0  0
 25 24  1  0  0  0  0
 26 25  2  0  0  0  0
 27 26  1  0  0  0  0
 27 22  2  0  0  0  0
 28 22  1  0  0  0  0
 30 26  1  0  0  0  0
 31 33  1  0  0  0  0
 33 32  2  6  0  0  0
 33 36  1  0  0  0  0
 33 34  1  0  0  0  0
 34 35  1  0  0  0  0
 37 38  1  0  0  0  0
 37 36  1  0  0  0  0
 37 40  1  0  0  0  0
 39 37  1  0  0  0  0
 40 46  1  0  0  0  0
 41 40  2  0  0  0  0
 41 43  1  0  0  0  0
 42 41  1  0  0  0  0
 43 44  1  0  0  0  0
 44 45  1  0  0  0  0
 46 44  2  0  0  0  0
M  END
>  <minimizedAffinity>
-4.0519104

>  <minimizedRMSD>
1.13464105

$$$$
