
 OpenBabel03252506053D

 41 45  0  0  0  0  0  0  0  0999 V2000
   44.8130   35.9930   43.3260 Cl  0  0  0  0  0  0  0  0  0  0  0  0
   45.5510   34.7460   44.2600 C   0  0  0  0  0  0  0  0  0  0  0  0
   46.6620   34.0680   43.7750 C   0  0  0  0  0  0  0  0  0  0  0  0
   47.1790   33.0910   44.6030 C   0  0  0  0  0  0  0  0  0  0  0  0
   46.6670   32.7600   45.8490 C   0  0  0  0  0  0  0  0  0  0  0  0
   45.5680   33.4500   46.2990 C   0  0  0  0  0  0  0  0  0  0  0  0
   44.9580   32.9990   47.8760 Cl  0  0  0  0  0  0  0  0  0  0  0  0
   45.0180   34.4350   45.5070 C   0  0  0  0  0  0  0  0  0  0  0  0
   48.0470   32.5780   44.1950 H   0  0  0  0  0  0  0  0  0  0  0  0
   44.1540   34.9670   45.8770 H   0  0  0  0  0  0  0  0  0  0  0  0
   47.3590   31.6940   46.5740 C   0  0  0  0  0  0  0  0  0  0  0  0
   47.4680   30.4140   46.1010 C   0  0  0  0  0  0  0  0  0  0  0  0
   48.1170   29.3870   46.7640 C   0  0  0  0  0  0  0  0  0  0  0  0
   48.7020   29.6610   47.9940 C   0  0  0  0  0  0  0  0  0  0  0  0
   49.3210   28.6520   48.6120 N   0  0  0  0  0  0  0  0  0  0  0  0
   49.9240   28.8160   49.8210 C   0  0  0  0  0  0  0  0  0  0  0  0
   49.8590   30.0960   50.3770 C   0  0  0  0  0  0  0  0  0  0  0  0
   49.2160   31.1210   49.7240 C   0  0  0  0  0  0  0  0  0  0  0  0
   48.6170   30.9170   48.5020 C   0  0  0  0  0  0  0  0  0  0  0  0
   47.9580   31.9350   47.8160 C   0  0  0  0  0  0  0  0  0  0  0  0
   46.9940   30.2400   45.1270 H   0  0  0  0  0  0  0  0  0  0  0  0
   48.1510   28.4050   46.3070 H   0  0  0  0  0  0  0  0  0  0  0  0
   50.4360   28.0260   50.3550 H   0  0  0  0  0  0  0  0  0  0  0  0
   50.3180   30.3050   51.3430 H   0  0  0  0  0  0  0  0  0  0  0  0
   49.1680   32.1130   50.1640 H   0  0  0  0  0  0  0  0  0  0  0  0
   47.9240   32.9260   48.2770 H   0  0  0  0  0  0  0  0  0  0  0  0
   48.8530   35.4920   41.2500 C   0  0  0  0  0  0  0  0  0  0  0  0
   48.3590   34.9570   40.0490 C   0  0  0  0  0  0  0  0  0  0  0  0
   47.2550   34.0960   40.1190 C   0  0  0  0  0  0  0  0  0  0  0  0
   46.7610   33.8550   41.3420 N   0  0  0  0  0  0  0  0  0  0  0  0
   47.2370   34.3680   42.4810 C   0  0  0  0  0  0  0  0  0  0  0  0
   48.3030   35.2020   42.4450 N   0  0  0  0  0  0  0  0  0  0  0  0
   49.6890   36.1290   41.0700 H   0  0  0  0  0  0  0  0  0  0  0  0
   48.7780   35.1690   39.0750 H   0  0  0  0  0  0  0  0  0  0  0  0
   46.6780   33.4940   38.9430 C   0  0  0  0  0  0  0  0  0  0  0  0
   47.3780   33.4930   37.6790 C   0  0  0  0  0  0  0  0  0  0  0  0
   48.3620   33.8880   37.3950 H   0  0  0  0  0  0  0  0  0  0  0  0
   46.1450   32.6010   36.5500 S   0  0  0  0  0  0  0  0  0  0  0  0
   44.9060   32.3850   37.9710 C   0  0  0  0  0  0  0  0  0  0  0  0
   43.9460   31.9160   37.9320 H   0  0  0  0  0  0  0  0  0  0  0  0
   45.6510   32.9010   38.5680 N   0  0  0  0  0  0  0  0  0  0  0  0
  1  2  1  0  0  0  0
  2  8  1  0  0  0  0
  3  2  2  0  0  0  0
  3  4  1  0  0  0  0
  4  5  2  0  0  0  0
  5  6  1  0  0  0  0
  5 11  1  0  0  0  0
  6  7  1  0  0  0  0
  8 10  1  0  0  0  0
  8  6  2  0  0  0  0
  9  4  1  0  0  0  0
 11 20  1  0  0  0  0
 12 11  2  0  0  0  0
 12 13  1  0  0  0  0
 13 14  2  0  0  0  0
 14 19  1  0  0  0  0
 14 15  1  0  0  0  0
 15 16  2  0  0  0  0
 16 23  1  0  0  0  0
 16 17  1  0  0  0  0
 17 24  1  0  0  0  0
 18 25  1  0  0  0  0
 18 17  2  0  0  0  0
 19 18  1  0  0  0  0
 20 26  1  0  0  0  0
 20 19  2  0  0  0  0
 21 12  1  0  0  0  0
 22 13  1  0  0  0  0
 27 32  1  0  0  0  0
 28 29  1  0  0  0  0
 28 27  2  0  0  0  0
 29 30  2  0  0  0  0
 30 31  1  0  0  0  0
 31  3  1  0  0  0  0
 32 31  2  0  0  0  0
 33 27  1  0  0  0  0
 34 28  1  0  0  0  0
 35 29  1  0  0  0  0
 36 35  2  0  0  0  0
 37 36  1  0  0  0  0
 38 36  1  0  0  0  0
 38 39  1  0  0  0  0
 39 41  2  0  0  0  0
 40 39  1  0  0  0  0
 41 35  1  0  0  0  0
M  END
>  <minimizedAffinity>
-7.05273628

>  <minimizedRMSD>
0.155636743

$$$$
