
 OpenBabel03252503033D

 32 33  0  0  0  0  0  0  0  0999 V2000
   43.5280   34.1390   40.7980 S   0  0  0  0  0  0  0  0  0  0  0  0
   41.6780   32.1810   41.4970 C   0  0  0  0  0  0  0  0  0  0  0  0
   41.8620   33.4370   40.9380 C   0  0  0  0  0  0  0  0  0  0  0  0
   40.7830   34.1680   40.4810 C   0  0  0  0  0  0  0  0  0  0  0  0
   39.5510   33.5970   40.6090 N   0  0  0  0  0  0  0  0  0  0  0  0
   39.4000   32.3810   41.1550 C   0  0  0  0  0  0  0  0  0  0  0  0
   40.4350   31.6720   41.5960 N   0  0  0  0  0  0  0  0  0  0  0  0
   42.5450   31.6360   41.8450 H   0  0  0  0  0  0  0  0  0  0  0  0
   40.9320   35.1430   40.0470 H   0  0  0  0  0  0  0  0  0  0  0  0
   38.1540   31.8100   41.2820 O   0  0  0  0  0  0  0  0  0  0  0  0
   37.8700   30.4850   40.9770 C   0  0  0  0  0  0  0  0  0  0  0  0
   37.7530   30.1670   39.6670 C   0  0  0  0  0  0  0  0  0  0  0  0
   37.8320   30.7320   38.7380 H   0  0  0  0  0  0  0  0  0  0  0  0
   37.3880   28.3830   39.7010 S   0  0  0  0  0  0  0  0  0  0  0  0
   37.4640   28.3850   41.6210 C   0  0  0  0  0  0  0  0  0  0  0  0
   37.3230   27.5570   42.3400 H   0  0  0  0  0  0  0  0  0  0  0  0
   37.6940   29.4740   41.7920 N   0  0  0  0  0  0  0  0  0  0  0  0
   43.5510   35.7450   41.5890 C   0  0  0  0  0  0  0  0  0  0  0  0
   44.4060   36.3730   41.3500 H   0  0  0  0  0  0  0  0  0  0  0  0
   42.6310   36.3030   41.2560 H   0  0  0  0  0  0  0  0  0  0  0  0
   43.3630   35.5310   43.0280 N   0  0  0  0  0  0  0  0  0  0  0  0
   43.0940   34.5460   43.2520 H   0  0  0  0  0  0  0  0  0  0  0  0
   44.7840   35.8570   43.9240 S   0  0  0  0  0  0  0  0  0  0  0  0
   46.0030   35.3380   43.2440 O   0  0  0  0  0  0  0  0  0  0  0  0
   46.1860   35.0980   42.3210 H   0  0  0  0  0  0  0  0  0  0  0  0
   44.8850   37.3630   44.0500 O   0  0  0  0  0  0  0  0  0  0  0  0
   45.1980   37.8890   43.2750 H   0  0  0  0  0  0  0  0  0  0  0  0
   44.6270   35.2470   45.4710 O   0  0  0  0  0  0  0  0  0  0  0  0
   45.3810   34.1110   45.6710 C   0  0  0  0  0  0  0  0  0  0  0  0
   45.1810   33.4150   44.8140 H   0  0  0  0  0  0  0  0  0  0  0  0
   45.0080   33.6370   46.6090 H   0  0  0  0  0  0  0  0  0  0  0  0
   46.4510   34.3620   45.7460 H   0  0  0  0  0  0  0  0  0  0  0  0
  1  3  1  0  0  0  0
  1 18  1  0  0  0  0
  2  7  1  0  0  0  0
  2  8  1  0  0  0  0
  3  2  2  0  0  0  0
  4  5  2  0  0  0  0
  4  3  1  0  0  0  0
  5  6  1  0  0  0  0
  6 10  1  0  0  0  0
  6  7  2  0  0  0  0
  9  4  1  0  0  0  0
 11 10  1  0  0  0  0
 11 17  1  0  0  0  0
 12 14  1  0  0  0  0
 12 11  2  0  0  0  0
 13 12  1  0  0  0  0
 14 15  1  0  0  0  0
 15 17  2  0  0  0  0
 15 16  1  0  0  0  0
 18 21  1  0  0  0  0
 19 18  1  0  0  0  0
 20 18  1  0  0  0  0
 21 22  1  0  0  0  0
 21 23  1  0  0  0  0
 23 26  1  0  0  0  0
 23 28  1  0  0  0  0
 24 23  1  0  0  0  0
 25 24  1  0  0  0  0
 27 26  1  0  0  0  0
 28 29  1  0  0  0  0
 29 32  1  0  0  0  0
 29 31  1  0  0  0  0
 30 29  1  0  0  0  0
M  END
>  <minimizedAffinity>
-4.88892841

>  <minimizedRMSD>
1.8231014

$$$$
