REMARK  Name = 
REMARK  3 active torsions:
REMARK  status: ('A' for Active; 'I' for Inactive)
REMARK    1  A    between atoms: C_2  and  C_12
REMARK    2  A    between atoms: C_10  and  O_16
REMARK    3  A    between atoms: O_16  and  C_24
REMARK                            x       y       z     vdW  Elec       q    Type
REMARK                         _______ _______ _______ _____ _____    ______ ____
ROOT
ATOM      1  C   UNL     1      45.129  34.617  45.312  0.00  0.00    +0.000 A 
ATOM      2  C   UNL     1      45.523  34.880  43.975  0.00  0.00    +0.000 A 
ATOM      3  C   UNL     1      46.541  34.096  43.453  0.00  0.00    +0.000 A 
ATOM      4  N   UNL     1      47.095  33.144  44.221  0.00  0.00    +0.000 NA
ATOM      5  C   UNL     1      46.701  32.912  45.496  0.00  0.00    +0.000 A 
ATOM      6  N   UNL     1      45.732  33.644  46.022  0.00  0.00    +0.000 NA
ATOM      7  H   UNL     1      45.080  35.635  43.372  0.00  0.00    +0.000 HD
ATOM      8  H   UNL     1      47.198  32.136  46.029  0.00  0.00    +0.000 HD
ENDROOT
BRANCH   3  10
ATOM      9  C   UNL     1      48.173  35.068  41.928  0.00  0.00    +0.000 A 
ATOM     10  C   UNL     1      47.053  34.251  42.091  0.00  0.00    +0.000 A 
ATOM     11  C   UNL     1      46.513  33.658  40.987  0.00  0.00    +0.000 A 
ATOM     12  C   UNL     1      47.029  33.834  39.721  0.00  0.00    +0.000 A 
ATOM     13  N   UNL     1      46.666  33.355  38.510  0.00  0.00    +0.000 N 
ATOM     14  C   UNL     1      47.559  33.871  37.583  0.00  0.00    +0.000 A 
ATOM     15  N   UNL     1      48.438  34.647  38.244  0.00  0.00    +0.000 NA
ATOM     16  C   UNL     1      48.130  34.635  39.548  0.00  0.00    +0.000 A 
ATOM     17  C   UNL     1      48.701  35.251  40.651  0.00  0.00    +0.000 A 
ATOM     18  H   UNL     1      48.634  35.554  42.755  0.00  0.00    +0.000 HD
ATOM     19  H   UNL     1      45.645  33.027  41.129  0.00  0.00    +0.000 HD
ATOM     20  H   UNL     1      45.875  32.723  38.302  0.00  0.00    +0.000 HD
ATOM     21  H   UNL     1      47.454  33.613  36.524  0.00  0.00    +0.000 HD
ATOM     22  H   UNL     1      49.575  35.891  40.534  0.00  0.00    +0.000 HD
ENDBRANCH   3  10
BRANCH   1  23
ATOM     23  O   UNL     1      44.102  35.410  45.835  0.00  0.00    +0.000 OA
BRANCH  23  24
ATOM     24  C   UNL     1      43.671  35.204  47.137  0.00  0.00    +0.000 A 
ATOM     25  C   UNL     1      42.478  34.564  46.872  0.00  0.00    +0.000 A 
ATOM     26  H   UNL     1      41.669  34.121  46.209  0.00  0.00    +0.000 HD
ATOM     27  S   UNL     1      41.806  34.238  48.616  0.00  0.00    +0.000 S 
ATOM     28  C   UNL     1      43.349  35.073  49.344  0.00  0.00    +0.000 A 
ATOM     29  H   UNL     1      44.103  35.491  50.266  0.00  0.00    +0.000 HD
ATOM     30  N   UNL     1      43.911  35.355  48.418  0.00  0.00    +0.000 NA
ENDBRANCH  23  24
ENDBRANCH   1  23
TORSDOF 3
