
 OpenBabel03252509043D

 46 48  0  0  1  0  0  0  0  0999 V2000
   46.6990   34.4000   43.5480 N   0  0  0  0  0  0  0  0  0  0  0  0
   46.3040   35.0520   42.3640 C   0  0  0  0  0  0  0  0  0  0  0  0
   44.8110   35.0630   42.1160 C   0  0  0  0  0  0  0  0  0  0  0  0
   43.9930   35.2000   43.3770 C   0  0  0  0  0  0  0  0  0  0  0  0
   44.8600   35.3230   44.6100 C   0  0  0  0  0  0  0  0  0  0  0  0
   45.7940   34.0580   44.5280 C   0  0  2  0  0  0  0  0  0  0  0  0
   46.7840   34.7280   41.4410 H   0  0  0  0  0  0  0  0  0  0  0  0
   46.5860   36.1400   42.4770 H   0  0  0  0  0  0  0  0  0  0  0  0
   44.5490   35.8070   41.3490 H   0  0  0  0  0  0  0  0  0  0  0  0
   44.5690   34.0660   41.6790 H   0  0  0  0  0  0  0  0  0  0  0  0
   43.2680   34.4080   43.5450 H   0  0  0  0  0  0  0  0  0  0  0  0
   43.4450   36.1690   43.2950 H   0  0  0  0  0  0  0  0  0  0  0  0
   45.4850   36.2230   44.5620 H   0  0  0  0  0  0  0  0  0  0  0  0
   44.2210   35.2390   45.4950 H   0  0  0  0  0  0  0  0  0  0  0  0
   45.0960   33.2320   44.3310 H   0  0  0  0  0  0  0  0  0  0  0  0
   47.8970   33.6050   43.4150 C   0  0  0  0  0  0  0  0  0  0  0  0
   48.3450   33.4470   44.3960 H   0  0  0  0  0  0  0  0  0  0  0  0
   48.6240   34.1980   42.8130 H   0  0  0  0  0  0  0  0  0  0  0  0
   47.5510   32.3210   42.7560 C   0  0  0  0  0  0  0  0  0  0  0  0
   47.7290   31.4690   43.4230 H   0  0  0  0  0  0  0  0  0  0  0  0
   46.4670   32.2790   42.4730 H   0  0  0  0  0  0  0  0  0  0  0  0
   50.4140   31.6870   40.4140 C   0  0  0  0  0  0  0  0  0  0  0  0
   49.6550   31.8330   41.5810 C   0  0  0  0  0  0  0  0  0  0  0  0
   48.3390   32.1710   41.5050 C   0  0  0  0  0  0  0  0  0  0  0  0
   47.8140   32.3560   40.2870 N   0  0  0  0  0  0  0  0  0  0  0  0
   48.5330   32.2180   39.1590 C   0  0  0  0  0  0  0  0  0  0  0  0
   49.8310   31.8850   39.2030 N   0  0  0  0  0  0  0  0  0  0  0  0
   51.4480   31.4230   40.4130 H   0  0  0  0  0  0  0  0  0  0  0  0
   50.1870   31.6580   42.5080 H   0  0  0  0  0  0  0  0  0  0  0  0
   47.9610   32.4010   38.2710 H   0  0  0  0  0  0  0  0  0  0  0  0
   46.3520   34.0320   45.7920 O   0  0  0  0  0  0  0  0  0  0  0  0
   45.6350   31.4810   45.6360 O   0  0  0  0  0  0  0  0  0  0  0  0
   46.0980   32.5940   46.6030 P   0  0  2  0  0  0  0  0  0  0  0  0
   44.7420   32.8450   47.6200 O   0  0  0  0  0  0  0  0  0  0  0  0
   44.9860   32.7170   48.5690 H   0  0  0  0  0  0  0  0  0  0  0  0
   47.3810   32.1070   47.5340 O   0  0  0  0  0  0  0  0  0  0  0  0
   47.4010   30.7250   47.6090 C   0  0  0  0  0  0  0  0  0  0  0  0
   46.4490   30.3180   47.9710 H   0  0  0  0  0  0  0  0  0  0  0  0
   47.5830   30.2860   46.5910 H   0  0  0  0  0  0  0  0  0  0  0  0
   48.4950   30.2370   48.5260 C   0  0  0  0  0  0  0  0  0  0  0  0
   49.1550   28.9720   48.2570 C   0  0  0  0  0  0  0  0  0  0  0  0
   48.9030   28.3370   47.4190 H   0  0  0  0  0  0  0  0  0  0  0  0
   50.3530   28.9000   49.6420 S   0  0  0  0  0  0  0  0  0  0  0  0
   49.7760   30.5500   50.3350 C   0  0  0  0  0  0  0  0  0  0  0  0
   50.1490   31.0660   51.2190 H   0  0  0  0  0  0  0  0  0  0  0  0
   48.9040   30.9080   49.5840 N   0  0  0  0  0  0  0  0  0  0  0  0
  1  6  1  0  0  0  0
  2  8  1  0  0  0  0
  2  1  1  0  0  0  0
  3  2  1  0  0  0  0
  3  4  1  0  0  0  0
  4 11  1  0  0  0  0
  4  5  1  0  0  0  0
  5 14  1  0  0  0  0
  6 15  1  6  0  0  0
  6  5  1  0  0  0  0
  6 31  1  0  0  0  0
  7  2  1  0  0  0  0
  9  3  1  0  0  0  0
 10  3  1  0  0  0  0
 12  4  1  0  0  0  0
 13  5  1  0  0  0  0
 16  1  1  0  0  0  0
 16 17  1  0  0  0  0
 18 16  1  0  0  0  0
 19 16  1  0  0  0  0
 19 20  1  0  0  0  0
 21 19  1  0  0  0  0
 22 23  1  0  0  0  0
 23 29  1  0  0  0  0
 24 23  2  0  0  0  0
 24 19  1  0  0  0  0
 25 24  1  0  0  0  0
 26 27  1  0  0  0  0
 26 25  2  0  0  0  0
 27 22  2  0  0  0  0
 28 22  1  0  0  0  0
 30 26  1  0  0  0  0
 31 33  1  0  0  0  0
 33 32  2  6  0  0  0
 33 36  1  0  0  0  0
 33 34  1  0  0  0  0
 34 35  1  0  0  0  0
 36 37  1  0  0  0  0
 37 38  1  0  0  0  0
 37 40  1  0  0  0  0
 39 37  1  0  0  0  0
 40 46  1  0  0  0  0
 41 40  2  0  0  0  0
 41 43  1  0  0  0  0
 42 41  1  0  0  0  0
 43 44  1  0  0  0  0
 44 45  1  0  0  0  0
 46 44  2  0  0  0  0
M  END
>  <minimizedAffinity>
-4.65337276

>  <minimizedRMSD>
2.62759256

$$$$
