
 OpenBabel03252508363D

 29 31  0  0  0  0  0  0  0  0999 V2000
   37.7340   28.1250   41.0690 C   0  0  0  0  0  0  0  0  0  0  0  0
   37.8030   29.1750   41.9450 C   0  0  0  0  0  0  0  0  0  0  0  0
   37.4350   28.9110   43.2380 C   0  0  0  0  0  0  0  0  0  0  0  0
   37.0140   27.6760   43.6800 C   0  0  0  0  0  0  0  0  0  0  0  0
   36.9650   26.6550   42.7540 C   0  0  0  0  0  0  0  0  0  0  0  0
   37.3250   26.8690   41.4420 C   0  0  0  0  0  0  0  0  0  0  0  0
   37.4760   29.7170   43.9580 H   0  0  0  0  0  0  0  0  0  0  0  0
   36.7270   27.4840   44.7060 H   0  0  0  0  0  0  0  0  0  0  0  0
   36.6390   25.6960   43.0930 H   0  0  0  0  0  0  0  0  0  0  0  0
   37.8390   32.6070   40.4000 C   0  0  0  0  0  0  0  0  0  0  0  0
   37.3660   31.3770   40.8710 C   0  0  0  0  0  0  0  0  0  0  0  0
   38.2480   30.4520   41.4460 C   0  0  0  0  0  0  0  0  0  0  0  0
   39.5530   30.8490   41.5010 N   0  0  0  0  0  0  0  0  0  0  0  0
   39.9840   32.0280   41.0440 C   0  0  0  0  0  0  0  0  0  0  0  0
   39.1210   32.8990   40.4970 N   0  0  0  0  0  0  0  0  0  0  0  0
   36.9060   33.5060   39.8280 N   0  0  0  0  0  0  0  0  0  0  0  0
   36.3170   31.1350   40.7920 H   0  0  0  0  0  0  0  0  0  0  0  0
   41.0510   32.2530   41.1340 H   0  0  0  0  0  0  0  0  0  0  0  0
   36.0580   33.2490   39.3160 H   0  0  0  0  0  0  0  0  0  0  0  0
   37.0720   34.5370   39.9200 H   0  0  0  0  0  0  0  0  0  0  0  0
   37.2840   25.8040   40.4310 C   0  0  0  0  0  0  0  0  0  0  0  0
   38.4340   24.8570   40.3530 C   0  0  0  0  0  0  0  0  0  0  0  0
   39.3070   24.8450   40.9450 H   0  0  0  0  0  0  0  0  0  0  0  0
   37.9730   23.7780   39.0390 S   0  0  0  0  0  0  0  0  0  0  0  0
   36.3300   24.6900   38.7450 C   0  0  0  0  0  0  0  0  0  0  0  0
   35.4740   24.5380   38.0120 H   0  0  0  0  0  0  0  0  0  0  0  0
   36.3490   25.5380   39.5410 N   0  0  0  0  0  0  0  0  0  0  0  0
   38.3920   28.4940   38.5450 N   0  0  0  0  0  0  0  0  0  0  0  0
   38.1040   28.3220   39.6820 C   0  0  0  0  0  0  0  0  0  0  0  0
  1  6  2  0  0  0  0
  1  2  1  0  0  0  0
  2  3  2  0  0  0  0
  3  4  1  0  0  0  0
  3  7  1  0  0  0  0
  4  8  1  0  0  0  0
  5  9  1  0  0  0  0
  5  4  2  0  0  0  0
  6  5  1  0  0  0  0
 10 15  2  0  0  0  0
 10 11  1  0  0  0  0
 11 12  2  0  0  0  0
 12 13  1  0  0  0  0
 12  2  1  0  0  0  0
 14 18  1  0  0  0  0
 14 13  2  0  0  0  0
 15 14  1  0  0  0  0
 16 20  1  0  0  0  0
 16 10  1  0  0  0  0
 17 11  1  0  0  0  0
 19 16  1  0  0  0  0
 21  6  1  0  0  0  0
 22 21  2  0  0  0  0
 22 23  1  0  0  0  0
 24 22  1  0  0  0  0
 25 24  1  0  0  0  0
 25 27  2  0  0  0  0
 26 25  1  0  0  0  0
 27 21  1  0  0  0  0
 28 29  3  0  0  0  0
 29  1  1  0  0  0  0
M  END
>  <minimizedAffinity>
-5.30747509

$$$$

 OpenBabel03252508363D

 29 31  0  0  0  0  0  0  0  0999 V2000
   38.8020   28.3090   41.7290 C   0  0  0  0  0  0  0  0  0  0  0  0
   37.5400   28.7730   41.4710 C   0  0  0  0  0  0  0  0  0  0  0  0
   36.5320   28.2430   42.2340 C   0  0  0  0  0  0  0  0  0  0  0  0
   36.7280   27.2950   43.2140 C   0  0  0  0  0  0  0  0  0  0  0  0
   38.0210   26.8650   43.4300 C   0  0  0  0  0  0  0  0  0  0  0  0
   39.0690   27.3680   42.6910 C   0  0  0  0  0  0  0  0  0  0  0  0
   35.5210   28.5850   42.0580 H   0  0  0  0  0  0  0  0  0  0  0  0
   35.9200   26.8860   43.8080 H   0  0  0  0  0  0  0  0  0  0  0  0
   38.1760   26.1310   44.1900 H   0  0  0  0  0  0  0  0  0  0  0  0
   37.0970   32.0620   39.6960 C   0  0  0  0  0  0  0  0  0  0  0  0
   37.2550   31.1310   40.7290 C   0  0  0  0  0  0  0  0  0  0  0  0
   37.3740   29.7640   40.4390 C   0  0  0  0  0  0  0  0  0  0  0  0
   37.3260   29.4450   39.1120 N   0  0  0  0  0  0  0  0  0  0  0  0
   37.1740   30.3500   38.1420 C   0  0  0  0  0  0  0  0  0  0  0  0
   37.0610   31.6540   38.4430 N   0  0  0  0  0  0  0  0  0  0  0  0
   36.9810   33.4300   40.0440 N   0  0  0  0  0  0  0  0  0  0  0  0
   37.2840   31.4620   41.7560 H   0  0  0  0  0  0  0  0  0  0  0  0
   37.1480   29.9930   37.1090 H   0  0  0  0  0  0  0  0  0  0  0  0
   36.5640   33.8000   40.9010 H   0  0  0  0  0  0  0  0  0  0  0  0
   37.3450   34.1550   39.3790 H   0  0  0  0  0  0  0  0  0  0  0  0
   40.4560   26.9310   42.8960 C   0  0  0  0  0  0  0  0  0  0  0  0
   40.8730   25.6120   42.3400 C   0  0  0  0  0  0  0  0  0  0  0  0
   40.2890   24.9210   41.7980 H   0  0  0  0  0  0  0  0  0  0  0  0
   42.5680   25.4990   42.8100 S   0  0  0  0  0  0  0  0  0  0  0  0
   42.5340   27.1910   43.6790 C   0  0  0  0  0  0  0  0  0  0  0  0
   43.3170   27.7960   44.2390 H   0  0  0  0  0  0  0  0  0  0  0  0
   41.4380   27.5490   43.5230 N   0  0  0  0  0  0  0  0  0  0  0  0
   40.8380   29.2220   40.3280 N   0  0  0  0  0  0  0  0  0  0  0  0
   39.9240   28.8180   40.9660 C   0  0  0  0  0  0  0  0  0  0  0  0
  1  6  1  0  0  0  0
  2  1  2  0  0  0  0
  2  3  1  0  0  0  0
  3  4  2  0  0  0  0
  4  5  1  0  0  0  0
  4  8  1  0  0  0  0
  5  9  1  0  0  0  0
  6 21  1  0  0  0  0
  6  5  2  0  0  0  0
  7  3  1  0  0  0  0
 10 16  1  0  0  0  0
 10 11  1  0  0  0  0
 11 17  1  0  0  0  0
 12 11  2  0  0  0  0
 12  2  1  0  0  0  0
 13 12  1  0  0  0  0
 14 15  1  0  0  0  0
 14 13  2  0  0  0  0
 15 10  2  0  0  0  0
 16 19  1  0  0  0  0
 18 14  1  0  0  0  0
 20 16  1  0  0  0  0
 21 27  1  0  0  0  0
 22 24  1  0  0  0  0
 22 21  2  0  0  0  0
 23 22  1  0  0  0  0
 24 25  1  0  0  0  0
 25 26  1  0  0  0  0
 27 25  2  0  0  0  0
 28 29  3  0  0  0  0
 29  1  1  0  0  0  0
M  END
>  <minimizedAffinity>
-5.06088543

$$$$

 OpenBabel03252508363D

 29 31  0  0  0  0  0  0  0  0999 V2000
   38.3340   29.1550   41.0400 C   0  0  0  0  0  0  0  0  0  0  0  0
   37.7220   30.2490   40.4880 C   0  0  0  0  0  0  0  0  0  0  0  0
   36.3530   30.2170   40.4370 C   0  0  0  0  0  0  0  0  0  0  0  0
   35.5920   29.1660   40.9010 C   0  0  0  0  0  0  0  0  0  0  0  0
   36.2610   28.0910   41.4470 C   0  0  0  0  0  0  0  0  0  0  0  0
   37.6370   28.0760   41.5220 C   0  0  0  0  0  0  0  0  0  0  0  0
   35.8360   31.0640   40.0080 H   0  0  0  0  0  0  0  0  0  0  0  0
   34.5100   29.1570   40.8540 H   0  0  0  0  0  0  0  0  0  0  0  0
   35.6740   27.2760   41.8080 H   0  0  0  0  0  0  0  0  0  0  0  0
   39.8240   32.4490   38.2730 C   0  0  0  0  0  0  0  0  0  0  0  0
   39.0220   31.3830   38.6940 C   0  0  0  0  0  0  0  0  0  0  0  0
   38.5520   31.3280   40.0140 C   0  0  0  0  0  0  0  0  0  0  0  0
   38.9340   32.3680   40.8110 N   0  0  0  0  0  0  0  0  0  0  0  0
   39.7010   33.3760   40.3890 C   0  0  0  0  0  0  0  0  0  0  0  0
   40.1410   33.4080   39.1200 N   0  0  0  0  0  0  0  0  0  0  0  0
   40.2730   32.4560   36.9290 N   0  0  0  0  0  0  0  0  0  0  0  0
   38.7620   30.5950   38.0030 H   0  0  0  0  0  0  0  0  0  0  0  0
   39.9520   34.1630   41.1050 H   0  0  0  0  0  0  0  0  0  0  0  0
   40.4740   31.6330   36.3570 H   0  0  0  0  0  0  0  0  0  0  0  0
   40.4230   33.3760   36.4500 H   0  0  0  0  0  0  0  0  0  0  0  0
   38.3800   26.9470   42.0970 C   0  0  0  0  0  0  0  0  0  0  0  0
   38.4260   25.6670   41.3350 C   0  0  0  0  0  0  0  0  0  0  0  0
   37.9820   25.4490   40.4020 H   0  0  0  0  0  0  0  0  0  0  0  0
   39.3960   24.6200   42.3690 S   0  0  0  0  0  0  0  0  0  0  0  0
   39.6290   25.9790   43.6790 C   0  0  0  0  0  0  0  0  0  0  0  0
   40.1750   26.0160   44.6750 H   0  0  0  0  0  0  0  0  0  0  0  0
   39.0450   26.8810   43.2340 N   0  0  0  0  0  0  0  0  0  0  0  0
   40.9630   29.0800   41.1860 N   0  0  0  0  0  0  0  0  0  0  0  0
   39.7790   29.1100   41.1290 C   0  0  0  0  0  0  0  0  0  0  0  0
  1 29  1  0  0  0  0
  1  6  1  0  0  0  0
  2  1  2  0  0  0  0
  3  2  1  0  0  0  0
  3  4  2  0  0  0  0
  4  5  1  0  0  0  0
  5  6  2  0  0  0  0
  5  9  1  0  0  0  0
  6 21  1  0  0  0  0
  7  3  1  0  0  0  0
  8  4  1  0  0  0  0
 10 11  2  0  0  0  0
 10 15  1  0  0  0  0
 11 12  1  0  0  0  0
 12  2  1  0  0  0  0
 12 13  2  0  0  0  0
 14 13  1  0  0  0  0
 14 18  1  0  0  0  0
 15 14  2  0  0  0  0
 16 10  1  0  0  0  0
 17 11  1  0  0  0  0
 19 16  1  0  0  0  0
 20 16  1  0  0  0  0
 21 27  1  0  0  0  0
 22 21  2  0  0  0  0
 22 24  1  0  0  0  0
 23 22  1  0  0  0  0
 24 25  1  0  0  0  0
 25 26  1  0  0  0  0
 27 25  2  0  0  0  0
 29 28  3  0  0  0  0
M  END
>  <minimizedAffinity>
-4.99997759

$$$$

 OpenBabel03252508363D

 29 31  0  0  0  0  0  0  0  0999 V2000
   38.7440   26.4580   41.2580 C   0  0  0  0  0  0  0  0  0  0  0  0
   39.0040   27.5320   42.0680 C   0  0  0  0  0  0  0  0  0  0  0  0
   39.6060   27.2550   43.2670 C   0  0  0  0  0  0  0  0  0  0  0  0
   39.9470   25.9850   43.6800 C   0  0  0  0  0  0  0  0  0  0  0  0
   39.6610   24.9420   42.8240 C   0  0  0  0  0  0  0  0  0  0  0  0
   39.0580   25.1690   41.6060 C   0  0  0  0  0  0  0  0  0  0  0  0
   39.8260   28.0780   43.9330 H   0  0  0  0  0  0  0  0  0  0  0  0
   40.4220   25.7830   44.6320 H   0  0  0  0  0  0  0  0  0  0  0  0
   39.9250   23.9570   43.1400 H   0  0  0  0  0  0  0  0  0  0  0  0
   36.9980   30.6020   41.2210 C   0  0  0  0  0  0  0  0  0  0  0  0
   37.3170   29.3200   41.6830 C   0  0  0  0  0  0  0  0  0  0  0  0
   38.6330   28.8440   41.6020 C   0  0  0  0  0  0  0  0  0  0  0  0
   39.5320   29.7130   41.0540 N   0  0  0  0  0  0  0  0  0  0  0  0
   39.2070   30.9320   40.6180 C   0  0  0  0  0  0  0  0  0  0  0  0
   37.9390   31.3670   40.7060 N   0  0  0  0  0  0  0  0  0  0  0  0
   35.6530   31.0340   41.3260 N   0  0  0  0  0  0  0  0  0  0  0  0
   36.5470   28.6900   42.1050 H   0  0  0  0  0  0  0  0  0  0  0  0
   40.0010   31.5540   40.1940 H   0  0  0  0  0  0  0  0  0  0  0  0
   34.8230   30.4380   41.2750 H   0  0  0  0  0  0  0  0  0  0  0  0
   35.4580   32.0530   41.4690 H   0  0  0  0  0  0  0  0  0  0  0  0
   38.7400   24.0810   40.6710 C   0  0  0  0  0  0  0  0  0  0  0  0
   37.4360   23.3750   40.8240 C   0  0  0  0  0  0  0  0  0  0  0  0
   36.6790   23.5540   41.5370 H   0  0  0  0  0  0  0  0  0  0  0  0
   37.4760   22.1800   39.5290 S   0  0  0  0  0  0  0  0  0  0  0  0
   39.1940   22.7430   38.9390 C   0  0  0  0  0  0  0  0  0  0  0  0
   39.8820   22.4000   38.1020 H   0  0  0  0  0  0  0  0  0  0  0  0
   39.4580   23.6070   39.6720 N   0  0  0  0  0  0  0  0  0  0  0  0
   37.5950   26.8540   38.9210 N   0  0  0  0  0  0  0  0  0  0  0  0
   38.1080   26.6670   39.9730 C   0  0  0  0  0  0  0  0  0  0  0  0
  1  6  2  0  0  0  0
  1  2  1  0  0  0  0
  2  3  2  0  0  0  0
  3  4  1  0  0  0  0
  3  7  1  0  0  0  0
  4  8  1  0  0  0  0
  5  9  1  0  0  0  0
  5  4  2  0  0  0  0
  6  5  1  0  0  0  0
 10 16  1  0  0  0  0
 10 11  1  0  0  0  0
 11 17  1  0  0  0  0
 12 11  2  0  0  0  0
 12  2  1  0  0  0  0
 13 12  1  0  0  0  0
 14 15  1  0  0  0  0
 14 13  2  0  0  0  0
 15 10  2  0  0  0  0
 16 20  1  0  0  0  0
 18 14  1  0  0  0  0
 19 16  1  0  0  0  0
 21 22  2  0  0  0  0
 21  6  1  0  0  0  0
 22 23  1  0  0  0  0
 24 22  1  0  0  0  0
 25 24  1  0  0  0  0
 25 27  2  0  0  0  0
 26 25  1  0  0  0  0
 27 21  1  0  0  0  0
 28 29  3  0  0  0  0
 29  1  1  0  0  0  0
M  END
>  <minimizedAffinity>
-4.99100208

$$$$

 OpenBabel03252508363D

 29 31  0  0  0  0  0  0  0  0999 V2000
   37.0530   29.5340   39.6940 C   0  0  0  0  0  0  0  0  0  0  0  0
   36.7100   30.3740   38.6690 C   0  0  0  0  0  0  0  0  0  0  0  0
   36.9560   31.7070   38.8700 C   0  0  0  0  0  0  0  0  0  0  0  0
   37.5140   32.2200   40.0210 C   0  0  0  0  0  0  0  0  0  0  0  0
   37.8400   31.3260   41.0200 C   0  0  0  0  0  0  0  0  0  0  0  0
   37.6130   29.9760   40.8650 C   0  0  0  0  0  0  0  0  0  0  0  0
   36.6980   32.4010   38.0820 H   0  0  0  0  0  0  0  0  0  0  0  0
   37.7030   33.2770   40.1640 H   0  0  0  0  0  0  0  0  0  0  0  0
   38.2730   31.7200   41.9120 H   0  0  0  0  0  0  0  0  0  0  0  0
   36.2410   29.1290   35.1490 C   0  0  0  0  0  0  0  0  0  0  0  0
   36.8420   29.6940   36.2790 C   0  0  0  0  0  0  0  0  0  0  0  0
   36.1280   29.8010   37.4810 C   0  0  0  0  0  0  0  0  0  0  0  0
   34.8510   29.3210   37.4440 N   0  0  0  0  0  0  0  0  0  0  0  0
   34.2960   28.7860   36.3540 C   0  0  0  0  0  0  0  0  0  0  0  0
   34.9980   28.6940   35.2120 N   0  0  0  0  0  0  0  0  0  0  0  0
   37.0050   29.0450   33.9590 N   0  0  0  0  0  0  0  0  0  0  0  0
   37.8590   30.0520   36.2290 H   0  0  0  0  0  0  0  0  0  0  0  0
   33.2650   28.4300   36.4260 H   0  0  0  0  0  0  0  0  0  0  0  0
   37.7360   29.6970   33.6650 H   0  0  0  0  0  0  0  0  0  0  0  0
   36.8280   28.2520   33.2970 H   0  0  0  0  0  0  0  0  0  0  0  0
   37.9480   28.9990   41.9100 C   0  0  0  0  0  0  0  0  0  0  0  0
   39.3370   28.4580   41.9550 C   0  0  0  0  0  0  0  0  0  0  0  0
   40.1450   28.6890   41.3170 H   0  0  0  0  0  0  0  0  0  0  0  0
   39.2900   27.3510   43.3250 S   0  0  0  0  0  0  0  0  0  0  0  0
   37.4590   27.7240   43.6800 C   0  0  0  0  0  0  0  0  0  0  0  0
   36.7240   27.3490   44.4610 H   0  0  0  0  0  0  0  0  0  0  0  0
   37.1810   28.4990   42.8580 N   0  0  0  0  0  0  0  0  0  0  0  0
   36.6170   26.9470   39.4480 N   0  0  0  0  0  0  0  0  0  0  0  0
   36.8230   28.1090   39.5610 C   0  0  0  0  0  0  0  0  0  0  0  0
  1  6  1  0  0  0  0
  2  3  1  0  0  0  0
  2  1  2  0  0  0  0
  3  4  2  0  0  0  0
  4  8  1  0  0  0  0
  4  5  1  0  0  0  0
  5  9  1  0  0  0  0
  6  5  2  0  0  0  0
  6 21  1  0  0  0  0
  7  3  1  0  0  0  0
 10 15  2  0  0  0  0
 10 11  1  0  0  0  0
 11 12  2  0  0  0  0
 12  2  1  0  0  0  0
 13 12  1  0  0  0  0
 14 18  1  0  0  0  0
 14 13  2  0  0  0  0
 15 14  1  0  0  0  0
 16 10  1  0  0  0  0
 17 11  1  0  0  0  0
 19 16  1  0  0  0  0
 20 16  1  0  0  0  0
 21 22  2  0  0  0  0
 21 27  1  0  0  0  0
 22 24  1  0  0  0  0
 23 22  1  0  0  0  0
 24 25  1  0  0  0  0
 25 26  1  0  0  0  0
 27 25  2  0  0  0  0
 28 29  3  0  0  0  0
 29  1  1  0  0  0  0
M  END
>  <minimizedAffinity>
-4.93040323

$$$$

 OpenBabel03252508363D

 29 31  0  0  0  0  0  0  0  0999 V2000
   38.0650   30.0450   39.7150 C   0  0  0  0  0  0  0  0  0  0  0  0
   38.0930   30.9720   38.7080 C   0  0  0  0  0  0  0  0  0  0  0  0
   37.1240   30.8520   37.7460 C   0  0  0  0  0  0  0  0  0  0  0  0
   36.1570   29.8710   37.7490 C   0  0  0  0  0  0  0  0  0  0  0  0
   36.1770   28.9650   38.7880 C   0  0  0  0  0  0  0  0  0  0  0  0
   37.1300   29.0430   39.7800 C   0  0  0  0  0  0  0  0  0  0  0  0
   37.1160   31.5670   36.9350 H   0  0  0  0  0  0  0  0  0  0  0  0
   35.3970   29.7900   36.9810 H   0  0  0  0  0  0  0  0  0  0  0  0
   35.4280   28.2040   38.7940 H   0  0  0  0  0  0  0  0  0  0  0  0
   41.1360   33.0200   37.8620 C   0  0  0  0  0  0  0  0  0  0  0  0
   40.1590   32.0200   37.7980 C   0  0  0  0  0  0  0  0  0  0  0  0
   39.1210   31.9830   38.7390 C   0  0  0  0  0  0  0  0  0  0  0  0
   39.1520   32.9710   39.6790 N   0  0  0  0  0  0  0  0  0  0  0  0
   40.0950   33.9160   39.7230 C   0  0  0  0  0  0  0  0  0  0  0  0
   41.0810   33.9320   38.8110 N   0  0  0  0  0  0  0  0  0  0  0  0
   42.1640   33.0120   36.8870 N   0  0  0  0  0  0  0  0  0  0  0  0
   40.2020   31.2710   37.0210 H   0  0  0  0  0  0  0  0  0  0  0  0
   40.0330   34.6650   40.5180 H   0  0  0  0  0  0  0  0  0  0  0  0
   42.5530   32.1840   36.4300 H   0  0  0  0  0  0  0  0  0  0  0  0
   42.5840   33.9230   36.5860 H   0  0  0  0  0  0  0  0  0  0  0  0
   37.1790   28.0940   40.9000 C   0  0  0  0  0  0  0  0  0  0  0  0
   37.8890   26.7980   40.7000 C   0  0  0  0  0  0  0  0  0  0  0  0
   38.3810   26.4540   39.8320 H   0  0  0  0  0  0  0  0  0  0  0  0
   37.7020   25.9960   42.2580 S   0  0  0  0  0  0  0  0  0  0  0  0
   36.7170   27.4490   42.9900 C   0  0  0  0  0  0  0  0  0  0  0  0
   36.2460   27.6370   44.0070 H   0  0  0  0  0  0  0  0  0  0  0  0
   36.6720   28.2100   42.1120 N   0  0  0  0  0  0  0  0  0  0  0  0
   39.8720   30.1300   41.6300 N   0  0  0  0  0  0  0  0  0  0  0  0
   39.0570   30.1010   40.7700 C   0  0  0  0  0  0  0  0  0  0  0  0
  1  6  1  0  0  0  0
  1 29  1  0  0  0  0
  2 12  1  0  0  0  0
  2  1  2  0  0  0  0
  3  4  2  0  0  0  0
  3  2  1  0  0  0  0
  4  5  1  0  0  0  0
  5  9  1  0  0  0  0
  5  6  2  0  0  0  0
  6 21  1  0  0  0  0
  7  3  1  0  0  0  0
  8  4  1  0  0  0  0
 10 15  1  0  0  0  0
 11 10  2  0  0  0  0
 11 12  1  0  0  0  0
 12 13  2  0  0  0  0
 13 14  1  0  0  0  0
 14 18  1  0  0  0  0
 15 14  2  0  0  0  0
 16 10  1  0  0  0  0
 17 11  1  0  0  0  0
 19 16  1  0  0  0  0
 20 16  1  0  0  0  0
 21 27  1  0  0  0  0
 22 21  2  0  0  0  0
 22 24  1  0  0  0  0
 23 22  1  0  0  0  0
 24 25  1  0  0  0  0
 25 26  1  0  0  0  0
 27 25  2  0  0  0  0
 29 28  3  0  0  0  0
M  END
>  <minimizedAffinity>
-4.8726511

$$$$

 OpenBabel03252508363D

 29 31  0  0  0  0  0  0  0  0999 V2000
   38.8260   27.9490   41.5160 C   0  0  0  0  0  0  0  0  0  0  0  0
   39.1960   27.5800   42.7820 C   0  0  0  0  0  0  0  0  0  0  0  0
   38.1780   27.3930   43.6800 C   0  0  0  0  0  0  0  0  0  0  0  0
   36.8440   27.5560   43.3740 C   0  0  0  0  0  0  0  0  0  0  0  0
   36.5310   27.9280   42.0830 C   0  0  0  0  0  0  0  0  0  0  0  0
   37.5180   28.1270   41.1430 C   0  0  0  0  0  0  0  0  0  0  0  0
   38.4320   27.1020   44.6900 H   0  0  0  0  0  0  0  0  0  0  0  0
   36.0520   27.4040   44.0960 H   0  0  0  0  0  0  0  0  0  0  0  0
   35.4990   28.0550   41.8430 H   0  0  0  0  0  0  0  0  0  0  0  0
   42.5740   26.0460   43.4090 C   0  0  0  0  0  0  0  0  0  0  0  0
   41.2070   26.1580   43.1340 C   0  0  0  0  0  0  0  0  0  0  0  0
   40.6000   27.4200   43.0630 C   0  0  0  0  0  0  0  0  0  0  0  0
   41.4340   28.4790   43.2760 N   0  0  0  0  0  0  0  0  0  0  0  0
   42.7370   28.3500   43.5380 C   0  0  0  0  0  0  0  0  0  0  0  0
   43.2980   27.1300   43.6010 N   0  0  0  0  0  0  0  0  0  0  0  0
   43.1380   24.7470   43.4700 N   0  0  0  0  0  0  0  0  0  0  0  0
   40.6120   25.2710   42.9770 H   0  0  0  0  0  0  0  0  0  0  0  0
   43.3210   29.2610   43.6940 H   0  0  0  0  0  0  0  0  0  0  0  0
   42.6590   23.8970   43.7750 H   0  0  0  0  0  0  0  0  0  0  0  0
   44.1370   24.6150   43.1830 H   0  0  0  0  0  0  0  0  0  0  0  0
   37.2180   28.5240   39.7610 C   0  0  0  0  0  0  0  0  0  0  0  0
   36.8730   27.4580   38.7770 C   0  0  0  0  0  0  0  0  0  0  0  0
   36.8120   26.4170   38.9410 H   0  0  0  0  0  0  0  0  0  0  0  0
   36.5970   28.3620   37.2890 S   0  0  0  0  0  0  0  0  0  0  0  0
   36.9640   30.0290   38.1280 C   0  0  0  0  0  0  0  0  0  0  0  0
   36.9780   31.1030   37.7550 H   0  0  0  0  0  0  0  0  0  0  0  0
   37.2030   29.7290   39.2260 N   0  0  0  0  0  0  0  0  0  0  0  0
   40.6630   28.3420   39.6680 N   0  0  0  0  0  0  0  0  0  0  0  0
   39.8430   28.1680   40.5060 C   0  0  0  0  0  0  0  0  0  0  0  0
  1  2  1  0  0  0  0
  2 12  1  0  0  0  0
  2  3  2  0  0  0  0
  3  7  1  0  0  0  0
  4  3  1  0  0  0  0
  4  8  1  0  0  0  0
  5  4  2  0  0  0  0
  6  1  2  0  0  0  0
  6  5  1  0  0  0  0
  9  5  1  0  0  0  0
 10 16  1  0  0  0  0
 10 15  1  0  0  0  0
 11 10  2  0  0  0  0
 12 11  1  0  0  0  0
 12 13  2  0  0  0  0
 13 14  1  0  0  0  0
 14 15  2  0  0  0  0
 14 18  1  0  0  0  0
 16 19  1  0  0  0  0
 17 11  1  0  0  0  0
 20 16  1  0  0  0  0
 21  6  1  0  0  0  0
 22 23  1  0  0  0  0
 22 21  2  0  0  0  0
 24 25  1  0  0  0  0
 24 22  1  0  0  0  0
 25 27  2  0  0  0  0
 26 25  1  0  0  0  0
 27 21  1  0  0  0  0
 28 29  3  0  0  0  0
 29  1  1  0  0  0  0
M  END
>  <minimizedAffinity>
-4.83869314

$$$$

 OpenBabel03252508363D

 29 31  0  0  0  0  0  0  0  0999 V2000
   36.7290   25.9420   39.8480 C   0  0  0  0  0  0  0  0  0  0  0  0
   37.1180   26.5240   41.0240 C   0  0  0  0  0  0  0  0  0  0  0  0
   37.2020   25.6950   42.1120 C   0  0  0  0  0  0  0  0  0  0  0  0
   36.9200   24.3470   42.0740 C   0  0  0  0  0  0  0  0  0  0  0  0
   36.5330   23.8150   40.8620 C   0  0  0  0  0  0  0  0  0  0  0  0
   36.4350   24.6060   39.7380 C   0  0  0  0  0  0  0  0  0  0  0  0
   37.5050   26.1200   43.0590 H   0  0  0  0  0  0  0  0  0  0  0  0
   36.9910   23.7050   42.9430 H   0  0  0  0  0  0  0  0  0  0  0  0
   36.3150   22.7700   40.8280 H   0  0  0  0  0  0  0  0  0  0  0  0
   36.7190   30.2630   41.1800 C   0  0  0  0  0  0  0  0  0  0  0  0
   36.3990   28.9010   41.1830 C   0  0  0  0  0  0  0  0  0  0  0  0
   37.4040   27.9370   41.0250 C   0  0  0  0  0  0  0  0  0  0  0  0
   38.6670   28.4320   40.8760 N   0  0  0  0  0  0  0  0  0  0  0  0
   38.9510   29.7370   40.8750 C   0  0  0  0  0  0  0  0  0  0  0  0
   37.9720   30.6440   41.0280 N   0  0  0  0  0  0  0  0  0  0  0  0
   35.6660   31.1970   41.3440 N   0  0  0  0  0  0  0  0  0  0  0  0
   35.3740   28.5870   41.3070 H   0  0  0  0  0  0  0  0  0  0  0  0
   39.9960   30.0340   40.7480 H   0  0  0  0  0  0  0  0  0  0  0  0
   34.6990   31.0740   41.0330 H   0  0  0  0  0  0  0  0  0  0  0  0
   35.8660   32.1080   41.8220 H   0  0  0  0  0  0  0  0  0  0  0  0
   36.0260   24.0710   38.4330 C   0  0  0  0  0  0  0  0  0  0  0  0
   37.0660   23.4430   37.5680 C   0  0  0  0  0  0  0  0  0  0  0  0
   38.0950   23.3250   37.7700 H   0  0  0  0  0  0  0  0  0  0  0  0
   36.1550   22.9540   36.1400 S   0  0  0  0  0  0  0  0  0  0  0  0
   34.5200   23.6280   36.8420 C   0  0  0  0  0  0  0  0  0  0  0  0
   33.4560   23.6610   36.4430 H   0  0  0  0  0  0  0  0  0  0  0  0
   34.8310   24.0550   37.8780 N   0  0  0  0  0  0  0  0  0  0  0  0
   36.5340   27.4010   37.6630 N   0  0  0  0  0  0  0  0  0  0  0  0
   36.6140   26.7500   38.6500 C   0  0  0  0  0  0  0  0  0  0  0  0
  1  2  1  0  0  0  0
  2 12  1  0  0  0  0
  2  3  2  0  0  0  0
  3  7  1  0  0  0  0
  4  3  1  0  0  0  0
  4  8  1  0  0  0  0
  5  4  2  0  0  0  0
  6  1  2  0  0  0  0
  6  5  1  0  0  0  0
  9  5  1  0  0  0  0
 10 11  1  0  0  0  0
 10 16  1  0  0  0  0
 11 17  1  0  0  0  0
 12 11  2  0  0  0  0
 13 12  1  0  0  0  0
 14 13  2  0  0  0  0
 14 15  1  0  0  0  0
 15 10  2  0  0  0  0
 16 20  1  0  0  0  0
 18 14  1  0  0  0  0
 19 16  1  0  0  0  0
 21  6  1  0  0  0  0
 22 23  1  0  0  0  0
 22 21  2  0  0  0  0
 24 25  1  0  0  0  0
 24 22  1  0  0  0  0
 25 27  2  0  0  0  0
 26 25  1  0  0  0  0
 27 21  1  0  0  0  0
 28 29  3  0  0  0  0
 29  1  1  0  0  0  0
M  END
>  <minimizedAffinity>
-4.80360985

$$$$

 OpenBabel03252508363D

 29 31  0  0  0  0  0  0  0  0999 V2000
   39.1240   30.8170   40.5740 C   0  0  0  0  0  0  0  0  0  0  0  0
   39.0310   32.1050   40.1180 C   0  0  0  0  0  0  0  0  0  0  0  0
   37.7660   32.6180   40.0070 C   0  0  0  0  0  0  0  0  0  0  0  0
   36.6220   31.9170   40.3220 C   0  0  0  0  0  0  0  0  0  0  0  0
   36.7770   30.6240   40.7760 C   0  0  0  0  0  0  0  0  0  0  0  0
   38.0280   30.0620   40.9060 C   0  0  0  0  0  0  0  0  0  0  0  0
   37.6530   33.6330   39.6500 H   0  0  0  0  0  0  0  0  0  0  0  0
   35.6290   32.3380   40.2280 H   0  0  0  0  0  0  0  0  0  0  0  0
   35.8930   30.0780   41.0210 H   0  0  0  0  0  0  0  0  0  0  0  0
   41.8520   33.7060   38.2090 C   0  0  0  0  0  0  0  0  0  0  0  0
   40.6630   33.0180   38.4770 C   0  0  0  0  0  0  0  0  0  0  0  0
   40.2500   32.8060   39.7990 C   0  0  0  0  0  0  0  0  0  0  0  0
   41.0800   33.3120   40.7570 N   0  0  0  0  0  0  0  0  0  0  0  0
   42.2120   33.9650   40.4800 C   0  0  0  0  0  0  0  0  0  0  0  0
   42.5890   34.1570   39.2050 N   0  0  0  0  0  0  0  0  0  0  0  0
   42.2250   33.8940   36.8550 N   0  0  0  0  0  0  0  0  0  0  0  0
   40.0590   32.6470   37.6630 H   0  0  0  0  0  0  0  0  0  0  0  0
   42.8090   34.3330   41.3190 H   0  0  0  0  0  0  0  0  0  0  0  0
   42.0170   33.2590   36.0810 H   0  0  0  0  0  0  0  0  0  0  0  0
   42.7650   34.7530   36.5930 H   0  0  0  0  0  0  0  0  0  0  0  0
   38.2270   28.6880   41.3860 C   0  0  0  0  0  0  0  0  0  0  0  0
   38.3030   28.4560   42.8570 C   0  0  0  0  0  0  0  0  0  0  0  0
   38.2310   29.1680   43.6330 H   0  0  0  0  0  0  0  0  0  0  0  0
   38.5400   26.7140   42.9740 S   0  0  0  0  0  0  0  0  0  0  0  0
   38.5120   26.4920   41.0850 C   0  0  0  0  0  0  0  0  0  0  0  0
   38.6140   25.5870   40.4050 H   0  0  0  0  0  0  0  0  0  0  0  0
   38.3540   27.5750   40.6920 N   0  0  0  0  0  0  0  0  0  0  0  0
   41.4890   29.6890   40.8530 N   0  0  0  0  0  0  0  0  0  0  0  0
   40.4280   30.1990   40.7180 C   0  0  0  0  0  0  0  0  0  0  0  0
  1 29  1  0  0  0  0
  1  6  1  0  0  0  0
  2  1  2  0  0  0  0
  3  2  1  0  0  0  0
  3  4  2  0  0  0  0
  4  5  1  0  0  0  0
  5  6  2  0  0  0  0
  5  9  1  0  0  0  0
  6 21  1  0  0  0  0
  7  3  1  0  0  0  0
  8  4  1  0  0  0  0
 10 11  2  0  0  0  0
 10 15  1  0  0  0  0
 11 12  1  0  0  0  0
 12  2  1  0  0  0  0
 12 13  2  0  0  0  0
 14 13  1  0  0  0  0
 14 18  1  0  0  0  0
 15 14  2  0  0  0  0
 16 10  1  0  0  0  0
 17 11  1  0  0  0  0
 19 16  1  0  0  0  0
 20 16  1  0  0  0  0
 21 22  2  0  0  0  0
 22 24  1  0  0  0  0
 22 23  1  0  0  0  0
 25 24  1  0  0  0  0
 26 25  1  0  0  0  0
 27 25  2  0  0  0  0
 27 21  1  0  0  0  0
 29 28  3  0  0  0  0
M  END
>  <minimizedAffinity>
-4.78209496

$$$$
