
 OpenBabel03252507453D

 35 37  0  0  0  0  0  0  0  0999 V2000
   47.0860   34.3000   40.8860 C   0  0  0  0  0  0  0  0  0  0  0  0
   46.5070   33.4340   40.5400 H   0  0  0  0  0  0  0  0  0  0  0  0
   47.2370   35.0640   40.0730 H   0  0  0  0  0  0  0  0  0  0  0  0
   48.4350   33.9140   41.3340 C   0  0  0  0  0  0  0  0  0  0  0  0
   48.9260   32.6970   40.8780 C   0  0  0  0  0  0  0  0  0  0  0  0
   50.1930   32.2600   41.2560 C   0  0  0  0  0  0  0  0  0  0  0  0
   50.9130   33.0730   42.0800 N   0  0  0  0  0  0  0  0  0  0  0  0
   50.4090   34.2480   42.5040 C   0  0  0  0  0  0  0  0  0  0  0  0
   49.1990   34.6530   42.1360 N   0  0  0  0  0  0  0  0  0  0  0  0
   50.5410   31.3040   40.8800 H   0  0  0  0  0  0  0  0  0  0  0  0
   51.0850   34.8070   43.1610 H   0  0  0  0  0  0  0  0  0  0  0  0
   47.9270   31.6690   39.7930 S   0  0  0  0  0  0  0  0  0  0  0  0
   48.1980   32.1310   38.0670 C   0  0  0  0  0  0  0  0  0  0  0  0
   48.1350   31.2220   36.9900 C   0  0  0  0  0  0  0  0  0  0  0  0
   47.9110   30.1590   37.1470 H   0  0  0  0  0  0  0  0  0  0  0  0
   48.4990   32.3210   35.5540 S   0  0  0  0  0  0  0  0  0  0  0  0
   48.6730   33.8270   36.6950 C   0  0  0  0  0  0  0  0  0  0  0  0
   48.9070   34.7970   36.2600 H   0  0  0  0  0  0  0  0  0  0  0  0
   48.4750   33.3880   37.7680 N   0  0  0  0  0  0  0  0  0  0  0  0
   46.2810   34.9790   41.9580 C   0  0  0  0  0  0  0  0  0  0  0  0
   46.4480   34.4120   42.9090 H   0  0  0  0  0  0  0  0  0  0  0  0
   46.6260   36.0220   42.1460 H   0  0  0  0  0  0  0  0  0  0  0  0
   44.8120   34.9410   41.7300 C   0  0  0  0  0  0  0  0  0  0  0  0
   43.9210   35.4510   42.7220 C   0  0  0  0  0  0  0  0  0  0  0  0
   42.2670   35.1790   41.9760 S   0  0  0  0  0  0  0  0  0  0  0  0
   43.0640   34.4120   40.4290 C   0  0  0  0  0  0  0  0  0  0  0  0
   44.1710   34.4810   40.6890 N   0  0  0  0  0  0  0  0  0  0  0  0
   44.1870   35.8870   43.6720 H   0  0  0  0  0  0  0  0  0  0  0  0
   42.3140   33.9400   39.3530 O   0  0  0  0  0  0  0  0  0  0  0  0
   40.4020   34.4170   37.5900 O   0  0  0  0  0  0  0  0  0  0  0  0
   41.4810   35.0920   38.4120 P   0  0  0  0  0  0  0  0  0  0  0  0
   40.7570   36.1830   39.4840 O   0  0  0  0  0  0  0  0  0  0  0  0
   39.9600   35.7050   39.8580 H   0  0  0  0  0  0  0  0  0  0  0  0
   42.5640   35.9420   37.4330 O   0  0  0  0  0  0  0  0  0  0  0  0
   42.7590   36.8360   37.8120 H   0  0  0  0  0  0  0  0  0  0  0  0
  1  4  1  0  0  0  0
  1 20  1  0  0  0  0
  2  1  1  0  0  0  0
  3  1  1  0  0  0  0
  4  9  1  0  0  0  0
  5  6  1  0  0  0  0
  5  4  2  0  0  0  0
  6  7  2  0  0  0  0
  7  8  1  0  0  0  0
  8 11  1  0  0  0  0
  9  8  2  0  0  0  0
 10  6  1  0  0  0  0
 12  5  1  0  0  0  0
 13 12  1  0  0  0  0
 14 15  1  0  0  0  0
 14 13  2  0  0  0  0
 16 17  1  0  0  0  0
 16 14  1  0  0  0  0
 17 19  2  0  0  0  0
 18 17  1  0  0  0  0
 19 13  1  0  0  0  0
 20 22  1  0  0  0  0
 20 21  1  0  0  0  0
 23 20  1  0  0  0  0
 23 24  2  0  0  0  0
 24 28  1  0  0  0  0
 25 24  1  0  0  0  0
 26 27  2  0  0  0  0
 26 25  1  0  0  0  0
 27 23  1  0  0  0  0
 29 26  1  0  0  0  0
 30 31  2  0  0  0  0
 31 29  1  0  0  0  0
 31 32  1  0  0  0  0
 32 33  1  0  0  0  0
 34 35  1  0  0  0  0
 34 31  1  0  0  0  0
M  END
>  <minimizedAffinity>
-4.8265295

>  <minimizedRMSD>
0.127521619

$$$$
