
 OpenBabel03252506373D

 42 45  0  0  1  0  0  0  0  0999 V2000
   44.5140   35.5120   45.1350 C   0  0  0  0  0  0  0  0  0  0  0  0
   45.1730   35.5010   43.8910 C   0  0  0  0  0  0  0  0  0  0  0  0
   46.0960   34.5390   43.6420 C   0  0  0  0  0  0  0  0  0  0  0  0
   46.3260   33.6370   44.6260 N   0  0  0  0  0  0  0  0  0  0  0  0
   45.7020   33.6550   45.7950 C   0  0  0  0  0  0  0  0  0  0  0  0
   44.7940   34.5850   46.0630 N   0  0  0  0  0  0  0  0  0  0  0  0
   46.0310   32.6470   46.7680 N   0  0  0  0  0  0  0  0  0  0  0  0
   45.2920   32.4000   47.9500 C   0  0  0  0  0  0  0  0  0  0  0  0
   46.3700   32.0780   48.9700 C   0  0  0  0  0  0  0  0  0  0  0  0
   47.6500   31.9600   48.2010 C   0  0  0  0  0  0  0  0  0  0  0  0
   47.1620   31.7430   46.7680 C   0  0  1  0  0  0  0  0  0  0  0  0
   43.7670   36.2830   45.3470 H   0  0  0  0  0  0  0  0  0  0  0  0
   46.6070   34.5130   42.7080 H   0  0  0  0  0  0  0  0  0  0  0  0
   44.5130   31.7190   48.0630 H   0  0  0  0  0  0  0  0  0  0  0  0
   44.8830   33.4040   48.2880 H   0  0  0  0  0  0  0  0  0  0  0  0
   46.5290   32.8890   49.7110 H   0  0  0  0  0  0  0  0  0  0  0  0
   46.1230   31.1700   49.5620 H   0  0  0  0  0  0  0  0  0  0  0  0
   48.2380   31.0760   48.5170 H   0  0  0  0  0  0  0  0  0  0  0  0
   48.2370   32.9070   48.2040 H   0  0  0  0  0  0  0  0  0  0  0  0
   47.9670   32.0660   46.1080 H   0  0  0  0  0  0  0  0  0  0  0  0
   44.8160   36.5280   42.9530 N   0  0  0  0  0  0  0  0  0  0  0  0
   43.8470   36.4230   42.5800 H   0  0  0  0  0  0  0  0  0  0  0  0
   45.4760   37.2990   42.6810 H   0  0  0  0  0  0  0  0  0  0  0  0
   46.6620   30.0500   46.5940 S   0  0  0  0  0  0  0  0  0  0  0  0
   45.6210   30.5280   43.4520 O   0  0  0  0  0  0  0  0  0  0  0  0
   45.0070   29.9810   44.3810 C   0  0  0  0  0  0  0  0  0  0  0  0
   45.1160   29.7480   45.8500 C   0  0  1  0  0  0  0  0  0  0  0  0
   44.5950   28.3430   45.9690 C   0  0  0  0  0  0  0  0  0  0  0  0
   43.2550   28.5530   45.2250 C   0  0  0  0  0  0  0  0  0  0  0  0
   43.7710   29.3200   44.0700 N   0  0  0  0  0  0  0  0  0  0  0  0
   44.2250   30.3420   46.1990 H   0  0  0  0  0  0  0  0  0  0  0  0
   44.4200   28.0520   47.0130 H   0  0  0  0  0  0  0  0  0  0  0  0
   45.1950   27.6260   45.3830 H   0  0  0  0  0  0  0  0  0  0  0  0
   42.8650   27.5750   44.9100 H   0  0  0  0  0  0  0  0  0  0  0  0
   42.5650   29.1470   45.8360 H   0  0  0  0  0  0  0  0  0  0  0  0
   42.9630   29.2670   42.8660 C   0  0  0  0  0  0  0  0  0  0  0  0
   42.1150   30.2810   42.4640 C   0  0  0  0  0  0  0  0  0  0  0  0
   42.0190   31.2250   43.0880 H   0  0  0  0  0  0  0  0  0  0  0  0
   41.4410   29.5040   40.8660 S   0  0  0  0  0  0  0  0  0  0  0  0
   42.4840   27.9530   41.1160 C   0  0  0  0  0  0  0  0  0  0  0  0
   42.4300   27.1490   40.3900 H   0  0  0  0  0  0  0  0  0  0  0  0
   43.1070   28.1440   42.1680 N   0  0  0  0  0  0  0  0  0  0  0  0
  1 12  1  0  0  0  0
  1  6  1  0  0  0  0
  2  1  2  0  0  0  0
  3  2  1  0  0  0  0
  3  4  2  0  0  0  0
  4  5  1  0  0  0  0
  5  6  2  0  0  0  0
  5  7  1  0  0  0  0
  7 11  1  0  0  0  0
  7  8  1  0  0  0  0
  8 14  1  0  0  0  0
  8 15  1  0  0  0  0
  8  9  1  0  0  0  0
  9 17  1  0  0  0  0
  9 16  1  0  0  0  0
 10 19  1  0  0  0  0
 10 18  1  0  0  0  0
 10  9  1  0  0  0  0
 11 20  1  6  0  0  0
 11 10  1  0  0  0  0
 13  3  1  0  0  0  0
 21  2  1  0  0  0  0
 22 21  1  0  0  0  0
 23 21  1  0  0  0  0
 24 11  1  0  0  0  0
 25 26  2  0  0  0  0
 26 27  1  0  0  0  0
 27 28  1  0  0  0  0
 27 31  1  1  0  0  0
 27 24  1  0  0  0  0
 28 32  1  0  0  0  0
 29 35  1  0  0  0  0
 29 28  1  0  0  0  0
 30 26  1  0  0  0  0
 30 29  1  0  0  0  0
 33 28  1  0  0  0  0
 34 29  1  0  0  0  0
 36 30  1  0  0  0  0
 37 36  2  0  0  0  0
 37 38  1  0  0  0  0
 39 40  1  0  0  0  0
 39 37  1  0  0  0  0
 40 42  2  0  0  0  0
 41 40  1  0  0  0  0
 42 36  1  0  0  0  0
M  END
>  <minimizedAffinity>
-5.17067051

>  <minimizedRMSD>
0.0638687983

$$$$
