
 OpenBabel03242511403D

 22 23  0  0  0  0  0  0  0  0999 V2000
   36.9410   27.6550   42.9950 C   0  0  0  0  0  0  0  0  0  0  0  0
   36.4030   27.7930   42.0380 H   0  0  0  0  0  0  0  0  0  0  0  0
   36.2570   27.4500   43.8370 H   0  0  0  0  0  0  0  0  0  0  0  0
   38.5800   24.4200   42.2800 C   0  0  0  0  0  0  0  0  0  0  0  0
   39.8160   24.5590   42.9930 C   0  0  0  0  0  0  0  0  0  0  0  0
   40.0260   25.7490   43.6800 C   0  0  0  0  0  0  0  0  0  0  0  0
   39.0660   26.7040   43.6420 N   0  0  0  0  0  0  0  0  0  0  0  0
   37.9030   26.5300   42.9500 C   0  0  0  0  0  0  0  0  0  0  0  0
   37.6540   25.4050   42.2750 N   0  0  0  0  0  0  0  0  0  0  0  0
   38.3680   23.5070   41.7270 H   0  0  0  0  0  0  0  0  0  0  0  0
   40.4920   23.7160   42.9360 H   0  0  0  0  0  0  0  0  0  0  0  0
   40.9510   25.8430   44.2080 H   0  0  0  0  0  0  0  0  0  0  0  0
   37.7410   28.9040   43.2770 C   0  0  0  0  0  0  0  0  0  0  0  0
   38.7790   28.7180   43.5340 H   0  0  0  0  0  0  0  0  0  0  0  0
   37.3000   29.4520   44.1550 H   0  0  0  0  0  0  0  0  0  0  0  0
   37.6020   29.8800   42.1450 C   0  0  0  0  0  0  0  0  0  0  0  0
   38.8000   30.5120   41.6850 C   0  0  0  0  0  0  0  0  0  0  0  0
   39.8210   30.3830   42.0470 H   0  0  0  0  0  0  0  0  0  0  0  0
   38.2040   31.5700   40.3640 S   0  0  0  0  0  0  0  0  0  0  0  0
   36.4140   31.0060   40.6220 C   0  0  0  0  0  0  0  0  0  0  0  0
   35.4810   31.2820   40.1120 H   0  0  0  0  0  0  0  0  0  0  0  0
   36.5090   30.2500   41.4960 N   0  0  0  0  0  0  0  0  0  0  0  0
  1 13  1  0  0  0  0
  1  3  1  0  0  0  0
  2  1  1  0  0  0  0
  4  5  1  0  0  0  0
  5  6  2  0  0  0  0
  6 12  1  0  0  0  0
  7  6  1  0  0  0  0
  8  1  1  0  0  0  0
  8  7  2  0  0  0  0
  9  4  2  0  0  0  0
  9  8  1  0  0  0  0
 10  4  1  0  0  0  0
 11  5  1  0  0  0  0
 13 14  1  0  0  0  0
 13 15  1  0  0  0  0
 16 13  1  0  0  0  0
 17 18  1  0  0  0  0
 17 16  2  0  0  0  0
 19 20  1  0  0  0  0
 19 17  1  0  0  0  0
 20 22  2  0  0  0  0
 21 20  1  0  0  0  0
 22 16  1  0  0  0  0
M  END
>  <minimizedAffinity>
-3.90988541

$$$$

 OpenBabel03242511403D

 22 23  0  0  0  0  0  0  0  0999 V2000
   38.9560   29.1900   42.9840 C   0  0  0  0  0  0  0  0  0  0  0  0
   39.8120   28.6570   42.5250 H   0  0  0  0  0  0  0  0  0  0  0  0
   39.2530   29.7790   43.8690 H   0  0  0  0  0  0  0  0  0  0  0  0
   38.3080   31.9600   40.6250 C   0  0  0  0  0  0  0  0  0  0  0  0
   36.9140   31.7780   40.3420 C   0  0  0  0  0  0  0  0  0  0  0  0
   36.2690   30.7200   40.9710 C   0  0  0  0  0  0  0  0  0  0  0  0
   36.9790   29.9250   41.8070 N   0  0  0  0  0  0  0  0  0  0  0  0
   38.3050   30.1340   42.0480 C   0  0  0  0  0  0  0  0  0  0  0  0
   38.9700   31.1370   41.4680 N   0  0  0  0  0  0  0  0  0  0  0  0
   38.8580   32.7750   40.1570 H   0  0  0  0  0  0  0  0  0  0  0  0
   36.4740   32.4880   39.6540 H   0  0  0  0  0  0  0  0  0  0  0  0
   35.2290   30.5930   40.7530 H   0  0  0  0  0  0  0  0  0  0  0  0
   37.9130   28.1700   43.3740 C   0  0  0  0  0  0  0  0  0  0  0  0
   36.9340   28.3500   42.9430 H   0  0  0  0  0  0  0  0  0  0  0  0
   37.7660   28.1790   44.4890 H   0  0  0  0  0  0  0  0  0  0  0  0
   38.4110   26.7810   43.0940 C   0  0  0  0  0  0  0  0  0  0  0  0
   37.6200   25.9770   42.2150 C   0  0  0  0  0  0  0  0  0  0  0  0
   36.6880   26.2330   41.7090 H   0  0  0  0  0  0  0  0  0  0  0  0
   38.5430   24.4390   42.1530 S   0  0  0  0  0  0  0  0  0  0  0  0
   39.8710   25.1050   43.3280 C   0  0  0  0  0  0  0  0  0  0  0  0
   40.7840   24.6460   43.7330 H   0  0  0  0  0  0  0  0  0  0  0  0
   39.4970   26.1790   43.5520 N   0  0  0  0  0  0  0  0  0  0  0  0
  1 13  1  0  0  0  0
  1  3  1  0  0  0  0
  2  1  1  0  0  0  0
  4  9  1  0  0  0  0
  5  4  2  0  0  0  0
  5  6  1  0  0  0  0
  6  7  2  0  0  0  0
  7  8  1  0  0  0  0
  8  1  1  0  0  0  0
  9  8  2  0  0  0  0
 10  4  1  0  0  0  0
 11  5  1  0  0  0  0
 12  6  1  0  0  0  0
 13 15  1  0  0  0  0
 14 13  1  0  0  0  0
 16 13  1  0  0  0  0
 16 22  1  0  0  0  0
 17 16  2  0  0  0  0
 18 17  1  0  0  0  0
 19 17  1  0  0  0  0
 19 20  1  0  0  0  0
 20 22  2  0  0  0  0
 20 21  1  0  0  0  0
M  END
>  <minimizedAffinity>
-3.8562851

$$$$

 OpenBabel03242511403D

 22 23  0  0  0  0  0  0  0  0999 V2000
   36.1800   27.8930   40.2020 C   0  0  0  0  0  0  0  0  0  0  0  0
   36.7630   27.9820   39.2650 H   0  0  0  0  0  0  0  0  0  0  0  0
   35.4940   27.0290   40.1910 H   0  0  0  0  0  0  0  0  0  0  0  0
   37.4180   27.7030   43.6800 C   0  0  0  0  0  0  0  0  0  0  0  0
   38.8030   27.3920   43.4760 C   0  0  0  0  0  0  0  0  0  0  0  0
   39.2420   27.2630   42.1630 C   0  0  0  0  0  0  0  0  0  0  0  0
   38.3520   27.4360   41.1570 N   0  0  0  0  0  0  0  0  0  0  0  0
   37.0420   27.7310   41.3960 C   0  0  0  0  0  0  0  0  0  0  0  0
   36.5720   27.8650   42.6390 N   0  0  0  0  0  0  0  0  0  0  0  0
   37.0260   27.8140   44.6890 H   0  0  0  0  0  0  0  0  0  0  0  0
   39.4000   27.2810   44.3720 H   0  0  0  0  0  0  0  0  0  0  0  0
   40.2760   27.0310   42.0230 H   0  0  0  0  0  0  0  0  0  0  0  0
   35.3950   29.1670   40.3990 C   0  0  0  0  0  0  0  0  0  0  0  0
   34.9870   29.2880   41.3970 H   0  0  0  0  0  0  0  0  0  0  0  0
   34.5130   29.1870   39.7010 H   0  0  0  0  0  0  0  0  0  0  0  0
   36.2100   30.3540   39.9720 C   0  0  0  0  0  0  0  0  0  0  0  0
   36.5420   30.4430   38.5830 C   0  0  0  0  0  0  0  0  0  0  0  0
   36.2830   29.7580   37.7750 H   0  0  0  0  0  0  0  0  0  0  0  0
   37.4930   31.9630   38.5030 S   0  0  0  0  0  0  0  0  0  0  0  0
   37.3050   32.2630   40.3640 C   0  0  0  0  0  0  0  0  0  0  0  0
   37.6710   33.0690   41.0140 H   0  0  0  0  0  0  0  0  0  0  0  0
   36.6770   31.3510   40.7070 N   0  0  0  0  0  0  0  0  0  0  0  0
  1 13  1  0  0  0  0
  1  8  1  0  0  0  0
  2  1  1  0  0  0  0
  3  1  1  0  0  0  0
  4 10  1  0  0  0  0
  5  4  1  0  0  0  0
  5 11  1  0  0  0  0
  6  5  2  0  0  0  0
  7  8  2  0  0  0  0
  7  6  1  0  0  0  0
  8  9  1  0  0  0  0
  9  4  2  0  0  0  0
 12  6  1  0  0  0  0
 13 14  1  0  0  0  0
 15 13  1  0  0  0  0
 16 13  1  0  0  0  0
 16 22  1  0  0  0  0
 17 16  2  0  0  0  0
 18 17  1  0  0  0  0
 19 17  1  0  0  0  0
 19 20  1  0  0  0  0
 20 22  2  0  0  0  0
 20 21  1  0  0  0  0
M  END
>  <minimizedAffinity>
-3.79833055

$$$$

 OpenBabel03242511403D

 22 23  0  0  0  0  0  0  0  0999 V2000
   35.2720   29.1180   40.2920 C   0  0  0  0  0  0  0  0  0  0  0  0
   34.9030   29.1740   41.3340 H   0  0  0  0  0  0  0  0  0  0  0  0
   34.4500   29.0780   39.5560 H   0  0  0  0  0  0  0  0  0  0  0  0
   37.2750   32.2220   40.4050 C   0  0  0  0  0  0  0  0  0  0  0  0
   37.6680   32.3620   39.0330 C   0  0  0  0  0  0  0  0  0  0  0  0
   37.2290   31.3900   38.1410 C   0  0  0  0  0  0  0  0  0  0  0  0
   36.4630   30.3740   38.6070 N   0  0  0  0  0  0  0  0  0  0  0  0
   36.1120   30.2790   39.9220 C   0  0  0  0  0  0  0  0  0  0  0  0
   36.5090   31.1880   40.8170 N   0  0  0  0  0  0  0  0  0  0  0  0
   37.5930   32.9570   41.1420 H   0  0  0  0  0  0  0  0  0  0  0  0
   38.2810   33.2230   38.8020 H   0  0  0  0  0  0  0  0  0  0  0  0
   37.5270   31.5040   37.1210 H   0  0  0  0  0  0  0  0  0  0  0  0
   36.1390   27.8890   40.1570 C   0  0  0  0  0  0  0  0  0  0  0  0
   36.7690   27.8850   39.2730 H   0  0  0  0  0  0  0  0  0  0  0  0
   35.4940   26.9710   40.0800 H   0  0  0  0  0  0  0  0  0  0  0  0
   36.9250   27.6640   41.4170 C   0  0  0  0  0  0  0  0  0  0  0  0
   38.2690   27.1990   41.2640 C   0  0  0  0  0  0  0  0  0  0  0  0
   38.8150   26.9790   40.3460 H   0  0  0  0  0  0  0  0  0  0  0  0
   38.8330   27.0660   42.9630 S   0  0  0  0  0  0  0  0  0  0  0  0
   37.1660   27.6600   43.6380 C   0  0  0  0  0  0  0  0  0  0  0  0
   36.8100   27.8190   44.6660 H   0  0  0  0  0  0  0  0  0  0  0  0
   36.5490   27.8370   42.6730 N   0  0  0  0  0  0  0  0  0  0  0  0
  1  2  1  0  0  0  0
  3  1  1  0  0  0  0
  4  9  1  0  0  0  0
  4 10  1  0  0  0  0
  5  4  2  0  0  0  0
  6  7  2  0  0  0  0
  6  5  1  0  0  0  0
  7  8  1  0  0  0  0
  8  1  1  0  0  0  0
  8  9  2  0  0  0  0
 11  5  1  0  0  0  0
 12  6  1  0  0  0  0
 13  1  1  0  0  0  0
 13 16  1  0  0  0  0
 14 13  1  0  0  0  0
 15 13  1  0  0  0  0
 16 22  1  0  0  0  0
 17 16  2  0  0  0  0
 17 19  1  0  0  0  0
 18 17  1  0  0  0  0
 19 20  1  0  0  0  0
 20 21  1  0  0  0  0
 22 20  2  0  0  0  0
M  END
>  <minimizedAffinity>
-3.75380349

$$$$

 OpenBabel03242511403D

 22 23  0  0  0  0  0  0  0  0999 V2000
   37.8710   28.1830   43.2470 C   0  0  0  0  0  0  0  0  0  0  0  0
   37.6420   28.4470   44.2970 H   0  0  0  0  0  0  0  0  0  0  0  0
   38.5330   28.9200   42.7620 H   0  0  0  0  0  0  0  0  0  0  0  0
   40.2810   25.3940   43.5230 C   0  0  0  0  0  0  0  0  0  0  0  0
   39.6190   24.3650   42.7750 C   0  0  0  0  0  0  0  0  0  0  0  0
   38.3850   24.6770   42.2160 C   0  0  0  0  0  0  0  0  0  0  0  0
   37.8770   25.9190   42.4030 N   0  0  0  0  0  0  0  0  0  0  0  0
   38.5420   26.8680   43.1230 C   0  0  0  0  0  0  0  0  0  0  0  0
   39.7300   26.6180   43.6800 N   0  0  0  0  0  0  0  0  0  0  0  0
   41.2490   25.2000   43.9800 H   0  0  0  0  0  0  0  0  0  0  0  0
   40.1400   23.4200   42.7070 H   0  0  0  0  0  0  0  0  0  0  0  0
   37.8990   23.9030   41.6610 H   0  0  0  0  0  0  0  0  0  0  0  0
   36.5710   28.0840   42.4860 C   0  0  0  0  0  0  0  0  0  0  0  0
   35.6850   28.1570   43.1080 H   0  0  0  0  0  0  0  0  0  0  0  0
   36.5030   27.0880   41.9680 H   0  0  0  0  0  0  0  0  0  0  0  0
   36.5530   29.0720   41.3540 C   0  0  0  0  0  0  0  0  0  0  0  0
   36.5880   28.5360   40.0290 C   0  0  0  0  0  0  0  0  0  0  0  0
   36.6270   27.4910   39.7160 H   0  0  0  0  0  0  0  0  0  0  0  0
   36.5520   30.0110   39.0070 S   0  0  0  0  0  0  0  0  0  0  0  0
   36.4940   31.1460   40.5230 C   0  0  0  0  0  0  0  0  0  0  0  0
   36.4570   32.2400   40.6140 H   0  0  0  0  0  0  0  0  0  0  0  0
   36.5090   30.3940   41.4050 N   0  0  0  0  0  0  0  0  0  0  0  0
  1  2  1  0  0  0  0
  3  1  1  0  0  0  0
  4  9  1  0  0  0  0
  4 10  1  0  0  0  0
  5  4  2  0  0  0  0
  6  7  2  0  0  0  0
  6  5  1  0  0  0  0
  7  8  1  0  0  0  0
  8  1  1  0  0  0  0
  8  9  2  0  0  0  0
 11  5  1  0  0  0  0
 12  6  1  0  0  0  0
 13 14  1  0  0  0  0
 13  1  1  0  0  0  0
 15 13  1  0  0  0  0
 16 22  1  0  0  0  0
 16 13  1  0  0  0  0
 17 16  2  0  0  0  0
 18 17  1  0  0  0  0
 19 17  1  0  0  0  0
 19 20  1  0  0  0  0
 20 21  1  0  0  0  0
 20 22  2  0  0  0  0
M  END
>  <minimizedAffinity>
-3.75190377

$$$$

 OpenBabel03242511403D

 22 23  0  0  0  0  0  0  0  0999 V2000
   36.9060   31.0790   39.3700 C   0  0  0  0  0  0  0  0  0  0  0  0
   36.1580   31.3280   38.5940 H   0  0  0  0  0  0  0  0  0  0  0  0
   37.4380   30.1360   39.1550 H   0  0  0  0  0  0  0  0  0  0  0  0
   38.7280   34.1600   40.2950 C   0  0  0  0  0  0  0  0  0  0  0  0
   40.0000   33.9410   39.6690 C   0  0  0  0  0  0  0  0  0  0  0  0
   40.1690   32.7540   38.9660 C   0  0  0  0  0  0  0  0  0  0  0  0
   39.1390   31.8770   38.9060 N   0  0  0  0  0  0  0  0  0  0  0  0
   37.9440   32.1250   39.5170 C   0  0  0  0  0  0  0  0  0  0  0  0
   37.7320   33.2500   40.2050 N   0  0  0  0  0  0  0  0  0  0  0  0
   38.5450   35.0730   40.8570 H   0  0  0  0  0  0  0  0  0  0  0  0
   40.7310   34.7270   39.7990 H   0  0  0  0  0  0  0  0  0  0  0  0
   41.1210   32.6010   38.5040 H   0  0  0  0  0  0  0  0  0  0  0  0
   36.1990   30.9760   40.7000 C   0  0  0  0  0  0  0  0  0  0  0  0
   35.1160   30.9650   40.6270 H   0  0  0  0  0  0  0  0  0  0  0  0
   36.4560   31.8630   41.3420 H   0  0  0  0  0  0  0  0  0  0  0  0
   36.7270   29.8080   41.4830 C   0  0  0  0  0  0  0  0  0  0  0  0
   36.0780   28.5490   41.2830 C   0  0  0  0  0  0  0  0  0  0  0  0
   35.2370   28.3120   40.6300 H   0  0  0  0  0  0  0  0  0  0  0  0
   36.9930   27.4580   42.3750 S   0  0  0  0  0  0  0  0  0  0  0  0
   38.1260   28.8630   42.9470 C   0  0  0  0  0  0  0  0  0  0  0  0
   38.9630   28.8810   43.6590 H   0  0  0  0  0  0  0  0  0  0  0  0
   37.7270   29.7720   42.3490 N   0  0  0  0  0  0  0  0  0  0  0  0
  1  8  1  0  0  0  0
  1 13  1  0  0  0  0
  2  1  1  0  0  0  0
  3  1  1  0  0  0  0
  4 10  1  0  0  0  0
  5 11  1  0  0  0  0
  5  4  2  0  0  0  0
  6  5  1  0  0  0  0
  7  6  2  0  0  0  0
  7  8  1  0  0  0  0
  8  9  2  0  0  0  0
  9  4  1  0  0  0  0
 12  6  1  0  0  0  0
 13 15  1  0  0  0  0
 13 16  1  0  0  0  0
 14 13  1  0  0  0  0
 16 22  1  0  0  0  0
 17 16  2  0  0  0  0
 17 19  1  0  0  0  0
 18 17  1  0  0  0  0
 19 20  1  0  0  0  0
 20 21  1  0  0  0  0
 22 20  2  0  0  0  0
M  END
>  <minimizedAffinity>
-3.73490429

$$$$

 OpenBabel03242511403D

 22 23  0  0  0  0  0  0  0  0999 V2000
   36.2410   30.7970   41.0300 C   0  0  0  0  0  0  0  0  0  0  0  0
   35.1540   30.6440   40.8900 H   0  0  0  0  0  0  0  0  0  0  0  0
   36.4640   31.6620   41.6790 H   0  0  0  0  0  0  0  0  0  0  0  0
   38.4750   28.6380   43.0320 C   0  0  0  0  0  0  0  0  0  0  0  0
   38.0080   27.3300   42.6740 C   0  0  0  0  0  0  0  0  0  0  0  0
   36.9570   27.2530   41.7690 C   0  0  0  0  0  0  0  0  0  0  0  0
   36.4330   28.4010   41.2770 N   0  0  0  0  0  0  0  0  0  0  0  0
   36.9070   29.6260   41.6450 C   0  0  0  0  0  0  0  0  0  0  0  0
   37.9160   29.7520   42.5120 N   0  0  0  0  0  0  0  0  0  0  0  0
   39.2960   28.7510   43.7380 H   0  0  0  0  0  0  0  0  0  0  0  0
   38.5200   26.5000   43.1450 H   0  0  0  0  0  0  0  0  0  0  0  0
   36.6170   26.2730   41.5090 H   0  0  0  0  0  0  0  0  0  0  0  0
   36.8740   30.9980   39.6740 C   0  0  0  0  0  0  0  0  0  0  0  0
   36.1620   31.1620   38.8720 H   0  0  0  0  0  0  0  0  0  0  0  0
   37.4600   30.0820   39.3840 H   0  0  0  0  0  0  0  0  0  0  0  0
   37.9160   32.0780   39.7390 C   0  0  0  0  0  0  0  0  0  0  0  0
   39.2400   31.7230   39.3300 C   0  0  0  0  0  0  0  0  0  0  0  0
   39.6080   30.7610   38.9710 H   0  0  0  0  0  0  0  0  0  0  0  0
   40.1440   33.2570   39.5570 S   0  0  0  0  0  0  0  0  0  0  0  0
   38.5980   34.1610   40.1740 C   0  0  0  0  0  0  0  0  0  0  0  0
   38.4420   35.1970   40.5050 H   0  0  0  0  0  0  0  0  0  0  0  0
   37.7860   33.3360   40.1280 N   0  0  0  0  0  0  0  0  0  0  0  0
  1  8  1  0  0  0  0
  1  3  1  0  0  0  0
  2  1  1  0  0  0  0
  4 10  1  0  0  0  0
  5  4  1  0  0  0  0
  5 11  1  0  0  0  0
  6  5  2  0  0  0  0
  7  8  2  0  0  0  0
  7  6  1  0  0  0  0
  8  9  1  0  0  0  0
  9  4  2  0  0  0  0
 12  6  1  0  0  0  0
 13 16  1  0  0  0  0
 13  1  1  0  0  0  0
 14 13  1  0  0  0  0
 15 13  1  0  0  0  0
 16 22  1  0  0  0  0
 17 19  1  0  0  0  0
 17 16  2  0  0  0  0
 18 17  1  0  0  0  0
 19 20  1  0  0  0  0
 20 21  1  0  0  0  0
 22 20  2  0  0  0  0
M  END
>  <minimizedAffinity>
-3.69207096

$$$$

 OpenBabel03242511403D

 22 23  0  0  0  0  0  0  0  0999 V2000
   39.0770   27.6080   43.3440 C   0  0  0  0  0  0  0  0  0  0  0  0
   39.4970   27.4740   44.3590 H   0  0  0  0  0  0  0  0  0  0  0  0
   39.8190   28.0080   42.6310 H   0  0  0  0  0  0  0  0  0  0  0  0
   36.8990   24.9630   41.9570 C   0  0  0  0  0  0  0  0  0  0  0  0
   37.8470   23.9200   41.6900 C   0  0  0  0  0  0  0  0  0  0  0  0
   39.1780   24.1740   41.9970 C   0  0  0  0  0  0  0  0  0  0  0  0
   39.5100   25.3760   42.5250 N   0  0  0  0  0  0  0  0  0  0  0  0
   38.5760   26.3410   42.7630 C   0  0  0  0  0  0  0  0  0  0  0  0
   37.2840   26.1460   42.4860 N   0  0  0  0  0  0  0  0  0  0  0  0
   35.8450   24.8130   41.7340 H   0  0  0  0  0  0  0  0  0  0  0  0
   37.4420   23.0110   41.2660 H   0  0  0  0  0  0  0  0  0  0  0  0
   39.8760   23.3890   41.7940 H   0  0  0  0  0  0  0  0  0  0  0  0
   37.8980   28.5460   43.4340 C   0  0  0  0  0  0  0  0  0  0  0  0
   37.6900   28.9020   44.4380 H   0  0  0  0  0  0  0  0  0  0  0  0
   36.9630   28.0210   43.0930 H   0  0  0  0  0  0  0  0  0  0  0  0
   38.0490   29.6710   42.4520 C   0  0  0  0  0  0  0  0  0  0  0  0
   36.9260   29.9490   41.6100 C   0  0  0  0  0  0  0  0  0  0  0  0
   35.9560   29.4500   41.5800 H   0  0  0  0  0  0  0  0  0  0  0  0
   37.5110   31.3250   40.6170 S   0  0  0  0  0  0  0  0  0  0  0  0
   39.1960   31.3270   41.4830 C   0  0  0  0  0  0  0  0  0  0  0  0
   40.0850   31.9580   41.3470 H   0  0  0  0  0  0  0  0  0  0  0  0
   39.0910   30.4600   42.2450 N   0  0  0  0  0  0  0  0  0  0  0  0
  1 13  1  0  0  0  0
  1  2  1  0  0  0  0
  3  1  1  0  0  0  0
  4  9  1  0  0  0  0
  5  4  2  0  0  0  0
  5  6  1  0  0  0  0
  6  7  2  0  0  0  0
  7  8  1  0  0  0  0
  8  1  1  0  0  0  0
  9  8  2  0  0  0  0
 10  4  1  0  0  0  0
 11  5  1  0  0  0  0
 12  6  1  0  0  0  0
 13 14  1  0  0  0  0
 15 13  1  0  0  0  0
 16 13  1  0  0  0  0
 17 16  2  0  0  0  0
 18 17  1  0  0  0  0
 19 20  1  0  0  0  0
 19 17  1  0  0  0  0
 20 22  2  0  0  0  0
 21 20  1  0  0  0  0
 22 16  1  0  0  0  0
M  END
>  <minimizedAffinity>
-3.67632818

$$$$

 OpenBabel03242511403D

 22 23  0  0  0  0  0  0  0  0999 V2000
   36.1410   29.4020   40.0150 C   0  0  0  0  0  0  0  0  0  0  0  0
   36.8630   29.6450   39.2110 H   0  0  0  0  0  0  0  0  0  0  0  0
   35.1160   29.2610   39.6310 H   0  0  0  0  0  0  0  0  0  0  0  0
   37.0700   25.9220   40.8420 C   0  0  0  0  0  0  0  0  0  0  0  0
   37.1270   25.9710   42.2740 C   0  0  0  0  0  0  0  0  0  0  0  0
   36.8450   27.1890   42.8820 C   0  0  0  0  0  0  0  0  0  0  0  0
   36.5360   28.2530   42.1020 N   0  0  0  0  0  0  0  0  0  0  0  0
   36.4940   28.1620   40.7420 C   0  0  0  0  0  0  0  0  0  0  0  0
   36.7560   27.0140   40.1110 N   0  0  0  0  0  0  0  0  0  0  0  0
   37.2830   24.9920   40.3190 H   0  0  0  0  0  0  0  0  0  0  0  0
   37.3880   25.0450   42.7690 H   0  0  0  0  0  0  0  0  0  0  0  0
   36.8910   27.2150   43.9500 H   0  0  0  0  0  0  0  0  0  0  0  0
   36.1590   30.5230   41.0260 C   0  0  0  0  0  0  0  0  0  0  0  0
   36.2280   30.1910   42.0560 H   0  0  0  0  0  0  0  0  0  0  0  0
   35.2070   31.1180   40.9570 H   0  0  0  0  0  0  0  0  0  0  0  0
   37.2250   31.5230   40.6790 C   0  0  0  0  0  0  0  0  0  0  0  0
   38.5540   31.2290   41.1200 C   0  0  0  0  0  0  0  0  0  0  0  0
   38.9100   30.3670   41.6850 H   0  0  0  0  0  0  0  0  0  0  0  0
   39.4880   32.6370   40.5140 S   0  0  0  0  0  0  0  0  0  0  0  0
   37.9450   33.4230   39.7470 C   0  0  0  0  0  0  0  0  0  0  0  0
   37.8040   34.3570   39.1870 H   0  0  0  0  0  0  0  0  0  0  0  0
   37.1130   32.6590   40.0100 N   0  0  0  0  0  0  0  0  0  0  0  0
  1  8  1  0  0  0  0
  1 13  1  0  0  0  0
  2  1  1  0  0  0  0
  3  1  1  0  0  0  0
  4  5  1  0  0  0  0
  5 11  1  0  0  0  0
  5  6  2  0  0  0  0
  6 12  1  0  0  0  0
  7  6  1  0  0  0  0
  8  7  2  0  0  0  0
  9  8  1  0  0  0  0
  9  4  2  0  0  0  0
 10  4  1  0  0  0  0
 13 14  1  0  0  0  0
 15 13  1  0  0  0  0
 16 13  1  0  0  0  0
 16 17  2  0  0  0  0
 17 18  1  0  0  0  0
 19 17  1  0  0  0  0
 20 22  2  0  0  0  0
 20 19  1  0  0  0  0
 21 20  1  0  0  0  0
 22 16  1  0  0  0  0
M  END
>  <minimizedAffinity>
-3.62051535

$$$$
