
     RDKit          3D

 35 37  0  0  0  0  0  0  0  0999 V2000
   46.3260   34.9981   41.9173 C   0  0  0  0  0  0  0  0  0  0  0  0
   44.8547   34.9442   41.7012 C   0  0  0  0  0  0  0  0  0  0  0  0
   43.9671   35.4362   42.7048 C   0  0  0  0  0  0  0  0  0  0  0  0
   42.3098   35.1488   41.9715 S   0  0  0  0  0  0  0  0  0  0  0  0
   43.1021   34.4025   40.4117 C   0  0  0  0  0  0  0  0  0  0  0  0
   44.2109   34.4843   40.6634 N   0  0  0  0  0  0  0  0  0  0  0  0
   42.3490   33.9299   39.3389 O   0  0  0  0  0  0  0  0  0  0  0  0
   40.4192   34.3967   37.5927 O   0  0  0  0  0  0  0  0  0  0  0  0
   41.4954   35.0793   38.4129 P   0  0  0  0  0  0  0  0  0  0  0  0
   40.7652   36.1527   39.4981 O   0  0  0  0  0  0  0  0  0  0  0  0
   42.5608   35.9499   37.4334 O   0  0  0  0  0  0  0  0  0  0  0  0
   47.1302   34.3444   40.8281 C   0  0  0  0  0  0  0  0  0  0  0  0
   48.4651   33.9123   41.2755 C   0  0  0  0  0  0  0  0  0  0  0  0
   48.9323   32.6991   40.7861 C   0  0  0  0  0  0  0  0  0  0  0  0
   50.1850   32.2207   41.1615 C   0  0  0  0  0  0  0  0  0  0  0  0
   50.9151   32.9900   42.0180 N   0  0  0  0  0  0  0  0  0  0  0  0
   50.4338   34.1623   42.4751 C   0  0  0  0  0  0  0  0  0  0  0  0
   49.2368   34.6069   42.1087 N   0  0  0  0  0  0  0  0  0  0  0  0
   47.9213   31.7309   39.6591 S   0  0  0  0  0  0  0  0  0  0  0  0
   46.5090   34.4199   42.8582 H   0  0  0  0  0  0  0  0  0  0  0  0
   46.6591   36.0422   42.1163 H   0  0  0  0  0  0  0  0  0  0  0  0
   44.2355   35.8679   43.6563 H   0  0  0  0  0  0  0  0  0  0  0  0
   39.9770   35.6618   39.8744 H   0  0  0  0  0  0  0  0  0  0  0  0
   42.7484   36.8432   37.8177 H   0  0  0  0  0  0  0  0  0  0  0  0
   46.5372   33.5046   40.4418 H   0  0  0  0  0  0  0  0  0  0  0  0
   47.3057   35.1364   40.0481 H   0  0  0  0  0  0  0  0  0  0  0  0
   50.5141   31.2702   40.7584 H   0  0  0  0  0  0  0  0  0  0  0  0
   51.1159   34.6843   43.1556 H   0  0  0  0  0  0  0  0  0  0  0  0
   48.2693   32.1947   37.9471 C   0  0  0  0  0  0  0  0  0  0  0  0
   48.1589   31.3091   36.8545 C   0  0  0  0  0  0  0  0  0  0  0  0
   47.8482   30.2652   36.9888 H   0  0  0  0  0  0  0  0  0  0  0  0
   48.6440   32.3973   35.4458 S   0  0  0  0  0  0  0  0  0  0  0  0
   48.9091   33.8679   36.6148 C   0  0  0  0  0  0  0  0  0  0  0  0
   49.2300   34.8218   36.2017 H   0  0  0  0  0  0  0  0  0  0  0  0
   48.6513   33.4302   37.6763 N   0  0  0  0  0  0  0  0  0  0  0  0
  2  1  1  0
  2  3  2  0
  4  3  1  0
  5  6  2  0
  5  4  1  0
  6  2  1  0
  7  5  1  0
  8  9  2  0
  9  7  1  0
  9 10  1  0
 11  9  1  0
 12 13  1  0
 12  1  1  0
 13 18  2  0
 14 15  2  0
 14 13  1  0
 15 16  1  0
 16 17  2  0
 18 17  1  0
 19 14  1  0
  1 20  1  0
  1 21  1  0
  3 22  1  0
 10 23  1  0
 11 24  1  0
 12 25  1  0
 12 26  1  0
 15 27  1  0
 17 28  1  0
 29 30  2  0
 30 31  1  0
 30 32  1  0
 32 33  1  0
 33 34  1  0
 33 35  2  0
 35 29  1  0
 19 29  1  0
M  ISO  8  20   8  21   8  22  14  23   3  24   3  25   8  26   8  27  14
M  ISO  3  28  14  31  15  34  16
M  END
>  <DihAtoms>  (1) 
13,18,28,29

>  <DihDeg>  (1) 
-89.99842563848891

$$$$
