
 OpenBabel03252506053D

 41 45  0  0  0  0  0  0  0  0999 V2000
   44.7860   35.9670   43.1990 Cl  0  0  0  0  0  0  0  0  0  0  0  0
   45.5230   34.7340   44.1530 C   0  0  0  0  0  0  0  0  0  0  0  0
   46.5990   34.0100   43.6560 C   0  0  0  0  0  0  0  0  0  0  0  0
   47.1180   33.0490   44.5020 C   0  0  0  0  0  0  0  0  0  0  0  0
   46.6390   32.7750   45.7750 C   0  0  0  0  0  0  0  0  0  0  0  0
   45.5740   33.5090   46.2340 C   0  0  0  0  0  0  0  0  0  0  0  0
   45.0050   33.1290   47.8450 Cl  0  0  0  0  0  0  0  0  0  0  0  0
   45.0230   34.4800   45.4260 C   0  0  0  0  0  0  0  0  0  0  0  0
   47.9600   32.5000   44.0850 H   0  0  0  0  0  0  0  0  0  0  0  0
   44.1850   35.0470   45.8040 H   0  0  0  0  0  0  0  0  0  0  0  0
   47.3270   31.7170   46.5150 C   0  0  0  0  0  0  0  0  0  0  0  0
   47.4320   30.4310   46.0600 C   0  0  0  0  0  0  0  0  0  0  0  0
   48.0780   29.4100   46.7370 C   0  0  0  0  0  0  0  0  0  0  0  0
   48.6640   29.7000   47.9630 C   0  0  0  0  0  0  0  0  0  0  0  0
   49.2790   28.6980   48.5950 N   0  0  0  0  0  0  0  0  0  0  0  0
   49.8830   28.8760   49.8020 C   0  0  0  0  0  0  0  0  0  0  0  0
   49.8230   30.1650   50.3400 C   0  0  0  0  0  0  0  0  0  0  0  0
   49.1830   31.1820   49.6720 C   0  0  0  0  0  0  0  0  0  0  0  0
   48.5830   30.9640   48.4530 C   0  0  0  0  0  0  0  0  0  0  0  0
   47.9280   31.9740   47.7530 C   0  0  0  0  0  0  0  0  0  0  0  0
   46.9570   30.2440   45.0880 H   0  0  0  0  0  0  0  0  0  0  0  0
   48.1080   28.4220   46.2940 H   0  0  0  0  0  0  0  0  0  0  0  0
   50.3930   28.0930   50.3470 H   0  0  0  0  0  0  0  0  0  0  0  0
   50.2830   30.3860   51.3020 H   0  0  0  0  0  0  0  0  0  0  0  0
   49.1390   32.1810   50.0980 H   0  0  0  0  0  0  0  0  0  0  0  0
   47.8980   32.9710   48.1990 H   0  0  0  0  0  0  0  0  0  0  0  0
   48.6650   35.3810   41.0000 C   0  0  0  0  0  0  0  0  0  0  0  0
   48.1930   34.7280   39.8490 C   0  0  0  0  0  0  0  0  0  0  0  0
   47.1490   33.8050   39.9990 C   0  0  0  0  0  0  0  0  0  0  0  0
   46.6850   33.6240   41.2440 N   0  0  0  0  0  0  0  0  0  0  0  0
   47.1400   34.2500   42.3350 C   0  0  0  0  0  0  0  0  0  0  0  0
   48.1490   35.1460   42.2210 N   0  0  0  0  0  0  0  0  0  0  0  0
   49.4560   36.0550   40.7600 H   0  0  0  0  0  0  0  0  0  0  0  0
   48.5860   34.8930   38.8550 H   0  0  0  0  0  0  0  0  0  0  0  0
   46.5990   33.0820   38.8790 C   0  0  0  0  0  0  0  0  0  0  0  0
   46.4840   31.6410   38.9000 C   0  0  0  0  0  0  0  0  0  0  0  0
   46.7480   30.9050   39.6690 H   0  0  0  0  0  0  0  0  0  0  0  0
   45.7280   31.2860   37.1980 S   0  0  0  0  0  0  0  0  0  0  0  0
   45.6980   33.1320   36.7580 C   0  0  0  0  0  0  0  0  0  0  0  0
   45.3500   33.5780   35.8510 H   0  0  0  0  0  0  0  0  0  0  0  0
   46.1310   33.2730   37.7440 N   0  0  0  0  0  0  0  0  0  0  0  0
  1  2  1  0  0  0  0
  2  8  1  0  0  0  0
  3  2  2  0  0  0  0
  3  4  1  0  0  0  0
  4  5  2  0  0  0  0
  5  6  1  0  0  0  0
  5 11  1  0  0  0  0
  6  7  1  0  0  0  0
  8 10  1  0  0  0  0
  8  6  2  0  0  0  0
  9  4  1  0  0  0  0
 11 20  1  0  0  0  0
 12 11  2  0  0  0  0
 12 13  1  0  0  0  0
 13 14  2  0  0  0  0
 14 19  1  0  0  0  0
 14 15  1  0  0  0  0
 15 16  2  0  0  0  0
 16 17  1  0  0  0  0
 16 23  1  0  0  0  0
 17 24  1  0  0  0  0
 18 25  1  0  0  0  0
 18 17  2  0  0  0  0
 19 18  1  0  0  0  0
 20 26  1  0  0  0  0
 20 19  2  0  0  0  0
 21 12  1  0  0  0  0
 22 13  1  0  0  0  0
 27 32  1  0  0  0  0
 28 29  1  0  0  0  0
 28 27  2  0  0  0  0
 29 30  2  0  0  0  0
 30 31  1  0  0  0  0
 31  3  1  0  0  0  0
 32 31  2  0  0  0  0
 33 27  1  0  0  0  0
 34 28  1  0  0  0  0
 35 36  2  0  0  0  0
 35 29  1  0  0  0  0
 36 37  1  0  0  0  0
 38 36  1  0  0  0  0
 39 38  1  0  0  0  0
 39 41  2  0  0  0  0
 40 39  1  0  0  0  0
 41 35  1  0  0  0  0
M  END
>  <minimizedAffinity>
-6.97678614

>  <minimizedRMSD>
0.219460666

$$$$
