
 OpenBabel03252508593D

 43 45  0  0  1  0  0  0  0  0999 V2000
   46.6710   34.5420   43.5280 N   0  0  0  0  0  0  0  0  0  0  0  0
   46.1900   35.5850   42.6930 C   0  0  0  0  0  0  0  0  0  0  0  0
   44.6880   35.7660   42.6990 C   0  0  0  0  0  0  0  0  0  0  0  0
   44.0160   35.4350   44.0040 C   0  0  0  0  0  0  0  0  0  0  0  0
   45.0350   35.1200   45.0750 C   0  0  0  0  0  0  0  0  0  0  0  0
   45.8470   33.9250   44.4540 C   0  0  2  0  0  0  0  0  0  0  0  0
   46.5070   35.5420   41.6460 H   0  0  0  0  0  0  0  0  0  0  0  0
   46.6390   36.5310   43.1040 H   0  0  0  0  0  0  0  0  0  0  0  0
   44.2200   35.2120   41.8440 H   0  0  0  0  0  0  0  0  0  0  0  0
   44.4750   36.8370   42.4920 H   0  0  0  0  0  0  0  0  0  0  0  0
   43.4370   34.5000   43.8410 H   0  0  0  0  0  0  0  0  0  0  0  0
   43.2920   36.2080   44.3110 H   0  0  0  0  0  0  0  0  0  0  0  0
   45.6820   35.9970   45.1790 H   0  0  0  0  0  0  0  0  0  0  0  0
   44.5380   34.7830   45.9880 H   0  0  0  0  0  0  0  0  0  0  0  0
   45.0940   33.2090   44.0650 H   0  0  0  0  0  0  0  0  0  0  0  0
   47.7590   33.7960   42.9690 C   0  0  0  0  0  0  0  0  0  0  0  0
   48.3880   33.3700   43.7780 H   0  0  0  0  0  0  0  0  0  0  0  0
   48.3940   34.5070   42.3890 H   0  0  0  0  0  0  0  0  0  0  0  0
   47.2100   32.7140   42.0980 C   0  0  0  0  0  0  0  0  0  0  0  0
   47.3890   31.7030   42.4710 H   0  0  0  0  0  0  0  0  0  0  0  0
   46.0970   32.8330   41.9780 H   0  0  0  0  0  0  0  0  0  0  0  0
   49.0670   32.0010   38.9090 C   0  0  0  0  0  0  0  0  0  0  0  0
   48.5410   31.8610   40.2060 C   0  0  0  0  0  0  0  0  0  0  0  0
   47.7620   32.8700   40.7260 C   0  0  0  0  0  0  0  0  0  0  0  0
   47.5430   33.9490   39.9570 N   0  0  0  0  0  0  0  0  0  0  0  0
   48.0500   34.0730   38.7210 C   0  0  0  0  0  0  0  0  0  0  0  0
   48.8140   33.1060   38.1830 N   0  0  0  0  0  0  0  0  0  0  0  0
   49.6830   31.1920   38.5090 H   0  0  0  0  0  0  0  0  0  0  0  0
   48.7820   30.9480   40.7350 H   0  0  0  0  0  0  0  0  0  0  0  0
   47.7590   35.0110   38.2680 H   0  0  0  0  0  0  0  0  0  0  0  0
   46.5550   33.4650   45.5530 O   0  0  0  0  0  0  0  0  0  0  0  0
   45.5990   31.1270   44.7250 O   0  0  0  0  0  0  0  0  0  0  0  0
   46.2270   31.8580   45.9170 P   0  0  2  0  0  0  0  0  0  0  0  0
   44.9990   31.8830   47.1090 O   0  0  0  0  0  0  0  0  0  0  0  0
   45.1830   32.6040   47.7560 H   0  0  0  0  0  0  0  0  0  0  0  0
   47.5420   31.0670   46.5470 O   0  0  0  0  0  0  0  0  0  0  0  0
   47.5890   29.7200   46.8740 C   0  0  0  0  0  0  0  0  0  0  0  0
   48.7640   28.8800   46.9200 C   0  0  0  0  0  0  0  0  0  0  0  0
   49.7420   29.4120   46.6550 H   0  0  0  0  0  0  0  0  0  0  0  0
   48.0040   27.2260   47.4340 S   0  0  0  0  0  0  0  0  0  0  0  0
   46.2780   28.0180   47.4750 C   0  0  0  0  0  0  0  0  0  0  0  0
   45.4570   27.3440   47.7540 H   0  0  0  0  0  0  0  0  0  0  0  0
   46.4240   29.1500   47.1750 N   0  0  0  0  0  0  0  0  0  0  0  0
  1  6  1  0  0  0  0
  2  3  1  0  0  0  0
  2  8  1  0  0  0  0
  2  1  1  0  0  0  0
  3  4  1  0  0  0  0
  4 12  1  0  0  0  0
  4  5  1  0  0  0  0
  5 13  1  0  0  0  0
  5 14  1  0  0  0  0
  6 15  1  6  0  0  0
  6  5  1  0  0  0  0
  6 31  1  0  0  0  0
  7  2  1  0  0  0  0
  9  3  1  0  0  0  0
 10  3  1  0  0  0  0
 11  4  1  0  0  0  0
 16  1  1  0  0  0  0
 16 17  1  0  0  0  0
 18 16  1  0  0  0  0
 19 20  1  0  0  0  0
 19 16  1  0  0  0  0
 21 19  1  0  0  0  0
 22 23  1  0  0  0  0
 23 24  2  0  0  0  0
 23 29  1  0  0  0  0
 24 19  1  0  0  0  0
 25 24  1  0  0  0  0
 26 25  2  0  0  0  0
 27 26  1  0  0  0  0
 27 22  2  0  0  0  0
 28 22  1  0  0  0  0
 30 26  1  0  0  0  0
 31 33  1  0  0  0  0
 33 32  2  6  0  0  0
 33 36  1  0  0  0  0
 33 34  1  0  0  0  0
 34 35  1  0  0  0  0
 36 37  1  0  0  0  0
 37 38  2  0  0  0  0
 37 43  1  0  0  0  0
 38 40  1  0  0  0  0
 39 38  1  0  0  0  0
 40 41  1  0  0  0  0
 41 42  1  0  0  0  0
 43 41  2  0  0  0  0
M  END
>  <minimizedAffinity>
-4.21006584

>  <minimizedRMSD>
0.911143959

$$$$
