
     RDKit          3D

 33 36  0  0  0  0  0  0  0  0999 V2000
   46.9573   30.8448   45.2721 C   0  0  0  0  0  0  0  0  0  0  0  0
   46.5904   32.1508   45.0736 C   0  0  0  0  0  0  0  0  0  0  0  0
   46.0699   32.9598   46.1067 C   0  0  0  0  0  0  0  0  0  0  0  0
   45.9133   32.4359   47.3846 C   0  0  0  0  0  0  0  0  0  0  0  0
   45.4664   32.8835   48.5834 N   0  0  0  0  0  0  0  0  0  0  0  0
   45.5680   31.8544   49.4798 C   0  0  0  0  0  0  0  0  0  0  0  0
   46.0738   30.7920   48.8234 N   0  0  0  0  0  0  0  0  0  0  0  0
   46.2960   31.1159   47.5387 C   0  0  0  0  0  0  0  0  0  0  0  0
   46.8087   30.2985   46.5463 C   0  0  0  0  0  0  0  0  0  0  0  0
   45.9106   33.2634   41.6461 C   0  0  0  0  0  0  0  0  0  0  0  0
   47.0553   33.9941   41.3126 C   0  0  0  0  0  0  0  0  0  0  0  0
   48.0408   34.0876   42.2800 C   0  0  0  0  0  0  0  0  0  0  0  0
   47.8227   33.4656   43.4746 N   0  0  0  0  0  0  0  0  0  0  0  0
   46.7213   32.7719   43.7740 C   0  0  0  0  0  0  0  0  0  0  0  0
   45.7530   32.6679   42.8516 N   0  0  0  0  0  0  0  0  0  0  0  0
   49.2785   34.8460   41.9932 C   0  0  0  0  0  0  0  0  0  0  0  0
   48.9791   36.0105   41.2617 F   0  0  0  0  0  0  0  0  0  0  0  0
   49.8630   35.2752   43.1600 F   0  0  0  0  0  0  0  0  0  0  0  0
   50.1167   34.0464   41.2673 F   0  0  0  0  0  0  0  0  0  0  0  0
   47.1582   34.5708   40.0874 O   0  0  0  0  0  0  0  0  0  0  0  0
   47.3425   30.3044   44.4341 H   0  0  0  0  0  0  0  0  0  0  0  0
   45.7819   33.9862   45.9491 H   0  0  0  0  0  0  0  0  0  0  0  0
   45.1277   33.8541   48.6962 H   0  0  0  0  0  0  0  0  0  0  0  0
   45.2665   31.9846   50.5053 H   0  0  0  0  0  0  0  0  0  0  0  0
   47.0902   29.2863   46.7118 H   0  0  0  0  0  0  0  0  0  0  0  0
   45.0745   33.1073   41.0052 H   0  0  0  0  0  0  0  0  0  0  0  0
   46.1565   34.4591   39.1479 C   0  0  0  0  0  0  0  0  0  0  0  0
   46.8915   34.5187   37.9404 C   0  0  0  0  0  0  0  0  0  0  0  0
   47.8985   34.6129   37.3652 H   0  0  0  0  0  0  0  0  0  0  0  0
   45.5994   34.3737   36.6461 S   0  0  0  0  0  0  0  0  0  0  0  0
   44.2616   34.2550   37.9696 C   0  0  0  0  0  0  0  0  0  0  0  0
   43.1039   34.1431   38.3218 H   0  0  0  0  0  0  0  0  0  0  0  0
   44.8834   34.3284   38.8947 N   0  0  0  0  0  0  0  0  0  0  0  0
  1  9  2  0
  2  1  1  0
  2  3  2  0
  3  4  1  0
  4  8  2  0
  4  5  1  0
  5  6  1  0
  7  6  2  0
  8  7  1  0
  9  8  1  0
 10 15  2  0
 11 10  1  0
 11 12  2  0
 12 13  1  0
 13 14  2  0
 14  2  1  0
 15 14  1  0
 16 12  1  0
 16 18  1  0
 17 16  1  0
 19 16  1  0
 20 11  1  0
  1 21  1  0
  3 22  1  0
  5 23  1  0
  6 24  1  0
  9 25  1  0
 10 26  1  0
 27 28  2  0
 28 29  1  0
 28 30  1  0
 30 31  1  0
 31 32  1  0
 31 33  2  0
 33 27  1  0
 20 27  1  0
M  ISO  8  21  14  22  14  23   9  24  14  25  14  26  14  29  15  32  16
M  END
>  <DihAtoms>  (1) 
10,19,26,27

>  <DihDeg>  (1) 
-179.9868257417245

$$$$
