
 OpenBabel03252507323D

 47 50  0  0  1  0  0  0  0  0999 V2000
   47.0170   32.4730   45.3530 C   0  0  0  0  0  0  0  0  0  0  0  0
   45.9560   33.1520   45.9440 C   0  0  0  0  0  0  0  0  0  0  0  0
   45.3500   34.2260   45.2540 C   0  0  0  0  0  0  0  0  0  0  0  0
   45.8720   34.5380   44.0030 N   0  0  0  0  0  0  0  0  0  0  0  0
   46.8940   33.8460   43.4940 C   0  0  0  0  0  0  0  0  0  0  0  0
   47.4590   32.8320   44.1530 N   0  0  0  0  0  0  0  0  0  0  0  0
   45.4340   33.1130   46.8730 H   0  0  0  0  0  0  0  0  0  0  0  0
   44.5440   34.8490   45.5340 H   0  0  0  0  0  0  0  0  0  0  0  0
   47.5930   31.3660   46.0870 C   0  0  2  0  0  0  0  0  0  0  0  0
   47.0670   29.9970   45.5600 C   0  0  0  0  0  0  0  0  0  0  0  0
   47.7990   28.8890   46.2320 C   0  0  0  0  0  0  0  0  0  0  0  0
   48.0000   29.0330   47.7040 C   0  0  0  0  0  0  0  0  0  0  0  0
   48.2600   30.3790   48.1460 C   0  0  0  0  0  0  0  0  0  0  0  0
   47.3310   31.4360   47.5110 C   0  0  2  0  0  0  0  0  0  0  0  0
   48.6740   31.3260   45.8550 H   0  0  0  0  0  0  0  0  0  0  0  0
   45.9860   29.9360   45.6330 H   0  0  0  0  0  0  0  0  0  0  0  0
   47.3060   30.0230   44.4770 H   0  0  0  0  0  0  0  0  0  0  0  0
   47.1680   27.9640   46.0890 H   0  0  0  0  0  0  0  0  0  0  0  0
   48.7010   28.6930   45.6220 H   0  0  0  0  0  0  0  0  0  0  0  0
   47.5850   28.2620   48.3570 H   0  0  0  0  0  0  0  0  0  0  0  0
   49.0790   28.6030   47.7800 H   0  0  0  0  0  0  0  0  0  0  0  0
   49.2750   30.8110   48.0220 H   0  0  0  0  0  0  0  0  0  0  0  0
   48.0600   30.4590   49.2500 H   0  0  0  0  0  0  0  0  0  0  0  0
   47.6300   32.3330   48.0550 H   0  0  0  0  0  0  0  0  0  0  0  0
   45.9420   31.0590   47.7800 N   0  0  0  0  0  0  0  0  0  0  0  0
   45.2950   30.6830   48.9700 C   0  0  0  0  0  0  0  0  0  0  0  0
   44.9450   31.5260   49.8730 O   0  0  0  0  0  0  0  0  0  0  0  0
   45.0460   29.2830   49.0980 N   0  0  0  0  0  0  0  0  0  0  0  0
   45.2060   30.9580   46.9840 H   0  0  0  0  0  0  0  0  0  0  0  0
   44.4960   28.5990   48.5470 H   0  0  0  0  0  0  0  0  0  0  0  0
   45.2880   28.4650   49.7270 H   0  0  0  0  0  0  0  0  0  0  0  0
   47.4120   34.2410   42.1810 C   0  0  0  0  0  0  0  0  0  0  0  0
   48.3400   35.2220   42.0360 C   0  0  0  0  0  0  0  0  0  0  0  0
   48.8750   35.6510   40.8470 C   0  0  0  0  0  0  0  0  0  0  0  0
   48.3810   34.9840   39.7370 C   0  0  0  0  0  0  0  0  0  0  0  0
   47.4270   33.9720   39.8350 C   0  0  0  0  0  0  0  0  0  0  0  0
   46.9670   33.6290   41.0760 N   0  0  0  0  0  0  0  0  0  0  0  0
   48.6790   35.6970   42.9500 H   0  0  0  0  0  0  0  0  0  0  0  0
   49.6070   36.4220   40.7260 H   0  0  0  0  0  0  0  0  0  0  0  0
   48.7700   35.2830   38.7720 H   0  0  0  0  0  0  0  0  0  0  0  0
   46.9090   33.2720   38.6630 C   0  0  0  0  0  0  0  0  0  0  0  0
   47.3970   33.6320   37.3580 C   0  0  0  0  0  0  0  0  0  0  0  0
   48.1470   34.4010   37.0670 H   0  0  0  0  0  0  0  0  0  0  0  0
   46.4270   32.4560   36.2430 S   0  0  0  0  0  0  0  0  0  0  0  0
   45.5660   31.7210   37.7670 C   0  0  0  0  0  0  0  0  0  0  0  0
   44.8160   30.9190   37.7750 H   0  0  0  0  0  0  0  0  0  0  0  0
   46.0000   32.2960   38.6500 N   0  0  0  0  0  0  0  0  0  0  0  0
  1  2  1  0  0  0  0
  1  9  1  0  0  0  0
  2  7  1  0  0  0  0
  3  8  1  0  0  0  0
  3  2  2  0  0  0  0
  4  3  1  0  0  0  0
  5  4  2  0  0  0  0
  5  6  1  0  0  0  0
  6  1  2  0  0  0  0
  9 15  1  6  0  0  0
  9 14  1  0  0  0  0
 10 16  1  0  0  0  0
 10  9  1  0  0  0  0
 10 11  1  0  0  0  0
 11 12  1  0  0  0  0
 12 21  1  0  0  0  0
 12 13  1  0  0  0  0
 12 20  1  0  0  0  0
 13 23  1  0  0  0  0
 14 25  1  0  0  0  0
 14 24  1  1  0  0  0
 14 13  1  0  0  0  0
 17 10  1  0  0  0  0
 18 11  1  0  0  0  0
 19 11  1  0  0  0  0
 22 13  1  0  0  0  0
 25 26  1  0  0  0  0
 26 28  1  0  0  0  0
 26 27  2  0  0  0  0
 28 31  1  0  0  0  0
 29 25  1  0  0  0  0
 30 28  1  0  0  0  0
 32  5  1  0  0  0  0
 33 32  1  0  0  0  0
 33 38  1  0  0  0  0
 34 33  2  0  0  0  0
 35 36  2  0  0  0  0
 35 34  1  0  0  0  0
 36 37  1  0  0  0  0
 37 32  2  0  0  0  0
 39 34  1  0  0  0  0
 40 35  1  0  0  0  0
 41 36  1  0  0  0  0
 42 41  2  0  0  0  0
 43 42  1  0  0  0  0
 44 42  1  0  0  0  0
 44 45  1  0  0  0  0
 45 46  1  0  0  0  0
 45 47  2  0  0  0  0
 47 41  1  0  0  0  0
M  END
>  <minimizedAffinity>
-6.3048358

>  <minimizedRMSD>
0.653014123

$$$$
