
 OpenBabel03242517493D

 41 44  0  0  0  0  0  0  0  0999 V2000
   38.4690   29.7050   42.3990 C   0  0  0  0  0  0  0  0  0  0  0  0
   37.1920   29.3990   41.8780 C   0  0  0  0  0  0  0  0  0  0  0  0
   36.6950   28.1370   42.0900 C   0  0  0  0  0  0  0  0  0  0  0  0
   37.4430   27.2530   42.7820 N   0  0  0  0  0  0  0  0  0  0  0  0
   38.6610   27.5650   43.2730 C   0  0  0  0  0  0  0  0  0  0  0  0
   39.2020   28.7790   43.0990 N   0  0  0  0  0  0  0  0  0  0  0  0
   38.9240   30.6770   42.2710 H   0  0  0  0  0  0  0  0  0  0  0  0
   35.7180   27.8860   41.6980 H   0  0  0  0  0  0  0  0  0  0  0  0
   39.4210   26.5320   44.0260 C   0  0  0  0  0  0  0  0  0  0  0  0
   39.9810   27.0060   44.8670 H   0  0  0  0  0  0  0  0  0  0  0  0
   38.7580   25.7570   44.4680 H   0  0  0  0  0  0  0  0  0  0  0  0
   40.4710   25.8630   43.1610 C   0  0  0  0  0  0  0  0  0  0  0  0
   40.3940   26.2500   42.1240 H   0  0  0  0  0  0  0  0  0  0  0  0
   40.2680   24.7700   43.1960 H   0  0  0  0  0  0  0  0  0  0  0  0
   41.8020   26.1680   43.7430 C   0  0  0  0  0  0  0  0  0  0  0  0
   42.9910   25.6410   43.1190 C   0  0  0  0  0  0  0  0  0  0  0  0
   42.9930   25.0050   42.2070 H   0  0  0  0  0  0  0  0  0  0  0  0
   44.3610   26.3020   44.2200 S   0  0  0  0  0  0  0  0  0  0  0  0
   43.0560   27.1590   45.3030 C   0  0  0  0  0  0  0  0  0  0  0  0
   43.1020   27.8340   46.2770 H   0  0  0  0  0  0  0  0  0  0  0  0
   42.0650   26.9050   44.8290 N   0  0  0  0  0  0  0  0  0  0  0  0
   36.2870   30.6290   40.9810 S   0  0  0  0  0  0  0  0  0  0  0  0
   36.4290   30.3490   39.2390 C   0  0  0  0  0  0  0  0  0  0  0  0
   35.7110   29.3830   38.5530 C   0  0  0  0  0  0  0  0  0  0  0  0
   35.8710   29.2180   37.1840 C   0  0  0  0  0  0  0  0  0  0  0  0
   36.7420   30.0060   36.4780 C   0  0  0  0  0  0  0  0  0  0  0  0
   37.4580   30.9690   37.1580 C   0  0  0  0  0  0  0  0  0  0  0  0
   37.3180   31.1580   38.5310 C   0  0  0  0  0  0  0  0  0  0  0  0
   35.0300   28.7640   39.0910 H   0  0  0  0  0  0  0  0  0  0  0  0
   35.3320   28.4760   36.6110 H   0  0  0  0  0  0  0  0  0  0  0  0
   36.9040   29.9200   35.4170 H   0  0  0  0  0  0  0  0  0  0  0  0
   38.1700   31.6360   36.6700 H   0  0  0  0  0  0  0  0  0  0  0  0
   38.0730   32.1670   39.2280 C   0  0  0  0  0  0  0  0  0  0  0  0
   37.6120   33.4220   39.5230 C   0  0  0  0  0  0  0  0  0  0  0  0
   38.3770   34.3780   40.2030 C   0  0  0  0  0  0  0  0  0  0  0  0
   39.6190   34.0600   40.5880 N   0  0  0  0  0  0  0  0  0  0  0  0
   40.0770   32.8280   40.3000 C   0  0  0  0  0  0  0  0  0  0  0  0
   39.3260   31.9120   39.6410 N   0  0  0  0  0  0  0  0  0  0  0  0
   36.6080   33.7000   39.2190 H   0  0  0  0  0  0  0  0  0  0  0  0
   38.0240   35.3560   40.4360 H   0  0  0  0  0  0  0  0  0  0  0  0
   41.0680   32.4550   40.5610 H   0  0  0  0  0  0  0  0  0  0  0  0
  1  6  1  0  0  0  0
  2  3  1  0  0  0  0
  2  1  2  0  0  0  0
  3  4  2  0  0  0  0
  4  5  1  0  0  0  0
  5  9  1  0  0  0  0
  6  5  2  0  0  0  0
  7  1  1  0  0  0  0
  8  3  1  0  0  0  0
  9 11  1  0  0  0  0
  9 10  1  0  0  0  0
 12 14  1  0  0  0  0
 12 15  1  0  0  0  0
 12  9  1  0  0  0  0
 13 12  1  0  0  0  0
 15 21  1  0  0  0  0
 16 15  2  0  0  0  0
 16 18  1  0  0  0  0
 17 16  1  0  0  0  0
 18 19  1  0  0  0  0
 19 20  1  0  0  0  0
 21 19  2  0  0  0  0
 22  2  1  0  0  0  0
 23 22  1  0  0  0  0
 24 29  1  0  0  0  0
 24 23  1  0  0  0  0
 25 24  2  0  0  0  0
 26 27  2  0  0  0  0
 26 25  1  0  0  0  0
 27 28  1  0  0  0  0
 28 33  1  0  0  0  0
 28 23  2  0  0  0  0
 30 25  1  0  0  0  0
 31 26  1  0  0  0  0
 32 27  1  0  0  0  0
 33 34  2  0  0  0  0
 33 38  1  0  0  0  0
 34 35  1  0  0  0  0
 35 40  1  0  0  0  0
 35 36  2  0  0  0  0
 37 41  1  0  0  0  0
 37 36  1  0  0  0  0
 38 37  2  0  0  0  0
 39 34  1  0  0  0  0
M  END
>  <minimizedAffinity>
-6.16757631

$$$$

 OpenBabel03242517493D

 41 44  0  0  0  0  0  0  0  0999 V2000
   35.9280   28.9870   41.1120 C   0  0  0  0  0  0  0  0  0  0  0  0
   36.9540   28.6810   42.0340 C   0  0  0  0  0  0  0  0  0  0  0  0
   37.9730   29.5880   42.1880 C   0  0  0  0  0  0  0  0  0  0  0  0
   37.9490   30.7220   41.4590 N   0  0  0  0  0  0  0  0  0  0  0  0
   36.9590   30.9970   40.5830 C   0  0  0  0  0  0  0  0  0  0  0  0
   35.9370   30.1530   40.3860 N   0  0  0  0  0  0  0  0  0  0  0  0
   35.0950   28.3220   40.9380 H   0  0  0  0  0  0  0  0  0  0  0  0
   38.7670   29.3690   42.8910 H   0  0  0  0  0  0  0  0  0  0  0  0
   37.0070   32.2700   39.8170 C   0  0  0  0  0  0  0  0  0  0  0  0
   36.1560   32.3160   39.0960 H   0  0  0  0  0  0  0  0  0  0  0  0
   36.9270   33.1630   40.4750 H   0  0  0  0  0  0  0  0  0  0  0  0
   38.2630   32.3760   38.9760 C   0  0  0  0  0  0  0  0  0  0  0  0
   37.9850   32.6020   37.9250 H   0  0  0  0  0  0  0  0  0  0  0  0
   38.7840   31.3960   39.0500 H   0  0  0  0  0  0  0  0  0  0  0  0
   39.1030   33.4600   39.5460 C   0  0  0  0  0  0  0  0  0  0  0  0
   40.5400   33.3580   39.4800 C   0  0  0  0  0  0  0  0  0  0  0  0
   41.0900   32.5070   39.0200 H   0  0  0  0  0  0  0  0  0  0  0  0
   41.1040   34.9390   40.3210 S   0  0  0  0  0  0  0  0  0  0  0  0
   39.2870   35.4230   40.5940 C   0  0  0  0  0  0  0  0  0  0  0  0
   38.7430   36.3510   41.0950 H   0  0  0  0  0  0  0  0  0  0  0  0
   38.6860   34.5800   40.1480 N   0  0  0  0  0  0  0  0  0  0  0  0
   36.8970   27.1640   42.9460 S   0  0  0  0  0  0  0  0  0  0  0  0
   38.4970   26.4070   42.9810 C   0  0  0  0  0  0  0  0  0  0  0  0
   39.4750   26.7170   43.9130 C   0  0  0  0  0  0  0  0  0  0  0  0
   40.7090   26.0820   43.8820 C   0  0  0  0  0  0  0  0  0  0  0  0
   40.9910   25.1360   42.9320 C   0  0  0  0  0  0  0  0  0  0  0  0
   40.0190   24.8260   42.0030 C   0  0  0  0  0  0  0  0  0  0  0  0
   38.7720   25.4450   42.0090 C   0  0  0  0  0  0  0  0  0  0  0  0
   39.2680   27.4510   44.6570 H   0  0  0  0  0  0  0  0  0  0  0  0
   41.5000   26.2940   44.5880 H   0  0  0  0  0  0  0  0  0  0  0  0
   41.9310   24.6140   42.8630 H   0  0  0  0  0  0  0  0  0  0  0  0
   40.1640   24.0850   41.2170 H   0  0  0  0  0  0  0  0  0  0  0  0
   37.7660   25.1110   41.0330 C   0  0  0  0  0  0  0  0  0  0  0  0
   36.8720   24.0810   41.1530 C   0  0  0  0  0  0  0  0  0  0  0  0
   35.9080   23.7870   40.1810 C   0  0  0  0  0  0  0  0  0  0  0  0
   35.8490   24.5440   39.0780 N   0  0  0  0  0  0  0  0  0  0  0  0
   36.7250   25.5560   38.9550 C   0  0  0  0  0  0  0  0  0  0  0  0
   37.6540   25.8300   39.9030 N   0  0  0  0  0  0  0  0  0  0  0  0
   36.9040   23.4570   42.0400 H   0  0  0  0  0  0  0  0  0  0  0  0
   35.2090   22.9870   40.2690 H   0  0  0  0  0  0  0  0  0  0  0  0
   36.7740   26.2380   38.1040 H   0  0  0  0  0  0  0  0  0  0  0  0
  1  2  1  0  0  0  0
  2  3  2  0  0  0  0
  2 22  1  0  0  0  0
  3  8  1  0  0  0  0
  4  3  1  0  0  0  0
  5  4  2  0  0  0  0
  6  5  1  0  0  0  0
  6  1  2  0  0  0  0
  7  1  1  0  0  0  0
  9 11  1  0  0  0  0
  9  5  1  0  0  0  0
 10  9  1  0  0  0  0
 12 14  1  0  0  0  0
 12 15  1  0  0  0  0
 12  9  1  0  0  0  0
 13 12  1  0  0  0  0
 15 21  1  0  0  0  0
 16 15  2  0  0  0  0
 16 18  1  0  0  0  0
 17 16  1  0  0  0  0
 18 19  1  0  0  0  0
 19 20  1  0  0  0  0
 21 19  2  0  0  0  0
 22 23  1  0  0  0  0
 23 24  1  0  0  0  0
 24 29  1  0  0  0  0
 25 24  2  0  0  0  0
 25 30  1  0  0  0  0
 26 25  1  0  0  0  0
 27 28  1  0  0  0  0
 27 26  2  0  0  0  0
 28 23  2  0  0  0  0
 31 26  1  0  0  0  0
 32 27  1  0  0  0  0
 33 34  1  0  0  0  0
 33 28  1  0  0  0  0
 34 39  1  0  0  0  0
 35 40  1  0  0  0  0
 35 34  2  0  0  0  0
 36 35  1  0  0  0  0
 37 36  2  0  0  0  0
 37 38  1  0  0  0  0
 38 33  2  0  0  0  0
 41 37  1  0  0  0  0
M  END
>  <minimizedAffinity>
-6.06077337

$$$$

 OpenBabel03242517493D

 41 44  0  0  0  0  0  0  0  0999 V2000
   36.8910   28.0590   42.1940 C   0  0  0  0  0  0  0  0  0  0  0  0
   37.3640   29.3670   41.9440 C   0  0  0  0  0  0  0  0  0  0  0  0
   38.6230   29.6920   42.3840 C   0  0  0  0  0  0  0  0  0  0  0  0
   39.3470   28.7550   43.0300 N   0  0  0  0  0  0  0  0  0  0  0  0
   38.8790   27.5100   43.2590 C   0  0  0  0  0  0  0  0  0  0  0  0
   37.6570   27.1310   42.8560 N   0  0  0  0  0  0  0  0  0  0  0  0
   35.9110   27.7330   41.8790 H   0  0  0  0  0  0  0  0  0  0  0  0
   39.0010   30.6900   42.2000 H   0  0  0  0  0  0  0  0  0  0  0  0
   39.7400   26.5360   43.9780 C   0  0  0  0  0  0  0  0  0  0  0  0
   40.8050   26.8690   43.9470 H   0  0  0  0  0  0  0  0  0  0  0  0
   39.4590   26.4330   45.0490 H   0  0  0  0  0  0  0  0  0  0  0  0
   39.7200   25.1710   43.3190 C   0  0  0  0  0  0  0  0  0  0  0  0
   38.6850   24.9340   42.9940 H   0  0  0  0  0  0  0  0  0  0  0  0
   40.0780   24.4410   44.0770 H   0  0  0  0  0  0  0  0  0  0  0  0
   40.6420   25.2130   42.1560 C   0  0  0  0  0  0  0  0  0  0  0  0
   42.0600   25.3600   42.3770 C   0  0  0  0  0  0  0  0  0  0  0  0
   42.5360   25.4460   43.3780 H   0  0  0  0  0  0  0  0  0  0  0  0
   42.7500   25.3600   40.6300 S   0  0  0  0  0  0  0  0  0  0  0  0
   40.9870   25.1600   39.9500 C   0  0  0  0  0  0  0  0  0  0  0  0
   40.5240   25.0720   38.8620 H   0  0  0  0  0  0  0  0  0  0  0  0
   40.3210   25.1310   40.8590 N   0  0  0  0  0  0  0  0  0  0  0  0
   36.3370   30.5280   41.0880 S   0  0  0  0  0  0  0  0  0  0  0  0
   36.3980   30.2340   39.3440 C   0  0  0  0  0  0  0  0  0  0  0  0
   35.6630   29.2510   38.7020 C   0  0  0  0  0  0  0  0  0  0  0  0
   35.7600   29.0760   37.3280 C   0  0  0  0  0  0  0  0  0  0  0  0
   36.5830   29.8710   36.5740 C   0  0  0  0  0  0  0  0  0  0  0  0
   37.3150   30.8510   37.2100 C   0  0  0  0  0  0  0  0  0  0  0  0
   37.2390   31.0500   38.5860 C   0  0  0  0  0  0  0  0  0  0  0  0
   35.0190   28.6260   39.2780 H   0  0  0  0  0  0  0  0  0  0  0  0
   35.2050   28.3210   36.7890 H   0  0  0  0  0  0  0  0  0  0  0  0
   36.6940   29.7780   35.5070 H   0  0  0  0  0  0  0  0  0  0  0  0
   37.9910   31.5240   36.6820 H   0  0  0  0  0  0  0  0  0  0  0  0
   38.0110   32.0780   39.2380 C   0  0  0  0  0  0  0  0  0  0  0  0
   37.5440   33.3280   39.5460 C   0  0  0  0  0  0  0  0  0  0  0  0
   38.3250   34.3010   40.1800 C   0  0  0  0  0  0  0  0  0  0  0  0
   39.5910   34.0060   40.5050 N   0  0  0  0  0  0  0  0  0  0  0  0
   40.0540   32.7800   40.2040 C   0  0  0  0  0  0  0  0  0  0  0  0
   39.2860   31.8460   39.5900 N   0  0  0  0  0  0  0  0  0  0  0  0
   36.5220   33.5860   39.2900 H   0  0  0  0  0  0  0  0  0  0  0  0
   37.9690   35.2760   40.4220 H   0  0  0  0  0  0  0  0  0  0  0  0
   41.0630   32.4250   40.4180 H   0  0  0  0  0  0  0  0  0  0  0  0
  1  6  1  0  0  0  0
  2  1  2  0  0  0  0
  2  3  1  0  0  0  0
  3  4  2  0  0  0  0
  4  5  1  0  0  0  0
  5  9  1  0  0  0  0
  6  5  2  0  0  0  0
  7  1  1  0  0  0  0
  8  3  1  0  0  0  0
  9 11  1  0  0  0  0
 10  9  1  0  0  0  0
 12  9  1  0  0  0  0
 12 14  1  0  0  0  0
 13 12  1  0  0  0  0
 15 16  2  0  0  0  0
 15 12  1  0  0  0  0
 16 17  1  0  0  0  0
 18 16  1  0  0  0  0
 19 18  1  0  0  0  0
 19 21  2  0  0  0  0
 20 19  1  0  0  0  0
 21 15  1  0  0  0  0
 22  2  1  0  0  0  0
 23 22  1  0  0  0  0
 24 29  1  0  0  0  0
 24 23  1  0  0  0  0
 25 24  2  0  0  0  0
 26 27  2  0  0  0  0
 26 25  1  0  0  0  0
 27 28  1  0  0  0  0
 28 33  1  0  0  0  0
 28 23  2  0  0  0  0
 30 25  1  0  0  0  0
 31 26  1  0  0  0  0
 32 27  1  0  0  0  0
 33 34  2  0  0  0  0
 33 38  1  0  0  0  0
 34 35  1  0  0  0  0
 35 40  1  0  0  0  0
 35 36  2  0  0  0  0
 37 41  1  0  0  0  0
 37 36  1  0  0  0  0
 38 37  2  0  0  0  0
 39 34  1  0  0  0  0
M  END
>  <minimizedAffinity>
-5.99144316

$$$$

 OpenBabel03242517493D

 41 44  0  0  0  0  0  0  0  0999 V2000
   38.6820   29.6610   42.2090 C   0  0  0  0  0  0  0  0  0  0  0  0
   37.3140   29.4660   41.9130 C   0  0  0  0  0  0  0  0  0  0  0  0
   36.7270   28.2950   42.3250 C   0  0  0  0  0  0  0  0  0  0  0  0
   37.4770   27.3910   42.9890 N   0  0  0  0  0  0  0  0  0  0  0  0
   38.7830   27.5970   43.2630 C   0  0  0  0  0  0  0  0  0  0  0  0
   39.4140   28.7180   42.8870 N   0  0  0  0  0  0  0  0  0  0  0  0
   39.2110   30.5570   41.9170 H   0  0  0  0  0  0  0  0  0  0  0  0
   35.6800   28.1290   42.1060 H   0  0  0  0  0  0  0  0  0  0  0  0
   39.5390   26.5500   44.0000 C   0  0  0  0  0  0  0  0  0  0  0  0
   40.0050   26.9860   44.9150 H   0  0  0  0  0  0  0  0  0  0  0  0
   38.8870   25.7120   44.3310 H   0  0  0  0  0  0  0  0  0  0  0  0
   40.6870   26.0000   43.1780 C   0  0  0  0  0  0  0  0  0  0  0  0
   41.3130   25.3410   43.8140 H   0  0  0  0  0  0  0  0  0  0  0  0
   41.2690   26.8730   42.8110 H   0  0  0  0  0  0  0  0  0  0  0  0
   40.1080   25.2410   42.0400 C   0  0  0  0  0  0  0  0  0  0  0  0
   40.5760   25.4990   40.7000 C   0  0  0  0  0  0  0  0  0  0  0  0
   41.3600   26.2430   40.4400 H   0  0  0  0  0  0  0  0  0  0  0  0
   39.5490   24.3120   39.6700 S   0  0  0  0  0  0  0  0  0  0  0  0
   38.6940   23.7030   41.2530 C   0  0  0  0  0  0  0  0  0  0  0  0
   37.8530   22.8980   41.4840 H   0  0  0  0  0  0  0  0  0  0  0  0
   39.1590   24.2990   42.0890 N   0  0  0  0  0  0  0  0  0  0  0  0
   36.4150   30.7120   41.0350 S   0  0  0  0  0  0  0  0  0  0  0  0
   36.5240   30.4360   39.2900 C   0  0  0  0  0  0  0  0  0  0  0  0
   35.8050   29.4600   38.6180 C   0  0  0  0  0  0  0  0  0  0  0  0
   35.9400   29.2990   37.2460 C   0  0  0  0  0  0  0  0  0  0  0  0
   36.7840   30.1000   36.5220 C   0  0  0  0  0  0  0  0  0  0  0  0
   37.5000   31.0720   37.1890 C   0  0  0  0  0  0  0  0  0  0  0  0
   37.3870   31.2580   38.5640 C   0  0  0  0  0  0  0  0  0  0  0  0
   35.1450   28.8310   39.1700 H   0  0  0  0  0  0  0  0  0  0  0  0
   35.3990   28.5500   36.6840 H   0  0  0  0  0  0  0  0  0  0  0  0
   36.9250   30.0170   35.4580 H   0  0  0  0  0  0  0  0  0  0  0  0
   38.1920   31.7490   36.6860 H   0  0  0  0  0  0  0  0  0  0  0  0
   38.1410   32.2780   39.2460 C   0  0  0  0  0  0  0  0  0  0  0  0
   37.6580   33.5140   39.5810 C   0  0  0  0  0  0  0  0  0  0  0  0
   38.4230   34.4810   40.2450 C   0  0  0  0  0  0  0  0  0  0  0  0
   39.6890   34.1920   40.5730 N   0  0  0  0  0  0  0  0  0  0  0  0
   40.1680   32.9790   40.2470 C   0  0  0  0  0  0  0  0  0  0  0  0
   39.4170   32.0520   39.6030 N   0  0  0  0  0  0  0  0  0  0  0  0
   36.6350   33.7680   39.3240 H   0  0  0  0  0  0  0  0  0  0  0  0
   38.0540   35.4450   40.5080 H   0  0  0  0  0  0  0  0  0  0  0  0
   41.1800   32.6300   40.4600 H   0  0  0  0  0  0  0  0  0  0  0  0
  1  6  1  0  0  0  0
  2  1  2  0  0  0  0
  2  3  1  0  0  0  0
  3  4  2  0  0  0  0
  4  5  1  0  0  0  0
  5  9  1  0  0  0  0
  6  5  2  0  0  0  0
  7  1  1  0  0  0  0
  8  3  1  0  0  0  0
  9 11  1  0  0  0  0
  9 10  1  0  0  0  0
 12 13  1  0  0  0  0
 12  9  1  0  0  0  0
 14 12  1  0  0  0  0
 15 21  1  0  0  0  0
 15 12  1  0  0  0  0
 16 15  2  0  0  0  0
 17 16  1  0  0  0  0
 18 16  1  0  0  0  0
 18 19  1  0  0  0  0
 19 20  1  0  0  0  0
 19 21  2  0  0  0  0
 22  2  1  0  0  0  0
 23 22  1  0  0  0  0
 24 29  1  0  0  0  0
 24 23  1  0  0  0  0
 25 24  2  0  0  0  0
 26 27  2  0  0  0  0
 26 25  1  0  0  0  0
 27 28  1  0  0  0  0
 28 33  1  0  0  0  0
 28 23  2  0  0  0  0
 30 25  1  0  0  0  0
 31 26  1  0  0  0  0
 32 27  1  0  0  0  0
 33 34  2  0  0  0  0
 33 38  1  0  0  0  0
 34 35  1  0  0  0  0
 35 40  1  0  0  0  0
 35 36  2  0  0  0  0
 37 41  1  0  0  0  0
 37 36  1  0  0  0  0
 38 37  2  0  0  0  0
 39 34  1  0  0  0  0
M  END
>  <minimizedAffinity>
-5.98711157

$$$$

 OpenBabel03242517493D

 41 44  0  0  0  0  0  0  0  0999 V2000
   38.8190   30.0670   42.4480 C   0  0  0  0  0  0  0  0  0  0  0  0
   37.7340   29.1680   42.5470 C   0  0  0  0  0  0  0  0  0  0  0  0
   36.6280   29.4050   41.7670 C   0  0  0  0  0  0  0  0  0  0  0  0
   36.6290   30.4760   40.9490 N   0  0  0  0  0  0  0  0  0  0  0  0
   37.6760   31.3240   40.8670 C   0  0  0  0  0  0  0  0  0  0  0  0
   38.7840   31.1490   41.6020 N   0  0  0  0  0  0  0  0  0  0  0  0
   39.7210   29.9450   43.0300 H   0  0  0  0  0  0  0  0  0  0  0  0
   35.7880   28.7250   41.8310 H   0  0  0  0  0  0  0  0  0  0  0  0
   37.5970   32.4820   39.9390 C   0  0  0  0  0  0  0  0  0  0  0  0
   36.8020   32.3080   39.1750 H   0  0  0  0  0  0  0  0  0  0  0  0
   37.3450   33.4290   40.4650 H   0  0  0  0  0  0  0  0  0  0  0  0
   38.8820   32.6670   39.1570 C   0  0  0  0  0  0  0  0  0  0  0  0
   38.6410   32.8510   38.0900 H   0  0  0  0  0  0  0  0  0  0  0  0
   39.4710   31.7330   39.2790 H   0  0  0  0  0  0  0  0  0  0  0  0
   39.6070   33.8230   39.7420 C   0  0  0  0  0  0  0  0  0  0  0  0
   41.0310   33.7360   39.9610 C   0  0  0  0  0  0  0  0  0  0  0  0
   41.6500   32.8450   39.7180 H   0  0  0  0  0  0  0  0  0  0  0  0
   41.4380   35.4140   40.6980 S   0  0  0  0  0  0  0  0  0  0  0  0
   39.6060   35.9000   40.5640 C   0  0  0  0  0  0  0  0  0  0  0  0
   38.9840   36.8730   40.8390 H   0  0  0  0  0  0  0  0  0  0  0  0
   39.0930   35.0010   40.1170 N   0  0  0  0  0  0  0  0  0  0  0  0
   37.8280   27.7890   43.6530 S   0  0  0  0  0  0  0  0  0  0  0  0
   37.9170   26.2740   42.7420 C   0  0  0  0  0  0  0  0  0  0  0  0
   36.8060   25.5850   42.2830 C   0  0  0  0  0  0  0  0  0  0  0  0
   36.9500   24.4010   41.5720 C   0  0  0  0  0  0  0  0  0  0  0  0
   38.1920   23.8850   41.3080 C   0  0  0  0  0  0  0  0  0  0  0  0
   39.2990   24.5690   41.7630 C   0  0  0  0  0  0  0  0  0  0  0  0
   39.1870   25.7590   42.4780 C   0  0  0  0  0  0  0  0  0  0  0  0
   35.8350   25.9760   42.4820 H   0  0  0  0  0  0  0  0  0  0  0  0
   36.1100   23.8320   41.1970 H   0  0  0  0  0  0  0  0  0  0  0  0
   38.3590   22.9720   40.7620 H   0  0  0  0  0  0  0  0  0  0  0  0
   40.3200   24.2260   41.5940 H   0  0  0  0  0  0  0  0  0  0  0  0
   40.3530   26.4630   42.9480 C   0  0  0  0  0  0  0  0  0  0  0  0
   40.8980   26.3240   44.1960 C   0  0  0  0  0  0  0  0  0  0  0  0
   42.0340   27.0270   44.6170 C   0  0  0  0  0  0  0  0  0  0  0  0
   42.6220   27.8770   43.7660 N   0  0  0  0  0  0  0  0  0  0  0  0
   42.0900   28.0170   42.5390 C   0  0  0  0  0  0  0  0  0  0  0  0
   40.9900   27.3310   42.1440 N   0  0  0  0  0  0  0  0  0  0  0  0
   40.4360   25.6400   44.9000 H   0  0  0  0  0  0  0  0  0  0  0  0
   42.4640   26.9240   45.5870 H   0  0  0  0  0  0  0  0  0  0  0  0
   42.4790   28.6770   41.7630 H   0  0  0  0  0  0  0  0  0  0  0  0
  1  2  1  0  0  0  0
  1  7  1  0  0  0  0
  2 22  1  0  0  0  0
  3  8  1  0  0  0  0
  3  2  2  0  0  0  0
  4  3  1  0  0  0  0
  5  4  2  0  0  0  0
  5  6  1  0  0  0  0
  6  1  2  0  0  0  0
  9 11  1  0  0  0  0
  9  5  1  0  0  0  0
 10  9  1  0  0  0  0
 12 14  1  0  0  0  0
 12 15  1  0  0  0  0
 12  9  1  0  0  0  0
 13 12  1  0  0  0  0
 15 16  2  0  0  0  0
 15 21  1  0  0  0  0
 16 18  1  0  0  0  0
 17 16  1  0  0  0  0
 19 18  1  0  0  0  0
 19 20  1  0  0  0  0
 21 19  2  0  0  0  0
 23 22  1  0  0  0  0
 24 29  1  0  0  0  0
 24 23  2  0  0  0  0
 25 24  1  0  0  0  0
 26 25  2  0  0  0  0
 26 27  1  0  0  0  0
 27 28  2  0  0  0  0
 28 23  1  0  0  0  0
 28 33  1  0  0  0  0
 30 25  1  0  0  0  0
 31 26  1  0  0  0  0
 32 27  1  0  0  0  0
 33 34  1  0  0  0  0
 34 35  2  0  0  0  0
 34 39  1  0  0  0  0
 35 40  1  0  0  0  0
 36 35  1  0  0  0  0
 37 36  2  0  0  0  0
 38 37  1  0  0  0  0
 38 33  2  0  0  0  0
 41 37  1  0  0  0  0
M  END
>  <minimizedAffinity>
-5.83724308

$$$$

 OpenBabel03242517493D

 41 44  0  0  0  0  0  0  0  0999 V2000
   37.7460   32.9330   40.0240 C   0  0  0  0  0  0  0  0  0  0  0  0
   37.8140   31.6710   40.6550 C   0  0  0  0  0  0  0  0  0  0  0  0
   39.0530   31.1830   40.9900 C   0  0  0  0  0  0  0  0  0  0  0  0
   40.1420   31.9260   40.7030 N   0  0  0  0  0  0  0  0  0  0  0  0
   40.0570   33.1300   40.0990 C   0  0  0  0  0  0  0  0  0  0  0  0
   38.8770   33.6610   39.7460 N   0  0  0  0  0  0  0  0  0  0  0  0
   36.8070   33.3790   39.7310 H   0  0  0  0  0  0  0  0  0  0  0  0
   39.1230   30.2180   41.4760 H   0  0  0  0  0  0  0  0  0  0  0  0
   41.3060   33.8860   39.8180 C   0  0  0  0  0  0  0  0  0  0  0  0
   42.1940   33.2970   40.1510 H   0  0  0  0  0  0  0  0  0  0  0  0
   41.4390   34.0940   38.7340 H   0  0  0  0  0  0  0  0  0  0  0  0
   41.3630   35.1880   40.5910 C   0  0  0  0  0  0  0  0  0  0  0  0
   40.4340   35.3040   41.1870 H   0  0  0  0  0  0  0  0  0  0  0  0
   41.4620   36.0030   39.8420 H   0  0  0  0  0  0  0  0  0  0  0  0
   42.5560   35.1410   41.4740 C   0  0  0  0  0  0  0  0  0  0  0  0
   43.4800   34.0380   41.3640 C   0  0  0  0  0  0  0  0  0  0  0  0
   43.3700   33.1940   40.6490 H   0  0  0  0  0  0  0  0  0  0  0  0
   44.7680   34.4510   42.6670 S   0  0  0  0  0  0  0  0  0  0  0  0
   43.8030   36.0290   43.0990 C   0  0  0  0  0  0  0  0  0  0  0  0
   43.9610   36.9100   43.8790 H   0  0  0  0  0  0  0  0  0  0  0  0
   42.9110   36.0290   42.4100 N   0  0  0  0  0  0  0  0  0  0  0  0
   36.3260   30.7710   40.9900 S   0  0  0  0  0  0  0  0  0  0  0  0
   36.7040   29.0990   41.4310 C   0  0  0  0  0  0  0  0  0  0  0  0
   37.0540   28.7000   42.7110 C   0  0  0  0  0  0  0  0  0  0  0  0
   37.3380   27.3690   42.9860 C   0  0  0  0  0  0  0  0  0  0  0  0
   37.2780   26.4180   42.0010 C   0  0  0  0  0  0  0  0  0  0  0  0
   36.9300   26.8130   40.7260 C   0  0  0  0  0  0  0  0  0  0  0  0
   36.6400   28.1400   40.4190 C   0  0  0  0  0  0  0  0  0  0  0  0
   37.1040   29.4300   43.4850 H   0  0  0  0  0  0  0  0  0  0  0  0
   37.6160   27.0160   43.9700 H   0  0  0  0  0  0  0  0  0  0  0  0
   37.4880   25.3740   42.1600 H   0  0  0  0  0  0  0  0  0  0  0  0
   36.8590   26.1180   39.8880 H   0  0  0  0  0  0  0  0  0  0  0  0
   36.2770   28.5370   39.0830 C   0  0  0  0  0  0  0  0  0  0  0  0
   34.9990   28.5570   38.5940 C   0  0  0  0  0  0  0  0  0  0  0  0
   34.6850   28.9500   37.2870 C   0  0  0  0  0  0  0  0  0  0  0  0
   35.6760   29.3260   36.4680 N   0  0  0  0  0  0  0  0  0  0  0  0
   36.9340   29.3070   36.9440 C   0  0  0  0  0  0  0  0  0  0  0  0
   37.2240   28.9250   38.2120 N   0  0  0  0  0  0  0  0  0  0  0  0
   34.1820   28.2560   39.2410 H   0  0  0  0  0  0  0  0  0  0  0  0
   33.6930   28.9680   36.9000 H   0  0  0  0  0  0  0  0  0  0  0  0
   37.8200   29.5900   36.3730 H   0  0  0  0  0  0  0  0  0  0  0  0
  1  2  1  0  0  0  0
  2  3  2  0  0  0  0
  2 22  1  0  0  0  0
  3  8  1  0  0  0  0
  4  3  1  0  0  0  0
  5  4  2  0  0  0  0
  6  1  2  0  0  0  0
  6  5  1  0  0  0  0
  7  1  1  0  0  0  0
  9  5  1  0  0  0  0
  9 10  1  0  0  0  0
  9 12  1  0  0  0  0
 11  9  1  0  0  0  0
 12 13  1  0  0  0  0
 12 15  1  0  0  0  0
 14 12  1  0  0  0  0
 15 21  1  0  0  0  0
 16 15  2  0  0  0  0
 16 18  1  0  0  0  0
 17 16  1  0  0  0  0
 18 19  1  0  0  0  0
 19 20  1  0  0  0  0
 21 19  2  0  0  0  0
 22 23  1  0  0  0  0
 23 24  1  0  0  0  0
 24 25  2  0  0  0  0
 24 29  1  0  0  0  0
 25 30  1  0  0  0  0
 26 31  1  0  0  0  0
 26 25  1  0  0  0  0
 27 26  2  0  0  0  0
 28 27  1  0  0  0  0
 28 23  2  0  0  0  0
 32 27  1  0  0  0  0
 33 28  1  0  0  0  0
 34 33  1  0  0  0  0
 34 39  1  0  0  0  0
 35 34  2  0  0  0  0
 36 37  2  0  0  0  0
 36 35  1  0  0  0  0
 37 38  1  0  0  0  0
 38 33  2  0  0  0  0
 40 35  1  0  0  0  0
 41 37  1  0  0  0  0
M  END
>  <minimizedAffinity>
-5.82324076

$$$$

 OpenBabel03242517493D

 41 44  0  0  0  0  0  0  0  0999 V2000
   37.2430   30.1500   40.4440 C   0  0  0  0  0  0  0  0  0  0  0  0
   38.4190   30.9330   40.4190 C   0  0  0  0  0  0  0  0  0  0  0  0
   39.2440   30.8910   41.5150 C   0  0  0  0  0  0  0  0  0  0  0  0
   38.8980   30.1100   42.5590 N   0  0  0  0  0  0  0  0  0  0  0  0
   37.7700   29.3680   42.5640 C   0  0  0  0  0  0  0  0  0  0  0  0
   36.9230   29.3670   41.5250 N   0  0  0  0  0  0  0  0  0  0  0  0
   36.5470   30.1330   39.6180 H   0  0  0  0  0  0  0  0  0  0  0  0
   40.1500   31.4850   41.5120 H   0  0  0  0  0  0  0  0  0  0  0  0
   37.4600   28.5340   43.7540 C   0  0  0  0  0  0  0  0  0  0  0  0
   38.3020   28.5820   44.4860 H   0  0  0  0  0  0  0  0  0  0  0  0
   36.5450   28.8760   44.2840 H   0  0  0  0  0  0  0  0  0  0  0  0
   37.3140   27.0690   43.3940 C   0  0  0  0  0  0  0  0  0  0  0  0
   36.7190   26.9770   42.4620 H   0  0  0  0  0  0  0  0  0  0  0  0
   36.8000   26.5770   44.2470 H   0  0  0  0  0  0  0  0  0  0  0  0
   38.6770   26.5080   43.2090 C   0  0  0  0  0  0  0  0  0  0  0  0
   38.9690   25.7170   42.0380 C   0  0  0  0  0  0  0  0  0  0  0  0
   38.2340   25.4850   41.2370 H   0  0  0  0  0  0  0  0  0  0  0  0
   40.7740   25.2640   42.2890 S   0  0  0  0  0  0  0  0  0  0  0  0
   40.7750   26.2350   43.9220 C   0  0  0  0  0  0  0  0  0  0  0  0
   41.5920   26.4570   44.7540 H   0  0  0  0  0  0  0  0  0  0  0  0
   39.7290   26.6430   44.0250 N   0  0  0  0  0  0  0  0  0  0  0  0
   38.7870   31.9270   39.0000 S   0  0  0  0  0  0  0  0  0  0  0  0
   39.4130   33.5060   39.5020 C   0  0  0  0  0  0  0  0  0  0  0  0
   38.6290   34.5030   40.0600 C   0  0  0  0  0  0  0  0  0  0  0  0
   39.1880   35.7180   40.4310 C   0  0  0  0  0  0  0  0  0  0  0  0
   40.5250   35.9620   40.2550 C   0  0  0  0  0  0  0  0  0  0  0  0
   41.3070   34.9710   39.7000 C   0  0  0  0  0  0  0  0  0  0  0  0
   40.7760   33.7410   39.3180 C   0  0  0  0  0  0  0  0  0  0  0  0
   37.5880   34.3260   40.2010 H   0  0  0  0  0  0  0  0  0  0  0  0
   38.6130   36.5230   40.8680 H   0  0  0  0  0  0  0  0  0  0  0  0
   41.0080   36.8860   40.5260 H   0  0  0  0  0  0  0  0  0  0  0  0
   42.3780   35.0860   39.5280 H   0  0  0  0  0  0  0  0  0  0  0  0
   41.6050   32.7150   38.7400 C   0  0  0  0  0  0  0  0  0  0  0  0
   42.2990   31.7760   39.4540 C   0  0  0  0  0  0  0  0  0  0  0  0
   43.0960   30.7930   38.8550 C   0  0  0  0  0  0  0  0  0  0  0  0
   43.1900   30.7610   37.5200 N   0  0  0  0  0  0  0  0  0  0  0  0
   42.5110   31.6810   36.8130 C   0  0  0  0  0  0  0  0  0  0  0  0
   41.7430   32.6280   37.4060 N   0  0  0  0  0  0  0  0  0  0  0  0
   42.2360   31.7860   40.5370 H   0  0  0  0  0  0  0  0  0  0  0  0
   43.6380   30.0600   39.4050 H   0  0  0  0  0  0  0  0  0  0  0  0
   42.5100   31.7560   35.7240 H   0  0  0  0  0  0  0  0  0  0  0  0
  1  6  1  0  0  0  0
  2  1  2  0  0  0  0
  2  3  1  0  0  0  0
  3  4  2  0  0  0  0
  4  5  1  0  0  0  0
  5  9  1  0  0  0  0
  6  5  2  0  0  0  0
  7  1  1  0  0  0  0
  8  3  1  0  0  0  0
  9 11  1  0  0  0  0
  9 10  1  0  0  0  0
 12  9  1  0  0  0  0
 12 14  1  0  0  0  0
 13 12  1  0  0  0  0
 15 12  1  0  0  0  0
 15 21  1  0  0  0  0
 16 18  1  0  0  0  0
 16 15  2  0  0  0  0
 17 16  1  0  0  0  0
 18 19  1  0  0  0  0
 19 21  2  0  0  0  0
 19 20  1  0  0  0  0
 22 23  1  0  0  0  0
 22  2  1  0  0  0  0
 23 24  1  0  0  0  0
 24 29  1  0  0  0  0
 24 25  2  0  0  0  0
 25 30  1  0  0  0  0
 26 25  1  0  0  0  0
 26 31  1  0  0  0  0
 27 26  2  0  0  0  0
 28 23  2  0  0  0  0
 28 27  1  0  0  0  0
 32 27  1  0  0  0  0
 33 28  1  0  0  0  0
 33 34  1  0  0  0  0
 34 39  1  0  0  0  0
 35 40  1  0  0  0  0
 35 34  2  0  0  0  0
 36 35  1  0  0  0  0
 37 38  1  0  0  0  0
 37 36  2  0  0  0  0
 38 33  2  0  0  0  0
 41 37  1  0  0  0  0
M  END
>  <minimizedAffinity>
-5.67544079

$$$$

 OpenBabel03242517493D

 41 44  0  0  0  0  0  0  0  0999 V2000
   39.2850   30.4140   42.3590 C   0  0  0  0  0  0  0  0  0  0  0  0
   39.7130   30.6530   41.0330 C   0  0  0  0  0  0  0  0  0  0  0  0
   39.0640   29.9950   40.0180 C   0  0  0  0  0  0  0  0  0  0  0  0
   38.0540   29.1570   40.3290 N   0  0  0  0  0  0  0  0  0  0  0  0
   37.6590   28.9420   41.6020 C   0  0  0  0  0  0  0  0  0  0  0  0
   38.2530   29.5520   42.6370 N   0  0  0  0  0  0  0  0  0  0  0  0
   39.7490   30.8940   43.2080 H   0  0  0  0  0  0  0  0  0  0  0  0
   39.3780   30.1680   38.9970 H   0  0  0  0  0  0  0  0  0  0  0  0
   36.5370   28.0020   41.8600 C   0  0  0  0  0  0  0  0  0  0  0  0
   35.6300   28.5660   42.1850 H   0  0  0  0  0  0  0  0  0  0  0  0
   36.2550   27.4210   40.9550 H   0  0  0  0  0  0  0  0  0  0  0  0
   36.8510   27.0450   42.9930 C   0  0  0  0  0  0  0  0  0  0  0  0
   35.9040   26.6600   43.4230 H   0  0  0  0  0  0  0  0  0  0  0  0
   37.4300   27.6200   43.7490 H   0  0  0  0  0  0  0  0  0  0  0  0
   37.6700   25.9370   42.4380 C   0  0  0  0  0  0  0  0  0  0  0  0
   37.1330   25.1140   41.3820 C   0  0  0  0  0  0  0  0  0  0  0  0
   36.1250   25.2460   40.9330 H   0  0  0  0  0  0  0  0  0  0  0  0
   38.5290   23.9000   41.0580 S   0  0  0  0  0  0  0  0  0  0  0  0
   39.5580   24.7460   42.4120 C   0  0  0  0  0  0  0  0  0  0  0  0
   40.6420   24.5680   42.8620 H   0  0  0  0  0  0  0  0  0  0  0  0
   38.9060   25.5770   42.8050 N   0  0  0  0  0  0  0  0  0  0  0  0
   41.0500   31.7720   40.7270 S   0  0  0  0  0  0  0  0  0  0  0  0
   40.4330   33.4080   40.4510 C   0  0  0  0  0  0  0  0  0  0  0  0
   39.0940   33.7510   40.5470 C   0  0  0  0  0  0  0  0  0  0  0  0
   38.6790   35.0560   40.3170 C   0  0  0  0  0  0  0  0  0  0  0  0
   39.5810   36.0350   39.9920 C   0  0  0  0  0  0  0  0  0  0  0  0
   40.9150   35.6960   39.8960 C   0  0  0  0  0  0  0  0  0  0  0  0
   41.3610   34.3960   40.1200 C   0  0  0  0  0  0  0  0  0  0  0  0
   38.3820   33.0000   40.7990 H   0  0  0  0  0  0  0  0  0  0  0  0
   37.6450   35.3670   40.3800 H   0  0  0  0  0  0  0  0  0  0  0  0
   39.3130   37.0610   39.8040 H   0  0  0  0  0  0  0  0  0  0  0  0
   41.6940   36.4150   39.6430 H   0  0  0  0  0  0  0  0  0  0  0  0
   42.7570   34.0560   40.0170 C   0  0  0  0  0  0  0  0  0  0  0  0
   43.3830   33.6690   38.8630 C   0  0  0  0  0  0  0  0  0  0  0  0
   44.7440   33.3460   38.8010 C   0  0  0  0  0  0  0  0  0  0  0  0
   45.4770   33.4140   39.9200 N   0  0  0  0  0  0  0  0  0  0  0  0
   44.8670   33.7930   41.0560 C   0  0  0  0  0  0  0  0  0  0  0  0
   43.5480   34.1040   41.1020 N   0  0  0  0  0  0  0  0  0  0  0  0
   42.8060   33.6070   37.9460 H   0  0  0  0  0  0  0  0  0  0  0  0
   45.2370   33.0440   37.9060 H   0  0  0  0  0  0  0  0  0  0  0  0
   45.3580   33.8850   42.0270 H   0  0  0  0  0  0  0  0  0  0  0  0
  1  6  1  0  0  0  0
  1  7  1  0  0  0  0
  2  1  2  0  0  0  0
  3  4  2  0  0  0  0
  3  2  1  0  0  0  0
  4  5  1  0  0  0  0
  5  9  1  0  0  0  0
  5  6  2  0  0  0  0
  8  3  1  0  0  0  0
  9 10  1  0  0  0  0
  9 12  1  0  0  0  0
 11  9  1  0  0  0  0
 12 13  1  0  0  0  0
 12 14  1  0  0  0  0
 15 21  1  0  0  0  0
 15 12  1  0  0  0  0
 16 15  2  0  0  0  0
 17 16  1  0  0  0  0
 18 16  1  0  0  0  0
 18 19  1  0  0  0  0
 19 21  2  0  0  0  0
 19 20  1  0  0  0  0
 22  2  1  0  0  0  0
 23 24  1  0  0  0  0
 23 22  1  0  0  0  0
 24 29  1  0  0  0  0
 25 30  1  0  0  0  0
 25 24  2  0  0  0  0
 26 25  1  0  0  0  0
 27 26  2  0  0  0  0
 27 28  1  0  0  0  0
 28 23  2  0  0  0  0
 31 26  1  0  0  0  0
 32 27  1  0  0  0  0
 33 28  1  0  0  0  0
 33 38  1  0  0  0  0
 34 33  2  0  0  0  0
 35 34  1  0  0  0  0
 35 36  2  0  0  0  0
 36 37  1  0  0  0  0
 37 38  2  0  0  0  0
 37 41  1  0  0  0  0
 39 34  1  0  0  0  0
 40 35  1  0  0  0  0
M  END
>  <minimizedAffinity>
-5.67383862

$$$$

 OpenBabel03242517493D

 41 44  0  0  0  0  0  0  0  0999 V2000
   39.7940   29.4090   40.3580 C   0  0  0  0  0  0  0  0  0  0  0  0
   40.3330   30.6290   40.8240 C   0  0  0  0  0  0  0  0  0  0  0  0
   40.2530   30.8980   42.1680 C   0  0  0  0  0  0  0  0  0  0  0  0
   39.6690   29.9910   42.9770 N   0  0  0  0  0  0  0  0  0  0  0  0
   39.1590   28.8300   42.5140 C   0  0  0  0  0  0  0  0  0  0  0  0
   39.2050   28.5090   41.2130 N   0  0  0  0  0  0  0  0  0  0  0  0
   39.8200   29.1300   39.3150 H   0  0  0  0  0  0  0  0  0  0  0  0
   40.6620   31.8280   42.5410 H   0  0  0  0  0  0  0  0  0  0  0  0
   38.5310   27.8840   43.4730 C   0  0  0  0  0  0  0  0  0  0  0  0
   38.4860   28.3420   44.4900 H   0  0  0  0  0  0  0  0  0  0  0  0
   37.4890   27.6210   43.1860 H   0  0  0  0  0  0  0  0  0  0  0  0
   39.3450   26.6160   43.6300 C   0  0  0  0  0  0  0  0  0  0  0  0
   39.2960   26.2750   44.6840 H   0  0  0  0  0  0  0  0  0  0  0  0
   40.3890   26.8640   43.3370 H   0  0  0  0  0  0  0  0  0  0  0  0
   38.7750   25.5930   42.7160 C   0  0  0  0  0  0  0  0  0  0  0  0
   39.6520   24.6490   42.0670 C   0  0  0  0  0  0  0  0  0  0  0  0
   40.7550   24.6220   42.2000 H   0  0  0  0  0  0  0  0  0  0  0  0
   38.4600   23.6130   41.0510 S   0  0  0  0  0  0  0  0  0  0  0  0
   37.0160   24.6600   41.7050 C   0  0  0  0  0  0  0  0  0  0  0  0
   35.8420   24.6520   41.5330 H   0  0  0  0  0  0  0  0  0  0  0  0
   37.4880   25.4190   42.3920 N   0  0  0  0  0  0  0  0  0  0  0  0
   41.0810   31.7560   39.6810 S   0  0  0  0  0  0  0  0  0  0  0  0
   40.5810   33.4160   40.0370 C   0  0  0  0  0  0  0  0  0  0  0  0
   41.4570   34.4180   40.4240 C   0  0  0  0  0  0  0  0  0  0  0  0
   40.9950   35.7000   40.6870 C   0  0  0  0  0  0  0  0  0  0  0  0
   39.6640   36.0070   40.5700 C   0  0  0  0  0  0  0  0  0  0  0  0
   38.7900   35.0110   40.1850 C   0  0  0  0  0  0  0  0  0  0  0  0
   39.2240   33.7160   39.9140 C   0  0  0  0  0  0  0  0  0  0  0  0
   42.4940   34.1920   40.5180 H   0  0  0  0  0  0  0  0  0  0  0  0
   41.6430   36.5100   40.9920 H   0  0  0  0  0  0  0  0  0  0  0  0
   39.2540   36.9840   40.7630 H   0  0  0  0  0  0  0  0  0  0  0  0
   37.7190   35.1740   40.0690 H   0  0  0  0  0  0  0  0  0  0  0  0
   38.3000   32.6860   39.5130 C   0  0  0  0  0  0  0  0  0  0  0  0
   38.2260   32.1500   38.2550 C   0  0  0  0  0  0  0  0  0  0  0  0
   37.3130   31.1490   37.9020 C   0  0  0  0  0  0  0  0  0  0  0  0
   36.4670   30.6870   38.8320 N   0  0  0  0  0  0  0  0  0  0  0  0
   36.5360   31.2100   40.0690 C   0  0  0  0  0  0  0  0  0  0  0  0
   37.4250   32.1800   40.3970 N   0  0  0  0  0  0  0  0  0  0  0  0
   38.9030   32.5120   37.4880 H   0  0  0  0  0  0  0  0  0  0  0  0
   37.2500   30.7280   36.9260 H   0  0  0  0  0  0  0  0  0  0  0  0
   35.9010   30.9160   40.9060 H   0  0  0  0  0  0  0  0  0  0  0  0
  1  2  2  0  0  0  0
  1  6  1  0  0  0  0
  2  3  1  0  0  0  0
  3  8  1  0  0  0  0
  3  4  2  0  0  0  0
  5  4  1  0  0  0  0
  5  9  1  0  0  0  0
  6  5  2  0  0  0  0
  7  1  1  0  0  0  0
  9 12  1  0  0  0  0
  9 10  1  0  0  0  0
 11  9  1  0  0  0  0
 12 13  1  0  0  0  0
 14 12  1  0  0  0  0
 15 12  1  0  0  0  0
 16 17  1  0  0  0  0
 16 15  2  0  0  0  0
 18 19  1  0  0  0  0
 18 16  1  0  0  0  0
 19 21  2  0  0  0  0
 20 19  1  0  0  0  0
 21 15  1  0  0  0  0
 22 23  1  0  0  0  0
 22  2  1  0  0  0  0
 23 24  1  0  0  0  0
 24 29  1  0  0  0  0
 24 25  2  0  0  0  0
 25 30  1  0  0  0  0
 26 25  1  0  0  0  0
 26 31  1  0  0  0  0
 27 26  2  0  0  0  0
 28 23  2  0  0  0  0
 28 27  1  0  0  0  0
 32 27  1  0  0  0  0
 33 28  1  0  0  0  0
 33 38  1  0  0  0  0
 34 33  2  0  0  0  0
 35 34  1  0  0  0  0
 35 36  2  0  0  0  0
 36 37  1  0  0  0  0
 37 38  2  0  0  0  0
 37 41  1  0  0  0  0
 39 34  1  0  0  0  0
 40 35  1  0  0  0  0
M  END
>  <minimizedAffinity>
-5.65354872

$$$$
