
 OpenBabel03252509063D

 46 48  0  0  1  0  0  0  0  0999 V2000
   38.8180   28.6060   42.0270 N   0  0  0  0  0  0  0  0  0  0  0  0
   39.0860   27.8240   43.1670 C   0  0  0  0  0  0  0  0  0  0  0  0
   37.8860   27.5690   44.0550 C   0  0  0  0  0  0  0  0  0  0  0  0
   36.5980   27.3940   43.2870 C   0  0  0  0  0  0  0  0  0  0  0  0
   36.8050   27.4880   41.7930 C   0  0  0  0  0  0  0  0  0  0  0  0
   37.5330   28.8720   41.6100 C   0  0  2  0  0  0  0  0  0  0  0  0
   39.9000   28.1540   43.8100 H   0  0  0  0  0  0  0  0  0  0  0  0
   39.3960   26.8010   42.7990 H   0  0  0  0  0  0  0  0  0  0  0  0
   38.0870   26.7440   44.7530 H   0  0  0  0  0  0  0  0  0  0  0  0
   37.7710   28.4860   44.6790 H   0  0  0  0  0  0  0  0  0  0  0  0
   35.7980   28.0760   43.5670 H   0  0  0  0  0  0  0  0  0  0  0  0
   36.2540   26.3500   43.4810 H   0  0  0  0  0  0  0  0  0  0  0  0
   37.4710   26.6930   41.4380 H   0  0  0  0  0  0  0  0  0  0  0  0
   35.8240   27.5330   41.3070 H   0  0  0  0  0  0  0  0  0  0  0  0
   36.9240   29.5670   42.2050 H   0  0  0  0  0  0  0  0  0  0  0  0
   39.8520   29.5630   41.7100 C   0  0  0  0  0  0  0  0  0  0  0  0
   39.9070   29.7030   40.6310 H   0  0  0  0  0  0  0  0  0  0  0  0
   40.8230   29.1240   42.0360 H   0  0  0  0  0  0  0  0  0  0  0  0
   39.5600   30.8370   42.4140 C   0  0  0  0  0  0  0  0  0  0  0  0
   38.5730   30.8130   42.8900 H   0  0  0  0  0  0  0  0  0  0  0  0
   40.2990   31.0380   43.2310 H   0  0  0  0  0  0  0  0  0  0  0  0
   40.9170   33.2830   39.9120 C   0  0  0  0  0  0  0  0  0  0  0  0
   40.8190   32.2210   40.8170 C   0  0  0  0  0  0  0  0  0  0  0  0
   39.6430   31.9700   41.4550 C   0  0  0  0  0  0  0  0  0  0  0  0
   38.6050   32.7720   41.1840 N   0  0  0  0  0  0  0  0  0  0  0  0
   38.6880   33.7950   40.3150 C   0  0  0  0  0  0  0  0  0  0  0  0
   39.8320   34.0660   39.6720 N   0  0  0  0  0  0  0  0  0  0  0  0
   41.8120   33.5260   39.3840 H   0  0  0  0  0  0  0  0  0  0  0  0
   41.7230   31.6410   40.9570 H   0  0  0  0  0  0  0  0  0  0  0  0
   37.7670   34.3350   40.2130 H   0  0  0  0  0  0  0  0  0  0  0  0
   37.4390   29.0670   40.2460 O   0  0  0  0  0  0  0  0  0  0  0  0
   36.7250   31.2110   38.8520 O   0  0  0  0  0  0  0  0  0  0  0  0
   36.2100   30.1100   39.8060 P   0  0  2  0  0  0  0  0  0  0  0  0
   35.7710   30.9670   41.2230 O   0  0  0  0  0  0  0  0  0  0  0  0
   34.8240   30.8030   41.4530 H   0  0  0  0  0  0  0  0  0  0  0  0
   34.8650   29.3530   39.2010 O   0  0  0  0  0  0  0  0  0  0  0  0
   35.2390   28.1850   38.5580 C   0  0  0  0  0  0  0  0  0  0  0  0
   36.0720   27.6850   39.0650 H   0  0  0  0  0  0  0  0  0  0  0  0
   34.3790   27.4630   38.5400 H   0  0  0  0  0  0  0  0  0  0  0  0
   35.6530   28.4490   37.1320 C   0  0  0  0  0  0  0  0  0  0  0  0
   34.7150   29.0620   36.2060 C   0  0  0  0  0  0  0  0  0  0  0  0
   33.7080   29.3470   36.4840 H   0  0  0  0  0  0  0  0  0  0  0  0
   35.7270   29.1400   34.6810 S   0  0  0  0  0  0  0  0  0  0  0  0
   37.2100   28.3520   35.5260 C   0  0  0  0  0  0  0  0  0  0  0  0
   38.1810   28.1260   35.0880 H   0  0  0  0  0  0  0  0  0  0  0  0
   36.8460   28.1530   36.6580 N   0  0  0  0  0  0  0  0  0  0  0  0
  1  2  1  0  0  0  0
  2  7  1  0  0  0  0
  2  3  1  0  0  0  0
  3 10  1  0  0  0  0
  3  9  1  0  0  0  0
  4 12  1  0  0  0  0
  4 11  1  0  0  0  0
  4  3  1  0  0  0  0
  5  4  1  0  0  0  0
  6  5  1  0  0  0  0
  6  1  1  0  0  0  0
  6 15  1  1  0  0  0
  8  2  1  0  0  0  0
 13  5  1  0  0  0  0
 14  5  1  0  0  0  0
 16  1  1  0  0  0  0
 16 18  1  0  0  0  0
 16 19  1  0  0  0  0
 17 16  1  0  0  0  0
 19 20  1  0  0  0  0
 19 21  1  0  0  0  0
 22 23  1  0  0  0  0
 23 29  1  0  0  0  0
 23 24  2  0  0  0  0
 24 19  1  0  0  0  0
 25 24  1  0  0  0  0
 26 25  2  0  0  0  0
 27 22  2  0  0  0  0
 27 26  1  0  0  0  0
 28 22  1  0  0  0  0
 30 26  1  0  0  0  0
 31  6  1  0  0  0  0
 33 32  2  6  0  0  0
 33 31  1  0  0  0  0
 33 34  1  0  0  0  0
 34 35  1  0  0  0  0
 36 33  1  0  0  0  0
 37 38  1  0  0  0  0
 37 36  1  0  0  0  0
 39 37  1  0  0  0  0
 40 37  1  0  0  0  0
 41 42  1  0  0  0  0
 41 40  2  0  0  0  0
 43 44  1  0  0  0  0
 43 41  1  0  0  0  0
 44 46  2  0  0  0  0
 45 44  1  0  0  0  0
 46 40  1  0  0  0  0
M  END
>  <minimizedAffinity>
-5.1908865

$$$$

 OpenBabel03252509063D

 46 48  0  0  1  0  0  0  0  0999 V2000
   38.0540   27.7550   42.9600 N   0  0  0  0  0  0  0  0  0  0  0  0
   39.2070   27.2140   43.5620 C   0  0  0  0  0  0  0  0  0  0  0  0
   40.5150   27.7040   42.9770 C   0  0  0  0  0  0  0  0  0  0  0  0
   40.4770   29.1520   42.5520 C   0  0  0  0  0  0  0  0  0  0  0  0
   39.1390   29.7960   42.8330 C   0  0  0  0  0  0  0  0  0  0  0  0
   38.1140   28.8400   42.1150 C   0  0  2  0  0  0  0  0  0  0  0  0
   39.2660   26.1280   43.6230 H   0  0  0  0  0  0  0  0  0  0  0  0
   39.2180   27.5710   44.6340 H   0  0  0  0  0  0  0  0  0  0  0  0
   41.3530   27.4740   43.6510 H   0  0  0  0  0  0  0  0  0  0  0  0
   40.6800   27.0980   42.0550 H   0  0  0  0  0  0  0  0  0  0  0  0
   40.7340   29.3340   41.5110 H   0  0  0  0  0  0  0  0  0  0  0  0
   41.2140   29.6890   43.1950 H   0  0  0  0  0  0  0  0  0  0  0  0
   38.9220   29.7970   43.9080 H   0  0  0  0  0  0  0  0  0  0  0  0
   39.1160   30.7770   42.3470 H   0  0  0  0  0  0  0  0  0  0  0  0
   38.5460   28.7010   41.1140 H   0  0  0  0  0  0  0  0  0  0  0  0
   36.9800   26.8070   42.7810 C   0  0  0  0  0  0  0  0  0  0  0  0
   36.2200   27.2310   42.1250 H   0  0  0  0  0  0  0  0  0  0  0  0
   36.5050   26.6510   43.7780 H   0  0  0  0  0  0  0  0  0  0  0  0
   37.5370   25.5460   42.2320 C   0  0  0  0  0  0  0  0  0  0  0  0
   38.6250   25.6090   42.1130 H   0  0  0  0  0  0  0  0  0  0  0  0
   37.3450   24.6770   42.9130 H   0  0  0  0  0  0  0  0  0  0  0  0
   35.8290   23.6650   39.4710 C   0  0  0  0  0  0  0  0  0  0  0  0
   36.4390   23.9760   40.6900 C   0  0  0  0  0  0  0  0  0  0  0  0
   36.8910   25.2370   40.9300 C   0  0  0  0  0  0  0  0  0  0  0  0
   36.7290   26.1500   39.9630 N   0  0  0  0  0  0  0  0  0  0  0  0
   36.1430   25.8630   38.7870 C   0  0  0  0  0  0  0  0  0  0  0  0
   35.6880   24.6300   38.5230 N   0  0  0  0  0  0  0  0  0  0  0  0
   35.4560   22.6960   39.2280 H   0  0  0  0  0  0  0  0  0  0  0  0
   36.5150   23.1570   41.3960 H   0  0  0  0  0  0  0  0  0  0  0  0
   36.0930   26.7060   38.1260 H   0  0  0  0  0  0  0  0  0  0  0  0
   36.9590   29.5980   42.1290 O   0  0  0  0  0  0  0  0  0  0  0  0
   34.9860   29.1920   40.4000 O   0  0  0  0  0  0  0  0  0  0  0  0
   36.3440   29.9010   40.6060 P   0  0  2  0  0  0  0  0  0  0  0  0
   37.3890   29.1180   39.4960 O   0  0  0  0  0  0  0  0  0  0  0  0
   37.7950   29.7710   38.8760 H   0  0  0  0  0  0  0  0  0  0  0  0
   36.2610   31.5110   40.2170 O   0  0  0  0  0  0  0  0  0  0  0  0
   37.1530   31.7880   39.1960 C   0  0  0  0  0  0  0  0  0  0  0  0
   37.6150   30.8790   38.7940 H   0  0  0  0  0  0  0  0  0  0  0  0
   36.6200   32.2930   38.3460 H   0  0  0  0  0  0  0  0  0  0  0  0
   38.2570   32.7060   39.6600 C   0  0  0  0  0  0  0  0  0  0  0  0
   39.6220   32.2140   39.7410 C   0  0  0  0  0  0  0  0  0  0  0  0
   39.9040   31.2010   39.4850 H   0  0  0  0  0  0  0  0  0  0  0  0
   40.4990   33.7080   40.3370 S   0  0  0  0  0  0  0  0  0  0  0  0
   38.9160   34.7220   40.3760 C   0  0  0  0  0  0  0  0  0  0  0  0
   38.8020   35.7640   40.6700 H   0  0  0  0  0  0  0  0  0  0  0  0
   38.0570   33.9620   40.0040 N   0  0  0  0  0  0  0  0  0  0  0  0
  1  2  1  0  0  0  0
  2  7  1  0  0  0  0
  2  8  1  0  0  0  0
  3  2  1  0  0  0  0
  3  9  1  0  0  0  0
  4  5  1  0  0  0  0
  4  3  1  0  0  0  0
  4 12  1  0  0  0  0
  5 13  1  0  0  0  0
  6 15  1  6  0  0  0
  6 31  1  0  0  0  0
  6  5  1  0  0  0  0
  6  1  1  0  0  0  0
 10  3  1  0  0  0  0
 11  4  1  0  0  0  0
 14  5  1  0  0  0  0
 16  1  1  0  0  0  0
 16 18  1  0  0  0  0
 17 16  1  0  0  0  0
 19 16  1  0  0  0  0
 19 21  1  0  0  0  0
 20 19  1  0  0  0  0
 22 23  1  0  0  0  0
 23 24  2  0  0  0  0
 23 29  1  0  0  0  0
 24 19  1  0  0  0  0
 25 24  1  0  0  0  0
 26 25  2  0  0  0  0
 27 26  1  0  0  0  0
 27 22  2  0  0  0  0
 28 22  1  0  0  0  0
 30 26  1  0  0  0  0
 33 32  2  6  0  0  0
 33 31  1  0  0  0  0
 34 33  1  0  0  0  0
 35 34  1  0  0  0  0
 36 33  1  0  0  0  0
 37 40  1  0  0  0  0
 37 36  1  0  0  0  0
 38 37  1  0  0  0  0
 39 37  1  0  0  0  0
 40 41  2  0  0  0  0
 40 46  1  0  0  0  0
 41 43  1  0  0  0  0
 42 41  1  0  0  0  0
 43 44  1  0  0  0  0
 44 45  1  0  0  0  0
 46 44  2  0  0  0  0
M  END
>  <minimizedAffinity>
-5.11985922

$$$$

 OpenBabel03252509063D

 46 48  0  0  1  0  0  0  0  0999 V2000
   37.2750   29.0260   42.2590 N   0  0  0  0  0  0  0  0  0  0  0  0
   36.4290   27.9010   42.2240 C   0  0  0  0  0  0  0  0  0  0  0  0
   37.1310   26.5900   41.9400 C   0  0  0  0  0  0  0  0  0  0  0  0
   38.5050   26.4980   42.5580 C   0  0  0  0  0  0  0  0  0  0  0  0
   38.8610   27.7370   43.3480 C   0  0  0  0  0  0  0  0  0  0  0  0
   38.6460   28.9050   42.3140 C   0  0  2  0  0  0  0  0  0  0  0  0
   35.5650   27.9560   41.5630 H   0  0  0  0  0  0  0  0  0  0  0  0
   35.9990   27.7800   43.2620 H   0  0  0  0  0  0  0  0  0  0  0  0
   36.4850   25.7380   42.1980 H   0  0  0  0  0  0  0  0  0  0  0  0
   37.2680   26.5530   40.8340 H   0  0  0  0  0  0  0  0  0  0  0  0
   39.3120   26.2940   41.8580 H   0  0  0  0  0  0  0  0  0  0  0  0
   38.4640   25.6660   43.3000 H   0  0  0  0  0  0  0  0  0  0  0  0
   38.1680   27.8800   44.1860 H   0  0  0  0  0  0  0  0  0  0  0  0
   39.9210   27.6860   43.6160 H   0  0  0  0  0  0  0  0  0  0  0  0
   39.1770   28.5590   41.4160 H   0  0  0  0  0  0  0  0  0  0  0  0
   36.7170   30.2060   41.6440 C   0  0  0  0  0  0  0  0  0  0  0  0
   37.5180   30.8890   41.3610 H   0  0  0  0  0  0  0  0  0  0  0  0
   36.1000   30.7230   42.4150 H   0  0  0  0  0  0  0  0  0  0  0  0
   35.9050   29.7980   40.4700 C   0  0  0  0  0  0  0  0  0  0  0  0
   35.8310   28.7070   40.3950 H   0  0  0  0  0  0  0  0  0  0  0  0
   34.8530   30.1800   40.5410 H   0  0  0  0  0  0  0  0  0  0  0  0
   37.0750   30.1220   36.9200 C   0  0  0  0  0  0  0  0  0  0  0  0
   36.5220   29.6080   38.0980 C   0  0  0  0  0  0  0  0  0  0  0  0
   36.4960   30.3630   39.2290 C   0  0  0  0  0  0  0  0  0  0  0  0
   37.0150   31.5970   39.1660 N   0  0  0  0  0  0  0  0  0  0  0  0
   37.5480   32.1010   38.0400 C   0  0  0  0  0  0  0  0  0  0  0  0
   37.5870   31.3810   36.9090 N   0  0  0  0  0  0  0  0  0  0  0  0
   37.1220   29.5770   36.0040 H   0  0  0  0  0  0  0  0  0  0  0  0
   36.1330   28.5990   38.0290 H   0  0  0  0  0  0  0  0  0  0  0  0
   37.9180   33.1010   38.1610 H   0  0  0  0  0  0  0  0  0  0  0  0
   39.2550   29.9680   42.9530 O   0  0  0  0  0  0  0  0  0  0  0  0
   41.6020   29.5650   41.7800 O   0  0  0  0  0  0  0  0  0  0  0  0
   40.5230   30.6270   42.0880 P   0  0  2  0  0  0  0  0  0  0  0  0
   41.3120   31.7230   43.1420 O   0  0  0  0  0  0  0  0  0  0  0  0
   41.2890   32.6400   42.7770 H   0  0  0  0  0  0  0  0  0  0  0  0
   40.0560   31.4430   40.7210 O   0  0  0  0  0  0  0  0  0  0  0  0
   40.5460   32.7370   40.7630 C   0  0  0  0  0  0  0  0  0  0  0  0
   39.7540   33.4710   40.9560 H   0  0  0  0  0  0  0  0  0  0  0  0
   41.3000   32.8370   41.5900 H   0  0  0  0  0  0  0  0  0  0  0  0
   41.2240   33.1140   39.4700 C   0  0  0  0  0  0  0  0  0  0  0  0
   42.0530   34.3050   39.4060 C   0  0  0  0  0  0  0  0  0  0  0  0
   42.2160   34.9600   40.2520 H   0  0  0  0  0  0  0  0  0  0  0  0
   42.6000   34.2600   37.6580 S   0  0  0  0  0  0  0  0  0  0  0  0
   41.6420   32.6790   37.3140 C   0  0  0  0  0  0  0  0  0  0  0  0
   41.5810   32.1310   36.3740 H   0  0  0  0  0  0  0  0  0  0  0  0
   41.1120   32.4080   38.3620 N   0  0  0  0  0  0  0  0  0  0  0  0
  1  6  1  0  0  0  0
  2  1  1  0  0  0  0
  2  8  1  0  0  0  0
  3  9  1  0  0  0  0
  3  2  1  0  0  0  0
  3  4  1  0  0  0  0
  4 12  1  0  0  0  0
  4  5  1  0  0  0  0
  5 14  1  0  0  0  0
  5 13  1  0  0  0  0
  6 15  1  6  0  0  0
  6 31  1  0  0  0  0
  6  5  1  0  0  0  0
  7  2  1  0  0  0  0
 10  3  1  0  0  0  0
 11  4  1  0  0  0  0
 16  1  1  0  0  0  0
 16 18  1  0  0  0  0
 17 16  1  0  0  0  0
 19 21  1  0  0  0  0
 19 16  1  0  0  0  0
 20 19  1  0  0  0  0
 22 23  1  0  0  0  0
 23 24  2  0  0  0  0
 24 19  1  0  0  0  0
 25 24  1  0  0  0  0
 26 30  1  0  0  0  0
 26 25  2  0  0  0  0
 27 22  2  0  0  0  0
 27 26  1  0  0  0  0
 28 22  1  0  0  0  0
 29 23  1  0  0  0  0
 33 32  2  6  0  0  0
 33 31  1  0  0  0  0
 33 34  1  0  0  0  0
 35 34  1  0  0  0  0
 36 37  1  0  0  0  0
 36 33  1  0  0  0  0
 37 38  1  0  0  0  0
 37 39  1  0  0  0  0
 40 37  1  0  0  0  0
 41 40  2  0  0  0  0
 41 42  1  0  0  0  0
 43 41  1  0  0  0  0
 44 43  1  0  0  0  0
 44 46  2  0  0  0  0
 45 44  1  0  0  0  0
 46 40  1  0  0  0  0
M  END
>  <minimizedAffinity>
-5.10329199

$$$$

 OpenBabel03252509063D

 46 48  0  0  1  0  0  0  0  0999 V2000
   37.1240   26.6040   41.7100 N   0  0  0  0  0  0  0  0  0  0  0  0
   37.1960   25.2220   41.9710 C   0  0  0  0  0  0  0  0  0  0  0  0
   36.4810   24.3500   40.9610 C   0  0  0  0  0  0  0  0  0  0  0  0
   36.5720   24.8710   39.5470 C   0  0  0  0  0  0  0  0  0  0  0  0
   37.3860   26.1420   39.4570 C   0  0  0  0  0  0  0  0  0  0  0  0
   36.6910   27.0970   40.5000 C   0  0  2  0  0  0  0  0  0  0  0  0
   36.8840   24.8920   42.9610 H   0  0  0  0  0  0  0  0  0  0  0  0
   38.2830   24.9270   41.8900 H   0  0  0  0  0  0  0  0  0  0  0  0
   36.8000   23.3030   41.0550 H   0  0  0  0  0  0  0  0  0  0  0  0
   35.4030   24.3760   41.2480 H   0  0  0  0  0  0  0  0  0  0  0  0
   35.6180   25.0400   39.0540 H   0  0  0  0  0  0  0  0  0  0  0  0
   37.1390   24.1070   38.9640 H   0  0  0  0  0  0  0  0  0  0  0  0
   38.4210   25.9690   39.7770 H   0  0  0  0  0  0  0  0  0  0  0  0
   37.2670   26.5620   38.4520 H   0  0  0  0  0  0  0  0  0  0  0  0
   35.6230   27.0160   40.2540 H   0  0  0  0  0  0  0  0  0  0  0  0
   36.9360   27.4200   42.8870 C   0  0  0  0  0  0  0  0  0  0  0  0
   36.1120   27.0250   43.4810 H   0  0  0  0  0  0  0  0  0  0  0  0
   36.6350   28.4370   42.5410 H   0  0  0  0  0  0  0  0  0  0  0  0
   38.2030   27.4520   43.6580 C   0  0  0  0  0  0  0  0  0  0  0  0
   38.0160   27.6030   44.7270 H   0  0  0  0  0  0  0  0  0  0  0  0
   38.7670   26.4870   43.5700 H   0  0  0  0  0  0  0  0  0  0  0  0
   41.2410   29.2550   42.3900 C   0  0  0  0  0  0  0  0  0  0  0  0
   40.3950   28.2570   42.8860 C   0  0  0  0  0  0  0  0  0  0  0  0
   39.0840   28.5270   43.1300 C   0  0  0  0  0  0  0  0  0  0  0  0
   38.6480   29.7690   42.8800 N   0  0  0  0  0  0  0  0  0  0  0  0
   39.4510   30.7360   42.4030 C   0  0  0  0  0  0  0  0  0  0  0  0
   40.7470   30.4990   42.1520 N   0  0  0  0  0  0  0  0  0  0  0  0
   42.2750   29.1010   42.1800 H   0  0  0  0  0  0  0  0  0  0  0  0
   40.8590   27.2910   43.0500 H   0  0  0  0  0  0  0  0  0  0  0  0
   38.9440   31.6700   42.2580 H   0  0  0  0  0  0  0  0  0  0  0  0
   37.2510   28.3200   40.1840 O   0  0  0  0  0  0  0  0  0  0  0  0
   34.7220   29.1170   40.3240 O   0  0  0  0  0  0  0  0  0  0  0  0
   36.1220   29.4840   39.7810 P   0  0  2  0  0  0  0  0  0  0  0  0
   35.9360   29.4100   38.0800 O   0  0  0  0  0  0  0  0  0  0  0  0
   36.1820   30.2710   37.6620 H   0  0  0  0  0  0  0  0  0  0  0  0
   36.5600   31.0260   40.2050 O   0  0  0  0  0  0  0  0  0  0  0  0
   37.0050   31.7060   39.0840 C   0  0  0  0  0  0  0  0  0  0  0  0
   37.3850   31.0260   38.3130 H   0  0  0  0  0  0  0  0  0  0  0  0
   36.1600   32.2880   38.6260 H   0  0  0  0  0  0  0  0  0  0  0  0
   38.1040   32.6800   39.4290 C   0  0  0  0  0  0  0  0  0  0  0  0
   39.4810   32.3720   39.0810 C   0  0  0  0  0  0  0  0  0  0  0  0
   39.7760   31.4600   38.5780 H   0  0  0  0  0  0  0  0  0  0  0  0
   40.3450   33.8570   39.7150 S   0  0  0  0  0  0  0  0  0  0  0  0
   38.7430   34.6280   40.3290 C   0  0  0  0  0  0  0  0  0  0  0  0
   38.6170   35.5850   40.8330 H   0  0  0  0  0  0  0  0  0  0  0  0
   37.8890   33.8270   40.0410 N   0  0  0  0  0  0  0  0  0  0  0  0
  1  2  1  0  0  0  0
  1 16  1  0  0  0  0
  2  7  1  0  0  0  0
  3  9  1  0  0  0  0
  3 10  1  0  0  0  0
  3  2  1  0  0  0  0
  4  3  1  0  0  0  0
  5  4  1  0  0  0  0
  5 13  1  0  0  0  0
  5  6  1  0  0  0  0
  6 15  1  6  0  0  0
  6  1  1  0  0  0  0
  8  2  1  0  0  0  0
 11  4  1  0  0  0  0
 12  4  1  0  0  0  0
 14  5  1  0  0  0  0
 16 17  1  0  0  0  0
 16 19  1  0  0  0  0
 18 16  1  0  0  0  0
 19 20  1  0  0  0  0
 21 19  1  0  0  0  0
 22 23  1  0  0  0  0
 23 29  1  0  0  0  0
 23 24  2  0  0  0  0
 24 19  1  0  0  0  0
 25 24  1  0  0  0  0
 26 25  2  0  0  0  0
 27 22  2  0  0  0  0
 27 26  1  0  0  0  0
 28 22  1  0  0  0  0
 30 26  1  0  0  0  0
 31  6  1  0  0  0  0
 33 31  1  0  0  0  0
 33 36  1  0  0  0  0
 33 32  2  1  0  0  0
 34 33  1  0  0  0  0
 35 34  1  0  0  0  0
 37 40  1  0  0  0  0
 37 36  1  0  0  0  0
 38 37  1  0  0  0  0
 39 37  1  0  0  0  0
 40 46  1  0  0  0  0
 41 40  2  0  0  0  0
 41 43  1  0  0  0  0
 42 41  1  0  0  0  0
 43 44  1  0  0  0  0
 44 45  1  0  0  0  0
 46 44  2  0  0  0  0
M  END
>  <minimizedAffinity>
-5.0915761

$$$$

 OpenBabel03252509063D

 46 48  0  0  1  0  0  0  0  0999 V2000
   36.6840   26.2510   40.4050 N   0  0  0  0  0  0  0  0  0  0  0  0
   37.1720   24.9580   40.6780 C   0  0  0  0  0  0  0  0  0  0  0  0
   38.4250   24.9220   41.5270 C   0  0  0  0  0  0  0  0  0  0  0  0
   38.4650   25.9980   42.5850 C   0  0  0  0  0  0  0  0  0  0  0  0
   37.2220   26.8580   42.5730 C   0  0  0  0  0  0  0  0  0  0  0  0
   37.1380   27.3600   41.0830 C   0  0  2  0  0  0  0  0  0  0  0  0
   37.3410   24.3060   39.8230 H   0  0  0  0  0  0  0  0  0  0  0  0
   36.3870   24.4340   41.2990 H   0  0  0  0  0  0  0  0  0  0  0  0
   38.5920   23.9130   41.9320 H   0  0  0  0  0  0  0  0  0  0  0  0
   39.2700   25.1220   40.8280 H   0  0  0  0  0  0  0  0  0  0  0  0
   39.3340   26.6500   42.5480 H   0  0  0  0  0  0  0  0  0  0  0  0
   38.4600   25.4730   43.5700 H   0  0  0  0  0  0  0  0  0  0  0  0
   36.3280   26.2600   42.7910 H   0  0  0  0  0  0  0  0  0  0  0  0
   37.3860   27.7180   43.2320 H   0  0  0  0  0  0  0  0  0  0  0  0
   38.1540   27.7220   40.8730 H   0  0  0  0  0  0  0  0  0  0  0  0
   36.1930   26.4260   39.0590 C   0  0  0  0  0  0  0  0  0  0  0  0
   35.3480   27.1140   39.0610 H   0  0  0  0  0  0  0  0  0  0  0  0
   35.8120   25.4370   38.7120 H   0  0  0  0  0  0  0  0  0  0  0  0
   37.3000   26.9200   38.2030 C   0  0  0  0  0  0  0  0  0  0  0  0
   38.0320   27.4920   38.7870 H   0  0  0  0  0  0  0  0  0  0  0  0
   37.8660   26.0760   37.7290 H   0  0  0  0  0  0  0  0  0  0  0  0
   34.9670   29.0690   36.1980 C   0  0  0  0  0  0  0  0  0  0  0  0
   35.5020   28.2810   37.2230 C   0  0  0  0  0  0  0  0  0  0  0  0
   36.7510   27.7550   37.1030 C   0  0  0  0  0  0  0  0  0  0  0  0
   37.4320   28.0200   35.9800 N   0  0  0  0  0  0  0  0  0  0  0  0
   36.9280   28.7760   34.9890 C   0  0  0  0  0  0  0  0  0  0  0  0
   35.7010   29.3080   35.0800 N   0  0  0  0  0  0  0  0  0  0  0  0
   33.9950   29.5070   36.2380 H   0  0  0  0  0  0  0  0  0  0  0  0
   34.8590   28.1360   38.0830 H   0  0  0  0  0  0  0  0  0  0  0  0
   37.6030   28.8890   34.1630 H   0  0  0  0  0  0  0  0  0  0  0  0
   36.1910   28.3620   41.1710 O   0  0  0  0  0  0  0  0  0  0  0  0
   37.9150   30.1630   42.0840 O   0  0  0  0  0  0  0  0  0  0  0  0
   36.8310   29.8980   41.0150 P   0  0  2  0  0  0  0  0  0  0  0  0
   35.5750   30.9900   41.4220 O   0  0  0  0  0  0  0  0  0  0  0  0
   35.3640   31.5820   40.6600 H   0  0  0  0  0  0  0  0  0  0  0  0
   37.3740   30.2520   39.4890 O   0  0  0  0  0  0  0  0  0  0  0  0
   36.9670   31.5270   39.1360 C   0  0  0  0  0  0  0  0  0  0  0  0
   36.7300   31.6040   38.0690 H   0  0  0  0  0  0  0  0  0  0  0  0
   36.0390   31.8070   39.7040 H   0  0  0  0  0  0  0  0  0  0  0  0
   38.0290   32.5520   39.4520 C   0  0  0  0  0  0  0  0  0  0  0  0
   39.4280   32.2420   39.2150 C   0  0  0  0  0  0  0  0  0  0  0  0
   39.7670   31.2940   38.8180 H   0  0  0  0  0  0  0  0  0  0  0  0
   40.2290   33.7980   39.7560 S   0  0  0  0  0  0  0  0  0  0  0  0
   38.5820   34.5880   40.2000 C   0  0  0  0  0  0  0  0  0  0  0  0
   38.4110   35.5850   40.6030 H   0  0  0  0  0  0  0  0  0  0  0  0
   37.7590   33.7460   39.9390 N   0  0  0  0  0  0  0  0  0  0  0  0
  1  2  1  0  0  0  0
  1  6  1  0  0  0  0
  2  8  1  0  0  0  0
  2  3  1  0  0  0  0
  3  9  1  0  0  0  0
  3  4  1  0  0  0  0
  4 12  1  0  0  0  0
  5  4  1  0  0  0  0
  5 13  1  0  0  0  0
  5 14  1  0  0  0  0
  6 15  1  6  0  0  0
  6 31  1  0  0  0  0
  6  5  1  0  0  0  0
  7  2  1  0  0  0  0
 10  3  1  0  0  0  0
 11  4  1  0  0  0  0
 16 17  1  0  0  0  0
 16  1  1  0  0  0  0
 18 16  1  0  0  0  0
 19 20  1  0  0  0  0
 19 16  1  0  0  0  0
 21 19  1  0  0  0  0
 22 28  1  0  0  0  0
 22 23  1  0  0  0  0
 23 29  1  0  0  0  0
 24 23  2  0  0  0  0
 24 19  1  0  0  0  0
 25 24  1  0  0  0  0
 26 27  1  0  0  0  0
 26 25  2  0  0  0  0
 27 22  2  0  0  0  0
 30 26  1  0  0  0  0
 33 31  1  0  0  0  0
 33 34  1  0  0  0  0
 33 32  2  1  0  0  0
 35 34  1  0  0  0  0
 36 33  1  0  0  0  0
 37 40  1  0  0  0  0
 37 36  1  0  0  0  0
 37 39  1  0  0  0  0
 38 37  1  0  0  0  0
 40 46  1  0  0  0  0
 41 40  2  0  0  0  0
 41 43  1  0  0  0  0
 42 41  1  0  0  0  0
 43 44  1  0  0  0  0
 44 45  1  0  0  0  0
 46 44  2  0  0  0  0
M  END
>  <minimizedAffinity>
-5.0638814

$$$$

 OpenBabel03252509063D

 46 48  0  0  1  0  0  0  0  0999 V2000
   37.6540   25.9980   41.9160 N   0  0  0  0  0  0  0  0  0  0  0  0
   38.4040   24.9810   42.5370 C   0  0  0  0  0  0  0  0  0  0  0  0
   39.7030   25.4440   43.1620 C   0  0  0  0  0  0  0  0  0  0  0  0
   39.6150   26.8200   43.7770 C   0  0  0  0  0  0  0  0  0  0  0  0
   38.2320   27.4160   43.6520 C   0  0  0  0  0  0  0  0  0  0  0  0
   37.9350   27.3320   42.1080 C   0  0  2  0  0  0  0  0  0  0  0  0
   38.6290   24.1000   41.9370 H   0  0  0  0  0  0  0  0  0  0  0  0
   37.7870   24.5980   43.4030 H   0  0  0  0  0  0  0  0  0  0  0  0
   40.0940   24.6860   43.8550 H   0  0  0  0  0  0  0  0  0  0  0  0
   40.4350   25.5090   42.3230 H   0  0  0  0  0  0  0  0  0  0  0  0
   40.3350   27.5410   43.3990 H   0  0  0  0  0  0  0  0  0  0  0  0
   39.7910   26.6880   44.8720 H   0  0  0  0  0  0  0  0  0  0  0  0
   37.4920   26.8050   44.1840 H   0  0  0  0  0  0  0  0  0  0  0  0
   38.2770   28.4680   43.9520 H   0  0  0  0  0  0  0  0  0  0  0  0
   38.8420   27.7470   41.6460 H   0  0  0  0  0  0  0  0  0  0  0  0
   37.0340   25.6020   40.6740 C   0  0  0  0  0  0  0  0  0  0  0  0
   37.7480   25.7010   39.8570 H   0  0  0  0  0  0  0  0  0  0  0  0
   36.2030   26.3180   40.4740 H   0  0  0  0  0  0  0  0  0  0  0  0
   36.5410   24.2080   40.8050 C   0  0  0  0  0  0  0  0  0  0  0  0
   37.3020   23.5550   41.2470 H   0  0  0  0  0  0  0  0  0  0  0  0
   35.6450   24.1470   41.4770 H   0  0  0  0  0  0  0  0  0  0  0  0
   35.2820   24.1020   37.2710 C   0  0  0  0  0  0  0  0  0  0  0  0
   35.6760   24.5660   38.5310 C   0  0  0  0  0  0  0  0  0  0  0  0
   36.1270   23.6940   39.4730 C   0  0  0  0  0  0  0  0  0  0  0  0
   36.1760   22.3960   39.1470 N   0  0  0  0  0  0  0  0  0  0  0  0
   35.8010   21.9380   37.9390 C   0  0  0  0  0  0  0  0  0  0  0  0
   35.3520   22.7730   36.9910 N   0  0  0  0  0  0  0  0  0  0  0  0
   34.9210   24.7380   36.4950 H   0  0  0  0  0  0  0  0  0  0  0  0
   35.5930   25.6360   38.6810 H   0  0  0  0  0  0  0  0  0  0  0  0
   35.9020   20.8750   37.8430 H   0  0  0  0  0  0  0  0  0  0  0  0
   36.8210   28.1400   41.9870 O   0  0  0  0  0  0  0  0  0  0  0  0
   38.2400   30.3680   42.2540 O   0  0  0  0  0  0  0  0  0  0  0  0
   37.1660   29.6640   41.3950 P   0  0  2  0  0  0  0  0  0  0  0  0
   35.7580   30.6090   41.6400 O   0  0  0  0  0  0  0  0  0  0  0  0
   35.4030   30.9410   40.7790 H   0  0  0  0  0  0  0  0  0  0  0  0
   37.5540   29.6910   39.7830 O   0  0  0  0  0  0  0  0  0  0  0  0
   37.0980   30.8680   39.2150 C   0  0  0  0  0  0  0  0  0  0  0  0
   36.9360   30.7690   38.1350 H   0  0  0  0  0  0  0  0  0  0  0  0
   36.1140   31.1600   39.6720 H   0  0  0  0  0  0  0  0  0  0  0  0
   38.0670   32.0010   39.4390 C   0  0  0  0  0  0  0  0  0  0  0  0
   39.4620   31.8470   39.0630 C   0  0  0  0  0  0  0  0  0  0  0  0
   39.8610   30.9430   38.6220 H   0  0  0  0  0  0  0  0  0  0  0  0
   40.1390   33.4800   39.5440 S   0  0  0  0  0  0  0  0  0  0  0  0
   38.4670   34.0840   40.1580 C   0  0  0  0  0  0  0  0  0  0  0  0
   38.2290   35.0550   40.5890 H   0  0  0  0  0  0  0  0  0  0  0  0
   37.7190   33.1580   39.9670 N   0  0  0  0  0  0  0  0  0  0  0  0
  1  6  1  0  0  0  0
  1  2  1  0  0  0  0
  2  3  1  0  0  0  0
  2  8  1  0  0  0  0
  3  4  1  0  0  0  0
  3  9  1  0  0  0  0
  4 12  1  0  0  0  0
  5  4  1  0  0  0  0
  5 14  1  0  0  0  0
  5 13  1  0  0  0  0
  6 15  1  6  0  0  0
  6  5  1  0  0  0  0
  7  2  1  0  0  0  0
 10  3  1  0  0  0  0
 11  4  1  0  0  0  0
 16 19  1  0  0  0  0
 16  1  1  0  0  0  0
 17 16  1  0  0  0  0
 18 16  1  0  0  0  0
 19 20  1  0  0  0  0
 19 21  1  0  0  0  0
 22 23  1  0  0  0  0
 23 29  1  0  0  0  0
 23 24  2  0  0  0  0
 24 19  1  0  0  0  0
 25 24  1  0  0  0  0
 26 25  2  0  0  0  0
 27 22  2  0  0  0  0
 27 26  1  0  0  0  0
 28 22  1  0  0  0  0
 30 26  1  0  0  0  0
 31  6  1  0  0  0  0
 33 34  1  0  0  0  0
 33 31  1  0  0  0  0
 33 32  2  1  0  0  0
 35 34  1  0  0  0  0
 36 33  1  0  0  0  0
 37 40  1  0  0  0  0
 37 39  1  0  0  0  0
 37 36  1  0  0  0  0
 38 37  1  0  0  0  0
 40 46  1  0  0  0  0
 41 40  2  0  0  0  0
 41 43  1  0  0  0  0
 42 41  1  0  0  0  0
 43 44  1  0  0  0  0
 44 45  1  0  0  0  0
 46 44  2  0  0  0  0
M  END
>  <minimizedAffinity>
-5.03046942

$$$$

 OpenBabel03252509063D

 46 48  0  0  1  0  0  0  0  0999 V2000
   37.9490   28.7820   39.2470 N   0  0  0  0  0  0  0  0  0  0  0  0
   37.1510   27.7040   38.8160 C   0  0  0  0  0  0  0  0  0  0  0  0
   35.6800   28.0280   38.6640 C   0  0  0  0  0  0  0  0  0  0  0  0
   35.4220   29.4260   38.1560 C   0  0  0  0  0  0  0  0  0  0  0  0
   36.7030   30.1830   37.8880 C   0  0  0  0  0  0  0  0  0  0  0  0
   37.4830   30.0770   39.2520 C   0  0  2  0  0  0  0  0  0  0  0  0
   37.2220   26.7810   39.3890 H   0  0  0  0  0  0  0  0  0  0  0  0
   37.4970   27.4340   37.7750 H   0  0  0  0  0  0  0  0  0  0  0  0
   35.1700   27.2540   38.0730 H   0  0  0  0  0  0  0  0  0  0  0  0
   35.2490   27.9710   39.6910 H   0  0  0  0  0  0  0  0  0  0  0  0
   34.7890   30.0390   38.7930 H   0  0  0  0  0  0  0  0  0  0  0  0
   34.9220   29.3150   37.1650 H   0  0  0  0  0  0  0  0  0  0  0  0
   37.2950   29.6880   37.1080 H   0  0  0  0  0  0  0  0  0  0  0  0
   36.4550   31.2320   37.6970 H   0  0  0  0  0  0  0  0  0  0  0  0
   36.7320   30.3610   40.0030 H   0  0  0  0  0  0  0  0  0  0  0  0
   38.9700   28.4180   40.2010 C   0  0  0  0  0  0  0  0  0  0  0  0
   39.7440   29.1850   40.2230 H   0  0  0  0  0  0  0  0  0  0  0  0
   39.4470   27.4790   39.8360 H   0  0  0  0  0  0  0  0  0  0  0  0
   38.3400   28.2350   41.5320 C   0  0  0  0  0  0  0  0  0  0  0  0
   38.5540   29.0820   42.1950 H   0  0  0  0  0  0  0  0  0  0  0  0
   37.2240   28.1690   41.4570 H   0  0  0  0  0  0  0  0  0  0  0  0
   40.0810   25.8310   43.8290 C   0  0  0  0  0  0  0  0  0  0  0  0
   39.6210   27.0140   43.2400 C   0  0  0  0  0  0  0  0  0  0  0  0
   38.8170   26.9670   42.1430 C   0  0  0  0  0  0  0  0  0  0  0  0
   38.4930   25.7600   41.6610 N   0  0  0  0  0  0  0  0  0  0  0  0
   38.9290   24.6160   42.2190 C   0  0  0  0  0  0  0  0  0  0  0  0
   39.7210   24.6320   43.3000 N   0  0  0  0  0  0  0  0  0  0  0  0
   40.7120   25.8080   44.6890 H   0  0  0  0  0  0  0  0  0  0  0  0
   39.9480   27.9300   43.7170 H   0  0  0  0  0  0  0  0  0  0  0  0
   38.5770   23.7400   41.7100 H   0  0  0  0  0  0  0  0  0  0  0  0
   38.4870   31.0120   39.0810 O   0  0  0  0  0  0  0  0  0  0  0  0
   39.0650   31.8090   41.5460 O   0  0  0  0  0  0  0  0  0  0  0  0
   38.4420   32.2490   40.2020 P   0  0  2  0  0  0  0  0  0  0  0  0
   36.7900   32.5050   40.5770 O   0  0  0  0  0  0  0  0  0  0  0  0
   36.5150   33.4250   40.3460 H   0  0  0  0  0  0  0  0  0  0  0  0
   39.0940   33.6750   39.6600 O   0  0  0  0  0  0  0  0  0  0  0  0
   40.2750   33.9310   40.3340 C   0  0  0  0  0  0  0  0  0  0  0  0
   40.2710   34.9180   40.8140 H   0  0  0  0  0  0  0  0  0  0  0  0
   40.4290   33.1690   41.1450 H   0  0  0  0  0  0  0  0  0  0  0  0
   41.4640   33.8700   39.4080 C   0  0  0  0  0  0  0  0  0  0  0  0
   42.7990   34.1180   39.9250 C   0  0  0  0  0  0  0  0  0  0  0  0
   42.9990   34.3550   40.9620 H   0  0  0  0  0  0  0  0  0  0  0  0
   43.8070   33.9120   38.4090 S   0  0  0  0  0  0  0  0  0  0  0  0
   42.2950   33.5340   37.3570 C   0  0  0  0  0  0  0  0  0  0  0  0
   42.2670   33.3100   36.2910 H   0  0  0  0  0  0  0  0  0  0  0  0
   41.3670   33.5930   38.1230 N   0  0  0  0  0  0  0  0  0  0  0  0
  1  6  1  0  0  0  0
  1 16  1  0  0  0  0
  2  1  1  0  0  0  0
  2  7  1  0  0  0  0
  3  2  1  0  0  0  0
  3 10  1  0  0  0  0
  4  3  1  0  0  0  0
  4 11  1  0  0  0  0
  5  4  1  0  0  0  0
  5  6  1  0  0  0  0
  6 15  1  1  0  0  0
  8  2  1  0  0  0  0
  9  3  1  0  0  0  0
 12  4  1  0  0  0  0
 13  5  1  0  0  0  0
 14  5  1  0  0  0  0
 16 17  1  0  0  0  0
 16 19  1  0  0  0  0
 18 16  1  0  0  0  0
 19 24  1  0  0  0  0
 19 20  1  0  0  0  0
 21 19  1  0  0  0  0
 22 28  1  0  0  0  0
 23 29  1  0  0  0  0
 23 22  2  0  0  0  0
 24 23  1  0  0  0  0
 25 24  2  0  0  0  0
 25 26  1  0  0  0  0
 26 27  2  0  0  0  0
 27 22  1  0  0  0  0
 30 26  1  0  0  0  0
 31  6  1  0  0  0  0
 31 33  1  0  0  0  0
 33 34  1  0  0  0  0
 33 32  2  1  0  0  0
 35 34  1  0  0  0  0
 36 33  1  0  0  0  0
 36 37  1  0  0  0  0
 37 38  1  0  0  0  0
 37 39  1  0  0  0  0
 40 41  2  0  0  0  0
 40 37  1  0  0  0  0
 41 42  1  0  0  0  0
 43 41  1  0  0  0  0
 44 46  2  0  0  0  0
 44 43  1  0  0  0  0
 45 44  1  0  0  0  0
 46 40  1  0  0  0  0
M  END
>  <minimizedAffinity>
-5.01965094

$$$$

 OpenBabel03252509063D

 46 48  0  0  1  0  0  0  0  0999 V2000
   38.6210   31.6290   39.2270 N   0  0  0  0  0  0  0  0  0  0  0  0
   39.6330   32.5750   38.9750 C   0  0  0  0  0  0  0  0  0  0  0  0
   40.3630   33.0650   40.2080 C   0  0  0  0  0  0  0  0  0  0  0  0
   40.5540   31.9960   41.2560 C   0  0  0  0  0  0  0  0  0  0  0  0
   39.9920   30.6610   40.8220 C   0  0  0  0  0  0  0  0  0  0  0  0
   38.5010   30.9970   40.4440 C   0  0  2  0  0  0  0  0  0  0  0  0
   39.3510   33.4530   38.3950 H   0  0  0  0  0  0  0  0  0  0  0  0
   40.4240   32.0550   38.3580 H   0  0  0  0  0  0  0  0  0  0  0  0
   41.2990   33.5700   39.9310 H   0  0  0  0  0  0  0  0  0  0  0  0
   39.7070   33.8470   40.6570 H   0  0  0  0  0  0  0  0  0  0  0  0
   40.1520   32.2340   42.2370 H   0  0  0  0  0  0  0  0  0  0  0  0
   41.6560   31.8430   41.3540 H   0  0  0  0  0  0  0  0  0  0  0  0
   40.5050   30.2930   39.9250 H   0  0  0  0  0  0  0  0  0  0  0  0
   40.0010   29.9830   41.6810 H   0  0  0  0  0  0  0  0  0  0  0  0
   38.1410   31.5800   41.3040 H   0  0  0  0  0  0  0  0  0  0  0  0
   37.4310   31.8070   38.4290 C   0  0  0  0  0  0  0  0  0  0  0  0
   37.1620   32.8630   38.4000 H   0  0  0  0  0  0  0  0  0  0  0  0
   36.6020   31.2690   38.9440 H   0  0  0  0  0  0  0  0  0  0  0  0
   37.6790   31.2660   37.0690 C   0  0  0  0  0  0  0  0  0  0  0  0
   37.3510   31.9690   36.2940 H   0  0  0  0  0  0  0  0  0  0  0  0
   38.7700   31.0830   36.8880 H   0  0  0  0  0  0  0  0  0  0  0  0
   35.1780   28.5010   37.4950 C   0  0  0  0  0  0  0  0  0  0  0  0
   35.8490   29.7210   37.6280 C   0  0  0  0  0  0  0  0  0  0  0  0
   36.9810   29.9630   36.9130 C   0  0  0  0  0  0  0  0  0  0  0  0
   37.4180   28.9970   36.0940 N   0  0  0  0  0  0  0  0  0  0  0  0
   36.7810   27.8200   35.9580 C   0  0  0  0  0  0  0  0  0  0  0  0
   35.6630   27.5540   36.6480 N   0  0  0  0  0  0  0  0  0  0  0  0
   34.2870   28.2570   38.0280 H   0  0  0  0  0  0  0  0  0  0  0  0
   35.4030   30.4260   38.3200 H   0  0  0  0  0  0  0  0  0  0  0  0
   37.2620   27.1610   35.2630 H   0  0  0  0  0  0  0  0  0  0  0  0
   37.9410   29.7380   40.3450 O   0  0  0  0  0  0  0  0  0  0  0  0
   35.7410   28.3810   40.9520 O   0  0  0  0  0  0  0  0  0  0  0  0
   36.7250   29.4610   41.4570 P   0  0  2  0  0  0  0  0  0  0  0  0
   35.7790   30.8880   41.5060 O   0  0  0  0  0  0  0  0  0  0  0  0
   35.7840   31.2820   42.4120 H   0  0  0  0  0  0  0  0  0  0  0  0
   37.2710   29.1280   42.9870 O   0  0  0  0  0  0  0  0  0  0  0  0
   36.9050   27.8410   43.3410 C   0  0  0  0  0  0  0  0  0  0  0  0
   36.5270   27.7880   44.3680 H   0  0  0  0  0  0  0  0  0  0  0  0
   36.0860   27.4740   42.6660 H   0  0  0  0  0  0  0  0  0  0  0  0
   38.0660   26.8850   43.2220 C   0  0  0  0  0  0  0  0  0  0  0  0
   37.9780   25.7450   42.3250 C   0  0  0  0  0  0  0  0  0  0  0  0
   37.1050   25.5310   41.7220 H   0  0  0  0  0  0  0  0  0  0  0  0
   39.6170   24.9690   42.5800 S   0  0  0  0  0  0  0  0  0  0  0  0
   40.1360   26.2810   43.8240 C   0  0  0  0  0  0  0  0  0  0  0  0
   41.0820   26.3510   44.3590 H   0  0  0  0  0  0  0  0  0  0  0  0
   39.1890   27.0240   43.8970 N   0  0  0  0  0  0  0  0  0  0  0  0
  1  6  1  0  0  0  0
  2  1  1  0  0  0  0
  2  3  1  0  0  0  0
  3 10  1  0  0  0  0
  3  4  1  0  0  0  0
  4 12  1  0  0  0  0
  4 11  1  0  0  0  0
  5  4  1  0  0  0  0
  5 14  1  0  0  0  0
  6  5  1  0  0  0  0
  6 15  1  1  0  0  0
  7  2  1  0  0  0  0
  8  2  1  0  0  0  0
  9  3  1  0  0  0  0
 13  5  1  0  0  0  0
 16 18  1  0  0  0  0
 16  1  1  0  0  0  0
 17 16  1  0  0  0  0
 19 16  1  0  0  0  0
 20 19  1  0  0  0  0
 21 19  1  0  0  0  0
 22 23  1  0  0  0  0
 22 28  1  0  0  0  0
 23 29  1  0  0  0  0
 24 19  1  0  0  0  0
 24 23  2  0  0  0  0
 25 24  1  0  0  0  0
 26 25  2  0  0  0  0
 26 27  1  0  0  0  0
 27 22  2  0  0  0  0
 30 26  1  0  0  0  0
 31  6  1  0  0  0  0
 31 33  1  0  0  0  0
 33 32  2  6  0  0  0
 33 34  1  0  0  0  0
 33 36  1  0  0  0  0
 34 35  1  0  0  0  0
 36 37  1  0  0  0  0
 37 38  1  0  0  0  0
 39 37  1  0  0  0  0
 40 37  1  0  0  0  0
 40 46  1  0  0  0  0
 41 43  1  0  0  0  0
 41 40  2  0  0  0  0
 42 41  1  0  0  0  0
 43 44  1  0  0  0  0
 44 46  2  0  0  0  0
 44 45  1  0  0  0  0
M  END
>  <minimizedAffinity>
-5.00533676

$$$$

 OpenBabel03252509063D

 46 48  0  0  1  0  0  0  0  0999 V2000
   35.7140   29.3580   38.8450 N   0  0  0  0  0  0  0  0  0  0  0  0
   34.6020   28.6230   38.3900 C   0  0  0  0  0  0  0  0  0  0  0  0
   34.1810   28.9280   36.9680 C   0  0  0  0  0  0  0  0  0  0  0  0
   35.3430   29.2130   36.0470 C   0  0  0  0  0  0  0  0  0  0  0  0
   36.6740   29.1030   36.7540 C   0  0  0  0  0  0  0  0  0  0  0  0
   36.5160   30.0730   37.9850 C   0  0  2  0  0  0  0  0  0  0  0  0
   33.7050   28.6570   39.0070 H   0  0  0  0  0  0  0  0  0  0  0  0
   34.9090   27.5360   38.3740 H   0  0  0  0  0  0  0  0  0  0  0  0
   33.5090   28.1470   36.5850 H   0  0  0  0  0  0  0  0  0  0  0  0
   33.5740   29.8620   37.0250 H   0  0  0  0  0  0  0  0  0  0  0  0
   35.3030   30.1730   35.5370 H   0  0  0  0  0  0  0  0  0  0  0  0
   35.3410   28.4050   35.2760 H   0  0  0  0  0  0  0  0  0  0  0  0
   36.8360   28.0850   37.1290 H   0  0  0  0  0  0  0  0  0  0  0  0
   37.4540   29.4910   36.0900 H   0  0  0  0  0  0  0  0  0  0  0  0
   36.1160   30.9950   37.5390 H   0  0  0  0  0  0  0  0  0  0  0  0
   35.6080   29.8070   40.2130 C   0  0  0  0  0  0  0  0  0  0  0  0
   34.6580   30.3200   40.3600 H   0  0  0  0  0  0  0  0  0  0  0  0
   36.4170   30.5560   40.3810 H   0  0  0  0  0  0  0  0  0  0  0  0
   35.7450   28.6360   41.1150 C   0  0  0  0  0  0  0  0  0  0  0  0
   34.9600   28.6270   41.8800 H   0  0  0  0  0  0  0  0  0  0  0  0
   35.6510   27.6690   40.5560 H   0  0  0  0  0  0  0  0  0  0  0  0
   38.9780   29.8700   42.5680 C   0  0  0  0  0  0  0  0  0  0  0  0
   37.7140   29.8370   41.9690 C   0  0  0  0  0  0  0  0  0  0  0  0
   37.0880   28.6490   41.7530 C   0  0  0  0  0  0  0  0  0  0  0  0
   37.7240   27.5320   42.1310 N   0  0  0  0  0  0  0  0  0  0  0  0
   38.9390   27.5510   42.7080 C   0  0  0  0  0  0  0  0  0  0  0  0
   39.5800   28.7070   42.9330 N   0  0  0  0  0  0  0  0  0  0  0  0
   39.5150   30.7700   42.7610 H   0  0  0  0  0  0  0  0  0  0  0  0
   37.2970   30.8020   41.7060 H   0  0  0  0  0  0  0  0  0  0  0  0
   39.3050   26.5730   42.9480 H   0  0  0  0  0  0  0  0  0  0  0  0
   37.8200   30.1840   38.4300 O   0  0  0  0  0  0  0  0  0  0  0  0
   37.2000   32.7550   38.6550 O   0  0  0  0  0  0  0  0  0  0  0  0
   38.3710   31.7600   38.4900 P   0  0  2  0  0  0  0  0  0  0  0  0
   38.9970   32.1140   36.9360 O   0  0  0  0  0  0  0  0  0  0  0  0
   39.9570   32.3420   36.9870 H   0  0  0  0  0  0  0  0  0  0  0  0
   39.5600   32.0170   39.6170 O   0  0  0  0  0  0  0  0  0  0  0  0
   39.9110   33.3560   39.6230 C   0  0  0  0  0  0  0  0  0  0  0  0
   39.2270   33.9650   39.0210 H   0  0  0  0  0  0  0  0  0  0  0  0
   39.8780   33.7580   40.6720 H   0  0  0  0  0  0  0  0  0  0  0  0
   41.3080   33.5630   39.0930 C   0  0  0  0  0  0  0  0  0  0  0  0
   42.4340   33.6010   40.0100 C   0  0  0  0  0  0  0  0  0  0  0  0
   42.3300   33.4900   41.0820 H   0  0  0  0  0  0  0  0  0  0  0  0
   43.8260   33.8630   38.8490 S   0  0  0  0  0  0  0  0  0  0  0  0
   42.6840   33.8770   37.3550 C   0  0  0  0  0  0  0  0  0  0  0  0
   42.9600   34.0050   36.3090 H   0  0  0  0  0  0  0  0  0  0  0  0
   41.5810   33.7120   37.8120 N   0  0  0  0  0  0  0  0  0  0  0  0
  1 16  1  0  0  0  0
  2  1  1  0  0  0  0
  2  7  1  0  0  0  0
  3 10  1  0  0  0  0
  3  2  1  0  0  0  0
  4  5  1  0  0  0  0
  4  3  1  0  0  0  0
  5 13  1  0  0  0  0
  5  6  1  0  0  0  0
  6 15  1  6  0  0  0
  6 31  1  0  0  0  0
  6  1  1  0  0  0  0
  8  2  1  0  0  0  0
  9  3  1  0  0  0  0
 11  4  1  0  0  0  0
 12  4  1  0  0  0  0
 14  5  1  0  0  0  0
 16 17  1  0  0  0  0
 16 18  1  0  0  0  0
 16 19  1  0  0  0  0
 19 24  1  0  0  0  0
 19 20  1  0  0  0  0
 21 19  1  0  0  0  0
 22 28  1  0  0  0  0
 22 27  1  0  0  0  0
 23 22  2  0  0  0  0
 24 23  1  0  0  0  0
 24 25  2  0  0  0  0
 25 26  1  0  0  0  0
 26 27  2  0  0  0  0
 26 30  1  0  0  0  0
 29 23  1  0  0  0  0
 31 33  1  0  0  0  0
 33 32  2  1  0  0  0
 33 36  1  0  0  0  0
 34 35  1  0  0  0  0
 34 33  1  0  0  0  0
 36 37  1  0  0  0  0
 37 39  1  0  0  0  0
 38 37  1  0  0  0  0
 40 37  1  0  0  0  0
 40 41  2  0  0  0  0
 41 42  1  0  0  0  0
 43 41  1  0  0  0  0
 44 46  2  0  0  0  0
 44 43  1  0  0  0  0
 45 44  1  0  0  0  0
 46 40  1  0  0  0  0
M  END
>  <minimizedAffinity>
-4.98424149

$$$$
