
 OpenBabel03252509233D

 25 27  0  0  1  0  0  0  0  0999 V2000
   46.4750   34.9930   41.9290 C   0  0  1  0  0  0  0  0  0  0  0  0
   47.9990   35.2750   41.8810 C   0  0  0  0  0  0  0  0  0  0  0  0
   47.2850   34.0000   41.3240 C   0  0  2  0  0  0  0  0  0  0  0  0
   45.8850   35.7380   41.3600 H   0  0  0  0  0  0  0  0  0  0  0  0
   48.3560   35.9700   41.0880 H   0  0  0  0  0  0  0  0  0  0  0  0
   48.6010   35.1430   42.7710 H   0  0  0  0  0  0  0  0  0  0  0  0
   47.5160   33.0560   41.8840 H   0  0  0  0  0  0  0  0  0  0  0  0
   44.6590   35.4130   45.1880 C   0  0  0  0  0  0  0  0  0  0  0  0
   45.0980   35.6960   43.8550 C   0  0  0  0  0  0  0  0  0  0  0  0
   46.0220   34.8170   43.3560 C   0  0  0  0  0  0  0  0  0  0  0  0
   46.4830   33.7470   44.0990 N   0  0  0  0  0  0  0  0  0  0  0  0
   46.0370   33.5290   45.3450 C   0  0  0  0  0  0  0  0  0  0  0  0
   45.1190   34.3680   45.8900 N   0  0  0  0  0  0  0  0  0  0  0  0
   43.9270   36.1010   45.5910 H   0  0  0  0  0  0  0  0  0  0  0  0
   46.3680   32.7070   45.9630 H   0  0  0  0  0  0  0  0  0  0  0  0
   44.6360   36.8220   43.1130 N   0  0  0  0  0  0  0  0  0  0  0  0
   44.7330   37.8130   43.4690 H   0  0  0  0  0  0  0  0  0  0  0  0
   44.1860   36.6840   42.1950 H   0  0  0  0  0  0  0  0  0  0  0  0
   47.2980   33.8530   39.8450 C   0  0  0  0  0  0  0  0  0  0  0  0
   48.4100   34.4250   39.1170 C   0  0  0  0  0  0  0  0  0  0  0  0
   49.2720   34.9720   39.5490 H   0  0  0  0  0  0  0  0  0  0  0  0
   48.0160   34.0090   37.3270 S   0  0  0  0  0  0  0  0  0  0  0  0
   46.4300   33.1470   37.9090 C   0  0  0  0  0  0  0  0  0  0  0  0
   45.5000   32.5540   37.4170 H   0  0  0  0  0  0  0  0  0  0  0  0
   46.4300   33.2630   39.0250 N   0  0  0  0  0  0  0  0  0  0  0  0
  1  4  1  6  0  0  0
  1 10  1  0  0  0  0
  2  1  1  0  0  0  0
  2  6  1  0  0  0  0
  3  2  1  0  0  0  0
  3  7  1  1  0  0  0
  3  1  1  0  0  0  0
  5  2  1  0  0  0  0
  8 14  1  0  0  0  0
  8 13  1  0  0  0  0
  9  8  2  0  0  0  0
 10  9  1  0  0  0  0
 10 11  2  0  0  0  0
 11 12  1  0  0  0  0
 12 13  2  0  0  0  0
 12 15  1  0  0  0  0
 16 17  1  0  0  0  0
 16  9  1  0  0  0  0
 18 16  1  0  0  0  0
 19  3  1  0  0  0  0
 20 21  1  0  0  0  0
 20 19  2  0  0  0  0
 22 23  1  0  0  0  0
 22 20  1  0  0  0  0
 23 25  2  0  0  0  0
 24 23  1  0  0  0  0
 25 19  1  0  0  0  0
M  END
>  <minimizedAffinity>
-4.84688139

>  <minimizedRMSD>
0.53725481

$$$$
