
 OpenBabel03252507053D

 45 48  0  0  0  0  0  0  0  0999 V2000
   39.4170   29.9890   42.9690 C   0  0  0  0  0  0  0  0  0  0  0  0
   39.3710   30.2790   44.0400 H   0  0  0  0  0  0  0  0  0  0  0  0
   38.3190   30.0180   42.6490 H   0  0  0  0  0  0  0  0  0  0  0  0
   40.0040   28.8070   42.7660 N   0  0  0  0  0  0  0  0  0  0  0  0
   41.3000   28.5570   42.2280 C   0  0  0  0  0  0  0  0  0  0  0  0
   42.0220   28.1680   43.5150 C   0  0  0  0  0  0  0  0  0  0  0  0
   41.4550   27.0080   44.1810 C   0  0  0  0  0  0  0  0  0  0  0  0
   40.0700   26.6690   43.9480 C   0  0  0  0  0  0  0  0  0  0  0  0
   39.1960   27.6380   43.1820 C   0  0  0  0  0  0  0  0  0  0  0  0
   41.7610   29.5220   41.9290 H   0  0  0  0  0  0  0  0  0  0  0  0
   41.4140   27.8610   41.4160 H   0  0  0  0  0  0  0  0  0  0  0  0
   42.0650   29.0950   44.1510 H   0  0  0  0  0  0  0  0  0  0  0  0
   43.0920   27.9980   43.2040 H   0  0  0  0  0  0  0  0  0  0  0  0
   42.0700   26.1020   43.9060 H   0  0  0  0  0  0  0  0  0  0  0  0
   41.6030   27.1050   45.2850 H   0  0  0  0  0  0  0  0  0  0  0  0
   39.5770   25.8050   44.2760 H   0  0  0  0  0  0  0  0  0  0  0  0
   37.5260   27.3790   42.8420 S   0  0  0  0  0  0  0  0  0  0  0  0
   37.0860   26.0690   41.7620 C   0  0  0  0  0  0  0  0  0  0  0  0
   36.9540   24.5970   41.8640 C   0  0  0  0  0  0  0  0  0  0  0  0
   37.1370   24.1470   43.0090 H   0  0  0  0  0  0  0  0  0  0  0  0
   36.5140   24.1130   40.0970 S   0  0  0  0  0  0  0  0  0  0  0  0
   36.5930   25.9390   39.5960 C   0  0  0  0  0  0  0  0  0  0  0  0
   36.3480   25.9250   38.4960 H   0  0  0  0  0  0  0  0  0  0  0  0
   36.8640   26.5110   40.5490 N   0  0  0  0  0  0  0  0  0  0  0  0
   40.0410   31.1090   42.2150 C   0  0  0  0  0  0  0  0  0  0  0  0
   40.9580   30.7960   41.6720 H   0  0  0  0  0  0  0  0  0  0  0  0
   40.3440   31.9660   42.8820 H   0  0  0  0  0  0  0  0  0  0  0  0
   39.0520   31.6330   41.2580 C   0  0  0  0  0  0  0  0  0  0  0  0
   39.0540   32.9670   40.9200 C   0  0  0  0  0  0  0  0  0  0  0  0
   38.0980   33.4230   40.0220 C   0  0  0  0  0  0  0  0  0  0  0  0
   37.2030   32.5160   39.5180 N   0  0  0  0  0  0  0  0  0  0  0  0
   37.2360   31.2360   39.8670 C   0  0  0  0  0  0  0  0  0  0  0  0
   38.1640   30.8180   40.7340 N   0  0  0  0  0  0  0  0  0  0  0  0
   39.6650   33.8130   41.1850 H   0  0  0  0  0  0  0  0  0  0  0  0
   37.9430   34.4310   39.6420 H   0  0  0  0  0  0  0  0  0  0  0  0
   36.2570   30.3360   39.2620 C   0  0  0  0  0  0  0  0  0  0  0  0
   36.3330   30.0070   37.9130 C   0  0  0  0  0  0  0  0  0  0  0  0
   35.4040   29.1650   37.3490 C   0  0  0  0  0  0  0  0  0  0  0  0
   34.4410   28.7080   38.2290 C   0  0  0  0  0  0  0  0  0  0  0  0
   34.3200   29.0060   39.5840 C   0  0  0  0  0  0  0  0  0  0  0  0
   35.2760   29.8430   40.0600 N   0  0  0  0  0  0  0  0  0  0  0  0
   37.1210   30.4050   37.2720 H   0  0  0  0  0  0  0  0  0  0  0  0
   35.3780   28.8550   36.3310 H   0  0  0  0  0  0  0  0  0  0  0  0
   33.6760   28.0340   37.8380 H   0  0  0  0  0  0  0  0  0  0  0  0
   33.5330   28.5950   40.1740 H   0  0  0  0  0  0  0  0  0  0  0  0
  1  2  1  0  0  0  0
  3  1  1  0  0  0  0
  4  1  1  0  0  0  0
  4  9  1  0  0  0  0
  5  4  1  0  0  0  0
  5  6  1  0  0  0  0
  6 12  1  0  0  0  0
  6  7  1  0  0  0  0
  7 15  1  0  0  0  0
  8  7  1  0  0  0  0
  8 16  1  0  0  0  0
  9  8  2  0  0  0  0
 10  5  1  0  0  0  0
 11  5  1  0  0  0  0
 13  6  1  0  0  0  0
 14  7  1  0  0  0  0
 17  9  1  0  0  0  0
 18 19  2  0  0  0  0
 18 17  1  0  0  0  0
 19 20  1  0  0  0  0
 21 19  1  0  0  0  0
 22 21  1  0  0  0  0
 22 24  2  0  0  0  0
 23 22  1  0  0  0  0
 24 18  1  0  0  0  0
 25 27  1  0  0  0  0
 25  1  1  0  0  0  0
 26 25  1  0  0  0  0
 28 25  1  0  0  0  0
 29 34  1  0  0  0  0
 29 28  1  0  0  0  0
 30 29  2  0  0  0  0
 31 32  2  0  0  0  0
 31 30  1  0  0  0  0
 32 33  1  0  0  0  0
 33 28  2  0  0  0  0
 35 30  1  0  0  0  0
 36 32  1  0  0  0  0
 36 41  1  0  0  0  0
 37 36  2  0  0  0  0
 38 37  1  0  0  0  0
 38 39  2  0  0  0  0
 39 40  1  0  0  0  0
 40 41  2  0  0  0  0
 40 45  1  0  0  0  0
 42 37  1  0  0  0  0
 43 38  1  0  0  0  0
 44 39  1  0  0  0  0
M  END
>  <minimizedAffinity>
-5.71063614

$$$$

 OpenBabel03252507053D

 45 48  0  0  0  0  0  0  0  0999 V2000
   38.7670   26.6690   43.3150 C   0  0  0  0  0  0  0  0  0  0  0  0
   38.6330   25.8990   44.1050 H   0  0  0  0  0  0  0  0  0  0  0  0
   38.0690   26.3060   42.4850 H   0  0  0  0  0  0  0  0  0  0  0  0
   40.0360   26.8110   42.9250 N   0  0  0  0  0  0  0  0  0  0  0  0
   41.0940   27.4710   43.6180 C   0  0  0  0  0  0  0  0  0  0  0  0
   41.8680   26.2440   44.0930 C   0  0  0  0  0  0  0  0  0  0  0  0
   42.3440   25.3940   43.0170 C   0  0  0  0  0  0  0  0  0  0  0  0
   41.6630   25.4220   41.7430 C   0  0  0  0  0  0  0  0  0  0  0  0
   40.3570   26.1780   41.6260 C   0  0  0  0  0  0  0  0  0  0  0  0
   40.6910   27.9250   44.5480 H   0  0  0  0  0  0  0  0  0  0  0  0
   41.6840   28.2100   43.1070 H   0  0  0  0  0  0  0  0  0  0  0  0
   41.2120   25.7220   44.8440 H   0  0  0  0  0  0  0  0  0  0  0  0
   42.7140   26.6610   44.7120 H   0  0  0  0  0  0  0  0  0  0  0  0
   43.4280   25.6410   42.8190 H   0  0  0  0  0  0  0  0  0  0  0  0
   42.3720   24.3330   43.3670 H   0  0  0  0  0  0  0  0  0  0  0  0
   41.9700   24.9460   40.8620 H   0  0  0  0  0  0  0  0  0  0  0  0
   39.4230   26.2860   40.1800 S   0  0  0  0  0  0  0  0  0  0  0  0
   38.0510   25.2110   39.9890 C   0  0  0  0  0  0  0  0  0  0  0  0
   36.7250   25.2740   39.3310 C   0  0  0  0  0  0  0  0  0  0  0  0
   36.5240   26.3210   38.6890 H   0  0  0  0  0  0  0  0  0  0  0  0
   35.9690   23.6140   39.7970 S   0  0  0  0  0  0  0  0  0  0  0  0
   37.5470   23.1840   40.7550 C   0  0  0  0  0  0  0  0  0  0  0  0
   37.3390   22.1550   41.1650 H   0  0  0  0  0  0  0  0  0  0  0  0
   38.2380   24.0870   40.6350 N   0  0  0  0  0  0  0  0  0  0  0  0
   38.1370   27.9290   43.7900 C   0  0  0  0  0  0  0  0  0  0  0  0
   38.8730   28.6250   44.2480 H   0  0  0  0  0  0  0  0  0  0  0  0
   37.3440   27.7510   44.5700 H   0  0  0  0  0  0  0  0  0  0  0  0
   37.4820   28.5830   42.6450 C   0  0  0  0  0  0  0  0  0  0  0  0
   36.4390   27.9610   41.9970 C   0  0  0  0  0  0  0  0  0  0  0  0
   35.8560   28.6060   40.9140 C   0  0  0  0  0  0  0  0  0  0  0  0
   36.3500   29.8320   40.5510 N   0  0  0  0  0  0  0  0  0  0  0  0
   37.3560   30.3990   41.2040 C   0  0  0  0  0  0  0  0  0  0  0  0
   37.9050   29.7600   42.2430 N   0  0  0  0  0  0  0  0  0  0  0  0
   35.9080   27.0340   42.1330 H   0  0  0  0  0  0  0  0  0  0  0  0
   35.0320   28.2750   40.2830 H   0  0  0  0  0  0  0  0  0  0  0  0
   37.8040   31.7170   40.7610 C   0  0  0  0  0  0  0  0  0  0  0  0
   36.9970   32.5050   39.9460 C   0  0  0  0  0  0  0  0  0  0  0  0
   37.4270   33.7410   39.5280 C   0  0  0  0  0  0  0  0  0  0  0  0
   38.6840   34.0910   39.9850 C   0  0  0  0  0  0  0  0  0  0  0  0
   39.5290   33.3430   40.7990 C   0  0  0  0  0  0  0  0  0  0  0  0
   39.0290   32.1370   41.1670 N   0  0  0  0  0  0  0  0  0  0  0  0
   36.0120   32.1660   39.6200 H   0  0  0  0  0  0  0  0  0  0  0  0
   36.8850   34.4140   38.9070 H   0  0  0  0  0  0  0  0  0  0  0  0
   39.0780   35.0640   39.6850 H   0  0  0  0  0  0  0  0  0  0  0  0
   40.4850   33.7120   41.0950 H   0  0  0  0  0  0  0  0  0  0  0  0
  1 25  1  0  0  0  0
  1  2  1  0  0  0  0
  3  1  1  0  0  0  0
  4  1  1  0  0  0  0
  4  5  1  0  0  0  0
  5  6  1  0  0  0  0
  5 10  1  0  0  0  0
  6 13  1  0  0  0  0
  6 12  1  0  0  0  0
  7 15  1  0  0  0  0
  7  6  1  0  0  0  0
  8  7  1  0  0  0  0
  9  8  2  0  0  0  0
  9  4  1  0  0  0  0
 11  5  1  0  0  0  0
 14  7  1  0  0  0  0
 16  8  1  0  0  0  0
 17  9  1  0  0  0  0
 18 17  1  0  0  0  0
 18 24  1  0  0  0  0
 19 21  1  0  0  0  0
 19 18  2  0  0  0  0
 20 19  1  0  0  0  0
 21 22  1  0  0  0  0
 22 23  1  0  0  0  0
 24 22  2  0  0  0  0
 25 26  1  0  0  0  0
 25 27  1  0  0  0  0
 28 25  1  0  0  0  0
 29 34  1  0  0  0  0
 29 28  2  0  0  0  0
 30 29  1  0  0  0  0
 31 30  2  0  0  0  0
 31 32  1  0  0  0  0
 32 33  2  0  0  0  0
 33 28  1  0  0  0  0
 35 30  1  0  0  0  0
 36 41  1  0  0  0  0
 36 32  1  0  0  0  0
 37 36  2  0  0  0  0
 38 37  1  0  0  0  0
 38 39  2  0  0  0  0
 39 40  1  0  0  0  0
 40 45  1  0  0  0  0
 40 41  2  0  0  0  0
 42 37  1  0  0  0  0
 43 38  1  0  0  0  0
 44 39  1  0  0  0  0
M  END
>  <minimizedAffinity>
-5.65331078

$$$$

 OpenBabel03252507053D

 45 48  0  0  0  0  0  0  0  0999 V2000
   37.5890   27.6060   42.8520 C   0  0  0  0  0  0  0  0  0  0  0  0
   37.0390   27.1860   43.7220 H   0  0  0  0  0  0  0  0  0  0  0  0
   36.7620   27.7480   42.0740 H   0  0  0  0  0  0  0  0  0  0  0  0
   38.5910   26.8290   42.4350 N   0  0  0  0  0  0  0  0  0  0  0  0
   39.9640   26.8970   42.8140 C   0  0  0  0  0  0  0  0  0  0  0  0
   40.0200   25.6760   43.7280 C   0  0  0  0  0  0  0  0  0  0  0  0
   39.6790   24.4290   43.0680 C   0  0  0  0  0  0  0  0  0  0  0  0
   38.8490   24.4620   41.8850 C   0  0  0  0  0  0  0  0  0  0  0  0
   38.1920   25.7650   41.4850 C   0  0  0  0  0  0  0  0  0  0  0  0
   40.1110   27.7630   43.4930 H   0  0  0  0  0  0  0  0  0  0  0  0
   40.7240   26.9300   42.0530 H   0  0  0  0  0  0  0  0  0  0  0  0
   39.3840   25.9180   44.6240 H   0  0  0  0  0  0  0  0  0  0  0  0
   41.0720   25.6690   44.1330 H   0  0  0  0  0  0  0  0  0  0  0  0
   40.6360   23.9000   42.7870 H   0  0  0  0  0  0  0  0  0  0  0  0
   39.1980   23.7380   43.8040 H   0  0  0  0  0  0  0  0  0  0  0  0
   38.6250   23.6520   41.2590 H   0  0  0  0  0  0  0  0  0  0  0  0
   37.1650   25.9550   40.1140 S   0  0  0  0  0  0  0  0  0  0  0  0
   37.4870   27.2750   39.0040 C   0  0  0  0  0  0  0  0  0  0  0  0
   36.8140   27.8750   37.8290 C   0  0  0  0  0  0  0  0  0  0  0  0
   35.7020   27.3780   37.5700 H   0  0  0  0  0  0  0  0  0  0  0  0
   38.0420   29.2000   37.2980 S   0  0  0  0  0  0  0  0  0  0  0  0
   39.1800   28.6930   38.7270 C   0  0  0  0  0  0  0  0  0  0  0  0
   40.0600   29.3900   38.6280 H   0  0  0  0  0  0  0  0  0  0  0  0
   38.6420   27.8380   39.2630 N   0  0  0  0  0  0  0  0  0  0  0  0
   38.0030   28.9930   43.1950 C   0  0  0  0  0  0  0  0  0  0  0  0
   39.0960   29.0760   43.3780 H   0  0  0  0  0  0  0  0  0  0  0  0
   37.4960   29.3810   44.1230 H   0  0  0  0  0  0  0  0  0  0  0  0
   37.6170   29.8810   42.0860 C   0  0  0  0  0  0  0  0  0  0  0  0
   36.4110   29.7060   41.4450 C   0  0  0  0  0  0  0  0  0  0  0  0
   36.0900   30.5580   40.3970 C   0  0  0  0  0  0  0  0  0  0  0  0
   36.9930   31.5320   40.0580 N   0  0  0  0  0  0  0  0  0  0  0  0
   38.1440   31.6690   40.7020 C   0  0  0  0  0  0  0  0  0  0  0  0
   38.4350   30.8370   41.7070 N   0  0  0  0  0  0  0  0  0  0  0  0
   35.5800   29.0320   41.5680 H   0  0  0  0  0  0  0  0  0  0  0  0
   35.1940   30.5730   39.7780 H   0  0  0  0  0  0  0  0  0  0  0  0
   39.0360   32.7490   40.2870 C   0  0  0  0  0  0  0  0  0  0  0  0
   38.7670   34.0680   40.6380 C   0  0  0  0  0  0  0  0  0  0  0  0
   39.6080   35.0790   40.2380 C   0  0  0  0  0  0  0  0  0  0  0  0
   40.6900   34.6570   39.4900 C   0  0  0  0  0  0  0  0  0  0  0  0
   41.0050   33.3550   39.1120 C   0  0  0  0  0  0  0  0  0  0  0  0
   40.1250   32.4190   39.5470 N   0  0  0  0  0  0  0  0  0  0  0  0
   37.8910   34.3330   41.2330 H   0  0  0  0  0  0  0  0  0  0  0  0
   39.4870   36.1150   40.4560 H   0  0  0  0  0  0  0  0  0  0  0  0
   41.3940   35.4180   39.1440 H   0  0  0  0  0  0  0  0  0  0  0  0
   41.8720   33.1400   38.5290 H   0  0  0  0  0  0  0  0  0  0  0  0
  1 25  1  0  0  0  0
  1  2  1  0  0  0  0
  3  1  1  0  0  0  0
  4  5  1  0  0  0  0
  4  1  1  0  0  0  0
  5 10  1  0  0  0  0
  5  6  1  0  0  0  0
  6 13  1  0  0  0  0
  6 12  1  0  0  0  0
  7  6  1  0  0  0  0
  7 15  1  0  0  0  0
  8  7  1  0  0  0  0
  9  8  2  0  0  0  0
  9  4  1  0  0  0  0
 11  5  1  0  0  0  0
 14  7  1  0  0  0  0
 16  8  1  0  0  0  0
 17  9  1  0  0  0  0
 18 24  1  0  0  0  0
 18 17  1  0  0  0  0
 19 18  2  0  0  0  0
 20 19  1  0  0  0  0
 21 19  1  0  0  0  0
 21 22  1  0  0  0  0
 22 24  2  0  0  0  0
 23 22  1  0  0  0  0
 25 26  1  0  0  0  0
 25 27  1  0  0  0  0
 28 25  1  0  0  0  0
 29 34  1  0  0  0  0
 29 28  2  0  0  0  0
 30 29  1  0  0  0  0
 31 30  2  0  0  0  0
 31 32  1  0  0  0  0
 32 33  2  0  0  0  0
 33 28  1  0  0  0  0
 35 30  1  0  0  0  0
 36 37  1  0  0  0  0
 36 32  1  0  0  0  0
 37 42  1  0  0  0  0
 38 43  1  0  0  0  0
 38 37  2  0  0  0  0
 39 38  1  0  0  0  0
 40 39  2  0  0  0  0
 40 41  1  0  0  0  0
 41 36  2  0  0  0  0
 44 39  1  0  0  0  0
 45 40  1  0  0  0  0
M  END
>  <minimizedAffinity>
-5.6218071

$$$$

 OpenBabel03252507053D

 45 48  0  0  0  0  0  0  0  0999 V2000
   38.6600   31.8690   41.1320 C   0  0  0  0  0  0  0  0  0  0  0  0
   38.6450   32.2770   42.1660 H   0  0  0  0  0  0  0  0  0  0  0  0
   39.5080   31.1020   41.1740 H   0  0  0  0  0  0  0  0  0  0  0  0
   38.8300   32.8060   40.1960 N   0  0  0  0  0  0  0  0  0  0  0  0
   38.0230   33.9580   39.9570 C   0  0  0  0  0  0  0  0  0  0  0  0
   38.9540   35.0240   40.5290 C   0  0  0  0  0  0  0  0  0  0  0  0
   40.2460   35.0940   39.8690 C   0  0  0  0  0  0  0  0  0  0  0  0
   40.7500   33.9270   39.1810 C   0  0  0  0  0  0  0  0  0  0  0  0
   40.0200   32.6110   39.3370 C   0  0  0  0  0  0  0  0  0  0  0  0
   37.1550   33.9430   40.6490 H   0  0  0  0  0  0  0  0  0  0  0  0
   37.6620   34.1560   38.9640 H   0  0  0  0  0  0  0  0  0  0  0  0
   39.0070   34.8420   41.6370 H   0  0  0  0  0  0  0  0  0  0  0  0
   38.3770   35.9870   40.4370 H   0  0  0  0  0  0  0  0  0  0  0  0
   40.2180   35.9360   39.1170 H   0  0  0  0  0  0  0  0  0  0  0  0
   41.0210   35.4190   40.6050 H   0  0  0  0  0  0  0  0  0  0  0  0
   41.6060   33.8810   38.5790 H   0  0  0  0  0  0  0  0  0  0  0  0
   40.5100   31.1340   38.5940 S   0  0  0  0  0  0  0  0  0  0  0  0
   39.2820   30.1210   37.8580 C   0  0  0  0  0  0  0  0  0  0  0  0
   39.1400   28.6860   37.5190 C   0  0  0  0  0  0  0  0  0  0  0  0
   40.0920   27.9780   37.8920 H   0  0  0  0  0  0  0  0  0  0  0  0
   37.4610   28.6420   36.6670 S   0  0  0  0  0  0  0  0  0  0  0  0
   37.2950   30.5110   36.9340 C   0  0  0  0  0  0  0  0  0  0  0  0
   36.2940   30.7590   36.4790 H   0  0  0  0  0  0  0  0  0  0  0  0
   38.2510   30.8330   37.4740 N   0  0  0  0  0  0  0  0  0  0  0  0
   37.4370   31.0450   40.9450 C   0  0  0  0  0  0  0  0  0  0  0  0
   37.1640   30.9280   39.8740 H   0  0  0  0  0  0  0  0  0  0  0  0
   36.5340   31.4850   41.4550 H   0  0  0  0  0  0  0  0  0  0  0  0
   37.6720   29.7200   41.5440 C   0  0  0  0  0  0  0  0  0  0  0  0
   38.3260   29.6120   42.7500 C   0  0  0  0  0  0  0  0  0  0  0  0
   38.5380   28.3440   43.2760 C   0  0  0  0  0  0  0  0  0  0  0  0
   38.0800   27.2670   42.5630 N   0  0  0  0  0  0  0  0  0  0  0  0
   37.4510   27.4140   41.4040 C   0  0  0  0  0  0  0  0  0  0  0  0
   37.2590   28.6430   40.9150 N   0  0  0  0  0  0  0  0  0  0  0  0
   38.7370   30.3160   43.4540 H   0  0  0  0  0  0  0  0  0  0  0  0
   39.0320   28.0630   44.2040 H   0  0  0  0  0  0  0  0  0  0  0  0
   36.9780   26.2100   40.7250 C   0  0  0  0  0  0  0  0  0  0  0  0
   37.0170   24.9730   41.3610 C   0  0  0  0  0  0  0  0  0  0  0  0
   36.5760   23.8440   40.7130 C   0  0  0  0  0  0  0  0  0  0  0  0
   36.1150   24.0680   39.4290 C   0  0  0  0  0  0  0  0  0  0  0  0
   36.0550   25.2800   38.7480 C   0  0  0  0  0  0  0  0  0  0  0  0
   36.5090   26.3430   39.4580 N   0  0  0  0  0  0  0  0  0  0  0  0
   37.3950   24.8670   42.3790 H   0  0  0  0  0  0  0  0  0  0  0  0
   36.5650   22.8580   41.1140 H   0  0  0  0  0  0  0  0  0  0  0  0
   35.7510   23.2060   38.8650 H   0  0  0  0  0  0  0  0  0  0  0  0
   35.6780   25.3400   37.7520 H   0  0  0  0  0  0  0  0  0  0  0  0
  1  3  1  0  0  0  0
  1  2  1  0  0  0  0
  4  1  1  0  0  0  0
  5  4  1  0  0  0  0
  5  6  1  0  0  0  0
  5 10  1  0  0  0  0
  6 12  1  0  0  0  0
  7  6  1  0  0  0  0
  7 15  1  0  0  0  0
  8  9  2  0  0  0  0
  8  7  1  0  0  0  0
  9  4  1  0  0  0  0
 11  5  1  0  0  0  0
 13  6  1  0  0  0  0
 14  7  1  0  0  0  0
 16  8  1  0  0  0  0
 17  9  1  0  0  0  0
 18 17  1  0  0  0  0
 19 18  2  0  0  0  0
 19 20  1  0  0  0  0
 21 22  1  0  0  0  0
 21 19  1  0  0  0  0
 22 24  2  0  0  0  0
 23 22  1  0  0  0  0
 24 18  1  0  0  0  0
 25  1  1  0  0  0  0
 25 27  1  0  0  0  0
 25 28  1  0  0  0  0
 26 25  1  0  0  0  0
 28 29  1  0  0  0  0
 29 30  2  0  0  0  0
 29 34  1  0  0  0  0
 30 35  1  0  0  0  0
 31 30  1  0  0  0  0
 32 31  2  0  0  0  0
 33 32  1  0  0  0  0
 33 28  2  0  0  0  0
 36 37  1  0  0  0  0
 36 32  1  0  0  0  0
 37 42  1  0  0  0  0
 38 43  1  0  0  0  0
 38 37  2  0  0  0  0
 39 38  1  0  0  0  0
 40 39  2  0  0  0  0
 40 41  1  0  0  0  0
 41 36  2  0  0  0  0
 44 39  1  0  0  0  0
 45 40  1  0  0  0  0
M  END
>  <minimizedAffinity>
-5.52426481

$$$$

 OpenBabel03252507053D

 45 48  0  0  0  0  0  0  0  0999 V2000
   40.0330   27.5580   42.9780 C   0  0  0  0  0  0  0  0  0  0  0  0
   40.1820   28.4170   42.2890 H   0  0  0  0  0  0  0  0  0  0  0  0
   40.7090   27.8220   43.8630 H   0  0  0  0  0  0  0  0  0  0  0  0
   40.3160   26.3780   42.4210 N   0  0  0  0  0  0  0  0  0  0  0  0
   40.8240   25.2100   43.0610 C   0  0  0  0  0  0  0  0  0  0  0  0
   39.5490   24.3710   43.0720 C   0  0  0  0  0  0  0  0  0  0  0  0
   39.0100   24.1000   41.7520 C   0  0  0  0  0  0  0  0  0  0  0  0
   39.3260   24.9980   40.6640 C   0  0  0  0  0  0  0  0  0  0  0  0
   40.0360   26.2990   40.9690 C   0  0  0  0  0  0  0  0  0  0  0  0
   41.0190   25.4380   44.1300 H   0  0  0  0  0  0  0  0  0  0  0  0
   41.6890   24.7150   42.6570 H   0  0  0  0  0  0  0  0  0  0  0  0
   38.8330   24.8860   43.7710 H   0  0  0  0  0  0  0  0  0  0  0  0
   39.8320   23.4260   43.6180 H   0  0  0  0  0  0  0  0  0  0  0  0
   39.3400   23.0670   41.4360 H   0  0  0  0  0  0  0  0  0  0  0  0
   37.8970   24.0170   41.8150 H   0  0  0  0  0  0  0  0  0  0  0  0
   39.0940   24.8560   39.6520 H   0  0  0  0  0  0  0  0  0  0  0  0
   40.4620   27.4740   39.7820 S   0  0  0  0  0  0  0  0  0  0  0  0
   39.1900   28.1540   38.7840 C   0  0  0  0  0  0  0  0  0  0  0  0
   37.8960   27.6870   38.2340 C   0  0  0  0  0  0  0  0  0  0  0  0
   37.5680   26.5450   38.6030 H   0  0  0  0  0  0  0  0  0  0  0  0
   37.3410   29.1670   37.2090 S   0  0  0  0  0  0  0  0  0  0  0  0
   38.9180   30.0880   37.7170 C   0  0  0  0  0  0  0  0  0  0  0  0
   38.8250   31.0830   37.1970 H   0  0  0  0  0  0  0  0  0  0  0  0
   39.4920   29.3680   38.3950 N   0  0  0  0  0  0  0  0  0  0  0  0
   38.6580   27.6470   43.5360 C   0  0  0  0  0  0  0  0  0  0  0  0
   38.6330   28.1620   44.5210 H   0  0  0  0  0  0  0  0  0  0  0  0
   38.1870   26.6360   43.6960 H   0  0  0  0  0  0  0  0  0  0  0  0
   37.8110   28.3740   42.5750 C   0  0  0  0  0  0  0  0  0  0  0  0
   36.6440   27.8080   42.1140 C   0  0  0  0  0  0  0  0  0  0  0  0
   35.8810   28.5210   41.2000 C   0  0  0  0  0  0  0  0  0  0  0  0
   36.3310   29.7540   40.8070 N   0  0  0  0  0  0  0  0  0  0  0  0
   37.4620   30.2650   41.2760 C   0  0  0  0  0  0  0  0  0  0  0  0
   38.1830   29.5620   42.1540 N   0  0  0  0  0  0  0  0  0  0  0  0
   36.1230   26.8860   42.3080 H   0  0  0  0  0  0  0  0  0  0  0  0
   34.9410   28.2400   40.7280 H   0  0  0  0  0  0  0  0  0  0  0  0
   37.8540   31.5960   40.8170 C   0  0  0  0  0  0  0  0  0  0  0  0
   37.0070   32.3470   40.0070 C   0  0  0  0  0  0  0  0  0  0  0  0
   37.3850   33.5950   39.5750 C   0  0  0  0  0  0  0  0  0  0  0  0
   38.6330   33.9960   40.0130 C   0  0  0  0  0  0  0  0  0  0  0  0
   39.5160   33.2870   40.8220 C   0  0  0  0  0  0  0  0  0  0  0  0
   39.0670   32.0660   41.2040 N   0  0  0  0  0  0  0  0  0  0  0  0
   36.0320   31.9680   39.6960 H   0  0  0  0  0  0  0  0  0  0  0  0
   36.8090   34.2420   38.9550 H   0  0  0  0  0  0  0  0  0  0  0  0
   38.9860   34.9810   39.7010 H   0  0  0  0  0  0  0  0  0  0  0  0
   40.4610   33.6940   41.1030 H   0  0  0  0  0  0  0  0  0  0  0  0
  1 25  1  0  0  0  0
  1  3  1  0  0  0  0
  2  1  1  0  0  0  0
  4  1  1  0  0  0  0
  4  5  1  0  0  0  0
  5  6  1  0  0  0  0
  5 10  1  0  0  0  0
  6 13  1  0  0  0  0
  6 12  1  0  0  0  0
  7 15  1  0  0  0  0
  7  6  1  0  0  0  0
  8  9  2  0  0  0  0
  8  7  1  0  0  0  0
  9  4  1  0  0  0  0
 11  5  1  0  0  0  0
 14  7  1  0  0  0  0
 16  8  1  0  0  0  0
 17  9  1  0  0  0  0
 18 17  1  0  0  0  0
 19 20  1  0  0  0  0
 19 18  2  0  0  0  0
 21 22  1  0  0  0  0
 21 19  1  0  0  0  0
 22 24  2  0  0  0  0
 23 22  1  0  0  0  0
 24 18  1  0  0  0  0
 25 27  1  0  0  0  0
 25 26  1  0  0  0  0
 28 25  1  0  0  0  0
 29 34  1  0  0  0  0
 29 28  2  0  0  0  0
 30 29  1  0  0  0  0
 31 30  2  0  0  0  0
 31 32  1  0  0  0  0
 32 33  2  0  0  0  0
 33 28  1  0  0  0  0
 35 30  1  0  0  0  0
 36 41  1  0  0  0  0
 36 32  1  0  0  0  0
 37 36  2  0  0  0  0
 38 37  1  0  0  0  0
 38 39  2  0  0  0  0
 39 40  1  0  0  0  0
 40 45  1  0  0  0  0
 40 41  2  0  0  0  0
 42 37  1  0  0  0  0
 43 38  1  0  0  0  0
 44 39  1  0  0  0  0
M  END
>  <minimizedAffinity>
-5.51128721

$$$$

 OpenBabel03252507053D

 45 48  0  0  0  0  0  0  0  0999 V2000
   37.7660   30.8850   40.9000 C   0  0  0  0  0  0  0  0  0  0  0  0
   38.6710   30.5820   40.3310 H   0  0  0  0  0  0  0  0  0  0  0  0
   38.1820   31.0970   41.9450 H   0  0  0  0  0  0  0  0  0  0  0  0
   36.8000   29.9650   40.8850 N   0  0  0  0  0  0  0  0  0  0  0  0
   35.5140   30.0590   40.2760 C   0  0  0  0  0  0  0  0  0  0  0  0
   35.7530   29.1520   39.0720 C   0  0  0  0  0  0  0  0  0  0  0  0
   36.1100   27.7890   39.4230 C   0  0  0  0  0  0  0  0  0  0  0  0
   36.7140   27.5280   40.7110 C   0  0  0  0  0  0  0  0  0  0  0  0
   37.1430   28.6970   41.5700 C   0  0  0  0  0  0  0  0  0  0  0  0
   35.3920   31.0740   39.8420 H   0  0  0  0  0  0  0  0  0  0  0  0
   34.6340   29.8290   40.8510 H   0  0  0  0  0  0  0  0  0  0  0  0
   36.5040   29.6770   38.4190 H   0  0  0  0  0  0  0  0  0  0  0  0
   34.7940   29.2010   38.4810 H   0  0  0  0  0  0  0  0  0  0  0  0
   35.1840   27.1480   39.3560 H   0  0  0  0  0  0  0  0  0  0  0  0
   36.7840   27.3680   38.6370 H   0  0  0  0  0  0  0  0  0  0  0  0
   36.9150   26.5870   41.1250 H   0  0  0  0  0  0  0  0  0  0  0  0
   37.8900   28.5440   43.1160 S   0  0  0  0  0  0  0  0  0  0  0  0
   39.5760   28.0670   43.1860 C   0  0  0  0  0  0  0  0  0  0  0  0
   40.8640   28.6130   42.6990 C   0  0  0  0  0  0  0  0  0  0  0  0
   40.7700   29.7240   42.1460 H   0  0  0  0  0  0  0  0  0  0  0  0
   42.0870   27.2810   43.2250 S   0  0  0  0  0  0  0  0  0  0  0  0
   40.6570   26.2880   43.9740 C   0  0  0  0  0  0  0  0  0  0  0  0
   41.1580   25.3690   44.3910 H   0  0  0  0  0  0  0  0  0  0  0  0
   39.7150   26.9090   43.7840 N   0  0  0  0  0  0  0  0  0  0  0  0
   37.3370   32.2200   40.4060 C   0  0  0  0  0  0  0  0  0  0  0  0
   36.7480   32.7830   41.1620 H   0  0  0  0  0  0  0  0  0  0  0  0
   36.6890   32.1540   39.4860 H   0  0  0  0  0  0  0  0  0  0  0  0
   38.5370   32.9890   40.0380 C   0  0  0  0  0  0  0  0  0  0  0  0
   38.6780   34.2940   40.4530 C   0  0  0  0  0  0  0  0  0  0  0  0
   39.8200   34.9870   40.0740 C   0  0  0  0  0  0  0  0  0  0  0  0
   40.7490   34.3310   39.3100 N   0  0  0  0  0  0  0  0  0  0  0  0
   40.5770   33.0710   38.9330 C   0  0  0  0  0  0  0  0  0  0  0  0
   39.4700   32.4220   39.3060 N   0  0  0  0  0  0  0  0  0  0  0  0
   38.0880   34.9640   41.0540 H   0  0  0  0  0  0  0  0  0  0  0  0
   40.1030   36.0140   40.3020 H   0  0  0  0  0  0  0  0  0  0  0  0
   41.6300   32.4440   38.1370 C   0  0  0  0  0  0  0  0  0  0  0  0
   41.3740   31.2920   37.4000 C   0  0  0  0  0  0  0  0  0  0  0  0
   42.3710   30.7050   36.6580 C   0  0  0  0  0  0  0  0  0  0  0  0
   43.5890   31.3560   36.7250 C   0  0  0  0  0  0  0  0  0  0  0  0
   43.8970   32.5070   37.4440 C   0  0  0  0  0  0  0  0  0  0  0  0
   42.8580   33.0220   38.1480 N   0  0  0  0  0  0  0  0  0  0  0  0
   40.3860   30.8280   37.3910 H   0  0  0  0  0  0  0  0  0  0  0  0
   42.2730   29.8270   36.0640 H   0  0  0  0  0  0  0  0  0  0  0  0
   44.4190   30.9350   36.1550 H   0  0  0  0  0  0  0  0  0  0  0  0
   44.8770   32.9280   37.4250 H   0  0  0  0  0  0  0  0  0  0  0  0
  1  3  1  0  0  0  0
  2  1  1  0  0  0  0
  4  1  1  0  0  0  0
  4  9  1  0  0  0  0
  5 11  1  0  0  0  0
  5  4  1  0  0  0  0
  6  7  1  0  0  0  0
  6  5  1  0  0  0  0
  7  8  1  0  0  0  0
  8 16  1  0  0  0  0
  8  9  2  0  0  0  0
  9 17  1  0  0  0  0
 10  5  1  0  0  0  0
 12  6  1  0  0  0  0
 13  6  1  0  0  0  0
 14  7  1  0  0  0  0
 15  7  1  0  0  0  0
 17 18  1  0  0  0  0
 18 24  1  0  0  0  0
 19 18  2  0  0  0  0
 19 21  1  0  0  0  0
 20 19  1  0  0  0  0
 21 22  1  0  0  0  0
 22 23  1  0  0  0  0
 24 22  2  0  0  0  0
 25  1  1  0  0  0  0
 25 26  1  0  0  0  0
 27 25  1  0  0  0  0
 28 25  1  0  0  0  0
 28 29  1  0  0  0  0
 29 34  1  0  0  0  0
 30 35  1  0  0  0  0
 30 29  2  0  0  0  0
 31 30  1  0  0  0  0
 32 33  1  0  0  0  0
 32 31  2  0  0  0  0
 33 28  2  0  0  0  0
 36 41  1  0  0  0  0
 36 32  1  0  0  0  0
 37 36  2  0  0  0  0
 38 39  2  0  0  0  0
 38 37  1  0  0  0  0
 39 40  1  0  0  0  0
 40 41  2  0  0  0  0
 42 37  1  0  0  0  0
 43 38  1  0  0  0  0
 44 39  1  0  0  0  0
 45 40  1  0  0  0  0
M  END
>  <minimizedAffinity>
-5.50878048

$$$$

 OpenBabel03252507053D

 45 48  0  0  0  0  0  0  0  0999 V2000
   38.0300   31.7300   40.9420 C   0  0  0  0  0  0  0  0  0  0  0  0
   38.1720   32.0450   41.9980 H   0  0  0  0  0  0  0  0  0  0  0  0
   38.6460   30.7680   40.8780 H   0  0  0  0  0  0  0  0  0  0  0  0
   38.3970   32.6620   40.0590 N   0  0  0  0  0  0  0  0  0  0  0  0
   37.7930   33.9340   39.8300 C   0  0  0  0  0  0  0  0  0  0  0  0
   38.8440   34.8190   40.4950 C   0  0  0  0  0  0  0  0  0  0  0  0
   40.1660   34.7080   39.9050 C   0  0  0  0  0  0  0  0  0  0  0  0
   40.5210   33.5020   39.1920 C   0  0  0  0  0  0  0  0  0  0  0  0
   39.5880   32.3130   39.2520 C   0  0  0  0  0  0  0  0  0  0  0  0
   36.8950   34.0310   40.4770 H   0  0  0  0  0  0  0  0  0  0  0  0
   37.5240   34.2220   38.8300 H   0  0  0  0  0  0  0  0  0  0  0  0
   38.8050   34.5900   41.5960 H   0  0  0  0  0  0  0  0  0  0  0  0
   38.4300   35.8640   40.4170 H   0  0  0  0  0  0  0  0  0  0  0  0
   40.3120   35.5710   39.1910 H   0  0  0  0  0  0  0  0  0  0  0  0
   40.9400   34.8810   40.6930 H   0  0  0  0  0  0  0  0  0  0  0  0
   41.3930   33.3440   38.6320 H   0  0  0  0  0  0  0  0  0  0  0  0
   39.8840   30.8050   38.4700 S   0  0  0  0  0  0  0  0  0  0  0  0
   38.6200   30.1240   37.4620 C   0  0  0  0  0  0  0  0  0  0  0  0
   37.3790   30.6180   36.8220 C   0  0  0  0  0  0  0  0  0  0  0  0
   37.1820   31.8380   36.9660 H   0  0  0  0  0  0  0  0  0  0  0  0
   36.6900   29.0550   36.0290 S   0  0  0  0  0  0  0  0  0  0  0  0
   38.1720   28.0820   36.7000 C   0  0  0  0  0  0  0  0  0  0  0  0
   37.9890   27.0320   36.3350 H   0  0  0  0  0  0  0  0  0  0  0  0
   38.8090   28.8420   37.2700 N   0  0  0  0  0  0  0  0  0  0  0  0
   36.6250   31.2690   40.7840 C   0  0  0  0  0  0  0  0  0  0  0  0
   36.1190   31.7410   39.9160 H   0  0  0  0  0  0  0  0  0  0  0  0
   35.9890   31.4990   41.6850 H   0  0  0  0  0  0  0  0  0  0  0  0
   36.6320   29.8050   40.6200 C   0  0  0  0  0  0  0  0  0  0  0  0
   35.7800   29.2050   39.7210 C   0  0  0  0  0  0  0  0  0  0  0  0
   35.8100   27.8220   39.6050 C   0  0  0  0  0  0  0  0  0  0  0  0
   36.6910   27.1280   40.3920 N   0  0  0  0  0  0  0  0  0  0  0  0
   37.4970   27.7440   41.2460 C   0  0  0  0  0  0  0  0  0  0  0  0
   37.4520   29.0770   41.3440 N   0  0  0  0  0  0  0  0  0  0  0  0
   35.0470   29.5640   39.0180 H   0  0  0  0  0  0  0  0  0  0  0  0
   35.2170   27.1780   38.9570 H   0  0  0  0  0  0  0  0  0  0  0  0
   38.4190   26.9260   42.0300 C   0  0  0  0  0  0  0  0  0  0  0  0
   38.8620   27.3510   43.2790 C   0  0  0  0  0  0  0  0  0  0  0  0
   39.7330   26.5780   44.0080 C   0  0  0  0  0  0  0  0  0  0  0  0
   40.0980   25.3960   43.3920 C   0  0  0  0  0  0  0  0  0  0  0  0
   39.6860   24.9250   42.1490 C   0  0  0  0  0  0  0  0  0  0  0  0
   38.8270   25.7470   41.4960 N   0  0  0  0  0  0  0  0  0  0  0  0
   38.5340   28.3000   43.7080 H   0  0  0  0  0  0  0  0  0  0  0  0
   40.1270   26.8170   44.9680 H   0  0  0  0  0  0  0  0  0  0  0  0
   40.7900   24.7400   43.9250 H   0  0  0  0  0  0  0  0  0  0  0  0
   40.0320   23.9910   41.7660 H   0  0  0  0  0  0  0  0  0  0  0  0
  1  2  1  0  0  0  0
  3  1  1  0  0  0  0
  4  1  1  0  0  0  0
  5  4  1  0  0  0  0
  5 10  1  0  0  0  0
  5  6  1  0  0  0  0
  6 12  1  0  0  0  0
  7  6  1  0  0  0  0
  7 15  1  0  0  0  0
  8  9  2  0  0  0  0
  8  7  1  0  0  0  0
  9  4  1  0  0  0  0
 11  5  1  0  0  0  0
 13  6  1  0  0  0  0
 14  7  1  0  0  0  0
 16  8  1  0  0  0  0
 17  9  1  0  0  0  0
 18 17  1  0  0  0  0
 19 20  1  0  0  0  0
 19 18  2  0  0  0  0
 21 22  1  0  0  0  0
 21 19  1  0  0  0  0
 22 24  2  0  0  0  0
 23 22  1  0  0  0  0
 24 18  1  0  0  0  0
 25  1  1  0  0  0  0
 25 27  1  0  0  0  0
 26 25  1  0  0  0  0
 28 25  1  0  0  0  0
 28 33  1  0  0  0  0
 29 28  2  0  0  0  0
 30 29  1  0  0  0  0
 30 31  2  0  0  0  0
 31 32  1  0  0  0  0
 32 33  2  0  0  0  0
 32 36  1  0  0  0  0
 34 29  1  0  0  0  0
 35 30  1  0  0  0  0
 36 37  1  0  0  0  0
 37 42  1  0  0  0  0
 37 38  2  0  0  0  0
 38 43  1  0  0  0  0
 39 44  1  0  0  0  0
 39 38  1  0  0  0  0
 40 39  2  0  0  0  0
 41 36  2  0  0  0  0
 41 40  1  0  0  0  0
 45 40  1  0  0  0  0
M  END
>  <minimizedAffinity>
-5.49681234

$$$$

 OpenBabel03252507053D

 45 48  0  0  0  0  0  0  0  0999 V2000
   36.8650   27.3850   42.6250 C   0  0  0  0  0  0  0  0  0  0  0  0
   35.9570   27.0530   43.1720 H   0  0  0  0  0  0  0  0  0  0  0  0
   36.5010   28.3180   42.0700 H   0  0  0  0  0  0  0  0  0  0  0  0
   37.3710   26.4470   41.8210 N   0  0  0  0  0  0  0  0  0  0  0  0
   38.2190   25.3570   42.1780 C   0  0  0  0  0  0  0  0  0  0  0  0
   37.2010   24.2240   42.0860 C   0  0  0  0  0  0  0  0  0  0  0  0
   36.6090   24.0690   40.7690 C   0  0  0  0  0  0  0  0  0  0  0  0
   36.5740   25.2040   39.8740 C   0  0  0  0  0  0  0  0  0  0  0  0
   36.9670   26.5660   40.4020 C   0  0  0  0  0  0  0  0  0  0  0  0
   38.4640   25.4270   43.2590 H   0  0  0  0  0  0  0  0  0  0  0  0
   39.1320   25.1930   41.6340 H   0  0  0  0  0  0  0  0  0  0  0  0
   36.4580   24.3920   42.9130 H   0  0  0  0  0  0  0  0  0  0  0  0
   37.7660   23.3030   42.4080 H   0  0  0  0  0  0  0  0  0  0  0  0
   37.1490   23.2370   40.2300 H   0  0  0  0  0  0  0  0  0  0  0  0
   35.5650   23.6840   40.8740 H   0  0  0  0  0  0  0  0  0  0  0  0
   36.2790   25.1950   38.8690 H   0  0  0  0  0  0  0  0  0  0  0  0
   36.9600   28.0110   39.4620 S   0  0  0  0  0  0  0  0  0  0  0  0
   38.4720   28.5650   38.7680 C   0  0  0  0  0  0  0  0  0  0  0  0
   38.8820   29.5520   37.7420 C   0  0  0  0  0  0  0  0  0  0  0  0
   37.9430   30.2190   37.2730 H   0  0  0  0  0  0  0  0  0  0  0  0
   40.7490   29.3110   37.6800 S   0  0  0  0  0  0  0  0  0  0  0  0
   40.6030   27.9700   39.0120 C   0  0  0  0  0  0  0  0  0  0  0  0
   41.6670   27.6350   39.1710 H   0  0  0  0  0  0  0  0  0  0  0  0
   39.4890   27.8980   39.2580 N   0  0  0  0  0  0  0  0  0  0  0  0
   37.8340   27.9150   43.6200 C   0  0  0  0  0  0  0  0  0  0  0  0
   38.4030   27.1080   44.1290 H   0  0  0  0  0  0  0  0  0  0  0  0
   37.3370   28.5140   44.4350 H   0  0  0  0  0  0  0  0  0  0  0  0
   38.7680   28.8180   42.9260 C   0  0  0  0  0  0  0  0  0  0  0  0
   40.1190   28.5540   42.9300 C   0  0  0  0  0  0  0  0  0  0  0  0
   40.9660   29.4370   42.2730 C   0  0  0  0  0  0  0  0  0  0  0  0
   40.4090   30.5240   41.6530 N   0  0  0  0  0  0  0  0  0  0  0  0
   39.1000   30.7420   41.6700 C   0  0  0  0  0  0  0  0  0  0  0  0
   38.3020   29.8810   42.3090 N   0  0  0  0  0  0  0  0  0  0  0  0
   40.7350   27.7680   43.3330 H   0  0  0  0  0  0  0  0  0  0  0  0
   42.0490   29.3960   42.1710 H   0  0  0  0  0  0  0  0  0  0  0  0
   38.5920   31.9150   40.9630 C   0  0  0  0  0  0  0  0  0  0  0  0
   37.4180   31.8440   40.2200 C   0  0  0  0  0  0  0  0  0  0  0  0
   36.9490   32.9500   39.5530 C   0  0  0  0  0  0  0  0  0  0  0  0
   37.7350   34.0780   39.6980 C   0  0  0  0  0  0  0  0  0  0  0  0
   38.9140   34.2030   40.4270 C   0  0  0  0  0  0  0  0  0  0  0  0
   39.3060   33.0660   41.0550 N   0  0  0  0  0  0  0  0  0  0  0  0
   36.8450   30.9180   40.1460 H   0  0  0  0  0  0  0  0  0  0  0  0
   36.0650   32.9940   38.9600 H   0  0  0  0  0  0  0  0  0  0  0  0
   37.4110   34.9890   39.1900 H   0  0  0  0  0  0  0  0  0  0  0  0
   39.4440   35.1270   40.4730 H   0  0  0  0  0  0  0  0  0  0  0  0
  1  2  1  0  0  0  0
  1 25  1  0  0  0  0
  3  1  1  0  0  0  0
  4  5  1  0  0  0  0
  4  1  1  0  0  0  0
  5 10  1  0  0  0  0
  6  5  1  0  0  0  0
  6 13  1  0  0  0  0
  6 12  1  0  0  0  0
  7 15  1  0  0  0  0
  7  6  1  0  0  0  0
  8  9  2  0  0  0  0
  8  7  1  0  0  0  0
  9  4  1  0  0  0  0
 11  5  1  0  0  0  0
 14  7  1  0  0  0  0
 16  8  1  0  0  0  0
 17  9  1  0  0  0  0
 18 24  1  0  0  0  0
 18 17  1  0  0  0  0
 19 18  2  0  0  0  0
 20 19  1  0  0  0  0
 21 19  1  0  0  0  0
 21 22  1  0  0  0  0
 22 23  1  0  0  0  0
 22 24  2  0  0  0  0
 25 26  1  0  0  0  0
 25 27  1  0  0  0  0
 28 29  1  0  0  0  0
 28 25  1  0  0  0  0
 29 34  1  0  0  0  0
 30 29  2  0  0  0  0
 31 32  2  0  0  0  0
 31 30  1  0  0  0  0
 32 33  1  0  0  0  0
 33 28  2  0  0  0  0
 35 30  1  0  0  0  0
 36 41  1  0  0  0  0
 36 32  1  0  0  0  0
 37 36  2  0  0  0  0
 38 39  2  0  0  0  0
 38 37  1  0  0  0  0
 39 40  1  0  0  0  0
 40 45  1  0  0  0  0
 40 41  2  0  0  0  0
 42 37  1  0  0  0  0
 43 38  1  0  0  0  0
 44 39  1  0  0  0  0
M  END
>  <minimizedAffinity>
-5.47033024

$$$$

 OpenBabel03252507053D

 45 48  0  0  0  0  0  0  0  0999 V2000
   39.3870   29.2850   41.2870 C   0  0  0  0  0  0  0  0  0  0  0  0
   40.2100   30.0010   41.5020 H   0  0  0  0  0  0  0  0  0  0  0  0
   39.9460   28.3640   40.9010 H   0  0  0  0  0  0  0  0  0  0  0  0
   38.4830   29.7620   40.4290 N   0  0  0  0  0  0  0  0  0  0  0  0
   37.8340   29.0640   39.3680 C   0  0  0  0  0  0  0  0  0  0  0  0
   36.4550   28.8970   40.0020 C   0  0  0  0  0  0  0  0  0  0  0  0
   35.8020   30.1500   40.3330 C   0  0  0  0  0  0  0  0  0  0  0  0
   36.6110   31.3270   40.5590 C   0  0  0  0  0  0  0  0  0  0  0  0
   38.1140   31.1800   40.6450 C   0  0  0  0  0  0  0  0  0  0  0  0
   38.2420   28.0330   39.3080 H   0  0  0  0  0  0  0  0  0  0  0  0
   37.8300   29.4850   38.3780 H   0  0  0  0  0  0  0  0  0  0  0  0
   36.5860   28.1950   40.8710 H   0  0  0  0  0  0  0  0  0  0  0  0
   35.8660   28.2960   39.2520 H   0  0  0  0  0  0  0  0  0  0  0  0
   35.0720   30.4020   39.5100 H   0  0  0  0  0  0  0  0  0  0  0  0
   35.1520   30.0040   41.2310 H   0  0  0  0  0  0  0  0  0  0  0  0
   36.2610   32.3060   40.6940 H   0  0  0  0  0  0  0  0  0  0  0  0
   39.2040   32.4860   40.9260 S   0  0  0  0  0  0  0  0  0  0  0  0
   40.3450   32.9090   39.6630 C   0  0  0  0  0  0  0  0  0  0  0  0
   41.4650   33.8660   39.5080 C   0  0  0  0  0  0  0  0  0  0  0  0
   41.7310   34.5090   40.5400 H   0  0  0  0  0  0  0  0  0  0  0  0
   41.9830   33.5890   37.7190 S   0  0  0  0  0  0  0  0  0  0  0  0
   40.6250   32.2770   37.5470 C   0  0  0  0  0  0  0  0  0  0  0  0
   40.7290   31.9230   36.4830 H   0  0  0  0  0  0  0  0  0  0  0  0
   40.1070   32.2320   38.5660 N   0  0  0  0  0  0  0  0  0  0  0  0
   38.8130   28.8420   42.5840 C   0  0  0  0  0  0  0  0  0  0  0  0
   37.7250   29.0540   42.6620 H   0  0  0  0  0  0  0  0  0  0  0  0
   39.2970   29.3450   43.4690 H   0  0  0  0  0  0  0  0  0  0  0  0
   39.0470   27.3950   42.7270 C   0  0  0  0  0  0  0  0  0  0  0  0
   39.9280   26.9260   43.6750 C   0  0  0  0  0  0  0  0  0  0  0  0
   40.1290   25.5550   43.7680 C   0  0  0  0  0  0  0  0  0  0  0  0
   39.4340   24.7420   42.9110 N   0  0  0  0  0  0  0  0  0  0  0  0
   38.5920   25.2330   42.0130 C   0  0  0  0  0  0  0  0  0  0  0  0
   38.4140   26.5560   41.9380 N   0  0  0  0  0  0  0  0  0  0  0  0
   40.5400   27.3860   44.4310 H   0  0  0  0  0  0  0  0  0  0  0  0
   40.7790   25.0040   44.4460 H   0  0  0  0  0  0  0  0  0  0  0  0
   37.8780   24.2900   41.1550 C   0  0  0  0  0  0  0  0  0  0  0  0
   38.4690   23.0900   40.7720 C   0  0  0  0  0  0  0  0  0  0  0  0
   37.7940   22.2110   39.9600 C   0  0  0  0  0  0  0  0  0  0  0  0
   36.5310   22.6320   39.5890 C   0  0  0  0  0  0  0  0  0  0  0  0
   35.8950   23.8180   39.9430 C   0  0  0  0  0  0  0  0  0  0  0  0
   36.6290   24.6290   40.7460 N   0  0  0  0  0  0  0  0  0  0  0  0
   39.4740   22.8190   41.1010 H   0  0  0  0  0  0  0  0  0  0  0  0
   38.1610   21.2720   39.6140 H   0  0  0  0  0  0  0  0  0  0  0  0
   35.9470   21.9730   38.9440 H   0  0  0  0  0  0  0  0  0  0  0  0
   34.9110   24.0450   39.5990 H   0  0  0  0  0  0  0  0  0  0  0  0
  1  2  1  0  0  0  0
  1 25  1  0  0  0  0
  3  1  1  0  0  0  0
  4  9  1  0  0  0  0
  4  1  1  0  0  0  0
  5  6  1  0  0  0  0
  5  4  1  0  0  0  0
  6  7  1  0  0  0  0
  6 12  1  0  0  0  0
  7  8  1  0  0  0  0
  7 15  1  0  0  0  0
  8  9  2  0  0  0  0
  8 16  1  0  0  0  0
  9 17  1  0  0  0  0
 10  5  1  0  0  0  0
 11  5  1  0  0  0  0
 13  6  1  0  0  0  0
 14  7  1  0  0  0  0
 18 17  1  0  0  0  0
 19 18  2  0  0  0  0
 19 20  1  0  0  0  0
 21 19  1  0  0  0  0
 22 21  1  0  0  0  0
 22 24  2  0  0  0  0
 23 22  1  0  0  0  0
 24 18  1  0  0  0  0
 25 26  1  0  0  0  0
 25 28  1  0  0  0  0
 25 27  1  0  0  0  0
 28 29  1  0  0  0  0
 29 30  2  0  0  0  0
 29 34  1  0  0  0  0
 30 35  1  0  0  0  0
 31 30  1  0  0  0  0
 32 31  2  0  0  0  0
 33 32  1  0  0  0  0
 33 28  2  0  0  0  0
 36 32  1  0  0  0  0
 37 42  1  0  0  0  0
 37 36  1  0  0  0  0
 38 37  2  0  0  0  0
 39 40  2  0  0  0  0
 39 38  1  0  0  0  0
 40 41  1  0  0  0  0
 41 36  2  0  0  0  0
 43 38  1  0  0  0  0
 44 39  1  0  0  0  0
 45 40  1  0  0  0  0
M  END
>  <minimizedAffinity>
-5.42983389

$$$$
