
 OpenBabel03252503193D

 37 40  0  0  0  0  0  0  0  0999 V2000
   45.4440   34.0390   40.8060 C   0  0  0  0  0  0  0  0  0  0  0  0
   44.0860   33.8660   40.8000 C   0  0  0  0  0  0  0  0  0  0  0  0
   43.8040   33.2270   39.6360 N   0  0  0  0  0  0  0  0  0  0  0  0
   44.9450   33.0260   38.9700 C   0  0  0  0  0  0  0  0  0  0  0  0
   45.9550   33.5250   39.6900 N   0  0  0  0  0  0  0  0  0  0  0  0
   45.1710   32.4020   37.7120 N   0  0  0  0  0  0  0  0  0  0  0  0
   43.3920   34.1670   41.5490 H   0  0  0  0  0  0  0  0  0  0  0  0
   45.1420   33.0710   36.8920 H   0  0  0  0  0  0  0  0  0  0  0  0
   45.3490   31.3680   37.6180 H   0  0  0  0  0  0  0  0  0  0  0  0
   42.5150   32.8070   39.1370 C   0  0  0  0  0  0  0  0  0  0  0  0
   42.6620   32.0050   38.3560 H   0  0  0  0  0  0  0  0  0  0  0  0
   41.9590   32.2950   39.9470 H   0  0  0  0  0  0  0  0  0  0  0  0
   41.7390   33.9280   38.5190 C   0  0  0  0  0  0  0  0  0  0  0  0
   42.3340   35.2180   38.2890 C   0  0  0  0  0  0  0  0  0  0  0  0
   43.3290   35.4650   38.5310 H   0  0  0  0  0  0  0  0  0  0  0  0
   40.9540   36.1230   37.5460 S   0  0  0  0  0  0  0  0  0  0  0  0
   39.7980   34.6170   37.6630 C   0  0  0  0  0  0  0  0  0  0  0  0
   38.7600   34.6100   37.3290 H   0  0  0  0  0  0  0  0  0  0  0  0
   40.4750   33.8340   38.1390 N   0  0  0  0  0  0  0  0  0  0  0  0
   46.2730   34.6960   41.8740 C   0  0  0  0  0  0  0  0  0  0  0  0
   47.4480   35.1200   41.7160 O   0  0  0  0  0  0  0  0  0  0  0  0
   45.0840   36.0770   43.5090 C   0  0  0  0  0  0  0  0  0  0  0  0
   45.7280   34.8730   43.1760 C   0  0  0  0  0  0  0  0  0  0  0  0
   45.7660   33.9430   44.1980 C   0  0  0  0  0  0  0  0  0  0  0  0
   45.2400   34.1540   45.4030 N   0  0  0  0  0  0  0  0  0  0  0  0
   44.6250   35.3440   45.6700 C   0  0  0  0  0  0  0  0  0  0  0  0
   44.5550   36.2850   44.7260 N   0  0  0  0  0  0  0  0  0  0  0  0
   45.0000   36.8780   42.7700 H   0  0  0  0  0  0  0  0  0  0  0  0
   44.1940   35.5260   46.6460 H   0  0  0  0  0  0  0  0  0  0  0  0
   46.4070   32.6930   43.9380 C   0  0  0  0  0  0  0  0  0  0  0  0
   47.6790   32.2240   43.9640 C   0  0  0  0  0  0  0  0  0  0  0  0
   48.0020   30.9880   43.6700 C   0  0  0  0  0  0  0  0  0  0  0  0
   46.9800   30.1910   43.3340 C   0  0  0  0  0  0  0  0  0  0  0  0
   45.4980   31.2390   43.4390 S   0  0  0  0  0  0  0  0  0  0  0  0
   48.4140   33.0010   44.2610 H   0  0  0  0  0  0  0  0  0  0  0  0
   48.9990   30.5660   43.6760 H   0  0  0  0  0  0  0  0  0  0  0  0
   47.0060   29.0570   43.0320 H   0  0  0  0  0  0  0  0  0  0  0  0
  1 20  1  0  0  0  0
  2  1  2  0  0  0  0
  2  7  1  0  0  0  0
  3  2  1  0  0  0  0
  4  3  1  0  0  0  0
  4  5  2  0  0  0  0
  5  1  1  0  0  0  0
  6  4  1  0  0  0  0
  8  6  1  0  0  0  0
  9  6  1  0  0  0  0
 10  3  1  0  0  0  0
 10 12  1  0  0  0  0
 11 10  1  0  0  0  0
 13 10  1  0  0  0  0
 14 13  2  0  0  0  0
 14 15  1  0  0  0  0
 16 17  1  0  0  0  0
 16 14  1  0  0  0  0
 17 19  2  0  0  0  0
 18 17  1  0  0  0  0
 19 13  1  0  0  0  0
 20 23  1  0  0  0  0
 21 20  2  0  0  0  0
 22 27  1  0  0  0  0
 23 22  2  0  0  0  0
 23 24  1  0  0  0  0
 24 25  2  0  0  0  0
 25 26  1  0  0  0  0
 26 29  1  0  0  0  0
 27 26  2  0  0  0  0
 28 22  1  0  0  0  0
 30 31  2  0  0  0  0
 30 24  1  0  0  0  0
 31 35  1  0  0  0  0
 32 36  1  0  0  0  0
 32 31  1  0  0  0  0
 33 34  1  0  0  0  0
 33 32  2  0  0  0  0
 34 30  1  0  0  0  0
 37 33  1  0  0  0  0
M  END
>  <minimizedAffinity>
-5.14657307

>  <minimizedRMSD>
0.791269243

$$$$
