
 OpenBabel03252506053D

 41 45  0  0  0  0  0  0  0  0999 V2000
   44.8110   35.9900   43.3260 Cl  0  0  0  0  0  0  0  0  0  0  0  0
   45.5500   34.7430   44.2610 C   0  0  0  0  0  0  0  0  0  0  0  0
   46.6610   34.0660   43.7750 C   0  0  0  0  0  0  0  0  0  0  0  0
   47.1790   33.0890   44.6040 C   0  0  0  0  0  0  0  0  0  0  0  0
   46.6670   32.7590   45.8500 C   0  0  0  0  0  0  0  0  0  0  0  0
   45.5680   33.4470   46.2990 C   0  0  0  0  0  0  0  0  0  0  0  0
   44.9580   32.9960   47.8770 Cl  0  0  0  0  0  0  0  0  0  0  0  0
   45.0170   34.4320   45.5070 C   0  0  0  0  0  0  0  0  0  0  0  0
   48.0480   32.5780   44.1970 H   0  0  0  0  0  0  0  0  0  0  0  0
   44.1530   34.9630   45.8770 H   0  0  0  0  0  0  0  0  0  0  0  0
   47.3600   31.6930   46.5750 C   0  0  0  0  0  0  0  0  0  0  0  0
   47.4700   30.4140   46.1030 C   0  0  0  0  0  0  0  0  0  0  0  0
   48.1200   29.3860   46.7660 C   0  0  0  0  0  0  0  0  0  0  0  0
   48.7040   29.6610   47.9960 C   0  0  0  0  0  0  0  0  0  0  0  0
   49.3240   28.6530   48.6140 N   0  0  0  0  0  0  0  0  0  0  0  0
   49.9270   28.8170   49.8230 C   0  0  0  0  0  0  0  0  0  0  0  0
   49.8610   30.0980   50.3790 C   0  0  0  0  0  0  0  0  0  0  0  0
   49.2170   31.1220   49.7250 C   0  0  0  0  0  0  0  0  0  0  0  0
   48.6180   30.9180   48.5030 C   0  0  0  0  0  0  0  0  0  0  0  0
   47.9590   31.9350   47.8170 C   0  0  0  0  0  0  0  0  0  0  0  0
   46.9960   30.2380   45.1280 H   0  0  0  0  0  0  0  0  0  0  0  0
   48.1550   28.4050   46.3090 H   0  0  0  0  0  0  0  0  0  0  0  0
   50.4400   28.0290   50.3570 H   0  0  0  0  0  0  0  0  0  0  0  0
   50.3190   30.3080   51.3450 H   0  0  0  0  0  0  0  0  0  0  0  0
   49.1680   32.1150   50.1660 H   0  0  0  0  0  0  0  0  0  0  0  0
   47.9240   32.9260   48.2780 H   0  0  0  0  0  0  0  0  0  0  0  0
   48.8530   35.4900   41.2510 C   0  0  0  0  0  0  0  0  0  0  0  0
   48.3580   34.9560   40.0500 C   0  0  0  0  0  0  0  0  0  0  0  0
   47.2540   34.0950   40.1200 C   0  0  0  0  0  0  0  0  0  0  0  0
   46.7600   33.8530   41.3420 N   0  0  0  0  0  0  0  0  0  0  0  0
   47.2370   34.3660   42.4820 C   0  0  0  0  0  0  0  0  0  0  0  0
   48.3030   35.2000   42.4460 N   0  0  0  0  0  0  0  0  0  0  0  0
   49.6890   36.1270   41.0710 H   0  0  0  0  0  0  0  0  0  0  0  0
   48.7770   35.1680   39.0750 H   0  0  0  0  0  0  0  0  0  0  0  0
   46.6770   33.4930   38.9430 C   0  0  0  0  0  0  0  0  0  0  0  0
   47.3770   33.4920   37.6800 C   0  0  0  0  0  0  0  0  0  0  0  0
   48.3610   33.8880   37.3960 H   0  0  0  0  0  0  0  0  0  0  0  0
   46.1440   32.6000   36.5500 S   0  0  0  0  0  0  0  0  0  0  0  0
   44.9050   32.3830   37.9700 C   0  0  0  0  0  0  0  0  0  0  0  0
   43.9450   31.9140   37.9320 H   0  0  0  0  0  0  0  0  0  0  0  0
   45.6500   32.9000   38.5690 N   0  0  0  0  0  0  0  0  0  0  0  0
  1  2  1  0  0  0  0
  2  8  1  0  0  0  0
  3  2  2  0  0  0  0
  3  4  1  0  0  0  0
  4  5  2  0  0  0  0
  5  6  1  0  0  0  0
  5 11  1  0  0  0  0
  6  7  1  0  0  0  0
  8 10  1  0  0  0  0
  8  6  2  0  0  0  0
  9  4  1  0  0  0  0
 11 20  1  0  0  0  0
 12 11  2  0  0  0  0
 12 13  1  0  0  0  0
 13 14  2  0  0  0  0
 14 19  1  0  0  0  0
 14 15  1  0  0  0  0
 15 16  2  0  0  0  0
 16 23  1  0  0  0  0
 16 17  1  0  0  0  0
 17 24  1  0  0  0  0
 18 25  1  0  0  0  0
 18 17  2  0  0  0  0
 19 18  1  0  0  0  0
 20 26  1  0  0  0  0
 20 19  2  0  0  0  0
 21 12  1  0  0  0  0
 22 13  1  0  0  0  0
 27 32  1  0  0  0  0
 28 29  1  0  0  0  0
 28 27  2  0  0  0  0
 29 30  2  0  0  0  0
 30 31  1  0  0  0  0
 31  3  1  0  0  0  0
 32 31  2  0  0  0  0
 33 27  1  0  0  0  0
 34 28  1  0  0  0  0
 35 29  1  0  0  0  0
 36 35  2  0  0  0  0
 37 36  1  0  0  0  0
 38 36  1  0  0  0  0
 38 39  1  0  0  0  0
 39 41  2  0  0  0  0
 40 39  1  0  0  0  0
 41 35  1  0  0  0  0
M  END
>  <minimizedAffinity>
-7.05073547

>  <minimizedRMSD>
0.136675015

$$$$
