
 OpenBabel03252509263D

 28 30  0  0  1  0  0  0  0  0999 V2000
   46.5850   35.0900   41.9380 C   0  0  1  0  0  0  0  0  0  0  0  0
   48.1310   35.2800   41.9470 C   0  0  0  0  0  0  0  0  0  0  0  0
   47.3390   34.0960   41.2980 C   0  0  2  0  0  0  0  0  0  0  0  0
   46.0520   35.8930   41.3880 H   0  0  0  0  0  0  0  0  0  0  0  0
   48.6820   35.0760   42.8640 H   0  0  0  0  0  0  0  0  0  0  0  0
   48.5010   35.9860   41.1950 H   0  0  0  0  0  0  0  0  0  0  0  0
   47.5950   33.1130   41.8030 H   0  0  0  0  0  0  0  0  0  0  0  0
   44.6570   35.3790   45.1480 C   0  0  0  0  0  0  0  0  0  0  0  0
   45.1260   35.7070   43.8350 C   0  0  0  0  0  0  0  0  0  0  0  0
   46.0750   34.8740   43.3430 C   0  0  0  0  0  0  0  0  0  0  0  0
   46.5480   33.7950   44.0570 N   0  0  0  0  0  0  0  0  0  0  0  0
   46.0820   33.5200   45.2880 C   0  0  0  0  0  0  0  0  0  0  0  0
   45.1330   34.3150   45.8330 N   0  0  0  0  0  0  0  0  0  0  0  0
   43.8910   36.0620   45.5280 H   0  0  0  0  0  0  0  0  0  0  0  0
   46.4710   32.6700   45.8240 H   0  0  0  0  0  0  0  0  0  0  0  0
   44.6610   36.8280   43.1260 N   0  0  0  0  0  0  0  0  0  0  0  0
   45.4090   37.5170   43.4180 H   0  0  0  0  0  0  0  0  0  0  0  0
   43.8410   36.9790   42.4960 H   0  0  0  0  0  0  0  0  0  0  0  0
   47.3990   33.9680   39.7970 C   0  0  0  0  0  0  0  0  0  0  0  0
   48.4230   33.6860   39.4780 H   0  0  0  0  0  0  0  0  0  0  0  0
   47.2410   34.9870   39.3920 H   0  0  0  0  0  0  0  0  0  0  0  0
   46.4010   32.9730   39.2860 C   0  0  0  0  0  0  0  0  0  0  0  0
   46.7650   31.6780   38.9240 C   0  0  0  0  0  0  0  0  0  0  0  0
   47.8110   31.2830   38.9840 H   0  0  0  0  0  0  0  0  0  0  0  0
   45.1510   30.9440   38.3870 S   0  0  0  0  0  0  0  0  0  0  0  0
   44.2650   32.5660   38.7620 C   0  0  0  0  0  0  0  0  0  0  0  0
   43.1900   32.7440   38.6250 H   0  0  0  0  0  0  0  0  0  0  0  0
   45.1100   33.2480   39.1420 N   0  0  0  0  0  0  0  0  0  0  0  0
  1  4  1  6  0  0  0
  1  2  1  0  0  0  0
  1 10  1  0  0  0  0
  2  5  1  0  0  0  0
  3  7  1  1  0  0  0
  3  1  1  0  0  0  0
  3  2  1  0  0  0  0
  6  2  1  0  0  0  0
  8 14  1  0  0  0  0
  8 13  1  0  0  0  0
  9  8  2  0  0  0  0
 10  9  1  0  0  0  0
 10 11  2  0  0  0  0
 11 12  1  0  0  0  0
 12 15  1  0  0  0  0
 12 13  2  0  0  0  0
 16 17  1  0  0  0  0
 16  9  1  0  0  0  0
 18 16  1  0  0  0  0
 19  3  1  0  0  0  0
 20 19  1  0  0  0  0
 21 19  1  0  0  0  0
 22 19  1  0  0  0  0
 23 24  1  0  0  0  0
 23 22  2  0  0  0  0
 25 26  1  0  0  0  0
 25 23  1  0  0  0  0
 26 28  2  0  0  0  0
 27 26  1  0  0  0  0
 28 22  1  0  0  0  0
M  END
>  <minimizedAffinity>
-4.42180729

>  <minimizedRMSD>
0.841670692

$$$$
