
 OpenBabel03252508593D

 43 45  0  0  1  0  0  0  0  0999 V2000
   46.6820   34.4930   43.6020 N   0  0  0  0  0  0  0  0  0  0  0  0
   46.2310   35.5280   42.7410 C   0  0  0  0  0  0  0  0  0  0  0  0
   44.7320   35.7330   42.7170 C   0  0  0  0  0  0  0  0  0  0  0  0
   44.0320   35.4340   44.0160 C   0  0  0  0  0  0  0  0  0  0  0  0
   45.0290   35.1220   45.1100 C   0  0  0  0  0  0  0  0  0  0  0  0
   45.8320   33.9040   44.5230 C   0  0  2  0  0  0  0  0  0  0  0  0
   46.5660   35.4640   41.7000 H   0  0  0  0  0  0  0  0  0  0  0  0
   46.6870   36.4750   43.1440 H   0  0  0  0  0  0  0  0  0  0  0  0
   44.2700   35.1710   41.8640 H   0  0  0  0  0  0  0  0  0  0  0  0
   44.5390   36.8030   42.4900 H   0  0  0  0  0  0  0  0  0  0  0  0
   43.4420   34.5050   43.8590 H   0  0  0  0  0  0  0  0  0  0  0  0
   43.3150   36.2230   44.2980 H   0  0  0  0  0  0  0  0  0  0  0  0
   45.6870   35.9910   45.2110 H   0  0  0  0  0  0  0  0  0  0  0  0
   44.5100   34.8080   46.0200 H   0  0  0  0  0  0  0  0  0  0  0  0
   45.0760   33.1930   44.1330 H   0  0  0  0  0  0  0  0  0  0  0  0
   47.7670   33.7220   43.0740 C   0  0  0  0  0  0  0  0  0  0  0  0
   48.3690   33.2900   43.9020 H   0  0  0  0  0  0  0  0  0  0  0  0
   48.4290   34.4150   42.5040 H   0  0  0  0  0  0  0  0  0  0  0  0
   47.2180   32.6420   42.2000 C   0  0  0  0  0  0  0  0  0  0  0  0
   47.3980   31.6300   42.5700 H   0  0  0  0  0  0  0  0  0  0  0  0
   46.1050   32.7620   42.0810 H   0  0  0  0  0  0  0  0  0  0  0  0
   49.3330   32.1340   39.1340 C   0  0  0  0  0  0  0  0  0  0  0  0
   48.8050   31.9890   40.4300 C   0  0  0  0  0  0  0  0  0  0  0  0
   47.7690   32.8040   40.8280 C   0  0  0  0  0  0  0  0  0  0  0  0
   47.3100   33.7070   39.9460 N   0  0  0  0  0  0  0  0  0  0  0  0
   47.8210   33.8380   38.7120 C   0  0  0  0  0  0  0  0  0  0  0  0
   48.8320   33.0580   38.2910 N   0  0  0  0  0  0  0  0  0  0  0  0
   50.1530   31.4810   38.8320 H   0  0  0  0  0  0  0  0  0  0  0  0
   49.2520   31.2280   41.0560 H   0  0  0  0  0  0  0  0  0  0  0  0
   47.3160   34.6180   38.1580 H   0  0  0  0  0  0  0  0  0  0  0  0
   46.5140   33.4520   45.6420 O   0  0  0  0  0  0  0  0  0  0  0  0
   45.5610   31.1210   44.7920 O   0  0  0  0  0  0  0  0  0  0  0  0
   46.2170   31.8340   45.9800 P   0  0  2  0  0  0  0  0  0  0  0  0
   45.0280   31.8160   47.2090 O   0  0  0  0  0  0  0  0  0  0  0  0
   45.2230   32.5250   47.8670 H   0  0  0  0  0  0  0  0  0  0  0  0
   47.5610   31.0460   46.5510 O   0  0  0  0  0  0  0  0  0  0  0  0
   47.6190   29.7050   46.8990 C   0  0  0  0  0  0  0  0  0  0  0  0
   46.6070   28.7010   46.6580 C   0  0  0  0  0  0  0  0  0  0  0  0
   45.6730   29.0860   46.1200 H   0  0  0  0  0  0  0  0  0  0  0  0
   47.4270   27.1730   47.4150 S   0  0  0  0  0  0  0  0  0  0  0  0
   48.9450   28.2100   47.8910 C   0  0  0  0  0  0  0  0  0  0  0  0
   49.7470   27.6640   48.4050 H   0  0  0  0  0  0  0  0  0  0  0  0
   48.7260   29.3110   47.5230 N   0  0  0  0  0  0  0  0  0  0  0  0
  1  6  1  0  0  0  0
  2  8  1  0  0  0  0
  2  1  1  0  0  0  0
  3  2  1  0  0  0  0
  3  4  1  0  0  0  0
  4 12  1  0  0  0  0
  4  5  1  0  0  0  0
  5 13  1  0  0  0  0
  5 14  1  0  0  0  0
  6 15  1  6  0  0  0
  6  5  1  0  0  0  0
  6 31  1  0  0  0  0
  7  2  1  0  0  0  0
  9  3  1  0  0  0  0
 10  3  1  0  0  0  0
 11  4  1  0  0  0  0
 16  1  1  0  0  0  0
 16 17  1  0  0  0  0
 18 16  1  0  0  0  0
 19 20  1  0  0  0  0
 19 16  1  0  0  0  0
 21 19  1  0  0  0  0
 22 23  1  0  0  0  0
 23 24  2  0  0  0  0
 23 29  1  0  0  0  0
 24 19  1  0  0  0  0
 25 24  1  0  0  0  0
 26 25  2  0  0  0  0
 27 26  1  0  0  0  0
 27 22  2  0  0  0  0
 28 22  1  0  0  0  0
 30 26  1  0  0  0  0
 31 33  1  0  0  0  0
 33 32  2  6  0  0  0
 33 36  1  0  0  0  0
 33 34  1  0  0  0  0
 34 35  1  0  0  0  0
 36 37  1  0  0  0  0
 37 43  1  0  0  0  0
 38 37  2  0  0  0  0
 38 40  1  0  0  0  0
 39 38  1  0  0  0  0
 40 41  1  0  0  0  0
 41 42  1  0  0  0  0
 43 41  2  0  0  0  0
M  END
>  <minimizedAffinity>
-4.18481731

>  <minimizedRMSD>
0.959213436

$$$$
