
 OpenBabel03252503193D

 37 40  0  0  0  0  0  0  0  0999 V2000
   45.6220   34.0280   40.8070 C   0  0  0  0  0  0  0  0  0  0  0  0
   44.2760   33.7840   40.7740 C   0  0  0  0  0  0  0  0  0  0  0  0
   44.0480   33.1450   39.5990 N   0  0  0  0  0  0  0  0  0  0  0  0
   45.2090   33.0110   38.9520 C   0  0  0  0  0  0  0  0  0  0  0  0
   46.1790   33.5550   39.6960 N   0  0  0  0  0  0  0  0  0  0  0  0
   45.4900   32.4140   37.6930 N   0  0  0  0  0  0  0  0  0  0  0  0
   43.5540   34.0410   41.5140 H   0  0  0  0  0  0  0  0  0  0  0  0
   45.4410   33.0900   36.8780 H   0  0  0  0  0  0  0  0  0  0  0  0
   45.7240   31.3920   37.5910 H   0  0  0  0  0  0  0  0  0  0  0  0
   42.7920   32.6640   39.0730 C   0  0  0  0  0  0  0  0  0  0  0  0
   42.9940   31.9430   38.2270 H   0  0  0  0  0  0  0  0  0  0  0  0
   42.2870   32.0440   39.8400 H   0  0  0  0  0  0  0  0  0  0  0  0
   41.9210   33.7650   38.5530 C   0  0  0  0  0  0  0  0  0  0  0  0
   42.4370   35.0900   38.3290 C   0  0  0  0  0  0  0  0  0  0  0  0
   43.4340   35.3790   38.5090 H   0  0  0  0  0  0  0  0  0  0  0  0
   40.9650   35.9510   37.7190 S   0  0  0  0  0  0  0  0  0  0  0  0
   39.8930   34.3860   37.8640 C   0  0  0  0  0  0  0  0  0  0  0  0
   38.8350   34.3380   37.6040 H   0  0  0  0  0  0  0  0  0  0  0  0
   40.6390   33.6220   38.2610 N   0  0  0  0  0  0  0  0  0  0  0  0
   46.3970   34.7160   41.8970 C   0  0  0  0  0  0  0  0  0  0  0  0
   47.5660   35.1680   41.7760 O   0  0  0  0  0  0  0  0  0  0  0  0
   45.1520   36.0970   43.4890 C   0  0  0  0  0  0  0  0  0  0  0  0
   45.8020   34.8910   43.1770 C   0  0  0  0  0  0  0  0  0  0  0  0
   45.7950   33.9570   44.1960 C   0  0  0  0  0  0  0  0  0  0  0  0
   45.2230   34.1660   45.3800 N   0  0  0  0  0  0  0  0  0  0  0  0
   44.6050   35.3580   45.6280 C   0  0  0  0  0  0  0  0  0  0  0  0
   44.5770   36.3040   44.6850 N   0  0  0  0  0  0  0  0  0  0  0  0
   45.1020   36.9010   42.7510 H   0  0  0  0  0  0  0  0  0  0  0  0
   44.1370   35.5400   46.5870 H   0  0  0  0  0  0  0  0  0  0  0  0
   46.4390   32.7040   43.9570 C   0  0  0  0  0  0  0  0  0  0  0  0
   47.7110   32.2360   43.9980 C   0  0  0  0  0  0  0  0  0  0  0  0
   48.0380   30.9980   43.7220 C   0  0  0  0  0  0  0  0  0  0  0  0
   47.0180   30.1950   43.3880 C   0  0  0  0  0  0  0  0  0  0  0  0
   45.5350   31.2430   43.4680 S   0  0  0  0  0  0  0  0  0  0  0  0
   48.4440   33.0180   44.2910 H   0  0  0  0  0  0  0  0  0  0  0  0
   49.0350   30.5760   43.7410 H   0  0  0  0  0  0  0  0  0  0  0  0
   47.0480   29.0580   43.1010 H   0  0  0  0  0  0  0  0  0  0  0  0
  1 20  1  0  0  0  0
  2  1  2  0  0  0  0
  2  7  1  0  0  0  0
  3  2  1  0  0  0  0
  4  3  1  0  0  0  0
  4  5  2  0  0  0  0
  5  1  1  0  0  0  0
  6  4  1  0  0  0  0
  8  6  1  0  0  0  0
  9  6  1  0  0  0  0
 10  3  1  0  0  0  0
 10 12  1  0  0  0  0
 11 10  1  0  0  0  0
 13 10  1  0  0  0  0
 14 15  1  0  0  0  0
 14 13  2  0  0  0  0
 16 17  1  0  0  0  0
 16 14  1  0  0  0  0
 17 19  2  0  0  0  0
 18 17  1  0  0  0  0
 19 13  1  0  0  0  0
 20 23  1  0  0  0  0
 21 20  2  0  0  0  0
 22 27  1  0  0  0  0
 23 22  2  0  0  0  0
 23 24  1  0  0  0  0
 24 25  2  0  0  0  0
 25 26  1  0  0  0  0
 26 29  1  0  0  0  0
 27 26  2  0  0  0  0
 28 22  1  0  0  0  0
 30 31  2  0  0  0  0
 30 24  1  0  0  0  0
 31 35  1  0  0  0  0
 32 36  1  0  0  0  0
 32 31  1  0  0  0  0
 33 34  1  0  0  0  0
 33 32  2  0  0  0  0
 34 30  1  0  0  0  0
 37 33  1  0  0  0  0
M  END
>  <minimizedAffinity>
-5.11797237

>  <minimizedRMSD>
0.763806999

$$$$
