REMARK  Name = 
REMARK  4 active torsions:
REMARK  status: ('A' for Active; 'I' for Inactive)
REMARK    1  A    between atoms: C_2  and  C_11
REMARK    2  A    between atoms: C_3  and  C_7
REMARK    3  A    between atoms: C_11  and  N_12
REMARK    4  A    between atoms: N_12  and  C_18
REMARK                            x       y       z     vdW  Elec       q    Type
REMARK                         _______ _______ _______ _____ _____    ______ ____
ROOT
ATOM      1  C   UNL     1      44.935  34.924  45.044  0.00  0.00    +0.000 A 
ATOM      2  C   UNL     1      45.445  35.178  43.764  0.00  0.00    +0.000 A 
ATOM      3  C   UNL     1      46.512  34.391  43.358  0.00  0.00    +0.000 A 
ATOM      4  N   UNL     1      47.011  33.434  44.186  0.00  0.00    +0.000 NA
ATOM      5  C   UNL     1      46.490  33.225  45.408  0.00  0.00    +0.000 A 
ATOM      6  N   UNL     1      45.450  33.971  45.838  0.00  0.00    +0.000 NA
ATOM      7  H   UNL     1      44.097  35.481  45.445  0.00  0.00    +0.000 HD
ATOM      8  H   UNL     1      46.956  32.440  46.002  0.00  0.00    +0.000 HD
ENDROOT
BRANCH   3   9
ATOM      9  C   UNL     1      47.028  34.679  41.999  0.00  0.00    +0.000 C 
ATOM     10  F   UNL     1      47.959  33.711  41.660  0.00  0.00    +0.000 F 
ATOM     11  F   UNL     1      47.696  35.866  42.083  0.00  0.00    +0.000 F 
ATOM     12  F   UNL     1      46.065  34.617  41.051  0.00  0.00    +0.000 F 
ENDBRANCH   3   9
BRANCH   2  13
ATOM     13  C   UNL     1      44.871  36.225  42.917  0.00  0.00    +0.000 C 
ATOM     14  H   UNL     1      45.460  36.496  42.033  0.00  0.00    +0.000 HD
ATOM     15  H   UNL     1      43.813  36.037  42.751  0.00  0.00    +0.000 HD
BRANCH  13  16
ATOM     16  N   UNL     1      44.979  37.517  43.604  0.00  0.00    +0.000 N 
ATOM     17  H   UNL     1      44.105  38.073  43.837  0.00  0.00    +0.000 HD
BRANCH  16  18
ATOM     18  C   UNL     1      46.084  38.273  44.075  0.00  0.00    +0.000 A 
ATOM     19  C   UNL     1      45.779  38.936  45.234  0.00  0.00    +0.000 A 
ATOM     20  H   UNL     1      44.918  39.066  45.936  0.00  0.00    +0.000 HD
ATOM     21  S   UNL     1      47.300  39.813  45.641  0.00  0.00    +0.000 S 
ATOM     22  C   UNL     1      48.149  39.094  44.083  0.00  0.00    +0.000 A 
ATOM     23  H   UNL     1      49.265  39.365  43.839  0.00  0.00    +0.000 HD
ATOM     24  N   UNL     1      47.310  38.486  43.675  0.00  0.00    +0.000 NA
ENDBRANCH  16  18
ENDBRANCH  13  16
ENDBRANCH   2  13
TORSDOF 4
