
 OpenBabel03252507343D

 47 50  0  0  1  0  0  0  0  0999 V2000
   38.0430   31.3190   41.0050 C   0  0  0  0  0  0  0  0  0  0  0  0
   36.6990   31.3900   40.6530 C   0  0  0  0  0  0  0  0  0  0  0  0
   35.8870   30.2410   40.7840 C   0  0  0  0  0  0  0  0  0  0  0  0
   36.5050   29.0910   41.2660 N   0  0  0  0  0  0  0  0  0  0  0  0
   37.8020   29.0910   41.5840 C   0  0  0  0  0  0  0  0  0  0  0  0
   38.5600   30.1830   41.4580 N   0  0  0  0  0  0  0  0  0  0  0  0
   36.0440   32.1250   40.2430 H   0  0  0  0  0  0  0  0  0  0  0  0
   34.8610   30.1030   40.5750 H   0  0  0  0  0  0  0  0  0  0  0  0
   38.8330   32.5260   40.8740 C   0  0  2  0  0  0  0  0  0  0  0  0
   38.0420   33.6470   40.1350 C   0  0  0  0  0  0  0  0  0  0  0  0
   38.8280   34.9110   40.1610 C   0  0  0  0  0  0  0  0  0  0  0  0
   40.2860   34.7850   39.8690 C   0  0  0  0  0  0  0  0  0  0  0  0
   40.9040   33.5950   40.3980 C   0  0  0  0  0  0  0  0  0  0  0  0
   40.0810   32.3090   40.1700 C   0  0  2  0  0  0  0  0  0  0  0  0
   38.9830   32.9490   41.8850 H   0  0  0  0  0  0  0  0  0  0  0  0
   37.7350   33.3250   39.1450 H   0  0  0  0  0  0  0  0  0  0  0  0
   37.1130   33.7520   40.7320 H   0  0  0  0  0  0  0  0  0  0  0  0
   38.3990   35.5640   39.3460 H   0  0  0  0  0  0  0  0  0  0  0  0
   38.5490   35.4350   41.0950 H   0  0  0  0  0  0  0  0  0  0  0  0
   40.6890   35.3350   39.0150 H   0  0  0  0  0  0  0  0  0  0  0  0
   40.6910   35.5600   40.6370 H   0  0  0  0  0  0  0  0  0  0  0  0
   41.1730   33.5490   41.4740 H   0  0  0  0  0  0  0  0  0  0  0  0
   41.8750   33.4050   39.8630 H   0  0  0  0  0  0  0  0  0  0  0  0
   40.7690   31.5500   40.5440 H   0  0  0  0  0  0  0  0  0  0  0  0
   39.8240   32.1680   38.7350 N   0  0  0  0  0  0  0  0  0  0  0  0
   39.9090   31.0550   37.8800 C   0  0  0  0  0  0  0  0  0  0  0  0
   39.0200   30.1310   37.8430 O   0  0  0  0  0  0  0  0  0  0  0  0
   41.0640   31.0340   37.0420 N   0  0  0  0  0  0  0  0  0  0  0  0
   39.5760   33.0210   38.1050 H   0  0  0  0  0  0  0  0  0  0  0  0
   41.4290   31.6650   36.3060 H   0  0  0  0  0  0  0  0  0  0  0  0
   41.9220   30.4400   36.8480 H   0  0  0  0  0  0  0  0  0  0  0  0
   38.3970   27.8410   42.0640 C   0  0  0  0  0  0  0  0  0  0  0  0
   38.9910   27.7440   43.2810 C   0  0  0  0  0  0  0  0  0  0  0  0
   39.5700   26.6150   43.8040 C   0  0  0  0  0  0  0  0  0  0  0  0
   39.5090   25.5140   42.9650 C   0  0  0  0  0  0  0  0  0  0  0  0
   38.9110   25.5640   41.7060 C   0  0  0  0  0  0  0  0  0  0  0  0
   38.3660   26.7470   41.2910 N   0  0  0  0  0  0  0  0  0  0  0  0
   38.9980   28.6480   43.8810 H   0  0  0  0  0  0  0  0  0  0  0  0
   40.0380   26.5320   44.7630 H   0  0  0  0  0  0  0  0  0  0  0  0
   39.9510   24.5960   43.3290 H   0  0  0  0  0  0  0  0  0  0  0  0
   38.8500   24.4010   40.8250 C   0  0  0  0  0  0  0  0  0  0  0  0
   39.6240   24.3980   39.6130 C   0  0  0  0  0  0  0  0  0  0  0  0
   40.3050   25.1760   39.2020 H   0  0  0  0  0  0  0  0  0  0  0  0
   39.1870   22.7140   38.8780 S   0  0  0  0  0  0  0  0  0  0  0  0
   38.0510   22.3630   40.3570 C   0  0  0  0  0  0  0  0  0  0  0  0
   37.4550   21.4560   40.5270 H   0  0  0  0  0  0  0  0  0  0  0  0
   38.1320   23.2930   41.0120 N   0  0  0  0  0  0  0  0  0  0  0  0
  1  6  1  0  0  0  0
  2  3  1  0  0  0  0
  2  1  2  0  0  0  0
  3  4  2  0  0  0  0
  4  5  1  0  0  0  0
  5 32  1  0  0  0  0
  6  5  2  0  0  0  0
  7  2  1  0  0  0  0
  8  3  1  0  0  0  0
  9  1  1  0  0  0  0
  9 15  1  1  0  0  0
 10 11  1  0  0  0  0
 10 17  1  0  0  0  0
 10  9  1  0  0  0  0
 11 19  1  0  0  0  0
 12 11  1  0  0  0  0
 12 13  1  0  0  0  0
 12 21  1  0  0  0  0
 13 22  1  0  0  0  0
 14 13  1  0  0  0  0
 14 24  1  1  0  0  0
 14  9  1  0  0  0  0
 16 10  1  0  0  0  0
 18 11  1  0  0  0  0
 20 12  1  0  0  0  0
 23 13  1  0  0  0  0
 25 14  1  0  0  0  0
 26 25  1  0  0  0  0
 27 26  2  0  0  0  0
 28 26  1  0  0  0  0
 29 25  1  0  0  0  0
 30 28  1  0  0  0  0
 31 28  1  0  0  0  0
 32 33  1  0  0  0  0
 33 34  2  0  0  0  0
 33 38  1  0  0  0  0
 34 39  1  0  0  0  0
 35 40  1  0  0  0  0
 35 34  1  0  0  0  0
 36 35  2  0  0  0  0
 37 36  1  0  0  0  0
 37 32  2  0  0  0  0
 41 47  1  0  0  0  0
 41 36  1  0  0  0  0
 42 41  2  0  0  0  0
 43 42  1  0  0  0  0
 44 42  1  0  0  0  0
 44 45  1  0  0  0  0
 45 46  1  0  0  0  0
 45 47  2  0  0  0  0
M  END
>  <minimizedAffinity>
-6.62039709

$$$$

 OpenBabel03252507343D

 47 50  0  0  1  0  0  0  0  0999 V2000
   37.5010   30.9860   39.6390 C   0  0  0  0  0  0  0  0  0  0  0  0
   36.8470   30.9990   38.4120 C   0  0  0  0  0  0  0  0  0  0  0  0
   36.1780   29.8350   37.9700 C   0  0  0  0  0  0  0  0  0  0  0  0
   36.2250   28.7300   38.8140 N   0  0  0  0  0  0  0  0  0  0  0  0
   36.8740   28.7850   39.9800 C   0  0  0  0  0  0  0  0  0  0  0  0
   37.5010   29.8900   40.3890 N   0  0  0  0  0  0  0  0  0  0  0  0
   36.7150   31.6930   37.6120 H   0  0  0  0  0  0  0  0  0  0  0  0
   35.6320   29.6570   37.0840 H   0  0  0  0  0  0  0  0  0  0  0  0
   38.1550   32.2080   40.0610 C   0  0  2  0  0  0  0  0  0  0  0  0
   37.4960   33.4610   39.4100 C   0  0  0  0  0  0  0  0  0  0  0  0
   38.0940   34.6950   39.9890 C   0  0  0  0  0  0  0  0  0  0  0  0
   39.5770   34.6970   40.1440 C   0  0  0  0  0  0  0  0  0  0  0  0
   40.1420   33.4280   40.5310 C   0  0  0  0  0  0  0  0  0  0  0  0
   39.5710   32.2250   39.7500 C   0  0  2  0  0  0  0  0  0  0  0  0
   37.9540   32.3500   41.1390 H   0  0  0  0  0  0  0  0  0  0  0  0
   37.5300   33.4070   38.3270 H   0  0  0  0  0  0  0  0  0  0  0  0
   36.4270   33.3740   39.6940 H   0  0  0  0  0  0  0  0  0  0  0  0
   37.8520   35.5290   39.2670 H   0  0  0  0  0  0  0  0  0  0  0  0
   37.4970   34.9410   40.8870 H   0  0  0  0  0  0  0  0  0  0  0  0
   40.1490   35.4670   39.6210 H   0  0  0  0  0  0  0  0  0  0  0  0
   39.6510   35.2500   41.1650 H   0  0  0  0  0  0  0  0  0  0  0  0
   40.0880   33.1040   41.5910 H   0  0  0  0  0  0  0  0  0  0  0  0
   41.2420   33.4170   40.2960 H   0  0  0  0  0  0  0  0  0  0  0  0
   40.1990   31.4150   40.1220 H   0  0  0  0  0  0  0  0  0  0  0  0
   39.7630   32.4660   38.3180 N   0  0  0  0  0  0  0  0  0  0  0  0
   40.8950   32.3310   37.4960 C   0  0  0  0  0  0  0  0  0  0  0  0
   41.3260   31.1970   37.0770 O   0  0  0  0  0  0  0  0  0  0  0  0
   41.5330   33.5620   37.1530 N   0  0  0  0  0  0  0  0  0  0  0  0
   38.9750   32.8800   37.6900 H   0  0  0  0  0  0  0  0  0  0  0  0
   41.2270   34.4110   36.6450 H   0  0  0  0  0  0  0  0  0  0  0  0
   42.4640   34.0580   37.2620 H   0  0  0  0  0  0  0  0  0  0  0  0
   36.9060   27.5780   40.8120 C   0  0  0  0  0  0  0  0  0  0  0  0
   36.9100   27.6370   42.1690 C   0  0  0  0  0  0  0  0  0  0  0  0
   36.9380   26.5590   43.0180 C   0  0  0  0  0  0  0  0  0  0  0  0
   36.9640   25.3350   42.3690 C   0  0  0  0  0  0  0  0  0  0  0  0
   36.9620   25.2240   40.9800 C   0  0  0  0  0  0  0  0  0  0  0  0
   36.9330   26.3700   40.2350 N   0  0  0  0  0  0  0  0  0  0  0  0
   36.8870   28.6310   42.6030 H   0  0  0  0  0  0  0  0  0  0  0  0
   36.9410   26.5980   44.0880 H   0  0  0  0  0  0  0  0  0  0  0  0
   36.9880   24.4510   42.9930 H   0  0  0  0  0  0  0  0  0  0  0  0
   36.9900   23.9320   40.3000 C   0  0  0  0  0  0  0  0  0  0  0  0
   36.0710   23.6860   39.2210 C   0  0  0  0  0  0  0  0  0  0  0  0
   35.2910   24.3510   38.7870 H   0  0  0  0  0  0  0  0  0  0  0  0
   36.5230   21.9220   38.7200 S   0  0  0  0  0  0  0  0  0  0  0  0
   37.8580   21.8810   40.0680 C   0  0  0  0  0  0  0  0  0  0  0  0
   38.5320   21.0450   40.3010 H   0  0  0  0  0  0  0  0  0  0  0  0
   37.7980   22.9040   40.5670 N   0  0  0  0  0  0  0  0  0  0  0  0
  1  9  1  0  0  0  0
  1  6  1  0  0  0  0
  2  1  2  0  0  0  0
  3  2  1  0  0  0  0
  3  4  2  0  0  0  0
  4  5  1  0  0  0  0
  5  6  2  0  0  0  0
  5 32  1  0  0  0  0
  7  2  1  0  0  0  0
  8  3  1  0  0  0  0
  9 15  1  1  0  0  0
 10 17  1  0  0  0  0
 10 11  1  0  0  0  0
 10  9  1  0  0  0  0
 11 12  1  0  0  0  0
 11 19  1  0  0  0  0
 12 13  1  0  0  0  0
 12 21  1  0  0  0  0
 13 22  1  0  0  0  0
 14  9  1  0  0  0  0
 14 24  1  1  0  0  0
 14 13  1  0  0  0  0
 16 10  1  0  0  0  0
 18 11  1  0  0  0  0
 20 12  1  0  0  0  0
 23 13  1  0  0  0  0
 25 14  1  0  0  0  0
 26 25  1  0  0  0  0
 27 26  2  0  0  0  0
 28 31  1  0  0  0  0
 28 26  1  0  0  0  0
 29 25  1  0  0  0  0
 30 28  1  0  0  0  0
 32 33  1  0  0  0  0
 33 38  1  0  0  0  0
 33 34  2  0  0  0  0
 34 39  1  0  0  0  0
 35 40  1  0  0  0  0
 35 34  1  0  0  0  0
 36 35  2  0  0  0  0
 37 32  2  0  0  0  0
 37 36  1  0  0  0  0
 41 47  1  0  0  0  0
 41 36  1  0  0  0  0
 42 41  2  0  0  0  0
 43 42  1  0  0  0  0
 44 42  1  0  0  0  0
 44 45  1  0  0  0  0
 45 46  1  0  0  0  0
 45 47  2  0  0  0  0
M  END
>  <minimizedAffinity>
-6.57180166

$$$$

 OpenBabel03252507343D

 47 50  0  0  1  0  0  0  0  0999 V2000
   37.7860   26.9810   41.7320 C   0  0  0  0  0  0  0  0  0  0  0  0
   37.3170   26.8890   43.0380 C   0  0  0  0  0  0  0  0  0  0  0  0
   37.1020   28.0710   43.7820 C   0  0  0  0  0  0  0  0  0  0  0  0
   37.3840   29.2720   43.1410 N   0  0  0  0  0  0  0  0  0  0  0  0
   37.8350   29.2900   41.8840 C   0  0  0  0  0  0  0  0  0  0  0  0
   38.0320   28.1680   41.1880 N   0  0  0  0  0  0  0  0  0  0  0  0
   37.0770   26.1050   43.7210 H   0  0  0  0  0  0  0  0  0  0  0  0
   36.7520   28.2000   44.7700 H   0  0  0  0  0  0  0  0  0  0  0  0
   37.9720   25.7460   40.9990 C   0  0  2  0  0  0  0  0  0  0  0  0
   37.2190   24.5620   41.6780 C   0  0  0  0  0  0  0  0  0  0  0  0
   37.3070   23.3540   40.8130 C   0  0  0  0  0  0  0  0  0  0  0  0
   38.6440   23.0710   40.2140 C   0  0  0  0  0  0  0  0  0  0  0  0
   39.3840   24.2410   39.8150 C   0  0  0  0  0  0  0  0  0  0  0  0
   39.3670   25.3780   40.8600 C   0  0  2  0  0  0  0  0  0  0  0  0
   37.4590   25.8440   40.0240 H   0  0  0  0  0  0  0  0  0  0  0  0
   37.5560   24.4140   42.6980 H   0  0  0  0  0  0  0  0  0  0  0  0
   36.1710   24.9200   41.7440 H   0  0  0  0  0  0  0  0  0  0  0  0
   37.0670   22.4740   41.4780 H   0  0  0  0  0  0  0  0  0  0  0  0
   36.4480   23.4030   40.1170 H   0  0  0  0  0  0  0  0  0  0  0  0
   39.1220   22.1170   40.4500 H   0  0  0  0  0  0  0  0  0  0  0  0
   38.2970   22.7060   39.1640 H   0  0  0  0  0  0  0  0  0  0  0  0
   39.1290   24.7540   38.8640 H   0  0  0  0  0  0  0  0  0  0  0  0
   40.4720   23.9800   39.7040 H   0  0  0  0  0  0  0  0  0  0  0  0
   40.0550   26.0920   40.4060 H   0  0  0  0  0  0  0  0  0  0  0  0
   39.8710   24.8500   42.1300 N   0  0  0  0  0  0  0  0  0  0  0  0
   40.8290   25.3500   43.0290 C   0  0  0  0  0  0  0  0  0  0  0  0
   40.5890   26.3100   43.8470 O   0  0  0  0  0  0  0  0  0  0  0  0
   42.0980   24.6990   42.9710 N   0  0  0  0  0  0  0  0  0  0  0  0
   39.5660   23.8780   42.5150 H   0  0  0  0  0  0  0  0  0  0  0  0
   42.4130   23.7250   43.1300 H   0  0  0  0  0  0  0  0  0  0  0  0
   43.1170   24.9120   42.7670 H   0  0  0  0  0  0  0  0  0  0  0  0
   38.1340   30.5890   41.2740 C   0  0  0  0  0  0  0  0  0  0  0  0
   37.1780   31.3420   40.6720 C   0  0  0  0  0  0  0  0  0  0  0  0
   37.3740   32.5640   40.0790 C   0  0  0  0  0  0  0  0  0  0  0  0
   38.6850   33.0090   40.1350 C   0  0  0  0  0  0  0  0  0  0  0  0
   39.7020   32.2720   40.7400 C   0  0  0  0  0  0  0  0  0  0  0  0
   39.3860   31.0650   41.2990 N   0  0  0  0  0  0  0  0  0  0  0  0
   36.1750   30.9270   40.6690 H   0  0  0  0  0  0  0  0  0  0  0  0
   36.6250   33.1630   39.6040 H   0  0  0  0  0  0  0  0  0  0  0  0
   38.8960   33.9690   39.6810 H   0  0  0  0  0  0  0  0  0  0  0  0
   41.0820   32.7460   40.7960 C   0  0  0  0  0  0  0  0  0  0  0  0
   41.5470   33.6710   39.7970 C   0  0  0  0  0  0  0  0  0  0  0  0
   41.0050   34.1170   38.9340 H   0  0  0  0  0  0  0  0  0  0  0  0
   43.3400   33.9430   40.3260 S   0  0  0  0  0  0  0  0  0  0  0  0
   43.0910   32.7530   41.7830 C   0  0  0  0  0  0  0  0  0  0  0  0
   43.8400   32.4680   42.5340 H   0  0  0  0  0  0  0  0  0  0  0  0
   42.0070   32.4130   41.6970 N   0  0  0  0  0  0  0  0  0  0  0  0
  1  2  1  0  0  0  0
  2  7  1  0  0  0  0
  2  3  2  0  0  0  0
  3  8  1  0  0  0  0
  4  3  1  0  0  0  0
  5  4  2  0  0  0  0
  6  1  2  0  0  0  0
  6  5  1  0  0  0  0
  9 15  1  6  0  0  0
  9 10  1  0  0  0  0
  9  1  1  0  0  0  0
 10 17  1  0  0  0  0
 10 16  1  0  0  0  0
 11 18  1  0  0  0  0
 11 10  1  0  0  0  0
 12 20  1  0  0  0  0
 12 11  1  0  0  0  0
 13 12  1  0  0  0  0
 13 14  1  0  0  0  0
 14 24  1  6  0  0  0
 14  9  1  0  0  0  0
 14 25  1  0  0  0  0
 19 11  1  0  0  0  0
 21 12  1  0  0  0  0
 22 13  1  0  0  0  0
 23 13  1  0  0  0  0
 25 29  1  0  0  0  0
 25 26  1  0  0  0  0
 26 27  2  0  0  0  0
 28 26  1  0  0  0  0
 28 30  1  0  0  0  0
 31 28  1  0  0  0  0
 32 37  1  0  0  0  0
 32  5  1  0  0  0  0
 33 32  2  0  0  0  0
 34 35  2  0  0  0  0
 34 33  1  0  0  0  0
 35 36  1  0  0  0  0
 36 41  1  0  0  0  0
 36 37  2  0  0  0  0
 38 33  1  0  0  0  0
 39 34  1  0  0  0  0
 40 35  1  0  0  0  0
 41 47  1  0  0  0  0
 42 44  1  0  0  0  0
 42 41  2  0  0  0  0
 43 42  1  0  0  0  0
 44 45  1  0  0  0  0
 45 46  1  0  0  0  0
 47 45  2  0  0  0  0
M  END
>  <minimizedAffinity>
-6.57080936

$$$$

 OpenBabel03252507343D

 47 50  0  0  1  0  0  0  0  0999 V2000
   38.0250   27.4150   38.9690 C   0  0  0  0  0  0  0  0  0  0  0  0
   38.0050   27.1460   37.6050 C   0  0  0  0  0  0  0  0  0  0  0  0
   38.0970   28.2160   36.6860 C   0  0  0  0  0  0  0  0  0  0  0  0
   38.2000   29.4940   37.2250 N   0  0  0  0  0  0  0  0  0  0  0  0
   38.2110   29.6830   38.5460 C   0  0  0  0  0  0  0  0  0  0  0  0
   38.1260   28.6650   39.4070 N   0  0  0  0  0  0  0  0  0  0  0  0
   37.9000   26.2820   36.9880 H   0  0  0  0  0  0  0  0  0  0  0  0
   38.1020   28.2090   35.6300 H   0  0  0  0  0  0  0  0  0  0  0  0
   37.9500   26.2870   39.8740 C   0  0  2  0  0  0  0  0  0  0  0  0
   36.5540   25.5970   39.8100 C   0  0  0  0  0  0  0  0  0  0  0  0
   36.5730   24.3570   40.6340 C   0  0  0  0  0  0  0  0  0  0  0  0
   37.2300   24.4650   41.9690 C   0  0  0  0  0  0  0  0  0  0  0  0
   38.3960   25.3130   41.9980 C   0  0  0  0  0  0  0  0  0  0  0  0
   38.2130   26.6520   41.2530 C   0  0  2  0  0  0  0  0  0  0  0  0
   38.6360   25.5030   39.5030 H   0  0  0  0  0  0  0  0  0  0  0  0
   35.7590   26.2920   40.0560 H   0  0  0  0  0  0  0  0  0  0  0  0
   36.4320   25.3500   38.7350 H   0  0  0  0  0  0  0  0  0  0  0  0
   35.4930   24.0970   40.8340 H   0  0  0  0  0  0  0  0  0  0  0  0
   36.9230   23.5440   39.9700 H   0  0  0  0  0  0  0  0  0  0  0  0
   36.6310   24.2480   42.8560 H   0  0  0  0  0  0  0  0  0  0  0  0
   37.7570   23.4280   41.9950 H   0  0  0  0  0  0  0  0  0  0  0  0
   39.3640   24.9270   41.6160 H   0  0  0  0  0  0  0  0  0  0  0  0
   38.6180   25.6120   43.0600 H   0  0  0  0  0  0  0  0  0  0  0  0
   39.1510   27.1550   41.4910 H   0  0  0  0  0  0  0  0  0  0  0  0
   37.0520   27.3450   41.8150 N   0  0  0  0  0  0  0  0  0  0  0  0
   36.9500   28.3360   42.8070 C   0  0  0  0  0  0  0  0  0  0  0  0
   37.2290   29.5700   42.5940 O   0  0  0  0  0  0  0  0  0  0  0  0
   36.5010   27.8640   44.0770 N   0  0  0  0  0  0  0  0  0  0  0  0
   36.0320   27.0850   41.5340 H   0  0  0  0  0  0  0  0  0  0  0  0
   35.6340   27.4030   44.4060 H   0  0  0  0  0  0  0  0  0  0  0  0
   36.8260   27.7960   45.0840 H   0  0  0  0  0  0  0  0  0  0  0  0
   38.2990   31.0570   39.0490 C   0  0  0  0  0  0  0  0  0  0  0  0
   37.2440   31.9110   39.0040 C   0  0  0  0  0  0  0  0  0  0  0  0
   37.2430   33.2090   39.4510 C   0  0  0  0  0  0  0  0  0  0  0  0
   38.4550   33.6200   39.9820 C   0  0  0  0  0  0  0  0  0  0  0  0
   39.5660   32.7810   40.0490 C   0  0  0  0  0  0  0  0  0  0  0  0
   39.4480   31.5050   39.5710 N   0  0  0  0  0  0  0  0  0  0  0  0
   36.3290   31.5170   38.5750 H   0  0  0  0  0  0  0  0  0  0  0  0
   36.4140   33.8870   39.4190 H   0  0  0  0  0  0  0  0  0  0  0  0
   38.5090   34.6360   40.3490 H   0  0  0  0  0  0  0  0  0  0  0  0
   40.8410   33.2190   40.6090 C   0  0  0  0  0  0  0  0  0  0  0  0
   41.2260   34.6000   40.4830 C   0  0  0  0  0  0  0  0  0  0  0  0
   40.6880   35.4460   40.0030 H   0  0  0  0  0  0  0  0  0  0  0  0
   42.9030   34.6150   41.3510 S   0  0  0  0  0  0  0  0  0  0  0  0
   42.7390   32.7580   41.7040 C   0  0  0  0  0  0  0  0  0  0  0  0
   43.4630   32.1220   42.2310 H   0  0  0  0  0  0  0  0  0  0  0  0
   41.7350   32.4650   41.2510 N   0  0  0  0  0  0  0  0  0  0  0  0
  1  6  1  0  0  0  0
  1  9  1  0  0  0  0
  2  1  2  0  0  0  0
  3  4  2  0  0  0  0
  3  2  1  0  0  0  0
  4  5  1  0  0  0  0
  5 32  1  0  0  0  0
  5  6  2  0  0  0  0
  7  2  1  0  0  0  0
  8  3  1  0  0  0  0
  9 15  1  6  0  0  0
  9 14  1  0  0  0  0
 10  9  1  0  0  0  0
 10 16  1  0  0  0  0
 10 11  1  0  0  0  0
 11 18  1  0  0  0  0
 11 12  1  0  0  0  0
 12 21  1  0  0  0  0
 12 13  1  0  0  0  0
 12 20  1  0  0  0  0
 13 23  1  0  0  0  0
 14 24  1  1  0  0  0
 14 25  1  0  0  0  0
 14 13  1  0  0  0  0
 17 10  1  0  0  0  0
 19 11  1  0  0  0  0
 22 13  1  0  0  0  0
 25 26  1  0  0  0  0
 26 28  1  0  0  0  0
 27 26  2  0  0  0  0
 28 30  1  0  0  0  0
 28 31  1  0  0  0  0
 29 25  1  0  0  0  0
 32 37  1  0  0  0  0
 33 32  2  0  0  0  0
 33 34  1  0  0  0  0
 34 35  2  0  0  0  0
 35 36  1  0  0  0  0
 35 40  1  0  0  0  0
 36 41  1  0  0  0  0
 37 36  2  0  0  0  0
 38 33  1  0  0  0  0
 39 34  1  0  0  0  0
 41 47  1  0  0  0  0
 42 41  2  0  0  0  0
 42 44  1  0  0  0  0
 43 42  1  0  0  0  0
 44 45  1  0  0  0  0
 45 46  1  0  0  0  0
 47 45  2  0  0  0  0
M  END
>  <minimizedAffinity>
-6.3667326

$$$$

 OpenBabel03252507343D

 47 50  0  0  1  0  0  0  0  0999 V2000
   39.2750   32.2070   40.7770 C   0  0  0  0  0  0  0  0  0  0  0  0
   38.2550   32.9380   40.1770 C   0  0  0  0  0  0  0  0  0  0  0  0
   36.9450   32.4070   40.1480 C   0  0  0  0  0  0  0  0  0  0  0  0
   36.7660   31.1580   40.7340 N   0  0  0  0  0  0  0  0  0  0  0  0
   37.7910   30.5080   41.2910 C   0  0  0  0  0  0  0  0  0  0  0  0
   39.0240   31.0190   41.3150 N   0  0  0  0  0  0  0  0  0  0  0  0
   38.1700   33.8640   39.6540 H   0  0  0  0  0  0  0  0  0  0  0  0
   36.0550   32.8090   39.7480 H   0  0  0  0  0  0  0  0  0  0  0  0
   40.5960   32.8000   40.8020 C   0  0  2  0  0  0  0  0  0  0  0  0
   40.5710   34.2700   40.2870 C   0  0  0  0  0  0  0  0  0  0  0  0
   41.9120   34.8870   40.4760 C   0  0  0  0  0  0  0  0  0  0  0  0
   43.0830   34.0430   40.1000 C   0  0  0  0  0  0  0  0  0  0  0  0
   42.9360   32.6420   40.4060 C   0  0  0  0  0  0  0  0  0  0  0  0
   41.5610   32.0580   40.0150 C   0  0  2  0  0  0  0  0  0  0  0  0
   40.9030   32.9090   41.8590 H   0  0  0  0  0  0  0  0  0  0  0  0
   40.1860   34.3270   39.2740 H   0  0  0  0  0  0  0  0  0  0  0  0
   39.8180   34.7640   40.9350 H   0  0  0  0  0  0  0  0  0  0  0  0
   41.9420   35.7880   39.7950 H   0  0  0  0  0  0  0  0  0  0  0  0
   41.9170   35.3230   41.4930 H   0  0  0  0  0  0  0  0  0  0  0  0
   43.7590   34.4150   39.3270 H   0  0  0  0  0  0  0  0  0  0  0  0
   43.8060   34.3430   40.9620 H   0  0  0  0  0  0  0  0  0  0  0  0
   43.0870   32.2890   41.4470 H   0  0  0  0  0  0  0  0  0  0  0  0
   43.6750   32.0450   39.8030 H   0  0  0  0  0  0  0  0  0  0  0  0
   41.7120   31.0000   40.2320 H   0  0  0  0  0  0  0  0  0  0  0  0
   41.3370   32.3070   38.5890 N   0  0  0  0  0  0  0  0  0  0  0  0
   40.7990   31.4930   37.5770 C   0  0  0  0  0  0  0  0  0  0  0  0
   39.5410   31.2750   37.4480 O   0  0  0  0  0  0  0  0  0  0  0  0
   41.7640   30.9300   36.6890 N   0  0  0  0  0  0  0  0  0  0  0  0
   41.6600   33.2280   38.1050 H   0  0  0  0  0  0  0  0  0  0  0  0
   42.4610   31.3330   36.0370 H   0  0  0  0  0  0  0  0  0  0  0  0
   42.1250   29.9860   36.3680 H   0  0  0  0  0  0  0  0  0  0  0  0
   37.5390   29.1850   41.8700 C   0  0  0  0  0  0  0  0  0  0  0  0
   37.5200   28.9760   43.2120 C   0  0  0  0  0  0  0  0  0  0  0  0
   37.2920   27.7730   43.8330 C   0  0  0  0  0  0  0  0  0  0  0  0
   37.0700   26.7230   42.9560 C   0  0  0  0  0  0  0  0  0  0  0  0
   37.0810   26.8870   41.5720 C   0  0  0  0  0  0  0  0  0  0  0  0
   37.3190   28.1350   41.0670 N   0  0  0  0  0  0  0  0  0  0  0  0
   37.7010   29.8470   43.8330 H   0  0  0  0  0  0  0  0  0  0  0  0
   37.2750   27.6020   44.8900 H   0  0  0  0  0  0  0  0  0  0  0  0
   36.8850   25.7510   43.3950 H   0  0  0  0  0  0  0  0  0  0  0  0
   36.8470   25.7780   40.6530 C   0  0  0  0  0  0  0  0  0  0  0  0
   36.4880   26.0610   39.2880 C   0  0  0  0  0  0  0  0  0  0  0  0
   36.3490   27.0400   38.7790 H   0  0  0  0  0  0  0  0  0  0  0  0
   36.3090   24.3250   38.5670 S   0  0  0  0  0  0  0  0  0  0  0  0
   36.7540   23.5770   40.2530 C   0  0  0  0  0  0  0  0  0  0  0  0
   36.8260   22.5090   40.5000 H   0  0  0  0  0  0  0  0  0  0  0  0
   36.9270   24.4760   40.9320 N   0  0  0  0  0  0  0  0  0  0  0  0
  1  9  1  0  0  0  0
  1  6  1  0  0  0  0
  2  1  2  0  0  0  0
  3  2  1  0  0  0  0
  3  4  2  0  0  0  0
  4  5  1  0  0  0  0
  5  6  2  0  0  0  0
  5 32  1  0  0  0  0
  7  2  1  0  0  0  0
  8  3  1  0  0  0  0
  9 15  1  1  0  0  0
 10 11  1  0  0  0  0
 10  9  1  0  0  0  0
 10 17  1  0  0  0  0
 11 19  1  0  0  0  0
 12 13  1  0  0  0  0
 12 11  1  0  0  0  0
 12 21  1  0  0  0  0
 13 22  1  0  0  0  0
 14 24  1  1  0  0  0
 14 13  1  0  0  0  0
 14  9  1  0  0  0  0
 16 10  1  0  0  0  0
 18 11  1  0  0  0  0
 20 12  1  0  0  0  0
 23 13  1  0  0  0  0
 25 14  1  0  0  0  0
 26 25  1  0  0  0  0
 27 26  2  0  0  0  0
 28 26  1  0  0  0  0
 29 25  1  0  0  0  0
 30 28  1  0  0  0  0
 31 28  1  0  0  0  0
 32 33  1  0  0  0  0
 33 34  2  0  0  0  0
 33 38  1  0  0  0  0
 34 39  1  0  0  0  0
 35 40  1  0  0  0  0
 35 34  1  0  0  0  0
 36 35  2  0  0  0  0
 37 36  1  0  0  0  0
 37 32  2  0  0  0  0
 41 47  1  0  0  0  0
 41 36  1  0  0  0  0
 42 41  2  0  0  0  0
 43 42  1  0  0  0  0
 44 42  1  0  0  0  0
 44 45  1  0  0  0  0
 45 46  1  0  0  0  0
 45 47  2  0  0  0  0
M  END
>  <minimizedAffinity>
-6.15695047

$$$$

 OpenBabel03252507343D

 47 50  0  0  1  0  0  0  0  0999 V2000
   37.3920   28.4270   41.7400 C   0  0  0  0  0  0  0  0  0  0  0  0
   36.0770   28.2420   41.3280 C   0  0  0  0  0  0  0  0  0  0  0  0
   35.4160   29.2790   40.6310 C   0  0  0  0  0  0  0  0  0  0  0  0
   36.1460   30.4420   40.4050 N   0  0  0  0  0  0  0  0  0  0  0  0
   37.4060   30.5550   40.8310 C   0  0  0  0  0  0  0  0  0  0  0  0
   38.0220   29.5680   41.4860 N   0  0  0  0  0  0  0  0  0  0  0  0
   35.3370   27.4790   41.4190 H   0  0  0  0  0  0  0  0  0  0  0  0
   34.4360   29.3220   40.2410 H   0  0  0  0  0  0  0  0  0  0  0  0
   38.0360   27.3300   42.4320 C   0  0  2  0  0  0  0  0  0  0  0  0
   39.2930   27.8110   43.2180 C   0  0  0  0  0  0  0  0  0  0  0  0
   39.8300   26.6880   44.0350 C   0  0  0  0  0  0  0  0  0  0  0  0
   39.9040   25.3600   43.3590 C   0  0  0  0  0  0  0  0  0  0  0  0
   38.8090   25.0800   42.4640 C   0  0  0  0  0  0  0  0  0  0  0  0
   38.4400   26.2610   41.5400 C   0  0  2  0  0  0  0  0  0  0  0  0
   37.3570   26.9830   43.2330 H   0  0  0  0  0  0  0  0  0  0  0  0
   40.0170   28.2760   42.5570 H   0  0  0  0  0  0  0  0  0  0  0  0
   38.9020   28.6180   43.8710 H   0  0  0  0  0  0  0  0  0  0  0  0
   40.8920   26.9690   44.2940 H   0  0  0  0  0  0  0  0  0  0  0  0
   39.3010   26.7260   45.0060 H   0  0  0  0  0  0  0  0  0  0  0  0
   40.8820   24.8820   43.2700 H   0  0  0  0  0  0  0  0  0  0  0  0
   39.5870   24.6860   44.2530 H   0  0  0  0  0  0  0  0  0  0  0  0
   37.8320   24.7530   42.8770 H   0  0  0  0  0  0  0  0  0  0  0  0
   39.1010   24.2540   41.7580 H   0  0  0  0  0  0  0  0  0  0  0  0
   37.6860   25.8000   40.9000 H   0  0  0  0  0  0  0  0  0  0  0  0
   39.6340   26.6600   40.7930 N   0  0  0  0  0  0  0  0  0  0  0  0
   39.8430   26.8770   39.4200 C   0  0  0  0  0  0  0  0  0  0  0  0
   39.4520   27.9360   38.8100 O   0  0  0  0  0  0  0  0  0  0  0  0
   40.5360   25.8250   38.7480 N   0  0  0  0  0  0  0  0  0  0  0  0
   40.6040   26.7800   41.2740 H   0  0  0  0  0  0  0  0  0  0  0  0
   41.4760   25.4020   38.8550 H   0  0  0  0  0  0  0  0  0  0  0  0
   40.3970   25.1260   37.9630 H   0  0  0  0  0  0  0  0  0  0  0  0
   38.1110   31.8160   40.5800 C   0  0  0  0  0  0  0  0  0  0  0  0
   37.4700   32.9230   40.1260 C   0  0  0  0  0  0  0  0  0  0  0  0
   38.0530   34.1380   39.8670 C   0  0  0  0  0  0  0  0  0  0  0  0
   39.4170   34.1680   40.1090 C   0  0  0  0  0  0  0  0  0  0  0  0
   40.1200   33.0570   40.5740 C   0  0  0  0  0  0  0  0  0  0  0  0
   39.4300   31.8980   40.7970 N   0  0  0  0  0  0  0  0  0  0  0  0
   36.4020   32.8220   39.9600 H   0  0  0  0  0  0  0  0  0  0  0  0
   37.5540   35.0150   39.5100 H   0  0  0  0  0  0  0  0  0  0  0  0
   39.9280   35.1030   39.9200 H   0  0  0  0  0  0  0  0  0  0  0  0
   41.5570   33.0930   40.8280 C   0  0  0  0  0  0  0  0  0  0  0  0
   42.2310   34.3640   40.8700 C   0  0  0  0  0  0  0  0  0  0  0  0
   41.8220   35.3900   40.7340 H   0  0  0  0  0  0  0  0  0  0  0  0
   44.0130   33.8460   41.2190 S   0  0  0  0  0  0  0  0  0  0  0  0
   43.4820   32.0250   41.2350 C   0  0  0  0  0  0  0  0  0  0  0  0
   44.1280   31.1530   41.4040 H   0  0  0  0  0  0  0  0  0  0  0  0
   42.3600   32.0490   41.0340 N   0  0  0  0  0  0  0  0  0  0  0  0
  1  9  1  0  0  0  0
  2  7  1  0  0  0  0
  2  1  2  0  0  0  0
  3  2  1  0  0  0  0
  4  3  2  0  0  0  0
  4  5  1  0  0  0  0
  5  6  2  0  0  0  0
  6  1  1  0  0  0  0
  8  3  1  0  0  0  0
  9 10  1  0  0  0  0
  9 15  1  1  0  0  0
 10 17  1  0  0  0  0
 10 11  1  0  0  0  0
 11 18  1  0  0  0  0
 11 19  1  0  0  0  0
 12 11  1  0  0  0  0
 12 21  1  0  0  0  0
 13 22  1  0  0  0  0
 13 12  1  0  0  0  0
 14 24  1  6  0  0  0
 14  9  1  0  0  0  0
 14 13  1  0  0  0  0
 16 10  1  0  0  0  0
 20 12  1  0  0  0  0
 23 13  1  0  0  0  0
 25 29  1  0  0  0  0
 25 14  1  0  0  0  0
 26 25  1  0  0  0  0
 27 26  2  0  0  0  0
 28 30  1  0  0  0  0
 28 26  1  0  0  0  0
 31 28  1  0  0  0  0
 32 37  1  0  0  0  0
 32  5  1  0  0  0  0
 33 32  2  0  0  0  0
 34 35  2  0  0  0  0
 34 33  1  0  0  0  0
 35 36  1  0  0  0  0
 36 37  2  0  0  0  0
 36 41  1  0  0  0  0
 38 33  1  0  0  0  0
 39 34  1  0  0  0  0
 40 35  1  0  0  0  0
 41 42  2  0  0  0  0
 41 47  1  0  0  0  0
 42 44  1  0  0  0  0
 43 42  1  0  0  0  0
 44 45  1  0  0  0  0
 45 46  1  0  0  0  0
 47 45  2  0  0  0  0
M  END
>  <minimizedAffinity>
-6.12402868

$$$$

 OpenBabel03252507343D

 47 50  0  0  1  0  0  0  0  0999 V2000
   38.4090   31.2550   40.1670 C   0  0  0  0  0  0  0  0  0  0  0  0
   37.0840   31.6380   40.3440 C   0  0  0  0  0  0  0  0  0  0  0  0
   36.2140   30.8050   41.0830 C   0  0  0  0  0  0  0  0  0  0  0  0
   36.7580   29.6300   41.5910 N   0  0  0  0  0  0  0  0  0  0  0  0
   38.0400   29.3200   41.3820 C   0  0  0  0  0  0  0  0  0  0  0  0
   38.8540   30.1160   40.6840 N   0  0  0  0  0  0  0  0  0  0  0  0
   36.4630   32.4460   40.0270 H   0  0  0  0  0  0  0  0  0  0  0  0
   35.1930   30.9270   41.3230 H   0  0  0  0  0  0  0  0  0  0  0  0
   39.2700   32.1500   39.4210 C   0  0  2  0  0  0  0  0  0  0  0  0
   40.1950   31.3670   38.4420 C   0  0  0  0  0  0  0  0  0  0  0  0
   40.9460   32.3290   37.5890 C   0  0  0  0  0  0  0  0  0  0  0  0
   41.5240   33.5130   38.2880 C   0  0  0  0  0  0  0  0  0  0  0  0
   40.7030   34.0480   39.3450 C   0  0  0  0  0  0  0  0  0  0  0  0
   40.1040   32.9720   40.2760 C   0  0  2  0  0  0  0  0  0  0  0  0
   38.6360   32.7500   38.7430 H   0  0  0  0  0  0  0  0  0  0  0  0
   40.8150   30.6520   38.9720 H   0  0  0  0  0  0  0  0  0  0  0  0
   39.4860   30.7730   37.8290 H   0  0  0  0  0  0  0  0  0  0  0  0
   41.8210   31.7550   37.1660 H   0  0  0  0  0  0  0  0  0  0  0  0
   40.3090   32.5310   36.7080 H   0  0  0  0  0  0  0  0  0  0  0  0
   42.6060   33.6590   38.2450 H   0  0  0  0  0  0  0  0  0  0  0  0
   41.3220   34.3200   37.4730 H   0  0  0  0  0  0  0  0  0  0  0  0
   39.8340   34.6910   39.0930 H   0  0  0  0  0  0  0  0  0  0  0  0
   41.3310   34.6870   40.0240 H   0  0  0  0  0  0  0  0  0  0  0  0
   39.6270   33.5920   41.0350 H   0  0  0  0  0  0  0  0  0  0  0  0
   41.1990   32.1670   40.8230 N   0  0  0  0  0  0  0  0  0  0  0  0
   41.5970   31.9170   42.1480 C   0  0  0  0  0  0  0  0  0  0  0  0
   40.9840   31.0960   42.9200 O   0  0  0  0  0  0  0  0  0  0  0  0
   42.7500   32.6440   42.5730 N   0  0  0  0  0  0  0  0  0  0  0  0
   41.9350   31.6810   40.1840 H   0  0  0  0  0  0  0  0  0  0  0  0
   43.7340   32.6800   42.2520 H   0  0  0  0  0  0  0  0  0  0  0  0
   43.0420   33.3600   43.2980 H   0  0  0  0  0  0  0  0  0  0  0  0
   38.5440   28.0560   41.9240 C   0  0  0  0  0  0  0  0  0  0  0  0
   39.1080   27.9730   43.1570 C   0  0  0  0  0  0  0  0  0  0  0  0
   39.6030   26.8320   43.7380 C   0  0  0  0  0  0  0  0  0  0  0  0
   39.4870   25.7030   42.9430 C   0  0  0  0  0  0  0  0  0  0  0  0
   38.9180   25.7380   41.6710 C   0  0  0  0  0  0  0  0  0  0  0  0
   38.4570   26.9350   41.1970 N   0  0  0  0  0  0  0  0  0  0  0  0
   39.1620   28.8990   43.7200 H   0  0  0  0  0  0  0  0  0  0  0  0
   40.0470   26.7600   44.7090 H   0  0  0  0  0  0  0  0  0  0  0  0
   39.8630   24.7750   43.3530 H   0  0  0  0  0  0  0  0  0  0  0  0
   38.7980   24.5460   40.8370 C   0  0  0  0  0  0  0  0  0  0  0  0
   39.5940   24.4420   39.6430 C   0  0  0  0  0  0  0  0  0  0  0  0
   40.3310   25.1570   39.2160 H   0  0  0  0  0  0  0  0  0  0  0  0
   39.0630   22.7600   38.9680 S   0  0  0  0  0  0  0  0  0  0  0  0
   37.8780   22.5440   40.4350 C   0  0  0  0  0  0  0  0  0  0  0  0
   37.2220   21.6860   40.6290 H   0  0  0  0  0  0  0  0  0  0  0  0
   38.0070   23.4940   41.0530 N   0  0  0  0  0  0  0  0  0  0  0  0
  1  2  2  0  0  0  0
  1  6  1  0  0  0  0
  2  3  1  0  0  0  0
  3  8  1  0  0  0  0
  3  4  2  0  0  0  0
  5  4  1  0  0  0  0
  5 32  1  0  0  0  0
  6  5  2  0  0  0  0
  7  2  1  0  0  0  0
  9 15  1  6  0  0  0
  9  1  1  0  0  0  0
  9 14  1  0  0  0  0
 10 16  1  0  0  0  0
 10  9  1  0  0  0  0
 11 12  1  0  0  0  0
 11 10  1  0  0  0  0
 12 13  1  0  0  0  0
 13 23  1  0  0  0  0
 13 14  1  0  0  0  0
 14 25  1  0  0  0  0
 14 24  1  1  0  0  0
 17 10  1  0  0  0  0
 18 11  1  0  0  0  0
 19 11  1  0  0  0  0
 20 12  1  0  0  0  0
 21 12  1  0  0  0  0
 22 13  1  0  0  0  0
 25 26  1  0  0  0  0
 26 28  1  0  0  0  0
 26 27  2  0  0  0  0
 28 31  1  0  0  0  0
 29 25  1  0  0  0  0
 30 28  1  0  0  0  0
 32 33  1  0  0  0  0
 33 38  1  0  0  0  0
 33 34  2  0  0  0  0
 34 39  1  0  0  0  0
 35 40  1  0  0  0  0
 35 34  1  0  0  0  0
 36 35  2  0  0  0  0
 37 36  1  0  0  0  0
 37 32  2  0  0  0  0
 41 47  1  0  0  0  0
 41 36  1  0  0  0  0
 42 41  2  0  0  0  0
 43 42  1  0  0  0  0
 44 42  1  0  0  0  0
 44 45  1  0  0  0  0
 45 46  1  0  0  0  0
 45 47  2  0  0  0  0
M  END
>  <minimizedAffinity>
-6.09272289

$$$$

 OpenBabel03252507343D

 47 50  0  0  1  0  0  0  0  0999 V2000
   40.8200   31.3690   40.5230 C   0  0  0  0  0  0  0  0  0  0  0  0
   42.1300   31.8240   40.4190 C   0  0  0  0  0  0  0  0  0  0  0  0
   43.1790   31.0530   40.9690 C   0  0  0  0  0  0  0  0  0  0  0  0
   42.8160   29.8640   41.5940 N   0  0  0  0  0  0  0  0  0  0  0  0
   41.5370   29.4860   41.6620 C   0  0  0  0  0  0  0  0  0  0  0  0
   40.5540   30.2220   41.1370 N   0  0  0  0  0  0  0  0  0  0  0  0
   42.6210   32.6890   40.0310 H   0  0  0  0  0  0  0  0  0  0  0  0
   44.2190   31.2290   40.9850 H   0  0  0  0  0  0  0  0  0  0  0  0
   39.7810   32.1810   39.9260 C   0  0  2  0  0  0  0  0  0  0  0  0
   39.4460   33.4190   40.8110 C   0  0  0  0  0  0  0  0  0  0  0  0
   38.4910   34.3040   40.0890 C   0  0  0  0  0  0  0  0  0  0  0  0
   37.3580   33.6230   39.3970 C   0  0  0  0  0  0  0  0  0  0  0  0
   37.6980   32.3600   38.7910 C   0  0  0  0  0  0  0  0  0  0  0  0
   38.5540   31.4440   39.6920 C   0  0  2  0  0  0  0  0  0  0  0  0
   40.1870   32.6350   39.0030 H   0  0  0  0  0  0  0  0  0  0  0  0
   39.1240   33.1200   41.8020 H   0  0  0  0  0  0  0  0  0  0  0  0
   40.4250   33.9240   40.9390 H   0  0  0  0  0  0  0  0  0  0  0  0
   38.0250   34.9690   40.8740 H   0  0  0  0  0  0  0  0  0  0  0  0
   39.1030   34.9980   39.4820 H   0  0  0  0  0  0  0  0  0  0  0  0
   36.3410   33.8850   39.6940 H   0  0  0  0  0  0  0  0  0  0  0  0
   37.3130   34.2800   38.4370 H   0  0  0  0  0  0  0  0  0  0  0  0
   38.2290   32.3440   37.8170 H   0  0  0  0  0  0  0  0  0  0  0  0
   36.7600   31.7680   38.6030 H   0  0  0  0  0  0  0  0  0  0  0  0
   38.5960   30.5360   39.0900 H   0  0  0  0  0  0  0  0  0  0  0  0
   37.8470   31.2420   40.9580 N   0  0  0  0  0  0  0  0  0  0  0  0
   36.9110   30.2700   41.3550 C   0  0  0  0  0  0  0  0  0  0  0  0
   37.2380   29.0700   41.6700 O   0  0  0  0  0  0  0  0  0  0  0  0
   35.5580   30.7250   41.3900 N   0  0  0  0  0  0  0  0  0  0  0  0
   37.9380   31.9390   41.7890 H   0  0  0  0  0  0  0  0  0  0  0  0
   35.0630   31.4630   41.9210 H   0  0  0  0  0  0  0  0  0  0  0  0
   34.6170   30.5240   40.9440 H   0  0  0  0  0  0  0  0  0  0  0  0
   41.2210   28.2340   42.3550 C   0  0  0  0  0  0  0  0  0  0  0  0
   41.8090   27.8920   43.5310 C   0  0  0  0  0  0  0  0  0  0  0  0
   41.5700   26.7420   44.2420 C   0  0  0  0  0  0  0  0  0  0  0  0
   40.6380   25.9030   43.6530 C   0  0  0  0  0  0  0  0  0  0  0  0
   40.0090   26.2100   42.4480 C   0  0  0  0  0  0  0  0  0  0  0  0
   40.3270   27.3870   41.8290 N   0  0  0  0  0  0  0  0  0  0  0  0
   42.5270   28.6000   43.9290 H   0  0  0  0  0  0  0  0  0  0  0  0
   42.0290   26.4670   45.1690 H   0  0  0  0  0  0  0  0  0  0  0  0
   40.4120   24.9810   44.1740 H   0  0  0  0  0  0  0  0  0  0  0  0
   39.0270   25.3220   41.8320 C   0  0  0  0  0  0  0  0  0  0  0  0
   39.3780   24.6160   40.6280 C   0  0  0  0  0  0  0  0  0  0  0  0
   40.3270   24.6290   40.0480 H   0  0  0  0  0  0  0  0  0  0  0  0
   37.7980   23.6450   40.2730 S   0  0  0  0  0  0  0  0  0  0  0  0
   36.9910   24.3920   41.8200 C   0  0  0  0  0  0  0  0  0  0  0  0
   35.9750   24.1980   42.1910 H   0  0  0  0  0  0  0  0  0  0  0  0
   37.7900   25.0730   42.2630 N   0  0  0  0  0  0  0  0  0  0  0  0
  1  6  1  0  0  0  0
  2  1  2  0  0  0  0
  2  3  1  0  0  0  0
  3  8  1  0  0  0  0
  3  4  2  0  0  0  0
  4  5  1  0  0  0  0
  5 32  1  0  0  0  0
  6  5  2  0  0  0  0
  7  2  1  0  0  0  0
  9 15  1  6  0  0  0
  9  1  1  0  0  0  0
  9 10  1  0  0  0  0
 10 17  1  0  0  0  0
 10 16  1  0  0  0  0
 11 10  1  0  0  0  0
 11 18  1  0  0  0  0
 12 20  1  0  0  0  0
 12 11  1  0  0  0  0
 13 12  1  0  0  0  0
 13 14  1  0  0  0  0
 14 24  1  6  0  0  0
 14  9  1  0  0  0  0
 14 25  1  0  0  0  0
 19 11  1  0  0  0  0
 21 12  1  0  0  0  0
 22 13  1  0  0  0  0
 23 13  1  0  0  0  0
 25 26  1  0  0  0  0
 25 29  1  0  0  0  0
 26 28  1  0  0  0  0
 26 27  2  0  0  0  0
 28 30  1  0  0  0  0
 31 28  1  0  0  0  0
 32 33  1  0  0  0  0
 33 38  1  0  0  0  0
 33 34  2  0  0  0  0
 34 39  1  0  0  0  0
 35 40  1  0  0  0  0
 35 34  1  0  0  0  0
 36 35  2  0  0  0  0
 37 32  2  0  0  0  0
 37 36  1  0  0  0  0
 41 47  1  0  0  0  0
 41 36  1  0  0  0  0
 42 41  2  0  0  0  0
 43 42  1  0  0  0  0
 44 42  1  0  0  0  0
 44 45  1  0  0  0  0
 45 46  1  0  0  0  0
 45 47  2  0  0  0  0
M  END
>  <minimizedAffinity>
-6.06338215

$$$$

 OpenBabel03252507343D

 47 50  0  0  1  0  0  0  0  0999 V2000
   36.9810   25.8810   40.8820 C   0  0  0  0  0  0  0  0  0  0  0  0
   36.9580   24.5490   41.2810 C   0  0  0  0  0  0  0  0  0  0  0  0
   36.4670   23.5670   40.3920 C   0  0  0  0  0  0  0  0  0  0  0  0
   36.0270   24.0140   39.1500 N   0  0  0  0  0  0  0  0  0  0  0  0
   36.0740   25.3100   38.8310 C   0  0  0  0  0  0  0  0  0  0  0  0
   36.5430   26.2290   39.6780 N   0  0  0  0  0  0  0  0  0  0  0  0
   37.2010   24.0010   42.1640 H   0  0  0  0  0  0  0  0  0  0  0  0
   36.3760   22.5220   40.5130 H   0  0  0  0  0  0  0  0  0  0  0  0
   37.5130   26.8500   41.8180 C   0  0  2  0  0  0  0  0  0  0  0  0
   36.6310   26.9500   43.0980 C   0  0  0  0  0  0  0  0  0  0  0  0
   37.2950   27.8360   44.0930 C   0  0  0  0  0  0  0  0  0  0  0  0
   37.8830   29.0990   43.5590 C   0  0  0  0  0  0  0  0  0  0  0  0
   38.4870   28.9760   42.2560 C   0  0  0  0  0  0  0  0  0  0  0  0
   37.6360   28.1770   41.2460 C   0  0  2  0  0  0  0  0  0  0  0  0
   38.4740   26.4630   42.2040 H   0  0  0  0  0  0  0  0  0  0  0  0
   35.6110   27.2280   42.8540 H   0  0  0  0  0  0  0  0  0  0  0  0
   36.5890   25.9060   43.4710 H   0  0  0  0  0  0  0  0  0  0  0  0
   36.4900   28.1470   44.8220 H   0  0  0  0  0  0  0  0  0  0  0  0
   37.9620   27.1890   44.6940 H   0  0  0  0  0  0  0  0  0  0  0  0
   37.5130   30.0470   43.9560 H   0  0  0  0  0  0  0  0  0  0  0  0
   38.8500   29.1350   44.2070 H   0  0  0  0  0  0  0  0  0  0  0  0
   39.4990   28.5300   42.1600 H   0  0  0  0  0  0  0  0  0  0  0  0
   38.5890   29.9950   41.7910 H   0  0  0  0  0  0  0  0  0  0  0  0
   38.2200   28.3020   40.3330 H   0  0  0  0  0  0  0  0  0  0  0  0
   36.3150   28.8020   41.1510 N   0  0  0  0  0  0  0  0  0  0  0  0
   35.8690   29.9320   40.4440 C   0  0  0  0  0  0  0  0  0  0  0  0
   35.6450   29.9240   39.1800 O   0  0  0  0  0  0  0  0  0  0  0  0
   35.6760   31.0980   41.2440 N   0  0  0  0  0  0  0  0  0  0  0  0
   35.4660   28.4510   41.7360 H   0  0  0  0  0  0  0  0  0  0  0  0
   35.0630   31.3230   42.0480 H   0  0  0  0  0  0  0  0  0  0  0  0
   36.0320   32.0930   41.3380 H   0  0  0  0  0  0  0  0  0  0  0  0
   35.5740   25.7170   37.5150 C   0  0  0  0  0  0  0  0  0  0  0  0
   36.1540   25.2990   36.3610 C   0  0  0  0  0  0  0  0  0  0  0  0
   35.7490   25.6330   35.0930 C   0  0  0  0  0  0  0  0  0  0  0  0
   34.6470   26.4720   35.0600 C   0  0  0  0  0  0  0  0  0  0  0  0
   34.0180   26.9290   36.2160 C   0  0  0  0  0  0  0  0  0  0  0  0
   34.5120   26.5290   37.4270 N   0  0  0  0  0  0  0  0  0  0  0  0
   37.0110   24.6430   36.4680 H   0  0  0  0  0  0  0  0  0  0  0  0
   36.2010   25.3060   34.1790 H   0  0  0  0  0  0  0  0  0  0  0  0
   34.2860   26.7680   34.0830 H   0  0  0  0  0  0  0  0  0  0  0  0
   32.8580   27.8140   36.1760 C   0  0  0  0  0  0  0  0  0  0  0  0
   31.7740   27.5110   35.2790 C   0  0  0  0  0  0  0  0  0  0  0  0
   31.6590   26.6670   34.5640 H   0  0  0  0  0  0  0  0  0  0  0  0
   30.5770   28.9300   35.6230 S   0  0  0  0  0  0  0  0  0  0  0  0
   31.7840   29.6390   36.9050 C   0  0  0  0  0  0  0  0  0  0  0  0
   31.6430   30.5450   37.5090 H   0  0  0  0  0  0  0  0  0  0  0  0
   32.6670   28.9180   36.8990 N   0  0  0  0  0  0  0  0  0  0  0  0
  1  2  1  0  0  0  0
  1  9  1  0  0  0  0
  2  7  1  0  0  0  0
  3  8  1  0  0  0  0
  3  2  2  0  0  0  0
  4  3  1  0  0  0  0
  5  4  2  0  0  0  0
  5  6  1  0  0  0  0
  6  1  2  0  0  0  0
  9 15  1  1  0  0  0
  9 10  1  0  0  0  0
 10 17  1  0  0  0  0
 10 11  1  0  0  0  0
 11 19  1  0  0  0  0
 11 18  1  0  0  0  0
 12 20  1  0  0  0  0
 12 11  1  0  0  0  0
 12 21  1  0  0  0  0
 13 12  1  0  0  0  0
 14 24  1  6  0  0  0
 14  9  1  0  0  0  0
 14 13  1  0  0  0  0
 16 10  1  0  0  0  0
 22 13  1  0  0  0  0
 23 13  1  0  0  0  0
 25 14  1  0  0  0  0
 25 29  1  0  0  0  0
 26 25  1  0  0  0  0
 26 28  1  0  0  0  0
 27 26  2  0  0  0  0
 28 31  1  0  0  0  0
 28 30  1  0  0  0  0
 32  5  1  0  0  0  0
 33 38  1  0  0  0  0
 33 32  2  0  0  0  0
 34 33  1  0  0  0  0
 35 34  2  0  0  0  0
 35 36  1  0  0  0  0
 36 37  2  0  0  0  0
 37 32  1  0  0  0  0
 39 34  1  0  0  0  0
 40 35  1  0  0  0  0
 41 36  1  0  0  0  0
 41 47  1  0  0  0  0
 42 44  1  0  0  0  0
 42 41  2  0  0  0  0
 43 42  1  0  0  0  0
 44 45  1  0  0  0  0
 45 46  1  0  0  0  0
 47 45  2  0  0  0  0
M  END
>  <minimizedAffinity>
-5.98718071

$$$$
