
 OpenBabel03242516073D

 34 37  0  0  0  0  0  0  0  0999 V2000
   38.1380   27.7850   39.3150 Cl  0  0  0  0  0  0  0  0  0  0  0  0
   37.8040   27.9980   41.0190 C   0  0  0  0  0  0  0  0  0  0  0  0
   37.7920   29.2320   41.5950 C   0  0  0  0  0  0  0  0  0  0  0  0
   37.5180   29.2790   42.9400 C   0  0  0  0  0  0  0  0  0  0  0  0
   37.2700   28.1690   43.6770 C   0  0  0  0  0  0  0  0  0  0  0  0
   37.2840   26.9280   43.0940 C   0  0  0  0  0  0  0  0  0  0  0  0
   37.5560   26.8620   41.7440 C   0  0  0  0  0  0  0  0  0  0  0  0
   37.5020   30.2550   43.4220 H   0  0  0  0  0  0  0  0  0  0  0  0
   37.0590   28.2560   44.7350 H   0  0  0  0  0  0  0  0  0  0  0  0
   37.0850   26.0350   43.6880 H   0  0  0  0  0  0  0  0  0  0  0  0
   37.3250   32.2710   39.3690 C   0  0  0  0  0  0  0  0  0  0  0  0
   37.0490   31.1590   40.1720 C   0  0  0  0  0  0  0  0  0  0  0  0
   38.0640   30.3880   40.7600 C   0  0  0  0  0  0  0  0  0  0  0  0
   39.3250   30.8010   40.4900 N   0  0  0  0  0  0  0  0  0  0  0  0
   39.5800   31.8700   39.7180 C   0  0  0  0  0  0  0  0  0  0  0  0
   38.5900   32.5910   39.1680 N   0  0  0  0  0  0  0  0  0  0  0  0
   36.5160   32.8380   38.9370 H   0  0  0  0  0  0  0  0  0  0  0  0
   36.0150   30.8750   40.3530 H   0  0  0  0  0  0  0  0  0  0  0  0
   40.6580   32.0590   39.6070 H   0  0  0  0  0  0  0  0  0  0  0  0
   37.5750   25.5230   41.0930 C   0  0  0  0  0  0  0  0  0  0  0  0
   38.7170   24.7190   41.0250 C   0  0  0  0  0  0  0  0  0  0  0  0
   38.1890   23.2380   40.1440 S   0  0  0  0  0  0  0  0  0  0  0  0
   36.4100   23.9510   39.9840 C   0  0  0  0  0  0  0  0  0  0  0  0
   36.5580   24.9280   40.5060 N   0  0  0  0  0  0  0  0  0  0  0  0
   35.2900   23.3150   39.3490 N   0  0  0  0  0  0  0  0  0  0  0  0
   34.9440   22.3770   39.6760 H   0  0  0  0  0  0  0  0  0  0  0  0
   34.8880   23.8840   38.5580 H   0  0  0  0  0  0  0  0  0  0  0  0
   40.0490   25.0490   41.5690 C   0  0  0  0  0  0  0  0  0  0  0  0
   40.4470   24.7680   42.9810 C   0  0  0  0  0  0  0  0  0  0  0  0
   39.7850   24.3360   43.5950 H   0  0  0  0  0  0  0  0  0  0  0  0
   42.1040   25.3860   42.9750 S   0  0  0  0  0  0  0  0  0  0  0  0
   42.0560   25.9260   41.1360 C   0  0  0  0  0  0  0  0  0  0  0  0
   42.8430   26.4220   40.4670 H   0  0  0  0  0  0  0  0  0  0  0  0
   40.8590   25.6170   40.6870 N   0  0  0  0  0  0  0  0  0  0  0  0
  1  2  1  0  0  0  0
  2  3  2  0  0  0  0
  2  7  1  0  0  0  0
  3  4  1  0  0  0  0
  4  8  1  0  0  0  0
  4  5  2  0  0  0  0
  5  9  1  0  0  0  0
  6  5  1  0  0  0  0
  6 10  1  0  0  0  0
  7  6  2  0  0  0  0
 11 12  1  0  0  0  0
 12 18  1  0  0  0  0
 12 13  2  0  0  0  0
 13  3  1  0  0  0  0
 14 13  1  0  0  0  0
 15 14  2  0  0  0  0
 16 11  2  0  0  0  0
 16 15  1  0  0  0  0
 17 11  1  0  0  0  0
 19 15  1  0  0  0  0
 20  7  1  0  0  0  0
 21 20  2  0  0  0  0
 21 28  1  0  0  0  0
 22 21  1  0  0  0  0
 23 22  1  0  0  0  0
 23 24  2  0  0  0  0
 24 20  1  0  0  0  0
 25 26  1  0  0  0  0
 25 23  1  0  0  0  0
 27 25  1  0  0  0  0
 28 29  2  0  0  0  0
 29 30  1  0  0  0  0
 31 29  1  0  0  0  0
 32 31  1  0  0  0  0
 33 32  1  0  0  0  0
 34 32  2  0  0  0  0
 34 28  1  0  0  0  0
M  END
>  <minimizedAffinity>
-5.42248392

$$$$

 OpenBabel03242516073D

 34 37  0  0  0  0  0  0  0  0999 V2000
   38.5230   28.3040   39.3600 Cl  0  0  0  0  0  0  0  0  0  0  0  0
   38.1180   28.0480   41.0430 C   0  0  0  0  0  0  0  0  0  0  0  0
   37.7680   26.8190   41.5130 C   0  0  0  0  0  0  0  0  0  0  0  0
   37.4700   26.7360   42.8510 C   0  0  0  0  0  0  0  0  0  0  0  0
   37.5140   27.8070   43.6800 C   0  0  0  0  0  0  0  0  0  0  0  0
   37.8660   29.0430   43.2030 C   0  0  0  0  0  0  0  0  0  0  0  0
   38.1690   29.1450   41.8620 C   0  0  0  0  0  0  0  0  0  0  0  0
   37.1880   25.7630   43.2500 H   0  0  0  0  0  0  0  0  0  0  0  0
   37.2700   27.6920   44.7290 H   0  0  0  0  0  0  0  0  0  0  0  0
   37.9000   29.9040   43.8700 H   0  0  0  0  0  0  0  0  0  0  0  0
   36.5590   24.2500   38.9930 C   0  0  0  0  0  0  0  0  0  0  0  0
   36.5760   25.3260   39.8880 C   0  0  0  0  0  0  0  0  0  0  0  0
   37.7360   25.7050   40.5820 C   0  0  0  0  0  0  0  0  0  0  0  0
   38.8310   24.9520   40.3200 N   0  0  0  0  0  0  0  0  0  0  0  0
   38.8050   23.9220   39.4590 C   0  0  0  0  0  0  0  0  0  0  0  0
   37.6820   23.5810   38.8080 N   0  0  0  0  0  0  0  0  0  0  0  0
   35.6470   23.9910   38.4790 H   0  0  0  0  0  0  0  0  0  0  0  0
   35.6650   25.8930   40.0580 H   0  0  0  0  0  0  0  0  0  0  0  0
   39.7830   23.4260   39.3710 H   0  0  0  0  0  0  0  0  0  0  0  0
   38.5540   30.4790   41.3250 C   0  0  0  0  0  0  0  0  0  0  0  0
   39.8790   30.9230   41.2510 C   0  0  0  0  0  0  0  0  0  0  0  0
   39.7740   32.5750   40.5380 S   0  0  0  0  0  0  0  0  0  0  0  0
   37.8600   32.4240   40.4340 C   0  0  0  0  0  0  0  0  0  0  0  0
   37.7350   31.3990   40.8610 N   0  0  0  0  0  0  0  0  0  0  0  0
   36.9520   33.4160   39.9310 N   0  0  0  0  0  0  0  0  0  0  0  0
   37.0320   33.7720   38.9450 H   0  0  0  0  0  0  0  0  0  0  0  0
   36.2370   33.7200   40.6440 H   0  0  0  0  0  0  0  0  0  0  0  0
   41.0750   30.1720   41.6790 C   0  0  0  0  0  0  0  0  0  0  0  0
   41.7200   29.1180   40.8400 C   0  0  0  0  0  0  0  0  0  0  0  0
   41.3280   28.9040   39.9430 H   0  0  0  0  0  0  0  0  0  0  0  0
   43.0520   28.6360   41.8990 S   0  0  0  0  0  0  0  0  0  0  0  0
   42.5900   29.8710   43.2910 C   0  0  0  0  0  0  0  0  0  0  0  0
   43.0700   30.0840   44.3090 H   0  0  0  0  0  0  0  0  0  0  0  0
   41.5240   30.5200   42.8760 N   0  0  0  0  0  0  0  0  0  0  0  0
  1  2  1  0  0  0  0
  2  3  2  0  0  0  0
  2  7  1  0  0  0  0
  3  4  1  0  0  0  0
  4  8  1  0  0  0  0
  4  5  2  0  0  0  0
  5  9  1  0  0  0  0
  6  5  1  0  0  0  0
  6 10  1  0  0  0  0
  7  6  2  0  0  0  0
 11 12  1  0  0  0  0
 12 18  1  0  0  0  0
 12 13  2  0  0  0  0
 13  3  1  0  0  0  0
 14 13  1  0  0  0  0
 15 14  2  0  0  0  0
 16 11  2  0  0  0  0
 16 15  1  0  0  0  0
 17 11  1  0  0  0  0
 19 15  1  0  0  0  0
 20  7  1  0  0  0  0
 21 20  2  0  0  0  0
 21 28  1  0  0  0  0
 22 21  1  0  0  0  0
 23 22  1  0  0  0  0
 23 24  2  0  0  0  0
 24 20  1  0  0  0  0
 25 23  1  0  0  0  0
 25 27  1  0  0  0  0
 26 25  1  0  0  0  0
 28 34  1  0  0  0  0
 29 28  2  0  0  0  0
 29 31  1  0  0  0  0
 30 29  1  0  0  0  0
 31 32  1  0  0  0  0
 32 33  1  0  0  0  0
 34 32  2  0  0  0  0
M  END
>  <minimizedAffinity>
-5.4057951

$$$$

 OpenBabel03242516073D

 34 37  0  0  0  0  0  0  0  0999 V2000
   39.7800   26.8780   40.5720 Cl  0  0  0  0  0  0  0  0  0  0  0  0
   38.5530   27.2110   41.7740 C   0  0  0  0  0  0  0  0  0  0  0  0
   37.4860   26.3840   41.9530 C   0  0  0  0  0  0  0  0  0  0  0  0
   36.5850   26.7440   42.9250 C   0  0  0  0  0  0  0  0  0  0  0  0
   36.7290   27.8600   43.6790 C   0  0  0  0  0  0  0  0  0  0  0  0
   37.8040   28.6910   43.4970 C   0  0  0  0  0  0  0  0  0  0  0  0
   38.7190   28.3450   42.5260 C   0  0  0  0  0  0  0  0  0  0  0  0
   35.7250   26.0970   43.0860 H   0  0  0  0  0  0  0  0  0  0  0  0
   35.9920   28.1030   44.4350 H   0  0  0  0  0  0  0  0  0  0  0  0
   37.9180   29.5900   44.1040 H   0  0  0  0  0  0  0  0  0  0  0  0
   37.8010   22.8230   40.6740 C   0  0  0  0  0  0  0  0  0  0  0  0
   37.9100   23.9550   41.4900 C   0  0  0  0  0  0  0  0  0  0  0  0
   37.3800   25.2010   41.1170 C   0  0  0  0  0  0  0  0  0  0  0  0
   36.7590   25.2210   39.9140 N   0  0  0  0  0  0  0  0  0  0  0  0
   36.6590   24.1290   39.1390 C   0  0  0  0  0  0  0  0  0  0  0  0
   37.1750   22.9490   39.5190 N   0  0  0  0  0  0  0  0  0  0  0  0
   38.2220   21.8840   40.9980 H   0  0  0  0  0  0  0  0  0  0  0  0
   38.4210   23.8770   42.4460 H   0  0  0  0  0  0  0  0  0  0  0  0
   36.1240   24.3300   38.1990 H   0  0  0  0  0  0  0  0  0  0  0  0
   39.8930   29.2340   42.3120 C   0  0  0  0  0  0  0  0  0  0  0  0
   39.9020   30.2850   41.3880 C   0  0  0  0  0  0  0  0  0  0  0  0
   41.5420   31.0170   41.5360 S   0  0  0  0  0  0  0  0  0  0  0  0
   42.0060   29.7370   42.8940 C   0  0  0  0  0  0  0  0  0  0  0  0
   41.0490   29.1620   42.9370 N   0  0  0  0  0  0  0  0  0  0  0  0
   43.2610   29.6450   43.5870 N   0  0  0  0  0  0  0  0  0  0  0  0
   43.6310   30.4550   44.1460 H   0  0  0  0  0  0  0  0  0  0  0  0
   43.7320   28.7100   43.4630 H   0  0  0  0  0  0  0  0  0  0  0  0
   38.7900   30.6740   40.5000 C   0  0  0  0  0  0  0  0  0  0  0  0
   38.6200   30.1330   39.1180 C   0  0  0  0  0  0  0  0  0  0  0  0
   39.2900   29.4740   38.7690 H   0  0  0  0  0  0  0  0  0  0  0  0
   37.1470   30.9760   38.6220 S   0  0  0  0  0  0  0  0  0  0  0  0
   36.9500   31.9190   40.2800 C   0  0  0  0  0  0  0  0  0  0  0  0
   36.1630   32.6700   40.6390 H   0  0  0  0  0  0  0  0  0  0  0  0
   37.9550   31.5480   41.0430 N   0  0  0  0  0  0  0  0  0  0  0  0
  1  2  1  0  0  0  0
  2  3  2  0  0  0  0
  2  7  1  0  0  0  0
  3  4  1  0  0  0  0
  4  8  1  0  0  0  0
  4  5  2  0  0  0  0
  5  9  1  0  0  0  0
  6  5  1  0  0  0  0
  6 10  1  0  0  0  0
  7  6  2  0  0  0  0
 11 17  1  0  0  0  0
 11 12  1  0  0  0  0
 12 18  1  0  0  0  0
 13 12  2  0  0  0  0
 13  3  1  0  0  0  0
 14 13  1  0  0  0  0
 15 16  1  0  0  0  0
 15 14  2  0  0  0  0
 16 11  2  0  0  0  0
 19 15  1  0  0  0  0
 20  7  1  0  0  0  0
 20 24  1  0  0  0  0
 21 22  1  0  0  0  0
 21 20  2  0  0  0  0
 22 23  1  0  0  0  0
 23 24  2  0  0  0  0
 23 25  1  0  0  0  0
 25 26  1  0  0  0  0
 27 25  1  0  0  0  0
 28 34  1  0  0  0  0
 28 21  1  0  0  0  0
 29 28  2  0  0  0  0
 30 29  1  0  0  0  0
 31 29  1  0  0  0  0
 31 32  1  0  0  0  0
 32 33  1  0  0  0  0
 32 34  2  0  0  0  0
M  END
>  <minimizedAffinity>
-5.38897514

$$$$

 OpenBabel03242516073D

 34 37  0  0  0  0  0  0  0  0999 V2000
   40.5210   30.6020   37.8630 Cl  0  0  0  0  0  0  0  0  0  0  0  0
   39.3300   31.6380   38.6190 C   0  0  0  0  0  0  0  0  0  0  0  0
   39.6830   32.8030   39.2300 C   0  0  0  0  0  0  0  0  0  0  0  0
   38.6650   33.5360   39.7890 C   0  0  0  0  0  0  0  0  0  0  0  0
   37.3700   33.1410   39.7480 C   0  0  0  0  0  0  0  0  0  0  0  0
   37.0180   31.9680   39.1320 C   0  0  0  0  0  0  0  0  0  0  0  0
   38.0270   31.2190   38.5640 C   0  0  0  0  0  0  0  0  0  0  0  0
   38.9240   34.4710   40.2820 H   0  0  0  0  0  0  0  0  0  0  0  0
   36.6010   33.7530   40.2030 H   0  0  0  0  0  0  0  0  0  0  0  0
   35.9750   31.6500   39.1000 H   0  0  0  0  0  0  0  0  0  0  0  0
   43.2820   33.2870   40.3380 C   0  0  0  0  0  0  0  0  0  0  0  0
   41.9320   32.9190   40.3360 C   0  0  0  0  0  0  0  0  0  0  0  0
   41.0860   33.1790   39.2460 C   0  0  0  0  0  0  0  0  0  0  0  0
   41.6760   33.8090   38.2020 N   0  0  0  0  0  0  0  0  0  0  0  0
   42.9720   34.1580   38.2140 C   0  0  0  0  0  0  0  0  0  0  0  0
   43.7590   33.8970   39.2700 N   0  0  0  0  0  0  0  0  0  0  0  0
   43.8980   33.0680   41.1960 H   0  0  0  0  0  0  0  0  0  0  0  0
   41.5140   32.4140   41.2040 H   0  0  0  0  0  0  0  0  0  0  0  0
   43.2790   34.6600   37.2850 H   0  0  0  0  0  0  0  0  0  0  0  0
   37.6650   29.9420   37.8910 C   0  0  0  0  0  0  0  0  0  0  0  0
   37.4510   28.7440   38.5810 C   0  0  0  0  0  0  0  0  0  0  0  0
   37.0510   27.5380   37.3030 S   0  0  0  0  0  0  0  0  0  0  0  0
   37.2380   28.8910   35.9490 C   0  0  0  0  0  0  0  0  0  0  0  0
   37.5020   29.7620   36.5970 N   0  0  0  0  0  0  0  0  0  0  0  0
   37.0640   28.7130   34.5350 N   0  0  0  0  0  0  0  0  0  0  0  0
   36.1510   28.3670   34.1420 H   0  0  0  0  0  0  0  0  0  0  0  0
   37.9250   28.9600   33.9790 H   0  0  0  0  0  0  0  0  0  0  0  0
   37.5450   28.5510   40.0410 C   0  0  0  0  0  0  0  0  0  0  0  0
   36.3680   28.6480   40.9550 C   0  0  0  0  0  0  0  0  0  0  0  0
   35.4680   28.8550   40.5670 H   0  0  0  0  0  0  0  0  0  0  0  0
   37.1430   28.3230   42.5120 S   0  0  0  0  0  0  0  0  0  0  0  0
   38.8950   28.1040   41.7630 C   0  0  0  0  0  0  0  0  0  0  0  0
   39.9050   27.8670   42.2480 H   0  0  0  0  0  0  0  0  0  0  0  0
   38.7720   28.2820   40.4660 N   0  0  0  0  0  0  0  0  0  0  0  0
  1  2  1  0  0  0  0
  2  3  1  0  0  0  0
  3 13  1  0  0  0  0
  3  4  2  0  0  0  0
  4  8  1  0  0  0  0
  5  4  1  0  0  0  0
  5  9  1  0  0  0  0
  6  5  2  0  0  0  0
  7  2  2  0  0  0  0
  7  6  1  0  0  0  0
 10  6  1  0  0  0  0
 11 17  1  0  0  0  0
 12 11  1  0  0  0  0
 12 18  1  0  0  0  0
 13 12  2  0  0  0  0
 14 15  2  0  0  0  0
 14 13  1  0  0  0  0
 15 16  1  0  0  0  0
 16 11  2  0  0  0  0
 19 15  1  0  0  0  0
 20  7  1  0  0  0  0
 20 21  2  0  0  0  0
 21 28  1  0  0  0  0
 22 21  1  0  0  0  0
 23 24  2  0  0  0  0
 23 22  1  0  0  0  0
 24 20  1  0  0  0  0
 25 23  1  0  0  0  0
 26 25  1  0  0  0  0
 27 25  1  0  0  0  0
 28 34  1  0  0  0  0
 28 29  2  0  0  0  0
 29 31  1  0  0  0  0
 30 29  1  0  0  0  0
 32 33  1  0  0  0  0
 32 31  1  0  0  0  0
 34 32  2  0  0  0  0
M  END
>  <minimizedAffinity>
-5.35802031

$$$$

 OpenBabel03242516073D

 34 37  0  0  0  0  0  0  0  0999 V2000
   40.4580   29.0510   40.7030 Cl  0  0  0  0  0  0  0  0  0  0  0  0
   39.3080   28.4210   41.8610 C   0  0  0  0  0  0  0  0  0  0  0  0
   39.6790   27.5350   42.8260 C   0  0  0  0  0  0  0  0  0  0  0  0
   38.6920   27.1080   43.6800 C   0  0  0  0  0  0  0  0  0  0  0  0
   37.4080   27.5300   43.5860 C   0  0  0  0  0  0  0  0  0  0  0  0
   37.0370   28.4220   42.6120 C   0  0  0  0  0  0  0  0  0  0  0  0
   38.0160   28.8630   41.7470 C   0  0  0  0  0  0  0  0  0  0  0  0
   38.9660   26.4000   44.4600 H   0  0  0  0  0  0  0  0  0  0  0  0
   36.6640   27.1650   44.2820 H   0  0  0  0  0  0  0  0  0  0  0  0
   36.0040   28.7610   42.5370 H   0  0  0  0  0  0  0  0  0  0  0  0
   43.3850   27.4040   43.6420 C   0  0  0  0  0  0  0  0  0  0  0  0
   42.0490   27.8200   43.5970 C   0  0  0  0  0  0  0  0  0  0  0  0
   41.0680   27.1150   42.8820 C   0  0  0  0  0  0  0  0  0  0  0  0
   41.5120   26.0070   42.2430 N   0  0  0  0  0  0  0  0  0  0  0  0
   42.7960   25.6150   42.2930 C   0  0  0  0  0  0  0  0  0  0  0  0
   43.7140   26.3090   42.9840 N   0  0  0  0  0  0  0  0  0  0  0  0
   44.1080   27.9740   44.2030 H   0  0  0  0  0  0  0  0  0  0  0  0
   41.7520   28.7190   44.1300 H   0  0  0  0  0  0  0  0  0  0  0  0
   42.9760   24.6960   41.7160 H   0  0  0  0  0  0  0  0  0  0  0  0
   37.6330   29.8310   40.6830 C   0  0  0  0  0  0  0  0  0  0  0  0
   37.3000   29.4470   39.3790 C   0  0  0  0  0  0  0  0  0  0  0  0
   36.9290   30.9890   38.5240 S   0  0  0  0  0  0  0  0  0  0  0  0
   37.2930   31.9840   40.1290 C   0  0  0  0  0  0  0  0  0  0  0  0
   37.5570   31.1390   40.8100 N   0  0  0  0  0  0  0  0  0  0  0  0
   37.2140   33.4090   40.2860 N   0  0  0  0  0  0  0  0  0  0  0  0
   36.3160   33.9240   40.1040 H   0  0  0  0  0  0  0  0  0  0  0  0
   38.1270   33.8410   40.5880 H   0  0  0  0  0  0  0  0  0  0  0  0
   37.2740   28.0670   38.8570 C   0  0  0  0  0  0  0  0  0  0  0  0
   38.4430   27.4270   38.1830 C   0  0  0  0  0  0  0  0  0  0  0  0
   39.2890   27.9530   38.0750 H   0  0  0  0  0  0  0  0  0  0  0  0
   37.7680   25.8340   37.8150 S   0  0  0  0  0  0  0  0  0  0  0  0
   36.0560   26.2160   38.5890 C   0  0  0  0  0  0  0  0  0  0  0  0
   35.1080   25.5800   38.6910 H   0  0  0  0  0  0  0  0  0  0  0  0
   36.1170   27.4490   39.0420 N   0  0  0  0  0  0  0  0  0  0  0  0
  1  2  1  0  0  0  0
  2  3  1  0  0  0  0
  3 13  1  0  0  0  0
  3  4  2  0  0  0  0
  4  8  1  0  0  0  0
  5  4  1  0  0  0  0
  5  9  1  0  0  0  0
  6  5  2  0  0  0  0
  7  2  2  0  0  0  0
  7  6  1  0  0  0  0
 10  6  1  0  0  0  0
 11 17  1  0  0  0  0
 12 11  1  0  0  0  0
 12 18  1  0  0  0  0
 13 12  2  0  0  0  0
 14 15  2  0  0  0  0
 14 13  1  0  0  0  0
 15 16  1  0  0  0  0
 16 11  2  0  0  0  0
 19 15  1  0  0  0  0
 20 24  1  0  0  0  0
 20  7  1  0  0  0  0
 21 20  2  0  0  0  0
 22 21  1  0  0  0  0
 22 23  1  0  0  0  0
 23 25  1  0  0  0  0
 23 24  2  0  0  0  0
 25 27  1  0  0  0  0
 26 25  1  0  0  0  0
 28 34  1  0  0  0  0
 28 21  1  0  0  0  0
 29 28  2  0  0  0  0
 30 29  1  0  0  0  0
 31 29  1  0  0  0  0
 31 32  1  0  0  0  0
 32 33  1  0  0  0  0
 32 34  2  0  0  0  0
M  END
>  <minimizedAffinity>
-5.31432724

$$$$

 OpenBabel03242516073D

 34 37  0  0  0  0  0  0  0  0999 V2000
   37.3850   27.1280   38.6510 Cl  0  0  0  0  0  0  0  0  0  0  0  0
   37.1540   26.0130   39.9800 C   0  0  0  0  0  0  0  0  0  0  0  0
   36.9010   24.6920   39.7670 C   0  0  0  0  0  0  0  0  0  0  0  0
   36.7360   23.9110   40.8840 C   0  0  0  0  0  0  0  0  0  0  0  0
   36.8150   24.4060   42.1420 C   0  0  0  0  0  0  0  0  0  0  0  0
   37.0690   25.7360   42.3530 C   0  0  0  0  0  0  0  0  0  0  0  0
   37.2380   26.5360   41.2430 C   0  0  0  0  0  0  0  0  0  0  0  0
   36.5340   22.8510   40.7380 H   0  0  0  0  0  0  0  0  0  0  0  0
   36.6780   23.7500   42.9930 H   0  0  0  0  0  0  0  0  0  0  0  0
   37.1320   26.1340   43.3670 H   0  0  0  0  0  0  0  0  0  0  0  0
   35.5610   23.6780   36.3620 C   0  0  0  0  0  0  0  0  0  0  0  0
   35.6200   24.1410   37.6810 C   0  0  0  0  0  0  0  0  0  0  0  0
   36.8260   24.2140   38.3970 C   0  0  0  0  0  0  0  0  0  0  0  0
   37.9220   23.8040   37.7150 N   0  0  0  0  0  0  0  0  0  0  0  0
   37.8550   23.3620   36.4490 C   0  0  0  0  0  0  0  0  0  0  0  0
   36.6890   23.3020   35.7870 N   0  0  0  0  0  0  0  0  0  0  0  0
   34.6150   23.6380   35.8470 H   0  0  0  0  0  0  0  0  0  0  0  0
   34.7060   24.4570   38.1770 H   0  0  0  0  0  0  0  0  0  0  0  0
   38.8400   23.0710   36.0550 H   0  0  0  0  0  0  0  0  0  0  0  0
   37.5150   27.9840   41.4510 C   0  0  0  0  0  0  0  0  0  0  0  0
   38.7680   28.4780   41.8320 C   0  0  0  0  0  0  0  0  0  0  0  0
   38.5460   30.2640   41.9410 S   0  0  0  0  0  0  0  0  0  0  0  0
   36.7010   30.0800   41.4310 C   0  0  0  0  0  0  0  0  0  0  0  0
   36.6540   28.9700   41.3150 N   0  0  0  0  0  0  0  0  0  0  0  0
   35.7490   31.1430   41.2760 N   0  0  0  0  0  0  0  0  0  0  0  0
   35.9170   31.9250   40.5930 H   0  0  0  0  0  0  0  0  0  0  0  0
   34.9090   31.0390   41.9050 H   0  0  0  0  0  0  0  0  0  0  0  0
   39.9820   27.6780   42.0830 C   0  0  0  0  0  0  0  0  0  0  0  0
   40.9030   27.2300   40.9960 C   0  0  0  0  0  0  0  0  0  0  0  0
   40.6950   27.4800   40.0490 H   0  0  0  0  0  0  0  0  0  0  0  0
   42.1090   26.3470   41.9420 S   0  0  0  0  0  0  0  0  0  0  0  0
   41.2510   26.6800   43.6240 C   0  0  0  0  0  0  0  0  0  0  0  0
   41.5270   26.3710   44.6930 H   0  0  0  0  0  0  0  0  0  0  0  0
   40.1780   27.3930   43.3620 N   0  0  0  0  0  0  0  0  0  0  0  0
  1  2  1  0  0  0  0
  2  7  1  0  0  0  0
  3  2  2  0  0  0  0
  3  4  1  0  0  0  0
  4  5  2  0  0  0  0
  5  6  1  0  0  0  0
  5  9  1  0  0  0  0
  6 10  1  0  0  0  0
  7 20  1  0  0  0  0
  7  6  2  0  0  0  0
  8  4  1  0  0  0  0
 11 12  1  0  0  0  0
 12 18  1  0  0  0  0
 12 13  2  0  0  0  0
 13  3  1  0  0  0  0
 14 13  1  0  0  0  0
 15 14  2  0  0  0  0
 16 11  2  0  0  0  0
 16 15  1  0  0  0  0
 17 11  1  0  0  0  0
 19 15  1  0  0  0  0
 20 21  2  0  0  0  0
 21 22  1  0  0  0  0
 21 28  1  0  0  0  0
 23 22  1  0  0  0  0
 24 23  2  0  0  0  0
 24 20  1  0  0  0  0
 25 23  1  0  0  0  0
 25 27  1  0  0  0  0
 26 25  1  0  0  0  0
 28 34  1  0  0  0  0
 29 31  1  0  0  0  0
 29 28  2  0  0  0  0
 30 29  1  0  0  0  0
 31 32  1  0  0  0  0
 32 33  1  0  0  0  0
 34 32  2  0  0  0  0
M  END
>  <minimizedAffinity>
-5.29700184

$$$$

 OpenBabel03242516073D

 34 37  0  0  0  0  0  0  0  0999 V2000
   39.8500   27.2450   40.1020 Cl  0  0  0  0  0  0  0  0  0  0  0  0
   38.7260   27.4460   41.4270 C   0  0  0  0  0  0  0  0  0  0  0  0
   39.1100   27.2690   42.7220 C   0  0  0  0  0  0  0  0  0  0  0  0
   38.1430   27.4530   43.6790 C   0  0  0  0  0  0  0  0  0  0  0  0
   36.8670   27.7920   43.3760 C   0  0  0  0  0  0  0  0  0  0  0  0
   36.4830   27.9690   42.0720 C   0  0  0  0  0  0  0  0  0  0  0  0
   37.4410   27.7900   41.0970 C   0  0  0  0  0  0  0  0  0  0  0  0
   38.4270   27.3170   44.7210 H   0  0  0  0  0  0  0  0  0  0  0  0
   36.1380   27.9260   44.1670 H   0  0  0  0  0  0  0  0  0  0  0  0
   35.4550   28.2410   41.8300 H   0  0  0  0  0  0  0  0  0  0  0  0
   42.8110   27.4890   43.5390 C   0  0  0  0  0  0  0  0  0  0  0  0
   41.4840   27.8530   43.2820 C   0  0  0  0  0  0  0  0  0  0  0  0
   40.4900   26.9050   42.9900 C   0  0  0  0  0  0  0  0  0  0  0  0
   40.9120   25.6190   42.9780 N   0  0  0  0  0  0  0  0  0  0  0  0
   42.1870   25.2800   43.2260 C   0  0  0  0  0  0  0  0  0  0  0  0
   43.1190   26.2060   43.5020 N   0  0  0  0  0  0  0  0  0  0  0  0
   43.5440   28.2480   43.7590 H   0  0  0  0  0  0  0  0  0  0  0  0
   41.2040   28.9030   43.3060 H   0  0  0  0  0  0  0  0  0  0  0  0
   42.3490   24.1930   43.1730 H   0  0  0  0  0  0  0  0  0  0  0  0
   37.0450   27.9780   39.6750 C   0  0  0  0  0  0  0  0  0  0  0  0
   37.2380   29.1750   38.9760 C   0  0  0  0  0  0  0  0  0  0  0  0
   36.5870   28.8570   37.3260 S   0  0  0  0  0  0  0  0  0  0  0  0
   36.1230   27.0630   37.8390 C   0  0  0  0  0  0  0  0  0  0  0  0
   36.4740   27.0800   38.8990 N   0  0  0  0  0  0  0  0  0  0  0  0
   35.5020   26.0710   37.0060 N   0  0  0  0  0  0  0  0  0  0  0  0
   35.9540   25.7570   36.1100 H   0  0  0  0  0  0  0  0  0  0  0  0
   34.5850   25.7240   37.3940 H   0  0  0  0  0  0  0  0  0  0  0  0
   37.8460   30.4080   39.5120 C   0  0  0  0  0  0  0  0  0  0  0  0
   37.0780   31.4240   40.2930 C   0  0  0  0  0  0  0  0  0  0  0  0
   36.1040   31.2690   40.4640 H   0  0  0  0  0  0  0  0  0  0  0  0
   38.3520   32.6060   40.6210 S   0  0  0  0  0  0  0  0  0  0  0  0
   39.7130   31.6190   39.6980 C   0  0  0  0  0  0  0  0  0  0  0  0
   40.8240   31.8350   39.5230 H   0  0  0  0  0  0  0  0  0  0  0  0
   39.1370   30.5300   39.2360 N   0  0  0  0  0  0  0  0  0  0  0  0
  1  2  1  0  0  0  0
  2  3  1  0  0  0  0
  3 13  1  0  0  0  0
  3  4  2  0  0  0  0
  4  8  1  0  0  0  0
  5  4  1  0  0  0  0
  5  9  1  0  0  0  0
  6  5  2  0  0  0  0
  7  2  2  0  0  0  0
  7  6  1  0  0  0  0
 10  6  1  0  0  0  0
 11 17  1  0  0  0  0
 12 18  1  0  0  0  0
 12 11  2  0  0  0  0
 13 12  1  0  0  0  0
 14 13  2  0  0  0  0
 14 15  1  0  0  0  0
 15 16  2  0  0  0  0
 16 11  1  0  0  0  0
 19 15  1  0  0  0  0
 20  7  1  0  0  0  0
 21 28  1  0  0  0  0
 21 20  2  0  0  0  0
 22 23  1  0  0  0  0
 22 21  1  0  0  0  0
 23 24  2  0  0  0  0
 24 20  1  0  0  0  0
 25 27  1  0  0  0  0
 25 23  1  0  0  0  0
 26 25  1  0  0  0  0
 28 29  2  0  0  0  0
 29 30  1  0  0  0  0
 29 31  1  0  0  0  0
 32 31  1  0  0  0  0
 33 32  1  0  0  0  0
 34 28  1  0  0  0  0
 34 32  2  0  0  0  0
M  END
>  <minimizedAffinity>
-5.19065762

$$$$

 OpenBabel03242516073D

 34 37  0  0  0  0  0  0  0  0999 V2000
   38.3120   29.0790   39.2770 Cl  0  0  0  0  0  0  0  0  0  0  0  0
   37.8880   28.6270   40.9130 C   0  0  0  0  0  0  0  0  0  0  0  0
   37.1110   27.5390   41.1740 C   0  0  0  0  0  0  0  0  0  0  0  0
   36.8410   27.2790   42.4950 C   0  0  0  0  0  0  0  0  0  0  0  0
   37.3120   28.0510   43.5040 C   0  0  0  0  0  0  0  0  0  0  0  0
   38.0940   29.1460   43.2380 C   0  0  0  0  0  0  0  0  0  0  0  0
   38.3750   29.4210   41.9170 C   0  0  0  0  0  0  0  0  0  0  0  0
   36.2230   26.4140   42.7270 H   0  0  0  0  0  0  0  0  0  0  0  0
   37.0730   27.8060   44.5310 H   0  0  0  0  0  0  0  0  0  0  0  0
   38.4710   29.7670   44.0510 H   0  0  0  0  0  0  0  0  0  0  0  0
   36.4640   24.6300   38.8210 C   0  0  0  0  0  0  0  0  0  0  0  0
   36.9320   25.3830   39.9040 C   0  0  0  0  0  0  0  0  0  0  0  0
   36.6330   26.7470   40.0550 C   0  0  0  0  0  0  0  0  0  0  0  0
   35.8610   27.2740   39.0750 N   0  0  0  0  0  0  0  0  0  0  0  0
   35.4170   26.5440   38.0390 C   0  0  0  0  0  0  0  0  0  0  0  0
   35.7180   25.2410   37.9190 N   0  0  0  0  0  0  0  0  0  0  0  0
   36.7160   23.5850   38.7420 H   0  0  0  0  0  0  0  0  0  0  0  0
   37.5480   24.9040   40.6600 H   0  0  0  0  0  0  0  0  0  0  0  0
   34.8060   27.1350   37.3420 H   0  0  0  0  0  0  0  0  0  0  0  0
   39.2220   30.6060   41.6080 C   0  0  0  0  0  0  0  0  0  0  0  0
   40.6130   30.5390   41.4690 C   0  0  0  0  0  0  0  0  0  0  0  0
   41.1230   32.2290   41.1060 S   0  0  0  0  0  0  0  0  0  0  0  0
   39.2940   32.8150   41.1980 C   0  0  0  0  0  0  0  0  0  0  0  0
   38.8020   31.8400   41.4300 N   0  0  0  0  0  0  0  0  0  0  0  0
   38.8180   34.1560   41.0050 N   0  0  0  0  0  0  0  0  0  0  0  0
   38.9950   34.6690   40.1040 H   0  0  0  0  0  0  0  0  0  0  0  0
   38.2980   34.5330   41.8420 H   0  0  0  0  0  0  0  0  0  0  0  0
   41.4450   29.3270   41.6010 C   0  0  0  0  0  0  0  0  0  0  0  0
   41.9420   28.8170   42.9150 C   0  0  0  0  0  0  0  0  0  0  0  0
   41.7050   29.3160   43.7500 H   0  0  0  0  0  0  0  0  0  0  0  0
   42.8420   27.3900   42.3840 S   0  0  0  0  0  0  0  0  0  0  0  0
   42.4500   27.6490   40.5250 C   0  0  0  0  0  0  0  0  0  0  0  0
   42.7460   27.0500   39.5940 H   0  0  0  0  0  0  0  0  0  0  0  0
   41.7100   28.7340   40.4460 N   0  0  0  0  0  0  0  0  0  0  0  0
  1  2  1  0  0  0  0
  2  3  2  0  0  0  0
  2  7  1  0  0  0  0
  3  4  1  0  0  0  0
  4  8  1  0  0  0  0
  4  5  2  0  0  0  0
  5  9  1  0  0  0  0
  6  5  1  0  0  0  0
  6 10  1  0  0  0  0
  7  6  2  0  0  0  0
 11 12  1  0  0  0  0
 12 13  2  0  0  0  0
 12 18  1  0  0  0  0
 13  3  1  0  0  0  0
 14 13  1  0  0  0  0
 15 14  2  0  0  0  0
 16 15  1  0  0  0  0
 16 11  2  0  0  0  0
 17 11  1  0  0  0  0
 19 15  1  0  0  0  0
 20  7  1  0  0  0  0
 21 28  1  0  0  0  0
 21 20  2  0  0  0  0
 22 23  1  0  0  0  0
 22 21  1  0  0  0  0
 23 24  2  0  0  0  0
 24 20  1  0  0  0  0
 25 23  1  0  0  0  0
 25 27  1  0  0  0  0
 26 25  1  0  0  0  0
 28 29  2  0  0  0  0
 29 30  1  0  0  0  0
 31 29  1  0  0  0  0
 32 31  1  0  0  0  0
 33 32  1  0  0  0  0
 34 32  2  0  0  0  0
 34 28  1  0  0  0  0
M  END
>  <minimizedAffinity>
-5.10439777

$$$$

 OpenBabel03242516073D

 34 37  0  0  0  0  0  0  0  0999 V2000
   38.3690   28.9920   38.0460 Cl  0  0  0  0  0  0  0  0  0  0  0  0
   36.7620   29.0270   38.7370 C   0  0  0  0  0  0  0  0  0  0  0  0
   35.6480   28.9640   37.9560 C   0  0  0  0  0  0  0  0  0  0  0  0
   34.4390   29.0000   38.6070 C   0  0  0  0  0  0  0  0  0  0  0  0
   34.3350   29.0940   39.9550 C   0  0  0  0  0  0  0  0  0  0  0  0
   35.4590   29.1580   40.7380 C   0  0  0  0  0  0  0  0  0  0  0  0
   36.6810   29.1220   40.1010 C   0  0  0  0  0  0  0  0  0  0  0  0
   33.5350   28.9500   38.0040 H   0  0  0  0  0  0  0  0  0  0  0  0
   33.3590   29.1190   40.4240 H   0  0  0  0  0  0  0  0  0  0  0  0
   35.3740   29.2350   41.8220 H   0  0  0  0  0  0  0  0  0  0  0  0
   35.7580   27.5930   34.4180 C   0  0  0  0  0  0  0  0  0  0  0  0
   35.5910   27.6750   35.8050 C   0  0  0  0  0  0  0  0  0  0  0  0
   35.8160   28.8640   36.5180 C   0  0  0  0  0  0  0  0  0  0  0  0
   36.2030   29.9190   35.7620 N   0  0  0  0  0  0  0  0  0  0  0  0
   36.3590   29.8300   34.4310 C   0  0  0  0  0  0  0  0  0  0  0  0
   36.1380   28.6800   33.7740 N   0  0  0  0  0  0  0  0  0  0  0  0
   35.5750   26.6600   33.9080 H   0  0  0  0  0  0  0  0  0  0  0  0
   35.2790   26.7940   36.3590 H   0  0  0  0  0  0  0  0  0  0  0  0
   36.6770   30.7830   33.9830 H   0  0  0  0  0  0  0  0  0  0  0  0
   37.9130   29.1900   40.9340 C   0  0  0  0  0  0  0  0  0  0  0  0
   38.5720   28.0570   41.4230 C   0  0  0  0  0  0  0  0  0  0  0  0
   39.9740   28.7030   42.3530 S   0  0  0  0  0  0  0  0  0  0  0  0
   39.4450   30.5020   41.9280 C   0  0  0  0  0  0  0  0  0  0  0  0
   38.5350   30.2850   41.3180 N   0  0  0  0  0  0  0  0  0  0  0  0
   40.1120   31.7060   42.3380 N   0  0  0  0  0  0  0  0  0  0  0  0
   41.1160   31.8820   42.0810 H   0  0  0  0  0  0  0  0  0  0  0  0
   39.4920   32.3500   42.8980 H   0  0  0  0  0  0  0  0  0  0  0  0
   38.1720   26.6540   41.2030 C   0  0  0  0  0  0  0  0  0  0  0  0
   38.5700   25.8710   39.9950 C   0  0  0  0  0  0  0  0  0  0  0  0
   39.1340   26.3120   39.2950 H   0  0  0  0  0  0  0  0  0  0  0  0
   37.7900   24.3220   40.3450 S   0  0  0  0  0  0  0  0  0  0  0  0
   37.0510   24.9020   42.0170 C   0  0  0  0  0  0  0  0  0  0  0  0
   36.4060   24.3600   42.7930 H   0  0  0  0  0  0  0  0  0  0  0  0
   37.4280   26.1520   42.1790 N   0  0  0  0  0  0  0  0  0  0  0  0
  1  2  1  0  0  0  0
  2  7  1  0  0  0  0
  3  4  1  0  0  0  0
  3  2  2  0  0  0  0
  4  5  2  0  0  0  0
  5  9  1  0  0  0  0
  5  6  1  0  0  0  0
  6 10  1  0  0  0  0
  7  6  2  0  0  0  0
  7 20  1  0  0  0  0
  8  4  1  0  0  0  0
 11 12  1  0  0  0  0
 12 18  1  0  0  0  0
 12 13  2  0  0  0  0
 13  3  1  0  0  0  0
 14 13  1  0  0  0  0
 15 14  2  0  0  0  0
 16 11  2  0  0  0  0
 16 15  1  0  0  0  0
 17 11  1  0  0  0  0
 19 15  1  0  0  0  0
 20 24  1  0  0  0  0
 20 21  2  0  0  0  0
 21 22  1  0  0  0  0
 23 25  1  0  0  0  0
 23 22  1  0  0  0  0
 24 23  2  0  0  0  0
 25 27  1  0  0  0  0
 26 25  1  0  0  0  0
 28 21  1  0  0  0  0
 28 34  1  0  0  0  0
 29 31  1  0  0  0  0
 29 28  2  0  0  0  0
 30 29  1  0  0  0  0
 31 32  1  0  0  0  0
 32 34  2  0  0  0  0
 32 33  1  0  0  0  0
M  END
>  <minimizedAffinity>
-5.0618329

$$$$
