
 OpenBabel03252506053D

 41 45  0  0  0  0  0  0  0  0999 V2000
   44.7850   35.9660   43.1980 Cl  0  0  0  0  0  0  0  0  0  0  0  0
   45.5220   34.7330   44.1520 C   0  0  0  0  0  0  0  0  0  0  0  0
   46.5990   34.0100   43.6560 C   0  0  0  0  0  0  0  0  0  0  0  0
   47.1180   33.0490   44.5020 C   0  0  0  0  0  0  0  0  0  0  0  0
   46.6390   32.7760   45.7750 C   0  0  0  0  0  0  0  0  0  0  0  0
   45.5720   33.5090   46.2340 C   0  0  0  0  0  0  0  0  0  0  0  0
   45.0030   33.1290   47.8450 Cl  0  0  0  0  0  0  0  0  0  0  0  0
   45.0220   34.4800   45.4250 C   0  0  0  0  0  0  0  0  0  0  0  0
   47.9600   32.5010   44.0860 H   0  0  0  0  0  0  0  0  0  0  0  0
   44.1840   35.0470   45.8030 H   0  0  0  0  0  0  0  0  0  0  0  0
   47.3260   31.7180   46.5150 C   0  0  0  0  0  0  0  0  0  0  0  0
   47.4290   30.4310   46.0620 C   0  0  0  0  0  0  0  0  0  0  0  0
   48.0760   29.4100   46.7400 C   0  0  0  0  0  0  0  0  0  0  0  0
   48.6630   29.7010   47.9650 C   0  0  0  0  0  0  0  0  0  0  0  0
   49.2780   28.6990   48.5970 N   0  0  0  0  0  0  0  0  0  0  0  0
   49.8840   28.8790   49.8030 C   0  0  0  0  0  0  0  0  0  0  0  0
   49.8250   30.1680   50.3400 C   0  0  0  0  0  0  0  0  0  0  0  0
   49.1860   31.1850   49.6710 C   0  0  0  0  0  0  0  0  0  0  0  0
   48.5840   30.9660   48.4530 C   0  0  0  0  0  0  0  0  0  0  0  0
   47.9290   31.9760   47.7530 C   0  0  0  0  0  0  0  0  0  0  0  0
   46.9530   30.2430   45.0910 H   0  0  0  0  0  0  0  0  0  0  0  0
   48.1050   28.4220   46.2980 H   0  0  0  0  0  0  0  0  0  0  0  0
   50.3930   28.0950   50.3480 H   0  0  0  0  0  0  0  0  0  0  0  0
   50.2860   30.3900   51.3010 H   0  0  0  0  0  0  0  0  0  0  0  0
   49.1430   32.1850   50.0960 H   0  0  0  0  0  0  0  0  0  0  0  0
   47.9000   32.9740   48.1980 H   0  0  0  0  0  0  0  0  0  0  0  0
   48.6650   35.3810   41.0010 C   0  0  0  0  0  0  0  0  0  0  0  0
   48.1940   34.7290   39.8500 C   0  0  0  0  0  0  0  0  0  0  0  0
   47.1490   33.8060   40.0000 C   0  0  0  0  0  0  0  0  0  0  0  0
   46.6850   33.6250   41.2440 N   0  0  0  0  0  0  0  0  0  0  0  0
   47.1400   34.2500   42.3360 C   0  0  0  0  0  0  0  0  0  0  0  0
   48.1490   35.1460   42.2220 N   0  0  0  0  0  0  0  0  0  0  0  0
   49.4560   36.0550   40.7610 H   0  0  0  0  0  0  0  0  0  0  0  0
   48.5870   34.8940   38.8560 H   0  0  0  0  0  0  0  0  0  0  0  0
   46.6000   33.0830   38.8800 C   0  0  0  0  0  0  0  0  0  0  0  0
   46.4920   31.6410   38.8980 C   0  0  0  0  0  0  0  0  0  0  0  0
   46.7600   30.9040   39.6650 H   0  0  0  0  0  0  0  0  0  0  0  0
   45.7340   31.2860   37.1980 S   0  0  0  0  0  0  0  0  0  0  0  0
   45.6950   33.1310   36.7600 C   0  0  0  0  0  0  0  0  0  0  0  0
   45.3430   33.5780   35.8550 H   0  0  0  0  0  0  0  0  0  0  0  0
   46.1280   33.2730   37.7460 N   0  0  0  0  0  0  0  0  0  0  0  0
  1  2  1  0  0  0  0
  2  8  1  0  0  0  0
  3  2  2  0  0  0  0
  3  4  1  0  0  0  0
  4  5  2  0  0  0  0
  5  6  1  0  0  0  0
  5 11  1  0  0  0  0
  6  7  1  0  0  0  0
  8 10  1  0  0  0  0
  8  6  2  0  0  0  0
  9  4  1  0  0  0  0
 11 20  1  0  0  0  0
 12 11  2  0  0  0  0
 12 13  1  0  0  0  0
 13 14  2  0  0  0  0
 14 19  1  0  0  0  0
 14 15  1  0  0  0  0
 15 16  2  0  0  0  0
 16 17  1  0  0  0  0
 16 23  1  0  0  0  0
 17 24  1  0  0  0  0
 18 25  1  0  0  0  0
 18 17  2  0  0  0  0
 19 18  1  0  0  0  0
 20 26  1  0  0  0  0
 20 19  2  0  0  0  0
 21 12  1  0  0  0  0
 22 13  1  0  0  0  0
 27 32  1  0  0  0  0
 28 29  1  0  0  0  0
 28 27  2  0  0  0  0
 29 30  2  0  0  0  0
 30 31  1  0  0  0  0
 31  3  1  0  0  0  0
 32 31  2  0  0  0  0
 33 27  1  0  0  0  0
 34 28  1  0  0  0  0
 35 36  2  0  0  0  0
 35 29  1  0  0  0  0
 36 37  1  0  0  0  0
 38 36  1  0  0  0  0
 39 38  1  0  0  0  0
 39 41  2  0  0  0  0
 40 39  1  0  0  0  0
 41 35  1  0  0  0  0
M  END
>  <minimizedAffinity>
-6.97201109

>  <minimizedRMSD>
0.170598328

$$$$
