
 OpenBabel03242513043D

 33 36  0  0  0  0  0  0  0  0999 V2000
   45.9640   33.1650   41.6540 C   0  0  0  0  0  0  0  0  0  0  0  0
   47.1240   33.8710   41.3230 C   0  0  0  0  0  0  0  0  0  0  0  0
   48.1040   33.9570   42.2970 C   0  0  0  0  0  0  0  0  0  0  0  0
   47.8650   33.3520   43.4970 N   0  0  0  0  0  0  0  0  0  0  0  0
   46.7480   32.6820   43.7940 C   0  0  0  0  0  0  0  0  0  0  0  0
   45.7850   32.5860   42.8650 N   0  0  0  0  0  0  0  0  0  0  0  0
   45.1310   33.0180   41.0080 H   0  0  0  0  0  0  0  0  0  0  0  0
   46.9230   30.7630   45.3100 C   0  0  0  0  0  0  0  0  0  0  0  0
   46.5940   32.0770   45.0990 C   0  0  0  0  0  0  0  0  0  0  0  0
   46.0950   32.9110   46.1230 C   0  0  0  0  0  0  0  0  0  0  0  0
   45.9190   32.4040   47.4050 C   0  0  0  0  0  0  0  0  0  0  0  0
   45.4810   32.8750   48.5970 N   0  0  0  0  0  0  0  0  0  0  0  0
   45.5500   31.8520   49.5040 C   0  0  0  0  0  0  0  0  0  0  0  0
   46.0270   30.7690   48.8590 N   0  0  0  0  0  0  0  0  0  0  0  0
   46.2630   31.0740   47.5720 C   0  0  0  0  0  0  0  0  0  0  0  0
   46.7550   30.2340   46.5890 C   0  0  0  0  0  0  0  0  0  0  0  0
   47.2950   30.2030   44.4790 H   0  0  0  0  0  0  0  0  0  0  0  0
   45.8370   33.9430   45.9540 H   0  0  0  0  0  0  0  0  0  0  0  0
   45.1710   33.8560   48.7000 H   0  0  0  0  0  0  0  0  0  0  0  0
   45.2500   32.0010   50.5270 H   0  0  0  0  0  0  0  0  0  0  0  0
   47.0060   29.2140   46.7650 H   0  0  0  0  0  0  0  0  0  0  0  0
   49.3580   34.6890   42.0130 C   0  0  0  0  0  0  0  0  0  0  0  0
   49.0930   35.8190   41.2160 F   0  0  0  0  0  0  0  0  0  0  0  0
   49.9100   35.1700   43.1750 F   0  0  0  0  0  0  0  0  0  0  0  0
   50.2100   33.8470   41.3540 F   0  0  0  0  0  0  0  0  0  0  0  0
   47.2480   34.4330   40.0920 O   0  0  0  0  0  0  0  0  0  0  0  0
   47.3620   33.6660   38.9540 C   0  0  0  0  0  0  0  0  0  0  0  0
   48.3530   34.3720   38.2330 C   0  0  0  0  0  0  0  0  0  0  0  0
   49.1010   35.2590   38.1310 H   0  0  0  0  0  0  0  0  0  0  0  0
   48.5490   33.3880   36.6970 S   0  0  0  0  0  0  0  0  0  0  0  0
   47.2400   32.1680   37.2910 C   0  0  0  0  0  0  0  0  0  0  0  0
   46.5570   31.1720   37.1560 H   0  0  0  0  0  0  0  0  0  0  0  0
   46.9750   32.6180   38.2790 N   0  0  0  0  0  0  0  0  0  0  0  0
  1  6  1  0  0  0  0
  2  1  2  0  0  0  0
  2  3  1  0  0  0  0
  3  4  2  0  0  0  0
  4  5  1  0  0  0  0
  5  9  1  0  0  0  0
  6  5  2  0  0  0  0
  7  1  1  0  0  0  0
  8 16  1  0  0  0  0
  9  8  2  0  0  0  0
  9 10  1  0  0  0  0
 10 11  2  0  0  0  0
 11 15  1  0  0  0  0
 11 12  1  0  0  0  0
 12 19  1  0  0  0  0
 12 13  1  0  0  0  0
 13 20  1  0  0  0  0
 14 13  2  0  0  0  0
 15 14  1  0  0  0  0
 16 21  1  0  0  0  0
 16 15  2  0  0  0  0
 17  8  1  0  0  0  0
 18 10  1  0  0  0  0
 22  3  1  0  0  0  0
 22 24  1  0  0  0  0
 23 22  1  0  0  0  0
 25 22  1  0  0  0  0
 26  2  1  0  0  0  0
 27 26  1  0  0  0  0
 28 27  2  0  0  0  0
 29 28  1  0  0  0  0
 30 31  1  0  0  0  0
 30 28  1  0  0  0  0
 31 33  2  0  0  0  0
 32 31  1  0  0  0  0
 33 27  1  0  0  0  0
M  END
>  <minimizedAffinity>
-5.97319317

>  <minimizedRMSD>
1.55166268

$$$$
