
 OpenBabel03242514113D

 44 47  0  0  1  0  0  0  0  0999 V2000
   38.3210   28.8300   42.1610 C   0  0  0  0  0  0  0  0  0  0  0  0
   37.6850   29.0960   43.3500 C   0  0  0  0  0  0  0  0  0  0  0  0
   36.9630   28.1520   44.0730 C   0  0  0  0  0  0  0  0  0  0  0  0
   36.9350   26.8820   43.4810 C   0  0  0  0  0  0  0  0  0  0  0  0
   37.5870   26.6110   42.2650 C   0  0  0  0  0  0  0  0  0  0  0  0
   38.2660   27.5800   41.6260 N   0  0  0  0  0  0  0  0  0  0  0  0
   37.7630   30.1150   43.7330 H   0  0  0  0  0  0  0  0  0  0  0  0
   36.4870   28.4050   44.9890 H   0  0  0  0  0  0  0  0  0  0  0  0
   36.3600   26.1910   44.0820 H   0  0  0  0  0  0  0  0  0  0  0  0
   37.5320   25.2610   41.7190 C   0  0  1  0  0  0  0  0  0  0  0  0
   36.5530   25.2070   40.4750 C   0  0  0  0  0  0  0  0  0  0  0  0
   36.2920   23.6760   40.3480 C   0  0  0  0  0  0  0  0  0  0  0  0
   37.5980   23.1630   39.7260 C   0  0  0  0  0  0  0  0  0  0  0  0
   38.7280   23.3470   40.6720 C   0  0  0  0  0  0  0  0  0  0  0  0
   38.7780   24.6220   41.4260 C   0  0  2  0  0  0  0  0  0  0  0  0
   36.9220   24.6580   42.4560 H   0  0  0  0  0  0  0  0  0  0  0  0
   35.6160   25.7030   40.7480 H   0  0  0  0  0  0  0  0  0  0  0  0
   37.0640   25.5970   39.5960 H   0  0  0  0  0  0  0  0  0  0  0  0
   36.1570   23.2970   41.3770 H   0  0  0  0  0  0  0  0  0  0  0  0
   35.4520   23.4730   39.6730 H   0  0  0  0  0  0  0  0  0  0  0  0
   37.7130   23.7210   38.7700 H   0  0  0  0  0  0  0  0  0  0  0  0
   37.4470   22.1080   39.5010 H   0  0  0  0  0  0  0  0  0  0  0  0
   39.6770   23.1820   40.1160 H   0  0  0  0  0  0  0  0  0  0  0  0
   38.6800   22.4620   41.3720 H   0  0  0  0  0  0  0  0  0  0  0  0
   39.4350   25.3120   40.8100 H   0  0  0  0  0  0  0  0  0  0  0  0
   39.5560   24.2310   43.0300 S   0  0  0  0  0  0  0  0  0  0  0  0
   40.8840   23.8280   42.8530 H   0  0  0  0  0  0  0  0  0  0  0  0
   40.8730   30.7280   40.3640 C   0  0  0  0  0  0  0  0  0  0  0  0
   40.3100   31.9920   40.2130 C   0  0  0  0  0  0  0  0  0  0  0  0
   39.0500   32.1580   40.7390 C   0  0  0  0  0  0  0  0  0  0  0  0
   38.4480   31.1060   41.3610 N   0  0  0  0  0  0  0  0  0  0  0  0
   39.0590   29.8730   41.4810 C   0  0  0  0  0  0  0  0  0  0  0  0
   40.2360   29.7070   40.9910 N   0  0  0  0  0  0  0  0  0  0  0  0
   38.3310   33.3500   40.6920 N   0  0  0  0  0  0  0  0  0  0  0  0
   41.8520   30.5360   39.9750 H   0  0  0  0  0  0  0  0  0  0  0  0
   38.6180   34.2240   41.1760 H   0  0  0  0  0  0  0  0  0  0  0  0
   37.4720   33.2120   40.0960 H   0  0  0  0  0  0  0  0  0  0  0  0
   40.9730   33.1040   39.5430 C   0  0  0  0  0  0  0  0  0  0  0  0
   41.7130   32.8470   38.3280 C   0  0  0  0  0  0  0  0  0  0  0  0
   41.8480   31.8670   37.8160 H   0  0  0  0  0  0  0  0  0  0  0  0
   42.3300   34.5400   37.9110 S   0  0  0  0  0  0  0  0  0  0  0  0
   41.4830   35.2850   39.4390 C   0  0  0  0  0  0  0  0  0  0  0  0
   41.5440   36.3300   39.6720 H   0  0  0  0  0  0  0  0  0  0  0  0
   40.9550   34.3510   39.9580 N   0  0  0  0  0  0  0  0  0  0  0  0
  1  2  1  0  0  0  0
  2  7  1  0  0  0  0
  2  3  2  0  0  0  0
  3  8  1  0  0  0  0
  4  3  1  0  0  0  0
  4  9  1  0  0  0  0
  5  4  2  0  0  0  0
  6  1  2  0  0  0  0
  6  5  1  0  0  0  0
 10  5  1  0  0  0  0
 10 16  1  1  0  0  0
 11 17  1  0  0  0  0
 11 10  1  0  0  0  0
 12 11  1  0  0  0  0
 12 19  1  0  0  0  0
 13 12  1  0  0  0  0
 13 14  1  0  0  0  0
 14 24  1  0  0  0  0
 14 15  1  0  0  0  0
 15 25  1  6  0  0  0
 15 10  1  0  0  0  0
 15 26  1  0  0  0  0
 18 11  1  0  0  0  0
 20 12  1  0  0  0  0
 21 13  1  0  0  0  0
 22 13  1  0  0  0  0
 23 14  1  0  0  0  0
 27 26  1  0  0  0  0
 28 33  1  0  0  0  0
 29 28  2  0  0  0  0
 29 30  1  0  0  0  0
 30 31  2  0  0  0  0
 31 32  1  0  0  0  0
 32  1  1  0  0  0  0
 33 32  2  0  0  0  0
 34 30  1  0  0  0  0
 34 36  1  0  0  0  0
 35 28  1  0  0  0  0
 37 34  1  0  0  0  0
 38 44  1  0  0  0  0
 38 29  1  0  0  0  0
 39 38  2  0  0  0  0
 40 39  1  0  0  0  0
 41 39  1  0  0  0  0
 41 42  1  0  0  0  0
 42 43  1  0  0  0  0
 42 44  2  0  0  0  0
M  END
>  <minimizedAffinity>
-6.20583868

$$$$

 OpenBabel03242514113D

 44 47  0  0  1  0  0  0  0  0999 V2000
   39.4670   32.5420   40.5700 C   0  0  0  0  0  0  0  0  0  0  0  0
   38.5230   33.5400   40.5080 C   0  0  0  0  0  0  0  0  0  0  0  0
   38.8290   34.8950   40.4360 C   0  0  0  0  0  0  0  0  0  0  0  0
   40.2040   35.1680   40.4300 C   0  0  0  0  0  0  0  0  0  0  0  0
   41.1680   34.1460   40.4920 C   0  0  0  0  0  0  0  0  0  0  0  0
   40.7900   32.8570   40.5600 N   0  0  0  0  0  0  0  0  0  0  0  0
   37.4770   33.2300   40.5190 H   0  0  0  0  0  0  0  0  0  0  0  0
   38.0640   35.6310   40.3910 H   0  0  0  0  0  0  0  0  0  0  0  0
   40.3840   36.2330   40.3760 H   0  0  0  0  0  0  0  0  0  0  0  0
   42.5800   34.5040   40.4610 C   0  0  1  0  0  0  0  0  0  0  0  0
   43.1930   34.4650   41.9210 C   0  0  0  0  0  0  0  0  0  0  0  0
   44.5040   35.2860   41.7330 C   0  0  0  0  0  0  0  0  0  0  0  0
   45.4170   34.2980   40.9950 C   0  0  0  0  0  0  0  0  0  0  0  0
   44.8760   34.0030   39.6440 C   0  0  0  0  0  0  0  0  0  0  0  0
   43.4130   33.8050   39.5290 C   0  0  2  0  0  0  0  0  0  0  0  0
   42.6090   35.6200   40.2820 H   0  0  0  0  0  0  0  0  0  0  0  0
   42.5260   35.0130   42.5930 H   0  0  0  0  0  0  0  0  0  0  0  0
   43.4080   33.4330   42.1950 H   0  0  0  0  0  0  0  0  0  0  0  0
   44.2410   36.1490   41.0940 H   0  0  0  0  0  0  0  0  0  0  0  0
   44.9450   35.5530   42.7000 H   0  0  0  0  0  0  0  0  0  0  0  0
   45.4900   33.4070   41.6580 H   0  0  0  0  0  0  0  0  0  0  0  0
   46.3990   34.7660   40.9280 H   0  0  0  0  0  0  0  0  0  0  0  0
   45.4250   33.1280   39.2340 H   0  0  0  0  0  0  0  0  0  0  0  0
   45.2230   34.8570   38.9890 H   0  0  0  0  0  0  0  0  0  0  0  0
   43.2510   32.6860   39.6260 H   0  0  0  0  0  0  0  0  0  0  0  0
   42.9490   34.3950   37.8670 S   0  0  0  0  0  0  0  0  0  0  0  0
   43.5320   33.5970   36.8760 H   0  0  0  0  0  0  0  0  0  0  0  0
   38.9990   28.9820   39.8980 C   0  0  0  0  0  0  0  0  0  0  0  0
   38.1670   28.5510   40.9260 C   0  0  0  0  0  0  0  0  0  0  0  0
   37.7840   29.5090   41.8350 C   0  0  0  0  0  0  0  0  0  0  0  0
   38.2300   30.7860   41.6770 N   0  0  0  0  0  0  0  0  0  0  0  0
   39.0560   31.1560   40.6340 C   0  0  0  0  0  0  0  0  0  0  0  0
   39.4200   30.2670   39.7790 N   0  0  0  0  0  0  0  0  0  0  0  0
   36.9500   29.2690   42.9230 N   0  0  0  0  0  0  0  0  0  0  0  0
   39.3320   28.2820   39.1580 H   0  0  0  0  0  0  0  0  0  0  0  0
   35.9520   28.9880   42.8440 H   0  0  0  0  0  0  0  0  0  0  0  0
   37.4930   29.4180   43.8150 H   0  0  0  0  0  0  0  0  0  0  0  0
   37.7020   27.1770   41.0750 C   0  0  0  0  0  0  0  0  0  0  0  0
   37.2150   26.4740   39.9100 C   0  0  0  0  0  0  0  0  0  0  0  0
   37.1470   26.8620   38.8680 H   0  0  0  0  0  0  0  0  0  0  0  0
   36.7680   24.8310   40.6340 S   0  0  0  0  0  0  0  0  0  0  0  0
   37.3150   25.3850   42.3660 C   0  0  0  0  0  0  0  0  0  0  0  0
   37.2520   24.7370   43.2190 H   0  0  0  0  0  0  0  0  0  0  0  0
   37.6870   26.5060   42.2050 N   0  0  0  0  0  0  0  0  0  0  0  0
  1 32  1  0  0  0  0
  2  7  1  0  0  0  0
  2  1  2  0  0  0  0
  3  2  1  0  0  0  0
  4  3  2  0  0  0  0
  4  5  1  0  0  0  0
  5  6  2  0  0  0  0
  6  1  1  0  0  0  0
  8  3  1  0  0  0  0
  9  4  1  0  0  0  0
 10 16  1  6  0  0  0
 10  5  1  0  0  0  0
 10 11  1  0  0  0  0
 11 18  1  0  0  0  0
 11 17  1  0  0  0  0
 12 11  1  0  0  0  0
 12 20  1  0  0  0  0
 13 21  1  0  0  0  0
 13 12  1  0  0  0  0
 14 13  1  0  0  0  0
 15 25  1  1  0  0  0
 15 14  1  0  0  0  0
 15 10  1  0  0  0  0
 19 12  1  0  0  0  0
 22 13  1  0  0  0  0
 23 14  1  0  0  0  0
 24 14  1  0  0  0  0
 26 15  1  0  0  0  0
 27 26  1  0  0  0  0
 28 29  1  0  0  0  0
 29 38  1  0  0  0  0
 29 30  2  0  0  0  0
 30 34  1  0  0  0  0
 31 30  1  0  0  0  0
 32 31  2  0  0  0  0
 33 28  2  0  0  0  0
 33 32  1  0  0  0  0
 34 37  1  0  0  0  0
 35 28  1  0  0  0  0
 36 34  1  0  0  0  0
 38 44  1  0  0  0  0
 39 41  1  0  0  0  0
 39 38  2  0  0  0  0
 40 39  1  0  0  0  0
 41 42  1  0  0  0  0
 42 43  1  0  0  0  0
 44 42  2  0  0  0  0
M  END
>  <minimizedAffinity>
-6.12750959

$$$$

 OpenBabel03242514113D

 44 47  0  0  1  0  0  0  0  0999 V2000
   38.3110   30.4800   40.8020 C   0  0  0  0  0  0  0  0  0  0  0  0
   37.0730   31.0780   40.7880 C   0  0  0  0  0  0  0  0  0  0  0  0
   35.8720   30.3770   40.7650 C   0  0  0  0  0  0  0  0  0  0  0  0
   36.0270   28.9840   40.7580 C   0  0  0  0  0  0  0  0  0  0  0  0
   37.2920   28.3740   40.7740 C   0  0  0  0  0  0  0  0  0  0  0  0
   38.4090   29.1230   40.7950 N   0  0  0  0  0  0  0  0  0  0  0  0
   37.0530   32.1690   40.7950 H   0  0  0  0  0  0  0  0  0  0  0  0
   34.9380   30.8840   40.7540 H   0  0  0  0  0  0  0  0  0  0  0  0
   35.0640   28.4910   40.7380 H   0  0  0  0  0  0  0  0  0  0  0  0
   37.3760   26.9190   40.7860 C   0  0  1  0  0  0  0  0  0  0  0  0
   37.0260   26.3570   42.2250 C   0  0  0  0  0  0  0  0  0  0  0  0
   37.6020   24.9110   42.1450 C   0  0  0  0  0  0  0  0  0  0  0  0
   36.5660   24.1840   41.2770 C   0  0  0  0  0  0  0  0  0  0  0  0
   36.5640   24.7410   39.9000 C   0  0  0  0  0  0  0  0  0  0  0  0
   36.6640   26.2130   39.7650 C   0  0  2  0  0  0  0  0  0  0  0  0
   38.4800   26.6760   40.7600 H   0  0  0  0  0  0  0  0  0  0  0  0
   37.5950   26.9240   42.9680 H   0  0  0  0  0  0  0  0  0  0  0  0
   35.9450   26.3460   42.3550 H   0  0  0  0  0  0  0  0  0  0  0  0
   38.5760   24.9920   41.6310 H   0  0  0  0  0  0  0  0  0  0  0  0
   37.6480   24.4490   43.1390 H   0  0  0  0  0  0  0  0  0  0  0  0
   35.5970   24.2950   41.8120 H   0  0  0  0  0  0  0  0  0  0  0  0
   36.8440   23.1300   41.2710 H   0  0  0  0  0  0  0  0  0  0  0  0
   35.6630   24.3580   39.3730 H   0  0  0  0  0  0  0  0  0  0  0  0
   37.4160   24.2250   39.3670 H   0  0  0  0  0  0  0  0  0  0  0  0
   35.5930   26.5840   39.7100 H   0  0  0  0  0  0  0  0  0  0  0  0
   37.5490   26.5190   38.2000 S   0  0  0  0  0  0  0  0  0  0  0  0
   36.7950   26.0760   37.1080 H   0  0  0  0  0  0  0  0  0  0  0  0
   40.9930   32.8200   39.9810 C   0  0  0  0  0  0  0  0  0  0  0  0
   41.8420   32.7600   41.0820 C   0  0  0  0  0  0  0  0  0  0  0  0
   41.4630   31.9060   42.0910 C   0  0  0  0  0  0  0  0  0  0  0  0
   40.3130   31.1890   41.9540 N   0  0  0  0  0  0  0  0  0  0  0  0
   39.5090   31.2900   40.8350 C   0  0  0  0  0  0  0  0  0  0  0  0
   39.8540   32.0870   39.8870 N   0  0  0  0  0  0  0  0  0  0  0  0
   42.1870   31.7060   43.2630 N   0  0  0  0  0  0  0  0  0  0  0  0
   41.2330   33.4670   39.1620 H   0  0  0  0  0  0  0  0  0  0  0  0
   43.1350   31.2820   43.2990 H   0  0  0  0  0  0  0  0  0  0  0  0
   41.6200   32.0530   44.0830 H   0  0  0  0  0  0  0  0  0  0  0  0
   43.0690   33.5370   41.2070 C   0  0  0  0  0  0  0  0  0  0  0  0
   44.1730   33.2460   40.3210 C   0  0  0  0  0  0  0  0  0  0  0  0
   44.2090   32.4720   39.5200 H   0  0  0  0  0  0  0  0  0  0  0  0
   45.4310   34.4790   40.8880 S   0  0  0  0  0  0  0  0  0  0  0  0
   44.2490   35.1590   42.2090 C   0  0  0  0  0  0  0  0  0  0  0  0
   44.5280   35.9590   42.8660 H   0  0  0  0  0  0  0  0  0  0  0  0
   43.2620   34.5040   42.0770 N   0  0  0  0  0  0  0  0  0  0  0  0
  1 32  1  0  0  0  0
  2  7  1  0  0  0  0
  2  1  2  0  0  0  0
  3  2  1  0  0  0  0
  4  3  2  0  0  0  0
  4  5  1  0  0  0  0
  5 10  1  0  0  0  0
  5  6  2  0  0  0  0
  6  1  1  0  0  0  0
  8  3  1  0  0  0  0
  9  4  1  0  0  0  0
 10 16  1  6  0  0  0
 10 11  1  0  0  0  0
 11 18  1  0  0  0  0
 11 17  1  0  0  0  0
 12 11  1  0  0  0  0
 12 20  1  0  0  0  0
 13 21  1  0  0  0  0
 13 12  1  0  0  0  0
 14 13  1  0  0  0  0
 15 25  1  6  0  0  0
 15 14  1  0  0  0  0
 15 10  1  0  0  0  0
 19 12  1  0  0  0  0
 22 13  1  0  0  0  0
 23 14  1  0  0  0  0
 24 14  1  0  0  0  0
 26 15  1  0  0  0  0
 27 26  1  0  0  0  0
 28 29  1  0  0  0  0
 29 38  1  0  0  0  0
 29 30  2  0  0  0  0
 30 34  1  0  0  0  0
 31 30  1  0  0  0  0
 32 31  2  0  0  0  0
 33 28  2  0  0  0  0
 33 32  1  0  0  0  0
 34 36  1  0  0  0  0
 34 37  1  0  0  0  0
 35 28  1  0  0  0  0
 38 44  1  0  0  0  0
 39 41  1  0  0  0  0
 39 38  2  0  0  0  0
 40 39  1  0  0  0  0
 41 42  1  0  0  0  0
 42 43  1  0  0  0  0
 44 42  2  0  0  0  0
M  END
>  <minimizedAffinity>
-6.02276611

$$$$

 OpenBabel03242514113D

 44 47  0  0  1  0  0  0  0  0999 V2000
   38.1330   28.3940   41.5860 C   0  0  0  0  0  0  0  0  0  0  0  0
   37.4420   28.4260   42.7740 C   0  0  0  0  0  0  0  0  0  0  0  0
   36.7330   27.3470   43.2900 C   0  0  0  0  0  0  0  0  0  0  0  0
   36.7810   26.1990   42.4870 C   0  0  0  0  0  0  0  0  0  0  0  0
   37.4880   26.1670   41.2730 C   0  0  0  0  0  0  0  0  0  0  0  0
   38.1500   27.2550   40.8420 N   0  0  0  0  0  0  0  0  0  0  0  0
   37.4630   29.3660   43.3290 H   0  0  0  0  0  0  0  0  0  0  0  0
   36.2130   27.4200   44.2140 H   0  0  0  0  0  0  0  0  0  0  0  0
   36.2130   25.3950   42.9340 H   0  0  0  0  0  0  0  0  0  0  0  0
   37.5110   24.9320   40.5000 C   0  0  1  0  0  0  0  0  0  0  0  0
   38.0810   23.7420   41.3760 C   0  0  0  0  0  0  0  0  0  0  0  0
   38.4390   22.6910   40.2820 C   0  0  0  0  0  0  0  0  0  0  0  0
   37.0640   22.1390   39.8820 C   0  0  0  0  0  0  0  0  0  0  0  0
   36.2510   23.2000   39.2340 C   0  0  0  0  0  0  0  0  0  0  0  0
   36.3010   24.5530   39.8340 C   0  0  2  0  0  0  0  0  0  0  0  0
   38.3650   25.0440   39.7690 H   0  0  0  0  0  0  0  0  0  0  0  0
   39.0030   24.0770   41.8600 H   0  0  0  0  0  0  0  0  0  0  0  0
   37.2980   23.3730   42.0380 H   0  0  0  0  0  0  0  0  0  0  0  0
   38.9070   23.2530   39.4530 H   0  0  0  0  0  0  0  0  0  0  0  0
   39.0600   21.8870   40.6950 H   0  0  0  0  0  0  0  0  0  0  0  0
   36.6200   21.7370   40.8180 H   0  0  0  0  0  0  0  0  0  0  0  0
   37.2450   21.3130   39.1950 H   0  0  0  0  0  0  0  0  0  0  0  0
   35.2010   22.8390   39.1660 H   0  0  0  0  0  0  0  0  0  0  0  0
   36.5890   23.2200   38.1560 H   0  0  0  0  0  0  0  0  0  0  0  0
   35.4290   24.5950   40.5580 H   0  0  0  0  0  0  0  0  0  0  0  0
   36.0720   25.7270   38.4580 S   0  0  0  0  0  0  0  0  0  0  0  0
   34.7960   25.5940   37.8980 H   0  0  0  0  0  0  0  0  0  0  0  0
   40.7030   30.6830   40.3610 C   0  0  0  0  0  0  0  0  0  0  0  0
   40.0520   31.9100   40.2820 C   0  0  0  0  0  0  0  0  0  0  0  0
   38.7290   31.9170   40.6560 C   0  0  0  0  0  0  0  0  0  0  0  0
   38.1530   30.7550   41.0710 N   0  0  0  0  0  0  0  0  0  0  0  0
   38.8510   29.5640   41.1300 C   0  0  0  0  0  0  0  0  0  0  0  0
   40.0890   29.5470   40.7810 N   0  0  0  0  0  0  0  0  0  0  0  0
   37.9180   33.0490   40.6510 N   0  0  0  0  0  0  0  0  0  0  0  0
   41.7350   30.6120   40.0830 H   0  0  0  0  0  0  0  0  0  0  0  0
   38.0660   33.8750   41.2630 H   0  0  0  0  0  0  0  0  0  0  0  0
   37.1520   32.9220   39.9360 H   0  0  0  0  0  0  0  0  0  0  0  0
   40.6900   33.1420   39.8340 C   0  0  0  0  0  0  0  0  0  0  0  0
   41.3330   33.1650   38.5390 C   0  0  0  0  0  0  0  0  0  0  0  0
   41.4070   32.3270   37.8080 H   0  0  0  0  0  0  0  0  0  0  0  0
   41.9550   34.9060   38.4710 S   0  0  0  0  0  0  0  0  0  0  0  0
   41.2410   35.2860   40.1890 C   0  0  0  0  0  0  0  0  0  0  0  0
   41.3420   36.2500   40.6480 H   0  0  0  0  0  0  0  0  0  0  0  0
   40.7310   34.2620   40.5210 N   0  0  0  0  0  0  0  0  0  0  0  0
  1  2  1  0  0  0  0
  2  3  2  0  0  0  0
  2  7  1  0  0  0  0
  3  8  1  0  0  0  0
  4  9  1  0  0  0  0
  4  3  1  0  0  0  0
  5  4  2  0  0  0  0
  6  5  1  0  0  0  0
  6  1  2  0  0  0  0
 10 16  1  6  0  0  0
 10  5  1  0  0  0  0
 10 11  1  0  0  0  0
 11 17  1  0  0  0  0
 11 18  1  0  0  0  0
 12 20  1  0  0  0  0
 12 11  1  0  0  0  0
 13 12  1  0  0  0  0
 13 21  1  0  0  0  0
 14 15  1  0  0  0  0
 14 13  1  0  0  0  0
 15 10  1  0  0  0  0
 15 25  1  1  0  0  0
 19 12  1  0  0  0  0
 22 13  1  0  0  0  0
 23 14  1  0  0  0  0
 24 14  1  0  0  0  0
 26 15  1  0  0  0  0
 27 26  1  0  0  0  0
 28 33  1  0  0  0  0
 29 28  2  0  0  0  0
 29 30  1  0  0  0  0
 30 31  2  0  0  0  0
 31 32  1  0  0  0  0
 32  1  1  0  0  0  0
 33 32  2  0  0  0  0
 34 30  1  0  0  0  0
 34 36  1  0  0  0  0
 35 28  1  0  0  0  0
 37 34  1  0  0  0  0
 38 29  1  0  0  0  0
 38 44  1  0  0  0  0
 39 38  2  0  0  0  0
 40 39  1  0  0  0  0
 41 39  1  0  0  0  0
 41 42  1  0  0  0  0
 42 44  2  0  0  0  0
 42 43  1  0  0  0  0
M  END
>  <minimizedAffinity>
-5.89390182

$$$$

 OpenBabel03242514113D

 44 47  0  0  1  0  0  0  0  0999 V2000
   38.9160   28.8040   42.4240 C   0  0  0  0  0  0  0  0  0  0  0  0
   38.0670   28.9910   43.4890 C   0  0  0  0  0  0  0  0  0  0  0  0
   37.0130   28.1390   43.8010 C   0  0  0  0  0  0  0  0  0  0  0  0
   36.8830   27.0510   42.9270 C   0  0  0  0  0  0  0  0  0  0  0  0
   37.7520   26.8610   41.8390 C   0  0  0  0  0  0  0  0  0  0  0  0
   38.7490   27.7320   41.6030 N   0  0  0  0  0  0  0  0  0  0  0  0
   38.2470   29.8670   44.1140 H   0  0  0  0  0  0  0  0  0  0  0  0
   36.3820   28.3250   44.6360 H   0  0  0  0  0  0  0  0  0  0  0  0
   36.0490   26.4250   43.2150 H   0  0  0  0  0  0  0  0  0  0  0  0
   37.5680   25.6960   40.9830 C   0  0  1  0  0  0  0  0  0  0  0  0
   37.3500   24.3950   41.8590 C   0  0  0  0  0  0  0  0  0  0  0  0
   37.6320   23.2670   40.8210 C   0  0  0  0  0  0  0  0  0  0  0  0
   36.3570   23.2720   39.9650 C   0  0  0  0  0  0  0  0  0  0  0  0
   36.2420   24.5490   39.2180 C   0  0  0  0  0  0  0  0  0  0  0  0
   36.5870   25.7930   39.9450 C   0  0  2  0  0  0  0  0  0  0  0  0
   38.5910   25.4620   40.5620 H   0  0  0  0  0  0  0  0  0  0  0  0
   38.1230   24.3630   42.6330 H   0  0  0  0  0  0  0  0  0  0  0  0
   36.3200   24.3630   42.2090 H   0  0  0  0  0  0  0  0  0  0  0  0
   38.5120   23.5930   40.2380 H   0  0  0  0  0  0  0  0  0  0  0  0
   37.7470   22.2950   41.3150 H   0  0  0  0  0  0  0  0  0  0  0  0
   35.5210   23.0850   40.6750 H   0  0  0  0  0  0  0  0  0  0  0  0
   36.4340   22.4260   39.2830 H   0  0  0  0  0  0  0  0  0  0  0  0
   35.2150   24.6130   38.7960 H   0  0  0  0  0  0  0  0  0  0  0  0
   36.8910   24.4200   38.3020 H   0  0  0  0  0  0  0  0  0  0  0  0
   35.6080   26.1770   40.3690 H   0  0  0  0  0  0  0  0  0  0  0  0
   37.2580   26.9410   38.6960 S   0  0  0  0  0  0  0  0  0  0  0  0
   36.2740   27.2920   37.7650 H   0  0  0  0  0  0  0  0  0  0  0  0
   42.1970   30.3740   42.0900 C   0  0  0  0  0  0  0  0  0  0  0  0
   41.9120   31.6650   41.6580 C   0  0  0  0  0  0  0  0  0  0  0  0
   40.5800   31.9640   41.4890 C   0  0  0  0  0  0  0  0  0  0  0  0
   39.6480   31.0060   41.7500 N   0  0  0  0  0  0  0  0  0  0  0  0
   39.9930   29.7390   42.1790 C   0  0  0  0  0  0  0  0  0  0  0  0
   41.2350   29.4490   42.3390 N   0  0  0  0  0  0  0  0  0  0  0  0
   40.1010   33.2030   41.0710 N   0  0  0  0  0  0  0  0  0  0  0  0
   43.2160   30.0790   42.2400 H   0  0  0  0  0  0  0  0  0  0  0  0
   40.2000   34.0820   41.6170 H   0  0  0  0  0  0  0  0  0  0  0  0
   39.6360   33.0950   40.1300 H   0  0  0  0  0  0  0  0  0  0  0  0
   42.9260   32.6750   41.3840 C   0  0  0  0  0  0  0  0  0  0  0  0
   43.9140   32.4130   40.3610 C   0  0  0  0  0  0  0  0  0  0  0  0
   44.0030   31.5010   39.7270 H   0  0  0  0  0  0  0  0  0  0  0  0
   44.9220   33.9640   40.4210 S   0  0  0  0  0  0  0  0  0  0  0  0
   43.8370   34.6800   41.8050 C   0  0  0  0  0  0  0  0  0  0  0  0
   44.0210   35.6470   42.2320 H   0  0  0  0  0  0  0  0  0  0  0  0
   43.0230   33.8310   42.0010 N   0  0  0  0  0  0  0  0  0  0  0  0
  1  2  1  0  0  0  0
  2  3  2  0  0  0  0
  2  7  1  0  0  0  0
  3  8  1  0  0  0  0
  4  9  1  0  0  0  0
  4  3  1  0  0  0  0
  5  4  2  0  0  0  0
  6  5  1  0  0  0  0
  6  1  2  0  0  0  0
 10 16  1  6  0  0  0
 10  5  1  0  0  0  0
 10 11  1  0  0  0  0
 11 18  1  0  0  0  0
 11 17  1  0  0  0  0
 12 20  1  0  0  0  0
 12 11  1  0  0  0  0
 13 21  1  0  0  0  0
 13 12  1  0  0  0  0
 14 15  1  0  0  0  0
 14 13  1  0  0  0  0
 15 25  1  1  0  0  0
 15 10  1  0  0  0  0
 19 12  1  0  0  0  0
 22 13  1  0  0  0  0
 23 14  1  0  0  0  0
 24 14  1  0  0  0  0
 26 15  1  0  0  0  0
 27 26  1  0  0  0  0
 28 35  1  0  0  0  0
 28 33  1  0  0  0  0
 29 28  2  0  0  0  0
 30 29  1  0  0  0  0
 30 31  2  0  0  0  0
 31 32  1  0  0  0  0
 32 33  2  0  0  0  0
 32  1  1  0  0  0  0
 34 30  1  0  0  0  0
 34 36  1  0  0  0  0
 37 34  1  0  0  0  0
 38 29  1  0  0  0  0
 38 44  1  0  0  0  0
 39 41  1  0  0  0  0
 39 38  2  0  0  0  0
 40 39  1  0  0  0  0
 41 42  1  0  0  0  0
 42 44  2  0  0  0  0
 42 43  1  0  0  0  0
M  END
>  <minimizedAffinity>
-5.87816572

$$$$

 OpenBabel03242514113D

 44 47  0  0  1  0  0  0  0  0999 V2000
   38.1820   29.7990   39.3380 C   0  0  0  0  0  0  0  0  0  0  0  0
   37.0720   30.3990   38.7920 C   0  0  0  0  0  0  0  0  0  0  0  0
   35.8040   29.8270   38.7850 C   0  0  0  0  0  0  0  0  0  0  0  0
   35.7470   28.5640   39.3910 C   0  0  0  0  0  0  0  0  0  0  0  0
   36.8820   27.9520   39.9490 C   0  0  0  0  0  0  0  0  0  0  0  0
   38.0750   28.5710   39.9160 N   0  0  0  0  0  0  0  0  0  0  0  0
   37.2160   31.3820   38.3420 H   0  0  0  0  0  0  0  0  0  0  0  0
   34.9750   30.3300   38.3500 H   0  0  0  0  0  0  0  0  0  0  0  0
   34.7420   28.1670   39.3550 H   0  0  0  0  0  0  0  0  0  0  0  0
   36.7430   26.6460   40.5810 C   0  0  1  0  0  0  0  0  0  0  0  0
   36.9680   25.4920   39.5210 C   0  0  0  0  0  0  0  0  0  0  0  0
   36.3460   24.2660   40.2550 C   0  0  0  0  0  0  0  0  0  0  0  0
   37.4130   23.9250   41.3040 C   0  0  0  0  0  0  0  0  0  0  0  0
   37.5340   25.0250   42.2940 C   0  0  0  0  0  0  0  0  0  0  0  0
   37.5000   26.4110   41.7730 C   0  0  2  0  0  0  0  0  0  0  0  0
   35.6350   26.5110   40.7640 H   0  0  0  0  0  0  0  0  0  0  0  0
   36.3690   25.7130   38.6330 H   0  0  0  0  0  0  0  0  0  0  0  0
   38.0360   25.3550   39.3570 H   0  0  0  0  0  0  0  0  0  0  0  0
   35.4140   24.6270   40.7270 H   0  0  0  0  0  0  0  0  0  0  0  0
   36.2110   23.4210   39.5690 H   0  0  0  0  0  0  0  0  0  0  0  0
   38.3440   23.7280   40.7290 H   0  0  0  0  0  0  0  0  0  0  0  0
   37.0960   23.0000   41.7860 H   0  0  0  0  0  0  0  0  0  0  0  0
   38.4550   24.8530   42.8930 H   0  0  0  0  0  0  0  0  0  0  0  0
   36.7030   24.8500   43.0400 H   0  0  0  0  0  0  0  0  0  0  0  0
   38.5840   26.6990   41.6090 H   0  0  0  0  0  0  0  0  0  0  0  0
   36.7400   27.4270   43.0840 S   0  0  0  0  0  0  0  0  0  0  0  0
   37.5530   27.4560   44.2230 H   0  0  0  0  0  0  0  0  0  0  0  0
   41.5750   30.9280   40.0800 C   0  0  0  0  0  0  0  0  0  0  0  0
   41.8470   31.8600   39.0840 C   0  0  0  0  0  0  0  0  0  0  0  0
   40.8420   32.0780   38.1700 C   0  0  0  0  0  0  0  0  0  0  0  0
   39.6740   31.3870   38.2940 N   0  0  0  0  0  0  0  0  0  0  0  0
   39.4620   30.4730   39.3080 C   0  0  0  0  0  0  0  0  0  0  0  0
   40.3960   30.2620   40.1660 N   0  0  0  0  0  0  0  0  0  0  0  0
   40.9260   32.9760   37.1100 N   0  0  0  0  0  0  0  0  0  0  0  0
   42.3190   30.7150   40.8220 H   0  0  0  0  0  0  0  0  0  0  0  0
   41.0060   34.0060   37.2230 H   0  0  0  0  0  0  0  0  0  0  0  0
   40.8950   32.4420   36.2010 H   0  0  0  0  0  0  0  0  0  0  0  0
   43.1050   32.5880   38.9700 C   0  0  0  0  0  0  0  0  0  0  0  0
   43.6260   33.2690   40.1340 C   0  0  0  0  0  0  0  0  0  0  0  0
   43.1710   33.3110   41.1500 H   0  0  0  0  0  0  0  0  0  0  0  0
   45.1850   34.0030   39.4600 S   0  0  0  0  0  0  0  0  0  0  0  0
   44.8550   33.2650   37.7420 C   0  0  0  0  0  0  0  0  0  0  0  0
   45.5260   33.4150   36.9190 H   0  0  0  0  0  0  0  0  0  0  0  0
   43.8240   32.6810   37.8740 N   0  0  0  0  0  0  0  0  0  0  0  0
  1  6  1  0  0  0  0
  2  1  2  0  0  0  0
  3  2  1  0  0  0  0
  3  4  2  0  0  0  0
  4  5  1  0  0  0  0
  5 10  1  0  0  0  0
  6  5  2  0  0  0  0
  7  2  1  0  0  0  0
  8  3  1  0  0  0  0
  9  4  1  0  0  0  0
 10 16  1  1  0  0  0
 10 15  1  0  0  0  0
 11 12  1  0  0  0  0
 11 10  1  0  0  0  0
 12 19  1  0  0  0  0
 12 13  1  0  0  0  0
 13 22  1  0  0  0  0
 13 14  1  0  0  0  0
 14 23  1  0  0  0  0
 14 24  1  0  0  0  0
 15 25  1  6  0  0  0
 15 14  1  0  0  0  0
 15 26  1  0  0  0  0
 17 11  1  0  0  0  0
 18 11  1  0  0  0  0
 20 12  1  0  0  0  0
 21 13  1  0  0  0  0
 26 27  1  0  0  0  0
 28 33  1  0  0  0  0
 28 35  1  0  0  0  0
 29 28  2  0  0  0  0
 30 31  2  0  0  0  0
 30 29  1  0  0  0  0
 31 32  1  0  0  0  0
 32  1  1  0  0  0  0
 32 33  2  0  0  0  0
 34 36  1  0  0  0  0
 34 30  1  0  0  0  0
 37 34  1  0  0  0  0
 38 29  1  0  0  0  0
 38 39  2  0  0  0  0
 39 40  1  0  0  0  0
 41 39  1  0  0  0  0
 42 44  2  0  0  0  0
 42 41  1  0  0  0  0
 43 42  1  0  0  0  0
 44 38  1  0  0  0  0
M  END
>  <minimizedAffinity>
-5.70770741

$$$$

 OpenBabel03242514113D

 44 47  0  0  1  0  0  0  0  0999 V2000
   38.4950   32.6880   39.2780 C   0  0  0  0  0  0  0  0  0  0  0  0
   37.9900   33.8250   39.8630 C   0  0  0  0  0  0  0  0  0  0  0  0
   38.7720   34.8910   40.2920 C   0  0  0  0  0  0  0  0  0  0  0  0
   40.1450   34.7120   40.0760 C   0  0  0  0  0  0  0  0  0  0  0  0
   40.6610   33.5500   39.4770 C   0  0  0  0  0  0  0  0  0  0  0  0
   39.8360   32.5610   39.0890 N   0  0  0  0  0  0  0  0  0  0  0  0
   36.9070   33.8730   39.9900 H   0  0  0  0  0  0  0  0  0  0  0  0
   38.3360   35.7500   40.7400 H   0  0  0  0  0  0  0  0  0  0  0  0
   40.7040   35.5680   40.4290 H   0  0  0  0  0  0  0  0  0  0  0  0
   42.0980   33.4420   39.2640 C   0  0  1  0  0  0  0  0  0  0  0  0
   42.5190   34.1900   37.9330 C   0  0  0  0  0  0  0  0  0  0  0  0
   43.9300   33.5850   37.6660 C   0  0  0  0  0  0  0  0  0  0  0  0
   44.8050   34.3010   38.7040 C   0  0  0  0  0  0  0  0  0  0  0  0
   44.4030   33.9080   40.0780 C   0  0  0  0  0  0  0  0  0  0  0  0
   42.9510   33.8050   40.3550 C   0  0  2  0  0  0  0  0  0  0  0  0
   42.2800   32.3750   38.9380 H   0  0  0  0  0  0  0  0  0  0  0  0
   41.8430   33.8780   37.1310 H   0  0  0  0  0  0  0  0  0  0  0  0
   42.5760   35.2610   38.1230 H   0  0  0  0  0  0  0  0  0  0  0  0
   43.8500   32.5040   37.8800 H   0  0  0  0  0  0  0  0  0  0  0  0
   44.2770   33.8240   36.6540 H   0  0  0  0  0  0  0  0  0  0  0  0
   44.6910   35.3870   38.4920 H   0  0  0  0  0  0  0  0  0  0  0  0
   45.8350   34.0100   38.5010 H   0  0  0  0  0  0  0  0  0  0  0  0
   44.8920   34.6030   40.7950 H   0  0  0  0  0  0  0  0  0  0  0  0
   44.9250   32.9250   40.2740 H   0  0  0  0  0  0  0  0  0  0  0  0
   42.6490   34.8190   40.7650 H   0  0  0  0  0  0  0  0  0  0  0  0
   42.7670   32.5030   41.6190 S   0  0  0  0  0  0  0  0  0  0  0  0
   43.3690   32.8900   42.8220 H   0  0  0  0  0  0  0  0  0  0  0  0
   35.9520   30.0670   39.1740 C   0  0  0  0  0  0  0  0  0  0  0  0
   35.9780   29.6250   37.8550 C   0  0  0  0  0  0  0  0  0  0  0  0
   36.8800   30.2490   37.0260 C   0  0  0  0  0  0  0  0  0  0  0  0
   37.6730   31.2340   37.5320 N   0  0  0  0  0  0  0  0  0  0  0  0
   37.6030   31.6310   38.8540 C   0  0  0  0  0  0  0  0  0  0  0  0
   36.7610   31.0540   39.6370 N   0  0  0  0  0  0  0  0  0  0  0  0
   37.0550   29.9370   35.6800 N   0  0  0  0  0  0  0  0  0  0  0  0
   35.2700   29.6200   39.8690 H   0  0  0  0  0  0  0  0  0  0  0  0
   37.4120   29.0250   35.3340 H   0  0  0  0  0  0  0  0  0  0  0  0
   36.7690   30.7660   35.0930 H   0  0  0  0  0  0  0  0  0  0  0  0
   35.1190   28.5680   37.3340 C   0  0  0  0  0  0  0  0  0  0  0  0
   35.2580   27.2300   37.8640 C   0  0  0  0  0  0  0  0  0  0  0  0
   35.9660   26.8880   38.6520 H   0  0  0  0  0  0  0  0  0  0  0  0
   33.9760   26.3170   36.8910 S   0  0  0  0  0  0  0  0  0  0  0  0
   33.4870   27.8940   35.9520 C   0  0  0  0  0  0  0  0  0  0  0  0
   32.7180   27.8970   35.2040 H   0  0  0  0  0  0  0  0  0  0  0  0
   34.2060   28.7310   36.4020 N   0  0  0  0  0  0  0  0  0  0  0  0
  1  2  1  0  0  0  0
  2  7  1  0  0  0  0
  2  3  2  0  0  0  0
  3  8  1  0  0  0  0
  4  3  1  0  0  0  0
  4  9  1  0  0  0  0
  5  4  2  0  0  0  0
  6  1  2  0  0  0  0
  6  5  1  0  0  0  0
 10 16  1  6  0  0  0
 10  5  1  0  0  0  0
 10 15  1  0  0  0  0
 11 18  1  0  0  0  0
 11 10  1  0  0  0  0
 12 19  1  0  0  0  0
 12 11  1  0  0  0  0
 12 13  1  0  0  0  0
 13 14  1  0  0  0  0
 14 24  1  0  0  0  0
 14 15  1  0  0  0  0
 14 23  1  0  0  0  0
 15 25  1  1  0  0  0
 15 26  1  0  0  0  0
 17 11  1  0  0  0  0
 20 12  1  0  0  0  0
 21 13  1  0  0  0  0
 22 13  1  0  0  0  0
 26 27  1  0  0  0  0
 28 33  1  0  0  0  0
 28 35  1  0  0  0  0
 29 28  2  0  0  0  0
 30 31  2  0  0  0  0
 30 29  1  0  0  0  0
 31 32  1  0  0  0  0
 32  1  1  0  0  0  0
 32 33  2  0  0  0  0
 34 30  1  0  0  0  0
 36 34  1  0  0  0  0
 37 34  1  0  0  0  0
 38 29  1  0  0  0  0
 38 39  2  0  0  0  0
 39 40  1  0  0  0  0
 41 39  1  0  0  0  0
 42 44  2  0  0  0  0
 42 41  1  0  0  0  0
 43 42  1  0  0  0  0
 44 38  1  0  0  0  0
M  END
>  <minimizedAffinity>
-5.59566307

$$$$

 OpenBabel03242514113D

 44 47  0  0  1  0  0  0  0  0999 V2000
   38.9100   33.0510   39.6130 C   0  0  0  0  0  0  0  0  0  0  0  0
   38.2830   34.1750   40.0950 C   0  0  0  0  0  0  0  0  0  0  0  0
   38.9550   35.2840   40.5990 C   0  0  0  0  0  0  0  0  0  0  0  0
   40.3510   35.1620   40.5750 C   0  0  0  0  0  0  0  0  0  0  0  0
   40.9910   34.0130   40.0800 C   0  0  0  0  0  0  0  0  0  0  0  0
   40.2690   32.9810   39.6090 N   0  0  0  0  0  0  0  0  0  0  0  0
   37.1920   34.1770   40.0730 H   0  0  0  0  0  0  0  0  0  0  0  0
   38.4260   36.1310   40.9620 H   0  0  0  0  0  0  0  0  0  0  0  0
   40.8200   36.0480   40.9790 H   0  0  0  0  0  0  0  0  0  0  0  0
   42.4470   33.9650   40.0670 C   0  0  1  0  0  0  0  0  0  0  0  0
   43.0010   33.5670   41.4970 C   0  0  0  0  0  0  0  0  0  0  0  0
   44.4910   34.0100   41.3910 C   0  0  0  0  0  0  0  0  0  0  0  0
   45.1060   32.9110   40.5130 C   0  0  0  0  0  0  0  0  0  0  0  0
   44.5270   32.9570   39.1460 C   0  0  0  0  0  0  0  0  0  0  0  0
   43.0680   33.1890   39.0370 C   0  0  2  0  0  0  0  0  0  0  0  0
   42.7890   35.0420   40.0340 H   0  0  0  0  0  0  0  0  0  0  0  0
   42.5010   34.1870   42.2480 H   0  0  0  0  0  0  0  0  0  0  0  0
   42.9160   32.4900   41.6310 H   0  0  0  0  0  0  0  0  0  0  0  0
   44.4900   34.9870   40.8740 H   0  0  0  0  0  0  0  0  0  0  0  0
   44.9730   34.0160   42.3760 H   0  0  0  0  0  0  0  0  0  0  0  0
   44.9170   31.9570   41.0530 H   0  0  0  0  0  0  0  0  0  0  0  0
   46.1800   33.0930   40.4880 H   0  0  0  0  0  0  0  0  0  0  0  0
   44.8180   32.0240   38.6150 H   0  0  0  0  0  0  0  0  0  0  0  0
   45.1090   33.7580   38.6010 H   0  0  0  0  0  0  0  0  0  0  0  0
   42.6010   32.1570   38.9910 H   0  0  0  0  0  0  0  0  0  0  0  0
   42.8150   34.0960   37.4740 S   0  0  0  0  0  0  0  0  0  0  0  0
   43.1690   33.3030   36.3770 H   0  0  0  0  0  0  0  0  0  0  0  0
   37.5610   30.3740   37.5260 C   0  0  0  0  0  0  0  0  0  0  0  0
   36.5300   29.8370   38.2890 C   0  0  0  0  0  0  0  0  0  0  0  0
   36.3240   30.4180   39.5180 C   0  0  0  0  0  0  0  0  0  0  0  0
   37.1190   31.4550   39.9020 N   0  0  0  0  0  0  0  0  0  0  0  0
   38.1290   31.9470   39.0980 C   0  0  0  0  0  0  0  0  0  0  0  0
   38.3310   31.4090   37.9470 N   0  0  0  0  0  0  0  0  0  0  0  0
   35.3360   30.0240   40.4170 N   0  0  0  0  0  0  0  0  0  0  0  0
   37.7720   29.9640   36.5580 H   0  0  0  0  0  0  0  0  0  0  0  0
   34.3160   30.1100   40.2380 H   0  0  0  0  0  0  0  0  0  0  0  0
   35.7930   29.6340   41.2840 H   0  0  0  0  0  0  0  0  0  0  0  0
   35.6910   28.7260   37.8580 C   0  0  0  0  0  0  0  0  0  0  0  0
   34.6520   28.9720   36.8830 C   0  0  0  0  0  0  0  0  0  0  0  0
   34.4000   29.9420   36.3970 H   0  0  0  0  0  0  0  0  0  0  0  0
   33.9170   27.2840   36.6990 S   0  0  0  0  0  0  0  0  0  0  0  0
   35.1340   26.5560   37.9620 C   0  0  0  0  0  0  0  0  0  0  0  0
   35.1210   25.5190   38.2340 H   0  0  0  0  0  0  0  0  0  0  0  0
   35.8000   27.4890   38.2900 N   0  0  0  0  0  0  0  0  0  0  0  0
  1  2  1  0  0  0  0
  2  3  2  0  0  0  0
  3  8  1  0  0  0  0
  4  3  1  0  0  0  0
  4  9  1  0  0  0  0
  5  4  2  0  0  0  0
  6  1  2  0  0  0  0
  6  5  1  0  0  0  0
  7  2  1  0  0  0  0
 10 16  1  6  0  0  0
 10  5  1  0  0  0  0
 10 11  1  0  0  0  0
 11 18  1  0  0  0  0
 11 17  1  0  0  0  0
 12 11  1  0  0  0  0
 12 20  1  0  0  0  0
 13 21  1  0  0  0  0
 13 12  1  0  0  0  0
 14 13  1  0  0  0  0
 15 25  1  6  0  0  0
 15 14  1  0  0  0  0
 15 10  1  0  0  0  0
 19 12  1  0  0  0  0
 22 13  1  0  0  0  0
 23 14  1  0  0  0  0
 24 14  1  0  0  0  0
 26 15  1  0  0  0  0
 27 26  1  0  0  0  0
 28 33  2  0  0  0  0
 28 29  1  0  0  0  0
 29 30  2  0  0  0  0
 30 31  1  0  0  0  0
 30 34  1  0  0  0  0
 32  1  1  0  0  0  0
 32 31  2  0  0  0  0
 33 32  1  0  0  0  0
 34 37  1  0  0  0  0
 35 28  1  0  0  0  0
 36 34  1  0  0  0  0
 38 29  1  0  0  0  0
 38 44  1  0  0  0  0
 39 38  2  0  0  0  0
 40 39  1  0  0  0  0
 41 39  1  0  0  0  0
 41 42  1  0  0  0  0
 42 43  1  0  0  0  0
 42 44  2  0  0  0  0
M  END
>  <minimizedAffinity>
-5.58055067

$$$$

 OpenBabel03242514113D

 44 47  0  0  1  0  0  0  0  0999 V2000
   37.3170   27.2550   41.4880 C   0  0  0  0  0  0  0  0  0  0  0  0
   37.4500   27.2550   42.8560 C   0  0  0  0  0  0  0  0  0  0  0  0
   37.8260   28.3680   43.6000 C   0  0  0  0  0  0  0  0  0  0  0  0
   38.0630   29.5140   42.8290 C   0  0  0  0  0  0  0  0  0  0  0  0
   37.9260   29.5130   41.4300 C   0  0  0  0  0  0  0  0  0  0  0  0
   37.5580   28.3930   40.7830 N   0  0  0  0  0  0  0  0  0  0  0  0
   37.2440   26.3150   43.3710 H   0  0  0  0  0  0  0  0  0  0  0  0
   37.9160   28.3200   44.6580 H   0  0  0  0  0  0  0  0  0  0  0  0
   38.3530   30.3460   43.4560 H   0  0  0  0  0  0  0  0  0  0  0  0
   38.1690   30.7480   40.6950 C   0  0  1  0  0  0  0  0  0  0  0  0
   36.8230   31.5640   40.5250 C   0  0  0  0  0  0  0  0  0  0  0  0
   37.1960   32.5490   39.3760 C   0  0  0  0  0  0  0  0  0  0  0  0
   38.0850   33.5770   40.0900 C   0  0  0  0  0  0  0  0  0  0  0  0
   39.3420   32.9380   40.5570 C   0  0  0  0  0  0  0  0  0  0  0  0
   39.2310   31.5880   41.1580 C   0  0  2  0  0  0  0  0  0  0  0  0
   38.3300   30.4370   39.6190 H   0  0  0  0  0  0  0  0  0  0  0  0
   36.0450   30.8830   40.1670 H   0  0  0  0  0  0  0  0  0  0  0  0
   36.6050   32.0980   41.4490 H   0  0  0  0  0  0  0  0  0  0  0  0
   37.7710   31.9610   38.6370 H   0  0  0  0  0  0  0  0  0  0  0  0
   36.3040   33.0420   38.9720 H   0  0  0  0  0  0  0  0  0  0  0  0
   37.4590   33.9960   40.9080 H   0  0  0  0  0  0  0  0  0  0  0  0
   38.2950   34.3670   39.3680 H   0  0  0  0  0  0  0  0  0  0  0  0
   39.8480   33.6390   41.2550 H   0  0  0  0  0  0  0  0  0  0  0  0
   40.0260   32.9280   39.6580 H   0  0  0  0  0  0  0  0  0  0  0  0
   39.1320   31.7620   42.2740 H   0  0  0  0  0  0  0  0  0  0  0  0
   40.7900   30.7280   40.7620 S   0  0  0  0  0  0  0  0  0  0  0  0
   41.8750   31.3500   41.3920 H   0  0  0  0  0  0  0  0  0  0  0  0
   36.5500   23.7900   40.6240 C   0  0  0  0  0  0  0  0  0  0  0  0
   36.0940   23.8620   39.3120 C   0  0  0  0  0  0  0  0  0  0  0  0
   36.0610   25.1180   38.7520 C   0  0  0  0  0  0  0  0  0  0  0  0
   36.4680   26.1840   39.4960 N   0  0  0  0  0  0  0  0  0  0  0  0
   36.9120   26.0500   40.7970 C   0  0  0  0  0  0  0  0  0  0  0  0
   36.9450   24.8800   41.3300 N   0  0  0  0  0  0  0  0  0  0  0  0
   35.6440   25.3870   37.4520 N   0  0  0  0  0  0  0  0  0  0  0  0
   36.5980   22.8390   41.1160 H   0  0  0  0  0  0  0  0  0  0  0  0
   36.1360   25.0510   36.6000 H   0  0  0  0  0  0  0  0  0  0  0  0
   34.7670   25.9720   37.4830 H   0  0  0  0  0  0  0  0  0  0  0  0
   35.6630   22.7060   38.5350 C   0  0  0  0  0  0  0  0  0  0  0  0
   34.4800   21.9870   38.9500 C   0  0  0  0  0  0  0  0  0  0  0  0
   33.8270   22.2110   39.8240 H   0  0  0  0  0  0  0  0  0  0  0  0
   34.3880   20.6610   37.6630 S   0  0  0  0  0  0  0  0  0  0  0  0
   35.9510   21.3120   36.8030 C   0  0  0  0  0  0  0  0  0  0  0  0
   36.3540   20.8470   35.9240 H   0  0  0  0  0  0  0  0  0  0  0  0
   36.2720   22.2510   37.4620 N   0  0  0  0  0  0  0  0  0  0  0  0
  1  2  1  0  0  0  0
  2  7  1  0  0  0  0
  2  3  2  0  0  0  0
  3  8  1  0  0  0  0
  4  9  1  0  0  0  0
  4  3  1  0  0  0  0
  5  4  2  0  0  0  0
  6  5  1  0  0  0  0
  6  1  2  0  0  0  0
 10 16  1  6  0  0  0
 10 15  1  0  0  0  0
 10  5  1  0  0  0  0
 11 10  1  0  0  0  0
 11 18  1  0  0  0  0
 12 13  1  0  0  0  0
 12 11  1  0  0  0  0
 13 14  1  0  0  0  0
 13 21  1  0  0  0  0
 14 15  1  0  0  0  0
 14 23  1  0  0  0  0
 15 25  1  1  0  0  0
 17 11  1  0  0  0  0
 19 12  1  0  0  0  0
 20 12  1  0  0  0  0
 22 13  1  0  0  0  0
 24 14  1  0  0  0  0
 26 15  1  0  0  0  0
 26 27  1  0  0  0  0
 28 35  1  0  0  0  0
 28 33  1  0  0  0  0
 29 28  2  0  0  0  0
 30 29  1  0  0  0  0
 30 31  2  0  0  0  0
 31 32  1  0  0  0  0
 32 33  2  0  0  0  0
 32  1  1  0  0  0  0
 34 37  1  0  0  0  0
 34 30  1  0  0  0  0
 36 34  1  0  0  0  0
 38 39  2  0  0  0  0
 38 29  1  0  0  0  0
 39 40  1  0  0  0  0
 41 39  1  0  0  0  0
 42 44  2  0  0  0  0
 42 41  1  0  0  0  0
 43 42  1  0  0  0  0
 44 38  1  0  0  0  0
M  END
>  <minimizedAffinity>
-5.5792222

$$$$
