
 OpenBabel03242511103D

 41 45  0  0  1  0  0  0  0  0999 V2000
   36.8140   28.2020   40.6470 C   0  0  0  0  0  0  0  0  0  0  0  0
   36.9500   28.9440   41.8100 C   0  0  0  0  0  0  0  0  0  0  0  0
   37.0890   28.3750   43.0740 C   0  0  0  0  0  0  0  0  0  0  0  0
   37.0960   26.9990   43.2050 C   0  0  0  0  0  0  0  0  0  0  0  0
   36.9640   26.2470   42.0870 C   0  0  0  0  0  0  0  0  0  0  0  0
   36.9520   24.8630   42.1780 C   0  0  0  0  0  0  0  0  0  0  0  0
   36.8080   24.0350   41.1020 C   0  0  0  0  0  0  0  0  0  0  0  0
   36.6730   24.6470   39.8860 C   0  0  0  0  0  0  0  0  0  0  0  0
   36.6820   26.0340   39.7540 C   0  0  0  0  0  0  0  0  0  0  0  0
   36.8280   26.8510   40.8460 C   0  0  0  0  0  0  0  0  0  0  0  0
   36.9640   30.0260   41.8570 H   0  0  0  0  0  0  0  0  0  0  0  0
   37.1940   28.9470   43.9850 H   0  0  0  0  0  0  0  0  0  0  0  0
   37.2030   26.5390   44.1730 H   0  0  0  0  0  0  0  0  0  0  0  0
   37.0630   24.4410   43.1640 H   0  0  0  0  0  0  0  0  0  0  0  0
   36.8060   22.9550   41.2460 H   0  0  0  0  0  0  0  0  0  0  0  0
   36.5590   23.9600   39.0460 H   0  0  0  0  0  0  0  0  0  0  0  0
   36.4600   26.4550   38.3430 C   0  0  0  0  0  0  0  0  0  0  0  0
   37.3540   26.5590   37.2430 C   0  0  0  0  0  0  0  0  0  0  0  0
   38.4090   26.3570   37.3730 H   0  0  0  0  0  0  0  0  0  0  0  0
   36.2480   27.0440   35.8680 S   0  0  0  0  0  0  0  0  0  0  0  0
   34.7330   27.0310   37.0090 C   0  0  0  0  0  0  0  0  0  0  0  0
   33.7570   27.2820   36.5870 H   0  0  0  0  0  0  0  0  0  0  0  0
   35.2000   26.7240   38.0450 N   0  0  0  0  0  0  0  0  0  0  0  0
   36.6840   28.8860   39.4360 N   0  0  0  0  0  0  0  0  0  0  0  0
   35.8340   28.3530   39.1820 H   0  0  0  0  0  0  0  0  0  0  0  0
   37.3240   31.3050   39.0530 C   0  0  1  0  0  0  0  0  0  0  0  0
   37.3300   30.6160   37.7060 C   0  0  0  0  0  0  0  0  0  0  0  0
   37.6310   29.8810   39.0030 C   0  0  2  0  0  0  0  0  0  0  0  0
   36.3000   31.7450   39.2390 H   0  0  0  0  0  0  0  0  0  0  0  0
   36.4110   30.3570   37.1820 H   0  0  0  0  0  0  0  0  0  0  0  0
   38.2190   30.7460   37.0360 H   0  0  0  0  0  0  0  0  0  0  0  0
   38.6780   29.6160   39.2590 H   0  0  0  0  0  0  0  0  0  0  0  0
   40.5290   33.1520   38.8990 C   0  0  0  0  0  0  0  0  0  0  0  0
   40.3370   34.1460   39.9070 C   0  0  0  0  0  0  0  0  0  0  0  0
   39.1030   34.1570   40.6090 C   0  0  0  0  0  0  0  0  0  0  0  0
   38.1670   33.2480   40.3080 N   0  0  0  0  0  0  0  0  0  0  0  0
   38.3780   32.3160   39.3430 C   0  0  0  0  0  0  0  0  0  0  0  0
   39.5540   32.2760   38.6470 N   0  0  0  0  0  0  0  0  0  0  0  0
   41.4660   33.1400   38.3620 H   0  0  0  0  0  0  0  0  0  0  0  0
   41.1300   34.8610   40.1130 H   0  0  0  0  0  0  0  0  0  0  0  0
   38.9690   34.9140   41.3700 H   0  0  0  0  0  0  0  0  0  0  0  0
  1 10  2  0  0  0  0
  1  2  1  0  0  0  0
  2 11  1  0  0  0  0
  2  3  2  0  0  0  0
  3  4  1  0  0  0  0
  3 12  1  0  0  0  0
  4 13  1  0  0  0  0
  5  6  1  0  0  0  0
  5  4  2  0  0  0  0
  6 14  1  0  0  0  0
  7 15  1  0  0  0  0
  7  6  2  0  0  0  0
  8  7  1  0  0  0  0
  9  8  2  0  0  0  0
  9 10  1  0  0  0  0
 10  5  1  0  0  0  0
 16  8  1  0  0  0  0
 17  9  1  0  0  0  0
 18 19  1  0  0  0  0
 18 17  2  0  0  0  0
 20 21  1  0  0  0  0
 20 18  1  0  0  0  0
 21 23  2  0  0  0  0
 22 21  1  0  0  0  0
 23 17  1  0  0  0  0
 24  1  1  0  0  0  0
 25 24  1  0  0  0  0
 26 29  1  1  0  0  0
 26 37  1  0  0  0  0
 27 28  1  0  0  0  0
 27 26  1  0  0  0  0
 28 26  1  0  0  0  0
 28 32  1  1  0  0  0
 28 24  1  0  0  0  0
 30 27  1  0  0  0  0
 31 27  1  0  0  0  0
 33 34  1  0  0  0  0
 34 40  1  0  0  0  0
 34 35  2  0  0  0  0
 35 41  1  0  0  0  0
 36 35  1  0  0  0  0
 37 36  2  0  0  0  0
 38 33  2  0  0  0  0
 38 37  1  0  0  0  0
 39 33  1  0  0  0  0
M  END
>  <minimizedAffinity>
-5.9544878

$$$$

 OpenBabel03242511103D

 41 45  0  0  1  0  0  0  0  0999 V2000
   36.9180   29.2120   40.9690 C   0  0  0  0  0  0  0  0  0  0  0  0
   37.3600   29.7220   42.1800 C   0  0  0  0  0  0  0  0  0  0  0  0
   37.7790   28.9250   43.2430 C   0  0  0  0  0  0  0  0  0  0  0  0
   37.7640   27.5490   43.1110 C   0  0  0  0  0  0  0  0  0  0  0  0
   37.3360   27.0210   41.9400 C   0  0  0  0  0  0  0  0  0  0  0  0
   37.2920   25.6450   41.7730 C   0  0  0  0  0  0  0  0  0  0  0  0
   36.8600   25.0350   40.6310 C   0  0  0  0  0  0  0  0  0  0  0  0
   36.4580   25.8650   39.6200 C   0  0  0  0  0  0  0  0  0  0  0  0
   36.4900   27.2510   39.7500 C   0  0  0  0  0  0  0  0  0  0  0  0
   36.9270   27.8480   40.9050 C   0  0  0  0  0  0  0  0  0  0  0  0
   37.4270   30.7750   42.4230 H   0  0  0  0  0  0  0  0  0  0  0  0
   38.1240   29.3140   44.1900 H   0  0  0  0  0  0  0  0  0  0  0  0
   38.0840   26.9150   43.9210 H   0  0  0  0  0  0  0  0  0  0  0  0
   37.6220   25.0440   42.6060 H   0  0  0  0  0  0  0  0  0  0  0  0
   36.8520   23.9470   40.5680 H   0  0  0  0  0  0  0  0  0  0  0  0
   36.1180   25.3490   38.7210 H   0  0  0  0  0  0  0  0  0  0  0  0
   35.9490   27.9300   38.5400 C   0  0  0  0  0  0  0  0  0  0  0  0
   36.5320   28.1880   37.2690 C   0  0  0  0  0  0  0  0  0  0  0  0
   37.5610   27.9160   37.0730 H   0  0  0  0  0  0  0  0  0  0  0  0
   35.1570   28.9650   36.3440 S   0  0  0  0  0  0  0  0  0  0  0  0
   33.9970   28.8190   37.8380 C   0  0  0  0  0  0  0  0  0  0  0  0
   32.9730   29.1890   37.7430 H   0  0  0  0  0  0  0  0  0  0  0  0
   34.6860   28.3090   38.6440 N   0  0  0  0  0  0  0  0  0  0  0  0
   36.5260   30.1120   39.9760 N   0  0  0  0  0  0  0  0  0  0  0  0
   35.5250   29.8790   40.1060 H   0  0  0  0  0  0  0  0  0  0  0  0
   38.2520   31.9560   39.8100 C   0  0  1  0  0  0  0  0  0  0  0  0
   37.1070   32.3220   38.8900 C   0  0  0  0  0  0  0  0  0  0  0  0
   37.4720   30.8800   39.2090 C   0  0  2  0  0  0  0  0  0  0  0  0
   38.0650   32.4060   40.8290 H   0  0  0  0  0  0  0  0  0  0  0  0
   36.1580   32.6970   39.2660 H   0  0  0  0  0  0  0  0  0  0  0  0
   37.3370   32.6300   37.8370 H   0  0  0  0  0  0  0  0  0  0  0  0
   38.0150   30.2670   38.4600 H   0  0  0  0  0  0  0  0  0  0  0  0
   41.8130   32.9640   39.9160 C   0  0  0  0  0  0  0  0  0  0  0  0
   42.1940   32.8190   38.5470 C   0  0  0  0  0  0  0  0  0  0  0  0
   41.2140   32.3700   37.6240 C   0  0  0  0  0  0  0  0  0  0  0  0
   39.9760   32.0970   38.0590 N   0  0  0  0  0  0  0  0  0  0  0  0
   39.6440   32.2440   39.3670 C   0  0  0  0  0  0  0  0  0  0  0  0
   40.5630   32.6740   40.2830 N   0  0  0  0  0  0  0  0  0  0  0  0
   42.5560   33.3060   40.6220 H   0  0  0  0  0  0  0  0  0  0  0  0
   43.2130   33.0540   38.2460 H   0  0  0  0  0  0  0  0  0  0  0  0
   41.5140   32.2640   36.5900 H   0  0  0  0  0  0  0  0  0  0  0  0
  1  2  1  0  0  0  0
  2 11  1  0  0  0  0
  2  3  2  0  0  0  0
  3 12  1  0  0  0  0
  4  3  1  0  0  0  0
  4 13  1  0  0  0  0
  5  4  2  0  0  0  0
  6  5  1  0  0  0  0
  6 14  1  0  0  0  0
  7  6  2  0  0  0  0
  8  9  2  0  0  0  0
  8  7  1  0  0  0  0
  9 10  1  0  0  0  0
 10  1  2  0  0  0  0
 10  5  1  0  0  0  0
 15  7  1  0  0  0  0
 16  8  1  0  0  0  0
 17 23  1  0  0  0  0
 17  9  1  0  0  0  0
 18 17  2  0  0  0  0
 19 18  1  0  0  0  0
 20 18  1  0  0  0  0
 20 21  1  0  0  0  0
 21 23  2  0  0  0  0
 22 21  1  0  0  0  0
 24 25  1  0  0  0  0
 24  1  1  0  0  0  0
 26 29  1  1  0  0  0
 27 28  1  0  0  0  0
 27 30  1  0  0  0  0
 27 26  1  0  0  0  0
 28 32  1  6  0  0  0
 28 26  1  0  0  0  0
 28 24  1  0  0  0  0
 31 27  1  0  0  0  0
 33 38  1  0  0  0  0
 33 39  1  0  0  0  0
 34 33  2  0  0  0  0
 35 36  2  0  0  0  0
 35 34  1  0  0  0  0
 36 37  1  0  0  0  0
 37 26  1  0  0  0  0
 37 38  2  0  0  0  0
 40 34  1  0  0  0  0
 41 35  1  0  0  0  0
M  END
>  <minimizedAffinity>
-5.6471405

$$$$

 OpenBabel03242511103D

 41 45  0  0  1  0  0  0  0  0999 V2000
   39.2760   27.8080   42.9200 C   0  0  0  0  0  0  0  0  0  0  0  0
   38.3340   28.7070   43.3940 C   0  0  0  0  0  0  0  0  0  0  0  0
   36.9780   28.4110   43.5090 C   0  0  0  0  0  0  0  0  0  0  0  0
   36.5190   27.1610   43.1370 C   0  0  0  0  0  0  0  0  0  0  0  0
   37.4150   26.2620   42.6690 C   0  0  0  0  0  0  0  0  0  0  0  0
   36.9920   25.0020   42.2720 C   0  0  0  0  0  0  0  0  0  0  0  0
   37.8290   24.0440   41.7750 C   0  0  0  0  0  0  0  0  0  0  0  0
   39.1490   24.3890   41.6820 C   0  0  0  0  0  0  0  0  0  0  0  0
   39.6120   25.6430   42.0720 C   0  0  0  0  0  0  0  0  0  0  0  0
   38.7580   26.5940   42.5700 C   0  0  0  0  0  0  0  0  0  0  0  0
   38.5500   29.7170   43.7220 H   0  0  0  0  0  0  0  0  0  0  0  0
   36.2370   29.1070   43.8770 H   0  0  0  0  0  0  0  0  0  0  0  0
   35.4740   26.9120   43.2190 H   0  0  0  0  0  0  0  0  0  0  0  0
   35.9390   24.7900   42.3700 H   0  0  0  0  0  0  0  0  0  0  0  0
   37.4270   23.0740   41.4810 H   0  0  0  0  0  0  0  0  0  0  0  0
   39.7930   23.6040   41.2810 H   0  0  0  0  0  0  0  0  0  0  0  0
   41.0720   25.7950   41.8190 C   0  0  0  0  0  0  0  0  0  0  0  0
   42.2030   25.4360   42.6020 C   0  0  0  0  0  0  0  0  0  0  0  0
   42.0730   25.0090   43.5880 H   0  0  0  0  0  0  0  0  0  0  0  0
   43.6050   25.8760   41.5120 S   0  0  0  0  0  0  0  0  0  0  0  0
   42.4300   26.4860   40.1540 C   0  0  0  0  0  0  0  0  0  0  0  0
   42.8580   26.8760   39.2270 H   0  0  0  0  0  0  0  0  0  0  0  0
   41.3710   26.3000   40.6340 N   0  0  0  0  0  0  0  0  0  0  0  0
   40.6090   28.2190   42.8520 N   0  0  0  0  0  0  0  0  0  0  0  0
   40.9530   27.2820   43.1270 H   0  0  0  0  0  0  0  0  0  0  0  0
   40.8490   30.1090   41.1860 C   0  0  1  0  0  0  0  0  0  0  0  0
   42.2360   29.7690   41.6880 C   0  0  0  0  0  0  0  0  0  0  0  0
   40.9880   29.5720   42.5350 C   0  0  2  0  0  0  0  0  0  0  0  0
   40.6310   29.5000   40.2600 H   0  0  0  0  0  0  0  0  0  0  0  0
   42.7680   28.8780   41.3610 H   0  0  0  0  0  0  0  0  0  0  0  0
   42.9020   30.5980   42.0410 H   0  0  0  0  0  0  0  0  0  0  0  0
   40.7540   30.2850   43.3510 H   0  0  0  0  0  0  0  0  0  0  0  0
   38.8620   33.2160   40.8670 C   0  0  0  0  0  0  0  0  0  0  0  0
   39.8630   34.1600   40.4800 C   0  0  0  0  0  0  0  0  0  0  0  0
   41.1990   33.7000   40.3480 C   0  0  0  0  0  0  0  0  0  0  0  0
   41.4780   32.4120   40.5870 N   0  0  0  0  0  0  0  0  0  0  0  0
   40.5050   31.5390   40.9540 C   0  0  0  0  0  0  0  0  0  0  0  0
   39.2080   31.9470   41.0910 N   0  0  0  0  0  0  0  0  0  0  0  0
   37.8430   33.5620   40.9690 H   0  0  0  0  0  0  0  0  0  0  0  0
   39.5820   35.1950   40.2980 H   0  0  0  0  0  0  0  0  0  0  0  0
   41.9480   34.4240   40.0550 H   0  0  0  0  0  0  0  0  0  0  0  0
  1  2  1  0  0  0  0
  2  3  2  0  0  0  0
  2 11  1  0  0  0  0
  3 12  1  0  0  0  0
  4 13  1  0  0  0  0
  4  3  1  0  0  0  0
  5  4  2  0  0  0  0
  6 14  1  0  0  0  0
  6  5  1  0  0  0  0
  7  6  2  0  0  0  0
  8  7  1  0  0  0  0
  8  9  2  0  0  0  0
  9 10  1  0  0  0  0
 10  5  1  0  0  0  0
 10  1  2  0  0  0  0
 15  7  1  0  0  0  0
 16  8  1  0  0  0  0
 17  9  1  0  0  0  0
 17 18  2  0  0  0  0
 18 19  1  0  0  0  0
 20 18  1  0  0  0  0
 21 23  2  0  0  0  0
 21 20  1  0  0  0  0
 22 21  1  0  0  0  0
 23 17  1  0  0  0  0
 24  1  1  0  0  0  0
 24 25  1  0  0  0  0
 26 29  1  6  0  0  0
 26 27  1  0  0  0  0
 26 28  1  0  0  0  0
 27 31  1  0  0  0  0
 27 28  1  0  0  0  0
 28 24  1  0  0  0  0
 28 32  1  1  0  0  0
 30 27  1  0  0  0  0
 33 39  1  0  0  0  0
 33 38  1  0  0  0  0
 34 33  2  0  0  0  0
 35 34  1  0  0  0  0
 35 36  2  0  0  0  0
 36 37  1  0  0  0  0
 37 38  2  0  0  0  0
 37 26  1  0  0  0  0
 40 34  1  0  0  0  0
 41 35  1  0  0  0  0
M  END
>  <minimizedAffinity>
-5.6143918

$$$$

 OpenBabel03242511103D

 41 45  0  0  1  0  0  0  0  0999 V2000
   37.7480   29.2870   42.0230 C   0  0  0  0  0  0  0  0  0  0  0  0
   36.5950   28.5990   42.3640 C   0  0  0  0  0  0  0  0  0  0  0  0
   36.5920   27.4320   43.1230 C   0  0  0  0  0  0  0  0  0  0  0  0
   37.7890   26.9090   43.5750 C   0  0  0  0  0  0  0  0  0  0  0  0
   38.9330   27.5580   43.2570 C   0  0  0  0  0  0  0  0  0  0  0  0
   40.1560   27.0570   43.6780 C   0  0  0  0  0  0  0  0  0  0  0  0
   41.3550   27.6430   43.3870 C   0  0  0  0  0  0  0  0  0  0  0  0
   41.2990   28.7860   42.6360 C   0  0  0  0  0  0  0  0  0  0  0  0
   40.0900   29.3200   42.1970 C   0  0  0  0  0  0  0  0  0  0  0  0
   38.8950   28.7180   42.4980 C   0  0  0  0  0  0  0  0  0  0  0  0
   35.5910   28.8930   42.0820 H   0  0  0  0  0  0  0  0  0  0  0  0
   35.6970   26.8890   43.3920 H   0  0  0  0  0  0  0  0  0  0  0  0
   37.8090   26.0070   44.1640 H   0  0  0  0  0  0  0  0  0  0  0  0
   40.1340   26.1540   44.2670 H   0  0  0  0  0  0  0  0  0  0  0  0
   42.2790   27.1950   43.7510 H   0  0  0  0  0  0  0  0  0  0  0  0
   42.2720   29.2300   42.4200 H   0  0  0  0  0  0  0  0  0  0  0  0
   40.2970   30.5280   41.3510 C   0  0  0  0  0  0  0  0  0  0  0  0
   40.4500   31.8990   41.6950 C   0  0  0  0  0  0  0  0  0  0  0  0
   40.3740   32.2170   42.7270 H   0  0  0  0  0  0  0  0  0  0  0  0
   40.7590   32.6900   40.0740 S   0  0  0  0  0  0  0  0  0  0  0  0
   40.6310   31.0250   39.1750 C   0  0  0  0  0  0  0  0  0  0  0  0
   40.7590   31.0040   38.0900 H   0  0  0  0  0  0  0  0  0  0  0  0
   40.4170   30.2770   40.0590 N   0  0  0  0  0  0  0  0  0  0  0  0
   37.6250   30.4500   41.2580 N   0  0  0  0  0  0  0  0  0  0  0  0
   38.3570   30.9350   41.8060 H   0  0  0  0  0  0  0  0  0  0  0  0
   36.9700   30.1720   38.8290 C   0  0  1  0  0  0  0  0  0  0  0  0
   36.9160   31.6510   39.1460 C   0  0  0  0  0  0  0  0  0  0  0  0
   36.6620   30.5780   40.1950 C   0  0  2  0  0  0  0  0  0  0  0  0
   38.0000   29.9140   38.4410 H   0  0  0  0  0  0  0  0  0  0  0  0
   37.8150   32.2550   39.2520 H   0  0  0  0  0  0  0  0  0  0  0  0
   36.0040   32.2340   38.8570 H   0  0  0  0  0  0  0  0  0  0  0  0
   35.6260   30.3630   40.5270 H   0  0  0  0  0  0  0  0  0  0  0  0
   35.2310   29.0400   35.7630 C   0  0  0  0  0  0  0  0  0  0  0  0
   33.9870   28.5760   36.2920 C   0  0  0  0  0  0  0  0  0  0  0  0
   33.7850   28.6590   37.6940 C   0  0  0  0  0  0  0  0  0  0  0  0
   34.7540   29.1620   38.4700 N   0  0  0  0  0  0  0  0  0  0  0  0
   35.9260   29.5950   37.9380 C   0  0  0  0  0  0  0  0  0  0  0  0
   36.1540   29.5300   36.5920 N   0  0  0  0  0  0  0  0  0  0  0  0
   35.3890   28.9790   34.6960 H   0  0  0  0  0  0  0  0  0  0  0  0
   33.2330   28.1760   35.6170 H   0  0  0  0  0  0  0  0  0  0  0  0
   32.8400   28.3040   38.0840 H   0  0  0  0  0  0  0  0  0  0  0  0
  1  2  2  0  0  0  0
  1 10  1  0  0  0  0
  2  3  1  0  0  0  0
  3 12  1  0  0  0  0
  3  4  2  0  0  0  0
  4 13  1  0  0  0  0
  5  4  1  0  0  0  0
  5  6  1  0  0  0  0
  6 14  1  0  0  0  0
  7  6  2  0  0  0  0
  7 15  1  0  0  0  0
  8  7  1  0  0  0  0
  9 10  1  0  0  0  0
  9  8  2  0  0  0  0
 10  5  2  0  0  0  0
 11  2  1  0  0  0  0
 16  8  1  0  0  0  0
 17 18  2  0  0  0  0
 17  9  1  0  0  0  0
 18 19  1  0  0  0  0
 20 18  1  0  0  0  0
 21 23  2  0  0  0  0
 21 20  1  0  0  0  0
 22 21  1  0  0  0  0
 23 17  1  0  0  0  0
 24 25  1  0  0  0  0
 24  1  1  0  0  0  0
 26 29  1  6  0  0  0
 26 27  1  0  0  0  0
 26 28  1  0  0  0  0
 27 30  1  0  0  0  0
 27 28  1  0  0  0  0
 28 32  1  1  0  0  0
 28 24  1  0  0  0  0
 31 27  1  0  0  0  0
 33 34  2  0  0  0  0
 33 38  1  0  0  0  0
 34 35  1  0  0  0  0
 35 41  1  0  0  0  0
 35 36  2  0  0  0  0
 37 36  1  0  0  0  0
 37 26  1  0  0  0  0
 38 37  2  0  0  0  0
 39 33  1  0  0  0  0
 40 34  1  0  0  0  0
M  END
>  <minimizedAffinity>
-5.61291027

$$$$

 OpenBabel03242511103D

 41 45  0  0  1  0  0  0  0  0999 V2000
   37.0650   27.0160   39.7050 C   0  0  0  0  0  0  0  0  0  0  0  0
   36.9160   25.6410   39.6240 C   0  0  0  0  0  0  0  0  0  0  0  0
   36.8770   24.8040   40.7360 C   0  0  0  0  0  0  0  0  0  0  0  0
   36.9900   25.3480   42.0030 C   0  0  0  0  0  0  0  0  0  0  0  0
   37.1380   26.6880   42.1140 C   0  0  0  0  0  0  0  0  0  0  0  0
   37.2700   27.2710   43.3660 C   0  0  0  0  0  0  0  0  0  0  0  0
   37.4380   28.6110   43.5640 C   0  0  0  0  0  0  0  0  0  0  0  0
   37.4710   29.3860   42.4360 C   0  0  0  0  0  0  0  0  0  0  0  0
   37.3410   28.8380   41.1630 C   0  0  0  0  0  0  0  0  0  0  0  0
   37.1720   27.4880   40.9820 C   0  0  0  0  0  0  0  0  0  0  0  0
   36.8140   25.0820   38.7020 H   0  0  0  0  0  0  0  0  0  0  0  0
   36.7620   23.7310   40.6810 H   0  0  0  0  0  0  0  0  0  0  0  0
   36.9620   24.7180   42.8760 H   0  0  0  0  0  0  0  0  0  0  0  0
   37.2350   26.6080   44.2160 H   0  0  0  0  0  0  0  0  0  0  0  0
   37.5350   29.0010   44.5770 H   0  0  0  0  0  0  0  0  0  0  0  0
   37.6070   30.4520   42.6260 H   0  0  0  0  0  0  0  0  0  0  0  0
   37.4690   29.8740   40.1010 C   0  0  0  0  0  0  0  0  0  0  0  0
   36.5310   30.8090   39.5840 C   0  0  0  0  0  0  0  0  0  0  0  0
   35.5080   30.8100   39.9360 H   0  0  0  0  0  0  0  0  0  0  0  0
   37.5330   31.7670   38.3890 S   0  0  0  0  0  0  0  0  0  0  0  0
   39.0790   30.7410   38.7790 C   0  0  0  0  0  0  0  0  0  0  0  0
   40.0090   30.9750   38.2540 H   0  0  0  0  0  0  0  0  0  0  0  0
   38.6830   29.9850   39.5890 N   0  0  0  0  0  0  0  0  0  0  0  0
   37.0880   27.7520   38.5180 N   0  0  0  0  0  0  0  0  0  0  0  0
   38.0170   28.1510   38.7380 H   0  0  0  0  0  0  0  0  0  0  0  0
   34.6180   27.9890   38.0160 C   0  0  1  0  0  0  0  0  0  0  0  0
   35.0230   26.5780   37.6450 C   0  0  0  0  0  0  0  0  0  0  0  0
   35.9910   27.7500   37.5850 C   0  0  2  0  0  0  0  0  0  0  0  0
   34.2650   28.0010   39.0890 H   0  0  0  0  0  0  0  0  0  0  0  0
   35.2070   25.8110   38.3940 H   0  0  0  0  0  0  0  0  0  0  0  0
   34.7280   26.1770   36.6410 H   0  0  0  0  0  0  0  0  0  0  0  0
   36.2600   28.1970   36.6060 H   0  0  0  0  0  0  0  0  0  0  0  0
   31.6020   29.8460   36.9390 C   0  0  0  0  0  0  0  0  0  0  0  0
   31.8340   29.9820   35.5360 C   0  0  0  0  0  0  0  0  0  0  0  0
   33.0280   29.4360   35.0000 C   0  0  0  0  0  0  0  0  0  0  0  0
   33.8930   28.8170   35.8140 N   0  0  0  0  0  0  0  0  0  0  0  0
   33.6460   28.7050   37.1450 C   0  0  0  0  0  0  0  0  0  0  0  0
   32.5060   29.2200   37.6950 N   0  0  0  0  0  0  0  0  0  0  0  0
   30.6940   30.2610   37.3520 H   0  0  0  0  0  0  0  0  0  0  0  0
   31.0980   30.4930   34.9180 H   0  0  0  0  0  0  0  0  0  0  0  0
   33.1930   29.5440   33.9360 H   0  0  0  0  0  0  0  0  0  0  0  0
  1 10  1  0  0  0  0
  2  1  2  0  0  0  0
  2  3  1  0  0  0  0
  3  4  2  0  0  0  0
  4  5  1  0  0  0  0
  4 13  1  0  0  0  0
  5  6  1  0  0  0  0
  6  7  2  0  0  0  0
  6 14  1  0  0  0  0
  7 15  1  0  0  0  0
  8 16  1  0  0  0  0
  8  7  1  0  0  0  0
  9  8  2  0  0  0  0
 10  9  1  0  0  0  0
 10  5  2  0  0  0  0
 11  2  1  0  0  0  0
 12  3  1  0  0  0  0
 17  9  1  0  0  0  0
 18 19  1  0  0  0  0
 18 17  2  0  0  0  0
 20 21  1  0  0  0  0
 20 18  1  0  0  0  0
 21 23  2  0  0  0  0
 22 21  1  0  0  0  0
 23 17  1  0  0  0  0
 24 25  1  0  0  0  0
 24  1  1  0  0  0  0
 26 29  1  1  0  0  0
 27 26  1  0  0  0  0
 27 30  1  0  0  0  0
 28 32  1  6  0  0  0
 28 27  1  0  0  0  0
 28 26  1  0  0  0  0
 28 24  1  0  0  0  0
 31 27  1  0  0  0  0
 33 39  1  0  0  0  0
 33 38  1  0  0  0  0
 34 33  2  0  0  0  0
 35 34  1  0  0  0  0
 35 36  2  0  0  0  0
 36 37  1  0  0  0  0
 37 38  2  0  0  0  0
 37 26  1  0  0  0  0
 40 34  1  0  0  0  0
 41 35  1  0  0  0  0
M  END
>  <minimizedAffinity>
-5.61096716

$$$$

 OpenBabel03242511103D

 41 45  0  0  1  0  0  0  0  0999 V2000
   39.0050   27.4930   42.1240 C   0  0  0  0  0  0  0  0  0  0  0  0
   39.9790   27.3190   43.0950 C   0  0  0  0  0  0  0  0  0  0  0  0
   40.2720   26.0890   43.6790 C   0  0  0  0  0  0  0  0  0  0  0  0
   39.5700   24.9640   43.2880 C   0  0  0  0  0  0  0  0  0  0  0  0
   38.6110   25.1020   42.3430 C   0  0  0  0  0  0  0  0  0  0  0  0
   37.8750   24.0000   41.9350 C   0  0  0  0  0  0  0  0  0  0  0  0
   36.8820   24.0580   40.9990 C   0  0  0  0  0  0  0  0  0  0  0  0
   36.6340   25.2910   40.4600 C   0  0  0  0  0  0  0  0  0  0  0  0
   37.3540   26.4200   40.8430 C   0  0  0  0  0  0  0  0  0  0  0  0
   38.3490   26.3440   41.7850 C   0  0  0  0  0  0  0  0  0  0  0  0
   40.6050   28.1080   43.4930 H   0  0  0  0  0  0  0  0  0  0  0  0
   41.0290   25.9460   44.4360 H   0  0  0  0  0  0  0  0  0  0  0  0
   39.7820   24.0040   43.7270 H   0  0  0  0  0  0  0  0  0  0  0  0
   38.1170   23.0560   42.3960 H   0  0  0  0  0  0  0  0  0  0  0  0
   36.3420   23.1510   40.7260 H   0  0  0  0  0  0  0  0  0  0  0  0
   35.8360   25.3050   39.7160 H   0  0  0  0  0  0  0  0  0  0  0  0
   36.8580   27.6470   40.1600 C   0  0  0  0  0  0  0  0  0  0  0  0
   37.0880   28.1490   38.8490 C   0  0  0  0  0  0  0  0  0  0  0  0
   37.7610   27.6340   38.1760 H   0  0  0  0  0  0  0  0  0  0  0  0
   36.0280   29.6390   38.7960 S   0  0  0  0  0  0  0  0  0  0  0  0
   35.4350   29.3480   40.5740 C   0  0  0  0  0  0  0  0  0  0  0  0
   34.7240   30.0540   41.0120 H   0  0  0  0  0  0  0  0  0  0  0  0
   36.0120   28.3670   40.8760 N   0  0  0  0  0  0  0  0  0  0  0  0
   38.8020   28.7760   41.6100 N   0  0  0  0  0  0  0  0  0  0  0  0
   37.7790   28.7150   41.7560 H   0  0  0  0  0  0  0  0  0  0  0  0
   39.6320   30.7190   40.2170 C   0  0  1  0  0  0  0  0  0  0  0  0
   40.2040   29.4540   39.6160 C   0  0  0  0  0  0  0  0  0  0  0  0
   39.8790   29.5830   41.0960 C   0  0  2  0  0  0  0  0  0  0  0  0
   38.6470   30.9540   39.7150 H   0  0  0  0  0  0  0  0  0  0  0  0
   39.6010   28.7670   39.0260 H   0  0  0  0  0  0  0  0  0  0  0  0
   41.3020   29.4110   39.3910 H   0  0  0  0  0  0  0  0  0  0  0  0
   40.6950   29.7270   41.8330 H   0  0  0  0  0  0  0  0  0  0  0  0
   40.9520   34.0930   39.4530 C   0  0  0  0  0  0  0  0  0  0  0  0
   42.0860   34.1610   40.3200 C   0  0  0  0  0  0  0  0  0  0  0  0
   42.3600   33.0440   41.1510 C   0  0  0  0  0  0  0  0  0  0  0  0
   41.5570   31.9720   41.1000 N   0  0  0  0  0  0  0  0  0  0  0  0
   40.4870   31.9370   40.2660 C   0  0  0  0  0  0  0  0  0  0  0  0
   40.1930   32.9950   39.4520 N   0  0  0  0  0  0  0  0  0  0  0  0
   40.7400   34.9410   38.8190 H   0  0  0  0  0  0  0  0  0  0  0  0
   42.7060   35.0550   40.3230 H   0  0  0  0  0  0  0  0  0  0  0  0
   43.2210   33.1070   41.8040 H   0  0  0  0  0  0  0  0  0  0  0  0
  1  2  1  0  0  0  0
  2 11  1  0  0  0  0
  2  3  2  0  0  0  0
  3 12  1  0  0  0  0
  4  3  1  0  0  0  0
  4 13  1  0  0  0  0
  5  4  2  0  0  0  0
  6  5  1  0  0  0  0
  6 14  1  0  0  0  0
  7  6  2  0  0  0  0
  8  9  2  0  0  0  0
  8  7  1  0  0  0  0
  9 10  1  0  0  0  0
 10  1  2  0  0  0  0
 10  5  1  0  0  0  0
 15  7  1  0  0  0  0
 16  8  1  0  0  0  0
 17  9  1  0  0  0  0
 17 23  1  0  0  0  0
 18 17  2  0  0  0  0
 19 18  1  0  0  0  0
 20 18  1  0  0  0  0
 20 21  1  0  0  0  0
 21 23  2  0  0  0  0
 21 22  1  0  0  0  0
 24 25  1  0  0  0  0
 24  1  1  0  0  0  0
 26 29  1  6  0  0  0
 26 37  1  0  0  0  0
 26 28  1  0  0  0  0
 27 26  1  0  0  0  0
 27 28  1  0  0  0  0
 28 24  1  0  0  0  0
 28 32  1  1  0  0  0
 30 27  1  0  0  0  0
 31 27  1  0  0  0  0
 33 34  1  0  0  0  0
 34 40  1  0  0  0  0
 34 35  2  0  0  0  0
 35 41  1  0  0  0  0
 36 35  1  0  0  0  0
 37 36  2  0  0  0  0
 38 33  2  0  0  0  0
 38 37  1  0  0  0  0
 39 33  1  0  0  0  0
M  END
>  <minimizedAffinity>
-5.56882095

$$$$

 OpenBabel03242511103D

 41 45  0  0  1  0  0  0  0  0999 V2000
   37.3530   27.9930   39.5000 C   0  0  0  0  0  0  0  0  0  0  0  0
   37.0090   26.7580   38.9740 C   0  0  0  0  0  0  0  0  0  0  0  0
   36.7470   25.6350   39.7550 C   0  0  0  0  0  0  0  0  0  0  0  0
   36.8260   25.7280   41.1320 C   0  0  0  0  0  0  0  0  0  0  0  0
   37.1600   26.9220   41.6760 C   0  0  0  0  0  0  0  0  0  0  0  0
   37.2650   27.0520   43.0520 C   0  0  0  0  0  0  0  0  0  0  0  0
   37.6110   28.2160   43.6780 C   0  0  0  0  0  0  0  0  0  0  0  0
   37.8600   29.2860   42.8630 C   0  0  0  0  0  0  0  0  0  0  0  0
   37.7640   29.1930   41.4760 C   0  0  0  0  0  0  0  0  0  0  0  0
   37.4140   28.0170   40.8640 C   0  0  0  0  0  0  0  0  0  0  0  0
   36.9080   26.5400   37.9170 H   0  0  0  0  0  0  0  0  0  0  0  0
   36.4790   24.6680   39.3510 H   0  0  0  0  0  0  0  0  0  0  0  0
   36.6260   24.8710   41.7540 H   0  0  0  0  0  0  0  0  0  0  0  0
   37.0560   26.1730   43.6410 H   0  0  0  0  0  0  0  0  0  0  0  0
   37.6750   28.2470   44.7660 H   0  0  0  0  0  0  0  0  0  0  0  0
   38.1350   30.2000   43.3910 H   0  0  0  0  0  0  0  0  0  0  0  0
   38.1400   30.4720   40.8120 C   0  0  0  0  0  0  0  0  0  0  0  0
   39.3730   30.9170   40.2620 C   0  0  0  0  0  0  0  0  0  0  0  0
   40.2590   30.2990   40.3330 H   0  0  0  0  0  0  0  0  0  0  0  0
   38.9370   32.5490   39.5580 S   0  0  0  0  0  0  0  0  0  0  0  0
   37.1350   32.3720   40.1250 C   0  0  0  0  0  0  0  0  0  0  0  0
   36.4350   33.1820   39.9040 H   0  0  0  0  0  0  0  0  0  0  0  0
   37.1380   31.3200   40.6530 N   0  0  0  0  0  0  0  0  0  0  0  0
   37.5910   29.0470   38.6150 N   0  0  0  0  0  0  0  0  0  0  0  0
   38.5800   29.1220   38.9100 H   0  0  0  0  0  0  0  0  0  0  0  0
   35.8540   28.8050   36.7900 C   0  0  1  0  0  0  0  0  0  0  0  0
   36.8790   29.8110   36.3110 C   0  0  0  0  0  0  0  0  0  0  0  0
   36.5580   29.6080   37.7830 C   0  0  2  0  0  0  0  0  0  0  0  0
   36.1620   27.7730   36.4490 H   0  0  0  0  0  0  0  0  0  0  0  0
   37.8670   29.5130   35.9650 H   0  0  0  0  0  0  0  0  0  0  0  0
   36.5230   30.7890   35.8950 H   0  0  0  0  0  0  0  0  0  0  0  0
   35.9290   30.3480   38.3200 H   0  0  0  0  0  0  0  0  0  0  0  0
   32.7730   29.5430   34.8740 C   0  0  0  0  0  0  0  0  0  0  0  0
   31.7830   29.5300   35.9050 C   0  0  0  0  0  0  0  0  0  0  0  0
   32.2050   29.2590   37.2330 C   0  0  0  0  0  0  0  0  0  0  0  0
   33.5010   29.0260   37.4770 N   0  0  0  0  0  0  0  0  0  0  0  0
   34.4190   29.0440   36.4760 C   0  0  0  0  0  0  0  0  0  0  0  0
   34.0480   29.3010   35.1860 N   0  0  0  0  0  0  0  0  0  0  0  0
   32.4570   29.7490   33.8620 H   0  0  0  0  0  0  0  0  0  0  0  0
   30.7430   29.7260   35.6530 H   0  0  0  0  0  0  0  0  0  0  0  0
   31.4470   29.2510   38.0050 H   0  0  0  0  0  0  0  0  0  0  0  0
  1 10  1  0  0  0  0
  2  1  2  0  0  0  0
  2  3  1  0  0  0  0
  3  4  2  0  0  0  0
  4  5  1  0  0  0  0
  4 13  1  0  0  0  0
  5  6  1  0  0  0  0
  6 14  1  0  0  0  0
  6  7  2  0  0  0  0
  7 15  1  0  0  0  0
  8 16  1  0  0  0  0
  8  7  1  0  0  0  0
  9  8  2  0  0  0  0
 10  9  1  0  0  0  0
 10  5  2  0  0  0  0
 11  2  1  0  0  0  0
 12  3  1  0  0  0  0
 17  9  1  0  0  0  0
 18 19  1  0  0  0  0
 18 17  2  0  0  0  0
 20 21  1  0  0  0  0
 20 18  1  0  0  0  0
 21 23  2  0  0  0  0
 22 21  1  0  0  0  0
 23 17  1  0  0  0  0
 24 25  1  0  0  0  0
 24  1  1  0  0  0  0
 26 29  1  6  0  0  0
 26 28  1  0  0  0  0
 27 26  1  0  0  0  0
 27 28  1  0  0  0  0
 28 32  1  1  0  0  0
 28 24  1  0  0  0  0
 30 27  1  0  0  0  0
 31 27  1  0  0  0  0
 33 38  2  0  0  0  0
 33 34  1  0  0  0  0
 34 35  2  0  0  0  0
 35 36  1  0  0  0  0
 35 41  1  0  0  0  0
 37 26  1  0  0  0  0
 37 36  2  0  0  0  0
 38 37  1  0  0  0  0
 39 33  1  0  0  0  0
 40 34  1  0  0  0  0
M  END
>  <minimizedAffinity>
-5.54490519

$$$$

 OpenBabel03242511103D

 41 45  0  0  1  0  0  0  0  0999 V2000
   37.4820   26.6870   40.6590 C   0  0  0  0  0  0  0  0  0  0  0  0
   36.7730   25.5060   40.5130 C   0  0  0  0  0  0  0  0  0  0  0  0
   36.9770   24.3820   41.3100 C   0  0  0  0  0  0  0  0  0  0  0  0
   37.9330   24.4190   42.3080 C   0  0  0  0  0  0  0  0  0  0  0  0
   38.6430   25.5590   42.4750 C   0  0  0  0  0  0  0  0  0  0  0  0
   39.6210   25.6320   43.4560 C   0  0  0  0  0  0  0  0  0  0  0  0
   40.3900   26.7380   43.6780 C   0  0  0  0  0  0  0  0  0  0  0  0
   40.1480   27.8110   42.8650 C   0  0  0  0  0  0  0  0  0  0  0  0
   39.1740   27.7770   41.8700 C   0  0  0  0  0  0  0  0  0  0  0  0
   38.4100   26.6570   41.6610 C   0  0  0  0  0  0  0  0  0  0  0  0
   35.9960   25.3360   39.7770 H   0  0  0  0  0  0  0  0  0  0  0  0
   36.4290   23.4570   41.2010 H   0  0  0  0  0  0  0  0  0  0  0  0
   38.1060   23.5610   42.9360 H   0  0  0  0  0  0  0  0  0  0  0  0
   39.7630   24.7530   44.0650 H   0  0  0  0  0  0  0  0  0  0  0  0
   41.1420   26.7250   44.4670 H   0  0  0  0  0  0  0  0  0  0  0  0
   40.7780   28.6790   43.0660 H   0  0  0  0  0  0  0  0  0  0  0  0
   39.1440   29.0420   41.0840 C   0  0  0  0  0  0  0  0  0  0  0  0
   39.8500   29.4380   39.9150 C   0  0  0  0  0  0  0  0  0  0  0  0
   40.5910   28.7830   39.4750 H   0  0  0  0  0  0  0  0  0  0  0  0
   39.1470   31.0890   39.5590 S   0  0  0  0  0  0  0  0  0  0  0  0
   37.9980   30.9860   41.0640 C   0  0  0  0  0  0  0  0  0  0  0  0
   37.3280   31.8250   41.2710 H   0  0  0  0  0  0  0  0  0  0  0  0
   38.2660   29.9320   41.5150 N   0  0  0  0  0  0  0  0  0  0  0  0
   37.1860   27.7490   39.8000 N   0  0  0  0  0  0  0  0  0  0  0  0
   38.1510   28.1180   39.8620 H   0  0  0  0  0  0  0  0  0  0  0  0
   35.5370   29.1640   38.5030 C   0  0  1  0  0  0  0  0  0  0  0  0
   35.0100   29.0360   39.9150 C   0  0  0  0  0  0  0  0  0  0  0  0
   35.8680   27.9640   39.2610 C   0  0  2  0  0  0  0  0  0  0  0  0
   36.1820   30.0890   38.4310 H   0  0  0  0  0  0  0  0  0  0  0  0
   35.4420   29.5880   40.7480 H   0  0  0  0  0  0  0  0  0  0  0  0
   33.9410   28.7370   40.0690 H   0  0  0  0  0  0  0  0  0  0  0  0
   35.3990   27.0290   38.8900 H   0  0  0  0  0  0  0  0  0  0  0  0
   32.3370   28.9740   36.6510 C   0  0  0  0  0  0  0  0  0  0  0  0
   32.7870   29.0050   35.2950 C   0  0  0  0  0  0  0  0  0  0  0  0
   34.1820   29.0990   35.0560 C   0  0  0  0  0  0  0  0  0  0  0  0
   35.0260   29.1560   36.0950 N   0  0  0  0  0  0  0  0  0  0  0  0
   34.5680   29.1250   37.3730 C   0  0  0  0  0  0  0  0  0  0  0  0
   33.2310   29.0350   37.6400 N   0  0  0  0  0  0  0  0  0  0  0  0
   31.2750   28.9020   36.8380 H   0  0  0  0  0  0  0  0  0  0  0  0
   32.0590   28.9560   34.4870 H   0  0  0  0  0  0  0  0  0  0  0  0
   34.5110   29.1220   34.0250 H   0  0  0  0  0  0  0  0  0  0  0  0
  1 10  1  0  0  0  0
  2  1  2  0  0  0  0
  2  3  1  0  0  0  0
  3  4  2  0  0  0  0
  4  5  1  0  0  0  0
  4 13  1  0  0  0  0
  5  6  1  0  0  0  0
  6  7  2  0  0  0  0
  6 14  1  0  0  0  0
  7 15  1  0  0  0  0
  8 16  1  0  0  0  0
  8  7  1  0  0  0  0
  9  8  2  0  0  0  0
 10  9  1  0  0  0  0
 10  5  2  0  0  0  0
 11  2  1  0  0  0  0
 12  3  1  0  0  0  0
 17 23  1  0  0  0  0
 17  9  1  0  0  0  0
 18 17  2  0  0  0  0
 19 18  1  0  0  0  0
 20 18  1  0  0  0  0
 20 21  1  0  0  0  0
 21 22  1  0  0  0  0
 21 23  2  0  0  0  0
 24 25  1  0  0  0  0
 24  1  1  0  0  0  0
 26 29  1  6  0  0  0
 26 28  1  0  0  0  0
 26 27  1  0  0  0  0
 27 31  1  0  0  0  0
 27 30  1  0  0  0  0
 28 32  1  6  0  0  0
 28 24  1  0  0  0  0
 28 27  1  0  0  0  0
 33 39  1  0  0  0  0
 33 38  1  0  0  0  0
 34 33  2  0  0  0  0
 35 34  1  0  0  0  0
 35 36  2  0  0  0  0
 36 37  1  0  0  0  0
 37 38  2  0  0  0  0
 37 26  1  0  0  0  0
 40 34  1  0  0  0  0
 41 35  1  0  0  0  0
M  END
>  <minimizedAffinity>
-5.54301023

$$$$

 OpenBabel03242511103D

 41 45  0  0  1  0  0  0  0  0999 V2000
   36.4620   27.2850   39.4020 C   0  0  0  0  0  0  0  0  0  0  0  0
   35.7090   27.1750   38.2440 C   0  0  0  0  0  0  0  0  0  0  0  0
   35.2830   25.9590   37.7150 C   0  0  0  0  0  0  0  0  0  0  0  0
   35.6150   24.7820   38.3600 C   0  0  0  0  0  0  0  0  0  0  0  0
   36.3510   24.8570   39.4940 C   0  0  0  0  0  0  0  0  0  0  0  0
   36.7160   23.6970   40.1620 C   0  0  0  0  0  0  0  0  0  0  0  0
   37.4690   23.6860   41.3020 C   0  0  0  0  0  0  0  0  0  0  0  0
   37.8620   24.9080   41.7750 C   0  0  0  0  0  0  0  0  0  0  0  0
   37.5130   26.0940   41.1320 C   0  0  0  0  0  0  0  0  0  0  0  0
   36.7560   26.0870   39.9890 C   0  0  0  0  0  0  0  0  0  0  0  0
   35.3760   28.0100   37.6390 H   0  0  0  0  0  0  0  0  0  0  0  0
   34.6970   25.8650   36.8120 H   0  0  0  0  0  0  0  0  0  0  0  0
   35.2950   23.8310   37.9680 H   0  0  0  0  0  0  0  0  0  0  0  0
   36.3760   22.7650   39.7400 H   0  0  0  0  0  0  0  0  0  0  0  0
   37.7200   22.7370   41.7750 H   0  0  0  0  0  0  0  0  0  0  0  0
   38.4620   24.8670   42.6850 H   0  0  0  0  0  0  0  0  0  0  0  0
   38.1080   27.2810   41.8060 C   0  0  0  0  0  0  0  0  0  0  0  0
   39.3690   27.9190   41.6430 C   0  0  0  0  0  0  0  0  0  0  0  0
   40.1050   27.5110   40.9620 H   0  0  0  0  0  0  0  0  0  0  0  0
   39.2450   29.3520   42.7740 S   0  0  0  0  0  0  0  0  0  0  0  0
   37.4900   28.8590   43.2960 C   0  0  0  0  0  0  0  0  0  0  0  0
   36.9660   29.4820   44.0260 H   0  0  0  0  0  0  0  0  0  0  0  0
   37.3030   27.8830   42.6640 N   0  0  0  0  0  0  0  0  0  0  0  0
   36.8290   28.5610   39.8360 N   0  0  0  0  0  0  0  0  0  0  0  0
   36.4320   28.3970   40.7780 H   0  0  0  0  0  0  0  0  0  0  0  0
   37.7610   30.8760   39.4160 C   0  0  1  0  0  0  0  0  0  0  0  0
   36.6170   30.6660   38.4480 C   0  0  0  0  0  0  0  0  0  0  0  0
   37.4680   29.5190   38.9720 C   0  0  2  0  0  0  0  0  0  0  0  0
   37.3630   31.3540   40.3600 H   0  0  0  0  0  0  0  0  0  0  0  0
   35.5760   30.7050   38.7620 H   0  0  0  0  0  0  0  0  0  0  0  0
   36.7770   30.8970   37.3630 H   0  0  0  0  0  0  0  0  0  0  0  0
   38.2410   29.0600   38.3210 H   0  0  0  0  0  0  0  0  0  0  0  0
   40.4850   33.3770   39.2330 C   0  0  0  0  0  0  0  0  0  0  0  0
   41.1730   32.9670   38.0500 C   0  0  0  0  0  0  0  0  0  0  0  0
   40.6830   31.8330   37.3510 C   0  0  0  0  0  0  0  0  0  0  0  0
   39.6050   31.1880   37.8160 N   0  0  0  0  0  0  0  0  0  0  0  0
   38.9720   31.6020   38.9440 C   0  0  0  0  0  0  0  0  0  0  0  0
   39.4170   32.6900   39.6420 N   0  0  0  0  0  0  0  0  0  0  0  0
   40.8540   34.2400   39.7680 H   0  0  0  0  0  0  0  0  0  0  0  0
   42.0450   33.5250   37.7150 H   0  0  0  0  0  0  0  0  0  0  0  0
   41.2130   31.5310   36.4570 H   0  0  0  0  0  0  0  0  0  0  0  0
  1 24  1  0  0  0  0
  1 10  1  0  0  0  0
  2  1  2  0  0  0  0
  3  2  1  0  0  0  0
  3  4  2  0  0  0  0
  4  5  1  0  0  0  0
  5 10  2  0  0  0  0
  5  6  1  0  0  0  0
  6  7  2  0  0  0  0
  7  8  1  0  0  0  0
  7 15  1  0  0  0  0
  8 16  1  0  0  0  0
  9  8  2  0  0  0  0
  9 17  1  0  0  0  0
 10  9  1  0  0  0  0
 11  2  1  0  0  0  0
 12  3  1  0  0  0  0
 13  4  1  0  0  0  0
 14  6  1  0  0  0  0
 17 23  1  0  0  0  0
 18 17  2  0  0  0  0
 18 20  1  0  0  0  0
 19 18  1  0  0  0  0
 20 21  1  0  0  0  0
 21 22  1  0  0  0  0
 23 21  2  0  0  0  0
 24 25  1  0  0  0  0
 26 29  1  1  0  0  0
 27 30  1  0  0  0  0
 27 28  1  0  0  0  0
 27 26  1  0  0  0  0
 28 32  1  6  0  0  0
 28 26  1  0  0  0  0
 28 24  1  0  0  0  0
 31 27  1  0  0  0  0
 33 38  1  0  0  0  0
 33 39  1  0  0  0  0
 34 33  2  0  0  0  0
 35 36  2  0  0  0  0
 35 34  1  0  0  0  0
 36 37  1  0  0  0  0
 37 26  1  0  0  0  0
 37 38  2  0  0  0  0
 40 34  1  0  0  0  0
 41 35  1  0  0  0  0
M  END
>  <minimizedAffinity>
-5.53695965

$$$$
