
 OpenBabel03252505513D

 23 24  0  0  0  0  0  0  0  0999 V2000
   44.7200   35.3910   45.0320 C   0  0  0  0  0  0  0  0  0  0  0  0
   45.5990   34.9350   44.0530 C   0  0  0  0  0  0  0  0  0  0  0  0
   46.3430   33.7920   44.3290 C   0  0  0  0  0  0  0  0  0  0  0  0
   46.1850   33.1820   45.5180 N   0  0  0  0  0  0  0  0  0  0  0  0
   45.3350   33.6390   46.4420 C   0  0  0  0  0  0  0  0  0  0  0  0
   44.5880   34.7440   46.2250 N   0  0  0  0  0  0  0  0  0  0  0  0
   44.1080   36.2720   44.8900 H   0  0  0  0  0  0  0  0  0  0  0  0
   47.0150   33.4670   43.5440 H   0  0  0  0  0  0  0  0  0  0  0  0
   45.6620   35.7260   42.7730 C   0  0  0  0  0  0  0  0  0  0  0  0
   45.2370   36.9840   43.0840 F   0  0  0  0  0  0  0  0  0  0  0  0
   44.7590   35.1180   41.9040 F   0  0  0  0  0  0  0  0  0  0  0  0
   46.9450   35.6630   42.3020 F   0  0  0  0  0  0  0  0  0  0  0  0
   45.1520   33.0350   47.6680 O   0  0  0  0  0  0  0  0  0  0  0  0
   46.1770   32.3570   48.3490 C   0  0  0  0  0  0  0  0  0  0  0  0
   47.1620   32.8490   48.2200 H   0  0  0  0  0  0  0  0  0  0  0  0
   45.9760   32.4030   49.4380 H   0  0  0  0  0  0  0  0  0  0  0  0
   46.2330   30.8920   47.9950 C   0  0  0  0  0  0  0  0  0  0  0  0
   47.4060   30.2660   47.5070 C   0  0  0  0  0  0  0  0  0  0  0  0
   48.3730   30.6680   47.3150 H   0  0  0  0  0  0  0  0  0  0  0  0
   46.8860   28.5470   47.2630 S   0  0  0  0  0  0  0  0  0  0  0  0
   45.1320   28.9550   47.8720 C   0  0  0  0  0  0  0  0  0  0  0  0
   44.0930   28.3590   48.0410 H   0  0  0  0  0  0  0  0  0  0  0  0
   45.2190   30.0520   48.1000 N   0  0  0  0  0  0  0  0  0  0  0  0
  1  6  1  0  0  0  0
  2  3  1  0  0  0  0
  2  1  2  0  0  0  0
  3  4  2  0  0  0  0
  4  5  1  0  0  0  0
  5 13  1  0  0  0  0
  6  5  2  0  0  0  0
  7  1  1  0  0  0  0
  8  3  1  0  0  0  0
  9 10  1  0  0  0  0
  9  2  1  0  0  0  0
 11  9  1  0  0  0  0
 12  9  1  0  0  0  0
 13 14  1  0  0  0  0
 14 16  1  0  0  0  0
 15 14  1  0  0  0  0
 17 23  1  0  0  0  0
 17 14  1  0  0  0  0
 18 17  2  0  0  0  0
 19 18  1  0  0  0  0
 20 18  1  0  0  0  0
 20 21  1  0  0  0  0
 21 22  1  0  0  0  0
 21 23  2  0  0  0  0
M  END
>  <minimizedAffinity>
-4.6411891

>  <minimizedRMSD>
0.692110538

$$$$
