
 OpenBabel03252508593D

 43 45  0  0  1  0  0  0  0  0999 V2000
   46.7740   34.4080   43.6000 N   0  0  0  0  0  0  0  0  0  0  0  0
   46.3650   35.3240   42.5950 C   0  0  0  0  0  0  0  0  0  0  0  0
   44.8690   35.5000   42.4610 C   0  0  0  0  0  0  0  0  0  0  0  0
   44.0970   35.3500   43.7440 C   0  0  0  0  0  0  0  0  0  0  0  0
   45.0300   35.1900   44.9230 C   0  0  0  0  0  0  0  0  0  0  0  0
   45.8770   33.9230   44.5360 C   0  0  2  0  0  0  0  0  0  0  0  0
   46.7610   35.1380   41.5910 H   0  0  0  0  0  0  0  0  0  0  0  0
   46.7890   36.3200   42.9040 H   0  0  0  0  0  0  0  0  0  0  0  0
   44.4630   34.8320   41.6580 H   0  0  0  0  0  0  0  0  0  0  0  0
   44.6800   36.5320   42.0930 H   0  0  0  0  0  0  0  0  0  0  0  0
   43.5250   34.4010   43.6680 H   0  0  0  0  0  0  0  0  0  0  0  0
   43.3570   36.1570   43.8850 H   0  0  0  0  0  0  0  0  0  0  0  0
   45.6730   36.0750   44.9540 H   0  0  0  0  0  0  0  0  0  0  0  0
   44.4610   34.9800   45.8330 H   0  0  0  0  0  0  0  0  0  0  0  0
   45.1510   33.1570   44.1940 H   0  0  0  0  0  0  0  0  0  0  0  0
   47.8950   33.5960   43.2340 C   0  0  0  0  0  0  0  0  0  0  0  0
   48.4450   33.2690   44.1410 H   0  0  0  0  0  0  0  0  0  0  0  0
   48.5890   34.2280   42.6310 H   0  0  0  0  0  0  0  0  0  0  0  0
   47.4090   32.4170   42.4550 C   0  0  0  0  0  0  0  0  0  0  0  0
   47.5600   31.4570   42.9530 H   0  0  0  0  0  0  0  0  0  0  0  0
   46.3070   32.5140   42.2440 H   0  0  0  0  0  0  0  0  0  0  0  0
   49.8300   31.6860   39.6750 C   0  0  0  0  0  0  0  0  0  0  0  0
   49.2090   31.6880   40.9380 C   0  0  0  0  0  0  0  0  0  0  0  0
   48.0570   32.4200   41.1170 C   0  0  0  0  0  0  0  0  0  0  0  0
   47.5790   33.1020   40.0630 N   0  0  0  0  0  0  0  0  0  0  0  0
   48.1790   33.0930   38.8620 C   0  0  0  0  0  0  0  0  0  0  0  0
   49.3060   32.3880   38.6530 N   0  0  0  0  0  0  0  0  0  0  0  0
   50.7430   31.1010   39.5470 H   0  0  0  0  0  0  0  0  0  0  0  0
   49.6820   31.1030   41.7150 H   0  0  0  0  0  0  0  0  0  0  0  0
   47.6410   33.7020   38.1490 H   0  0  0  0  0  0  0  0  0  0  0  0
   46.4960   33.6210   45.7400 O   0  0  0  0  0  0  0  0  0  0  0  0
   45.5940   31.1930   45.1430 O   0  0  0  0  0  0  0  0  0  0  0  0
   46.1760   32.0580   46.2660 P   0  0  2  0  0  0  0  0  0  0  0  0
   44.9120   32.1930   47.4110 O   0  0  0  0  0  0  0  0  0  0  0  0
   45.0670   32.9820   47.9820 H   0  0  0  0  0  0  0  0  0  0  0  0
   47.4800   31.3600   47.0160 O   0  0  0  0  0  0  0  0  0  0  0  0
   47.7230   29.9980   47.1030 C   0  0  0  0  0  0  0  0  0  0  0  0
   46.7860   28.9740   47.5100 C   0  0  0  0  0  0  0  0  0  0  0  0
   45.7450   29.3630   47.7840 H   0  0  0  0  0  0  0  0  0  0  0  0
   47.8610   27.4240   47.3660 S   0  0  0  0  0  0  0  0  0  0  0  0
   49.3300   28.4820   46.7910 C   0  0  0  0  0  0  0  0  0  0  0  0
   50.2530   27.9280   46.5750 H   0  0  0  0  0  0  0  0  0  0  0  0
   48.9490   29.6000   46.7750 N   0  0  0  0  0  0  0  0  0  0  0  0
  1  6  1  0  0  0  0
  2  8  1  0  0  0  0
  2  1  1  0  0  0  0
  3  2  1  0  0  0  0
  3  4  1  0  0  0  0
  4 12  1  0  0  0  0
  4  5  1  0  0  0  0
  5 13  1  0  0  0  0
  5 14  1  0  0  0  0
  6 15  1  6  0  0  0
  6  5  1  0  0  0  0
  6 31  1  0  0  0  0
  7  2  1  0  0  0  0
  9  3  1  0  0  0  0
 10  3  1  0  0  0  0
 11  4  1  0  0  0  0
 16  1  1  0  0  0  0
 16 17  1  0  0  0  0
 18 16  1  0  0  0  0
 19 20  1  0  0  0  0
 19 16  1  0  0  0  0
 21 19  1  0  0  0  0
 22 23  1  0  0  0  0
 23 24  2  0  0  0  0
 23 29  1  0  0  0  0
 24 19  1  0  0  0  0
 25 24  1  0  0  0  0
 26 25  2  0  0  0  0
 27 26  1  0  0  0  0
 27 22  2  0  0  0  0
 28 22  1  0  0  0  0
 30 26  1  0  0  0  0
 31 33  1  0  0  0  0
 33 32  2  6  0  0  0
 33 36  1  0  0  0  0
 33 34  1  0  0  0  0
 34 35  1  0  0  0  0
 36 37  1  0  0  0  0
 37 38  2  0  0  0  0
 38 39  1  0  0  0  0
 40 38  1  0  0  0  0
 41 40  1  0  0  0  0
 42 41  1  0  0  0  0
 43 41  2  0  0  0  0
 43 37  1  0  0  0  0
M  END
>  <minimizedAffinity>
-4.23027086

>  <minimizedRMSD>
1.34246325

$$$$
