
 OpenBabel03252506373D

 42 45  0  0  1  0  0  0  0  0999 V2000
   44.5110   35.5250   45.1350 C   0  0  0  0  0  0  0  0  0  0  0  0
   45.1660   35.5150   43.8890 C   0  0  0  0  0  0  0  0  0  0  0  0
   46.0850   34.5510   43.6330 C   0  0  0  0  0  0  0  0  0  0  0  0
   46.3160   33.6450   44.6130 N   0  0  0  0  0  0  0  0  0  0  0  0
   45.6960   33.6610   45.7840 C   0  0  0  0  0  0  0  0  0  0  0  0
   44.7920   34.5940   46.0590 N   0  0  0  0  0  0  0  0  0  0  0  0
   46.0250   32.6500   46.7530 N   0  0  0  0  0  0  0  0  0  0  0  0
   45.2900   32.4010   47.9370 C   0  0  0  0  0  0  0  0  0  0  0  0
   46.3710   32.0720   48.9520 C   0  0  0  0  0  0  0  0  0  0  0  0
   47.6480   31.9520   48.1770 C   0  0  0  0  0  0  0  0  0  0  0  0
   47.1540   31.7410   46.7460 C   0  0  1  0  0  0  0  0  0  0  0  0
   43.7680   36.2980   45.3520 H   0  0  0  0  0  0  0  0  0  0  0  0
   46.5920   34.5260   42.6960 H   0  0  0  0  0  0  0  0  0  0  0  0
   44.5090   31.7220   48.0510 H   0  0  0  0  0  0  0  0  0  0  0  0
   44.8860   33.4050   48.2800 H   0  0  0  0  0  0  0  0  0  0  0  0
   46.5360   32.8800   49.6940 H   0  0  0  0  0  0  0  0  0  0  0  0
   46.1240   31.1630   49.5410 H   0  0  0  0  0  0  0  0  0  0  0  0
   48.2340   31.0650   48.4880 H   0  0  0  0  0  0  0  0  0  0  0  0
   48.2380   32.8980   48.1810 H   0  0  0  0  0  0  0  0  0  0  0  0
   47.9570   32.0640   46.0830 H   0  0  0  0  0  0  0  0  0  0  0  0
   44.8080   36.5460   42.9550 N   0  0  0  0  0  0  0  0  0  0  0  0
   43.8380   36.4460   42.5850 H   0  0  0  0  0  0  0  0  0  0  0  0
   45.4700   37.3160   42.6830 H   0  0  0  0  0  0  0  0  0  0  0  0
   46.6470   30.0510   46.5680 S   0  0  0  0  0  0  0  0  0  0  0  0
   45.6400   30.5430   43.4170 O   0  0  0  0  0  0  0  0  0  0  0  0
   45.0150   29.9940   44.3380 C   0  0  0  0  0  0  0  0  0  0  0  0
   45.1080   29.7560   45.8070 C   0  0  1  0  0  0  0  0  0  0  0  0
   44.5820   28.3510   45.9150 C   0  0  0  0  0  0  0  0  0  0  0  0
   43.2510   28.5670   45.1580 C   0  0  0  0  0  0  0  0  0  0  0  0
   43.7810   29.3380   44.0120 N   0  0  0  0  0  0  0  0  0  0  0  0
   44.2150   30.3500   46.1490 H   0  0  0  0  0  0  0  0  0  0  0  0
   44.3960   28.0560   46.9560 H   0  0  0  0  0  0  0  0  0  0  0  0
   45.1860   27.6350   45.3330 H   0  0  0  0  0  0  0  0  0  0  0  0
   42.8620   27.5920   44.8350 H   0  0  0  0  0  0  0  0  0  0  0  0
   42.5560   29.1610   45.7640 H   0  0  0  0  0  0  0  0  0  0  0  0
   42.9850   29.2910   42.7990 C   0  0  0  0  0  0  0  0  0  0  0  0
   43.2130   28.4050   41.7630 C   0  0  0  0  0  0  0  0  0  0  0  0
   44.0640   27.6550   41.8310 H   0  0  0  0  0  0  0  0  0  0  0  0
   41.8190   28.9390   40.5870 S   0  0  0  0  0  0  0  0  0  0  0  0
   41.2360   30.2660   41.7940 C   0  0  0  0  0  0  0  0  0  0  0  0
   40.3870   30.8900   41.5350 H   0  0  0  0  0  0  0  0  0  0  0  0
   42.0020   30.1860   42.7640 N   0  0  0  0  0  0  0  0  0  0  0  0
  1 12  1  0  0  0  0
  1  6  1  0  0  0  0
  2  1  2  0  0  0  0
  3  2  1  0  0  0  0
  3  4  2  0  0  0  0
  4  5  1  0  0  0  0
  5  6  2  0  0  0  0
  5  7  1  0  0  0  0
  7  8  1  0  0  0  0
  8 14  1  0  0  0  0
  8 15  1  0  0  0  0
  8  9  1  0  0  0  0
  9 17  1  0  0  0  0
  9 16  1  0  0  0  0
 10 19  1  0  0  0  0
 10 18  1  0  0  0  0
 10  9  1  0  0  0  0
 11 20  1  6  0  0  0
 11  7  1  0  0  0  0
 11 10  1  0  0  0  0
 13  3  1  0  0  0  0
 21  2  1  0  0  0  0
 22 21  1  0  0  0  0
 23 21  1  0  0  0  0
 24 11  1  0  0  0  0
 25 26  2  0  0  0  0
 26 27  1  0  0  0  0
 27 28  1  0  0  0  0
 27 31  1  1  0  0  0
 27 24  1  0  0  0  0
 28 32  1  0  0  0  0
 29 35  1  0  0  0  0
 29 28  1  0  0  0  0
 30 26  1  0  0  0  0
 30 29  1  0  0  0  0
 33 28  1  0  0  0  0
 34 29  1  0  0  0  0
 36 30  1  0  0  0  0
 37 38  1  0  0  0  0
 37 36  2  0  0  0  0
 39 37  1  0  0  0  0
 39 40  1  0  0  0  0
 40 42  2  0  0  0  0
 41 40  1  0  0  0  0
 42 36  1  0  0  0  0
M  END
>  <minimizedAffinity>
-5.25031376

>  <minimizedRMSD>
0.0961532816

$$$$
