
 OpenBabel03242521503D

 18 19  0  0  0  0  0  0  0  0999 V2000
   44.5060   36.0040   44.5400 C   0  0  0  0  0  0  0  0  0  0  0  0
   45.2190   35.8890   43.3440 C   0  0  0  0  0  0  0  0  0  0  0  0
   46.1270   34.8410   43.2110 C   0  0  0  0  0  0  0  0  0  0  0  0
   46.2670   33.9860   44.2580 N   0  0  0  0  0  0  0  0  0  0  0  0
   45.5700   34.1170   45.3960 C   0  0  0  0  0  0  0  0  0  0  0  0
   44.6890   35.1300   45.5350 N   0  0  0  0  0  0  0  0  0  0  0  0
   43.7910   36.8120   44.6730 H   0  0  0  0  0  0  0  0  0  0  0  0
   45.0660   36.6030   42.5410 H   0  0  0  0  0  0  0  0  0  0  0  0
   45.8550   33.0930   46.4260 C   0  0  0  0  0  0  0  0  0  0  0  0
   46.9750   32.0980   46.1980 C   0  0  0  0  0  0  0  0  0  0  0  0
   47.5570   32.1060   45.3390 H   0  0  0  0  0  0  0  0  0  0  0  0
   46.9230   31.1170   47.6550 S   0  0  0  0  0  0  0  0  0  0  0  0
   45.4600   32.1070   48.3920 C   0  0  0  0  0  0  0  0  0  0  0  0
   44.7940   32.1070   49.3610 H   0  0  0  0  0  0  0  0  0  0  0  0
   45.2570   32.8880   47.5860 N   0  0  0  0  0  0  0  0  0  0  0  0
   46.8640   34.6930   42.0220 N   0  0  0  0  0  0  0  0  0  0  0  0
   46.9960   35.5070   41.3820 H   0  0  0  0  0  0  0  0  0  0  0  0
   47.2920   33.7740   41.7510 H   0  0  0  0  0  0  0  0  0  0  0  0
  1  7  1  0  0  0  0
  1  6  1  0  0  0  0
  2  1  2  0  0  0  0
  3  2  1  0  0  0  0
  3  4  2  0  0  0  0
  4  5  1  0  0  0  0
  5  6  2  0  0  0  0
  5  9  1  0  0  0  0
  8  2  1  0  0  0  0
  9 15  1  0  0  0  0
 10  9  2  0  0  0  0
 10 12  1  0  0  0  0
 11 10  1  0  0  0  0
 12 13  1  0  0  0  0
 13 14  1  0  0  0  0
 15 13  2  0  0  0  0
 16  3  1  0  0  0  0
 17 16  1  0  0  0  0
 18 16  1  0  0  0  0
M  END
>  <minimizedAffinity>
-4.28196049

>  <minimizedRMSD>
0.519613862

$$$$
