
     RDKit          3D

 36 40  0  0  0  0  0  0  0  0999 V2000
   47.2681   31.3940   45.1520 C   0  0  0  0  0  0  0  0  0  0  0  0
   46.8709   32.7200   45.1348 C   0  0  0  0  0  0  0  0  0  0  0  0
   46.2371   33.3174   46.1966 C   0  0  0  0  0  0  0  0  0  0  0  0
   45.9666   32.5975   47.3490 C   0  0  0  0  0  0  0  0  0  0  0  0
   45.3782   32.8430   48.5544 N   0  0  0  0  0  0  0  0  0  0  0  0
   45.4109   31.7012   49.2953 C   0  0  0  0  0  0  0  0  0  0  0  0
   46.0213   30.7672   48.5315 N   0  0  0  0  0  0  0  0  0  0  0  0
   46.3712   31.2855   47.3388 C   0  0  0  0  0  0  0  0  0  0  0  0
   47.0012   30.6475   46.3152 C   0  0  0  0  0  0  0  0  0  0  0  0
   46.4881   35.1857   42.4306 C   0  0  0  0  0  0  0  0  0  0  0  0
   47.6536   35.0245   41.6991 C   0  0  0  0  0  0  0  0  0  0  0  0
   48.5754   34.0654   42.1353 C   0  0  0  0  0  0  0  0  0  0  0  0
   48.2806   33.3398   43.2556 N   0  0  0  0  0  0  0  0  0  0  0  0
   47.1314   33.5249   43.9452 C   0  0  0  0  0  0  0  0  0  0  0  0
   46.2383   34.4418   43.5374 N   0  0  0  0  0  0  0  0  0  0  0  0
   47.3931   29.2397   46.4037 C   0  0  0  0  0  0  0  0  0  0  0  0
   48.6738   28.7939   46.6084 C   0  0  0  0  0  0  0  0  0  0  0  0
   48.5333   27.3962   46.6153 C   0  0  0  0  0  0  0  0  0  0  0  0
   47.1936   27.0763   46.4172 C   0  0  0  0  0  0  0  0  0  0  0  0
   46.5844   28.2352   46.3005 O   0  0  0  0  0  0  0  0  0  0  0  0
   47.7670   30.9324   44.3101 H   0  0  0  0  0  0  0  0  0  0  0  0
   45.9313   34.3560   46.1708 H   0  0  0  0  0  0  0  0  0  0  0  0
   44.9812   33.7799   48.8153 H   0  0  0  0  0  0  0  0  0  0  0  0
   45.0093   31.6031   50.3082 H   0  0  0  0  0  0  0  0  0  0  0  0
   45.7570   35.9268   42.1086 H   0  0  0  0  0  0  0  0  0  0  0  0
   47.8305   35.6331   40.8153 H   0  0  0  0  0  0  0  0  0  0  0  0
   49.4975   33.9133   41.5865 H   0  0  0  0  0  0  0  0  0  0  0  0
   49.5583   29.3701   46.7319 H   0  0  0  0  0  0  0  0  0  0  0  0
   49.3384   26.6940   46.7525 H   0  0  0  0  0  0  0  0  0  0  0  0
   46.5814   25.7333   46.3510 C   0  0  0  0  0  0  0  0  0  0  0  0
   45.0944   25.6295   46.4712 C   0  0  0  0  0  0  0  0  0  0  0  0
   44.4418   26.4224   46.5985 H   0  0  0  0  0  0  0  0  0  0  0  0
   44.9469   23.7508   46.3169 S   0  0  0  0  0  0  0  0  0  0  0  0
   46.8182   23.5181   46.1332 C   0  0  0  0  0  0  0  0  0  0  0  0
   47.2545   22.5399   46.0083 H   0  0  0  0  0  0  0  0  0  0  0  0
   47.2962   24.6411   46.1916 N   0  0  0  0  0  0  0  0  0  0  0  0
  1  9  2  0
  2  1  1  0
  2  3  2  0
  3  4  1  0
  4  5  1  0
  5  6  1  0
  7  6  2  0
  8  4  2  0
  8  7  1  0
  9 16  1  0
  9  8  1  0
 10 15  2  0
 11 12  2  0
 11 10  1  0
 12 13  1  0
 13 14  2  0
 14  2  1  0
 15 14  1  0
 16 17  2  0
 17 18  1  0
 19 18  2  0
 20 16  1  0
 20 19  1  0
  1 21  1  0
  3 22  1  0
  5 23  1  0
  6 24  1  0
 10 25  1  0
 11 26  1  0
 12 27  1  0
 17 28  1  0
 18 29  1  0
 30 31  2  0
 31 32  1  0
 31 33  1  0
 33 34  1  0
 34 35  1  0
 34 36  2  0
 36 30  1  0
 19 30  1  0
M  ISO  8  21  14  22  14  23   9  24  14  25  14  26  14  27  14  28  14
M  ISO  3  29  14  32  15  35  16
M  END
>  <DihAtoms>  (1) 
17,18,29,30

>  <DihDeg>  (1) 
0.007776952015476513

$$$$
