
 OpenBabel03252502083D

 46 50  0  0  0  0  0  0  0  0999 V2000
   47.4510   32.0590   47.8450 C   0  0  0  0  0  0  0  0  0  0  0  0
   46.9120   30.7690   47.8710 C   0  0  0  0  0  0  0  0  0  0  0  0
   45.9280   30.4960   46.9690 C   0  0  0  0  0  0  0  0  0  0  0  0
   45.5230   31.4370   46.1120 N   0  0  0  0  0  0  0  0  0  0  0  0
   46.0160   32.6550   46.0670 C   0  0  0  0  0  0  0  0  0  0  0  0
   46.9920   32.9510   46.9560 N   0  0  0  0  0  0  0  0  0  0  0  0
   45.3370   29.2540   46.9530 N   0  0  0  0  0  0  0  0  0  0  0  0
   44.1360   28.9000   46.1510 C   0  0  0  0  0  0  0  0  0  0  0  0
   44.0280   27.4040   46.2040 C   0  0  0  0  0  0  0  0  0  0  0  0
   44.6940   27.0540   47.4810 C   0  0  0  0  0  0  0  0  0  0  0  0
   45.7390   28.0890   47.6900 C   0  0  0  0  0  0  0  0  0  0  0  0
   48.2400   32.3280   48.5490 H   0  0  0  0  0  0  0  0  0  0  0  0
   44.2240   29.3060   45.1240 H   0  0  0  0  0  0  0  0  0  0  0  0
   43.2670   29.3460   46.6940 H   0  0  0  0  0  0  0  0  0  0  0  0
   44.4280   26.9020   45.3170 H   0  0  0  0  0  0  0  0  0  0  0  0
   42.9510   27.1130   46.2980 H   0  0  0  0  0  0  0  0  0  0  0  0
   45.2280   26.0800   47.3300 H   0  0  0  0  0  0  0  0  0  0  0  0
   44.0080   26.8800   48.3250 H   0  0  0  0  0  0  0  0  0  0  0  0
   46.7250   27.7820   47.3170 H   0  0  0  0  0  0  0  0  0  0  0  0
   45.7270   28.2630   48.7920 H   0  0  0  0  0  0  0  0  0  0  0  0
   45.7360   33.8200   45.1830 C   0  0  0  0  0  0  0  0  0  0  0  0
   44.8560   34.7780   45.4790 N   0  0  0  0  0  0  0  0  0  0  0  0
   44.5850   35.8300   44.7180 C   0  0  0  0  0  0  0  0  0  0  0  0
   45.2300   35.9880   43.5380 N   0  0  0  0  0  0  0  0  0  0  0  0
   46.1410   35.0860   43.1280 C   0  0  0  0  0  0  0  0  0  0  0  0
   46.7910   35.2500   41.9280 C   0  0  0  0  0  0  0  0  0  0  0  0
   47.7110   34.3500   41.4970 C   0  0  0  0  0  0  0  0  0  0  0  0
   47.9840   33.2480   42.3060 C   0  0  0  0  0  0  0  0  0  0  0  0
   47.2910   33.1420   43.5110 C   0  0  0  0  0  0  0  0  0  0  0  0
   46.3720   34.0200   43.9630 C   0  0  0  0  0  0  0  0  0  0  0  0
   43.8620   36.5850   44.9990 H   0  0  0  0  0  0  0  0  0  0  0  0
   46.5270   36.1280   41.3550 H   0  0  0  0  0  0  0  0  0  0  0  0
   48.1860   34.5320   40.5500 H   0  0  0  0  0  0  0  0  0  0  0  0
   48.9860   32.2580   41.8470 C   0  0  0  0  0  0  0  0  0  0  0  0
   48.7300   31.4080   40.7870 C   0  0  0  0  0  0  0  0  0  0  0  0
   47.8270   31.3220   40.1550 H   0  0  0  0  0  0  0  0  0  0  0  0
   50.3130   30.4310   40.6920 S   0  0  0  0  0  0  0  0  0  0  0  0
   51.0410   31.3940   42.1540 C   0  0  0  0  0  0  0  0  0  0  0  0
   52.0250   31.2680   42.6090 H   0  0  0  0  0  0  0  0  0  0  0  0
   50.1790   32.1300   42.4240 N   0  0  0  0  0  0  0  0  0  0  0  0
   47.6890   31.9690   44.2210 N   0  0  0  0  0  0  0  0  0  0  0  0
   47.0430   31.2370   43.8060 H   0  0  0  0  0  0  0  0  0  0  0  0
   48.3980   31.7540   44.9510 H   0  0  0  0  0  0  0  0  0  0  0  0
   47.4390   29.8750   48.7660 N   0  0  0  0  0  0  0  0  0  0  0  0
   48.1530   29.1180   48.6810 H   0  0  0  0  0  0  0  0  0  0  0  0
   46.9280   30.1340   49.6620 H   0  0  0  0  0  0  0  0  0  0  0  0
  1  2  1  0  0  0  0
  1 12  1  0  0  0  0
  2 44  1  0  0  0  0
  3  2  2  0  0  0  0
  4  3  1  0  0  0  0
  5  4  2  0  0  0  0
  5  6  1  0  0  0  0
  6  1  2  0  0  0  0
  7  3  1  0  0  0  0
  7 11  1  0  0  0  0
  8  9  1  0  0  0  0
  8 14  1  0  0  0  0
  8  7  1  0  0  0  0
  9 16  1  0  0  0  0
  9 10  1  0  0  0  0
 10 11  1  0  0  0  0
 10 18  1  0  0  0  0
 11 20  1  0  0  0  0
 13  8  1  0  0  0  0
 15  9  1  0  0  0  0
 17 10  1  0  0  0  0
 19 11  1  0  0  0  0
 21 22  1  0  0  0  0
 21  5  1  0  0  0  0
 23 31  1  0  0  0  0
 23 22  2  0  0  0  0
 24 23  1  0  0  0  0
 25 24  2  0  0  0  0
 25 30  1  0  0  0  0
 26 25  1  0  0  0  0
 27 26  2  0  0  0  0
 27 28  1  0  0  0  0
 28 29  2  0  0  0  0
 29 30  1  0  0  0  0
 29 41  1  0  0  0  0
 30 21  2  0  0  0  0
 32 26  1  0  0  0  0
 33 27  1  0  0  0  0
 34 28  1  0  0  0  0
 34 40  1  0  0  0  0
 35 34  2  0  0  0  0
 36 35  1  0  0  0  0
 37 35  1  0  0  0  0
 37 38  1  0  0  0  0
 38 40  2  0  0  0  0
 38 39  1  0  0  0  0
 41 43  1  0  0  0  0
 42 41  1  0  0  0  0
 44 46  1  0  0  0  0
 45 44  1  0  0  0  0
M  END
>  <minimizedAffinity>
-6.76227093

>  <minimizedRMSD>
0.191301554

$$$$
