REMARK  Name = 
REMARK  5 active torsions:
REMARK  status: ('A' for Active; 'I' for Inactive)
REMARK    1  A    between atoms: C_1  and  C_10
REMARK    2  A    between atoms: C_3  and  N_4
REMARK    3  A    between atoms: C_10  and  C_11
REMARK    4  A    between atoms: C_11  and  C_14
REMARK    5  A    between atoms: C_16  and  C_37
REMARK                            x       y       z     vdW  Elec       q    Type
REMARK                         _______ _______ _______ _____ _____    ______ ____
ROOT
ATOM      1  C   UNL     1      48.963  34.763  41.517  0.00  0.00    +0.000 C 
ATOM      2  C   UNL     1      50.073  34.800  42.526  0.00  0.00    +0.000 C 
ATOM      3  C   UNL     1      49.352  33.544  42.209  0.00  0.00    +0.000 C 
ATOM      4  H   UNL     1      49.270  34.972  40.496  0.00  0.00    +0.000 HD
ATOM      5  H   UNL     1      51.107  34.973  42.183  0.00  0.00    +0.000 HD
ATOM      6  H   UNL     1      49.852  35.362  43.465  0.00  0.00    +0.000 HD
ATOM      7  H   UNL     1      48.829  33.099  43.053  0.00  0.00    +0.000 HD
ENDROOT
BRANCH   3   8
ATOM      8  N   UNL     1      50.129  32.628  41.371  0.00  0.00    +0.000 NA
ATOM      9  C   UNL     1      49.468  32.188  40.203  0.00  0.00    +0.000 C 
ATOM     10  C   UNL     1      50.458  31.263  39.513  0.00  0.00    +0.000 C 
ATOM     11  N   UNL     1      50.735  30.110  40.293  0.00  0.00    +0.000 NA
ATOM     12  C   UNL     1      50.633  30.328  41.724  0.00  0.00    +0.000 C 
ATOM     13  C   UNL     1      51.010  31.778  42.051  0.00  0.00    +0.000 C 
ATOM     14  H   UNL     1      49.325  33.067  39.520  0.00  0.00    +0.000 HD
ATOM     15  H   UNL     1      48.520  31.640  40.386  0.00  0.00    +0.000 HD
ATOM     16  H   UNL     1      50.076  31.007  38.512  0.00  0.00    +0.000 HD
ATOM     17  H   UNL     1      51.414  31.857  39.469  0.00  0.00    +0.000 HD
ATOM     18  H   UNL     1      51.610  29.645  40.018  0.00  0.00    +0.000 HD
ATOM     19  H   UNL     1      49.630  30.147  42.124  0.00  0.00    +0.000 HD
ATOM     20  H   UNL     1      51.358  29.691  42.243  0.00  0.00    +0.000 HD
ATOM     21  H   UNL     1      50.877  31.892  43.160  0.00  0.00    +0.000 HD
ATOM     22  H   UNL     1      52.083  31.935  41.824  0.00  0.00    +0.000 HD
ENDBRANCH   3   8
BRANCH   1  23
ATOM     23  C   UNL     1      47.666  35.394  41.896  0.00  0.00    +0.000 C 
ATOM     24  H   UNL     1      47.293  36.121  41.116  0.00  0.00    +0.000 HD
ATOM     25  H   UNL     1      47.777  36.008  42.807  0.00  0.00    +0.000 HD
BRANCH  23  26
ATOM     26  C   UNL     1      46.694  34.270  42.142  0.00  0.00    +0.000 C 
ATOM     27  H   UNL     1      45.892  34.373  41.361  0.00  0.00    +0.000 HD
ATOM     28  H   UNL     1      47.068  33.265  42.038  0.00  0.00    +0.000 HD
BRANCH  26  31
ATOM     29  C   UNL     1      44.504  35.892  44.729  0.00  0.00    +0.000 A 
ATOM     30  C   UNL     1      45.166  35.648  43.498  0.00  0.00    +0.000 A 
ATOM     31  C   UNL     1      45.969  34.553  43.421  0.00  0.00    +0.000 A 
ATOM     32  N   UNL     1      46.104  33.742  44.516  0.00  0.00    +0.000 NA
ATOM     33  C   UNL     1      45.488  33.978  45.645  0.00  0.00    +0.000 A 
ATOM     34  N   UNL     1      44.680  35.050  45.775  0.00  0.00    +0.000 NA
ATOM     35  H   UNL     1      43.864  36.762  44.793  0.00  0.00    +0.000 HD
ATOM     36  H   UNL     1      45.023  36.322  42.664  0.00  0.00    +0.000 HD
BRANCH  33  37
ATOM     37  C   UNL     1      45.658  33.082  46.805  0.00  0.00    +0.000 A 
ATOM     38  C   UNL     1      46.417  31.908  46.683  0.00  0.00    +0.000 A 
ATOM     39  H   UNL     1      46.927  31.548  45.795  0.00  0.00    +0.000 HD
ATOM     40  S   UNL     1      46.323  31.169  48.355  0.00  0.00    +0.000 S 
ATOM     41  C   UNL     1      45.240  32.616  48.954  0.00  0.00    +0.000 A 
ATOM     42  H   UNL     1      44.814  32.783  49.944  0.00  0.00    +0.000 HD
ATOM     43  N   UNL     1      45.158  33.255  48.008  0.00  0.00    +0.000 NA
ENDBRANCH  33  37
ENDBRANCH  26  31
ENDBRANCH  23  26
ENDBRANCH   1  23
TORSDOF 5
