
 OpenBabel03252504493D

 22 23  0  0  0  0  0  0  0  0999 V2000
   48.6670   28.4980   39.5390 C   0  0  0  0  0  0  0  0  0  0  0  0
   48.6760   28.5870   40.9300 C   0  0  0  0  0  0  0  0  0  0  0  0
   48.4660   29.8450   41.4920 C   0  0  0  0  0  0  0  0  0  0  0  0
   48.2640   30.9110   40.6570 N   0  0  0  0  0  0  0  0  0  0  0  0
   48.2620   30.7860   39.3150 C   0  0  0  0  0  0  0  0  0  0  0  0
   48.4650   29.5710   38.7480 N   0  0  0  0  0  0  0  0  0  0  0  0
   48.8270   27.5380   39.0460 H   0  0  0  0  0  0  0  0  0  0  0  0
   48.4640   29.9600   42.5630 H   0  0  0  0  0  0  0  0  0  0  0  0
   48.0440   31.9370   38.4430 C   0  0  0  0  0  0  0  0  0  0  0  0
   48.8020   33.1360   38.6200 C   0  0  0  0  0  0  0  0  0  0  0  0
   49.5430   33.3070   39.3440 H   0  0  0  0  0  0  0  0  0  0  0  0
   48.1130   34.2020   37.2740 S   0  0  0  0  0  0  0  0  0  0  0  0
   46.9250   32.8150   36.7250 C   0  0  0  0  0  0  0  0  0  0  0  0
   46.2120   32.8960   35.8930 H   0  0  0  0  0  0  0  0  0  0  0  0
   47.1720   31.9790   37.4570 N   0  0  0  0  0  0  0  0  0  0  0  0
   48.8960   27.3890   41.7020 C   0  0  0  0  0  0  0  0  0  0  0  0
   49.1900   26.5450   41.0760 H   0  0  0  0  0  0  0  0  0  0  0  0
   47.9380   27.1310   42.2380 H   0  0  0  0  0  0  0  0  0  0  0  0
   49.9290   27.6850   42.7740 C   0  0  0  0  0  0  0  0  0  0  0  0
   49.6520   27.1390   43.7210 H   0  0  0  0  0  0  0  0  0  0  0  0
   50.0520   28.7590   42.9140 H   0  0  0  0  0  0  0  0  0  0  0  0
   50.9060   27.2310   42.4350 H   0  0  0  0  0  0  0  0  0  0  0  0
  1  2  1  0  0  0  0
  2  3  2  0  0  0  0
  2 16  1  0  0  0  0
  3  8  1  0  0  0  0
  4  3  1  0  0  0  0
  5  4  2  0  0  0  0
  6  5  1  0  0  0  0
  6  1  2  0  0  0  0
  7  1  1  0  0  0  0
  9 10  2  0  0  0  0
  9  5  1  0  0  0  0
 10 11  1  0  0  0  0
 12 10  1  0  0  0  0
 13 12  1  0  0  0  0
 13 15  2  0  0  0  0
 14 13  1  0  0  0  0
 15  9  1  0  0  0  0
 16 18  1  0  0  0  0
 16 19  1  0  0  0  0
 17 16  1  0  0  0  0
 19 21  1  0  0  0  0
 19 20  1  0  0  0  0
 22 19  1  0  0  0  0
M  END
>  <minimizedAffinity>
-1.23850238

>  <minimizedRMSD>
9.18570423

$$$$
