
     RDKit          3D

 39 42  0  0  0  0  0  0  0  0999 V2000
   45.1331   33.9374   40.6993 C   0  0  0  0  0  0  0  0  0  0  0  0
   44.0806   33.6305   39.8730 C   0  0  0  0  0  0  0  0  0  0  0  0
   44.3806   33.1531   38.6291 C   0  0  0  0  0  0  0  0  0  0  0  0
   45.6613   32.9684   38.1730 C   0  0  0  0  0  0  0  0  0  0  0  0
   46.6864   33.2852   39.0248 C   0  0  0  0  0  0  0  0  0  0  0  0
   46.4482   33.7677   40.2834 C   0  0  0  0  0  0  0  0  0  0  0  0
   40.7962   35.2584   40.7969 C   0  0  0  0  0  0  0  0  0  0  0  0
   42.0968   35.0906   40.2764 C   0  0  0  0  0  0  0  0  0  0  0  0
   42.7454   33.8408   40.3954 C   0  0  0  0  0  0  0  0  0  0  0  0
   42.0327   32.8796   41.0225 N   0  0  0  0  0  0  0  0  0  0  0  0
   40.8014   33.0671   41.5059 C   0  0  0  0  0  0  0  0  0  0  0  0
   40.1895   34.2448   41.3941 N   0  0  0  0  0  0  0  0  0  0  0  0
   40.2029   36.5373   40.6443 N   0  0  0  0  0  0  0  0  0  0  0  0
   47.5965   34.0733   41.1088 C   0  0  0  0  0  0  0  0  0  0  0  0
   48.1373   35.3239   40.9462 C   0  0  0  0  0  0  0  0  0  0  0  0
   49.2454   35.7995   41.6535 C   0  0  0  0  0  0  0  0  0  0  0  0
   49.8216   34.9470   42.5697 C   0  0  0  0  0  0  0  0  0  0  0  0
   49.3032   33.6925   42.7533 C   0  0  0  0  0  0  0  0  0  0  0  0
   48.2044   33.2549   42.0350 C   0  0  0  0  0  0  0  0  0  0  0  0
   44.7199   34.8552   43.1094 N   0  0  0  0  0  0  0  0  0  0  0  0
   44.9017   34.4498   42.0312 C   0  0  0  0  0  0  0  0  0  0  0  0
   43.5556   32.9068   37.9675 H   0  0  0  0  0  0  0  0  0  0  0  0
   45.8708   32.5901   37.1871 H   0  0  0  0  0  0  0  0  0  0  0  0
   47.6989   33.1404   38.6666 H   0  0  0  0  0  0  0  0  0  0  0  0
   42.6287   35.8777   39.7857 H   0  0  0  0  0  0  0  0  0  0  0  0
   40.3911   32.1920   41.9714 H   0  0  0  0  0  0  0  0  0  0  0  0
   40.3857   37.1415   39.8112 H   0  0  0  0  0  0  0  0  0  0  0  0
   39.5725   36.8115   41.4384 H   0  0  0  0  0  0  0  0  0  0  0  0
   47.7267   36.0403   40.2389 H   0  0  0  0  0  0  0  0  0  0  0  0
   49.6417   36.7929   41.4960 H   0  0  0  0  0  0  0  0  0  0  0  0
   50.6816   35.2250   43.1641 H   0  0  0  0  0  0  0  0  0  0  0  0
   49.6784   32.9398   43.4485 H   0  0  0  0  0  0  0  0  0  0  0  0
   47.6046   31.9078   42.1949 C   0  0  0  0  0  0  0  0  0  0  0  0
   47.0328   31.4964   43.3248 C   0  0  0  0  0  0  0  0  0  0  0  0
   46.8547   31.9285   44.2996 H   0  0  0  0  0  0  0  0  0  0  0  0
   46.5077   29.8032   42.8951 S   0  0  0  0  0  0  0  0  0  0  0  0
   47.2145   29.9851   41.1340 C   0  0  0  0  0  0  0  0  0  0  0  0
   47.1602   29.1879   40.3960 H   0  0  0  0  0  0  0  0  0  0  0  0
   47.6057   31.0330   41.2159 N   0  0  0  0  0  0  0  0  0  0  0  0
  1 21  1  0
  2  9  1  0
  2  1  2  0
  3  2  1  0
  4  3  2  0
  4  5  1  0
  5  6  2  0
  6  1  1  0
  6 14  1  0
  7 12  2  0
  8  9  2  0
  8  7  1  0
  9 10  1  0
 10 11  2  0
 12 11  1  0
 13  7  1  0
 14 19  1  0
 15 14  2  0
 15 16  1  0
 16 17  2  0
 17 18  1  0
 19 18  2  0
 21 20  3  0
  3 22  1  0
  4 23  1  0
  5 24  1  0
  8 25  1  0
 11 26  1  0
 13 27  1  0
 13 28  1  0
 15 29  1  0
 16 30  1  0
 17 31  1  0
 18 32  1  0
 33 34  2  0
 34 35  1  0
 34 36  1  0
 36 37  1  0
 37 38  1  0
 37 39  2  0
 39 33  1  0
 19 33  1  0
M  ISO  8  22  14  23  14  24  14  25  14  26  14  29  14  30  14  31  14
M  ISO  3  32  14  35  15  38  16
M  END
>  <DihAtoms>  (1) 
13,18,32,33

>  <DihDeg>  (1) 
64.25127843875171

$$$$
