
 OpenBabel03242517243D

 41 44  0  0  1  0  0  0  0  0999 V2000
   38.8940   32.5150   40.6020 C   0  0  0  0  0  0  0  0  0  0  0  0
   38.0570   32.8710   39.5220 C   0  0  0  0  0  0  0  0  0  0  0  0
   36.9470   32.0620   39.2300 C   0  0  0  0  0  0  0  0  0  0  0  0
   36.7450   30.9770   40.0130 N   0  0  0  0  0  0  0  0  0  0  0  0
   37.5680   30.6570   41.0480 C   0  0  0  0  0  0  0  0  0  0  0  0
   38.6490   31.4330   41.3430 N   0  0  0  0  0  0  0  0  0  0  0  0
   37.2640   29.4810   41.8180 N   0  0  0  0  0  0  0  0  0  0  0  0
   37.9930   29.3530   43.0740 C   0  0  0  0  0  0  0  0  0  0  0  0
   37.9610   28.0100   43.6720 C   0  0  0  0  0  0  0  0  0  0  0  0
   36.6680   27.3200   43.3880 C   0  0  0  0  0  0  0  0  0  0  0  0
   36.5830   27.1830   41.8990 C   0  0  0  0  0  0  0  0  0  0  0  0
   36.2950   28.5290   41.3330 C   0  0  2  0  0  0  0  0  0  0  0  0
   39.7320   33.1840   40.7710 H   0  0  0  0  0  0  0  0  0  0  0  0
   38.2120   33.7390   38.8910 H   0  0  0  0  0  0  0  0  0  0  0  0
   36.2970   32.3190   38.4090 H   0  0  0  0  0  0  0  0  0  0  0  0
   37.6670   30.1730   43.7460 H   0  0  0  0  0  0  0  0  0  0  0  0
   39.0650   29.5970   42.8180 H   0  0  0  0  0  0  0  0  0  0  0  0
   38.7840   27.3450   43.3200 H   0  0  0  0  0  0  0  0  0  0  0  0
   38.0830   28.0780   44.7740 H   0  0  0  0  0  0  0  0  0  0  0  0
   36.5760   26.3340   43.8640 H   0  0  0  0  0  0  0  0  0  0  0  0
   35.8230   27.9560   43.7300 H   0  0  0  0  0  0  0  0  0  0  0  0
   37.6030   26.8900   41.5410 H   0  0  0  0  0  0  0  0  0  0  0  0
   35.8740   26.4100   41.5650 H   0  0  0  0  0  0  0  0  0  0  0  0
   35.3110   28.8780   41.7210 H   0  0  0  0  0  0  0  0  0  0  0  0
   33.8980   29.1520   39.9240 F   0  0  0  0  0  0  0  0  0  0  0  0
   34.9680   28.8090   39.1690 C   0  0  0  0  0  0  0  0  0  0  0  0
   36.1460   28.5060   39.8550 C   0  0  0  0  0  0  0  0  0  0  0  0
   37.2270   28.1590   39.0380 C   0  0  0  0  0  0  0  0  0  0  0  0
   37.1640   28.1110   37.6740 C   0  0  0  0  0  0  0  0  0  0  0  0
   35.9920   28.4160   37.0480 C   0  0  0  0  0  0  0  0  0  0  0  0
   34.8900   28.7660   37.8090 C   0  0  0  0  0  0  0  0  0  0  0  0
   38.1450   27.9210   39.5560 H   0  0  0  0  0  0  0  0  0  0  0  0
   38.0380   27.8350   37.1040 H   0  0  0  0  0  0  0  0  0  0  0  0
   35.9850   28.3650   35.9700 H   0  0  0  0  0  0  0  0  0  0  0  0
   33.7020   29.0660   37.0340 C   0  0  0  0  0  0  0  0  0  0  0  0
   33.7880   29.1090   35.5850 C   0  0  0  0  0  0  0  0  0  0  0  0
   34.6050   28.9580   34.7900 H   0  0  0  0  0  0  0  0  0  0  0  0
   32.1130   29.5100   35.0040 S   0  0  0  0  0  0  0  0  0  0  0  0
   31.5240   29.5670   36.8090 C   0  0  0  0  0  0  0  0  0  0  0  0
   30.5210   29.7620   37.5200 H   0  0  0  0  0  0  0  0  0  0  0  0
   32.4650   29.3310   37.3740 N   0  0  0  0  0  0  0  0  0  0  0  0
  1 13  1  0  0  0  0
  1  6  1  0  0  0  0
  2  1  2  0  0  0  0
  3  2  1  0  0  0  0
  3  4  2  0  0  0  0
  4  5  1  0  0  0  0
  5  6  2  0  0  0  0
  5  7  1  0  0  0  0
  7  8  1  0  0  0  0
  8  9  1  0  0  0  0
  8 16  1  0  0  0  0
  9 19  1  0  0  0  0
 10  9  1  0  0  0  0
 10 21  1  0  0  0  0
 10 20  1  0  0  0  0
 11 10  1  0  0  0  0
 12 24  1  1  0  0  0
 12  7  1  0  0  0  0
 12 11  1  0  0  0  0
 14  2  1  0  0  0  0
 15  3  1  0  0  0  0
 17  8  1  0  0  0  0
 18  9  1  0  0  0  0
 22 11  1  0  0  0  0
 23 11  1  0  0  0  0
 26 27  1  0  0  0  0
 26 25  1  0  0  0  0
 27 12  1  0  0  0  0
 28 32  1  0  0  0  0
 28 27  2  0  0  0  0
 29 28  1  0  0  0  0
 30 29  2  0  0  0  0
 30 31  1  0  0  0  0
 31 26  2  0  0  0  0
 33 29  1  0  0  0  0
 34 30  1  0  0  0  0
 35 41  1  0  0  0  0
 35 31  1  0  0  0  0
 36 35  2  0  0  0  0
 37 36  1  0  0  0  0
 38 36  1  0  0  0  0
 38 39  1  0  0  0  0
 39 41  2  0  0  0  0
 39 40  1  0  0  0  0
M  END
>  <minimizedAffinity>
-6.3396039

$$$$

 OpenBabel03242517243D

 41 44  0  0  1  0  0  0  0  0999 V2000
   42.3080   30.5220   43.1410 C   0  0  0  0  0  0  0  0  0  0  0  0
   42.3530   29.1110   43.1220 C   0  0  0  0  0  0  0  0  0  0  0  0
   41.3430   28.4110   42.4400 C   0  0  0  0  0  0  0  0  0  0  0  0
   40.3770   29.1420   41.8370 N   0  0  0  0  0  0  0  0  0  0  0  0
   40.3590   30.5020   41.8720 C   0  0  0  0  0  0  0  0  0  0  0  0
   41.3320   31.1950   42.5290 N   0  0  0  0  0  0  0  0  0  0  0  0
   39.2880   31.1840   41.1980 N   0  0  0  0  0  0  0  0  0  0  0  0
   39.4770   32.6180   41.0190 C   0  0  0  0  0  0  0  0  0  0  0  0
   38.2570   33.3630   40.6700 C   0  0  0  0  0  0  0  0  0  0  0  0
   37.3360   32.5350   39.8350 C   0  0  0  0  0  0  0  0  0  0  0  0
   36.9530   31.3560   40.6750 C   0  0  0  0  0  0  0  0  0  0  0  0
   38.1300   30.4480   40.7500 C   0  0  2  0  0  0  0  0  0  0  0  0
   43.1180   30.9970   43.6860 H   0  0  0  0  0  0  0  0  0  0  0  0
   43.1230   28.5180   43.6030 H   0  0  0  0  0  0  0  0  0  0  0  0
   41.3620   27.3330   42.4150 H   0  0  0  0  0  0  0  0  0  0  0  0
   40.3310   32.7690   40.3290 H   0  0  0  0  0  0  0  0  0  0  0  0
   39.8420   32.9940   42.0190 H   0  0  0  0  0  0  0  0  0  0  0  0
   37.6820   33.7180   41.5560 H   0  0  0  0  0  0  0  0  0  0  0  0
   38.5180   34.2770   40.0970 H   0  0  0  0  0  0  0  0  0  0  0  0
   36.4360   33.0700   39.5020 H   0  0  0  0  0  0  0  0  0  0  0  0
   37.8780   32.1650   38.9380 H   0  0  0  0  0  0  0  0  0  0  0  0
   36.7710   31.7400   41.7110 H   0  0  0  0  0  0  0  0  0  0  0  0
   36.0350   30.8510   40.3370 H   0  0  0  0  0  0  0  0  0  0  0  0
   38.3770   30.0960   39.7230 H   0  0  0  0  0  0  0  0  0  0  0  0
   38.0830   27.8120   39.6710 F   0  0  0  0  0  0  0  0  0  0  0  0
   37.8250   27.9250   40.9950 C   0  0  0  0  0  0  0  0  0  0  0  0
   37.8500   29.2140   41.5290 C   0  0  0  0  0  0  0  0  0  0  0  0
   37.5800   29.2860   42.9000 C   0  0  0  0  0  0  0  0  0  0  0  0
   37.3080   28.1970   43.6800 C   0  0  0  0  0  0  0  0  0  0  0  0
   37.2960   26.9570   43.1130 C   0  0  0  0  0  0  0  0  0  0  0  0
   37.5560   26.8280   41.7600 C   0  0  0  0  0  0  0  0  0  0  0  0
   37.5950   30.2790   43.3270 H   0  0  0  0  0  0  0  0  0  0  0  0
   37.1090   28.3250   44.7320 H   0  0  0  0  0  0  0  0  0  0  0  0
   37.0770   26.1250   43.7640 H   0  0  0  0  0  0  0  0  0  0  0  0
   37.5130   25.4640   41.2720 C   0  0  0  0  0  0  0  0  0  0  0  0
   38.6920   24.6250   41.3990 C   0  0  0  0  0  0  0  0  0  0  0  0
   39.7570   24.7350   41.8170 H   0  0  0  0  0  0  0  0  0  0  0  0
   38.2330   23.0200   40.6800 S   0  0  0  0  0  0  0  0  0  0  0  0
   36.5020   23.7080   40.3040 C   0  0  0  0  0  0  0  0  0  0  0  0
   35.4010   23.4060   39.8080 H   0  0  0  0  0  0  0  0  0  0  0  0
   36.5740   24.7580   40.6930 N   0  0  0  0  0  0  0  0  0  0  0  0
  1 13  1  0  0  0  0
  2  1  1  0  0  0  0
  2 14  1  0  0  0  0
  3  2  2  0  0  0  0
  4  5  2  0  0  0  0
  4  3  1  0  0  0  0
  5  6  1  0  0  0  0
  6  1  2  0  0  0  0
  7  5  1  0  0  0  0
  8  7  1  0  0  0  0
  8 17  1  0  0  0  0
  9  8  1  0  0  0  0
  9 18  1  0  0  0  0
 10  9  1  0  0  0  0
 10 11  1  0  0  0  0
 11 12  1  0  0  0  0
 11 22  1  0  0  0  0
 12 24  1  6  0  0  0
 12  7  1  0  0  0  0
 12 27  1  0  0  0  0
 15  3  1  0  0  0  0
 16  8  1  0  0  0  0
 19  9  1  0  0  0  0
 20 10  1  0  0  0  0
 21 10  1  0  0  0  0
 23 11  1  0  0  0  0
 25 26  1  0  0  0  0
 26 27  2  0  0  0  0
 26 31  1  0  0  0  0
 27 28  1  0  0  0  0
 28 32  1  0  0  0  0
 28 29  2  0  0  0  0
 29 33  1  0  0  0  0
 30 29  1  0  0  0  0
 30 34  1  0  0  0  0
 31 30  2  0  0  0  0
 35 36  2  0  0  0  0
 35 31  1  0  0  0  0
 36 37  1  0  0  0  0
 38 36  1  0  0  0  0
 39 38  1  0  0  0  0
 39 41  2  0  0  0  0
 40 39  1  0  0  0  0
 41 35  1  0  0  0  0
M  END
>  <minimizedAffinity>
-6.00186634

$$$$

 OpenBabel03242517243D

 41 44  0  0  1  0  0  0  0  0999 V2000
   34.9780   28.3300   38.1550 C   0  0  0  0  0  0  0  0  0  0  0  0
   35.7170   29.0510   37.1910 C   0  0  0  0  0  0  0  0  0  0  0  0
   36.9680   29.5770   37.5520 C   0  0  0  0  0  0  0  0  0  0  0  0
   37.3950   29.3560   38.8180 N   0  0  0  0  0  0  0  0  0  0  0  0
   36.6610   28.6570   39.7260 C   0  0  0  0  0  0  0  0  0  0  0  0
   35.4450   28.1410   39.3900 N   0  0  0  0  0  0  0  0  0  0  0  0
   37.2060   28.4800   41.0450 N   0  0  0  0  0  0  0  0  0  0  0  0
   36.5260   27.4900   41.8710 C   0  0  0  0  0  0  0  0  0  0  0  0
   36.8380   27.5650   43.3070 C   0  0  0  0  0  0  0  0  0  0  0  0
   38.2440   28.0130   43.5340 C   0  0  0  0  0  0  0  0  0  0  0  0
   38.3460   29.3880   42.9490 C   0  0  0  0  0  0  0  0  0  0  0  0
   38.3470   29.2540   41.4670 C   0  0  2  0  0  0  0  0  0  0  0  0
   34.0210   27.9530   37.8080 H   0  0  0  0  0  0  0  0  0  0  0  0
   35.3820   29.2320   36.1750 H   0  0  0  0  0  0  0  0  0  0  0  0
   37.5460   30.1290   36.8290 H   0  0  0  0  0  0  0  0  0  0  0  0
   36.6790   26.4930   41.4100 H   0  0  0  0  0  0  0  0  0  0  0  0
   35.4250   27.7030   41.7410 H   0  0  0  0  0  0  0  0  0  0  0  0
   36.1680   28.2530   43.8730 H   0  0  0  0  0  0  0  0  0  0  0  0
   36.7100   26.5680   43.7790 H   0  0  0  0  0  0  0  0  0  0  0  0
   38.5400   28.0290   44.5920 H   0  0  0  0  0  0  0  0  0  0  0  0
   38.9410   27.3450   42.9830 H   0  0  0  0  0  0  0  0  0  0  0  0
   37.4070   29.9310   43.2270 H   0  0  0  0  0  0  0  0  0  0  0  0
   39.1980   29.9700   43.3340 H   0  0  0  0  0  0  0  0  0  0  0  0
   39.2400   28.6630   41.1610 H   0  0  0  0  0  0  0  0  0  0  0  0
   40.6000   30.0420   39.9110 F   0  0  0  0  0  0  0  0  0  0  0  0
   39.5970   30.9440   40.0170 C   0  0  0  0  0  0  0  0  0  0  0  0
   38.4900   30.5610   40.7760 C   0  0  0  0  0  0  0  0  0  0  0  0
   37.4760   31.5220   40.8590 C   0  0  0  0  0  0  0  0  0  0  0  0
   37.5370   32.7470   40.2560 C   0  0  0  0  0  0  0  0  0  0  0  0
   38.6400   33.0760   39.5240 C   0  0  0  0  0  0  0  0  0  0  0  0
   39.6730   32.1630   39.4090 C   0  0  0  0  0  0  0  0  0  0  0  0
   36.6120   31.2390   41.4440 H   0  0  0  0  0  0  0  0  0  0  0  0
   36.7170   33.4400   40.3610 H   0  0  0  0  0  0  0  0  0  0  0  0
   38.6480   34.0520   39.0650 H   0  0  0  0  0  0  0  0  0  0  0  0
   40.7910   32.6240   38.6100 C   0  0  0  0  0  0  0  0  0  0  0  0
   41.3720   33.9270   38.8830 C   0  0  0  0  0  0  0  0  0  0  0  0
   41.1890   34.7870   39.6230 H   0  0  0  0  0  0  0  0  0  0  0  0
   42.7230   34.1240   37.6830 S   0  0  0  0  0  0  0  0  0  0  0  0
   42.3130   32.4110   36.9720 C   0  0  0  0  0  0  0  0  0  0  0  0
   42.6560   31.5900   36.1010 H   0  0  0  0  0  0  0  0  0  0  0  0
   41.4490   32.0890   37.6120 N   0  0  0  0  0  0  0  0  0  0  0  0
  1  6  1  0  0  0  0
  2  3  1  0  0  0  0
  2  1  2  0  0  0  0
  3  4  2  0  0  0  0
  4  5  1  0  0  0  0
  5  7  1  0  0  0  0
  6  5  2  0  0  0  0
  7 12  1  0  0  0  0
  7  8  1  0  0  0  0
  8  9  1  0  0  0  0
  9 10  1  0  0  0  0
  9 19  1  0  0  0  0
  9 18  1  0  0  0  0
 10 20  1  0  0  0  0
 11 22  1  0  0  0  0
 11 23  1  0  0  0  0
 11 10  1  0  0  0  0
 12 24  1  6  0  0  0
 12 11  1  0  0  0  0
 13  1  1  0  0  0  0
 14  2  1  0  0  0  0
 15  3  1  0  0  0  0
 16  8  1  0  0  0  0
 17  8  1  0  0  0  0
 21 10  1  0  0  0  0
 25 26  1  0  0  0  0
 26 27  1  0  0  0  0
 27 28  2  0  0  0  0
 27 12  1  0  0  0  0
 28 32  1  0  0  0  0
 29 33  1  0  0  0  0
 29 28  1  0  0  0  0
 30 29  2  0  0  0  0
 31 30  1  0  0  0  0
 31 26  2  0  0  0  0
 34 30  1  0  0  0  0
 35 36  2  0  0  0  0
 35 31  1  0  0  0  0
 36 37  1  0  0  0  0
 38 36  1  0  0  0  0
 39 41  2  0  0  0  0
 39 38  1  0  0  0  0
 40 39  1  0  0  0  0
 41 35  1  0  0  0  0
M  END
>  <minimizedAffinity>
-5.91707516

$$$$

 OpenBabel03242517243D

 41 44  0  0  1  0  0  0  0  0999 V2000
   36.5750   30.3160   38.1810 C   0  0  0  0  0  0  0  0  0  0  0  0
   35.4710   29.6990   38.8090 C   0  0  0  0  0  0  0  0  0  0  0  0
   35.5590   29.3820   40.1740 C   0  0  0  0  0  0  0  0  0  0  0  0
   36.7110   29.6940   40.8130 N   0  0  0  0  0  0  0  0  0  0  0  0
   37.7590   30.2890   40.1820 C   0  0  0  0  0  0  0  0  0  0  0  0
   37.6880   30.6020   38.8570 N   0  0  0  0  0  0  0  0  0  0  0  0
   38.9380   30.5770   40.9530 N   0  0  0  0  0  0  0  0  0  0  0  0
   39.8990   31.4670   40.3120 C   0  0  0  0  0  0  0  0  0  0  0  0
   41.2380   31.4710   40.9210 C   0  0  0  0  0  0  0  0  0  0  0  0
   41.1640   31.2520   42.3960 C   0  0  0  0  0  0  0  0  0  0  0  0
   40.5550   29.8980   42.5890 C   0  0  0  0  0  0  0  0  0  0  0  0
   39.1060   29.9990   42.2640 C   0  0  2  0  0  0  0  0  0  0  0  0
   36.4390   30.5320   37.1260 H   0  0  0  0  0  0  0  0  0  0  0  0
   34.5440   29.4470   38.3040 H   0  0  0  0  0  0  0  0  0  0  0  0
   34.7250   28.9110   40.6690 H   0  0  0  0  0  0  0  0  0  0  0  0
   39.4280   32.4650   40.2090 H   0  0  0  0  0  0  0  0  0  0  0  0
   39.9970   31.0820   39.2550 H   0  0  0  0  0  0  0  0  0  0  0  0
   41.9230   30.7000   40.4990 H   0  0  0  0  0  0  0  0  0  0  0  0
   41.7380   32.4460   40.7390 H   0  0  0  0  0  0  0  0  0  0  0  0
   42.1370   31.3050   42.9030 H   0  0  0  0  0  0  0  0  0  0  0  0
   40.4880   32.0090   42.8510 H   0  0  0  0  0  0  0  0  0  0  0  0
   41.0150   29.2220   41.8240 H   0  0  0  0  0  0  0  0  0  0  0  0
   40.7480   29.4640   43.5830 H   0  0  0  0  0  0  0  0  0  0  0  0
   38.6290   30.7150   42.9700 H   0  0  0  0  0  0  0  0  0  0  0  0
   39.5680   27.6170   40.7690 F   0  0  0  0  0  0  0  0  0  0  0  0
   38.6130   27.5520   41.7260 C   0  0  0  0  0  0  0  0  0  0  0  0
   38.3860   28.7150   42.4630 C   0  0  0  0  0  0  0  0  0  0  0  0
   37.3920   28.6030   43.4420 C   0  0  0  0  0  0  0  0  0  0  0  0
   36.6830   27.4600   43.6790 C   0  0  0  0  0  0  0  0  0  0  0  0
   36.9420   26.3470   42.9330 C   0  0  0  0  0  0  0  0  0  0  0  0
   37.9150   26.4020   41.9510 C   0  0  0  0  0  0  0  0  0  0  0  0
   37.2050   29.4970   44.0200 H   0  0  0  0  0  0  0  0  0  0  0  0
   35.9300   27.4440   44.4520 H   0  0  0  0  0  0  0  0  0  0  0  0
   36.3600   25.4660   43.1530 H   0  0  0  0  0  0  0  0  0  0  0  0
   38.0990   25.1620   41.2240 C   0  0  0  0  0  0  0  0  0  0  0  0
   37.1020   24.1120   41.3430 C   0  0  0  0  0  0  0  0  0  0  0  0
   36.1080   23.9600   41.9010 H   0  0  0  0  0  0  0  0  0  0  0  0
   37.6950   22.7500   40.2960 S   0  0  0  0  0  0  0  0  0  0  0  0
   39.2170   23.7920   39.8400 C   0  0  0  0  0  0  0  0  0  0  0  0
   40.2630   23.7770   39.1650 H   0  0  0  0  0  0  0  0  0  0  0  0
   39.0390   24.7370   40.4170 N   0  0  0  0  0  0  0  0  0  0  0  0
  1  2  2  0  0  0  0
  1  6  1  0  0  0  0
  2  3  1  0  0  0  0
  3 15  1  0  0  0  0
  3  4  2  0  0  0  0
  5  4  1  0  0  0  0
  5  7  1  0  0  0  0
  6  5  2  0  0  0  0
  7 12  1  0  0  0  0
  8  9  1  0  0  0  0
  8  7  1  0  0  0  0
  9 10  1  0  0  0  0
 10 11  1  0  0  0  0
 10 21  1  0  0  0  0
 10 20  1  0  0  0  0
 11 23  1  0  0  0  0
 12 27  1  0  0  0  0
 12 11  1  0  0  0  0
 12 24  1  1  0  0  0
 13  1  1  0  0  0  0
 14  2  1  0  0  0  0
 16  8  1  0  0  0  0
 17  8  1  0  0  0  0
 18  9  1  0  0  0  0
 19  9  1  0  0  0  0
 22 11  1  0  0  0  0
 25 26  1  0  0  0  0
 26 31  2  0  0  0  0
 26 27  1  0  0  0  0
 27 28  2  0  0  0  0
 28 29  1  0  0  0  0
 28 32  1  0  0  0  0
 29 33  1  0  0  0  0
 30 34  1  0  0  0  0
 30 29  2  0  0  0  0
 31 30  1  0  0  0  0
 35 36  2  0  0  0  0
 35 31  1  0  0  0  0
 36 37  1  0  0  0  0
 38 36  1  0  0  0  0
 39 38  1  0  0  0  0
 39 41  2  0  0  0  0
 40 39  1  0  0  0  0
 41 35  1  0  0  0  0
M  END
>  <minimizedAffinity>
-5.88033104

$$$$

 OpenBabel03242517243D

 41 44  0  0  1  0  0  0  0  0999 V2000
   38.0060   25.0840   37.7420 C   0  0  0  0  0  0  0  0  0  0  0  0
   37.8460   26.3540   37.1460 C   0  0  0  0  0  0  0  0  0  0  0  0
   38.1100   27.5000   37.9140 C   0  0  0  0  0  0  0  0  0  0  0  0
   38.5070   27.3130   39.1940 N   0  0  0  0  0  0  0  0  0  0  0  0
   38.6530   26.0770   39.7420 C   0  0  0  0  0  0  0  0  0  0  0  0
   38.4000   24.9560   39.0090 N   0  0  0  0  0  0  0  0  0  0  0  0
   39.0800   25.9880   41.1120 N   0  0  0  0  0  0  0  0  0  0  0  0
   39.4990   24.6620   41.5500 C   0  0  0  0  0  0  0  0  0  0  0  0
   39.5840   24.4920   43.0090 C   0  0  0  0  0  0  0  0  0  0  0  0
   40.0010   25.7590   43.6800 C   0  0  0  0  0  0  0  0  0  0  0  0
   38.9350   26.7660   43.3770 C   0  0  0  0  0  0  0  0  0  0  0  0
   39.0760   27.1630   41.9500 C   0  0  2  0  0  0  0  0  0  0  0  0
   37.7840   24.2440   37.0910 H   0  0  0  0  0  0  0  0  0  0  0  0
   37.5280   26.5120   36.1210 H   0  0  0  0  0  0  0  0  0  0  0  0
   37.9930   28.4780   37.4750 H   0  0  0  0  0  0  0  0  0  0  0  0
   40.4170   24.3890   40.9930 H   0  0  0  0  0  0  0  0  0  0  0  0
   38.7040   23.9600   41.1620 H   0  0  0  0  0  0  0  0  0  0  0  0
   38.6270   24.1620   43.4760 H   0  0  0  0  0  0  0  0  0  0  0  0
   40.3250   23.7050   43.2600 H   0  0  0  0  0  0  0  0  0  0  0  0
   40.1340   25.6640   44.7660 H   0  0  0  0  0  0  0  0  0  0  0  0
   40.9570   26.1160   43.2380 H   0  0  0  0  0  0  0  0  0  0  0  0
   37.9520   26.2380   43.4730 H   0  0  0  0  0  0  0  0  0  0  0  0
   38.9270   27.6230   44.0680 H   0  0  0  0  0  0  0  0  0  0  0  0
   40.0730   27.6370   41.8060 H   0  0  0  0  0  0  0  0  0  0  0  0
   39.7200   29.8520   41.2610 F   0  0  0  0  0  0  0  0  0  0  0  0
   38.4100   29.5160   41.2120 C   0  0  0  0  0  0  0  0  0  0  0  0
   38.0900   28.1990   41.5450 C   0  0  0  0  0  0  0  0  0  0  0  0
   36.7260   27.8930   41.4810 C   0  0  0  0  0  0  0  0  0  0  0  0
   35.7610   28.7920   41.1240 C   0  0  0  0  0  0  0  0  0  0  0  0
   36.1230   30.0680   40.8060 C   0  0  0  0  0  0  0  0  0  0  0  0
   37.4590   30.4250   40.8540 C   0  0  0  0  0  0  0  0  0  0  0  0
   36.4630   26.8760   41.7370 H   0  0  0  0  0  0  0  0  0  0  0  0
   34.7260   28.4880   41.0950 H   0  0  0  0  0  0  0  0  0  0  0  0
   35.3300   30.7460   40.5300 H   0  0  0  0  0  0  0  0  0  0  0  0
   37.7210   31.8050   40.4970 C   0  0  0  0  0  0  0  0  0  0  0  0
   38.8810   32.4770   41.0550 C   0  0  0  0  0  0  0  0  0  0  0  0
   39.7420   32.2090   41.7680 H   0  0  0  0  0  0  0  0  0  0  0  0
   38.8510   34.1610   40.3710 S   0  0  0  0  0  0  0  0  0  0  0  0
   37.2650   33.7230   39.4220 C   0  0  0  0  0  0  0  0  0  0  0  0
   36.4170   34.1890   38.6380 H   0  0  0  0  0  0  0  0  0  0  0  0
   37.0950   32.6550   39.7210 N   0  0  0  0  0  0  0  0  0  0  0  0
  1  6  1  0  0  0  0
  2  1  2  0  0  0  0
  2  3  1  0  0  0  0
  3  4  2  0  0  0  0
  4  5  1  0  0  0  0
  5  7  1  0  0  0  0
  6  5  2  0  0  0  0
  7  8  1  0  0  0  0
  7 12  1  0  0  0  0
  8  9  1  0  0  0  0
  9 19  1  0  0  0  0
  9 18  1  0  0  0  0
  9 10  1  0  0  0  0
 10 20  1  0  0  0  0
 11 22  1  0  0  0  0
 11 10  1  0  0  0  0
 11 23  1  0  0  0  0
 12 24  1  6  0  0  0
 12 11  1  0  0  0  0
 13  1  1  0  0  0  0
 14  2  1  0  0  0  0
 15  3  1  0  0  0  0
 16  8  1  0  0  0  0
 17  8  1  0  0  0  0
 21 10  1  0  0  0  0
 26 25  1  0  0  0  0
 26 27  1  0  0  0  0
 27 12  1  0  0  0  0
 28 27  2  0  0  0  0
 28 32  1  0  0  0  0
 29 28  1  0  0  0  0
 30 31  1  0  0  0  0
 30 29  2  0  0  0  0
 31 26  2  0  0  0  0
 33 29  1  0  0  0  0
 34 30  1  0  0  0  0
 35 31  1  0  0  0  0
 35 36  2  0  0  0  0
 36 37  1  0  0  0  0
 38 36  1  0  0  0  0
 39 41  2  0  0  0  0
 39 38  1  0  0  0  0
 40 39  1  0  0  0  0
 41 35  1  0  0  0  0
M  END
>  <minimizedAffinity>
-5.84965801

$$$$

 OpenBabel03242517243D

 41 44  0  0  1  0  0  0  0  0999 V2000
   36.9770   27.0220   37.4780 C   0  0  0  0  0  0  0  0  0  0  0  0
   37.8000   27.9170   36.7600 C   0  0  0  0  0  0  0  0  0  0  0  0
   38.5860   28.8360   37.4760 C   0  0  0  0  0  0  0  0  0  0  0  0
   38.5050   28.8040   38.8270 N   0  0  0  0  0  0  0  0  0  0  0  0
   37.7030   27.9300   39.4920 C   0  0  0  0  0  0  0  0  0  0  0  0
   36.9350   27.0330   38.8110 N   0  0  0  0  0  0  0  0  0  0  0  0
   37.6910   27.9800   40.9290 N   0  0  0  0  0  0  0  0  0  0  0  0
   37.0530   26.8450   41.5860 C   0  0  0  0  0  0  0  0  0  0  0  0
   36.7180   27.0600   43.0020 C   0  0  0  0  0  0  0  0  0  0  0  0
   37.7140   27.9530   43.6660 C   0  0  0  0  0  0  0  0  0  0  0  0
   37.6430   29.2670   42.9520 C   0  0  0  0  0  0  0  0  0  0  0  0
   38.2840   29.0980   41.6200 C   0  0  2  0  0  0  0  0  0  0  0  0
   36.3970   26.3410   36.8620 H   0  0  0  0  0  0  0  0  0  0  0  0
   37.8700   27.9480   35.6780 H   0  0  0  0  0  0  0  0  0  0  0  0
   39.2200   29.5260   36.9440 H   0  0  0  0  0  0  0  0  0  0  0  0
   37.6610   25.9420   41.3810 H   0  0  0  0  0  0  0  0  0  0  0  0
   36.0890   26.6810   41.0200 H   0  0  0  0  0  0  0  0  0  0  0  0
   35.7080   27.5060   43.1590 H   0  0  0  0  0  0  0  0  0  0  0  0
   36.7040   26.0920   43.5440 H   0  0  0  0  0  0  0  0  0  0  0  0
   37.5370   28.0960   44.7410 H   0  0  0  0  0  0  0  0  0  0  0  0
   38.7360   27.5350   43.5300 H   0  0  0  0  0  0  0  0  0  0  0  0
   36.5590   29.4780   42.7670 H   0  0  0  0  0  0  0  0  0  0  0  0
   38.0560   30.1080   43.5300 H   0  0  0  0  0  0  0  0  0  0  0  0
   39.3540   28.8250   41.7690 H   0  0  0  0  0  0  0  0  0  0  0  0
   40.6340   30.3250   40.5760 F   0  0  0  0  0  0  0  0  0  0  0  0
   39.4650   30.9580   40.3280 C   0  0  0  0  0  0  0  0  0  0  0  0
   38.3100   30.3590   40.8340 C   0  0  0  0  0  0  0  0  0  0  0  0
   37.1230   31.0450   40.5540 C   0  0  0  0  0  0  0  0  0  0  0  0
   37.0680   32.2110   39.8440 C   0  0  0  0  0  0  0  0  0  0  0  0
   38.2230   32.7580   39.3680 C   0  0  0  0  0  0  0  0  0  0  0  0
   39.4260   32.1210   39.6170 C   0  0  0  0  0  0  0  0  0  0  0  0
   36.2210   30.5920   40.9410 H   0  0  0  0  0  0  0  0  0  0  0  0
   36.1160   32.6870   39.6640 H   0  0  0  0  0  0  0  0  0  0  0  0
   38.1340   33.6790   38.8130 H   0  0  0  0  0  0  0  0  0  0  0  0
   40.5830   32.7970   39.0650 C   0  0  0  0  0  0  0  0  0  0  0  0
   40.9310   32.5890   37.6700 C   0  0  0  0  0  0  0  0  0  0  0  0
   40.5150   31.9840   36.7840 H   0  0  0  0  0  0  0  0  0  0  0  0
   42.4160   33.5950   37.3770 S   0  0  0  0  0  0  0  0  0  0  0  0
   42.3630   34.1610   39.1900 C   0  0  0  0  0  0  0  0  0  0  0  0
   42.9490   34.8760   40.0240 H   0  0  0  0  0  0  0  0  0  0  0  0
   41.4600   33.6210   39.5810 N   0  0  0  0  0  0  0  0  0  0  0  0
  1  6  1  0  0  0  0
  2  3  1  0  0  0  0
  2  1  2  0  0  0  0
  3  4  2  0  0  0  0
  4  5  1  0  0  0  0
  5  7  1  0  0  0  0
  6  5  2  0  0  0  0
  7  8  1  0  0  0  0
  7 12  1  0  0  0  0
  8  9  1  0  0  0  0
  9 18  1  0  0  0  0
  9 19  1  0  0  0  0
  9 10  1  0  0  0  0
 10 20  1  0  0  0  0
 11 23  1  0  0  0  0
 11 10  1  0  0  0  0
 12 24  1  1  0  0  0
 12 11  1  0  0  0  0
 13  1  1  0  0  0  0
 14  2  1  0  0  0  0
 15  3  1  0  0  0  0
 16  8  1  0  0  0  0
 17  8  1  0  0  0  0
 21 10  1  0  0  0  0
 22 11  1  0  0  0  0
 26 25  1  0  0  0  0
 26 27  1  0  0  0  0
 27 12  1  0  0  0  0
 28 27  2  0  0  0  0
 28 32  1  0  0  0  0
 29 28  1  0  0  0  0
 30 31  1  0  0  0  0
 30 29  2  0  0  0  0
 31 26  2  0  0  0  0
 33 29  1  0  0  0  0
 34 30  1  0  0  0  0
 35 41  1  0  0  0  0
 35 31  1  0  0  0  0
 36 35  2  0  0  0  0
 37 36  1  0  0  0  0
 38 36  1  0  0  0  0
 38 39  1  0  0  0  0
 39 41  2  0  0  0  0
 39 40  1  0  0  0  0
M  END
>  <minimizedAffinity>
-5.77193737

$$$$

 OpenBabel03242517243D

 41 44  0  0  1  0  0  0  0  0999 V2000
   35.2870   28.7850   37.9700 C   0  0  0  0  0  0  0  0  0  0  0  0
   36.2100   29.7780   38.3660 C   0  0  0  0  0  0  0  0  0  0  0  0
   37.2890   29.4110   39.1880 C   0  0  0  0  0  0  0  0  0  0  0  0
   37.3780   28.1110   39.5520 N   0  0  0  0  0  0  0  0  0  0  0  0
   36.4750   27.1750   39.1550 C   0  0  0  0  0  0  0  0  0  0  0  0
   35.4220   27.5170   38.3580 N   0  0  0  0  0  0  0  0  0  0  0  0
   36.6620   25.8200   39.5990 N   0  0  0  0  0  0  0  0  0  0  0  0
   35.8490   24.8220   38.9150 C   0  0  0  0  0  0  0  0  0  0  0  0
   35.7660   23.5210   39.5950 C   0  0  0  0  0  0  0  0  0  0  0  0
   37.0330   23.2060   40.3190 C   0  0  0  0  0  0  0  0  0  0  0  0
   37.2040   24.2760   41.3520 C   0  0  0  0  0  0  0  0  0  0  0  0
   37.6040   25.5260   40.6520 C   0  0  2  0  0  0  0  0  0  0  0  0
   34.4790   29.1390   37.3370 H   0  0  0  0  0  0  0  0  0  0  0  0
   36.1440   30.8220   38.0780 H   0  0  0  0  0  0  0  0  0  0  0  0
   38.0020   30.1560   39.5000 H   0  0  0  0  0  0  0  0  0  0  0  0
   36.1770   24.7770   37.8570 H   0  0  0  0  0  0  0  0  0  0  0  0
   34.8100   25.2640   38.8780 H   0  0  0  0  0  0  0  0  0  0  0  0
   34.9310   23.4540   40.3310 H   0  0  0  0  0  0  0  0  0  0  0  0
   35.5780   22.7140   38.8570 H   0  0  0  0  0  0  0  0  0  0  0  0
   37.0390   22.2150   40.7960 H   0  0  0  0  0  0  0  0  0  0  0  0
   37.8890   23.2610   39.6120 H   0  0  0  0  0  0  0  0  0  0  0  0
   36.1940   24.4610   41.7990 H   0  0  0  0  0  0  0  0  0  0  0  0
   37.8880   23.9980   42.1690 H   0  0  0  0  0  0  0  0  0  0  0  0
   38.5790   25.3560   40.1420 H   0  0  0  0  0  0  0  0  0  0  0  0
   40.0380   26.9930   40.8500 F   0  0  0  0  0  0  0  0  0  0  0  0
   39.0410   27.3670   41.6840 C   0  0  0  0  0  0  0  0  0  0  0  0
   37.8450   26.6540   41.5890 C   0  0  0  0  0  0  0  0  0  0  0  0
   36.8400   27.0740   42.4680 C   0  0  0  0  0  0  0  0  0  0  0  0
   36.9900   28.0970   43.3600 C   0  0  0  0  0  0  0  0  0  0  0  0
   38.1770   28.7660   43.4170 C   0  0  0  0  0  0  0  0  0  0  0  0
   39.2060   28.3910   42.5700 C   0  0  0  0  0  0  0  0  0  0  0  0
   35.9090   26.5300   42.4050 H   0  0  0  0  0  0  0  0  0  0  0  0
   36.1720   28.3690   44.0090 H   0  0  0  0  0  0  0  0  0  0  0  0
   38.2530   29.5670   44.1350 H   0  0  0  0  0  0  0  0  0  0  0  0
   40.4180   29.1720   42.7220 C   0  0  0  0  0  0  0  0  0  0  0  0
   40.3560   30.6170   42.5880 C   0  0  0  0  0  0  0  0  0  0  0  0
   39.5460   31.4040   42.3750 H   0  0  0  0  0  0  0  0  0  0  0  0
   42.0550   31.2080   42.8450 S   0  0  0  0  0  0  0  0  0  0  0  0
   42.6190   29.4110   43.0990 C   0  0  0  0  0  0  0  0  0  0  0  0
   43.6180   28.7090   43.3400 H   0  0  0  0  0  0  0  0  0  0  0  0
   41.6600   28.8420   42.9740 N   0  0  0  0  0  0  0  0  0  0  0  0
  1  6  2  0  0  0  0
  1  2  1  0  0  0  0
  2  3  2  0  0  0  0
  3 15  1  0  0  0  0
  3  4  1  0  0  0  0
  5  4  2  0  0  0  0
  5  7  1  0  0  0  0
  6  5  1  0  0  0  0
  7 12  1  0  0  0  0
  8  9  1  0  0  0  0
  8  7  1  0  0  0  0
  9 10  1  0  0  0  0
  9 18  1  0  0  0  0
 10 20  1  0  0  0  0
 10 11  1  0  0  0  0
 11 22  1  0  0  0  0
 11 23  1  0  0  0  0
 12 24  1  6  0  0  0
 12 11  1  0  0  0  0
 12 27  1  0  0  0  0
 13  1  1  0  0  0  0
 14  2  1  0  0  0  0
 16  8  1  0  0  0  0
 17  8  1  0  0  0  0
 19  9  1  0  0  0  0
 21 10  1  0  0  0  0
 25 26  1  0  0  0  0
 26 31  1  0  0  0  0
 27 26  2  0  0  0  0
 27 28  1  0  0  0  0
 28 29  2  0  0  0  0
 29 30  1  0  0  0  0
 29 33  1  0  0  0  0
 30 34  1  0  0  0  0
 31 35  1  0  0  0  0
 31 30  2  0  0  0  0
 32 28  1  0  0  0  0
 35 41  1  0  0  0  0
 36 35  2  0  0  0  0
 36 38  1  0  0  0  0
 37 36  1  0  0  0  0
 38 39  1  0  0  0  0
 39 40  1  0  0  0  0
 41 39  2  0  0  0  0
M  END
>  <minimizedAffinity>
-5.70039988

$$$$

 OpenBabel03242517243D

 41 44  0  0  1  0  0  0  0  0999 V2000
   39.1970   27.5770   42.2160 C   0  0  0  0  0  0  0  0  0  0  0  0
   39.5110   28.8000   42.8490 C   0  0  0  0  0  0  0  0  0  0  0  0
   38.8540   29.9680   42.4290 C   0  0  0  0  0  0  0  0  0  0  0  0
   37.9480   29.8480   41.4310 N   0  0  0  0  0  0  0  0  0  0  0  0
   37.6650   28.6560   40.8390 C   0  0  0  0  0  0  0  0  0  0  0  0
   38.2940   27.5140   41.2360 N   0  0  0  0  0  0  0  0  0  0  0  0
   36.6850   28.6370   39.7870 N   0  0  0  0  0  0  0  0  0  0  0  0
   36.2120   27.3140   39.3990 C   0  0  0  0  0  0  0  0  0  0  0  0
   35.5060   27.2640   38.1100 C   0  0  0  0  0  0  0  0  0  0  0  0
   34.7450   28.5240   37.8590 C   0  0  0  0  0  0  0  0  0  0  0  0
   35.7600   29.6240   37.8060 C   0  0  0  0  0  0  0  0  0  0  0  0
   36.2350   29.8730   39.1940 C   0  0  2  0  0  0  0  0  0  0  0  0
   39.7420   26.7160   42.5900 H   0  0  0  0  0  0  0  0  0  0  0  0
   40.2360   28.9040   43.6490 H   0  0  0  0  0  0  0  0  0  0  0  0
   39.0820   30.9100   42.9010 H   0  0  0  0  0  0  0  0  0  0  0  0
   35.6560   26.8820   40.2550 H   0  0  0  0  0  0  0  0  0  0  0  0
   37.1440   26.6830   39.3110 H   0  0  0  0  0  0  0  0  0  0  0  0
   36.1790   27.0960   37.2380 H   0  0  0  0  0  0  0  0  0  0  0  0
   34.7870   26.4180   38.0990 H   0  0  0  0  0  0  0  0  0  0  0  0
   34.1540   28.5110   36.9330 H   0  0  0  0  0  0  0  0  0  0  0  0
   34.0590   28.7220   38.7110 H   0  0  0  0  0  0  0  0  0  0  0  0
   36.6350   29.2320   37.2280 H   0  0  0  0  0  0  0  0  0  0  0  0
   35.4020   30.5340   37.2990 H   0  0  0  0  0  0  0  0  0  0  0  0
   35.3720   30.2070   39.8140 H   0  0  0  0  0  0  0  0  0  0  0  0
   38.7910   29.8750   37.9350 F   0  0  0  0  0  0  0  0  0  0  0  0
   38.4740   30.9770   38.6540 C   0  0  0  0  0  0  0  0  0  0  0  0
   37.2210   30.9820   39.2700 C   0  0  0  0  0  0  0  0  0  0  0  0
   36.9330   32.1400   40.0010 C   0  0  0  0  0  0  0  0  0  0  0  0
   37.7900   33.1970   40.1210 C   0  0  0  0  0  0  0  0  0  0  0  0
   39.0040   33.1460   39.5000 C   0  0  0  0  0  0  0  0  0  0  0  0
   39.3410   32.0240   38.7640 C   0  0  0  0  0  0  0  0  0  0  0  0
   35.9660   32.1570   40.4840 H   0  0  0  0  0  0  0  0  0  0  0  0
   37.5030   34.0600   40.7010 H   0  0  0  0  0  0  0  0  0  0  0  0
   39.6500   34.0010   39.6210 H   0  0  0  0  0  0  0  0  0  0  0  0
   40.6540   32.0840   38.1530 C   0  0  0  0  0  0  0  0  0  0  0  0
   41.5110   33.2260   38.4170 C   0  0  0  0  0  0  0  0  0  0  0  0
   41.4480   34.1960   39.0320 H   0  0  0  0  0  0  0  0  0  0  0  0
   43.0390   32.9220   37.4810 S   0  0  0  0  0  0  0  0  0  0  0  0
   42.3050   31.2840   36.8570 C   0  0  0  0  0  0  0  0  0  0  0  0
   42.5510   30.2960   36.1420 H   0  0  0  0  0  0  0  0  0  0  0  0
   41.2960   31.2740   37.3480 N   0  0  0  0  0  0  0  0  0  0  0  0
  1 13  1  0  0  0  0
  1  2  1  0  0  0  0
  2 14  1  0  0  0  0
  3  2  2  0  0  0  0
  3 15  1  0  0  0  0
  4  3  1  0  0  0  0
  5  6  1  0  0  0  0
  5  4  2  0  0  0  0
  6  1  2  0  0  0  0
  7  5  1  0  0  0  0
  8  7  1  0  0  0  0
  8 16  1  0  0  0  0
  9  8  1  0  0  0  0
 10  9  1  0  0  0  0
 10 21  1  0  0  0  0
 11 10  1  0  0  0  0
 11 12  1  0  0  0  0
 12 27  1  0  0  0  0
 12  7  1  0  0  0  0
 12 24  1  1  0  0  0
 17  8  1  0  0  0  0
 18  9  1  0  0  0  0
 19  9  1  0  0  0  0
 20 10  1  0  0  0  0
 22 11  1  0  0  0  0
 23 11  1  0  0  0  0
 25 26  1  0  0  0  0
 26 31  2  0  0  0  0
 26 27  1  0  0  0  0
 27 28  2  0  0  0  0
 28 29  1  0  0  0  0
 28 32  1  0  0  0  0
 29 33  1  0  0  0  0
 30 34  1  0  0  0  0
 30 29  2  0  0  0  0
 31 30  1  0  0  0  0
 35 36  2  0  0  0  0
 35 31  1  0  0  0  0
 36 37  1  0  0  0  0
 38 36  1  0  0  0  0
 39 41  2  0  0  0  0
 39 38  1  0  0  0  0
 40 39  1  0  0  0  0
 41 35  1  0  0  0  0
M  END
>  <minimizedAffinity>
-5.69439459

$$$$

 OpenBabel03242517243D

 41 44  0  0  1  0  0  0  0  0999 V2000
   35.2650   26.6640   36.5380 C   0  0  0  0  0  0  0  0  0  0  0  0
   35.7700   27.9200   36.1360 C   0  0  0  0  0  0  0  0  0  0  0  0
   36.6620   28.5940   36.9870 C   0  0  0  0  0  0  0  0  0  0  0  0
   36.9860   27.9890   38.1540 N   0  0  0  0  0  0  0  0  0  0  0  0
   36.4840   26.7780   38.5150 C   0  0  0  0  0  0  0  0  0  0  0  0
   35.6170   26.1120   37.6990 N   0  0  0  0  0  0  0  0  0  0  0  0
   36.8930   26.2230   39.7770 N   0  0  0  0  0  0  0  0  0  0  0  0
   36.5630   24.8170   39.9750 C   0  0  0  0  0  0  0  0  0  0  0  0
   36.6460   24.3540   41.3690 C   0  0  0  0  0  0  0  0  0  0  0  0
   37.7250   25.0670   42.1140 C   0  0  0  0  0  0  0  0  0  0  0  0
   37.3490   26.5170   42.1130 C   0  0  0  0  0  0  0  0  0  0  0  0
   37.5790   27.0470   40.7420 C   0  0  2  0  0  0  0  0  0  0  0  0
   34.5810   26.2000   35.8330 H   0  0  0  0  0  0  0  0  0  0  0  0
   35.5150   28.4110   35.2030 H   0  0  0  0  0  0  0  0  0  0  0  0
   37.0580   29.5530   36.6960 H   0  0  0  0  0  0  0  0  0  0  0  0
   37.1490   24.2200   39.2470 H   0  0  0  0  0  0  0  0  0  0  0  0
   35.4910   24.7150   39.6360 H   0  0  0  0  0  0  0  0  0  0  0  0
   35.6980   24.4840   41.9400 H   0  0  0  0  0  0  0  0  0  0  0  0
   36.8650   23.2660   41.3980 H   0  0  0  0  0  0  0  0  0  0  0  0
   37.8630   24.7130   43.1450 H   0  0  0  0  0  0  0  0  0  0  0  0
   38.6900   24.9560   41.5720 H   0  0  0  0  0  0  0  0  0  0  0  0
   36.2460   26.5670   42.3010 H   0  0  0  0  0  0  0  0  0  0  0  0
   37.8510   27.1050   42.8970 H   0  0  0  0  0  0  0  0  0  0  0  0
   38.6620   26.9540   40.4980 H   0  0  0  0  0  0  0  0  0  0  0  0
   39.4940   29.0730   40.1550 F   0  0  0  0  0  0  0  0  0  0  0  0
   38.2200   29.4870   40.3480 C   0  0  0  0  0  0  0  0  0  0  0  0
   37.2780   28.4980   40.6320 C   0  0  0  0  0  0  0  0  0  0  0  0
   35.9740   28.9680   40.8230 C   0  0  0  0  0  0  0  0  0  0  0  0
   35.6210   30.2850   40.7440 C   0  0  0  0  0  0  0  0  0  0  0  0
   36.5770   31.2160   40.4630 C   0  0  0  0  0  0  0  0  0  0  0  0
   37.8840   30.8060   40.2650 C   0  0  0  0  0  0  0  0  0  0  0  0
   35.2330   28.2120   41.0450 H   0  0  0  0  0  0  0  0  0  0  0  0
   34.5950   30.5790   40.9020 H   0  0  0  0  0  0  0  0  0  0  0  0
   36.2570   32.2450   40.4100 H   0  0  0  0  0  0  0  0  0  0  0  0
   38.8100   31.8830   39.9750 C   0  0  0  0  0  0  0  0  0  0  0  0
   38.8140   33.0660   40.8180 C   0  0  0  0  0  0  0  0  0  0  0  0
   38.2400   33.4370   41.7430 H   0  0  0  0  0  0  0  0  0  0  0  0
   40.0950   34.1570   40.1310 S   0  0  0  0  0  0  0  0  0  0  0  0
   40.4500   32.8580   38.7910 C   0  0  0  0  0  0  0  0  0  0  0  0
   41.1680   32.6250   37.8010 H   0  0  0  0  0  0  0  0  0  0  0  0
   39.7190   32.0460   39.0470 N   0  0  0  0  0  0  0  0  0  0  0  0
  1  6  1  0  0  0  0
  2  1  2  0  0  0  0
  2  3  1  0  0  0  0
  3  4  2  0  0  0  0
  4  5  1  0  0  0  0
  5  7  1  0  0  0  0
  6  5  2  0  0  0  0
  7  8  1  0  0  0  0
  7 12  1  0  0  0  0
  8  9  1  0  0  0  0
  9 19  1  0  0  0  0
  9 18  1  0  0  0  0
  9 10  1  0  0  0  0
 10 20  1  0  0  0  0
 11 10  1  0  0  0  0
 11 22  1  0  0  0  0
 11 23  1  0  0  0  0
 12 24  1  6  0  0  0
 12 11  1  0  0  0  0
 13  1  1  0  0  0  0
 14  2  1  0  0  0  0
 15  3  1  0  0  0  0
 16  8  1  0  0  0  0
 17  8  1  0  0  0  0
 21 10  1  0  0  0  0
 25 26  1  0  0  0  0
 26 27  1  0  0  0  0
 27 12  1  0  0  0  0
 27 28  2  0  0  0  0
 28 32  1  0  0  0  0
 29 28  1  0  0  0  0
 29 33  1  0  0  0  0
 30 29  2  0  0  0  0
 31 26  2  0  0  0  0
 31 30  1  0  0  0  0
 34 30  1  0  0  0  0
 35 31  1  0  0  0  0
 35 36  2  0  0  0  0
 36 37  1  0  0  0  0
 38 36  1  0  0  0  0
 39 41  2  0  0  0  0
 39 38  1  0  0  0  0
 40 39  1  0  0  0  0
 41 35  1  0  0  0  0
M  END
>  <minimizedAffinity>
-5.52904987

$$$$
