
 OpenBabel03252508263D

 39 43  0  0  1  0  0  0  0  0999 V2000
   46.5220   32.3350   45.6610 C   0  0  1  0  0  0  0  0  0  0  0  0
   46.9010   32.7100   47.0310 C   0  0  0  0  0  0  0  0  0  0  0  0
   45.5420   31.9900   46.6740 C   0  0  2  0  0  0  0  0  0  0  0  0
   47.3720   31.6540   45.2980 H   0  0  0  0  0  0  0  0  0  0  0  0
   46.8570   33.7560   47.3750 H   0  0  0  0  0  0  0  0  0  0  0  0
   47.4670   32.0650   47.7170 H   0  0  0  0  0  0  0  0  0  0  0  0
   44.7950   32.7290   47.0990 H   0  0  0  0  0  0  0  0  0  0  0  0
   45.2810   30.6380   47.1750 C   0  0  0  0  0  0  0  0  0  0  0  0
   45.1960   30.2410   48.4730 C   0  0  0  0  0  0  0  0  0  0  0  0
   45.0760   28.9320   48.9180 C   0  0  0  0  0  0  0  0  0  0  0  0
   45.0430   27.9380   47.9210 C   0  0  0  0  0  0  0  0  0  0  0  0
   45.1250   28.3150   46.5850 C   0  0  0  0  0  0  0  0  0  0  0  0
   45.0280   27.3130   45.6380 C   0  0  0  0  0  0  0  0  0  0  0  0
   45.0340   27.6500   44.2920 C   0  0  0  0  0  0  0  0  0  0  0  0
   45.1350   28.9690   43.8950 C   0  0  0  0  0  0  0  0  0  0  0  0
   45.2330   29.9290   44.8780 C   0  0  0  0  0  0  0  0  0  0  0  0
   45.2390   29.6440   46.2290 C   0  0  0  0  0  0  0  0  0  0  0  0
   45.2260   31.0440   49.2060 H   0  0  0  0  0  0  0  0  0  0  0  0
   45.0120   28.6880   49.9720 H   0  0  0  0  0  0  0  0  0  0  0  0
   44.9540   26.9060   48.2250 H   0  0  0  0  0  0  0  0  0  0  0  0
   44.9470   26.2840   45.9780 H   0  0  0  0  0  0  0  0  0  0  0  0
   44.9530   26.7700   43.6320 H   0  0  0  0  0  0  0  0  0  0  0  0
   45.1210   29.0250   42.8330 H   0  0  0  0  0  0  0  0  0  0  0  0
   45.2110   30.8340   44.3410 H   0  0  0  0  0  0  0  0  0  0  0  0
   45.1300   35.3720   44.1010 C   0  0  0  0  0  0  0  0  0  0  0  0
   45.5390   35.2380   42.7340 C   0  0  0  0  0  0  0  0  0  0  0  0
   46.3070   34.0700   42.3960 C   0  0  0  0  0  0  0  0  0  0  0  0
   46.5960   33.1930   43.3470 N   0  0  0  0  0  0  0  0  0  0  0  0
   46.1820   33.3660   44.6430 C   0  0  0  0  0  0  0  0  0  0  0  0
   45.4700   34.4270   45.0020 N   0  0  0  0  0  0  0  0  0  0  0  0
   44.5680   36.2670   44.2450 H   0  0  0  0  0  0  0  0  0  0  0  0
   45.3050   35.9480   41.9720 H   0  0  0  0  0  0  0  0  0  0  0  0
   46.7170   33.9350   41.0080 C   0  0  0  0  0  0  0  0  0  0  0  0
   48.0180   34.5100   40.6180 C   0  0  0  0  0  0  0  0  0  0  0  0
   48.7180   35.0360   41.2790 H   0  0  0  0  0  0  0  0  0  0  0  0
   48.0880   34.0870   38.7830 S   0  0  0  0  0  0  0  0  0  0  0  0
   46.3950   33.2440   38.9060 C   0  0  0  0  0  0  0  0  0  0  0  0
   45.7980   32.7330   38.0930 H   0  0  0  0  0  0  0  0  0  0  0  0
   46.0560   33.3460   40.0130 N   0  0  0  0  0  0  0  0  0  0  0  0
  1  4  1  6  0  0  0
  1  3  1  0  0  0  0
  1  2  1  0  0  0  0
  2  5  1  0  0  0  0
  2  6  1  0  0  0  0
  3  2  1  0  0  0  0
  3  7  1  1  0  0  0
  3  8  1  0  0  0  0
  8  9  1  0  0  0  0
  9 10  2  0  0  0  0
  9 18  1  0  0  0  0
 10 19  1  0  0  0  0
 11 20  1  0  0  0  0
 11 10  1  0  0  0  0
 12 11  2  0  0  0  0
 13 21  1  0  0  0  0
 13 12  1  0  0  0  0
 14 13  2  0  0  0  0
 15 14  1  0  0  0  0
 15 16  2  0  0  0  0
 16 17  1  0  0  0  0
 17 12  1  0  0  0  0
 17  8  2  0  0  0  0
 22 14  1  0  0  0  0
 23 15  1  0  0  0  0
 24 16  1  0  0  0  0
 25 31  1  0  0  0  0
 25 30  1  0  0  0  0
 26 25  2  0  0  0  0
 27 26  1  0  0  0  0
 27 28  2  0  0  0  0
 28 29  1  0  0  0  0
 29 30  2  0  0  0  0
 29  1  1  0  0  0  0
 32 26  1  0  0  0  0
 33 27  1  0  0  0  0
 34 33  2  0  0  0  0
 34 35  1  0  0  0  0
 36 37  1  0  0  0  0
 36 34  1  0  0  0  0
 37 39  2  0  0  0  0
 38 37  1  0  0  0  0
 39 33  1  0  0  0  0
M  END
>  <minimizedAffinity>
-4.77462673

>  <minimizedRMSD>
0.998682141

$$$$
