
 OpenBabel03252508253D

 39 43  0  0  1  0  0  0  0  0999 V2000
   46.5260   32.3530   45.6940 C   0  0  1  0  0  0  0  0  0  0  0  0
   46.8990   32.7170   47.0690 C   0  0  0  0  0  0  0  0  0  0  0  0
   45.5420   31.9990   46.7010 C   0  0  2  0  0  0  0  0  0  0  0  0
   47.3780   31.6770   45.3290 H   0  0  0  0  0  0  0  0  0  0  0  0
   46.8520   33.7590   47.4230 H   0  0  0  0  0  0  0  0  0  0  0  0
   47.4620   32.0660   47.7520 H   0  0  0  0  0  0  0  0  0  0  0  0
   44.7930   32.7320   47.1290 H   0  0  0  0  0  0  0  0  0  0  0  0
   45.2810   30.6410   47.1880 C   0  0  0  0  0  0  0  0  0  0  0  0
   45.1920   30.2320   48.4820 C   0  0  0  0  0  0  0  0  0  0  0  0
   45.0720   28.9200   48.9140 C   0  0  0  0  0  0  0  0  0  0  0  0
   45.0410   27.9340   47.9070 C   0  0  0  0  0  0  0  0  0  0  0  0
   45.1270   28.3240   46.5750 C   0  0  0  0  0  0  0  0  0  0  0  0
   45.0320   27.3320   45.6190 C   0  0  0  0  0  0  0  0  0  0  0  0
   45.0420   27.6810   44.2760 C   0  0  0  0  0  0  0  0  0  0  0  0
   45.1430   29.0030   43.8920 C   0  0  0  0  0  0  0  0  0  0  0  0
   45.2390   29.9550   44.8840 C   0  0  0  0  0  0  0  0  0  0  0  0
   45.2410   29.6570   46.2320 C   0  0  0  0  0  0  0  0  0  0  0  0
   45.2200   31.0280   49.2220 H   0  0  0  0  0  0  0  0  0  0  0  0
   45.0060   28.6650   49.9650 H   0  0  0  0  0  0  0  0  0  0  0  0
   44.9530   26.9000   48.2020 H   0  0  0  0  0  0  0  0  0  0  0  0
   44.9510   26.2990   45.9490 H   0  0  0  0  0  0  0  0  0  0  0  0
   44.9630   26.8070   43.6080 H   0  0  0  0  0  0  0  0  0  0  0  0
   45.1310   29.0690   42.8300 H   0  0  0  0  0  0  0  0  0  0  0  0
   45.2170   30.8640   44.3560 H   0  0  0  0  0  0  0  0  0  0  0  0
   45.1160   35.3910   44.1510 C   0  0  0  0  0  0  0  0  0  0  0  0
   45.5530   35.2820   42.7890 C   0  0  0  0  0  0  0  0  0  0  0  0
   46.3450   34.1310   42.4500 C   0  0  0  0  0  0  0  0  0  0  0  0
   46.6300   33.2450   43.3940 N   0  0  0  0  0  0  0  0  0  0  0  0
   46.1890   33.3940   44.6840 C   0  0  0  0  0  0  0  0  0  0  0  0
   45.4540   34.4380   45.0450 N   0  0  0  0  0  0  0  0  0  0  0  0
   44.5380   36.2740   44.2960 H   0  0  0  0  0  0  0  0  0  0  0  0
   45.3230   35.9990   42.0330 H   0  0  0  0  0  0  0  0  0  0  0  0
   46.7840   34.0220   41.0680 C   0  0  0  0  0  0  0  0  0  0  0  0
   48.0640   34.6560   40.7030 C   0  0  0  0  0  0  0  0  0  0  0  0
   48.7280   35.2100   41.3780 H   0  0  0  0  0  0  0  0  0  0  0  0
   48.1820   34.2480   38.8670 S   0  0  0  0  0  0  0  0  0  0  0  0
   46.5270   33.3290   38.9580 C   0  0  0  0  0  0  0  0  0  0  0  0
   45.9660   32.7950   38.1340 H   0  0  0  0  0  0  0  0  0  0  0  0
   46.1650   33.4090   40.0600 N   0  0  0  0  0  0  0  0  0  0  0  0
  1  4  1  6  0  0  0
  1  3  1  0  0  0  0
  1  2  1  0  0  0  0
  2  5  1  0  0  0  0
  2  6  1  0  0  0  0
  3  2  1  0  0  0  0
  3  7  1  1  0  0  0
  3  8  1  0  0  0  0
  8  9  1  0  0  0  0
  9 10  2  0  0  0  0
  9 18  1  0  0  0  0
 10 19  1  0  0  0  0
 11 20  1  0  0  0  0
 11 10  1  0  0  0  0
 12 11  2  0  0  0  0
 13 21  1  0  0  0  0
 13 12  1  0  0  0  0
 14 13  2  0  0  0  0
 15 14  1  0  0  0  0
 15 16  2  0  0  0  0
 16 17  1  0  0  0  0
 17 12  1  0  0  0  0
 17  8  2  0  0  0  0
 22 14  1  0  0  0  0
 23 15  1  0  0  0  0
 24 16  1  0  0  0  0
 25 31  1  0  0  0  0
 25 30  1  0  0  0  0
 26 25  2  0  0  0  0
 27 26  1  0  0  0  0
 27 28  2  0  0  0  0
 28 29  1  0  0  0  0
 29 30  2  0  0  0  0
 29  1  1  0  0  0  0
 32 26  1  0  0  0  0
 33 27  1  0  0  0  0
 34 33  2  0  0  0  0
 34 35  1  0  0  0  0
 36 37  1  0  0  0  0
 36 34  1  0  0  0  0
 37 39  2  0  0  0  0
 38 37  1  0  0  0  0
 39 33  1  0  0  0  0
M  END
>  <minimizedAffinity>
-4.79470634

>  <minimizedRMSD>
0.952892959

$$$$
