
     RDKit          3D

 43 47  0  0  0  0  0  0  0  0999 V2000
   47.5341   32.6739   44.2732 C   0  0  0  0  0  0  0  0  0  0  0  0
   46.8383   33.6494   43.5523 C   0  0  0  0  0  0  0  0  0  0  0  0
   45.7837   34.3701   44.0889 C   0  0  0  0  0  0  0  0  0  0  0  0
   45.3930   34.1140   45.4127 C   0  0  0  0  0  0  0  0  0  0  0  0
   44.4484   34.5954   46.2466 N   0  0  0  0  0  0  0  0  0  0  0  0
   44.5245   33.9704   47.4403 C   0  0  0  0  0  0  0  0  0  0  0  0
   45.5348   33.0965   47.3204 N   0  0  0  0  0  0  0  0  0  0  0  0
   46.0902   33.1537   46.0986 C   0  0  0  0  0  0  0  0  0  0  0  0
   47.1485   32.4172   45.5883 C   0  0  0  0  0  0  0  0  0  0  0  0
   47.0604   33.4158   39.9048 C   0  0  0  0  0  0  0  0  0  0  0  0
   47.9748   34.4360   39.5830 C   0  0  0  0  0  0  0  0  0  0  0  0
   48.5002   35.1898   40.6405 C   0  0  0  0  0  0  0  0  0  0  0  0
   48.1150   34.9154   41.9288 N   0  0  0  0  0  0  0  0  0  0  0  0
   47.2344   33.9246   42.1766 C   0  0  0  0  0  0  0  0  0  0  0  0
   46.6896   33.1587   41.1961 N   0  0  0  0  0  0  0  0  0  0  0  0
   44.9141   35.5979   43.1691 S   0  0  0  0  0  0  0  0  0  0  0  0
   42.3279   35.5940   42.6994 N   0  0  0  0  0  0  0  0  0  0  0  0
   43.5217   34.9504   42.2131 C   0  0  1  0  0  0  0  0  0  0  0  0
   43.8060   35.3078   40.7565 C   0  0  0  0  0  0  0  0  0  0  0  0
   42.6763   35.3179   39.9662 O   0  0  0  0  0  0  0  0  0  0  0  0
   41.5564   34.7777   40.5261 C   0  0  0  0  0  0  0  0  0  0  0  0
   41.2114   35.5053   41.7855 C   0  0  1  0  0  0  0  0  0  0  0  0
   48.3592   32.1334   43.8031 H   0  0  0  0  0  0  0  0  0  0  0  0
   43.8158   35.3493   45.8771 H   0  0  0  0  0  0  0  0  0  0  0  0
   43.8557   34.2115   48.2451 H   0  0  0  0  0  0  0  0  0  0  0  0
   47.6770   31.6677   46.1545 H   0  0  0  0  0  0  0  0  0  0  0  0
   46.6137   32.7935   39.1432 H   0  0  0  0  0  0  0  0  0  0  0  0
   48.2439   34.6097   38.5491 H   0  0  0  0  0  0  0  0  0  0  0  0
   49.2055   35.9798   40.4155 H   0  0  0  0  0  0  0  0  0  0  0  0
   42.5585   36.5954   42.8861 H   0  0  0  0  0  0  0  0  0  0  0  0
   43.4686   33.8410   42.3129 H   0  0  0  0  0  0  0  0  0  0  0  0
   44.3052   36.3125   40.7062 H   0  0  0  0  0  0  0  0  0  0  0  0
   44.4245   34.5119   40.3233 H   0  0  0  0  0  0  0  0  0  0  0  0
   40.7198   34.9438   39.8176 H   0  0  0  0  0  0  0  0  0  0  0  0
   41.6099   33.6737   40.6677 H   0  0  0  0  0  0  0  0  0  0  0  0
   40.8503   36.5198   41.5475 H   0  0  0  0  0  0  0  0  0  0  0  0
   40.0959   34.7850   42.4474 C   0  0  0  0  0  0  0  0  0  0  0  0
   40.3104   34.2992   43.8368 C   0  0  0  0  0  0  0  0  0  0  0  0
   41.4123   34.5137   44.3888 H   0  0  0  0  0  0  0  0  0  0  0  0
   38.6803   33.4709   44.2619 S   0  0  0  0  0  0  0  0  0  0  0  0
   38.0335   33.9210   42.5382 C   0  0  0  0  0  0  0  0  0  0  0  0
   36.9889   33.5671   42.3811 H   0  0  0  0  0  0  0  0  0  0  0  0
   38.8790   34.4700   42.0277 N   0  0  0  0  0  0  0  0  0  0  0  0
  1  9  2  0
  2  3  2  0
  2  1  1  0
  3  4  1  0
  4  8  2  0
  4  5  1  0
  5  6  1  0
  7  6  2  0
  8  7  1  0
  9  8  1  0
 10 15  2  0
 11 10  1  0
 11 12  2  0
 12 13  1  0
 13 14  2  0
 14  2  1  0
 15 14  1  0
 16  3  1  0
 18 17  1  0
 18 16  1  0
 19 18  1  0
 20 21  1  0
 20 19  1  0
 21 22  1  0
 22 17  1  0
  1 23  1  0
  5 24  1  0
  6 25  1  0
  9 26  1  0
 10 27  1  0
 11 28  1  0
 12 29  1  0
 17 30  1  0
 18 31  1  6
 19 32  1  0
 19 33  1  0
 21 34  1  0
 21 35  1  0
 22 36  1  6
 37 38  2  0
 38 39  1  0
 38 40  1  0
 40 41  1  0
 41 42  1  0
 41 43  2  0
 43 37  1  0
 22 37  1  0
M  ISO  8  23  14  24   9  25  14  26  14  27  14  28  14  29  14  30   5
M  ISO  8  31  13  32  13  33  13  34  13  35  13  36  13  39  15  42  16
M  END
>  <DihAtoms>  (1) 
20,21,36,37

>  <DihDeg>  (1) 
167.27988503992418

$$$$
