
 OpenBabel03252506563D

 36 40  0  0  0  0  0  0  0  0999 V2000
   47.4240   31.3880   45.2400 C   0  0  0  0  0  0  0  0  0  0  0  0
   46.9220   32.6730   45.1130 C   0  0  0  0  0  0  0  0  0  0  0  0
   46.2090   33.2910   46.1110 C   0  0  0  0  0  0  0  0  0  0  0  0
   45.9610   32.6370   47.3060 C   0  0  0  0  0  0  0  0  0  0  0  0
   45.3160   32.9200   48.4740 N   0  0  0  0  0  0  0  0  0  0  0  0
   45.4170   31.8420   49.2990 C   0  0  0  0  0  0  0  0  0  0  0  0
   46.1240   30.9080   48.6240 N   0  0  0  0  0  0  0  0  0  0  0  0
   46.4690   31.3650   47.4050 C   0  0  0  0  0  0  0  0  0  0  0  0
   47.1800   30.7090   46.4480 C   0  0  0  0  0  0  0  0  0  0  0  0
   47.9850   30.9090   44.4480 H   0  0  0  0  0  0  0  0  0  0  0  0
   45.8220   34.2970   45.9990 H   0  0  0  0  0  0  0  0  0  0  0  0
   44.8380   33.8380   48.6530 H   0  0  0  0  0  0  0  0  0  0  0  0
   44.9930   31.7850   50.3060 H   0  0  0  0  0  0  0  0  0  0  0  0
   46.5820   35.1130   42.3800 C   0  0  0  0  0  0  0  0  0  0  0  0
   47.6220   34.7710   41.5300 C   0  0  0  0  0  0  0  0  0  0  0  0
   48.4430   33.6980   41.8960 C   0  0  0  0  0  0  0  0  0  0  0  0
   48.1800   33.0450   43.0680 N   0  0  0  0  0  0  0  0  0  0  0  0
   47.1550   33.4080   43.8730 C   0  0  0  0  0  0  0  0  0  0  0  0
   46.3580   34.4350   43.5340 N   0  0  0  0  0  0  0  0  0  0  0  0
   45.9300   35.9450   42.1150 H   0  0  0  0  0  0  0  0  0  0  0  0
   47.7800   35.3290   40.6100 H   0  0  0  0  0  0  0  0  0  0  0  0
   49.2660   33.4040   41.2550 H   0  0  0  0  0  0  0  0  0  0  0  0
   47.6810   29.3490   46.6530 C   0  0  0  0  0  0  0  0  0  0  0  0
   48.9720   28.9460   46.4250 C   0  0  0  0  0  0  0  0  0  0  0  0
   48.9500   27.5820   46.7610 C   0  0  0  0  0  0  0  0  0  0  0  0
   47.6650   27.2370   47.1670 C   0  0  0  0  0  0  0  0  0  0  0  0
   46.9720   28.3510   47.0720 O   0  0  0  0  0  0  0  0  0  0  0  0
   49.7910   29.5280   46.0790 H   0  0  0  0  0  0  0  0  0  0  0  0
   49.7960   26.9180   46.7090 H   0  0  0  0  0  0  0  0  0  0  0  0
   47.1760   25.9150   47.6110 C   0  0  0  0  0  0  0  0  0  0  0  0
   45.8270   25.8410   48.2500 C   0  0  0  0  0  0  0  0  0  0  0  0
   45.1900   26.6400   48.4140 H   0  0  0  0  0  0  0  0  0  0  0  0
   45.7900   23.9780   48.5720 S   0  0  0  0  0  0  0  0  0  0  0  0
   47.5060   23.7110   47.8180 C   0  0  0  0  0  0  0  0  0  0  0  0
   47.9550   22.7320   47.7700 H   0  0  0  0  0  0  0  0  0  0  0  0
   47.8840   24.8180   47.4620 N   0  0  0  0  0  0  0  0  0  0  0  0
  1  9  1  0  0  0  0
  2  1  2  0  0  0  0
  2  3  1  0  0  0  0
  3  4  2  0  0  0  0
  4  8  1  0  0  0  0
  4  5  1  0  0  0  0
  5 12  1  0  0  0  0
  5  6  1  0  0  0  0
  6 13  1  0  0  0  0
  7  6  2  0  0  0  0
  8  7  1  0  0  0  0
  9 23  1  0  0  0  0
  9  8  2  0  0  0  0
 10  1  1  0  0  0  0
 11  3  1  0  0  0  0
 14 19  1  0  0  0  0
 15 16  1  0  0  0  0
 15 14  2  0  0  0  0
 16 17  2  0  0  0  0
 17 18  1  0  0  0  0
 18  2  1  0  0  0  0
 19 18  2  0  0  0  0
 20 14  1  0  0  0  0
 21 15  1  0  0  0  0
 22 16  1  0  0  0  0
 23 27  1  0  0  0  0
 24 23  2  0  0  0  0
 24 25  1  0  0  0  0
 25 26  2  0  0  0  0
 26 30  1  0  0  0  0
 27 26  1  0  0  0  0
 28 24  1  0  0  0  0
 29 25  1  0  0  0  0
 30 31  2  0  0  0  0
 31 32  1  0  0  0  0
 31 33  1  0  0  0  0
 34 33  1  0  0  0  0
 35 34  1  0  0  0  0
 36 30  1  0  0  0  0
 36 34  2  0  0  0  0
M  END
>  <minimizedAffinity>
-5.53014278

>  <minimizedRMSD>
0.888672054

$$$$
