
 OpenBabel03252504493D

 22 23  0  0  0  0  0  0  0  0999 V2000
   47.3280   33.9890   43.5660 C   0  0  0  0  0  0  0  0  0  0  0  0
   46.3440   34.6810   42.8630 C   0  0  0  0  0  0  0  0  0  0  0  0
   46.4210   34.6660   41.4700 C   0  0  0  0  0  0  0  0  0  0  0  0
   47.4470   33.9800   40.8780 N   0  0  0  0  0  0  0  0  0  0  0  0
   48.3810   33.3210   41.5920 C   0  0  0  0  0  0  0  0  0  0  0  0
   48.3240   33.3240   42.9470 N   0  0  0  0  0  0  0  0  0  0  0  0
   47.3160   33.9680   44.6560 H   0  0  0  0  0  0  0  0  0  0  0  0
   45.6810   35.1880   40.8880 H   0  0  0  0  0  0  0  0  0  0  0  0
   49.4670   32.5950   40.9400 C   0  0  0  0  0  0  0  0  0  0  0  0
   49.2900   32.0450   39.6310 C   0  0  0  0  0  0  0  0  0  0  0  0
   48.4230   32.1000   39.0410 H   0  0  0  0  0  0  0  0  0  0  0  0
   50.9430   31.2700   39.3370 S   0  0  0  0  0  0  0  0  0  0  0  0
   51.5620   31.8400   41.0490 C   0  0  0  0  0  0  0  0  0  0  0  0
   52.5670   31.6410   41.4480 H   0  0  0  0  0  0  0  0  0  0  0  0
   50.6550   32.3860   41.4660 N   0  0  0  0  0  0  0  0  0  0  0  0
   45.3110   35.3640   43.6020 C   0  0  0  0  0  0  0  0  0  0  0  0
   44.3790   35.4320   43.0380 H   0  0  0  0  0  0  0  0  0  0  0  0
   45.6730   36.4050   43.8380 H   0  0  0  0  0  0  0  0  0  0  0  0
   45.1170   34.6580   44.9310 C   0  0  0  0  0  0  0  0  0  0  0  0
   44.9160   35.4220   45.7350 H   0  0  0  0  0  0  0  0  0  0  0  0
   45.9620   34.0060   45.1560 H   0  0  0  0  0  0  0  0  0  0  0  0
   44.1740   34.0430   44.8520 H   0  0  0  0  0  0  0  0  0  0  0  0
  1  7  1  0  0  0  0
  2  1  2  0  0  0  0
  2 16  1  0  0  0  0
  3  2  1  0  0  0  0
  4  3  2  0  0  0  0
  4  5  1  0  0  0  0
  5  6  2  0  0  0  0
  6  1  1  0  0  0  0
  8  3  1  0  0  0  0
  9 15  1  0  0  0  0
  9  5  1  0  0  0  0
 10  9  2  0  0  0  0
 11 10  1  0  0  0  0
 12 10  1  0  0  0  0
 12 13  1  0  0  0  0
 13 14  1  0  0  0  0
 13 15  2  0  0  0  0
 16 18  1  0  0  0  0
 16 19  1  0  0  0  0
 17 16  1  0  0  0  0
 19 21  1  0  0  0  0
 19 20  1  0  0  0  0
 22 19  1  0  0  0  0
M  END
>  <minimizedAffinity>
-3.40433025

>  <minimizedRMSD>
6.80481911

$$$$
