
 OpenBabel03252506533D

 29 32  0  0  0  0  0  0  0  0999 V2000
   36.7420   30.3940   39.1290 C   0  0  0  0  0  0  0  0  0  0  0  0
   35.8020   29.3970   39.0980 C   0  0  0  0  0  0  0  0  0  0  0  0
   35.5920   28.5550   40.1810 C   0  0  0  0  0  0  0  0  0  0  0  0
   36.3430   28.7120   41.3350 C   0  0  0  0  0  0  0  0  0  0  0  0
   36.4180   28.1030   42.5540 N   0  0  0  0  0  0  0  0  0  0  0  0
   37.3730   28.7130   43.2980 C   0  0  0  0  0  0  0  0  0  0  0  0
   37.8830   29.6980   42.5320 N   0  0  0  0  0  0  0  0  0  0  0  0
   37.2720   29.7190   41.3280 C   0  0  0  0  0  0  0  0  0  0  0  0
   37.5110   30.5760   40.2740 C   0  0  0  0  0  0  0  0  0  0  0  0
   36.8540   31.0140   38.2530 H   0  0  0  0  0  0  0  0  0  0  0  0
   34.8580   27.7660   40.1730 H   0  0  0  0  0  0  0  0  0  0  0  0
   35.7700   27.2900   42.7520 H   0  0  0  0  0  0  0  0  0  0  0  0
   37.6090   28.3950   44.3110 H   0  0  0  0  0  0  0  0  0  0  0  0
   32.9080   28.7510   36.9230 C   0  0  0  0  0  0  0  0  0  0  0  0
   33.4600   28.8160   35.6440 C   0  0  0  0  0  0  0  0  0  0  0  0
   34.8310   29.0810   35.5450 C   0  0  0  0  0  0  0  0  0  0  0  0
   35.5500   29.2640   36.7010 N   0  0  0  0  0  0  0  0  0  0  0  0
   34.9940   29.1960   37.9120 C   0  0  0  0  0  0  0  0  0  0  0  0
   33.6760   28.9400   38.0110 N   0  0  0  0  0  0  0  0  0  0  0  0
   31.8570   28.5490   37.0760 H   0  0  0  0  0  0  0  0  0  0  0  0
   32.8590   28.6680   34.7750 H   0  0  0  0  0  0  0  0  0  0  0  0
   35.3210   29.1450   34.5810 H   0  0  0  0  0  0  0  0  0  0  0  0
   38.5310   31.6500   40.3260 C   0  0  0  0  0  0  0  0  0  0  0  0
   39.8730   31.3980   40.0330 C   0  0  0  0  0  0  0  0  0  0  0  0
   40.3150   30.4510   39.7490 H   0  0  0  0  0  0  0  0  0  0  0  0
   40.6440   33.0430   40.2540 S   0  0  0  0  0  0  0  0  0  0  0  0
   38.9650   33.8090   40.7170 C   0  0  0  0  0  0  0  0  0  0  0  0
   38.7430   34.8590   40.9850 H   0  0  0  0  0  0  0  0  0  0  0  0
   38.2220   32.9110   40.6550 N   0  0  0  0  0  0  0  0  0  0  0  0
  1  9  1  0  0  0  0
  2  1  2  0  0  0  0
  2  3  1  0  0  0  0
  3  4  2  0  0  0  0
  4  5  1  0  0  0  0
  5 12  1  0  0  0  0
  5  6  1  0  0  0  0
  6 13  1  0  0  0  0
  7  6  2  0  0  0  0
  8  4  1  0  0  0  0
  8  7  1  0  0  0  0
  9 23  1  0  0  0  0
  9  8  2  0  0  0  0
 10  1  1  0  0  0  0
 11  3  1  0  0  0  0
 14 20  1  0  0  0  0
 14 19  1  0  0  0  0
 15 14  2  0  0  0  0
 16 15  1  0  0  0  0
 16 17  2  0  0  0  0
 17 18  1  0  0  0  0
 18 19  2  0  0  0  0
 18  2  1  0  0  0  0
 21 15  1  0  0  0  0
 22 16  1  0  0  0  0
 23 29  1  0  0  0  0
 24 26  1  0  0  0  0
 24 23  2  0  0  0  0
 25 24  1  0  0  0  0
 26 27  1  0  0  0  0
 27 28  1  0  0  0  0
 29 27  2  0  0  0  0
M  END
>  <minimizedAffinity>
-5.22021389

$$$$

 OpenBabel03252506533D

 29 32  0  0  0  0  0  0  0  0999 V2000
   37.2560   29.6190   39.2380 C   0  0  0  0  0  0  0  0  0  0  0  0
   36.9740   30.4080   38.1530 C   0  0  0  0  0  0  0  0  0  0  0  0
   37.3540   31.7420   38.0990 C   0  0  0  0  0  0  0  0  0  0  0  0
   38.0390   32.3090   39.1630 C   0  0  0  0  0  0  0  0  0  0  0  0
   38.5560   33.5360   39.4610 N   0  0  0  0  0  0  0  0  0  0  0  0
   39.1320   33.4900   40.6870 C   0  0  0  0  0  0  0  0  0  0  0  0
   38.9660   32.2310   41.1400 N   0  0  0  0  0  0  0  0  0  0  0  0
   38.3010   31.4890   40.2290 C   0  0  0  0  0  0  0  0  0  0  0  0
   37.9410   30.1610   40.3210 C   0  0  0  0  0  0  0  0  0  0  0  0
   36.9320   28.5900   39.2150 H   0  0  0  0  0  0  0  0  0  0  0  0
   37.1400   32.3750   37.2550 H   0  0  0  0  0  0  0  0  0  0  0  0
   38.4510   34.3140   38.7510 H   0  0  0  0  0  0  0  0  0  0  0  0
   39.6120   34.3570   41.1340 H   0  0  0  0  0  0  0  0  0  0  0  0
   36.0730   29.5250   34.6990 C   0  0  0  0  0  0  0  0  0  0  0  0
   34.8930   28.8000   34.8610 C   0  0  0  0  0  0  0  0  0  0  0  0
   34.4190   28.6240   36.1660 C   0  0  0  0  0  0  0  0  0  0  0  0
   35.1340   29.1670   37.2050 N   0  0  0  0  0  0  0  0  0  0  0  0
   36.2610   29.8560   37.0190 C   0  0  0  0  0  0  0  0  0  0  0  0
   36.7200   30.0290   35.7650 N   0  0  0  0  0  0  0  0  0  0  0  0
   36.4990   29.7020   33.7210 H   0  0  0  0  0  0  0  0  0  0  0  0
   34.3730   28.3960   34.0220 H   0  0  0  0  0  0  0  0  0  0  0  0
   33.5070   28.0700   36.3610 H   0  0  0  0  0  0  0  0  0  0  0  0
   38.2550   29.3220   41.5020 C   0  0  0  0  0  0  0  0  0  0  0  0
   39.3810   28.4960   41.5330 C   0  0  0  0  0  0  0  0  0  0  0  0
   40.1220   28.3690   40.7540 H   0  0  0  0  0  0  0  0  0  0  0  0
   39.2600   27.7220   43.1870 S   0  0  0  0  0  0  0  0  0  0  0  0
   37.6590   28.6800   43.5600 C   0  0  0  0  0  0  0  0  0  0  0  0
   37.0400   28.6480   44.4760 H   0  0  0  0  0  0  0  0  0  0  0  0
   37.4800   29.3110   42.5930 N   0  0  0  0  0  0  0  0  0  0  0  0
  1  9  1  0  0  0  0
  2  1  2  0  0  0  0
  3  2  1  0  0  0  0
  3  4  2  0  0  0  0
  4  5  1  0  0  0  0
  4  8  1  0  0  0  0
  5  6  1  0  0  0  0
  6 13  1  0  0  0  0
  6  7  2  0  0  0  0
  8  9  2  0  0  0  0
  8  7  1  0  0  0  0
  9 23  1  0  0  0  0
 10  1  1  0  0  0  0
 11  3  1  0  0  0  0
 12  5  1  0  0  0  0
 14 15  2  0  0  0  0
 14 19  1  0  0  0  0
 15 16  1  0  0  0  0
 16 22  1  0  0  0  0
 16 17  2  0  0  0  0
 18 17  1  0  0  0  0
 18  2  1  0  0  0  0
 19 18  2  0  0  0  0
 20 14  1  0  0  0  0
 21 15  1  0  0  0  0
 23 24  2  0  0  0  0
 23 29  1  0  0  0  0
 24 26  1  0  0  0  0
 25 24  1  0  0  0  0
 26 27  1  0  0  0  0
 27 28  1  0  0  0  0
 29 27  2  0  0  0  0
M  END
>  <minimizedAffinity>
-4.96921492

$$$$

 OpenBabel03252506533D

 29 32  0  0  0  0  0  0  0  0999 V2000
   39.3550   29.6840   40.1580 C   0  0  0  0  0  0  0  0  0  0  0  0
   38.1440   29.5120   40.7790 C   0  0  0  0  0  0  0  0  0  0  0  0
   37.2410   30.5560   40.9220 C   0  0  0  0  0  0  0  0  0  0  0  0
   37.5530   31.8140   40.4300 C   0  0  0  0  0  0  0  0  0  0  0  0
   36.9450   33.0340   40.3850 N   0  0  0  0  0  0  0  0  0  0  0  0
   37.7610   33.9150   39.7570 C   0  0  0  0  0  0  0  0  0  0  0  0
   38.8730   33.2320   39.4180 N   0  0  0  0  0  0  0  0  0  0  0  0
   38.7720   31.9460   39.8180 C   0  0  0  0  0  0  0  0  0  0  0  0
   39.6960   30.9360   39.6550 C   0  0  0  0  0  0  0  0  0  0  0  0
   40.0100   28.8310   40.0800 H   0  0  0  0  0  0  0  0  0  0  0  0
   36.2860   30.4380   41.4070 H   0  0  0  0  0  0  0  0  0  0  0  0
   35.9820   33.1340   40.8140 H   0  0  0  0  0  0  0  0  0  0  0  0
   37.4820   34.9550   39.6050 H   0  0  0  0  0  0  0  0  0  0  0  0
   37.7750   25.8700   41.1260 C   0  0  0  0  0  0  0  0  0  0  0  0
   37.0700   25.7420   42.3230 C   0  0  0  0  0  0  0  0  0  0  0  0
   36.7280   26.9190   42.9990 C   0  0  0  0  0  0  0  0  0  0  0  0
   37.1020   28.1230   42.4540 N   0  0  0  0  0  0  0  0  0  0  0  0
   37.7760   28.2150   41.3070 C   0  0  0  0  0  0  0  0  0  0  0  0
   38.1070   27.0840   40.6530 N   0  0  0  0  0  0  0  0  0  0  0  0
   38.0730   25.0050   40.5490 H   0  0  0  0  0  0  0  0  0  0  0  0
   36.8030   24.7840   42.7060 H   0  0  0  0  0  0  0  0  0  0  0  0
   36.1800   26.8890   43.9340 H   0  0  0  0  0  0  0  0  0  0  0  0
   41.0000   31.1390   38.9810 C   0  0  0  0  0  0  0  0  0  0  0  0
   42.1680   31.3820   39.7080 C   0  0  0  0  0  0  0  0  0  0  0  0
   42.2690   31.4490   40.7840 H   0  0  0  0  0  0  0  0  0  0  0  0
   43.4280   31.5500   38.3900 S   0  0  0  0  0  0  0  0  0  0  0  0
   42.1160   31.2520   37.0450 C   0  0  0  0  0  0  0  0  0  0  0  0
   42.2540   31.2280   35.9480 H   0  0  0  0  0  0  0  0  0  0  0  0
   41.1270   31.1020   37.6490 N   0  0  0  0  0  0  0  0  0  0  0  0
  1  2  1  0  0  0  0
  2  3  2  0  0  0  0
  2 18  1  0  0  0  0
  3 11  1  0  0  0  0
  4  3  1  0  0  0  0
  5  4  1  0  0  0  0
  5 12  1  0  0  0  0
  6  5  1  0  0  0  0
  7  6  2  0  0  0  0
  7  8  1  0  0  0  0
  8  4  2  0  0  0  0
  9  8  1  0  0  0  0
  9  1  2  0  0  0  0
 10  1  1  0  0  0  0
 13  6  1  0  0  0  0
 14 15  1  0  0  0  0
 15 21  1  0  0  0  0
 15 16  2  0  0  0  0
 16 22  1  0  0  0  0
 17 16  1  0  0  0  0
 18 17  2  0  0  0  0
 19 14  2  0  0  0  0
 19 18  1  0  0  0  0
 20 14  1  0  0  0  0
 23  9  1  0  0  0  0
 23 24  2  0  0  0  0
 24 25  1  0  0  0  0
 26 24  1  0  0  0  0
 27 29  2  0  0  0  0
 27 26  1  0  0  0  0
 28 27  1  0  0  0  0
 29 23  1  0  0  0  0
M  END
>  <minimizedAffinity>
-4.9351697

$$$$

 OpenBabel03252506533D

 29 32  0  0  0  0  0  0  0  0999 V2000
   37.6930   29.0330   39.9410 C   0  0  0  0  0  0  0  0  0  0  0  0
   38.3490   29.3620   41.0990 C   0  0  0  0  0  0  0  0  0  0  0  0
   38.5400   30.6820   41.4830 C   0  0  0  0  0  0  0  0  0  0  0  0
   38.0610   31.7100   40.6860 C   0  0  0  0  0  0  0  0  0  0  0  0
   38.0580   33.0740   40.7320 N   0  0  0  0  0  0  0  0  0  0  0  0
   37.4200   33.5550   39.6370 C   0  0  0  0  0  0  0  0  0  0  0  0
   37.0330   32.4820   38.9190 N   0  0  0  0  0  0  0  0  0  0  0  0
   37.4120   31.3430   39.5370 C   0  0  0  0  0  0  0  0  0  0  0  0
   37.2020   30.0450   39.1210 C   0  0  0  0  0  0  0  0  0  0  0  0
   37.5780   27.9880   39.7010 H   0  0  0  0  0  0  0  0  0  0  0  0
   39.0530   30.9570   42.3890 H   0  0  0  0  0  0  0  0  0  0  0  0
   38.5200   33.5520   41.5570 H   0  0  0  0  0  0  0  0  0  0  0  0
   37.2960   34.6210   39.4620 H   0  0  0  0  0  0  0  0  0  0  0  0
   38.6820   26.1640   42.8820 C   0  0  0  0  0  0  0  0  0  0  0  0
   39.8580   26.3350   43.6110 C   0  0  0  0  0  0  0  0  0  0  0  0
   40.5270   27.5580   43.4790 C   0  0  0  0  0  0  0  0  0  0  0  0
   39.9940   28.5120   42.6470 N   0  0  0  0  0  0  0  0  0  0  0  0
   38.8650   28.3190   41.9620 C   0  0  0  0  0  0  0  0  0  0  0  0
   38.2190   27.1440   42.0870 N   0  0  0  0  0  0  0  0  0  0  0  0
   38.1120   25.2460   42.9350 H   0  0  0  0  0  0  0  0  0  0  0  0
   40.2340   25.5630   44.2440 H   0  0  0  0  0  0  0  0  0  0  0  0
   41.4460   27.7550   44.0170 H   0  0  0  0  0  0  0  0  0  0  0  0
   36.4890   29.7080   37.8650 C   0  0  0  0  0  0  0  0  0  0  0  0
   37.1310   29.7570   36.6250 C   0  0  0  0  0  0  0  0  0  0  0  0
   38.1610   30.0280   36.4310 H   0  0  0  0  0  0  0  0  0  0  0  0
   35.8010   29.2580   35.4710 S   0  0  0  0  0  0  0  0  0  0  0  0
   34.5720   29.0640   36.9090 C   0  0  0  0  0  0  0  0  0  0  0  0
   33.5100   28.7590   36.8650 H   0  0  0  0  0  0  0  0  0  0  0  0
   35.2010   29.3430   37.8530 N   0  0  0  0  0  0  0  0  0  0  0  0
  1  2  1  0  0  0  0
  2  3  2  0  0  0  0
  2 18  1  0  0  0  0
  3 11  1  0  0  0  0
  4  5  1  0  0  0  0
  4  3  1  0  0  0  0
  5 12  1  0  0  0  0
  6  5  1  0  0  0  0
  7  8  1  0  0  0  0
  7  6  2  0  0  0  0
  8  4  2  0  0  0  0
  9  8  1  0  0  0  0
  9  1  2  0  0  0  0
 10  1  1  0  0  0  0
 13  6  1  0  0  0  0
 14 20  1  0  0  0  0
 14 15  1  0  0  0  0
 15 21  1  0  0  0  0
 16 15  2  0  0  0  0
 16 22  1  0  0  0  0
 17 16  1  0  0  0  0
 18 19  1  0  0  0  0
 18 17  2  0  0  0  0
 19 14  2  0  0  0  0
 23  9  1  0  0  0  0
 24 23  2  0  0  0  0
 25 24  1  0  0  0  0
 26 24  1  0  0  0  0
 26 27  1  0  0  0  0
 27 29  2  0  0  0  0
 28 27  1  0  0  0  0
 29 23  1  0  0  0  0
M  END
>  <minimizedAffinity>
-4.92040014

$$$$

 OpenBabel03252506533D

 29 32  0  0  0  0  0  0  0  0999 V2000
   36.0490   27.1260   38.9940 C   0  0  0  0  0  0  0  0  0  0  0  0
   35.4390   28.3490   38.8830 C   0  0  0  0  0  0  0  0  0  0  0  0
   35.5360   29.3080   39.8820 C   0  0  0  0  0  0  0  0  0  0  0  0
   36.2650   29.0400   41.0300 C   0  0  0  0  0  0  0  0  0  0  0  0
   36.5740   29.7060   42.1800 N   0  0  0  0  0  0  0  0  0  0  0  0
   37.3470   28.9120   42.9600 C   0  0  0  0  0  0  0  0  0  0  0  0
   37.5100   27.7560   42.2860 N   0  0  0  0  0  0  0  0  0  0  0  0
   36.8600   27.8080   41.1040 C   0  0  0  0  0  0  0  0  0  0  0  0
   36.7880   26.8290   40.1350 C   0  0  0  0  0  0  0  0  0  0  0  0
   35.9350   26.4260   38.1810 H   0  0  0  0  0  0  0  0  0  0  0  0
   35.0620   30.2730   39.8110 H   0  0  0  0  0  0  0  0  0  0  0  0
   36.2000   30.6880   42.3100 H   0  0  0  0  0  0  0  0  0  0  0  0
   37.7160   29.2360   43.9310 H   0  0  0  0  0  0  0  0  0  0  0  0
   32.6100   29.2120   36.7000 C   0  0  0  0  0  0  0  0  0  0  0  0
   33.2010   29.2860   35.4390 C   0  0  0  0  0  0  0  0  0  0  0  0
   34.5760   29.0350   35.3560 C   0  0  0  0  0  0  0  0  0  0  0  0
   35.2610   28.7340   36.5080 N   0  0  0  0  0  0  0  0  0  0  0  0
   34.6670   28.6710   37.7010 C   0  0  0  0  0  0  0  0  0  0  0  0
   33.3450   28.9110   37.7850 N   0  0  0  0  0  0  0  0  0  0  0  0
   31.5530   29.3930   36.8400 H   0  0  0  0  0  0  0  0  0  0  0  0
   32.6270   29.5250   34.5720 H   0  0  0  0  0  0  0  0  0  0  0  0
   35.0970   29.0760   34.4060 H   0  0  0  0  0  0  0  0  0  0  0  0
   37.4550   25.5120   40.2710 C   0  0  0  0  0  0  0  0  0  0  0  0
   36.7580   24.3810   40.7020 C   0  0  0  0  0  0  0  0  0  0  0  0
   35.7120   24.3200   40.9750 H   0  0  0  0  0  0  0  0  0  0  0  0
   38.0510   23.0860   40.6800 S   0  0  0  0  0  0  0  0  0  0  0  0
   39.3480   24.3370   40.0720 C   0  0  0  0  0  0  0  0  0  0  0  0
   40.4170   24.1610   39.8480 H   0  0  0  0  0  0  0  0  0  0  0  0
   38.7530   25.3390   39.9900 N   0  0  0  0  0  0  0  0  0  0  0  0
  1  9  1  0  0  0  0
  2  1  2  0  0  0  0
  2  3  1  0  0  0  0
  3  4  2  0  0  0  0
  4  8  1  0  0  0  0
  4  5  1  0  0  0  0
  5 12  1  0  0  0  0
  5  6  1  0  0  0  0
  6 13  1  0  0  0  0
  7  6  2  0  0  0  0
  8  7  1  0  0  0  0
  9 23  1  0  0  0  0
  9  8  2  0  0  0  0
 10  1  1  0  0  0  0
 11  3  1  0  0  0  0
 14 20  1  0  0  0  0
 14 19  1  0  0  0  0
 15 14  2  0  0  0  0
 16 15  1  0  0  0  0
 16 17  2  0  0  0  0
 17 18  1  0  0  0  0
 18 19  2  0  0  0  0
 18  2  1  0  0  0  0
 21 15  1  0  0  0  0
 22 16  1  0  0  0  0
 23 24  2  0  0  0  0
 24 25  1  0  0  0  0
 26 24  1  0  0  0  0
 27 26  1  0  0  0  0
 28 27  1  0  0  0  0
 29 27  2  0  0  0  0
 29 23  1  0  0  0  0
M  END
>  <minimizedAffinity>
-4.91805935

$$$$

 OpenBabel03252506533D

 29 32  0  0  0  0  0  0  0  0999 V2000
   40.1690   30.5010   41.0230 C   0  0  0  0  0  0  0  0  0  0  0  0
   38.9350   29.9710   41.2970 C   0  0  0  0  0  0  0  0  0  0  0  0
   37.7660   30.6890   41.0810 C   0  0  0  0  0  0  0  0  0  0  0  0
   37.8290   31.9770   40.5740 C   0  0  0  0  0  0  0  0  0  0  0  0
   36.9340   32.9520   40.2420 N   0  0  0  0  0  0  0  0  0  0  0  0
   37.6050   34.0350   39.7810 C   0  0  0  0  0  0  0  0  0  0  0  0
   38.9160   33.7230   39.8330 N   0  0  0  0  0  0  0  0  0  0  0  0
   39.0800   32.4720   40.3130 C   0  0  0  0  0  0  0  0  0  0  0  0
   40.2640   31.7930   40.5140 C   0  0  0  0  0  0  0  0  0  0  0  0
   41.0370   29.8900   41.2140 H   0  0  0  0  0  0  0  0  0  0  0  0
   36.7890   30.2880   41.2910 H   0  0  0  0  0  0  0  0  0  0  0  0
   35.9020   32.7550   40.3750 H   0  0  0  0  0  0  0  0  0  0  0  0
   37.0940   34.9380   39.4560 H   0  0  0  0  0  0  0  0  0  0  0  0
   39.1440   27.1020   43.5870 C   0  0  0  0  0  0  0  0  0  0  0  0
   38.6020   26.0620   42.8320 C   0  0  0  0  0  0  0  0  0  0  0  0
   38.1690   26.3630   41.5360 C   0  0  0  0  0  0  0  0  0  0  0  0
   38.2990   27.6540   41.0820 N   0  0  0  0  0  0  0  0  0  0  0  0
   38.8220   28.6290   41.8270 C   0  0  0  0  0  0  0  0  0  0  0  0
   39.2400   28.3420   43.0750 N   0  0  0  0  0  0  0  0  0  0  0  0
   39.4990   26.9440   44.5960 H   0  0  0  0  0  0  0  0  0  0  0  0
   38.5210   25.0760   43.2290 H   0  0  0  0  0  0  0  0  0  0  0  0
   37.7380   25.6010   40.8970 H   0  0  0  0  0  0  0  0  0  0  0  0
   41.5900   32.3800   40.2110 C   0  0  0  0  0  0  0  0  0  0  0  0
   42.3080   33.0960   41.1720 C   0  0  0  0  0  0  0  0  0  0  0  0
   42.0130   33.3020   42.1930 H   0  0  0  0  0  0  0  0  0  0  0  0
   43.8240   33.5710   40.2620 S   0  0  0  0  0  0  0  0  0  0  0  0
   43.2040   32.6910   38.6930 C   0  0  0  0  0  0  0  0  0  0  0  0
   43.7060   32.6080   37.7110 H   0  0  0  0  0  0  0  0  0  0  0  0
   42.1660   32.2580   39.0080 N   0  0  0  0  0  0  0  0  0  0  0  0
  1 10  1  0  0  0  0
  1  2  1  0  0  0  0
  2 18  1  0  0  0  0
  3 11  1  0  0  0  0
  3  2  2  0  0  0  0
  4  3  1  0  0  0  0
  5 12  1  0  0  0  0
  5  4  1  0  0  0  0
  6  7  2  0  0  0  0
  6  5  1  0  0  0  0
  7  8  1  0  0  0  0
  8  9  1  0  0  0  0
  8  4  2  0  0  0  0
  9  1  2  0  0  0  0
 13  6  1  0  0  0  0
 14 20  1  0  0  0  0
 15 21  1  0  0  0  0
 15 14  2  0  0  0  0
 16 15  1  0  0  0  0
 17 16  2  0  0  0  0
 17 18  1  0  0  0  0
 18 19  2  0  0  0  0
 19 14  1  0  0  0  0
 22 16  1  0  0  0  0
 23  9  1  0  0  0  0
 23 24  2  0  0  0  0
 24 25  1  0  0  0  0
 26 24  1  0  0  0  0
 27 29  2  0  0  0  0
 27 26  1  0  0  0  0
 28 27  1  0  0  0  0
 29 23  1  0  0  0  0
M  END
>  <minimizedAffinity>
-4.88359642

$$$$

 OpenBabel03252506533D

 29 32  0  0  0  0  0  0  0  0999 V2000
   38.6650   29.1130   39.7800 C   0  0  0  0  0  0  0  0  0  0  0  0
   38.9010   30.2400   40.5240 C   0  0  0  0  0  0  0  0  0  0  0  0
   38.4940   30.3430   41.8470 C   0  0  0  0  0  0  0  0  0  0  0  0
   37.8290   29.2870   42.4500 C   0  0  0  0  0  0  0  0  0  0  0  0
   37.2970   29.0290   43.6800 N   0  0  0  0  0  0  0  0  0  0  0  0
   36.7570   27.7860   43.6800 C   0  0  0  0  0  0  0  0  0  0  0  0
   36.9580   27.2820   42.4450 N   0  0  0  0  0  0  0  0  0  0  0  0
   37.6110   28.1780   41.6750 C   0  0  0  0  0  0  0  0  0  0  0  0
   37.9990   28.0370   40.3590 C   0  0  0  0  0  0  0  0  0  0  0  0
   39.0080   29.0980   38.7580 H   0  0  0  0  0  0  0  0  0  0  0  0
   38.6710   31.2210   42.4450 H   0  0  0  0  0  0  0  0  0  0  0  0
   37.3670   29.7760   44.4260 H   0  0  0  0  0  0  0  0  0  0  0  0
   36.2740   27.3640   44.5580 H   0  0  0  0  0  0  0  0  0  0  0  0
   40.7320   32.3320   38.1180 C   0  0  0  0  0  0  0  0  0  0  0  0
   40.9120   33.5250   38.8170 C   0  0  0  0  0  0  0  0  0  0  0  0
   40.3980   33.5950   40.1170 C   0  0  0  0  0  0  0  0  0  0  0  0
   39.7500   32.4960   40.6280 N   0  0  0  0  0  0  0  0  0  0  0  0
   39.5930   31.3680   39.9340 C   0  0  0  0  0  0  0  0  0  0  0  0
   40.0870   31.2970   38.6830 N   0  0  0  0  0  0  0  0  0  0  0  0
   41.1030   32.2050   37.1090 H   0  0  0  0  0  0  0  0  0  0  0  0
   41.4220   34.3520   38.3770 H   0  0  0  0  0  0  0  0  0  0  0  0
   40.5040   34.4930   40.7140 H   0  0  0  0  0  0  0  0  0  0  0  0
   37.7350   26.8100   39.5700 C   0  0  0  0  0  0  0  0  0  0  0  0
   38.7320   25.8560   39.3480 C   0  0  0  0  0  0  0  0  0  0  0  0
   39.7560   25.8840   39.6990 H   0  0  0  0  0  0  0  0  0  0  0  0
   37.8610   24.5990   38.3410 S   0  0  0  0  0  0  0  0  0  0  0  0
   36.2520   25.6140   38.3980 C   0  0  0  0  0  0  0  0  0  0  0  0
   35.2750   25.3720   37.9400 H   0  0  0  0  0  0  0  0  0  0  0  0
   36.5370   26.5540   39.0300 N   0  0  0  0  0  0  0  0  0  0  0  0
  1  9  2  0  0  0  0
  1  2  1  0  0  0  0
  2  3  2  0  0  0  0
  3 11  1  0  0  0  0
  3  4  1  0  0  0  0
  4  5  1  0  0  0  0
  5 12  1  0  0  0  0
  6  5  1  0  0  0  0
  6 13  1  0  0  0  0
  7  6  2  0  0  0  0
  8  7  1  0  0  0  0
  8  4  2  0  0  0  0
  9  8  1  0  0  0  0
 10  1  1  0  0  0  0
 14 19  2  0  0  0  0
 14 15  1  0  0  0  0
 15 16  2  0  0  0  0
 16 17  1  0  0  0  0
 16 22  1  0  0  0  0
 18  2  1  0  0  0  0
 18 17  2  0  0  0  0
 19 18  1  0  0  0  0
 20 14  1  0  0  0  0
 21 15  1  0  0  0  0
 23  9  1  0  0  0  0
 24 23  2  0  0  0  0
 24 25  1  0  0  0  0
 26 27  1  0  0  0  0
 26 24  1  0  0  0  0
 27 29  2  0  0  0  0
 28 27  1  0  0  0  0
 29 23  1  0  0  0  0
M  END
>  <minimizedAffinity>
-4.70262146

$$$$

 OpenBabel03252506533D

 29 32  0  0  0  0  0  0  0  0999 V2000
   38.5580   30.2650   37.9760 C   0  0  0  0  0  0  0  0  0  0  0  0
   37.2140   30.3340   38.2400 C   0  0  0  0  0  0  0  0  0  0  0  0
   36.6620   31.3860   38.9590 C   0  0  0  0  0  0  0  0  0  0  0  0
   37.4760   32.4040   39.4300 C   0  0  0  0  0  0  0  0  0  0  0  0
   37.3030   33.5540   40.1440 N   0  0  0  0  0  0  0  0  0  0  0  0
   38.5040   34.1610   40.3060 C   0  0  0  0  0  0  0  0  0  0  0  0
   39.4140   33.3800   39.6910 N   0  0  0  0  0  0  0  0  0  0  0  0
   38.8120   32.3000   39.1470 C   0  0  0  0  0  0  0  0  0  0  0  0
   39.3990   31.2730   38.4380 C   0  0  0  0  0  0  0  0  0  0  0  0
   38.9220   29.4210   37.4120 H   0  0  0  0  0  0  0  0  0  0  0  0
   35.6090   31.4550   39.1740 H   0  0  0  0  0  0  0  0  0  0  0  0
   36.3260   33.8100   40.4590 H   0  0  0  0  0  0  0  0  0  0  0  0
   38.6100   35.0990   40.8470 H   0  0  0  0  0  0  0  0  0  0  0  0
   35.9660   27.3560   36.4810 C   0  0  0  0  0  0  0  0  0  0  0  0
   34.6260   27.3070   36.8660 C   0  0  0  0  0  0  0  0  0  0  0  0
   34.1660   28.3070   37.7310 C   0  0  0  0  0  0  0  0  0  0  0  0
   35.0500   29.2710   38.1510 N   0  0  0  0  0  0  0  0  0  0  0  0
   36.3270   29.2920   37.7660 C   0  0  0  0  0  0  0  0  0  0  0  0
   36.7730   28.3320   36.9330 N   0  0  0  0  0  0  0  0  0  0  0  0
   36.3910   26.6180   35.8150 H   0  0  0  0  0  0  0  0  0  0  0  0
   33.9780   26.5370   36.5140 H   0  0  0  0  0  0  0  0  0  0  0  0
   33.1360   28.3260   38.0680 H   0  0  0  0  0  0  0  0  0  0  0  0
   40.8540   31.2150   38.1610 C   0  0  0  0  0  0  0  0  0  0  0  0
   41.7140   30.4310   38.9330 C   0  0  0  0  0  0  0  0  0  0  0  0
   41.4510   29.8040   39.7760 H   0  0  0  0  0  0  0  0  0  0  0  0
   43.3420   30.7430   38.1560 S   0  0  0  0  0  0  0  0  0  0  0  0
   42.5520   31.9160   36.8840 C   0  0  0  0  0  0  0  0  0  0  0  0
   43.0480   32.4760   36.0690 H   0  0  0  0  0  0  0  0  0  0  0  0
   41.4180   31.9090   37.1640 N   0  0  0  0  0  0  0  0  0  0  0  0
  1  2  2  0  0  0  0
  1  9  1  0  0  0  0
  2  3  1  0  0  0  0
  3 11  1  0  0  0  0
  3  4  2  0  0  0  0
  4  5  1  0  0  0  0
  5  6  1  0  0  0  0
  5 12  1  0  0  0  0
  6 13  1  0  0  0  0
  7  6  2  0  0  0  0
  8  4  1  0  0  0  0
  8  7  1  0  0  0  0
  9  8  2  0  0  0  0
 10  1  1  0  0  0  0
 14 15  2  0  0  0  0
 14 19  1  0  0  0  0
 15 16  1  0  0  0  0
 16 22  1  0  0  0  0
 16 17  2  0  0  0  0
 18 17  1  0  0  0  0
 18  2  1  0  0  0  0
 19 18  2  0  0  0  0
 20 14  1  0  0  0  0
 21 15  1  0  0  0  0
 23  9  1  0  0  0  0
 23 24  2  0  0  0  0
 24 25  1  0  0  0  0
 26 24  1  0  0  0  0
 27 29  2  0  0  0  0
 27 26  1  0  0  0  0
 28 27  1  0  0  0  0
 29 23  1  0  0  0  0
M  END
>  <minimizedAffinity>
-4.66345501

$$$$

 OpenBabel03252506533D

 29 32  0  0  0  0  0  0  0  0999 V2000
   36.6390   25.5920   40.1880 C   0  0  0  0  0  0  0  0  0  0  0  0
   36.6500   24.2220   40.2450 C   0  0  0  0  0  0  0  0  0  0  0  0
   37.4920   23.5320   41.1070 C   0  0  0  0  0  0  0  0  0  0  0  0
   38.3510   24.2300   41.9400 C   0  0  0  0  0  0  0  0  0  0  0  0
   39.2860   23.9130   42.8820 N   0  0  0  0  0  0  0  0  0  0  0  0
   39.8230   25.0540   43.3780 C   0  0  0  0  0  0  0  0  0  0  0  0
   39.2160   26.0720   42.7370 N   0  0  0  0  0  0  0  0  0  0  0  0
   38.3130   25.5970   41.8530 C   0  0  0  0  0  0  0  0  0  0  0  0
   37.4930   26.3200   41.0120 C   0  0  0  0  0  0  0  0  0  0  0  0
   35.9610   26.0660   39.4960 H   0  0  0  0  0  0  0  0  0  0  0  0
   37.5120   22.4570   41.1640 H   0  0  0  0  0  0  0  0  0  0  0  0
   39.4620   22.8900   43.0930 H   0  0  0  0  0  0  0  0  0  0  0  0
   40.5930   25.0450   44.1460 H   0  0  0  0  0  0  0  0  0  0  0  0
   35.3040   22.4590   37.3130 C   0  0  0  0  0  0  0  0  0  0  0  0
   34.0760   21.9840   37.7730 C   0  0  0  0  0  0  0  0  0  0  0  0
   33.7240   22.2790   39.0950 C   0  0  0  0  0  0  0  0  0  0  0  0
   34.5980   23.0120   39.8610 N   0  0  0  0  0  0  0  0  0  0  0  0
   35.7670   23.4530   39.3930 C   0  0  0  0  0  0  0  0  0  0  0  0
   36.1090   23.1720   38.1210 N   0  0  0  0  0  0  0  0  0  0  0  0
   35.6420   22.2700   36.3030 H   0  0  0  0  0  0  0  0  0  0  0  0
   33.4310   21.4170   37.1400 H   0  0  0  0  0  0  0  0  0  0  0  0
   32.7840   21.9390   39.5140 H   0  0  0  0  0  0  0  0  0  0  0  0
   37.4940   27.8010   40.9640 C   0  0  0  0  0  0  0  0  0  0  0  0
   36.6580   28.5600   41.7860 C   0  0  0  0  0  0  0  0  0  0  0  0
   35.9480   28.1920   42.5170 H   0  0  0  0  0  0  0  0  0  0  0  0
   37.0780   30.2750   41.3050 S   0  0  0  0  0  0  0  0  0  0  0  0
   38.3500   29.6480   40.0370 C   0  0  0  0  0  0  0  0  0  0  0  0
   38.9960   30.2430   39.3640 H   0  0  0  0  0  0  0  0  0  0  0  0
   38.2910   28.4860   40.1340 N   0  0  0  0  0  0  0  0  0  0  0  0
  1  2  2  0  0  0  0
  1  9  1  0  0  0  0
  2  3  1  0  0  0  0
  3 11  1  0  0  0  0
  3  4  2  0  0  0  0
  4  5  1  0  0  0  0
  5 12  1  0  0  0  0
  5  6  1  0  0  0  0
  6 13  1  0  0  0  0
  7  6  2  0  0  0  0
  8  4  1  0  0  0  0
  8  7  1  0  0  0  0
  9  8  2  0  0  0  0
 10  1  1  0  0  0  0
 14 15  2  0  0  0  0
 14 19  1  0  0  0  0
 15 16  1  0  0  0  0
 16 22  1  0  0  0  0
 16 17  2  0  0  0  0
 18 17  1  0  0  0  0
 18  2  1  0  0  0  0
 19 18  2  0  0  0  0
 20 14  1  0  0  0  0
 21 15  1  0  0  0  0
 23  9  1  0  0  0  0
 23 24  2  0  0  0  0
 24 25  1  0  0  0  0
 26 24  1  0  0  0  0
 27 29  2  0  0  0  0
 27 26  1  0  0  0  0
 28 27  1  0  0  0  0
 29 23  1  0  0  0  0
M  END
>  <minimizedAffinity>
-4.61448002

$$$$
