
 OpenBabel03242511243D

 26 28  0  0  0  0  0  0  0  0999 V2000
   44.8290   33.1670   41.1020 Cl  0  0  0  0  0  0  0  0  0  0  0  0
   46.3510   33.9590   40.9010 C   0  0  0  0  0  0  0  0  0  0  0  0
   46.8670   34.7310   41.9180 C   0  0  0  0  0  0  0  0  0  0  0  0
   48.0860   35.4060   41.7940 C   0  0  0  0  0  0  0  0  0  0  0  0
   48.7350   35.2480   40.5890 C   0  0  0  0  0  0  0  0  0  0  0  0
   48.2300   34.4890   39.5870 C   0  0  0  0  0  0  0  0  0  0  0  0
   47.0240   33.8260   39.7220 C   0  0  0  0  0  0  0  0  0  0  0  0
   48.4160   35.9900   42.6440 H   0  0  0  0  0  0  0  0  0  0  0  0
   49.6770   35.7610   40.4740 H   0  0  0  0  0  0  0  0  0  0  0  0
   48.8350   34.4360   38.6730 H   0  0  0  0  0  0  0  0  0  0  0  0
   45.5950   34.0600   45.3170 C   0  0  0  0  0  0  0  0  0  0  0  0
   44.7070   35.1180   45.5180 C   0  0  0  0  0  0  0  0  0  0  0  0
   44.5450   36.0490   44.5040 C   0  0  0  0  0  0  0  0  0  0  0  0
   45.2560   35.8940   43.3590 N   0  0  0  0  0  0  0  0  0  0  0  0
   46.1210   34.8560   43.1720 C   0  0  0  0  0  0  0  0  0  0  0  0
   46.2710   33.9600   44.1580 N   0  0  0  0  0  0  0  0  0  0  0  0
   45.6900   33.3550   46.1370 H   0  0  0  0  0  0  0  0  0  0  0  0
   44.1100   35.2990   46.4050 H   0  0  0  0  0  0  0  0  0  0  0  0
   43.9000   36.9200   44.5050 H   0  0  0  0  0  0  0  0  0  0  0  0
   46.6250   33.0630   38.5460 C   0  0  0  0  0  0  0  0  0  0  0  0
   46.8520   33.5760   37.2790 C   0  0  0  0  0  0  0  0  0  0  0  0
   47.2390   34.3780   36.7320 H   0  0  0  0  0  0  0  0  0  0  0  0
   46.1700   32.2880   36.1390 S   0  0  0  0  0  0  0  0  0  0  0  0
   45.6750   31.2370   37.6480 C   0  0  0  0  0  0  0  0  0  0  0  0
   45.1440   30.1750   37.9270 H   0  0  0  0  0  0  0  0  0  0  0  0
   46.0310   31.8950   38.4850 N   0  0  0  0  0  0  0  0  0  0  0  0
  2  1  1  0  0  0  0
  2  3  1  0  0  0  0
  3 15  1  0  0  0  0
  4  3  2  0  0  0  0
  4  8  1  0  0  0  0
  5  4  1  0  0  0  0
  6  7  1  0  0  0  0
  6  5  2  0  0  0  0
  7  2  2  0  0  0  0
  9  5  1  0  0  0  0
 10  6  1  0  0  0  0
 11 12  1  0  0  0  0
 11 17  1  0  0  0  0
 12 18  1  0  0  0  0
 13 19  1  0  0  0  0
 13 12  2  0  0  0  0
 14 13  1  0  0  0  0
 15 14  2  0  0  0  0
 15 16  1  0  0  0  0
 16 11  2  0  0  0  0
 20  7  1  0  0  0  0
 21 20  2  0  0  0  0
 22 21  1  0  0  0  0
 23 21  1  0  0  0  0
 23 24  1  0  0  0  0
 24 25  1  0  0  0  0
 24 26  2  0  0  0  0
 26 20  1  0  0  0  0
M  END
>  <minimizedAffinity>
-5.43656778

>  <minimizedRMSD>
0.15902026

$$$$
