REMARK  Name = 
REMARK  4 active torsions:
REMARK  status: ('A' for Active; 'I' for Inactive)
REMARK    1  A    between atoms: C_1  and  C_21
REMARK    2  A    between atoms: C_2  and  C_9
REMARK    3  A    between atoms: C_6  and  C_14
REMARK    4  A    between atoms: C_19  and  C_33
REMARK                            x       y       z     vdW  Elec       q    Type
REMARK                         _______ _______ _______ _____ _____    ______ ____
ROOT
ATOM      1  C   UNL     1      45.133  33.937  40.699  0.00  0.00    +0.000 A 
ATOM      2  C   UNL     1      44.081  33.630  39.873  0.00  0.00    +0.000 A 
ATOM      3  C   UNL     1      44.381  33.153  38.629  0.00  0.00    +0.000 A 
ATOM      4  C   UNL     1      45.661  32.968  38.173  0.00  0.00    +0.000 A 
ATOM      5  C   UNL     1      46.686  33.285  39.025  0.00  0.00    +0.000 A 
ATOM      6  C   UNL     1      46.448  33.768  40.283  0.00  0.00    +0.000 A 
ATOM      7  H   UNL     1      43.556  32.907  37.968  0.00  0.00    +0.000 HD
ATOM      8  H   UNL     1      45.871  32.590  37.187  0.00  0.00    +0.000 HD
ATOM      9  H   UNL     1      47.699  33.140  38.667  0.00  0.00    +0.000 HD
ENDROOT
BRANCH   2  12
ATOM     10  C   UNL     1      40.796  35.258  40.797  0.00  0.00    +0.000 A 
ATOM     11  C   UNL     1      42.097  35.091  40.276  0.00  0.00    +0.000 A 
ATOM     12  C   UNL     1      42.745  33.841  40.395  0.00  0.00    +0.000 A 
ATOM     13  N   UNL     1      42.033  32.880  41.023  0.00  0.00    +0.000 NA
ATOM     14  C   UNL     1      40.801  33.067  41.506  0.00  0.00    +0.000 A 
ATOM     15  N   UNL     1      40.190  34.245  41.394  0.00  0.00    +0.000 NA
ATOM     16  N   UNL     1      40.203  36.537  40.644  0.00  0.00    +0.000 N 
ATOM     17  H   UNL     1      42.629  35.878  39.786  0.00  0.00    +0.000 HD
ATOM     18  H   UNL     1      40.391  32.192  41.971  0.00  0.00    +0.000 HD
ATOM     19  H   UNL     1      40.386  37.142  39.811  0.00  0.00    +0.000 HD
ATOM     20  H   UNL     1      39.572  36.812  41.438  0.00  0.00    +0.000 HD
ENDBRANCH   2  12
BRANCH   6  21
ATOM     21  C   UNL     1      47.596  34.073  41.109  0.00  0.00    +0.000 A 
ATOM     22  C   UNL     1      48.137  35.324  40.946  0.00  0.00    +0.000 A 
ATOM     23  C   UNL     1      49.245  35.800  41.654  0.00  0.00    +0.000 A 
ATOM     24  C   UNL     1      49.822  34.947  42.570  0.00  0.00    +0.000 A 
ATOM     25  C   UNL     1      49.303  33.693  42.753  0.00  0.00    +0.000 A 
ATOM     26  C   UNL     1      48.204  33.255  42.035  0.00  0.00    +0.000 A 
ATOM     27  H   UNL     1      47.727  36.040  40.239  0.00  0.00    +0.000 HD
ATOM     28  H   UNL     1      49.642  36.793  41.496  0.00  0.00    +0.000 HD
ATOM     29  H   UNL     1      50.682  35.225  43.164  0.00  0.00    +0.000 HD
ATOM     30  H   UNL     1      49.678  32.940  43.449  0.00  0.00    +0.000 HD
BRANCH  26  31
ATOM     31  C   UNL     1      47.605  31.908  42.195  0.00  0.00    +0.000 A 
ATOM     32  C   UNL     1      46.291  31.694  42.205  0.00  0.00    +0.000 A 
ATOM     33  H   UNL     1      45.409  32.313  42.114  0.00  0.00    +0.000 HD
ATOM     34  S   UNL     1      46.197  29.886  42.430  0.00  0.00    +0.000 S 
ATOM     35  C   UNL     1      48.098  29.750  42.472  0.00  0.00    +0.000 A 
ATOM     36  H   UNL     1      48.615  28.802  42.598  0.00  0.00    +0.000 HD
ATOM     37  N   UNL     1      48.349  30.836  42.339  0.00  0.00    +0.000 NA
ENDBRANCH  26  31
ENDBRANCH   6  21
BRANCH   1  39
ATOM     38  N   UNL     1      44.720  34.855  43.109  0.00  0.00    +0.000 NA
ATOM     39  C   UNL     1      44.902  34.450  42.031  0.00  0.00    +0.000 C 
ENDBRANCH   1  39
TORSDOF 4
