
 OpenBabel03242512413D

 21 22  0  0  0  0  0  0  0  0999 V2000
   45.6380   33.9950   45.3180 C   0  0  0  0  0  0  0  0  0  0  0  0
   46.0020   33.7730   43.9810 C   0  0  0  0  0  0  0  0  0  0  0  0
   46.8740   32.7060   43.7270 C   0  0  0  0  0  0  0  0  0  0  0  0
   47.3120   31.9560   44.7780 N   0  0  0  0  0  0  0  0  0  0  0  0
   46.9280   32.2190   46.0320 C   0  0  0  0  0  0  0  0  0  0  0  0
   46.0940   33.2310   46.3260 N   0  0  0  0  0  0  0  0  0  0  0  0
   45.6220   34.4020   43.1920 H   0  0  0  0  0  0  0  0  0  0  0  0
   47.1550   32.5330   42.7060 H   0  0  0  0  0  0  0  0  0  0  0  0
   47.5030   31.3060   47.0130 C   0  0  0  0  0  0  0  0  0  0  0  0
   47.7910   32.0520   48.2030 C   0  0  0  0  0  0  0  0  0  0  0  0
   47.7700   33.0530   48.7270 H   0  0  0  0  0  0  0  0  0  0  0  0
   48.5250   30.7620   49.3840 S   0  0  0  0  0  0  0  0  0  0  0  0
   48.2870   29.4550   48.0020 C   0  0  0  0  0  0  0  0  0  0  0  0
   48.4190   28.2900   47.6720 H   0  0  0  0  0  0  0  0  0  0  0  0
   47.8330   30.0430   47.1500 N   0  0  0  0  0  0  0  0  0  0  0  0
   44.7880   35.0360   45.5700 O   0  0  0  0  0  0  0  0  0  0  0  0
   44.3950   35.9480   44.5880 C   0  0  0  0  0  0  0  0  0  0  0  0
   44.9800   37.0520   44.2860 O   0  0  0  0  0  0  0  0  0  0  0  0
   43.2570   35.7740   43.7610 N   0  0  0  0  0  0  0  0  0  0  0  0
   42.8980   35.4740   42.8220 H   0  0  0  0  0  0  0  0  0  0  0  0
   42.3730   36.0530   44.2610 H   0  0  0  0  0  0  0  0  0  0  0  0
  1 16  1  0  0  0  0
  1  6  1  0  0  0  0
  2  1  2  0  0  0  0
  3  2  1  0  0  0  0
  3  4  2  0  0  0  0
  4  5  1  0  0  0  0
  5  6  2  0  0  0  0
  5  9  1  0  0  0  0
  7  2  1  0  0  0  0
  8  3  1  0  0  0  0
  9 15  1  0  0  0  0
  9 10  2  0  0  0  0
 10 11  1  0  0  0  0
 10 12  1  0  0  0  0
 13 12  1  0  0  0  0
 14 13  1  0  0  0  0
 15 13  2  0  0  0  0
 17 16  1  0  0  0  0
 18 17  2  0  0  0  0
 19 21  1  0  0  0  0
 19 17  1  0  0  0  0
 20 19  1  0  0  0  0
M  END
>  <minimizedAffinity>
-4.4905448

>  <minimizedRMSD>
0.7735672

$$$$
