
 OpenBabel03242512393D

 32 35  0  0  0  0  0  0  0  0999 V2000
   35.6360   29.0900   39.7950 C   0  0  0  0  0  0  0  0  0  0  0  0
   34.3820   29.2030   39.9410 O   0  0  0  0  0  0  0  0  0  0  0  0
   36.4810   28.0430   41.9280 C   0  0  0  0  0  0  0  0  0  0  0  0
   36.2040   27.9730   40.5580 C   0  0  0  0  0  0  0  0  0  0  0  0
   36.4730   26.7990   39.9070 C   0  0  0  0  0  0  0  0  0  0  0  0
   37.0030   25.6620   40.5020 C   0  0  0  0  0  0  0  0  0  0  0  0
   37.3320   24.4400   40.0630 N   0  0  0  0  0  0  0  0  0  0  0  0
   37.8070   23.7180   41.0820 C   0  0  0  0  0  0  0  0  0  0  0  0
   37.7800   24.5180   42.2250 C   0  0  0  0  0  0  0  0  0  0  0  0
   37.2710   25.7450   41.8580 C   0  0  0  0  0  0  0  0  0  0  0  0
   37.0140   26.9140   42.5520 C   0  0  0  0  0  0  0  0  0  0  0  0
   36.2730   28.9540   42.4410 H   0  0  0  0  0  0  0  0  0  0  0  0
   36.2910   26.6450   38.8290 H   0  0  0  0  0  0  0  0  0  0  0  0
   37.2430   24.0770   39.0810 H   0  0  0  0  0  0  0  0  0  0  0  0
   38.1540   22.6820   41.0140 H   0  0  0  0  0  0  0  0  0  0  0  0
   38.1060   24.1980   43.2000 H   0  0  0  0  0  0  0  0  0  0  0  0
   37.2330   26.9520   43.6110 H   0  0  0  0  0  0  0  0  0  0  0  0
   36.4720   29.9220   38.9890 C   0  0  0  0  0  0  0  0  0  0  0  0
   36.3950   29.7020   37.6050 C   0  0  0  0  0  0  0  0  0  0  0  0
   37.2190   30.5220   36.8060 C   0  0  0  0  0  0  0  0  0  0  0  0
   38.0110   31.4470   37.4100 N   0  0  0  0  0  0  0  0  0  0  0  0
   38.0340   31.6010   38.7340 C   0  0  0  0  0  0  0  0  0  0  0  0
   37.2600   30.8360   39.5280 N   0  0  0  0  0  0  0  0  0  0  0  0
   35.7590   28.9640   37.1690 H   0  0  0  0  0  0  0  0  0  0  0  0
   37.1810   30.3760   35.7520 H   0  0  0  0  0  0  0  0  0  0  0  0
   38.9370   32.6420   39.2770 C   0  0  0  0  0  0  0  0  0  0  0  0
   40.2920   32.8380   38.9350 C   0  0  0  0  0  0  0  0  0  0  0  0
   40.7340   32.1250   38.1620 H   0  0  0  0  0  0  0  0  0  0  0  0
   40.7220   34.2840   40.0010 S   0  0  0  0  0  0  0  0  0  0  0  0
   38.9630   34.3470   40.7170 C   0  0  0  0  0  0  0  0  0  0  0  0
   38.7500   35.1180   41.4510 H   0  0  0  0  0  0  0  0  0  0  0  0
   38.4120   33.4660   40.1760 N   0  0  0  0  0  0  0  0  0  0  0  0
  1  2  2  0  0  0  0
  1  4  1  0  0  0  0
  3 12  1  0  0  0  0
  3 11  1  0  0  0  0
  4  3  2  0  0  0  0
  5  6  2  0  0  0  0
  5  4  1  0  0  0  0
  6 10  1  0  0  0  0
  7  6  1  0  0  0  0
  7  8  1  0  0  0  0
  8  9  2  0  0  0  0
  9 16  1  0  0  0  0
 10  9  1  0  0  0  0
 10 11  2  0  0  0  0
 11 17  1  0  0  0  0
 13  5  1  0  0  0  0
 14  7  1  0  0  0  0
 15  8  1  0  0  0  0
 18 23  1  0  0  0  0
 18  1  1  0  0  0  0
 19 18  2  0  0  0  0
 20 21  2  0  0  0  0
 20 19  1  0  0  0  0
 21 22  1  0  0  0  0
 22 26  1  0  0  0  0
 22 23  2  0  0  0  0
 24 19  1  0  0  0  0
 25 20  1  0  0  0  0
 26 32  1  0  0  0  0
 27 26  2  0  0  0  0
 27 29  1  0  0  0  0
 28 27  1  0  0  0  0
 29 30  1  0  0  0  0
 30 31  1  0  0  0  0
 32 30  2  0  0  0  0
M  END
>  <minimizedAffinity>
-5.81775188

$$$$

 OpenBabel03242512393D

 32 35  0  0  0  0  0  0  0  0999 V2000
   37.5170   31.1280   38.9120 C   0  0  0  0  0  0  0  0  0  0  0  0
   37.0100   30.8660   37.7810 O   0  0  0  0  0  0  0  0  0  0  0  0
   35.8770   29.5620   40.0140 C   0  0  0  0  0  0  0  0  0  0  0  0
   37.1390   30.1620   39.9490 C   0  0  0  0  0  0  0  0  0  0  0  0
   38.0630   29.8180   40.8990 C   0  0  0  0  0  0  0  0  0  0  0  0
   37.8460   28.9150   41.9310 C   0  0  0  0  0  0  0  0  0  0  0  0
   38.5940   28.4470   42.9390 N   0  0  0  0  0  0  0  0  0  0  0  0
   37.8750   27.5730   43.6510 C   0  0  0  0  0  0  0  0  0  0  0  0
   36.6100   27.4820   43.0690 C   0  0  0  0  0  0  0  0  0  0  0  0
   36.5930   28.3290   41.9830 C   0  0  0  0  0  0  0  0  0  0  0  0
   35.6310   28.6490   41.0410 C   0  0  0  0  0  0  0  0  0  0  0  0
   35.1530   29.8240   39.2760 H   0  0  0  0  0  0  0  0  0  0  0  0
   39.0840   30.2370   40.9340 H   0  0  0  0  0  0  0  0  0  0  0  0
   39.5880   28.7040   43.1610 H   0  0  0  0  0  0  0  0  0  0  0  0
   38.2320   27.0340   44.5340 H   0  0  0  0  0  0  0  0  0  0  0  0
   35.8160   26.8510   43.4320 H   0  0  0  0  0  0  0  0  0  0  0  0
   34.6600   28.1760   41.1050 H   0  0  0  0  0  0  0  0  0  0  0  0
   38.3750   32.2280   39.2190 C   0  0  0  0  0  0  0  0  0  0  0  0
   37.7950   33.2600   39.9720 C   0  0  0  0  0  0  0  0  0  0  0  0
   38.6390   34.3480   40.2780 C   0  0  0  0  0  0  0  0  0  0  0  0
   39.9250   34.3270   39.8360 N   0  0  0  0  0  0  0  0  0  0  0  0
   40.4110   33.3110   39.1240 C   0  0  0  0  0  0  0  0  0  0  0  0
   39.6330   32.2550   38.8140 N   0  0  0  0  0  0  0  0  0  0  0  0
   36.7790   33.2390   40.3010 H   0  0  0  0  0  0  0  0  0  0  0  0
   38.2240   35.1460   40.8480 H   0  0  0  0  0  0  0  0  0  0  0  0
   41.8270   33.4010   38.6980 C   0  0  0  0  0  0  0  0  0  0  0  0
   42.3470   33.0430   37.4360 C   0  0  0  0  0  0  0  0  0  0  0  0
   41.6030   32.6460   36.6680 H   0  0  0  0  0  0  0  0  0  0  0  0
   44.1390   33.4280   37.6680 S   0  0  0  0  0  0  0  0  0  0  0  0
   43.8380   34.0070   39.4530 C   0  0  0  0  0  0  0  0  0  0  0  0
   44.6980   34.3520   40.0170 H   0  0  0  0  0  0  0  0  0  0  0  0
   42.6850   33.8640   39.5990 N   0  0  0  0  0  0  0  0  0  0  0  0
  1 18  1  0  0  0  0
  1  4  1  0  0  0  0
  2  1  2  0  0  0  0
  3 11  1  0  0  0  0
  4  3  2  0  0  0  0
  4  5  1  0  0  0  0
  5 13  1  0  0  0  0
  5  6  2  0  0  0  0
  6 10  1  0  0  0  0
  6  7  1  0  0  0  0
  7 14  1  0  0  0  0
  7  8  1  0  0  0  0
  8 15  1  0  0  0  0
  9 16  1  0  0  0  0
  9  8  2  0  0  0  0
 10  9  1  0  0  0  0
 11 17  1  0  0  0  0
 11 10  2  0  0  0  0
 12  3  1  0  0  0  0
 18 19  1  0  0  0  0
 19 20  2  0  0  0  0
 19 24  1  0  0  0  0
 20 25  1  0  0  0  0
 21 20  1  0  0  0  0
 22 21  2  0  0  0  0
 23 22  1  0  0  0  0
 23 18  2  0  0  0  0
 26 22  1  0  0  0  0
 26 32  1  0  0  0  0
 27 29  1  0  0  0  0
 27 26  2  0  0  0  0
 28 27  1  0  0  0  0
 29 30  1  0  0  0  0
 30 32  2  0  0  0  0
 30 31  1  0  0  0  0
M  END
>  <minimizedAffinity>
-5.81411028

$$$$

 OpenBabel03242512393D

 32 35  0  0  0  0  0  0  0  0999 V2000
   36.3010   29.7330   40.7440 C   0  0  0  0  0  0  0  0  0  0  0  0
   36.1140   30.9150   41.1650 O   0  0  0  0  0  0  0  0  0  0  0  0
   34.5890   29.0170   39.0370 C   0  0  0  0  0  0  0  0  0  0  0  0
   35.8460   29.5370   39.3640 C   0  0  0  0  0  0  0  0  0  0  0  0
   36.6850   29.8840   38.3380 C   0  0  0  0  0  0  0  0  0  0  0  0
   36.3860   29.7590   36.9880 C   0  0  0  0  0  0  0  0  0  0  0  0
   37.0420   30.0330   35.8530 N   0  0  0  0  0  0  0  0  0  0  0  0
   36.2690   29.7160   34.8100 C   0  0  0  0  0  0  0  0  0  0  0  0
   35.0640   29.2160   35.3040 C   0  0  0  0  0  0  0  0  0  0  0  0
   35.1380   29.2440   36.6800 C   0  0  0  0  0  0  0  0  0  0  0  0
   34.2610   28.8820   37.6870 C   0  0  0  0  0  0  0  0  0  0  0  0
   33.9310   28.7460   39.8310 H   0  0  0  0  0  0  0  0  0  0  0  0
   37.6960   30.3000   38.4930 H   0  0  0  0  0  0  0  0  0  0  0  0
   38.0090   30.4330   35.7640 H   0  0  0  0  0  0  0  0  0  0  0  0
   36.5500   29.8330   33.7580 H   0  0  0  0  0  0  0  0  0  0  0  0
   34.2460   28.8790   34.6890 H   0  0  0  0  0  0  0  0  0  0  0  0
   33.2930   28.4820   37.4170 H   0  0  0  0  0  0  0  0  0  0  0  0
   36.8860   28.6580   41.4790 C   0  0  0  0  0  0  0  0  0  0  0  0
   37.3850   28.9890   42.7480 C   0  0  0  0  0  0  0  0  0  0  0  0
   37.9640   27.9290   43.4770 C   0  0  0  0  0  0  0  0  0  0  0  0
   38.0010   26.6900   42.9200 N   0  0  0  0  0  0  0  0  0  0  0  0
   37.5070   26.4460   41.7060 C   0  0  0  0  0  0  0  0  0  0  0  0
   36.9460   27.4350   40.9810 N   0  0  0  0  0  0  0  0  0  0  0  0
   37.3380   29.9760   43.1510 H   0  0  0  0  0  0  0  0  0  0  0  0
   38.3520   28.1530   44.4440 H   0  0  0  0  0  0  0  0  0  0  0  0
   37.6040   25.0560   41.2030 C   0  0  0  0  0  0  0  0  0  0  0  0
   38.6950   24.1770   41.3720 C   0  0  0  0  0  0  0  0  0  0  0  0
   39.5900   24.5780   41.9540 H   0  0  0  0  0  0  0  0  0  0  0  0
   38.0810   22.6750   40.4890 S   0  0  0  0  0  0  0  0  0  0  0  0
   36.4430   23.5350   40.0540 C   0  0  0  0  0  0  0  0  0  0  0  0
   35.7160   22.9650   39.4850 H   0  0  0  0  0  0  0  0  0  0  0  0
   36.5550   24.6000   40.5270 N   0  0  0  0  0  0  0  0  0  0  0  0
  1  2  2  0  0  0  0
  1 18  1  0  0  0  0
  3  4  1  0  0  0  0
  3 12  1  0  0  0  0
  4  1  1  0  0  0  0
  5 13  1  0  0  0  0
  5  4  2  0  0  0  0
  6  5  1  0  0  0  0
  7  6  1  0  0  0  0
  8  9  2  0  0  0  0
  8  7  1  0  0  0  0
  9 10  1  0  0  0  0
 10  6  2  0  0  0  0
 10 11  1  0  0  0  0
 11  3  2  0  0  0  0
 14  7  1  0  0  0  0
 15  8  1  0  0  0  0
 16  9  1  0  0  0  0
 17 11  1  0  0  0  0
 18 19  1  0  0  0  0
 19 24  1  0  0  0  0
 19 20  2  0  0  0  0
 20 25  1  0  0  0  0
 21 20  1  0  0  0  0
 22 21  2  0  0  0  0
 23 18  2  0  0  0  0
 23 22  1  0  0  0  0
 26 27  2  0  0  0  0
 26 22  1  0  0  0  0
 27 28  1  0  0  0  0
 29 27  1  0  0  0  0
 30 29  1  0  0  0  0
 30 32  2  0  0  0  0
 31 30  1  0  0  0  0
 32 26  1  0  0  0  0
M  END
>  <minimizedAffinity>
-5.67625141

$$$$

 OpenBabel03242512393D

 32 35  0  0  0  0  0  0  0  0999 V2000
   35.9800   29.2740   40.1730 C   0  0  0  0  0  0  0  0  0  0  0  0
   34.7440   29.2910   39.8900 O   0  0  0  0  0  0  0  0  0  0  0  0
   36.6200   27.9310   42.2080 C   0  0  0  0  0  0  0  0  0  0  0  0
   36.4010   28.0320   40.8300 C   0  0  0  0  0  0  0  0  0  0  0  0
   36.5830   26.9110   40.0660 C   0  0  0  0  0  0  0  0  0  0  0  0
   36.9730   25.6700   40.5530 C   0  0  0  0  0  0  0  0  0  0  0  0
   37.2010   24.4740   39.9950 N   0  0  0  0  0  0  0  0  0  0  0  0
   37.5570   23.6050   40.9460 C   0  0  0  0  0  0  0  0  0  0  0  0
   37.5550   24.2800   42.1670 C   0  0  0  0  0  0  0  0  0  0  0  0
   37.1850   25.5840   41.9180 C   0  0  0  0  0  0  0  0  0  0  0  0
   37.0120   26.6950   42.7250 C   0  0  0  0  0  0  0  0  0  0  0  0
   36.4790   28.8000   42.8090 H   0  0  0  0  0  0  0  0  0  0  0  0
   36.4370   26.8900   38.9710 H   0  0  0  0  0  0  0  0  0  0  0  0
   37.1220   24.2260   38.9770 H   0  0  0  0  0  0  0  0  0  0  0  0
   37.8040   22.5510   40.7790 H   0  0  0  0  0  0  0  0  0  0  0  0
   37.8030   23.8290   43.1140 H   0  0  0  0  0  0  0  0  0  0  0  0
   37.1850   26.5990   43.7890 H   0  0  0  0  0  0  0  0  0  0  0  0
   36.9220   30.3140   39.9070 C   0  0  0  0  0  0  0  0  0  0  0  0
   36.6130   31.5690   40.4550 C   0  0  0  0  0  0  0  0  0  0  0  0
   37.5410   32.5990   40.1960 C   0  0  0  0  0  0  0  0  0  0  0  0
   38.6450   32.3180   39.4530 N   0  0  0  0  0  0  0  0  0  0  0  0
   38.8750   31.1000   38.9630 C   0  0  0  0  0  0  0  0  0  0  0  0
   38.0100   30.0920   39.1910 N   0  0  0  0  0  0  0  0  0  0  0  0
   35.7340   31.7490   41.0330 H   0  0  0  0  0  0  0  0  0  0  0  0
   37.3300   33.5620   40.5990 H   0  0  0  0  0  0  0  0  0  0  0  0
   40.1120   30.9140   38.1680 C   0  0  0  0  0  0  0  0  0  0  0  0
   40.7150   29.6840   37.8310 C   0  0  0  0  0  0  0  0  0  0  0  0
   40.1990   28.7400   38.2090 H   0  0  0  0  0  0  0  0  0  0  0  0
   42.1750   30.2600   36.8570 S   0  0  0  0  0  0  0  0  0  0  0  0
   41.6840   32.0800   37.0950 C   0  0  0  0  0  0  0  0  0  0  0  0
   42.3230   32.8330   36.6450 H   0  0  0  0  0  0  0  0  0  0  0  0
   40.7040   32.0210   37.7340 N   0  0  0  0  0  0  0  0  0  0  0  0
  1  4  1  0  0  0  0
  2  1  2  0  0  0  0
  3 11  1  0  0  0  0
  3 12  1  0  0  0  0
  4  3  2  0  0  0  0
  5  6  2  0  0  0  0
  5  4  1  0  0  0  0
  6 10  1  0  0  0  0
  7  6  1  0  0  0  0
  7  8  1  0  0  0  0
  8  9  2  0  0  0  0
  9 16  1  0  0  0  0
 10  9  1  0  0  0  0
 10 11  2  0  0  0  0
 11 17  1  0  0  0  0
 13  5  1  0  0  0  0
 14  7  1  0  0  0  0
 15  8  1  0  0  0  0
 18  1  1  0  0  0  0
 18 19  1  0  0  0  0
 19 24  1  0  0  0  0
 20 19  2  0  0  0  0
 20 25  1  0  0  0  0
 21 20  1  0  0  0  0
 22 23  1  0  0  0  0
 22 21  2  0  0  0  0
 23 18  2  0  0  0  0
 26 22  1  0  0  0  0
 27 26  2  0  0  0  0
 27 28  1  0  0  0  0
 29 30  1  0  0  0  0
 29 27  1  0  0  0  0
 30 32  2  0  0  0  0
 31 30  1  0  0  0  0
 32 26  1  0  0  0  0
M  END
>  <minimizedAffinity>
-5.63234615

$$$$

 OpenBabel03242512393D

 32 35  0  0  0  0  0  0  0  0999 V2000
   38.1020   27.7330   42.5380 C   0  0  0  0  0  0  0  0  0  0  0  0
   38.6810   27.7460   43.6660 O   0  0  0  0  0  0  0  0  0  0  0  0
   36.9700   25.4850   42.3820 C   0  0  0  0  0  0  0  0  0  0  0  0
   37.9640   26.3840   41.9800 C   0  0  0  0  0  0  0  0  0  0  0  0
   38.8430   25.9780   41.0110 C   0  0  0  0  0  0  0  0  0  0  0  0
   38.8270   24.7360   40.3910 C   0  0  0  0  0  0  0  0  0  0  0  0
   39.5720   24.1510   39.4440 N   0  0  0  0  0  0  0  0  0  0  0  0
   39.1070   22.9200   39.2150 C   0  0  0  0  0  0  0  0  0  0  0  0
   38.0140   22.7090   40.0570 C   0  0  0  0  0  0  0  0  0  0  0  0
   37.8380   23.8570   40.7990 C   0  0  0  0  0  0  0  0  0  0  0  0
   36.9310   24.2290   41.7750 C   0  0  0  0  0  0  0  0  0  0  0  0
   36.2820   25.7950   43.1350 H   0  0  0  0  0  0  0  0  0  0  0  0
   39.6620   26.6120   40.6280 H   0  0  0  0  0  0  0  0  0  0  0  0
   40.3960   24.5670   38.9420 H   0  0  0  0  0  0  0  0  0  0  0  0
   39.5230   22.2120   38.4900 H   0  0  0  0  0  0  0  0  0  0  0  0
   37.4370   21.8010   40.0920 H   0  0  0  0  0  0  0  0  0  0  0  0
   36.1680   23.5220   42.0750 H   0  0  0  0  0  0  0  0  0  0  0  0
   37.6090   28.8690   41.8280 C   0  0  0  0  0  0  0  0  0  0  0  0
   36.2860   28.7720   41.3690 C   0  0  0  0  0  0  0  0  0  0  0  0
   35.7950   29.8930   40.6670 C   0  0  0  0  0  0  0  0  0  0  0  0
   36.6100   30.9660   40.4870 N   0  0  0  0  0  0  0  0  0  0  0  0
   37.8590   30.9900   40.9520 C   0  0  0  0  0  0  0  0  0  0  0  0
   38.3610   29.9370   41.6270 N   0  0  0  0  0  0  0  0  0  0  0  0
   35.6770   27.9110   41.5310 H   0  0  0  0  0  0  0  0  0  0  0  0
   34.7940   29.8460   40.3070 H   0  0  0  0  0  0  0  0  0  0  0  0
   38.6530   32.2140   40.6940 C   0  0  0  0  0  0  0  0  0  0  0  0
   40.0550   32.3410   40.7980 C   0  0  0  0  0  0  0  0  0  0  0  0
   40.6330   31.4090   41.1110 H   0  0  0  0  0  0  0  0  0  0  0  0
   40.2850   34.1140   40.3330 S   0  0  0  0  0  0  0  0  0  0  0  0
   38.4160   34.3480   40.0840 C   0  0  0  0  0  0  0  0  0  0  0  0
   38.0720   35.3310   39.7800 H   0  0  0  0  0  0  0  0  0  0  0  0
   37.9700   33.2930   40.3300 N   0  0  0  0  0  0  0  0  0  0  0  0
  1  2  2  0  0  0  0
  3 12  1  0  0  0  0
  4  3  1  0  0  0  0
  4  1  1  0  0  0  0
  5  4  2  0  0  0  0
  6 10  2  0  0  0  0
  6  5  1  0  0  0  0
  7  6  1  0  0  0  0
  8  7  1  0  0  0  0
  8  9  2  0  0  0  0
  9 16  1  0  0  0  0
  9 10  1  0  0  0  0
 10 11  1  0  0  0  0
 11 17  1  0  0  0  0
 11  3  2  0  0  0  0
 13  5  1  0  0  0  0
 14  7  1  0  0  0  0
 15  8  1  0  0  0  0
 18  1  1  0  0  0  0
 19 24  1  0  0  0  0
 19 18  2  0  0  0  0
 20 19  1  0  0  0  0
 21 20  2  0  0  0  0
 21 22  1  0  0  0  0
 22 23  2  0  0  0  0
 23 18  1  0  0  0  0
 25 20  1  0  0  0  0
 26 27  2  0  0  0  0
 26 22  1  0  0  0  0
 27 28  1  0  0  0  0
 29 27  1  0  0  0  0
 30 32  2  0  0  0  0
 30 29  1  0  0  0  0
 31 30  1  0  0  0  0
 32 26  1  0  0  0  0
M  END
>  <minimizedAffinity>
-5.57679415

$$$$

 OpenBabel03242512393D

 32 35  0  0  0  0  0  0  0  0999 V2000
   37.9160   28.2190   42.6690 C   0  0  0  0  0  0  0  0  0  0  0  0
   37.3690   28.7550   43.6800 O   0  0  0  0  0  0  0  0  0  0  0  0
   38.9170   28.8960   40.4560 C   0  0  0  0  0  0  0  0  0  0  0  0
   38.0710   29.1450   41.5420 C   0  0  0  0  0  0  0  0  0  0  0  0
   37.3520   30.3100   41.5420 C   0  0  0  0  0  0  0  0  0  0  0  0
   37.3950   31.2730   40.5420 C   0  0  0  0  0  0  0  0  0  0  0  0
   36.7870   32.4510   40.3480 N   0  0  0  0  0  0  0  0  0  0  0  0
   37.2000   32.9730   39.1890 C   0  0  0  0  0  0  0  0  0  0  0  0
   38.1130   32.0860   38.6190 C   0  0  0  0  0  0  0  0  0  0  0  0
   38.2360   31.0120   39.4730 C   0  0  0  0  0  0  0  0  0  0  0  0
   38.9800   29.8460   39.4360 C   0  0  0  0  0  0  0  0  0  0  0  0
   39.4800   27.9900   40.4500 H   0  0  0  0  0  0  0  0  0  0  0  0
   36.6600   30.5980   42.3530 H   0  0  0  0  0  0  0  0  0  0  0  0
   36.0940   32.9160   40.9850 H   0  0  0  0  0  0  0  0  0  0  0  0
   36.8690   33.9320   38.7750 H   0  0  0  0  0  0  0  0  0  0  0  0
   38.6120   32.2470   37.6780 H   0  0  0  0  0  0  0  0  0  0  0  0
   39.6290   29.6680   38.5880 H   0  0  0  0  0  0  0  0  0  0  0  0
   38.3600   26.8660   42.5670 C   0  0  0  0  0  0  0  0  0  0  0  0
   39.4390   26.5160   43.3940 C   0  0  0  0  0  0  0  0  0  0  0  0
   39.8800   25.1800   43.2970 C   0  0  0  0  0  0  0  0  0  0  0  0
   39.2500   24.3400   42.4330 N   0  0  0  0  0  0  0  0  0  0  0  0
   38.2300   24.7410   41.6750 C   0  0  0  0  0  0  0  0  0  0  0  0
   37.7810   26.0110   41.7430 N   0  0  0  0  0  0  0  0  0  0  0  0
   39.9070   27.2060   44.0600 H   0  0  0  0  0  0  0  0  0  0  0  0
   40.6980   24.8870   43.9130 H   0  0  0  0  0  0  0  0  0  0  0  0
   37.6230   23.7360   40.7710 C   0  0  0  0  0  0  0  0  0  0  0  0
   36.3330   23.7900   40.2030 C   0  0  0  0  0  0  0  0  0  0  0  0
   35.6930   24.6970   40.4670 H   0  0  0  0  0  0  0  0  0  0  0  0
   36.3100   22.2240   39.2230 S   0  0  0  0  0  0  0  0  0  0  0  0
   38.0760   21.7900   39.7770 C   0  0  0  0  0  0  0  0  0  0  0  0
   38.5020   20.8650   39.4030 H   0  0  0  0  0  0  0  0  0  0  0  0
   38.3760   22.6850   40.4700 N   0  0  0  0  0  0  0  0  0  0  0  0
  1  2  2  0  0  0  0
  3  4  1  0  0  0  0
  4  1  1  0  0  0  0
  5  4  2  0  0  0  0
  5 13  1  0  0  0  0
  6  5  1  0  0  0  0
  7  6  1  0  0  0  0
  7 14  1  0  0  0  0
  8  7  1  0  0  0  0
  9  8  2  0  0  0  0
  9 10  1  0  0  0  0
 10  6  2  0  0  0  0
 11 10  1  0  0  0  0
 11  3  2  0  0  0  0
 12  3  1  0  0  0  0
 15  8  1  0  0  0  0
 16  9  1  0  0  0  0
 17 11  1  0  0  0  0
 18  1  1  0  0  0  0
 18 19  1  0  0  0  0
 19 24  1  0  0  0  0
 20 19  2  0  0  0  0
 20 25  1  0  0  0  0
 21 20  1  0  0  0  0
 22 23  1  0  0  0  0
 22 21  2  0  0  0  0
 23 18  2  0  0  0  0
 26 22  1  0  0  0  0
 27 28  1  0  0  0  0
 27 26  2  0  0  0  0
 29 30  1  0  0  0  0
 29 27  1  0  0  0  0
 30 32  2  0  0  0  0
 31 30  1  0  0  0  0
 32 26  1  0  0  0  0
M  END
>  <minimizedAffinity>
-5.57570553

$$$$

 OpenBabel03242512393D

 32 35  0  0  0  0  0  0  0  0999 V2000
   36.8520   27.2920   42.5650 C   0  0  0  0  0  0  0  0  0  0  0  0
   36.2300   27.3440   43.6690 O   0  0  0  0  0  0  0  0  0  0  0  0
   35.7100   28.8250   40.9200 C   0  0  0  0  0  0  0  0  0  0  0  0
   36.7620   28.5390   41.7970 C   0  0  0  0  0  0  0  0  0  0  0  0
   37.7490   29.4770   41.9450 C   0  0  0  0  0  0  0  0  0  0  0  0
   37.7900   30.7000   41.2890 C   0  0  0  0  0  0  0  0  0  0  0  0
   38.6380   31.7360   41.2900 N   0  0  0  0  0  0  0  0  0  0  0  0
   38.1850   32.6780   40.4580 C   0  0  0  0  0  0  0  0  0  0  0  0
   36.9910   32.2190   39.8990 C   0  0  0  0  0  0  0  0  0  0  0  0
   36.7420   30.9700   40.4250 C   0  0  0  0  0  0  0  0  0  0  0  0
   35.7260   30.0480   40.2470 C   0  0  0  0  0  0  0  0  0  0  0  0
   34.9380   28.1000   40.8010 H   0  0  0  0  0  0  0  0  0  0  0  0
   38.6200   29.3440   42.6100 H   0  0  0  0  0  0  0  0  0  0  0  0
   39.5260   31.8250   41.8450 H   0  0  0  0  0  0  0  0  0  0  0  0
   38.6770   33.6360   40.2600 H   0  0  0  0  0  0  0  0  0  0  0  0
   36.3990   32.7710   39.1890 H   0  0  0  0  0  0  0  0  0  0  0  0
   34.9190   30.2860   39.5660 H   0  0  0  0  0  0  0  0  0  0  0  0
   37.5830   26.1750   42.0590 C   0  0  0  0  0  0  0  0  0  0  0  0
   36.9310   24.9350   42.1360 C   0  0  0  0  0  0  0  0  0  0  0  0
   37.6500   23.8290   41.6370 C   0  0  0  0  0  0  0  0  0  0  0  0
   38.8940   24.0300   41.1270 N   0  0  0  0  0  0  0  0  0  0  0  0
   39.4540   25.2390   41.0850 C   0  0  0  0  0  0  0  0  0  0  0  0
   38.7960   26.3180   41.5520 N   0  0  0  0  0  0  0  0  0  0  0  0
   35.9520   24.8190   42.5450 H   0  0  0  0  0  0  0  0  0  0  0  0
   37.1790   22.8760   41.6840 H   0  0  0  0  0  0  0  0  0  0  0  0
   40.8150   25.3330   40.5060 C   0  0  0  0  0  0  0  0  0  0  0  0
   41.1400   25.4030   39.1340 C   0  0  0  0  0  0  0  0  0  0  0  0
   40.2680   25.3840   38.3990 H   0  0  0  0  0  0  0  0  0  0  0  0
   42.9830   25.4990   39.2100 S   0  0  0  0  0  0  0  0  0  0  0  0
   42.9620   25.4250   41.1100 C   0  0  0  0  0  0  0  0  0  0  0  0
   43.9180   25.4570   41.6210 H   0  0  0  0  0  0  0  0  0  0  0  0
   41.8220   25.3540   41.3710 N   0  0  0  0  0  0  0  0  0  0  0  0
  1  2  2  0  0  0  0
  3  4  1  0  0  0  0
  4  5  2  0  0  0  0
  4  1  1  0  0  0  0
  5 13  1  0  0  0  0
  6  7  1  0  0  0  0
  6  5  1  0  0  0  0
  7 14  1  0  0  0  0
  8  7  1  0  0  0  0
  9 10  1  0  0  0  0
  9  8  2  0  0  0  0
 10  6  2  0  0  0  0
 11 10  1  0  0  0  0
 11  3  2  0  0  0  0
 12  3  1  0  0  0  0
 15  8  1  0  0  0  0
 16  9  1  0  0  0  0
 17 11  1  0  0  0  0
 18 19  1  0  0  0  0
 18  1  1  0  0  0  0
 19 24  1  0  0  0  0
 20 25  1  0  0  0  0
 20 19  2  0  0  0  0
 21 20  1  0  0  0  0
 22 21  2  0  0  0  0
 22 23  1  0  0  0  0
 23 18  2  0  0  0  0
 26 22  1  0  0  0  0
 26 32  1  0  0  0  0
 27 29  1  0  0  0  0
 27 26  2  0  0  0  0
 28 27  1  0  0  0  0
 29 30  1  0  0  0  0
 30 32  2  0  0  0  0
 30 31  1  0  0  0  0
M  END
>  <minimizedAffinity>
-5.48497152

$$$$

 OpenBabel03242512393D

 32 35  0  0  0  0  0  0  0  0999 V2000
   37.7570   27.8880   42.7140 C   0  0  0  0  0  0  0  0  0  0  0  0
   36.9370   27.9340   43.6800 O   0  0  0  0  0  0  0  0  0  0  0  0
   36.7980   27.0080   40.5540 C   0  0  0  0  0  0  0  0  0  0  0  0
   37.4660   26.8060   41.7660 C   0  0  0  0  0  0  0  0  0  0  0  0
   37.8720   25.5340   42.0730 C   0  0  0  0  0  0  0  0  0  0  0  0
   37.6710   24.4190   41.2700 C   0  0  0  0  0  0  0  0  0  0  0  0
   37.9800   23.1200   41.3760 N   0  0  0  0  0  0  0  0  0  0  0  0
   37.5450   22.4740   40.2900 C   0  0  0  0  0  0  0  0  0  0  0  0
   36.9280   23.4060   39.4540 C   0  0  0  0  0  0  0  0  0  0  0  0
   37.0090   24.6340   40.0730 C   0  0  0  0  0  0  0  0  0  0  0  0
   36.5830   25.9040   39.7270 C   0  0  0  0  0  0  0  0  0  0  0  0
   36.4810   27.9960   40.3090 H   0  0  0  0  0  0  0  0  0  0  0  0
   38.4040   25.2730   43.0050 H   0  0  0  0  0  0  0  0  0  0  0  0
   38.4830   22.6540   42.1710 H   0  0  0  0  0  0  0  0  0  0  0  0
   37.6590   21.4010   40.1060 H   0  0  0  0  0  0  0  0  0  0  0  0
   36.4820   23.1690   38.5030 H   0  0  0  0  0  0  0  0  0  0  0  0
   36.0690   26.0430   38.7850 H   0  0  0  0  0  0  0  0  0  0  0  0
   38.8660   28.7620   42.5040 C   0  0  0  0  0  0  0  0  0  0  0  0
   40.1150   28.2700   42.9140 C   0  0  0  0  0  0  0  0  0  0  0  0
   41.2130   29.1300   42.7080 C   0  0  0  0  0  0  0  0  0  0  0  0
   40.9990   30.3470   42.1410 N   0  0  0  0  0  0  0  0  0  0  0  0
   39.7820   30.7510   41.7740 C   0  0  0  0  0  0  0  0  0  0  0  0
   38.7100   29.9540   41.9560 N   0  0  0  0  0  0  0  0  0  0  0  0
   40.2420   27.3070   43.3570 H   0  0  0  0  0  0  0  0  0  0  0  0
   42.1730   28.7820   43.0110 H   0  0  0  0  0  0  0  0  0  0  0  0
   39.6720   32.0980   41.1660 C   0  0  0  0  0  0  0  0  0  0  0  0
   38.4780   32.7650   40.8190 C   0  0  0  0  0  0  0  0  0  0  0  0
   37.5020   32.2130   41.0270 H   0  0  0  0  0  0  0  0  0  0  0  0
   39.1430   34.3480   40.1360 S   0  0  0  0  0  0  0  0  0  0  0  0
   40.9330   33.7960   40.4550 C   0  0  0  0  0  0  0  0  0  0  0  0
   41.7250   34.4850   40.1790 H   0  0  0  0  0  0  0  0  0  0  0  0
   40.8140   32.7310   40.9280 N   0  0  0  0  0  0  0  0  0  0  0  0
  1  2  2  0  0  0  0
  3  4  1  0  0  0  0
  4  5  2  0  0  0  0
  4  1  1  0  0  0  0
  5 13  1  0  0  0  0
  6  7  1  0  0  0  0
  6  5  1  0  0  0  0
  7 14  1  0  0  0  0
  8  7  1  0  0  0  0
  9 10  1  0  0  0  0
  9  8  2  0  0  0  0
 10  6  2  0  0  0  0
 11 10  1  0  0  0  0
 11  3  2  0  0  0  0
 12  3  1  0  0  0  0
 15  8  1  0  0  0  0
 16  9  1  0  0  0  0
 17 11  1  0  0  0  0
 18  1  1  0  0  0  0
 18 19  1  0  0  0  0
 19 24  1  0  0  0  0
 20 19  2  0  0  0  0
 20 25  1  0  0  0  0
 21 20  1  0  0  0  0
 22 23  1  0  0  0  0
 22 21  2  0  0  0  0
 23 18  2  0  0  0  0
 26 22  1  0  0  0  0
 27 28  1  0  0  0  0
 27 26  2  0  0  0  0
 29 30  1  0  0  0  0
 29 27  1  0  0  0  0
 30 32  2  0  0  0  0
 31 30  1  0  0  0  0
 32 26  1  0  0  0  0
M  END
>  <minimizedAffinity>
-5.4407568

$$$$

 OpenBabel03242512393D

 32 35  0  0  0  0  0  0  0  0999 V2000
   36.3780   29.0540   40.4830 C   0  0  0  0  0  0  0  0  0  0  0  0
   35.1440   28.9170   40.7440 O   0  0  0  0  0  0  0  0  0  0  0  0
   37.4990   28.7880   42.7260 C   0  0  0  0  0  0  0  0  0  0  0  0
   37.2460   28.3390   41.4250 C   0  0  0  0  0  0  0  0  0  0  0  0
   37.8360   27.1710   41.0210 C   0  0  0  0  0  0  0  0  0  0  0  0
   38.6730   26.3890   41.8070 C   0  0  0  0  0  0  0  0  0  0  0  0
   39.3350   25.2410   41.6150 N   0  0  0  0  0  0  0  0  0  0  0  0
   40.0030   24.9270   42.7280 C   0  0  0  0  0  0  0  0  0  0  0  0
   39.7550   25.9220   43.6740 C   0  0  0  0  0  0  0  0  0  0  0  0
   38.9140   26.8450   43.0920 C   0  0  0  0  0  0  0  0  0  0  0  0
   38.3370   28.0210   43.5370 C   0  0  0  0  0  0  0  0  0  0  0  0
   37.0420   29.6960   43.0460 H   0  0  0  0  0  0  0  0  0  0  0  0
   37.6990   26.7360   40.0160 H   0  0  0  0  0  0  0  0  0  0  0  0
   39.3480   24.6580   40.7410 H   0  0  0  0  0  0  0  0  0  0  0  0
   40.6310   24.0390   42.8580 H   0  0  0  0  0  0  0  0  0  0  0  0
   40.1640   25.9320   44.6710 H   0  0  0  0  0  0  0  0  0  0  0  0
   38.5420   28.3530   44.5460 H   0  0  0  0  0  0  0  0  0  0  0  0
   36.9350   29.8060   39.4050 C   0  0  0  0  0  0  0  0  0  0  0  0
   36.3200   29.6260   38.1560 C   0  0  0  0  0  0  0  0  0  0  0  0
   36.8680   30.3670   37.0880 C   0  0  0  0  0  0  0  0  0  0  0  0
   37.9250   31.1860   37.3300 N   0  0  0  0  0  0  0  0  0  0  0  0
   38.4610   31.3090   38.5450 C   0  0  0  0  0  0  0  0  0  0  0  0
   37.9630   30.6160   39.5880 N   0  0  0  0  0  0  0  0  0  0  0  0
   35.4900   28.9720   38.0070 H   0  0  0  0  0  0  0  0  0  0  0  0
   36.4210   30.2490   36.1290 H   0  0  0  0  0  0  0  0  0  0  0  0
   39.6110   32.2320   38.6860 C   0  0  0  0  0  0  0  0  0  0  0  0
   40.5610   32.5460   37.6920 C   0  0  0  0  0  0  0  0  0  0  0  0
   40.4300   32.0380   36.6790 H   0  0  0  0  0  0  0  0  0  0  0  0
   41.6480   33.7310   38.6010 S   0  0  0  0  0  0  0  0  0  0  0  0
   40.5950   33.5740   40.1750 C   0  0  0  0  0  0  0  0  0  0  0  0
   40.9000   34.1530   41.0400 H   0  0  0  0  0  0  0  0  0  0  0  0
   39.7540   32.8170   39.8700 N   0  0  0  0  0  0  0  0  0  0  0  0
  1  2  2  0  0  0  0
  1  4  1  0  0  0  0
  3 12  1  0  0  0  0
  3 11  1  0  0  0  0
  4  3  2  0  0  0  0
  5  4  1  0  0  0  0
  5  6  2  0  0  0  0
  6 10  1  0  0  0  0
  7  6  1  0  0  0  0
  7  8  1  0  0  0  0
  8 15  1  0  0  0  0
  8  9  2  0  0  0  0
  9 16  1  0  0  0  0
 10 11  2  0  0  0  0
 10  9  1  0  0  0  0
 11 17  1  0  0  0  0
 13  5  1  0  0  0  0
 14  7  1  0  0  0  0
 18 23  1  0  0  0  0
 18  1  1  0  0  0  0
 19 18  2  0  0  0  0
 20 21  2  0  0  0  0
 20 19  1  0  0  0  0
 21 22  1  0  0  0  0
 22 26  1  0  0  0  0
 22 23  2  0  0  0  0
 24 19  1  0  0  0  0
 25 20  1  0  0  0  0
 26 32  1  0  0  0  0
 27 29  1  0  0  0  0
 27 26  2  0  0  0  0
 28 27  1  0  0  0  0
 29 30  1  0  0  0  0
 30 31  1  0  0  0  0
 32 30  2  0  0  0  0
M  END
>  <minimizedAffinity>
-5.38076353

$$$$
