REMARK  Name = 
REMARK  5 active torsions:
REMARK  status: ('A' for Active; 'I' for Inactive)
REMARK    1  A    between atoms: C_1  and  C_2
REMARK    2  A    between atoms: C_1  and  C_9
REMARK    3  A    between atoms: C_3  and  S_8
REMARK    4  A    between atoms: C_9  and  C_10
REMARK    5  A    between atoms: C_13  and  C_23
REMARK                            x       y       z     vdW  Elec       q    Type
REMARK                         _______ _______ _______ _____ _____    ______ ____
ROOT
ATOM      1  C   UNL     1      45.600  34.546  41.671  0.00  0.00    +0.000 C 
ATOM      2  H   UNL     1      45.618  33.757  42.471  0.00  0.00    +0.000 HD
ATOM      3  H   UNL     1      45.859  35.495  42.202  0.00  0.00    +0.000 HD
ENDROOT
BRANCH   1   4
ATOM      4  C   UNL     1      44.245  34.657  41.081  0.00  0.00    +0.000 A 
ATOM      5  C   UNL     1      43.229  35.439  41.712  0.00  0.00    +0.000 A 
ATOM      6  S   UNL     1      41.791  35.211  40.554  0.00  0.00    +0.000 S 
ATOM      7  C   UNL     1      42.828  34.103  39.434  0.00  0.00    +0.000 A 
ATOM      8  N   UNL     1      43.837  34.087  39.976  0.00  0.00    +0.000 NA
ATOM      9  H   UNL     1      43.312  36.000  42.619  0.00  0.00    +0.000 HD
BRANCH   7  10
ATOM     10  C   UNL     1      42.286  33.492  38.191  0.00  0.00    +0.000 A 
ATOM     11  C   UNL     1      40.922  33.464  37.976  0.00  0.00    +0.000 A 
ATOM     12  H   UNL     1      40.138  33.888  38.700  0.00  0.00    +0.000 HD
ATOM     13  S   UNL     1      40.794  32.630  36.351  0.00  0.00    +0.000 S 
ATOM     14  C   UNL     1      42.680  32.459  36.245  0.00  0.00    +0.000 A 
ATOM     15  H   UNL     1      43.278  31.999  35.427  0.00  0.00    +0.000 HD
ATOM     16  N   UNL     1      43.017  32.952  37.235  0.00  0.00    +0.000 NA
ENDBRANCH   7  10
ENDBRANCH   1   4
BRANCH   1  17
ATOM     17  C   UNL     1      46.692  34.250  40.698  0.00  0.00    +0.000 C 
ATOM     18  H   UNL     1      46.717  35.133  39.993  0.00  0.00    +0.000 HD
ATOM     19  H   UNL     1      46.482  33.391  40.073  0.00  0.00    +0.000 HD
BRANCH  17  20
ATOM     20  C   UNL     1      48.042  34.191  41.303  0.00  0.00    +0.000 A 
ATOM     21  C   UNL     1      48.742  32.991  41.176  0.00  0.00    +0.000 A 
ATOM     22  C   UNL     1      50.007  32.863  41.716  0.00  0.00    +0.000 A 
ATOM     23  N   UNL     1      50.529  33.952  42.369  0.00  0.00    +0.000 NA
ATOM     24  C   UNL     1      49.825  35.097  42.473  0.00  0.00    +0.000 A 
ATOM     25  N   UNL     1      48.605  35.206  41.947  0.00  0.00    +0.000 NA
ATOM     26  H   UNL     1      50.526  31.918  41.601  0.00  0.00    +0.000 HD
ATOM     27  H   UNL     1      50.346  35.888  43.013  0.00  0.00    +0.000 HD
BRANCH  21  28
ATOM     28  S   UNL     1      48.008  31.594  40.308  0.00  0.00    +0.000 S 
ATOM     29  H   UNL     1      47.097  30.971  41.169  0.00  0.00    +0.000 HD
ENDBRANCH  21  28
ENDBRANCH  17  20
ENDBRANCH   1  17
TORSDOF 5
