
 OpenBabel03242512373D

 32 35  0  0  0  0  0  0  0  0999 V2000
   47.5560   35.1400   41.9760 C   0  0  0  0  0  0  0  0  0  0  0  0
   48.6070   35.8500   41.9910 O   0  0  0  0  0  0  0  0  0  0  0  0
   46.1840   33.7250   40.4040 C   0  0  0  0  0  0  0  0  0  0  0  0
   47.3270   34.4810   40.6860 C   0  0  0  0  0  0  0  0  0  0  0  0
   48.2690   34.6140   39.7010 C   0  0  0  0  0  0  0  0  0  0  0  0
   48.1810   34.0520   38.4340 C   0  0  0  0  0  0  0  0  0  0  0  0
   48.9670   34.0590   37.3490 N   0  0  0  0  0  0  0  0  0  0  0  0
   48.3860   33.3440   36.3810 C   0  0  0  0  0  0  0  0  0  0  0  0
   47.1740   32.8590   36.8720 C   0  0  0  0  0  0  0  0  0  0  0  0
   47.0440   33.3070   38.1690 C   0  0  0  0  0  0  0  0  0  0  0  0
   46.0690   33.1500   39.1370 C   0  0  0  0  0  0  0  0  0  0  0  0
   45.4460   33.6190   41.1660 H   0  0  0  0  0  0  0  0  0  0  0  0
   49.2040   35.1870   39.8270 H   0  0  0  0  0  0  0  0  0  0  0  0
   49.8950   34.5390   37.2450 H   0  0  0  0  0  0  0  0  0  0  0  0
   48.8040   33.1780   35.3820 H   0  0  0  0  0  0  0  0  0  0  0  0
   46.4890   32.2480   36.3090 H   0  0  0  0  0  0  0  0  0  0  0  0
   45.1910   32.5620   38.9020 H   0  0  0  0  0  0  0  0  0  0  0  0
   46.6470   34.9540   43.0610 C   0  0  0  0  0  0  0  0  0  0  0  0
   45.5560   35.8360   43.0990 C   0  0  0  0  0  0  0  0  0  0  0  0
   44.6550   35.6550   44.1700 C   0  0  0  0  0  0  0  0  0  0  0  0
   44.8950   34.6650   45.0710 N   0  0  0  0  0  0  0  0  0  0  0  0
   45.9540   33.8620   44.9730 C   0  0  0  0  0  0  0  0  0  0  0  0
   46.8350   34.0060   43.9630 N   0  0  0  0  0  0  0  0  0  0  0  0
   45.4030   36.6010   42.3710 H   0  0  0  0  0  0  0  0  0  0  0  0
   43.8180   36.3110   44.2230 H   0  0  0  0  0  0  0  0  0  0  0  0
   46.1100   32.8200   46.0150 C   0  0  0  0  0  0  0  0  0  0  0  0
   46.9400   31.6810   45.9430 C   0  0  0  0  0  0  0  0  0  0  0  0
   47.5500   31.5500   44.9880 H   0  0  0  0  0  0  0  0  0  0  0  0
   46.5990   30.8900   47.5770 S   0  0  0  0  0  0  0  0  0  0  0  0
   45.3830   32.2710   48.0520 C   0  0  0  0  0  0  0  0  0  0  0  0
   44.9030   32.2020   49.0230 H   0  0  0  0  0  0  0  0  0  0  0  0
   45.3950   32.9830   47.1220 N   0  0  0  0  0  0  0  0  0  0  0  0
  1  2  2  0  0  0  0
  1 18  1  0  0  0  0
  3  4  1  0  0  0  0
  3 12  1  0  0  0  0
  4  1  1  0  0  0  0
  5 13  1  0  0  0  0
  5  4  2  0  0  0  0
  6  5  1  0  0  0  0
  7  6  1  0  0  0  0
  8  9  2  0  0  0  0
  8  7  1  0  0  0  0
  9 10  1  0  0  0  0
 10  6  2  0  0  0  0
 10 11  1  0  0  0  0
 11  3  2  0  0  0  0
 14  7  1  0  0  0  0
 15  8  1  0  0  0  0
 16  9  1  0  0  0  0
 17 11  1  0  0  0  0
 18 19  2  0  0  0  0
 18 23  1  0  0  0  0
 19 20  1  0  0  0  0
 20 25  1  0  0  0  0
 20 21  2  0  0  0  0
 22 21  1  0  0  0  0
 22 26  1  0  0  0  0
 23 22  2  0  0  0  0
 24 19  1  0  0  0  0
 26 32  1  0  0  0  0
 27 26  2  0  0  0  0
 27 29  1  0  0  0  0
 28 27  1  0  0  0  0
 29 30  1  0  0  0  0
 30 31  1  0  0  0  0
 32 30  2  0  0  0  0
M  END
>  <minimizedAffinity>
-6.30851698

>  <minimizedRMSD>
0.465868682

$$$$
