
 OpenBabel03242517413D

 38 41  0  0  0  0  0  0  0  0999 V2000
   39.6030   33.9560   41.2840 C   0  0  0  0  0  0  0  0  0  0  0  0
   39.1170   33.4380   42.1090 H   0  0  0  0  0  0  0  0  0  0  0  0
   39.3860   35.0600   41.4260 H   0  0  0  0  0  0  0  0  0  0  0  0
   39.1030   33.6000   39.9290 C   0  0  0  0  0  0  0  0  0  0  0  0
   39.1870   34.5460   38.8990 C   0  0  0  0  0  0  0  0  0  0  0  0
   38.8150   34.2750   37.6120 C   0  0  0  0  0  0  0  0  0  0  0  0
   38.3320   33.0200   37.2930 C   0  0  0  0  0  0  0  0  0  0  0  0
   38.2470   32.0760   38.3160 C   0  0  0  0  0  0  0  0  0  0  0  0
   38.6270   32.3630   39.6300 C   0  0  0  0  0  0  0  0  0  0  0  0
   39.5670   35.5150   39.1750 H   0  0  0  0  0  0  0  0  0  0  0  0
   38.9230   35.0830   36.9060 H   0  0  0  0  0  0  0  0  0  0  0  0
   38.0500   32.8380   36.2740 H   0  0  0  0  0  0  0  0  0  0  0  0
   37.8560   31.1300   37.9460 H   0  0  0  0  0  0  0  0  0  0  0  0
   38.4320   31.2110   40.4770 C   0  0  0  0  0  0  0  0  0  0  0  0
   39.5550   30.4600   40.7150 C   0  0  0  0  0  0  0  0  0  0  0  0
   40.7530   30.2880   40.4840 H   0  0  0  0  0  0  0  0  0  0  0  0
   39.0140   29.1280   41.9560 S   0  0  0  0  0  0  0  0  0  0  0  0
   37.2770   29.8950   41.9060 C   0  0  0  0  0  0  0  0  0  0  0  0
   36.2930   29.6550   42.4160 H   0  0  0  0  0  0  0  0  0  0  0  0
   37.4630   30.7190   41.1850 N   0  0  0  0  0  0  0  0  0  0  0  0
   41.8880   34.8950   41.3930 C   0  0  0  0  0  0  0  0  0  0  0  0
   41.0980   33.8410   41.3800 C   0  0  0  0  0  0  0  0  0  0  0  0
   43.9740   35.4010   42.6400 C   0  0  0  0  0  0  0  0  0  0  0  0
   43.3260   34.8260   41.5170 C   0  0  0  0  0  0  0  0  0  0  0  0
   44.1150   34.2090   40.5750 C   0  0  0  0  0  0  0  0  0  0  0  0
   45.4770   34.1730   40.7540 N   0  0  0  0  0  0  0  0  0  0  0  0
   46.0530   34.7280   41.8290 C   0  0  0  0  0  0  0  0  0  0  0  0
   45.3140   35.3460   42.7810 N   0  0  0  0  0  0  0  0  0  0  0  0
   43.3320   35.8920   43.3860 H   0  0  0  0  0  0  0  0  0  0  0  0
   43.6910   33.7490   39.6950 H   0  0  0  0  0  0  0  0  0  0  0  0
   47.4860   34.6960   42.0440 C   0  0  0  0  0  0  0  0  0  0  0  0
   48.4280   35.6170   41.8420 C   0  0  0  0  0  0  0  0  0  0  0  0
   49.7390   35.3550   42.1220 C   0  0  0  0  0  0  0  0  0  0  0  0
   50.0010   34.0480   42.6340 C   0  0  0  0  0  0  0  0  0  0  0  0
   48.3220   33.2610   42.6820 S   0  0  0  0  0  0  0  0  0  0  0  0
   48.1370   36.5850   41.4510 H   0  0  0  0  0  0  0  0  0  0  0  0
   50.5820   36.0180   41.9990 H   0  0  0  0  0  0  0  0  0  0  0  0
   50.9340   33.6360   42.9150 H   0  0  0  0  0  0  0  0  0  0  0  0
  1 22  1  0  0  0  0
  1  3  1  0  0  0  0
  1  2  1  0  0  0  0
  4  1  1  0  0  0  0
  5 10  1  0  0  0  0
  5  4  2  0  0  0  0
  6  5  1  0  0  0  0
  7  6  2  0  0  0  0
  7  8  1  0  0  0  0
  8  9  2  0  0  0  0
  9  4  1  0  0  0  0
  9 14  1  0  0  0  0
 11  6  1  0  0  0  0
 12  7  1  0  0  0  0
 13  8  1  0  0  0  0
 14 15  2  0  0  0  0
 14 20  1  0  0  0  0
 15 17  1  0  0  0  0
 16 15  1  0  0  0  0
 18 17  1  0  0  0  0
 18 19  1  0  0  0  0
 20 18  2  0  0  0  0
 21 24  1  0  0  0  0
 22 21  2  0  0  0  0
 23 28  1  0  0  0  0
 23 29  1  0  0  0  0
 24 23  2  0  0  0  0
 25 26  2  0  0  0  0
 25 24  1  0  0  0  0
 26 27  1  0  0  0  0
 27 31  1  0  0  0  0
 27 28  2  0  0  0  0
 30 25  1  0  0  0  0
 31 35  1  0  0  0  0
 32 31  2  0  0  0  0
 32 33  1  0  0  0  0
 33 34  2  0  0  0  0
 34 35  1  0  0  0  0
 34 38  1  0  0  0  0
 36 32  1  0  0  0  0
 37 33  1  0  0  0  0
M  END
>  <minimizedAffinity>
-6.76838541

>  <minimizedRMSD>
4.72871065

$$$$
