
 OpenBabel03252502473D

 43 46  0  0  1  0  0  0  0  0999 V2000
   48.9400   34.8010   41.5190 C   0  0  1  0  0  0  0  0  0  0  0  0
   50.0550   34.8050   42.5240 C   0  0  0  0  0  0  0  0  0  0  0  0
   49.3000   33.5700   42.2050 C   0  0  2  0  0  0  0  0  0  0  0  0
   49.2490   35.0060   40.4980 H   0  0  0  0  0  0  0  0  0  0  0  0
   51.0910   34.9520   42.1780 H   0  0  0  0  0  0  0  0  0  0  0  0
   49.8520   35.3690   43.4660 H   0  0  0  0  0  0  0  0  0  0  0  0
   48.7680   33.1350   43.0500 H   0  0  0  0  0  0  0  0  0  0  0  0
   50.0490   32.6370   41.3610 N   0  0  0  0  0  0  0  0  0  0  0  0
   49.3370   32.1450   40.2440 C   0  0  0  0  0  0  0  0  0  0  0  0
   50.3070   31.2120   39.5370 C   0  0  0  0  0  0  0  0  0  0  0  0
   50.6440   30.0920   40.3410 N   0  0  0  0  0  0  0  0  0  0  0  0
   50.6110   30.3590   41.7670 C   0  0  0  0  0  0  0  0  0  0  0  0
   50.9780   31.8260   42.0230 C   0  0  0  0  0  0  0  0  0  0  0  0
   49.1440   32.9970   39.5390 H   0  0  0  0  0  0  0  0  0  0  0  0
   48.4100   31.5890   40.4950 H   0  0  0  0  0  0  0  0  0  0  0  0
   49.8790   30.9140   38.5660 H   0  0  0  0  0  0  0  0  0  0  0  0
   51.2490   31.8190   39.4230 H   0  0  0  0  0  0  0  0  0  0  0  0
   51.5120   29.6320   40.0370 H   0  0  0  0  0  0  0  0  0  0  0  0
   49.6330   30.1770   42.2240 H   0  0  0  0  0  0  0  0  0  0  0  0
   51.3730   29.7530   42.2700 H   0  0  0  0  0  0  0  0  0  0  0  0
   50.9000   31.9770   43.1330 H   0  0  0  0  0  0  0  0  0  0  0  0
   52.0360   31.9920   41.7360 H   0  0  0  0  0  0  0  0  0  0  0  0
   47.6620   35.4640   41.9060 C   0  0  0  0  0  0  0  0  0  0  0  0
   47.3370   36.2490   41.1610 H   0  0  0  0  0  0  0  0  0  0  0  0
   47.7760   36.0210   42.8530 H   0  0  0  0  0  0  0  0  0  0  0  0
   46.6390   34.3710   42.0670 C   0  0  0  0  0  0  0  0  0  0  0  0
   45.8190   34.5980   41.3320 H   0  0  0  0  0  0  0  0  0  0  0  0
   46.9540   33.3650   41.8420 H   0  0  0  0  0  0  0  0  0  0  0  0
   44.5030   35.7320   44.8430 C   0  0  0  0  0  0  0  0  0  0  0  0
   45.1080   35.5860   43.5680 C   0  0  0  0  0  0  0  0  0  0  0  0
   45.9710   34.5490   43.3950 C   0  0  0  0  0  0  0  0  0  0  0  0
   46.2180   33.7010   44.4410 N   0  0  0  0  0  0  0  0  0  0  0  0
   45.6530   33.8460   45.6120 C   0  0  0  0  0  0  0  0  0  0  0  0
   44.7890   34.8570   45.8360 N   0  0  0  0  0  0  0  0  0  0  0  0
   43.8150   36.5550   44.9830 H   0  0  0  0  0  0  0  0  0  0  0  0
   44.8760   36.2860   42.7760 H   0  0  0  0  0  0  0  0  0  0  0  0
   45.9440   32.9120   46.7160 C   0  0  0  0  0  0  0  0  0  0  0  0
   47.0770   32.0870   46.6610 C   0  0  0  0  0  0  0  0  0  0  0  0
   47.8150   32.0400   45.8660 H   0  0  0  0  0  0  0  0  0  0  0  0
   46.9870   31.1430   48.2270 S   0  0  0  0  0  0  0  0  0  0  0  0
   45.3840   32.0520   48.7050 C   0  0  0  0  0  0  0  0  0  0  0  0
   44.7760   31.9330   49.6030 H   0  0  0  0  0  0  0  0  0  0  0  0
   45.2320   32.7460   47.8080 N   0  0  0  0  0  0  0  0  0  0  0  0
  1  4  1  6  0  0  0
  1 23  1  0  0  0  0
  1  3  1  0  0  0  0
  1  2  1  0  0  0  0
  2  6  1  0  0  0  0
  3  2  1  0  0  0  0
  3  7  1  1  0  0  0
  5  2  1  0  0  0  0
  8 13  1  0  0  0  0
  8  3  1  0  0  0  0
  9 15  1  0  0  0  0
  9  8  1  0  0  0  0
 10  9  1  0  0  0  0
 10 11  1  0  0  0  0
 11 12  1  0  0  0  0
 12 13  1  0  0  0  0
 12 19  1  0  0  0  0
 12 20  1  0  0  0  0
 13 21  1  0  0  0  0
 14  9  1  0  0  0  0
 16 10  1  0  0  0  0
 17 10  1  0  0  0  0
 18 11  1  0  0  0  0
 22 13  1  0  0  0  0
 23 26  1  0  0  0  0
 23 25  1  0  0  0  0
 24 23  1  0  0  0  0
 26 31  1  0  0  0  0
 27 26  1  0  0  0  0
 28 26  1  0  0  0  0
 29 35  1  0  0  0  0
 29 34  1  0  0  0  0
 30 29  2  0  0  0  0
 31 30  1  0  0  0  0
 31 32  2  0  0  0  0
 32 33  1  0  0  0  0
 33 34  2  0  0  0  0
 33 37  1  0  0  0  0
 36 30  1  0  0  0  0
 37 43  1  0  0  0  0
 38 37  2  0  0  0  0
 38 40  1  0  0  0  0
 39 38  1  0  0  0  0
 40 41  1  0  0  0  0
 41 42  1  0  0  0  0
 43 41  2  0  0  0  0
M  END
>  <minimizedAffinity>
-5.64164209

>  <minimizedRMSD>
0.256117284

$$$$
