
 OpenBabel03252504503D

 22 23  0  0  0  0  0  0  0  0999 V2000
   38.0290   28.7640   42.9260 C   0  0  0  0  0  0  0  0  0  0  0  0
   36.9650   27.9940   42.4610 C   0  0  0  0  0  0  0  0  0  0  0  0
   36.2110   28.5120   41.4090 C   0  0  0  0  0  0  0  0  0  0  0  0
   36.5540   29.7340   40.8970 N   0  0  0  0  0  0  0  0  0  0  0  0
   37.5910   30.4510   41.3730 C   0  0  0  0  0  0  0  0  0  0  0  0
   38.3370   29.9640   42.3960 N   0  0  0  0  0  0  0  0  0  0  0  0
   38.6520   28.4070   43.7470 H   0  0  0  0  0  0  0  0  0  0  0  0
   35.3800   27.9500   41.0190 H   0  0  0  0  0  0  0  0  0  0  0  0
   37.9400   31.7530   40.8110 C   0  0  0  0  0  0  0  0  0  0  0  0
   39.1910   32.3700   41.1270 C   0  0  0  0  0  0  0  0  0  0  0  0
   39.9380   31.9820   41.7540 H   0  0  0  0  0  0  0  0  0  0  0  0
   39.0740   33.9420   40.1610 S   0  0  0  0  0  0  0  0  0  0  0  0
   37.3470   33.4640   39.5080 C   0  0  0  0  0  0  0  0  0  0  0  0
   36.7430   34.0800   38.8290 H   0  0  0  0  0  0  0  0  0  0  0  0
   37.1740   32.4510   39.9980 N   0  0  0  0  0  0  0  0  0  0  0  0
   36.7060   26.7180   43.0820 C   0  0  0  0  0  0  0  0  0  0  0  0
   35.6560   26.5980   43.3510 H   0  0  0  0  0  0  0  0  0  0  0  0
   37.3340   26.6430   44.0140 H   0  0  0  0  0  0  0  0  0  0  0  0
   37.1800   25.6180   42.1480 C   0  0  0  0  0  0  0  0  0  0  0  0
   37.6340   24.7830   42.7550 H   0  0  0  0  0  0  0  0  0  0  0  0
   37.8500   26.0140   41.3850 H   0  0  0  0  0  0  0  0  0  0  0  0
   36.2650   25.1760   41.6570 H   0  0  0  0  0  0  0  0  0  0  0  0
  1  7  1  0  0  0  0
  2  1  1  0  0  0  0
  2 16  1  0  0  0  0
  3  2  2  0  0  0  0
  4  5  2  0  0  0  0
  4  3  1  0  0  0  0
  5  6  1  0  0  0  0
  6  1  2  0  0  0  0
  8  3  1  0  0  0  0
  9 10  2  0  0  0  0
  9  5  1  0  0  0  0
 10 11  1  0  0  0  0
 12 10  1  0  0  0  0
 13 15  2  0  0  0  0
 13 12  1  0  0  0  0
 14 13  1  0  0  0  0
 15  9  1  0  0  0  0
 16 17  1  0  0  0  0
 16 18  1  0  0  0  0
 19 20  1  0  0  0  0
 19 16  1  0  0  0  0
 21 19  1  0  0  0  0
 22 19  1  0  0  0  0
M  END
>  <minimizedAffinity>
-4.08115864

$$$$

 OpenBabel03252504503D

 22 23  0  0  0  0  0  0  0  0999 V2000
   36.7440   29.3380   41.6160 C   0  0  0  0  0  0  0  0  0  0  0  0
   37.3250   28.6120   42.6540 C   0  0  0  0  0  0  0  0  0  0  0  0
   38.5530   29.0600   43.1390 C   0  0  0  0  0  0  0  0  0  0  0  0
   39.1140   30.1740   42.5750 N   0  0  0  0  0  0  0  0  0  0  0  0
   38.5220   30.8510   41.5720 C   0  0  0  0  0  0  0  0  0  0  0  0
   37.3260   30.4320   41.0860 N   0  0  0  0  0  0  0  0  0  0  0  0
   35.7840   29.0320   41.1990 H   0  0  0  0  0  0  0  0  0  0  0  0
   39.0370   28.5290   43.9410 H   0  0  0  0  0  0  0  0  0  0  0  0
   39.1370   32.0370   40.9850 C   0  0  0  0  0  0  0  0  0  0  0  0
   40.5070   32.0180   40.5740 C   0  0  0  0  0  0  0  0  0  0  0  0
   41.1700   31.2070   40.6460 H   0  0  0  0  0  0  0  0  0  0  0  0
   40.7170   33.7390   39.9320 S   0  0  0  0  0  0  0  0  0  0  0  0
   38.9030   34.1610   40.3420 C   0  0  0  0  0  0  0  0  0  0  0  0
   38.4310   35.1350   40.1590 H   0  0  0  0  0  0  0  0  0  0  0  0
   38.5210   33.1850   40.7870 N   0  0  0  0  0  0  0  0  0  0  0  0
   36.6320   27.4560   43.1670 C   0  0  0  0  0  0  0  0  0  0  0  0
   35.5480   27.5660   43.1080 H   0  0  0  0  0  0  0  0  0  0  0  0
   36.9270   27.3140   44.2460 H   0  0  0  0  0  0  0  0  0  0  0  0
   37.1170   26.2280   42.4180 C   0  0  0  0  0  0  0  0  0  0  0  0
   37.1860   25.3580   43.1320 H   0  0  0  0  0  0  0  0  0  0  0  0
   38.0500   26.4320   41.8930 H   0  0  0  0  0  0  0  0  0  0  0  0
   36.3150   25.9490   41.6730 H   0  0  0  0  0  0  0  0  0  0  0  0
  1  2  1  0  0  0  0
  2  3  2  0  0  0  0
  2 16  1  0  0  0  0
  3  8  1  0  0  0  0
  4  3  1  0  0  0  0
  5  4  2  0  0  0  0
  6  5  1  0  0  0  0
  6  1  2  0  0  0  0
  7  1  1  0  0  0  0
  9  5  1  0  0  0  0
 10 11  1  0  0  0  0
 10  9  2  0  0  0  0
 12 13  1  0  0  0  0
 12 10  1  0  0  0  0
 13 15  2  0  0  0  0
 14 13  1  0  0  0  0
 15  9  1  0  0  0  0
 16 18  1  0  0  0  0
 17 16  1  0  0  0  0
 19 20  1  0  0  0  0
 19 16  1  0  0  0  0
 21 19  1  0  0  0  0
 22 19  1  0  0  0  0
M  END
>  <minimizedAffinity>
-4.04538298

$$$$

 OpenBabel03252504503D

 22 23  0  0  0  0  0  0  0  0999 V2000
   37.3900   27.0510   40.8140 C   0  0  0  0  0  0  0  0  0  0  0  0
   37.1070   26.6860   42.1290 C   0  0  0  0  0  0  0  0  0  0  0  0
   37.0470   27.7060   43.0780 C   0  0  0  0  0  0  0  0  0  0  0  0
   37.2660   28.9940   42.6700 N   0  0  0  0  0  0  0  0  0  0  0  0
   37.5370   29.3090   41.3880 C   0  0  0  0  0  0  0  0  0  0  0  0
   37.6010   28.3320   40.4500 N   0  0  0  0  0  0  0  0  0  0  0  0
   37.4490   26.2940   40.0320 H   0  0  0  0  0  0  0  0  0  0  0  0
   36.8310   27.4690   44.1060 H   0  0  0  0  0  0  0  0  0  0  0  0
   37.7680   30.6910   40.9750 C   0  0  0  0  0  0  0  0  0  0  0  0
   36.8040   31.3810   40.1760 C   0  0  0  0  0  0  0  0  0  0  0  0
   35.8930   30.9960   39.8230 H   0  0  0  0  0  0  0  0  0  0  0  0
   37.6140   33.0310   39.9760 S   0  0  0  0  0  0  0  0  0  0  0  0
   39.1100   32.4720   41.0180 C   0  0  0  0  0  0  0  0  0  0  0  0
   39.9790   33.1010   41.2500 H   0  0  0  0  0  0  0  0  0  0  0  0
   38.8340   31.4000   41.2840 N   0  0  0  0  0  0  0  0  0  0  0  0
   36.8900   25.2930   42.4330 C   0  0  0  0  0  0  0  0  0  0  0  0
   35.9970   25.1390   43.0410 H   0  0  0  0  0  0  0  0  0  0  0  0
   37.7880   24.9090   42.9970 H   0  0  0  0  0  0  0  0  0  0  0  0
   36.8290   24.5150   41.1310 C   0  0  0  0  0  0  0  0  0  0  0  0
   37.3330   23.5170   41.2680 H   0  0  0  0  0  0  0  0  0  0  0  0
   37.2400   25.0980   40.3060 H   0  0  0  0  0  0  0  0  0  0  0  0
   35.7430   24.2840   40.9280 H   0  0  0  0  0  0  0  0  0  0  0  0
  1  2  1  0  0  0  0
  2 16  1  0  0  0  0
  2  3  2  0  0  0  0
  3  8  1  0  0  0  0
  4  3  1  0  0  0  0
  5  4  2  0  0  0  0
  6  1  2  0  0  0  0
  6  5  1  0  0  0  0
  7  1  1  0  0  0  0
  9 15  1  0  0  0  0
  9  5  1  0  0  0  0
 10  9  2  0  0  0  0
 11 10  1  0  0  0  0
 12 10  1  0  0  0  0
 12 13  1  0  0  0  0
 13 14  1  0  0  0  0
 13 15  2  0  0  0  0
 16 18  1  0  0  0  0
 16 17  1  0  0  0  0
 19 20  1  0  0  0  0
 19 16  1  0  0  0  0
 21 19  1  0  0  0  0
 22 19  1  0  0  0  0
M  END
>  <minimizedAffinity>
-3.8464098

$$$$

 OpenBabel03252504503D

 22 23  0  0  0  0  0  0  0  0999 V2000
   38.8300   31.6110   40.7060 C   0  0  0  0  0  0  0  0  0  0  0  0
   37.5220   31.9840   40.4000 C   0  0  0  0  0  0  0  0  0  0  0  0
   36.5080   31.0810   40.7180 C   0  0  0  0  0  0  0  0  0  0  0  0
   36.8490   29.8940   41.3080 N   0  0  0  0  0  0  0  0  0  0  0  0
   38.1260   29.5680   41.5900 C   0  0  0  0  0  0  0  0  0  0  0  0
   39.1270   30.4320   41.2870 N   0  0  0  0  0  0  0  0  0  0  0  0
   39.6610   32.2790   40.4780 H   0  0  0  0  0  0  0  0  0  0  0  0
   35.4840   31.3290   40.4990 H   0  0  0  0  0  0  0  0  0  0  0  0
   38.4670   28.2960   42.2190 C   0  0  0  0  0  0  0  0  0  0  0  0
   39.6630   28.1650   42.9930 C   0  0  0  0  0  0  0  0  0  0  0  0
   40.3740   28.9150   43.1760 H   0  0  0  0  0  0  0  0  0  0  0  0
   39.5620   26.3950   43.5180 S   0  0  0  0  0  0  0  0  0  0  0  0
   37.9130   26.1670   42.5880 C   0  0  0  0  0  0  0  0  0  0  0  0
   37.3410   25.2300   42.5500 H   0  0  0  0  0  0  0  0  0  0  0  0
   37.7410   27.2000   42.1400 N   0  0  0  0  0  0  0  0  0  0  0  0
   37.2910   33.2660   39.7810 C   0  0  0  0  0  0  0  0  0  0  0  0
   36.3570   33.7210   40.1150 H   0  0  0  0  0  0  0  0  0  0  0  0
   37.2480   33.1190   38.6650 H   0  0  0  0  0  0  0  0  0  0  0  0
   38.4850   34.1610   40.0570 C   0  0  0  0  0  0  0  0  0  0  0  0
   38.6960   34.7930   39.1480 H   0  0  0  0  0  0  0  0  0  0  0  0
   39.3450   33.5780   40.3870 H   0  0  0  0  0  0  0  0  0  0  0  0
   38.1840   34.8850   40.8690 H   0  0  0  0  0  0  0  0  0  0  0  0
  1  6  1  0  0  0  0
  2  1  2  0  0  0  0
  2  3  1  0  0  0  0
  3  4  2  0  0  0  0
  4  5  1  0  0  0  0
  5  9  1  0  0  0  0
  6  5  2  0  0  0  0
  7  1  1  0  0  0  0
  8  3  1  0  0  0  0
  9 10  2  0  0  0  0
 10 11  1  0  0  0  0
 10 12  1  0  0  0  0
 13 12  1  0  0  0  0
 14 13  1  0  0  0  0
 15  9  1  0  0  0  0
 15 13  2  0  0  0  0
 16 19  1  0  0  0  0
 16 17  1  0  0  0  0
 16  2  1  0  0  0  0
 18 16  1  0  0  0  0
 19 21  1  0  0  0  0
 19 22  1  0  0  0  0
 20 19  1  0  0  0  0
M  END
>  <minimizedAffinity>
-3.73622394

$$$$

 OpenBabel03252504503D

 22 23  0  0  0  0  0  0  0  0999 V2000
   40.3900   27.6370   42.3230 C   0  0  0  0  0  0  0  0  0  0  0  0
   39.5110   26.9170   43.1300 C   0  0  0  0  0  0  0  0  0  0  0  0
   38.2500   27.4690   43.3530 C   0  0  0  0  0  0  0  0  0  0  0  0
   37.9490   28.6720   42.7740 N   0  0  0  0  0  0  0  0  0  0  0  0
   38.8260   29.3400   41.9990 C   0  0  0  0  0  0  0  0  0  0  0  0
   40.0580   28.8210   41.7700 N   0  0  0  0  0  0  0  0  0  0  0  0
   41.3890   27.2530   42.1160 H   0  0  0  0  0  0  0  0  0  0  0  0
   37.5390   26.9460   43.9700 H   0  0  0  0  0  0  0  0  0  0  0  0
   38.4830   30.6220   41.3910 C   0  0  0  0  0  0  0  0  0  0  0  0
   39.4270   31.6960   41.3790 C   0  0  0  0  0  0  0  0  0  0  0  0
   40.3980   31.6800   41.7790 H   0  0  0  0  0  0  0  0  0  0  0  0
   38.4660   33.0140   40.5080 S   0  0  0  0  0  0  0  0  0  0  0  0
   36.9620   31.8560   40.3240 C   0  0  0  0  0  0  0  0  0  0  0  0
   36.0160   32.1330   39.8400 H   0  0  0  0  0  0  0  0  0  0  0  0
   37.3280   30.9000   40.8220 N   0  0  0  0  0  0  0  0  0  0  0  0
   39.9450   25.6570   43.6800 C   0  0  0  0  0  0  0  0  0  0  0  0
   39.5470   25.4860   44.6810 H   0  0  0  0  0  0  0  0  0  0  0  0
   41.0710   25.6600   43.7290 H   0  0  0  0  0  0  0  0  0  0  0  0
   39.5550   24.5480   42.7200 C   0  0  0  0  0  0  0  0  0  0  0  0
   40.3690   23.7680   42.6980 H   0  0  0  0  0  0  0  0  0  0  0  0
   39.3130   24.9480   41.7350 H   0  0  0  0  0  0  0  0  0  0  0  0
   38.6490   24.0310   43.1520 H   0  0  0  0  0  0  0  0  0  0  0  0
  1  2  1  0  0  0  0
  2  3  2  0  0  0  0
  2 16  1  0  0  0  0
  3  8  1  0  0  0  0
  4  3  1  0  0  0  0
  5  4  2  0  0  0  0
  6  5  1  0  0  0  0
  6  1  2  0  0  0  0
  7  1  1  0  0  0  0
  9  5  1  0  0  0  0
 10  9  2  0  0  0  0
 10 11  1  0  0  0  0
 12 10  1  0  0  0  0
 13 12  1  0  0  0  0
 13 15  2  0  0  0  0
 14 13  1  0  0  0  0
 15  9  1  0  0  0  0
 16 18  1  0  0  0  0
 16 17  1  0  0  0  0
 19 22  1  0  0  0  0
 19 16  1  0  0  0  0
 20 19  1  0  0  0  0
 21 19  1  0  0  0  0
M  END
>  <minimizedAffinity>
-3.54817629

$$$$

 OpenBabel03252504503D

 22 23  0  0  0  0  0  0  0  0999 V2000
   37.6930   30.5140   38.9010 C   0  0  0  0  0  0  0  0  0  0  0  0
   37.0690   31.4840   39.6830 C   0  0  0  0  0  0  0  0  0  0  0  0
   36.4070   31.0530   40.8320 C   0  0  0  0  0  0  0  0  0  0  0  0
   36.4070   29.7160   41.1250 N   0  0  0  0  0  0  0  0  0  0  0  0
   37.0220   28.8060   40.3440 C   0  0  0  0  0  0  0  0  0  0  0  0
   37.6720   29.2050   39.2220 N   0  0  0  0  0  0  0  0  0  0  0  0
   38.2250   30.7960   37.9920 H   0  0  0  0  0  0  0  0  0  0  0  0
   35.9110   31.7690   41.4640 H   0  0  0  0  0  0  0  0  0  0  0  0
   37.0100   27.3840   40.6760 C   0  0  0  0  0  0  0  0  0  0  0  0
   36.8170   26.4010   39.6560 C   0  0  0  0  0  0  0  0  0  0  0  0
   36.6730   26.5820   38.6320 H   0  0  0  0  0  0  0  0  0  0  0  0
   36.8950   24.8370   40.6400 S   0  0  0  0  0  0  0  0  0  0  0  0
   37.1760   25.8150   42.2530 C   0  0  0  0  0  0  0  0  0  0  0  0
   37.3030   25.3610   43.2450 H   0  0  0  0  0  0  0  0  0  0  0  0
   37.1680   26.8930   41.8880 N   0  0  0  0  0  0  0  0  0  0  0  0
   37.1430   32.8640   39.2690 C   0  0  0  0  0  0  0  0  0  0  0  0
   36.1660   33.3500   39.2820 H   0  0  0  0  0  0  0  0  0  0  0  0
   37.5560   32.8990   38.2210 H   0  0  0  0  0  0  0  0  0  0  0  0
   38.1440   33.5840   40.1550 C   0  0  0  0  0  0  0  0  0  0  0  0
   38.7240   34.3270   39.5370 H   0  0  0  0  0  0  0  0  0  0  0  0
   38.7780   32.8740   40.6870 H   0  0  0  0  0  0  0  0  0  0  0  0
   37.5560   34.1970   40.8990 H   0  0  0  0  0  0  0  0  0  0  0  0
  1  6  2  0  0  0  0
  1  2  1  0  0  0  0
  2  3  2  0  0  0  0
  3  4  1  0  0  0  0
  3  8  1  0  0  0  0
  5  9  1  0  0  0  0
  5  4  2  0  0  0  0
  6  5  1  0  0  0  0
  7  1  1  0  0  0  0
  9 15  1  0  0  0  0
 10 12  1  0  0  0  0
 10  9  2  0  0  0  0
 11 10  1  0  0  0  0
 12 13  1  0  0  0  0
 13 14  1  0  0  0  0
 15 13  2  0  0  0  0
 16 17  1  0  0  0  0
 16  2  1  0  0  0  0
 16 19  1  0  0  0  0
 18 16  1  0  0  0  0
 19 21  1  0  0  0  0
 19 22  1  0  0  0  0
 20 19  1  0  0  0  0
M  END
>  <minimizedAffinity>
-3.54337382

$$$$

 OpenBabel03252504503D

 22 23  0  0  0  0  0  0  0  0999 V2000
   37.0370   29.8530   38.8080 C   0  0  0  0  0  0  0  0  0  0  0  0
   36.2080   30.0940   39.9020 C   0  0  0  0  0  0  0  0  0  0  0  0
   36.5380   31.1660   40.7310 C   0  0  0  0  0  0  0  0  0  0  0  0
   37.6430   31.9130   40.4280 N   0  0  0  0  0  0  0  0  0  0  0  0
   38.4220   31.6500   39.3600 C   0  0  0  0  0  0  0  0  0  0  0  0
   38.1190   30.6120   38.5410 N   0  0  0  0  0  0  0  0  0  0  0  0
   36.8270   29.0280   38.1270 H   0  0  0  0  0  0  0  0  0  0  0  0
   35.9240   31.3880   41.5880 H   0  0  0  0  0  0  0  0  0  0  0  0
   39.5970   32.4620   39.0550 C   0  0  0  0  0  0  0  0  0  0  0  0
   40.0050   33.5110   39.9360 C   0  0  0  0  0  0  0  0  0  0  0  0
   39.5360   33.7920   40.8330 H   0  0  0  0  0  0  0  0  0  0  0  0
   41.4970   34.1610   39.0590 S   0  0  0  0  0  0  0  0  0  0  0  0
   41.2860   32.8830   37.6600 C   0  0  0  0  0  0  0  0  0  0  0  0
   41.9480   32.7960   36.7880 H   0  0  0  0  0  0  0  0  0  0  0  0
   40.3580   32.3120   37.9900 N   0  0  0  0  0  0  0  0  0  0  0  0
   35.0680   29.2360   40.1130 C   0  0  0  0  0  0  0  0  0  0  0  0
   34.3490   29.6730   40.8080 H   0  0  0  0  0  0  0  0  0  0  0  0
   35.4350   28.2570   40.5340 H   0  0  0  0  0  0  0  0  0  0  0  0
   34.4390   28.9240   38.7680 C   0  0  0  0  0  0  0  0  0  0  0  0
   34.0800   27.8560   38.7610 H   0  0  0  0  0  0  0  0  0  0  0  0
   35.1230   29.1570   37.9520 H   0  0  0  0  0  0  0  0  0  0  0  0
   33.5090   29.5590   38.6760 H   0  0  0  0  0  0  0  0  0  0  0  0
  1  2  1  0  0  0  0
  2 16  1  0  0  0  0
  2  3  2  0  0  0  0
  3  8  1  0  0  0  0
  4  3  1  0  0  0  0
  5  4  2  0  0  0  0
  6  1  2  0  0  0  0
  6  5  1  0  0  0  0
  7  1  1  0  0  0  0
  9  5  1  0  0  0  0
  9 10  2  0  0  0  0
 10 11  1  0  0  0  0
 12 10  1  0  0  0  0
 13 15  2  0  0  0  0
 13 12  1  0  0  0  0
 14 13  1  0  0  0  0
 15  9  1  0  0  0  0
 16 18  1  0  0  0  0
 16 17  1  0  0  0  0
 19 16  1  0  0  0  0
 20 19  1  0  0  0  0
 21 19  1  0  0  0  0
 22 19  1  0  0  0  0
M  END
>  <minimizedAffinity>
-3.53615952

$$$$

 OpenBabel03252504503D

 22 23  0  0  0  0  0  0  0  0999 V2000
   35.5690   27.4920   38.2670 C   0  0  0  0  0  0  0  0  0  0  0  0
   34.4970   28.3810   38.2060 C   0  0  0  0  0  0  0  0  0  0  0  0
   34.2670   29.1850   39.3210 C   0  0  0  0  0  0  0  0  0  0  0  0
   35.0980   29.0590   40.4020 N   0  0  0  0  0  0  0  0  0  0  0  0
   36.1260   28.1880   40.4250 C   0  0  0  0  0  0  0  0  0  0  0  0
   36.3660   27.3960   39.3500 N   0  0  0  0  0  0  0  0  0  0  0  0
   35.7940   26.8390   37.4230 H   0  0  0  0  0  0  0  0  0  0  0  0
   33.4500   29.8850   39.3160 H   0  0  0  0  0  0  0  0  0  0  0  0
   37.0000   28.0710   41.5890 C   0  0  0  0  0  0  0  0  0  0  0  0
   37.5900   26.8140   41.9310 C   0  0  0  0  0  0  0  0  0  0  0  0
   37.4660   25.9050   41.4200 H   0  0  0  0  0  0  0  0  0  0  0  0
   38.5580   27.2670   43.4400 S   0  0  0  0  0  0  0  0  0  0  0  0
   37.9790   29.0800   43.3200 C   0  0  0  0  0  0  0  0  0  0  0  0
   38.2680   29.8760   44.0200 H   0  0  0  0  0  0  0  0  0  0  0  0
   37.3140   29.0630   42.3960 N   0  0  0  0  0  0  0  0  0  0  0  0
   33.6960   28.4220   37.0070 C   0  0  0  0  0  0  0  0  0  0  0  0
   33.4240   27.4240   36.6600 H   0  0  0  0  0  0  0  0  0  0  0  0
   34.2900   28.9410   36.2010 H   0  0  0  0  0  0  0  0  0  0  0  0
   32.4740   29.2820   37.2690 C   0  0  0  0  0  0  0  0  0  0  0  0
   32.2340   29.8830   36.3450 H   0  0  0  0  0  0  0  0  0  0  0  0
   32.6090   29.8950   38.1600 H   0  0  0  0  0  0  0  0  0  0  0  0
   31.5970   28.5860   37.4170 H   0  0  0  0  0  0  0  0  0  0  0  0
  1  6  1  0  0  0  0
  2  1  2  0  0  0  0
  2  3  1  0  0  0  0
  3  4  2  0  0  0  0
  4  5  1  0  0  0  0
  5  9  1  0  0  0  0
  6  5  2  0  0  0  0
  7  1  1  0  0  0  0
  8  3  1  0  0  0  0
  9 10  2  0  0  0  0
  9 15  1  0  0  0  0
 10 12  1  0  0  0  0
 11 10  1  0  0  0  0
 13 12  1  0  0  0  0
 13 14  1  0  0  0  0
 15 13  2  0  0  0  0
 16 19  1  0  0  0  0
 16  2  1  0  0  0  0
 17 16  1  0  0  0  0
 18 16  1  0  0  0  0
 19 22  1  0  0  0  0
 19 21  1  0  0  0  0
 20 19  1  0  0  0  0
M  END
>  <minimizedAffinity>
-3.46437693

$$$$

 OpenBabel03252504503D

 22 23  0  0  0  0  0  0  0  0999 V2000
   37.6490   26.9710   41.9200 C   0  0  0  0  0  0  0  0  0  0  0  0
   37.1000   25.9950   41.0900 C   0  0  0  0  0  0  0  0  0  0  0  0
   36.6140   26.4090   39.8510 C   0  0  0  0  0  0  0  0  0  0  0  0
   36.7030   27.7340   39.5210 N   0  0  0  0  0  0  0  0  0  0  0  0
   37.2420   28.6500   40.3500 C   0  0  0  0  0  0  0  0  0  0  0  0
   37.7200   28.2680   41.5610 N   0  0  0  0  0  0  0  0  0  0  0  0
   38.0440   26.7030   42.9000 H   0  0  0  0  0  0  0  0  0  0  0  0
   36.1810   25.6880   39.1780 H   0  0  0  0  0  0  0  0  0  0  0  0
   37.3270   30.0590   39.9780 C   0  0  0  0  0  0  0  0  0  0  0  0
   37.5990   31.0570   40.9650 C   0  0  0  0  0  0  0  0  0  0  0  0
   37.7550   30.8950   41.9910 H   0  0  0  0  0  0  0  0  0  0  0  0
   37.5870   32.5950   39.9390 S   0  0  0  0  0  0  0  0  0  0  0  0
   37.2160   31.5920   38.3610 C   0  0  0  0  0  0  0  0  0  0  0  0
   37.0920   32.0250   37.3590 H   0  0  0  0  0  0  0  0  0  0  0  0
   37.1700   30.5250   38.7560 N   0  0  0  0  0  0  0  0  0  0  0  0
   37.0670   24.6290   41.5500 C   0  0  0  0  0  0  0  0  0  0  0  0
   36.8890   23.9250   40.7350 H   0  0  0  0  0  0  0  0  0  0  0  0
   36.2380   24.5290   42.3070 H   0  0  0  0  0  0  0  0  0  0  0  0
   38.3630   24.3310   42.2820 C   0  0  0  0  0  0  0  0  0  0  0  0
   38.1490   23.6650   43.1650 H   0  0  0  0  0  0  0  0  0  0  0  0
   38.8830   25.2510   42.5490 H   0  0  0  0  0  0  0  0  0  0  0  0
   39.0090   23.7180   41.5870 H   0  0  0  0  0  0  0  0  0  0  0  0
  1  7  1  0  0  0  0
  2 16  1  0  0  0  0
  2  1  2  0  0  0  0
  3  2  1  0  0  0  0
  4  3  2  0  0  0  0
  4  5  1  0  0  0  0
  5  6  2  0  0  0  0
  6  1  1  0  0  0  0
  8  3  1  0  0  0  0
  9  5  1  0  0  0  0
  9 10  2  0  0  0  0
 10 11  1  0  0  0  0
 12 10  1  0  0  0  0
 13 15  2  0  0  0  0
 13 12  1  0  0  0  0
 14 13  1  0  0  0  0
 15  9  1  0  0  0  0
 16 19  1  0  0  0  0
 16 18  1  0  0  0  0
 17 16  1  0  0  0  0
 19 21  1  0  0  0  0
 19 20  1  0  0  0  0
 22 19  1  0  0  0  0
M  END
>  <minimizedAffinity>
-3.33917451

$$$$
