REMARK  Name = 
REMARK  4 active torsions:
REMARK  status: ('A' for Active; 'I' for Inactive)
REMARK    1  A    between atoms: C_2  and  N_23
REMARK    2  A    between atoms: C_5  and  C_12
REMARK    3  A    between atoms: C_19  and  C_40
REMARK    4  A    between atoms: C_20  and  N_22
REMARK                            x       y       z     vdW  Elec       q    Type
REMARK                         _______ _______ _______ _____ _____    ______ ____
ROOT
ATOM      1  C   UNL     1      47.468  32.064  47.854  0.00  0.00    +0.000 A 
ATOM      2  C   UNL     1      46.927  30.775  47.892  0.00  0.00    +0.000 A 
ATOM      3  C   UNL     1      45.939  30.497  46.996  0.00  0.00    +0.000 A 
ATOM      4  N   UNL     1      45.533  31.431  46.133  0.00  0.00    +0.000 NA
ATOM      5  C   UNL     1      46.028  32.648  46.076  0.00  0.00    +0.000 A 
ATOM      6  N   UNL     1      47.008  32.950  46.959  0.00  0.00    +0.000 NA
ATOM      7  N   UNL     1      45.346  29.256  46.992  0.00  0.00    +0.000 N 
ATOM      8  C   UNL     1      44.142  28.897  46.198  0.00  0.00    +0.000 C 
ATOM      9  C   UNL     1      44.031  27.402  46.263  0.00  0.00    +0.000 C 
ATOM     10  C   UNL     1      44.701  27.061  47.541  0.00  0.00    +0.000 C 
ATOM     11  C   UNL     1      45.749  28.096  47.738  0.00  0.00    +0.000 C 
ATOM     12  H   UNL     1      48.260  32.337  48.553  0.00  0.00    +0.000 HD
ATOM     13  H   UNL     1      44.227  29.295  45.167  0.00  0.00    +0.000 HD
ATOM     14  H   UNL     1      43.275  29.349  46.740  0.00  0.00    +0.000 HD
ATOM     15  H   UNL     1      44.427  26.892  45.379  0.00  0.00    +0.000 HD
ATOM     16  H   UNL     1      42.954  27.114  46.364  0.00  0.00    +0.000 HD
ATOM     17  H   UNL     1      45.233  26.085  47.396  0.00  0.00    +0.000 HD
ATOM     18  H   UNL     1      44.018  26.895  48.389  0.00  0.00    +0.000 HD
ATOM     19  H   UNL     1      46.733  27.784  47.364  0.00  0.00    +0.000 HD
ATOM     20  H   UNL     1      45.741  28.279  48.838  0.00  0.00    +0.000 HD
ENDROOT
BRANCH   5  21
ATOM     21  C   UNL     1      45.747  33.806  45.183  0.00  0.00    +0.000 A 
ATOM     22  N   UNL     1      44.882  34.777  45.482  0.00  0.00    +0.000 NA
ATOM     23  C   UNL     1      44.611  35.824  44.714  0.00  0.00    +0.000 A 
ATOM     24  N   UNL     1      45.239  35.961  43.522  0.00  0.00    +0.000 NA
ATOM     25  C   UNL     1      46.134  35.045  43.108  0.00  0.00    +0.000 A 
ATOM     26  C   UNL     1      46.766  35.188  41.897  0.00  0.00    +0.000 A 
ATOM     27  C   UNL     1      47.670  34.273  41.462  0.00  0.00    +0.000 A 
ATOM     28  C   UNL     1      47.943  33.178  42.278  0.00  0.00    +0.000 A 
ATOM     29  C   UNL     1      47.268  33.093  43.495  0.00  0.00    +0.000 A 
ATOM     30  C   UNL     1      46.366  33.986  43.952  0.00  0.00    +0.000 A 
ATOM     31  H   UNL     1      43.901  36.590  44.997  0.00  0.00    +0.000 HD
ATOM     32  H   UNL     1      46.503  36.063  41.318  0.00  0.00    +0.000 HD
ATOM     33  H   UNL     1      48.132  34.440  40.505  0.00  0.00    +0.000 HD
BRANCH  28  34
ATOM     34  C   UNL     1      48.927  32.171  41.815  0.00  0.00    +0.000 A 
ATOM     35  C   UNL     1      50.273  32.285  42.112  0.00  0.00    +0.000 A 
ATOM     36  H   UNL     1      50.804  33.066  42.688  0.00  0.00    +0.000 HD
ATOM     37  S   UNL     1      50.974  30.771  41.285  0.00  0.00    +0.000 S 
ATOM     38  C   UNL     1      49.252  30.258  40.677  0.00  0.00    +0.000 A 
ATOM     39  H   UNL     1      48.992  29.378  40.085  0.00  0.00    +0.000 HD
ATOM     40  N   UNL     1      48.575  31.109  41.094  0.00  0.00    +0.000 NA
ENDBRANCH  28  34
BRANCH  29  41
ATOM     41  N   UNL     1      47.664  31.923  44.212  0.00  0.00    +0.000 N 
ATOM     42  H   UNL     1      47.004  31.194  43.815  0.00  0.00    +0.000 HD
ATOM     43  H   UNL     1      48.382  31.708  44.933  0.00  0.00    +0.000 HD
ENDBRANCH  29  41
ENDBRANCH   5  21
BRANCH   2  44
ATOM     44  N   UNL     1      47.456  29.888  48.793  0.00  0.00    +0.000 N 
ATOM     45  H   UNL     1      48.168  29.129  48.711  0.00  0.00    +0.000 HD
ATOM     46  H   UNL     1      46.948  30.155  49.688  0.00  0.00    +0.000 HD
ENDBRANCH   2  44
TORSDOF 4
