
 OpenBabel03252504413D

 43 46  0  0  0  0  0  0  0  0999 V2000
   46.3620   32.2300   47.7930 C   0  0  0  0  0  0  0  0  0  0  0  0
   45.8980   31.8450   49.0220 C   0  0  0  0  0  0  0  0  0  0  0  0
   46.8950   31.1640   49.5990 N   0  0  0  0  0  0  0  0  0  0  0  0
   47.9620   31.1040   48.7930 C   0  0  0  0  0  0  0  0  0  0  0  0
   47.6090   31.7800   47.6600 N   0  0  0  0  0  0  0  0  0  0  0  0
   49.2330   30.5020   48.9620 N   0  0  0  0  0  0  0  0  0  0  0  0
   50.2900   31.2940   49.6140 C   0  0  0  0  0  0  0  0  0  0  0  0
   50.3940   30.7150   51.0220 C   0  0  0  0  0  0  0  0  0  0  0  0
   50.4720   29.2100   50.9630 C   0  0  0  0  0  0  0  0  0  0  0  0
   50.8180   28.7640   49.5580 C   0  0  0  0  0  0  0  0  0  0  0  0
   49.7400   29.2010   48.6070 C   0  0  0  0  0  0  0  0  0  0  0  0
   44.9230   32.0370   49.4650 H   0  0  0  0  0  0  0  0  0  0  0  0
   46.8740   30.7270   50.5490 H   0  0  0  0  0  0  0  0  0  0  0  0
   51.2450   31.2220   49.0810 H   0  0  0  0  0  0  0  0  0  0  0  0
   49.9940   32.3630   49.6950 H   0  0  0  0  0  0  0  0  0  0  0  0
   49.6000   31.0990   51.6700 H   0  0  0  0  0  0  0  0  0  0  0  0
   51.3500   31.0480   51.4880 H   0  0  0  0  0  0  0  0  0  0  0  0
   49.5300   28.7320   51.3300 H   0  0  0  0  0  0  0  0  0  0  0  0
   51.2850   28.7890   51.6200 H   0  0  0  0  0  0  0  0  0  0  0  0
   50.9340   27.6470   49.5700 H   0  0  0  0  0  0  0  0  0  0  0  0
   51.8020   29.1830   49.3120 H   0  0  0  0  0  0  0  0  0  0  0  0
   50.0730   29.1540   47.5630 H   0  0  0  0  0  0  0  0  0  0  0  0
   48.8870   28.4810   48.7680 H   0  0  0  0  0  0  0  0  0  0  0  0
   45.6130   33.0200   46.7650 C   0  0  0  0  0  0  0  0  0  0  0  0
   45.3700   34.0420   47.1250 H   0  0  0  0  0  0  0  0  0  0  0  0
   44.6320   32.4940   46.6530 H   0  0  0  0  0  0  0  0  0  0  0  0
   46.0800   33.9860   44.5560 C   0  0  0  0  0  3  0  0  0  0  0  0
   46.3670   33.1060   45.5070 C   0  0  0  0  0  3  0  0  0  0  0  0
   46.9150   33.9640   43.3460 C   0  0  0  0  0  0  0  0  0  0  0  0
   46.9440   35.0180   42.4060 C   0  0  0  0  0  0  0  0  0  0  0  0
   47.7590   34.9080   41.3060 C   0  0  0  0  0  0  0  0  0  0  0  0
   48.5080   33.7980   41.1510 N   0  0  0  0  0  0  0  0  0  0  0  0
   48.4690   32.8000   42.0570 C   0  0  0  0  0  0  0  0  0  0  0  0
   47.6970   32.8720   43.1270 N   0  0  0  0  0  0  0  0  0  0  0  0
   46.3130   35.8690   42.6090 H   0  0  0  0  0  0  0  0  0  0  0  0
   47.7960   35.7040   40.5770 H   0  0  0  0  0  0  0  0  0  0  0  0
   49.2600   31.5520   41.9560 C   0  0  0  0  0  0  0  0  0  0  0  0
   48.9100   30.1760   41.4500 C   0  0  0  0  0  0  0  0  0  0  0  0
   47.7460   30.3090   41.1120 H   0  0  0  0  0  0  0  0  0  0  0  0
   50.5890   29.3540   41.7570 S   0  0  0  0  0  0  0  0  0  0  0  0
   51.3510   30.9390   42.4560 C   0  0  0  0  0  0  0  0  0  0  0  0
   52.3650   30.6750   42.7070 H   0  0  0  0  0  0  0  0  0  0  0  0
   50.4650   31.8610   42.4330 N   0  0  0  0  0  0  0  0  0  0  0  0
  1  2  2  0  0  0  0
  2 12  1  0  0  0  0
  2  3  1  0  0  0  0
  3 13  1  0  0  0  0
  4  6  1  0  0  0  0
  4  3  1  0  0  0  0
  5  1  1  0  0  0  0
  5  4  2  0  0  0  0
  6  7  1  0  0  0  0
  7 15  1  0  0  0  0
  7  8  1  0  0  0  0
  8 17  1  0  0  0  0
  8 16  1  0  0  0  0
  9  8  1  0  0  0  0
  9 18  1  0  0  0  0
  9 19  1  0  0  0  0
 10 20  1  0  0  0  0
 10  9  1  0  0  0  0
 11 23  1  0  0  0  0
 11  6  1  0  0  0  0
 11 10  1  0  0  0  0
 14  7  1  0  0  0  0
 21 10  1  0  0  0  0
 22 11  1  0  0  0  0
 24 25  1  0  0  0  0
 24  1  1  0  0  0  0
 26 24  1  0  0  0  0
 27 28  2  0  0  0  0
 28 24  1  0  0  0  0
 29 27  1  0  0  0  0
 30 35  1  0  0  0  0
 30 29  2  0  0  0  0
 31 30  1  0  0  0  0
 32 31  2  0  0  0  0
 32 33  1  0  0  0  0
 33 34  2  0  0  0  0
 34 29  1  0  0  0  0
 36 31  1  0  0  0  0
 37 33  1  0  0  0  0
 37 43  1  0  0  0  0
 38 40  1  0  0  0  0
 38 37  2  0  0  0  0
 39 38  1  0  0  0  0
 40 41  1  0  0  0  0
 41 42  1  0  0  0  0
 43 41  2  0  0  0  0
M  END
>  <minimizedAffinity>
-5.58896732

>  <minimizedRMSD>
0.879604638

$$$$
