REMARK  Name = 
REMARK  5 active torsions:
REMARK  status: ('A' for Active; 'I' for Inactive)
REMARK    1  A    between atoms: C_1  and  N_2
REMARK    2  A    between atoms: C_1  and  C_9
REMARK    3  A    between atoms: C_7  and  S_8
REMARK    4  A    between atoms: C_9  and  C_10
REMARK    5  A    between atoms: C_14  and  C_30
REMARK                            x       y       z     vdW  Elec       q    Type
REMARK                         _______ _______ _______ _____ _____    ______ ____
ROOT
ATOM      1  C   UNL     1      44.767  34.487  40.458  0.00  0.00    +0.000 C 
ATOM      2  H   UNL     1      44.363  35.530  40.675  0.00  0.00    +0.000 HD
ATOM      3  H   UNL     1      44.832  34.508  39.350  0.00  0.00    +0.000 HD
ENDROOT
BRANCH   1   4
ATOM      4  N   UNL     1      45.922  34.120  41.004  0.00  0.00    +0.000 N 
ATOM      5  C   UNL     1      46.839  33.134  40.561  0.00  0.00    +0.000 C 
ATOM      6  C   UNL     1      47.904  34.071  39.934  0.00  0.00    +0.000 C 
ATOM      7  C   UNL     1      48.509  34.984  40.904  0.00  0.00    +0.000 C 
ATOM      8  C   UNL     1      47.760  35.312  42.114  0.00  0.00    +0.000 C 
ATOM      9  C   UNL     1      46.324  34.870  42.203  0.00  0.00    +0.000 C 
ATOM     10  H   UNL     1      46.446  32.517  39.740  0.00  0.00    +0.000 HD
ATOM     11  H   UNL     1      47.331  32.488  41.261  0.00  0.00    +0.000 HD
ATOM     12  H   UNL     1      47.345  34.642  39.153  0.00  0.00    +0.000 HD
ATOM     13  H   UNL     1      48.699  33.431  39.456  0.00  0.00    +0.000 HD
ATOM     14  H   UNL     1      49.485  34.536  41.257  0.00  0.00    +0.000 HD
ATOM     15  H   UNL     1      48.809  35.930  40.377  0.00  0.00    +0.000 HD
ATOM     16  H   UNL     1      48.104  35.856  42.957  0.00  0.00    +0.000 HD
BRANCH   9  17
ATOM     17  S   UNL     1      45.301  35.277  43.580  0.00  0.00    +0.000 S 
ATOM     18  H   UNL     1      44.880  36.608  43.530  0.00  0.00    +0.000 HD
ENDBRANCH   9  17
ENDBRANCH   1   4
BRANCH   1  19
ATOM     19  C   UNL     1      43.639  33.550  40.776  0.00  0.00    +0.000 C 
ATOM     20  H   UNL     1      43.695  32.650  40.118  0.00  0.00    +0.000 HD
ATOM     21  H   UNL     1      43.637  33.218  41.841  0.00  0.00    +0.000 HD
BRANCH  19  22
ATOM     22  C   UNL     1      42.375  34.300  40.545  0.00  0.00    +0.000 A 
ATOM     23  C   UNL     1      41.629  34.120  39.399  0.00  0.00    +0.000 A 
ATOM     24  C   UNL     1      40.450  34.879  39.257  0.00  0.00    +0.000 A 
ATOM     25  N   UNL     1      40.118  35.745  40.259  0.00  0.00    +0.000 NA
ATOM     26  C   UNL     1      40.881  35.875  41.344  0.00  0.00    +0.000 A 
ATOM     27  N   UNL     1      41.988  35.158  41.471  0.00  0.00    +0.000 NA
ATOM     28  H   UNL     1      41.931  33.422  38.630  0.00  0.00    +0.000 HD
ATOM     29  H   UNL     1      39.847  34.753  38.362  0.00  0.00    +0.000 HD
BRANCH  26  30
ATOM     30  C   UNL     1      40.398  36.845  42.341  0.00  0.00    +0.000 A 
ATOM     31  C   UNL     1      40.964  36.597  43.590  0.00  0.00    +0.000 A 
ATOM     32  H   UNL     1      41.661  35.898  44.060  0.00  0.00    +0.000 HD
ATOM     33  S   UNL     1      40.229  37.918  44.680  0.00  0.00    +0.000 S 
ATOM     34  C   UNL     1      39.255  38.578  43.165  0.00  0.00    +0.000 A 
ATOM     35  H   UNL     1      38.466  39.413  42.750  0.00  0.00    +0.000 HD
ATOM     36  N   UNL     1      39.576  37.876  42.348  0.00  0.00    +0.000 NA
ENDBRANCH  26  30
ENDBRANCH  19  22
ENDBRANCH   1  19
TORSDOF 5
