
     RDKit          3D

 22 23  0  0  0  0  0  0  0  0999 V2000
   47.2464   34.1926   43.2414 C   0  0  0  0  0  0  0  0  0  0  0  0
   46.6102   35.1622   42.5013 C   0  0  0  0  0  0  0  0  0  0  0  0
   45.3744   35.6102   43.0500 C   0  0  0  0  0  0  0  0  0  0  0  0
   44.9092   35.0865   44.2089 N   0  0  0  0  0  0  0  0  0  0  0  0
   45.5789   34.1423   44.8772 C   0  0  0  0  0  0  0  0  0  0  0  0
   46.7278   33.7107   44.3913 N   0  0  0  0  0  0  0  0  0  0  0  0
   48.5617   33.6755   42.8378 C   0  0  0  0  0  0  0  0  0  0  0  0
   49.5253   34.8170   42.6540 C   0  0  0  0  0  0  0  0  0  0  0  0
   44.7322   36.3731   42.6057 H   0  0  0  0  0  0  0  0  0  0  0  0
   45.1312   33.7849   45.7883 H   0  0  0  0  0  0  0  0  0  0  0  0
   48.4924   33.0330   41.9503 H   0  0  0  0  0  0  0  0  0  0  0  0
   48.9656   33.0058   43.6395 H   0  0  0  0  0  0  0  0  0  0  0  0
   49.0658   35.8223   42.7135 H   0  0  0  0  0  0  0  0  0  0  0  0
   50.2295   34.8125   43.5528 H   0  0  0  0  0  0  0  0  0  0  0  0
   50.2101   34.6653   41.7984 H   0  0  0  0  0  0  0  0  0  0  0  0
   47.0314   35.8001   41.2671 C   0  0  0  0  0  0  0  0  0  0  0  0
   48.1074   36.8366   41.2109 C   0  0  0  0  0  0  0  0  0  0  0  0
   48.6890   37.3075   41.8352 H   0  0  0  0  0  0  0  0  0  0  0  0
   48.2528   37.1729   39.4634 S   0  0  0  0  0  0  0  0  0  0  0  0
   46.8950   35.9221   39.0149 C   0  0  0  0  0  0  0  0  0  0  0  0
   46.4255   35.5838   38.0365 H   0  0  0  0  0  0  0  0  0  0  0  0
   46.4734   35.3927   40.1281 N   0  0  0  0  0  0  0  0  0  0  0  0
  1  6  2  0
  2  3  2  0
  2  1  1  0
  3  4  1  0
  4  5  2  0
  6  5  1  0
  7  1  1  0
  8  7  1  0
  3  9  1  0
  5 10  1  0
  7 11  1  0
  7 12  1  0
  8 13  1  0
  8 14  1  0
  8 15  1  0
 16 17  2  0
 17 18  1  0
 17 19  1  0
 19 20  1  0
 20 21  1  0
 20 22  2  0
 22 16  1  0
  2 16  1  0
M  ISO  8   9  14  10  14  11   8  12   8  13   8  14   8  15   8  18  15
M  ISO  1  21  16
M  END
>  <DihAtoms>  (1) 
2,1,15,16

>  <DihDeg>  (1) 
-151.12928565333

$$$$
