REMARK  Name = 
REMARK  4 active torsions:
REMARK  status: ('A' for Active; 'I' for Inactive)
REMARK    1  A    between atoms: C_3  and  C_18
REMARK    2  A    between atoms: C_7  and  N_8
REMARK    3  A    between atoms: C_12  and  C_13
REMARK    4  A    between atoms: C_16  and  C_35
REMARK                            x       y       z     vdW  Elec       q    Type
REMARK                         _______ _______ _______ _____ _____    ______ ____
ROOT
ATOM      1  F   UNL     1      46.719  33.475  44.906  0.00  0.00    +0.000 F 
ATOM      2  C   UNL     1      47.292  32.269  44.645  0.00  0.00    +0.000 A 
ATOM      3  C   UNL     1      48.091  32.166  43.533  0.00  0.00    +0.000 A 
ATOM      4  C   UNL     1      48.669  30.946  43.270  0.00  0.00    +0.000 A 
ATOM      5  C   UNL     1      48.434  29.880  44.117  0.00  0.00    +0.000 A 
ATOM      6  C   UNL     1      47.640  29.979  45.223  0.00  0.00    +0.000 A 
ATOM      7  C   UNL     1      47.054  31.227  45.484  0.00  0.00    +0.000 A 
ATOM      8  H   UNL     1      49.308  30.808  42.407  0.00  0.00    +0.000 HD
ATOM      9  H   UNL     1      48.892  28.920  43.905  0.00  0.00    +0.000 HD
ATOM     10  H   UNL     1      47.468  29.135  45.872  0.00  0.00    +0.000 HD
ENDROOT
BRANCH   7  11
ATOM     11  N   UNL     1      46.241  31.282  46.640  0.00  0.00    +0.000 N 
ATOM     12  C   UNL     1      45.163  30.441  47.089  0.00  0.00    +0.000 C 
ATOM     13  C   UNL     1      45.560  30.142  48.551  0.00  0.00    +0.000 C 
ATOM     14  C   UNL     1      46.454  31.294  48.920  0.00  0.00    +0.000 C 
ATOM     15  C   UNL     1      46.260  32.240  47.752  0.00  0.00    +0.000 C 
ATOM     16  H   UNL     1      44.235  31.030  47.047  0.00  0.00    +0.000 HD
ATOM     17  H   UNL     1      45.089  29.491  46.532  0.00  0.00    +0.000 HD
ATOM     18  H   UNL     1      44.606  30.142  49.116  0.00  0.00    +0.000 HD
ATOM     19  H   UNL     1      46.074  29.162  48.572  0.00  0.00    +0.000 HD
ATOM     20  H   UNL     1      47.499  31.012  49.079  0.00  0.00    +0.000 HD
ATOM     21  H   UNL     1      46.003  31.785  49.822  0.00  0.00    +0.000 HD
ATOM     22  H   UNL     1      47.215  32.804  47.639  0.00  0.00    +0.000 HD
BRANCH  15  23
ATOM     23  C   UNL     1      45.051  33.086  47.848  0.00  0.00    +0.000 C 
ATOM     24  H   UNL     1      44.353  32.694  48.614  0.00  0.00    +0.000 HD
ATOM     25  H   UNL     1      45.355  34.101  48.190  0.00  0.00    +0.000 HD
ATOM     26  H   UNL     1      44.577  33.233  46.860  0.00  0.00    +0.000 HD
ENDBRANCH  15  23
ENDBRANCH   7  11
BRANCH   3  31
ATOM     27  C   UNL     1      49.479  35.270  42.148  0.00  0.00    +0.000 A 
ATOM     28  C   UNL     1      48.687  35.476  41.013  0.00  0.00    +0.000 A 
ATOM     29  C   UNL     1      47.681  34.537  40.739  0.00  0.00    +0.000 A 
ATOM     30  N   UNL     1      47.574  33.518  41.605  0.00  0.00    +0.000 NA
ATOM     31  C   UNL     1      48.312  33.320  42.669  0.00  0.00    +0.000 A 
ATOM     32  N   UNL     1      49.266  34.202  42.937  0.00  0.00    +0.000 NA
ATOM     33  H   UNL     1      50.264  35.989  42.374  0.00  0.00    +0.000 HD
ATOM     34  H   UNL     1      48.809  36.305  40.350  0.00  0.00    +0.000 HD
BRANCH  29  35
ATOM     35  C   UNL     1      46.783  34.653  39.567  0.00  0.00    +0.000 A 
ATOM     36  C   UNL     1      47.235  34.357  38.290  0.00  0.00    +0.000 A 
ATOM     37  H   UNL     1      48.258  34.018  38.009  0.00  0.00    +0.000 HD
ATOM     38  S   UNL     1      45.736  34.670  37.267  0.00  0.00    +0.000 S 
ATOM     39  C   UNL     1      44.742  35.161  38.811  0.00  0.00    +0.000 A 
ATOM     40  H   UNL     1      43.673  35.489  38.900  0.00  0.00    +0.000 HD
ATOM     41  N   UNL     1      45.525  35.036  39.649  0.00  0.00    +0.000 NA
ENDBRANCH  29  35
ENDBRANCH   3  31
TORSDOF 4
