
 OpenBabel03252500533D

 22 23  0  0  0  0  0  0  0  0999 V2000
   46.5890   32.1190   45.9710 C   0  0  0  0  0  0  0  0  0  0  0  0
   46.7370   32.2230   44.6080 C   0  0  0  0  0  0  0  0  0  0  0  0
   47.5350   31.2010   44.0190 C   0  0  0  0  0  0  0  0  0  0  0  0
   48.0810   30.2290   44.7880 N   0  0  0  0  0  0  0  0  0  0  0  0
   47.8990   30.1900   46.1120 C   0  0  0  0  0  0  0  0  0  0  0  0
   47.1620   31.1250   46.6830 N   0  0  0  0  0  0  0  0  0  0  0  0
   47.7600   31.1180   42.9540 H   0  0  0  0  0  0  0  0  0  0  0  0
   48.3740   29.3820   46.6410 H   0  0  0  0  0  0  0  0  0  0  0  0
   46.1790   33.2050   43.6960 C   0  0  0  0  0  0  0  0  0  0  0  0
   44.8220   33.0700   43.0830 C   0  0  0  0  0  0  0  0  0  0  0  0
   44.0910   32.4260   43.0830 H   0  0  0  0  0  0  0  0  0  0  0  0
   44.6460   34.5850   42.1550 S   0  0  0  0  0  0  0  0  0  0  0  0
   46.3610   35.2140   42.6780 C   0  0  0  0  0  0  0  0  0  0  0  0
   46.9570   36.1570   42.4590 H   0  0  0  0  0  0  0  0  0  0  0  0
   46.8870   34.3050   43.4480 N   0  0  0  0  0  0  0  0  0  0  0  0
   45.7410   33.0630   46.7150 C   0  0  0  0  0  0  0  0  0  0  0  0
   44.8930   33.4110   46.1110 H   0  0  0  0  0  0  0  0  0  0  0  0
   46.3230   33.9910   46.9460 H   0  0  0  0  0  0  0  0  0  0  0  0
   45.3120   32.4450   48.0180 C   0  0  0  0  0  0  0  0  0  0  0  0
   45.5780   31.3770   48.1330 H   0  0  0  0  0  0  0  0  0  0  0  0
   45.9220   32.9430   48.8460 H   0  0  0  0  0  0  0  0  0  0  0  0
   44.2690   32.6990   48.2890 H   0  0  0  0  0  0  0  0  0  0  0  0
  1  6  1  0  0  0  0
  1 16  1  0  0  0  0
  2  1  2  0  0  0  0
  3  2  1  0  0  0  0
  3  4  2  0  0  0  0
  4  5  1  0  0  0  0
  5  8  1  0  0  0  0
  5  6  2  0  0  0  0
  7  3  1  0  0  0  0
  9  2  1  0  0  0  0
 10  9  2  0  0  0  0
 11 10  1  0  0  0  0
 12 13  1  0  0  0  0
 12 10  1  0  0  0  0
 13 15  2  0  0  0  0
 14 13  1  0  0  0  0
 15  9  1  0  0  0  0
 16 18  1  0  0  0  0
 16 19  1  0  0  0  0
 17 16  1  0  0  0  0
 19 20  1  0  0  0  0
 19 22  1  0  0  0  0
 19 21  1  0  0  0  0
M  END
>  <minimizedAffinity>
-3.1313498

>  <minimizedRMSD>
4.71714115

$$$$
