
 OpenBabel03242522123D

 18 19  0  0  0  0  0  0  0  0999 V2000
   44.5300   35.7140   44.9360 C   0  0  0  0  0  0  0  0  0  0  0  0
   45.2090   35.7090   43.7050 C   0  0  0  0  0  0  0  0  0  0  0  0
   46.1320   34.7090   43.4650 C   0  0  0  0  0  0  0  0  0  0  0  0
   46.3120   33.7880   44.4670 N   0  0  0  0  0  0  0  0  0  0  0  0
   45.6540   33.8140   45.6280 C   0  0  0  0  0  0  0  0  0  0  0  0
   44.7570   34.7860   45.8640 N   0  0  0  0  0  0  0  0  0  0  0  0
   43.8100   36.4850   45.1380 H   0  0  0  0  0  0  0  0  0  0  0  0
   45.9710   32.9880   46.2430 H   0  0  0  0  0  0  0  0  0  0  0  0
   46.8800   34.6390   42.2010 C   0  0  0  0  0  0  0  0  0  0  0  0
   46.5330   33.8220   41.1700 C   0  0  0  0  0  0  0  0  0  0  0  0
   45.7590   33.0890   40.9420 H   0  0  0  0  0  0  0  0  0  0  0  0
   47.8300   34.1830   39.8960 S   0  0  0  0  0  0  0  0  0  0  0  0
   48.6370   35.4270   41.0470 C   0  0  0  0  0  0  0  0  0  0  0  0
   49.5220   36.0010   40.8030 H   0  0  0  0  0  0  0  0  0  0  0  0
   47.9500   35.3610   41.9590 N   0  0  0  0  0  0  0  0  0  0  0  0
   44.8820   36.7510   42.7980 N   0  0  0  0  0  0  0  0  0  0  0  0
   45.5240   37.5470   43.0210 H   0  0  0  0  0  0  0  0  0  0  0  0
   44.1120   36.2640   42.2740 H   0  0  0  0  0  0  0  0  0  0  0  0
  1  7  1  0  0  0  0
  1  6  1  0  0  0  0
  2  1  2  0  0  0  0
  3  2  1  0  0  0  0
  3  4  2  0  0  0  0
  4  5  1  0  0  0  0
  5  6  2  0  0  0  0
  5  8  1  0  0  0  0
  9  3  1  0  0  0  0
 10  9  2  0  0  0  0
 11 10  1  0  0  0  0
 12 13  1  0  0  0  0
 12 10  1  0  0  0  0
 13 15  2  0  0  0  0
 14 13  1  0  0  0  0
 15  9  1  0  0  0  0
 16 17  1  0  0  0  0
 16  2  1  0  0  0  0
 18 16  1  0  0  0  0
M  END
>  <minimizedAffinity>
-4.31551409

>  <minimizedRMSD>
1.75529528

$$$$
