
     RDKit          3D

 43 46  0  0  0  0  0  0  0  0999 V2000
   48.9634   34.7631   41.5170 C   0  0  1  0  0  0  0  0  0  0  0  0
   50.0732   34.7998   42.5265 C   0  0  0  0  0  0  0  0  0  0  0  0
   49.3525   33.5440   42.2090 C   0  0  2  0  0  0  0  0  0  0  0  0
   50.1286   32.6282   41.3713 N   0  0  0  0  0  0  0  0  0  0  0  0
   49.4684   32.1879   40.2027 C   0  0  0  0  0  0  0  0  0  0  0  0
   50.4579   31.2627   39.5127 C   0  0  0  0  0  0  0  0  0  0  0  0
   50.7352   30.1097   40.2927 N   0  0  0  0  0  0  0  0  0  0  0  0
   50.6332   30.3282   41.7244 C   0  0  0  0  0  0  0  0  0  0  0  0
   51.0099   31.7778   42.0509 C   0  0  0  0  0  0  0  0  0  0  0  0
   47.6657   35.3935   41.8959 C   0  0  0  0  0  0  0  0  0  0  0  0
   46.6937   34.2702   42.1422 C   0  0  0  0  0  0  0  0  0  0  0  0
   44.5035   35.8915   44.7287 C   0  0  0  0  0  0  0  0  0  0  0  0
   45.1660   35.6482   43.4976 C   0  0  0  0  0  0  0  0  0  0  0  0
   45.9689   34.5530   43.4211 C   0  0  0  0  0  0  0  0  0  0  0  0
   46.1038   33.7423   44.5157 N   0  0  0  0  0  0  0  0  0  0  0  0
   45.4881   33.9779   45.6445 C   0  0  0  0  0  0  0  0  0  0  0  0
   44.6800   35.0500   45.7751 N   0  0  0  0  0  0  0  0  0  0  0  0
   49.2702   34.9723   40.4965 H   0  0  0  0  0  0  0  0  0  0  0  0
   51.1074   34.9734   42.1834 H   0  0  0  0  0  0  0  0  0  0  0  0
   49.8520   35.3624   43.4651 H   0  0  0  0  0  0  0  0  0  0  0  0
   48.8288   33.0990   43.0527 H   0  0  0  0  0  0  0  0  0  0  0  0
   49.3253   33.0673   39.5197 H   0  0  0  0  0  0  0  0  0  0  0  0
   48.5202   31.6398   40.3865 H   0  0  0  0  0  0  0  0  0  0  0  0
   50.0762   31.0072   38.5124 H   0  0  0  0  0  0  0  0  0  0  0  0
   51.4137   31.8573   39.4689 H   0  0  0  0  0  0  0  0  0  0  0  0
   51.6096   29.6446   40.0181 H   0  0  0  0  0  0  0  0  0  0  0  0
   49.6305   30.1466   42.1244 H   0  0  0  0  0  0  0  0  0  0  0  0
   51.3580   29.6907   42.2432 H   0  0  0  0  0  0  0  0  0  0  0  0
   50.8772   31.8925   43.1596 H   0  0  0  0  0  0  0  0  0  0  0  0
   52.0826   31.9351   41.8242 H   0  0  0  0  0  0  0  0  0  0  0  0
   47.2933   36.1210   41.1162 H   0  0  0  0  0  0  0  0  0  0  0  0
   47.7766   36.0084   42.8066 H   0  0  0  0  0  0  0  0  0  0  0  0
   45.8917   34.3728   41.3607 H   0  0  0  0  0  0  0  0  0  0  0  0
   47.0680   33.2651   42.0377 H   0  0  0  0  0  0  0  0  0  0  0  0
   43.8638   36.7619   44.7932 H   0  0  0  0  0  0  0  0  0  0  0  0
   45.0234   36.3215   42.6644 H   0  0  0  0  0  0  0  0  0  0  0  0
   45.6577   33.0821   46.8046 C   0  0  0  0  0  0  0  0  0  0  0  0
   46.4166   31.9082   46.6826 C   0  0  0  0  0  0  0  0  0  0  0  0
   46.9274   31.5482   45.7951 H   0  0  0  0  0  0  0  0  0  0  0  0
   46.3227   31.1694   48.3545 S   0  0  0  0  0  0  0  0  0  0  0  0
   45.2405   32.6162   48.9536 C   0  0  0  0  0  0  0  0  0  0  0  0
   44.8143   32.7833   49.9440 H   0  0  0  0  0  0  0  0  0  0  0  0
   45.1581   33.2554   48.0078 N   0  0  0  0  0  0  0  0  0  0  0  0
  1 10  1  0
  1  3  1  0
  1  2  1  0
  3  2  1  0
  4  9  1  0
  4  3  1  0
  5  4  1  0
  6  5  1  0
  6  7  1  0
  7  8  1  0
  8  9  1  0
 10 11  1  0
 11 14  1  0
 12 17  2  0
 13 12  1  0
 14 13  2  0
 14 15  1  0
 15 16  2  0
 16 17  1  0
  1 18  1  6
  2 19  1  0
  2 20  1  0
  3 21  1  1
  5 22  1  0
  5 23  1  0
  6 24  1  0
  6 25  1  0
  7 26  1  0
  8 27  1  0
  8 28  1  0
  9 29  1  0
  9 30  1  0
 10 31  1  0
 10 32  1  0
 11 33  1  0
 11 34  1  0
 12 35  1  0
 13 36  1  0
 37 38  2  0
 38 39  1  0
 38 40  1  0
 40 41  1  0
 41 42  1  0
 41 43  2  0
 43 37  1  0
 16 37  1  0
M  ISO  8  18  13  19  13  20  13  21  13  22  13  23  13  24  13  25  13
M  ISO  8  26   5  27  13  28  13  29  13  30  13  31   8  32   8  33   8
M  ISO  5  34   8  35  14  36  14  39  15  42  16
M  END
>  <DihAtoms>  (1) 
14,15,36,37

>  <DihDeg>  (1) 
-139.3098289850826

$$$$
