
     RDKit          3D

 29 31  0  0  0  0  0  0  0  0999 V2000
   46.6922   34.2498   40.6979 C   0  0  0  0  0  0  0  0  0  0  0  0
   48.0425   34.1910   41.3033 C   0  0  0  0  0  0  0  0  0  0  0  0
   48.7425   32.9914   41.1765 C   0  0  0  0  0  0  0  0  0  0  0  0
   50.0072   32.8629   41.7159 C   0  0  0  0  0  0  0  0  0  0  0  0
   50.5290   33.9515   42.3686 N   0  0  0  0  0  0  0  0  0  0  0  0
   49.8245   35.0966   42.4727 C   0  0  0  0  0  0  0  0  0  0  0  0
   48.6053   35.2063   41.9474 N   0  0  0  0  0  0  0  0  0  0  0  0
   48.0077   31.5940   40.3081 S   0  0  0  0  0  0  0  0  0  0  0  0
   45.6000   34.5462   41.6714 C   0  0  0  0  0  0  0  0  0  0  0  0
   44.2455   34.6572   41.0809 C   0  0  0  0  0  0  0  0  0  0  0  0
   43.2294   35.4392   41.7115 C   0  0  0  0  0  0  0  0  0  0  0  0
   41.7914   35.2114   40.5538 S   0  0  0  0  0  0  0  0  0  0  0  0
   42.8284   34.1035   39.4343 C   0  0  0  0  0  0  0  0  0  0  0  0
   43.8365   34.0872   39.9756 N   0  0  0  0  0  0  0  0  0  0  0  0
   46.7171   35.1327   39.9928 H   0  0  0  0  0  0  0  0  0  0  0  0
   46.4818   33.3907   40.0726 H   0  0  0  0  0  0  0  0  0  0  0  0
   50.5263   31.9178   41.6010 H   0  0  0  0  0  0  0  0  0  0  0  0
   50.3460   35.8875   43.0132 H   0  0  0  0  0  0  0  0  0  0  0  0
   47.0968   30.9712   41.1689 H   0  0  0  0  0  0  0  0  0  0  0  0
   45.6180   33.7573   42.4706 H   0  0  0  0  0  0  0  0  0  0  0  0
   45.8589   35.4952   42.2023 H   0  0  0  0  0  0  0  0  0  0  0  0
   43.3123   35.9996   42.6188 H   0  0  0  0  0  0  0  0  0  0  0  0
   42.2864   33.4920   38.1905 C   0  0  0  0  0  0  0  0  0  0  0  0
   43.1284   33.2381   37.1254 C   0  0  0  0  0  0  0  0  0  0  0  0
   44.2544   33.4659   37.1141 H   0  0  0  0  0  0  0  0  0  0  0  0
   41.9937   32.5072   35.8888 S   0  0  0  0  0  0  0  0  0  0  0  0
   40.5243   32.6804   37.0752 C   0  0  0  0  0  0  0  0  0  0  0  0
   39.4649   32.3901   36.8966 H   0  0  0  0  0  0  0  0  0  0  0  0
   41.0255   33.1562   38.0023 N   0  0  0  0  0  0  0  0  0  0  0  0
  1  2  1  0
  1  9  1  0
  2  7  1  0
  3  2  2  0
  3  4  1  0
  4  5  2  0
  5  6  1  0
  7  6  2  0
  8  3  1  0
 10  9  1  0
 10 11  2  0
 12 11  1  0
 13 14  2  0
 13 12  1  0
 14 10  1  0
  1 15  1  0
  1 16  1  0
  4 17  1  0
  6 18  1  0
  8 19  1  0
  9 20  1  0
  9 21  1  0
 11 22  1  0
 23 24  2  0
 24 25  1  0
 24 26  1  0
 26 27  1  0
 27 28  1  0
 27 29  2  0
 29 23  1  0
 13 23  1  0
M  ISO  8  15   8  16   8  17  14  18  14  19  11  20   8  21   8  22  14
M  ISO  2  25  15  28  16
M  END
>  <DihAtoms>  (1) 
13,12,22,23

>  <DihDeg>  (1) 
0.0015570629596921577

$$$$
