
 OpenBabel03242517423D

 38 41  0  0  0  0  0  0  0  0999 V2000
   35.8250   30.4950   40.6240 C   0  0  0  0  0  0  0  0  0  0  0  0
   35.2870   30.4930   41.5710 H   0  0  0  0  0  0  0  0  0  0  0  0
   35.3060   31.2550   39.9620 H   0  0  0  0  0  0  0  0  0  0  0  0
   35.8040   29.2060   39.8810 C   0  0  0  0  0  0  0  0  0  0  0  0
   35.2680   29.1720   38.5880 C   0  0  0  0  0  0  0  0  0  0  0  0
   35.2740   28.0460   37.8120 C   0  0  0  0  0  0  0  0  0  0  0  0
   35.8280   26.8810   38.3080 C   0  0  0  0  0  0  0  0  0  0  0  0
   36.3620   26.9120   39.5970 C   0  0  0  0  0  0  0  0  0  0  0  0
   36.3490   28.0670   40.3830 C   0  0  0  0  0  0  0  0  0  0  0  0
   34.8430   30.0930   38.2250 H   0  0  0  0  0  0  0  0  0  0  0  0
   34.8320   28.1410   36.8340 H   0  0  0  0  0  0  0  0  0  0  0  0
   35.8200   26.0160   37.6750 H   0  0  0  0  0  0  0  0  0  0  0  0
   36.7690   25.9420   39.8760 H   0  0  0  0  0  0  0  0  0  0  0  0
   36.9610   27.8150   41.6650 C   0  0  0  0  0  0  0  0  0  0  0  0
   38.3060   27.5450   41.6310 C   0  0  0  0  0  0  0  0  0  0  0  0
   39.3080   27.3700   40.9370 H   0  0  0  0  0  0  0  0  0  0  0  0
   38.8360   27.4060   43.4490 S   0  0  0  0  0  0  0  0  0  0  0  0
   37.0310   27.7620   43.9230 C   0  0  0  0  0  0  0  0  0  0  0  0
   36.4770   27.8550   44.9080 H   0  0  0  0  0  0  0  0  0  0  0  0
   36.5940   27.8670   42.9080 N   0  0  0  0  0  0  0  0  0  0  0  0
   37.6030   32.1840   40.3090 C   0  0  0  0  0  3  0  0  0  0  0  0
   37.2210   31.0220   40.7970 C   0  0  0  0  0  3  0  0  0  0  0  0
   39.9630   31.9470   41.0390 C   0  0  0  0  0  0  0  0  0  0  0  0
   38.9260   32.7380   40.4810 C   0  0  0  0  0  0  0  0  0  0  0  0
   39.2360   34.0270   40.1190 C   0  0  0  0  0  0  0  0  0  0  0  0
   40.5150   34.4920   40.3040 N   0  0  0  0  0  0  0  0  0  0  0  0
   41.4690   33.7140   40.8330 C   0  0  0  0  0  0  0  0  0  0  0  0
   41.2080   32.4380   41.2060 N   0  0  0  0  0  0  0  0  0  0  0  0
   39.7020   30.9180   41.3260 H   0  0  0  0  0  0  0  0  0  0  0  0
   38.4970   34.6870   39.6880 H   0  0  0  0  0  0  0  0  0  0  0  0
   42.8270   34.1790   41.0330 C   0  0  0  0  0  0  0  0  0  0  0  0
   43.3570   34.9820   41.9550 C   0  0  0  0  0  0  0  0  0  0  0  0
   44.6890   35.2860   41.9410 C   0  0  0  0  0  0  0  0  0  0  0  0
   45.4370   34.6850   40.8840 C   0  0  0  0  0  0  0  0  0  0  0  0
   44.1630   33.7050   39.9590 S   0  0  0  0  0  0  0  0  0  0  0  0
   42.7120   35.3930   42.7230 H   0  0  0  0  0  0  0  0  0  0  0  0
   45.2250   35.9210   42.6310 H   0  0  0  0  0  0  0  0  0  0  0  0
   46.4720   34.7820   40.6850 H   0  0  0  0  0  0  0  0  0  0  0  0
  1 22  1  0  0  0  0
  1  2  1  0  0  0  0
  3  1  1  0  0  0  0
  4  9  1  0  0  0  0
  4  1  1  0  0  0  0
  5  4  2  0  0  0  0
  6  7  2  0  0  0  0
  6  5  1  0  0  0  0
  7  8  1  0  0  0  0
  8 13  1  0  0  0  0
  8  9  2  0  0  0  0
  9 14  1  0  0  0  0
 10  5  1  0  0  0  0
 11  6  1  0  0  0  0
 12  7  1  0  0  0  0
 14 20  1  0  0  0  0
 15 14  2  0  0  0  0
 15 17  1  0  0  0  0
 16 15  1  0  0  0  0
 17 18  1  0  0  0  0
 18 19  1  0  0  0  0
 20 18  2  0  0  0  0
 21 24  1  0  0  0  0
 21 22  2  0  0  0  0
 23 28  1  0  0  0  0
 23 29  1  0  0  0  0
 24 23  2  0  0  0  0
 25 26  2  0  0  0  0
 25 24  1  0  0  0  0
 26 27  1  0  0  0  0
 27 31  1  0  0  0  0
 27 28  2  0  0  0  0
 30 25  1  0  0  0  0
 31 32  2  0  0  0  0
 32 36  1  0  0  0  0
 33 32  1  0  0  0  0
 33 37  1  0  0  0  0
 34 33  2  0  0  0  0
 35 34  1  0  0  0  0
 35 31  1  0  0  0  0
 38 34  1  0  0  0  0
M  END
>  <minimizedAffinity>
-5.9085083

$$$$

 OpenBabel03242517423D

 38 41  0  0  0  0  0  0  0  0999 V2000
   36.6930   25.7920   42.5380 C   0  0  0  0  0  0  0  0  0  0  0  0
   37.0140   25.6460   43.5670 H   0  0  0  0  0  0  0  0  0  0  0  0
   35.5590   25.7940   42.5530 H   0  0  0  0  0  0  0  0  0  0  0  0
   37.0980   24.7210   41.5880 C   0  0  0  0  0  0  0  0  0  0  0  0
   36.1160   24.0720   40.8300 C   0  0  0  0  0  0  0  0  0  0  0  0
   36.4120   23.1270   39.8870 C   0  0  0  0  0  0  0  0  0  0  0  0
   37.7300   22.7830   39.6580 C   0  0  0  0  0  0  0  0  0  0  0  0
   38.7110   23.4280   40.4130 C   0  0  0  0  0  0  0  0  0  0  0  0
   38.3990   24.3900   41.3760 C   0  0  0  0  0  0  0  0  0  0  0  0
   35.0970   24.3580   41.0290 H   0  0  0  0  0  0  0  0  0  0  0  0
   35.5710   22.6960   39.3670 H   0  0  0  0  0  0  0  0  0  0  0  0
   37.9300   22.0410   38.9110 H   0  0  0  0  0  0  0  0  0  0  0  0
   39.7060   23.0770   40.1440 H   0  0  0  0  0  0  0  0  0  0  0  0
   39.6000   24.8870   42.0030 C   0  0  0  0  0  0  0  0  0  0  0  0
   40.5350   25.4130   41.1480 C   0  0  0  0  0  0  0  0  0  0  0  0
   40.8580   25.6390   39.9810 H   0  0  0  0  0  0  0  0  0  0  0  0
   41.9070   26.1010   42.2660 S   0  0  0  0  0  0  0  0  0  0  0  0
   40.8850   25.5100   43.7540 C   0  0  0  0  0  0  0  0  0  0  0  0
   41.0320   25.5500   44.8780 H   0  0  0  0  0  0  0  0  0  0  0  0
   40.0200   25.0690   43.2170 N   0  0  0  0  0  0  0  0  0  0  0  0
   37.8990   27.9450   42.7010 C   0  0  0  0  0  3  0  0  0  0  0  0
   37.0750   27.1580   42.0410 C   0  0  0  0  0  3  0  0  0  0  0  0
   37.5140   29.9660   41.3140 C   0  0  0  0  0  0  0  0  0  0  0  0
   38.3140   29.2490   42.2400 C   0  0  0  0  0  0  0  0  0  0  0  0
   39.4760   29.8450   42.6700 C   0  0  0  0  0  0  0  0  0  0  0  0
   39.8120   31.0900   42.1960 N   0  0  0  0  0  0  0  0  0  0  0  0
   39.0290   31.7370   41.3220 C   0  0  0  0  0  0  0  0  0  0  0  0
   37.8760   31.1870   40.8710 N   0  0  0  0  0  0  0  0  0  0  0  0
   36.5870   29.4790   40.9770 H   0  0  0  0  0  0  0  0  0  0  0  0
   40.1340   29.3590   43.3740 H   0  0  0  0  0  0  0  0  0  0  0  0
   39.3580   33.0540   40.8140 C   0  0  0  0  0  0  0  0  0  0  0  0
   38.6050   34.1350   40.6120 C   0  0  0  0  0  0  0  0  0  0  0  0
   39.1460   35.2860   40.1130 C   0  0  0  0  0  0  0  0  0  0  0  0
   40.5450   35.2290   39.8380 C   0  0  0  0  0  0  0  0  0  0  0  0
   41.0080   33.4980   40.3180 S   0  0  0  0  0  0  0  0  0  0  0  0
   37.5490   34.0880   40.8520 H   0  0  0  0  0  0  0  0  0  0  0  0
   38.6370   36.2160   39.9090 H   0  0  0  0  0  0  0  0  0  0  0  0
   41.1630   35.9970   39.4510 H   0  0  0  0  0  0  0  0  0  0  0  0
  1  3  1  0  0  0  0
  1  2  1  0  0  0  0
  4  1  1  0  0  0  0
  5 10  1  0  0  0  0
  5  4  2  0  0  0  0
  6  5  1  0  0  0  0
  7  6  2  0  0  0  0
  7  8  1  0  0  0  0
  8  9  2  0  0  0  0
  9  4  1  0  0  0  0
  9 14  1  0  0  0  0
 11  6  1  0  0  0  0
 12  7  1  0  0  0  0
 13  8  1  0  0  0  0
 14 20  1  0  0  0  0
 15 14  2  0  0  0  0
 15 17  1  0  0  0  0
 16 15  1  0  0  0  0
 17 18  1  0  0  0  0
 18 19  1  0  0  0  0
 20 18  2  0  0  0  0
 22  1  1  0  0  0  0
 22 21  2  0  0  0  0
 23 24  1  0  0  0  0
 24 25  2  0  0  0  0
 24 21  1  0  0  0  0
 25 30  1  0  0  0  0
 26 25  1  0  0  0  0
 27 26  2  0  0  0  0
 28 23  2  0  0  0  0
 28 27  1  0  0  0  0
 29 23  1  0  0  0  0
 31 27  1  0  0  0  0
 32 31  2  0  0  0  0
 32 36  1  0  0  0  0
 33 32  1  0  0  0  0
 34 33  2  0  0  0  0
 34 35  1  0  0  0  0
 35 31  1  0  0  0  0
 37 33  1  0  0  0  0
 38 34  1  0  0  0  0
M  END
>  <minimizedAffinity>
-5.82555294

$$$$

 OpenBabel03242517423D

 38 41  0  0  0  0  0  0  0  0999 V2000
   32.0610   29.4830   36.4830 C   0  0  0  0  0  0  0  0  0  0  0  0
   32.6460   30.0770   35.7820 H   0  0  0  0  0  0  0  0  0  0  0  0
   31.6870   28.5820   35.9050 H   0  0  0  0  0  0  0  0  0  0  0  0
   30.8560   30.1590   37.0350 C   0  0  0  0  0  0  0  0  0  0  0  0
   30.5530   30.0130   38.3940 C   0  0  0  0  0  0  0  0  0  0  0  0
   29.5050   30.6550   38.9920 C   0  0  0  0  0  0  0  0  0  0  0  0
   28.6990   31.4890   38.2410 C   0  0  0  0  0  0  0  0  0  0  0  0
   28.9990   31.6360   36.8860 C   0  0  0  0  0  0  0  0  0  0  0  0
   30.0700   30.9730   36.2830 C   0  0  0  0  0  0  0  0  0  0  0  0
   31.1970   29.3570   38.9560 H   0  0  0  0  0  0  0  0  0  0  0  0
   29.3700   30.4640   40.0450 H   0  0  0  0  0  0  0  0  0  0  0  0
   27.8870   31.9810   38.7400 H   0  0  0  0  0  0  0  0  0  0  0  0
   28.2990   32.3150   36.4020 H   0  0  0  0  0  0  0  0  0  0  0  0
   30.1450   31.3040   34.8800 C   0  0  0  0  0  0  0  0  0  0  0  0
   29.5840   30.3850   34.0290 C   0  0  0  0  0  0  0  0  0  0  0  0
   29.0270   29.2930   33.9070 H   0  0  0  0  0  0  0  0  0  0  0  0
   29.7090   31.1610   32.3000 S   0  0  0  0  0  0  0  0  0  0  0  0
   30.5420   32.6600   33.1170 C   0  0  0  0  0  0  0  0  0  0  0  0
   30.9570   33.6420   32.7280 H   0  0  0  0  0  0  0  0  0  0  0  0
   30.5310   32.3210   34.1740 N   0  0  0  0  0  0  0  0  0  0  0  0
   34.1830   29.2860   37.7380 C   0  0  0  0  0  3  0  0  0  0  0  0
   32.9320   28.9120   37.5660 C   0  0  0  0  0  3  0  0  0  0  0  0
   35.8910   27.6760   38.5440 C   0  0  0  0  0  0  0  0  0  0  0  0
   35.0390   28.7840   38.7870 C   0  0  0  0  0  0  0  0  0  0  0  0
   35.0710   29.3450   40.0420 C   0  0  0  0  0  0  0  0  0  0  0  0
   35.9120   28.8240   40.9940 N   0  0  0  0  0  0  0  0  0  0  0  0
   36.7040   27.7760   40.7260 C   0  0  0  0  0  0  0  0  0  0  0  0
   36.7040   27.1910   39.5040 N   0  0  0  0  0  0  0  0  0  0  0  0
   35.8560   27.2350   37.5370 H   0  0  0  0  0  0  0  0  0  0  0  0
   34.4500   30.1910   40.2990 H   0  0  0  0  0  0  0  0  0  0  0  0
   37.6040   27.2130   41.7120 C   0  0  0  0  0  0  0  0  0  0  0  0
   38.0430   27.6860   42.8780 C   0  0  0  0  0  0  0  0  0  0  0  0
   38.9060   26.9620   43.6510 C   0  0  0  0  0  0  0  0  0  0  0  0
   39.2820   25.6940   43.1160 C   0  0  0  0  0  0  0  0  0  0  0  0
   38.3610   25.6150   41.5070 S   0  0  0  0  0  0  0  0  0  0  0  0
   37.7030   28.6610   43.2070 H   0  0  0  0  0  0  0  0  0  0  0  0
   39.3250   27.2430   44.6050 H   0  0  0  0  0  0  0  0  0  0  0  0
   39.9330   24.9760   43.5420 H   0  0  0  0  0  0  0  0  0  0  0  0
  1  4  1  0  0  0  0
  1 22  1  0  0  0  0
  2  1  1  0  0  0  0
  3  1  1  0  0  0  0
  4  5  1  0  0  0  0
  5 10  1  0  0  0  0
  5  6  2  0  0  0  0
  6 11  1  0  0  0  0
  7 12  1  0  0  0  0
  7  6  1  0  0  0  0
  8  7  2  0  0  0  0
  9  8  1  0  0  0  0
  9  4  2  0  0  0  0
 13  8  1  0  0  0  0
 14  9  1  0  0  0  0
 15 14  2  0  0  0  0
 16 15  1  0  0  0  0
 17 18  1  0  0  0  0
 17 15  1  0  0  0  0
 18 20  2  0  0  0  0
 19 18  1  0  0  0  0
 20 14  1  0  0  0  0
 21 24  1  0  0  0  0
 22 21  2  0  0  0  0
 23 24  2  0  0  0  0
 23 28  1  0  0  0  0
 24 25  1  0  0  0  0
 25 30  1  0  0  0  0
 25 26  2  0  0  0  0
 27 26  1  0  0  0  0
 27 31  1  0  0  0  0
 28 27  2  0  0  0  0
 29 23  1  0  0  0  0
 31 32  2  0  0  0  0
 32 36  1  0  0  0  0
 32 33  1  0  0  0  0
 33 37  1  0  0  0  0
 34 38  1  0  0  0  0
 34 33  2  0  0  0  0
 35 31  1  0  0  0  0
 35 34  1  0  0  0  0
M  END
>  <minimizedAffinity>
-5.55234814

$$$$

 OpenBabel03242517423D

 38 41  0  0  0  0  0  0  0  0999 V2000
   36.9380   27.3280   39.6700 C   0  0  0  0  0  0  0  0  0  0  0  0
   36.9430   26.2500   39.5180 H   0  0  0  0  0  0  0  0  0  0  0  0
   37.8500   27.7320   39.1300 H   0  0  0  0  0  0  0  0  0  0  0  0
   37.0580   27.7700   41.0850 C   0  0  0  0  0  0  0  0  0  0  0  0
   36.8660   26.8360   42.1110 C   0  0  0  0  0  0  0  0  0  0  0  0
   37.0250   27.1450   43.4330 C   0  0  0  0  0  0  0  0  0  0  0  0
   37.3920   28.4280   43.7940 C   0  0  0  0  0  0  0  0  0  0  0  0
   37.5840   29.3600   42.7730 C   0  0  0  0  0  0  0  0  0  0  0  0
   37.4150   29.0360   41.4250 C   0  0  0  0  0  0  0  0  0  0  0  0
   36.5810   25.8440   41.8030 H   0  0  0  0  0  0  0  0  0  0  0  0
   36.8490   26.3440   44.1330 H   0  0  0  0  0  0  0  0  0  0  0  0
   37.5110   28.6380   44.8380 H   0  0  0  0  0  0  0  0  0  0  0  0
   37.8700   30.3290   43.1770 H   0  0  0  0  0  0  0  0  0  0  0  0
   37.6730   30.1850   40.5910 C   0  0  0  0  0  0  0  0  0  0  0  0
   36.7580   31.2030   40.6930 C   0  0  0  0  0  0  0  0  0  0  0  0
   35.7040   31.5990   41.1910 H   0  0  0  0  0  0  0  0  0  0  0  0
   37.4410   32.6030   39.6070 S   0  0  0  0  0  0  0  0  0  0  0  0
   38.9140   31.4710   39.2080 C   0  0  0  0  0  0  0  0  0  0  0  0
   39.8440   31.5820   38.5690 H   0  0  0  0  0  0  0  0  0  0  0  0
   38.6260   30.5810   39.8050 N   0  0  0  0  0  0  0  0  0  0  0  0
   35.6830   28.0550   37.6660 C   0  0  0  0  0  3  0  0  0  0  0  0
   35.7670   27.9660   38.9780 C   0  0  0  0  0  3  0  0  0  0  0  0
   34.6680   28.9570   35.5890 C   0  0  0  0  0  0  0  0  0  0  0  0
   34.5600   28.6320   36.9660 C   0  0  0  0  0  0  0  0  0  0  0  0
   33.3590   28.8840   37.5850 C   0  0  0  0  0  0  0  0  0  0  0  0
   32.3270   29.4290   36.8600 N   0  0  0  0  0  0  0  0  0  0  0  0
   32.4670   29.7230   35.5600 C   0  0  0  0  0  0  0  0  0  0  0  0
   33.6330   29.4920   34.9100 N   0  0  0  0  0  0  0  0  0  0  0  0
   35.6350   28.7510   35.1050 H   0  0  0  0  0  0  0  0  0  0  0  0
   33.2030   28.6610   38.6300 H   0  0  0  0  0  0  0  0  0  0  0  0
   31.3910   30.2920   34.7740 C   0  0  0  0  0  0  0  0  0  0  0  0
   31.2450   31.4970   34.2220 C   0  0  0  0  0  0  0  0  0  0  0  0
   30.1210   31.8130   33.5120 C   0  0  0  0  0  0  0  0  0  0  0  0
   29.1510   30.7700   33.4150 C   0  0  0  0  0  0  0  0  0  0  0  0
   29.9210   29.3760   34.3670 S   0  0  0  0  0  0  0  0  0  0  0  0
   32.0350   32.2280   34.3460 H   0  0  0  0  0  0  0  0  0  0  0  0
   29.8940   32.7490   33.0260 H   0  0  0  0  0  0  0  0  0  0  0  0
   28.2170   30.7960   32.9180 H   0  0  0  0  0  0  0  0  0  0  0  0
  1  4  1  0  0  0  0
  2  1  1  0  0  0  0
  3  1  1  0  0  0  0
  4  9  2  0  0  0  0
  4  5  1  0  0  0  0
  5  6  2  0  0  0  0
  6  7  1  0  0  0  0
  6 11  1  0  0  0  0
  7 12  1  0  0  0  0
  8 13  1  0  0  0  0
  8  7  2  0  0  0  0
  9  8  1  0  0  0  0
 10  5  1  0  0  0  0
 14 15  2  0  0  0  0
 14  9  1  0  0  0  0
 15 16  1  0  0  0  0
 17 15  1  0  0  0  0
 18 17  1  0  0  0  0
 18 20  2  0  0  0  0
 19 18  1  0  0  0  0
 20 14  1  0  0  0  0
 21 22  2  0  0  0  0
 22  1  1  0  0  0  0
 23 24  1  0  0  0  0
 24 25  2  0  0  0  0
 24 21  1  0  0  0  0
 25 30  1  0  0  0  0
 26 25  1  0  0  0  0
 27 26  2  0  0  0  0
 28 27  1  0  0  0  0
 28 23  2  0  0  0  0
 29 23  1  0  0  0  0
 31 27  1  0  0  0  0
 32 36  1  0  0  0  0
 32 31  2  0  0  0  0
 33 32  1  0  0  0  0
 34 33  2  0  0  0  0
 34 35  1  0  0  0  0
 35 31  1  0  0  0  0
 37 33  1  0  0  0  0
 38 34  1  0  0  0  0
M  END
>  <minimizedAffinity>
-5.50746012

$$$$

 OpenBabel03242517423D

 38 41  0  0  0  0  0  0  0  0999 V2000
   36.9520   27.0130   43.2100 C   0  0  0  0  0  0  0  0  0  0  0  0
   36.9710   26.5180   44.1790 H   0  0  0  0  0  0  0  0  0  0  0  0
   35.9280   27.4910   43.1130 H   0  0  0  0  0  0  0  0  0  0  0  0
   37.1090   26.1140   42.0350 C   0  0  0  0  0  0  0  0  0  0  0  0
   37.4330   24.7680   42.2430 C   0  0  0  0  0  0  0  0  0  0  0  0
   37.5270   23.8630   41.2230 C   0  0  0  0  0  0  0  0  0  0  0  0
   37.2960   24.2740   39.9240 C   0  0  0  0  0  0  0  0  0  0  0  0
   36.9730   25.6150   39.7140 C   0  0  0  0  0  0  0  0  0  0  0  0
   36.8820   26.5340   40.7630 C   0  0  0  0  0  0  0  0  0  0  0  0
   37.6080   24.4740   43.2640 H   0  0  0  0  0  0  0  0  0  0  0  0
   37.7850   22.8550   41.5050 H   0  0  0  0  0  0  0  0  0  0  0  0
   37.3750   23.5400   39.1470 H   0  0  0  0  0  0  0  0  0  0  0  0
   36.8130   25.8190   38.6570 H   0  0  0  0  0  0  0  0  0  0  0  0
   36.5380   27.8430   40.2610 C   0  0  0  0  0  0  0  0  0  0  0  0
   37.4640   28.4130   39.4240 C   0  0  0  0  0  0  0  0  0  0  0  0
   38.5690   28.3210   38.8880 H   0  0  0  0  0  0  0  0  0  0  0  0
   36.6710   30.0330   38.8290 S   0  0  0  0  0  0  0  0  0  0  0  0
   35.1570   29.5920   39.8900 C   0  0  0  0  0  0  0  0  0  0  0  0
   34.1620   30.0970   40.0930 H   0  0  0  0  0  0  0  0  0  0  0  0
   35.5060   28.6260   40.3110 N   0  0  0  0  0  0  0  0  0  0  0  0
   39.2000   28.0000   42.9120 C   0  0  0  0  0  3  0  0  0  0  0  0
   37.9190   28.1630   43.1720 C   0  0  0  0  0  3  0  0  0  0  0  0
   41.5290   28.8410   43.0800 C   0  0  0  0  0  0  0  0  0  0  0  0
   40.1530   29.0830   42.8350 C   0  0  0  0  0  0  0  0  0  0  0  0
   39.7800   30.3690   42.5230 C   0  0  0  0  0  0  0  0  0  0  0  0
   40.7360   31.3530   42.4610 N   0  0  0  0  0  0  0  0  0  0  0  0
   42.0270   31.0860   42.6990 C   0  0  0  0  0  0  0  0  0  0  0  0
   42.4400   29.8330   43.0100 N   0  0  0  0  0  0  0  0  0  0  0  0
   41.8150   27.8090   43.3290 H   0  0  0  0  0  0  0  0  0  0  0  0
   38.7500   30.6270   42.3240 H   0  0  0  0  0  0  0  0  0  0  0  0
   43.0550   32.1060   42.6320 C   0  0  0  0  0  0  0  0  0  0  0  0
   44.1860   32.2640   43.3200 C   0  0  0  0  0  0  0  0  0  0  0  0
   45.0120   33.3240   43.0790 C   0  0  0  0  0  0  0  0  0  0  0  0
   44.5720   34.2180   42.0570 C   0  0  0  0  0  0  0  0  0  0  0  0
   42.9690   33.4710   41.4950 S   0  0  0  0  0  0  0  0  0  0  0  0
   44.4420   31.5340   44.0790 H   0  0  0  0  0  0  0  0  0  0  0  0
   45.9460   33.5530   43.5710 H   0  0  0  0  0  0  0  0  0  0  0  0
   45.0510   35.0950   41.7100 H   0  0  0  0  0  0  0  0  0  0  0  0
  1  2  1  0  0  0  0
  3  1  1  0  0  0  0
  4  5  1  0  0  0  0
  4  1  1  0  0  0  0
  5 10  1  0  0  0  0
  6 11  1  0  0  0  0
  6  5  2  0  0  0  0
  7  6  1  0  0  0  0
  8  7  2  0  0  0  0
  8  9  1  0  0  0  0
  9  4  2  0  0  0  0
 12  7  1  0  0  0  0
 13  8  1  0  0  0  0
 14 20  1  0  0  0  0
 14  9  1  0  0  0  0
 15 14  2  0  0  0  0
 16 15  1  0  0  0  0
 17 15  1  0  0  0  0
 17 18  1  0  0  0  0
 18 19  1  0  0  0  0
 18 20  2  0  0  0  0
 21 22  2  0  0  0  0
 22  1  1  0  0  0  0
 23 29  1  0  0  0  0
 24 21  1  0  0  0  0
 24 23  2  0  0  0  0
 25 24  1  0  0  0  0
 26 25  2  0  0  0  0
 26 27  1  0  0  0  0
 27 28  2  0  0  0  0
 28 23  1  0  0  0  0
 30 25  1  0  0  0  0
 31 27  1  0  0  0  0
 31 32  2  0  0  0  0
 32 36  1  0  0  0  0
 33 32  1  0  0  0  0
 33 37  1  0  0  0  0
 34 33  2  0  0  0  0
 35 34  1  0  0  0  0
 35 31  1  0  0  0  0
 38 34  1  0  0  0  0
M  END
>  <minimizedAffinity>
-5.3609705

$$$$

 OpenBabel03242517423D

 38 41  0  0  0  0  0  0  0  0999 V2000
   33.7780   29.2350   39.0150 C   0  0  0  0  0  0  0  0  0  0  0  0
   32.9930   28.8290   39.6510 H   0  0  0  0  0  0  0  0  0  0  0  0
   33.6860   30.3640   39.0720 H   0  0  0  0  0  0  0  0  0  0  0  0
   33.6750   28.8770   37.5750 C   0  0  0  0  0  0  0  0  0  0  0  0
   34.6890   28.1110   36.9860 C   0  0  0  0  0  0  0  0  0  0  0  0
   34.6360   27.6820   35.6890 C   0  0  0  0  0  0  0  0  0  0  0  0
   33.5430   28.0080   34.9090 C   0  0  0  0  0  0  0  0  0  0  0  0
   32.5310   28.7710   35.4920 C   0  0  0  0  0  0  0  0  0  0  0  0
   32.5960   29.2070   36.8180 C   0  0  0  0  0  0  0  0  0  0  0  0
   35.5290   27.8710   37.6170 H   0  0  0  0  0  0  0  0  0  0  0  0
   35.4760   27.1000   35.3470 H   0  0  0  0  0  0  0  0  0  0  0  0
   33.5300   27.6550   33.8970 H   0  0  0  0  0  0  0  0  0  0  0  0
   31.7270   28.9620   34.7850 H   0  0  0  0  0  0  0  0  0  0  0  0
   31.4220   29.9760   37.1560 C   0  0  0  0  0  0  0  0  0  0  0  0
   31.0020   30.8610   36.1950 C   0  0  0  0  0  0  0  0  0  0  0  0
   31.2120   31.3650   35.0910 H   0  0  0  0  0  0  0  0  0  0  0  0
   29.3850   31.5990   36.8640 S   0  0  0  0  0  0  0  0  0  0  0  0
   29.6100   30.5010   38.3990 C   0  0  0  0  0  0  0  0  0  0  0  0
   29.0130   30.3440   39.3500 H   0  0  0  0  0  0  0  0  0  0  0  0
   30.5590   29.9970   38.1240 N   0  0  0  0  0  0  0  0  0  0  0  0
   35.3890   28.9390   40.8670 C   0  0  0  0  0  3  0  0  0  0  0  0
   35.1390   28.9310   39.5740 C   0  0  0  0  0  3  0  0  0  0  0  0
   37.7710   29.5060   41.2760 C   0  0  0  0  0  0  0  0  0  0  0  0
   36.6750   28.6210   41.4430 C   0  0  0  0  0  0  0  0  0  0  0  0
   36.8920   27.4720   42.1670 C   0  0  0  0  0  0  0  0  0  0  0  0
   38.1380   27.2300   42.6930 N   0  0  0  0  0  0  0  0  0  0  0  0
   39.1490   28.0920   42.5150 C   0  0  0  0  0  0  0  0  0  0  0  0
   38.9800   29.2350   41.8080 N   0  0  0  0  0  0  0  0  0  0  0  0
   37.5850   30.4210   40.6950 H   0  0  0  0  0  0  0  0  0  0  0  0
   36.1050   26.7520   42.3350 H   0  0  0  0  0  0  0  0  0  0  0  0
   40.4690   27.8630   43.0660 C   0  0  0  0  0  0  0  0  0  0  0  0
   41.5800   28.5990   43.0290 C   0  0  0  0  0  0  0  0  0  0  0  0
   42.7280   28.1680   43.6310 C   0  0  0  0  0  0  0  0  0  0  0  0
   42.6350   26.9020   44.2820 C   0  0  0  0  0  0  0  0  0  0  0  0
   40.8750   26.3950   43.9860 S   0  0  0  0  0  0  0  0  0  0  0  0
   41.5590   29.5510   42.5120 H   0  0  0  0  0  0  0  0  0  0  0  0
   43.6810   28.6750   43.6650 H   0  0  0  0  0  0  0  0  0  0  0  0
   43.3950   26.3830   44.8060 H   0  0  0  0  0  0  0  0  0  0  0  0
  1  3  1  0  0  0  0
  1 22  1  0  0  0  0
  1  2  1  0  0  0  0
  4  1  1  0  0  0  0
  5  4  1  0  0  0  0
  5 10  1  0  0  0  0
  6  5  2  0  0  0  0
  7  8  2  0  0  0  0
  7  6  1  0  0  0  0
  8  9  1  0  0  0  0
  9 14  1  0  0  0  0
  9  4  2  0  0  0  0
 11  6  1  0  0  0  0
 12  7  1  0  0  0  0
 13  8  1  0  0  0  0
 14 20  1  0  0  0  0
 15 17  1  0  0  0  0
 15 14  2  0  0  0  0
 16 15  1  0  0  0  0
 17 18  1  0  0  0  0
 18 19  1  0  0  0  0
 20 18  2  0  0  0  0
 21 24  1  0  0  0  0
 22 21  2  0  0  0  0
 23 24  2  0  0  0  0
 23 28  1  0  0  0  0
 24 25  1  0  0  0  0
 25 30  1  0  0  0  0
 25 26  2  0  0  0  0
 27 26  1  0  0  0  0
 27 31  1  0  0  0  0
 28 27  2  0  0  0  0
 29 23  1  0  0  0  0
 31 35  1  0  0  0  0
 32 31  2  0  0  0  0
 32 33  1  0  0  0  0
 33 37  1  0  0  0  0
 33 34  2  0  0  0  0
 34 38  1  0  0  0  0
 35 34  1  0  0  0  0
 36 32  1  0  0  0  0
M  END
>  <minimizedAffinity>
-5.26267195

$$$$

 OpenBabel03242517423D

 38 41  0  0  0  0  0  0  0  0999 V2000
   35.7480   28.8170   39.3840 C   0  0  0  0  0  0  0  0  0  0  0  0
   35.0830   28.4530   40.1660 H   0  0  0  0  0  0  0  0  0  0  0  0
   36.4180   27.9470   39.1010 H   0  0  0  0  0  0  0  0  0  0  0  0
   36.6500   29.9300   39.7860 C   0  0  0  0  0  0  0  0  0  0  0  0
   36.6730   31.1020   39.0200 C   0  0  0  0  0  0  0  0  0  0  0  0
   37.4210   32.1940   39.3600 C   0  0  0  0  0  0  0  0  0  0  0  0
   38.1930   32.1610   40.5050 C   0  0  0  0  0  0  0  0  0  0  0  0
   38.1720   30.9940   41.2700 C   0  0  0  0  0  0  0  0  0  0  0  0
   37.4070   29.8810   40.9130 C   0  0  0  0  0  0  0  0  0  0  0  0
   36.0610   31.1010   38.1330 H   0  0  0  0  0  0  0  0  0  0  0  0
   37.3590   33.0390   38.6930 H   0  0  0  0  0  0  0  0  0  0  0  0
   38.7660   33.0340   40.7460 H   0  0  0  0  0  0  0  0  0  0  0  0
   38.8150   31.0870   42.1440 H   0  0  0  0  0  0  0  0  0  0  0  0
   37.5760   28.8200   41.8760 C   0  0  0  0  0  0  0  0  0  0  0  0
   38.8720   28.4250   42.0950 C   0  0  0  0  0  0  0  0  0  0  0  0
   40.0580   28.5530   41.7870 H   0  0  0  0  0  0  0  0  0  0  0  0
   38.7770   27.1430   43.4920 S   0  0  0  0  0  0  0  0  0  0  0  0
   36.8960   27.4110   43.5070 C   0  0  0  0  0  0  0  0  0  0  0  0
   36.0420   26.9760   44.1130 H   0  0  0  0  0  0  0  0  0  0  0  0
   36.8150   28.1690   42.7010 N   0  0  0  0  0  0  0  0  0  0  0  0
   33.6910   28.9120   38.0140 C   0  0  0  0  0  3  0  0  0  0  0  0
   34.9830   29.1380   38.1300 C   0  0  0  0  0  3  0  0  0  0  0  0
   31.5700   29.6610   36.9660 C   0  0  0  0  0  0  0  0  0  0  0  0
   32.9170   29.2360   36.8380 C   0  0  0  0  0  0  0  0  0  0  0  0
   33.4380   29.1530   35.5690 C   0  0  0  0  0  0  0  0  0  0  0  0
   32.6510   29.4800   34.4920 N   0  0  0  0  0  0  0  0  0  0  0  0
   31.3820   29.8800   34.6530 C   0  0  0  0  0  0  0  0  0  0  0  0
   30.8260   29.9750   35.8850 N   0  0  0  0  0  0  0  0  0  0  0  0
   31.1630   29.7230   37.9860 H   0  0  0  0  0  0  0  0  0  0  0  0
   34.4570   28.8370   35.3950 H   0  0  0  0  0  0  0  0  0  0  0  0
   30.5340   30.2370   33.5340 C   0  0  0  0  0  0  0  0  0  0  0  0
   30.1180   31.4220   33.0850 C   0  0  0  0  0  0  0  0  0  0  0  0
   29.3060   31.5130   31.9910 C   0  0  0  0  0  0  0  0  0  0  0  0
   28.9560   30.2680   31.3880 C   0  0  0  0  0  0  0  0  0  0  0  0
   29.8260   29.0180   32.4480 S   0  0  0  0  0  0  0  0  0  0  0  0
   30.4360   32.3180   33.6060 H   0  0  0  0  0  0  0  0  0  0  0  0
   28.9090   32.4110   31.5420 H   0  0  0  0  0  0  0  0  0  0  0  0
   28.3440   30.1060   30.5400 H   0  0  0  0  0  0  0  0  0  0  0  0
  1  4  1  0  0  0  0
  1  2  1  0  0  0  0
  3  1  1  0  0  0  0
  4  9  1  0  0  0  0
  5  6  1  0  0  0  0
  5  4  2  0  0  0  0
  6  7  2  0  0  0  0
  7 12  1  0  0  0  0
  7  8  1  0  0  0  0
  8 13  1  0  0  0  0
  9  8  2  0  0  0  0
  9 14  1  0  0  0  0
 10  5  1  0  0  0  0
 11  6  1  0  0  0  0
 14 15  2  0  0  0  0
 14 20  1  0  0  0  0
 15 17  1  0  0  0  0
 16 15  1  0  0  0  0
 17 18  1  0  0  0  0
 18 19  1  0  0  0  0
 20 18  2  0  0  0  0
 21 22  2  0  0  0  0
 22  1  1  0  0  0  0
 23 29  1  0  0  0  0
 24 23  1  0  0  0  0
 24 21  1  0  0  0  0
 25 24  2  0  0  0  0
 26 27  2  0  0  0  0
 26 25  1  0  0  0  0
 27 28  1  0  0  0  0
 28 23  2  0  0  0  0
 30 25  1  0  0  0  0
 31 27  1  0  0  0  0
 32 31  2  0  0  0  0
 32 36  1  0  0  0  0
 33 32  1  0  0  0  0
 34 33  2  0  0  0  0
 34 35  1  0  0  0  0
 35 31  1  0  0  0  0
 37 33  1  0  0  0  0
 38 34  1  0  0  0  0
M  END
>  <minimizedAffinity>
-5.24579382

$$$$

 OpenBabel03242517423D

 38 41  0  0  0  0  0  0  0  0999 V2000
   37.2740   27.3880   43.4380 C   0  0  0  0  0  0  0  0  0  0  0  0
   36.5490   28.2000   43.4320 H   0  0  0  0  0  0  0  0  0  0  0  0
   37.1700   26.8720   44.4430 H   0  0  0  0  0  0  0  0  0  0  0  0
   38.6970   27.8060   43.3250 C   0  0  0  0  0  0  0  0  0  0  0  0
   39.6940   26.9940   43.8760 C   0  0  0  0  0  0  0  0  0  0  0  0
   41.0270   27.2710   43.7550 C   0  0  0  0  0  0  0  0  0  0  0  0
   41.4280   28.3980   43.0620 C   0  0  0  0  0  0  0  0  0  0  0  0
   40.4360   29.2100   42.5130 C   0  0  0  0  0  0  0  0  0  0  0  0
   39.0750   28.9200   42.6440 C   0  0  0  0  0  0  0  0  0  0  0  0
   39.3550   26.1220   44.4100 H   0  0  0  0  0  0  0  0  0  0  0  0
   41.7030   26.5730   44.2230 H   0  0  0  0  0  0  0  0  0  0  0  0
   42.4800   28.5870   42.9830 H   0  0  0  0  0  0  0  0  0  0  0  0
   40.8700   30.0620   41.9930 H   0  0  0  0  0  0  0  0  0  0  0  0
   38.2770   29.9240   41.9840 C   0  0  0  0  0  0  0  0  0  0  0  0
   38.9830   30.9420   41.3930 C   0  0  0  0  0  0  0  0  0  0  0  0
   40.0850   31.4500   41.1840 H   0  0  0  0  0  0  0  0  0  0  0  0
   37.6840   32.0020   40.5010 S   0  0  0  0  0  0  0  0  0  0  0  0
   36.3680   30.7890   41.1390 C   0  0  0  0  0  0  0  0  0  0  0  0
   35.2410   30.7200   41.0320 H   0  0  0  0  0  0  0  0  0  0  0  0
   37.0220   30.0900   41.7010 N   0  0  0  0  0  0  0  0  0  0  0  0
   36.9830   26.5510   41.1290 C   0  0  0  0  0  3  0  0  0  0  0  0
   36.9150   26.3350   42.4270 C   0  0  0  0  0  3  0  0  0  0  0  0
   36.5550   24.1900   40.4930 C   0  0  0  0  0  0  0  0  0  0  0  0
   36.6780   25.5550   40.1280 C   0  0  0  0  0  0  0  0  0  0  0  0
   36.4930   25.8770   38.8040 C   0  0  0  0  0  0  0  0  0  0  0  0
   36.1990   24.8840   37.9020 N   0  0  0  0  0  0  0  0  0  0  0  0
   36.0900   23.6040   38.2860 C   0  0  0  0  0  0  0  0  0  0  0  0
   36.2660   23.2420   39.5790 N   0  0  0  0  0  0  0  0  0  0  0  0
   36.7070   23.9450   41.5550 H   0  0  0  0  0  0  0  0  0  0  0  0
   36.5700   26.8960   38.4530 H   0  0  0  0  0  0  0  0  0  0  0  0
   35.7750   22.5400   37.3540 C   0  0  0  0  0  0  0  0  0  0  0  0
   36.5290   21.5710   36.8350 C   0  0  0  0  0  0  0  0  0  0  0  0
   36.0030   20.6650   35.9590 C   0  0  0  0  0  0  0  0  0  0  0  0
   34.6180   20.8410   35.6610 C   0  0  0  0  0  0  0  0  0  0  0  0
   34.1460   22.3240   36.6710 S   0  0  0  0  0  0  0  0  0  0  0  0
   37.5730   21.5120   37.1190 H   0  0  0  0  0  0  0  0  0  0  0  0
   36.5140   19.8440   35.4770 H   0  0  0  0  0  0  0  0  0  0  0  0
   34.0130   20.2600   35.0150 H   0  0  0  0  0  0  0  0  0  0  0  0
  1  3  1  0  0  0  0
  2  1  1  0  0  0  0
  4  1  1  0  0  0  0
  4  5  1  0  0  0  0
  5 10  1  0  0  0  0
  6  5  2  0  0  0  0
  6 11  1  0  0  0  0
  7  6  1  0  0  0  0
  8  9  1  0  0  0  0
  8  7  2  0  0  0  0
  9  4  2  0  0  0  0
 12  7  1  0  0  0  0
 13  8  1  0  0  0  0
 14  9  1  0  0  0  0
 15 14  2  0  0  0  0
 16 15  1  0  0  0  0
 17 18  1  0  0  0  0
 17 15  1  0  0  0  0
 18 20  2  0  0  0  0
 19 18  1  0  0  0  0
 20 14  1  0  0  0  0
 21 22  2  0  0  0  0
 22  1  1  0  0  0  0
 23 29  1  0  0  0  0
 24 23  1  0  0  0  0
 24 21  1  0  0  0  0
 25 24  2  0  0  0  0
 26 27  2  0  0  0  0
 26 25  1  0  0  0  0
 27 28  1  0  0  0  0
 28 23  2  0  0  0  0
 30 25  1  0  0  0  0
 31 27  1  0  0  0  0
 32 36  1  0  0  0  0
 32 31  2  0  0  0  0
 33 32  1  0  0  0  0
 34 33  2  0  0  0  0
 34 35  1  0  0  0  0
 35 31  1  0  0  0  0
 37 33  1  0  0  0  0
 38 34  1  0  0  0  0
M  END
>  <minimizedAffinity>
-5.19146252

$$$$

 OpenBabel03242517423D

 38 41  0  0  0  0  0  0  0  0999 V2000
   37.2560   28.3290   43.1920 C   0  0  0  0  0  0  0  0  0  0  0  0
   36.9880   29.3470   43.4680 H   0  0  0  0  0  0  0  0  0  0  0  0
   36.7610   27.6490   43.9520 H   0  0  0  0  0  0  0  0  0  0  0  0
   38.7110   28.0220   43.2390 C   0  0  0  0  0  0  0  0  0  0  0  0
   39.1520   26.9080   43.9630 C   0  0  0  0  0  0  0  0  0  0  0  0
   40.4620   26.5180   44.0000 C   0  0  0  0  0  0  0  0  0  0  0  0
   41.4070   27.2420   43.2980 C   0  0  0  0  0  0  0  0  0  0  0  0
   40.9710   28.3530   42.5760 C   0  0  0  0  0  0  0  0  0  0  0  0
   39.6310   28.7460   42.5470 C   0  0  0  0  0  0  0  0  0  0  0  0
   38.3950   26.3620   44.5010 H   0  0  0  0  0  0  0  0  0  0  0  0
   40.6810   25.6450   44.5930 H   0  0  0  0  0  0  0  0  0  0  0  0
   42.4250   26.9100   43.3450 H   0  0  0  0  0  0  0  0  0  0  0  0
   41.8010   28.8390   42.0660 H   0  0  0  0  0  0  0  0  0  0  0  0
   39.4650   29.9230   41.7290 C   0  0  0  0  0  0  0  0  0  0  0  0
   39.7390   31.1150   42.3520 C   0  0  0  0  0  0  0  0  0  0  0  0
   40.0560   31.6870   43.3950 H   0  0  0  0  0  0  0  0  0  0  0  0
   39.5740   32.4370   41.0000 S   0  0  0  0  0  0  0  0  0  0  0  0
   39.1430   31.0370   39.7900 C   0  0  0  0  0  0  0  0  0  0  0  0
   38.8860   30.9990   38.6860 H   0  0  0  0  0  0  0  0  0  0  0  0
   39.2060   30.1720   40.4830 N   0  0  0  0  0  0  0  0  0  0  0  0
   36.0090   28.8130   41.1120 C   0  0  0  0  0  3  0  0  0  0  0  0
   36.6440   27.9460   41.8740 C   0  0  0  0  0  3  0  0  0  0  0  0
   36.0140   27.4750   39.0220 C   0  0  0  0  0  0  0  0  0  0  0  0
   35.4360   28.4900   39.8260 C   0  0  0  0  0  0  0  0  0  0  0  0
   34.3250   29.1330   39.3340 C   0  0  0  0  0  0  0  0  0  0  0  0
   33.8260   28.7760   38.1050 N   0  0  0  0  0  0  0  0  0  0  0  0
   34.4000   27.8100   37.3750 C   0  0  0  0  0  0  0  0  0  0  0  0
   35.4960   27.1510   37.8200 N   0  0  0  0  0  0  0  0  0  0  0  0
   36.9030   26.9680   39.4260 H   0  0  0  0  0  0  0  0  0  0  0  0
   33.8310   29.9160   39.8910 H   0  0  0  0  0  0  0  0  0  0  0  0
   33.8870   27.4100   36.0790 C   0  0  0  0  0  0  0  0  0  0  0  0
   34.5050   27.1670   34.9230 C   0  0  0  0  0  0  0  0  0  0  0  0
   33.8000   26.7970   33.8140 C   0  0  0  0  0  0  0  0  0  0  0  0
   32.3880   26.6970   33.9970 C   0  0  0  0  0  0  0  0  0  0  0  0
   32.1530   27.1480   35.7810 S   0  0  0  0  0  0  0  0  0  0  0  0
   35.5830   27.2670   34.8760 H   0  0  0  0  0  0  0  0  0  0  0  0
   34.1900   26.5770   32.8310 H   0  0  0  0  0  0  0  0  0  0  0  0
   31.6570   26.4290   33.2800 H   0  0  0  0  0  0  0  0  0  0  0  0
  1  4  1  0  0  0  0
  1  2  1  0  0  0  0
  1  3  1  0  0  0  0
  4  5  1  0  0  0  0
  5  6  2  0  0  0  0
  5 10  1  0  0  0  0
  6 11  1  0  0  0  0
  7 12  1  0  0  0  0
  7  6  1  0  0  0  0
  8  7  2  0  0  0  0
  9  8  1  0  0  0  0
  9  4  2  0  0  0  0
 13  8  1  0  0  0  0
 14 15  2  0  0  0  0
 14  9  1  0  0  0  0
 15 16  1  0  0  0  0
 17 15  1  0  0  0  0
 18 20  2  0  0  0  0
 18 17  1  0  0  0  0
 19 18  1  0  0  0  0
 20 14  1  0  0  0  0
 21 22  2  0  0  0  0
 22  1  1  0  0  0  0
 23 29  1  0  0  0  0
 23 24  1  0  0  0  0
 24 21  1  0  0  0  0
 25 24  2  0  0  0  0
 25 30  1  0  0  0  0
 26 25  1  0  0  0  0
 27 28  1  0  0  0  0
 27 26  2  0  0  0  0
 28 23  2  0  0  0  0
 31 27  1  0  0  0  0
 32 31  2  0  0  0  0
 33 34  2  0  0  0  0
 33 32  1  0  0  0  0
 34 35  1  0  0  0  0
 35 31  1  0  0  0  0
 36 32  1  0  0  0  0
 37 33  1  0  0  0  0
 38 34  1  0  0  0  0
M  END
>  <minimizedAffinity>
-5.13313437

$$$$
