
     RDKit          3D

 46 50  0  0  0  0  0  0  0  0999 V2000
   47.4680   32.0641   47.8540 C   0  0  0  0  0  0  0  0  0  0  0  0
   46.9267   30.7749   47.8918 C   0  0  0  0  0  0  0  0  0  0  0  0
   45.9394   30.4968   46.9960 C   0  0  0  0  0  0  0  0  0  0  0  0
   45.5329   31.4307   46.1334 N   0  0  0  0  0  0  0  0  0  0  0  0
   46.0279   32.6484   46.0760 C   0  0  0  0  0  0  0  0  0  0  0  0
   47.0081   32.9504   46.9587 N   0  0  0  0  0  0  0  0  0  0  0  0
   45.3455   29.2565   46.9921 N   0  0  0  0  0  0  0  0  0  0  0  0
   44.1418   28.8970   46.1977 C   0  0  0  0  0  0  0  0  0  0  0  0
   44.0312   27.4017   46.2628 C   0  0  0  0  0  0  0  0  0  0  0  0
   44.7006   27.0608   47.5405 C   0  0  0  0  0  0  0  0  0  0  0  0
   45.7487   28.0961   47.7377 C   0  0  0  0  0  0  0  0  0  0  0  0
   45.7468   33.8057   45.1833 C   0  0  0  0  0  0  0  0  0  0  0  0
   44.8821   34.7768   45.4823 N   0  0  0  0  0  0  0  0  0  0  0  0
   44.6114   35.8243   44.7136 C   0  0  0  0  0  0  0  0  0  0  0  0
   45.2388   35.9605   43.5215 N   0  0  0  0  0  0  0  0  0  0  0  0
   46.1336   35.0448   43.1083 C   0  0  0  0  0  0  0  0  0  0  0  0
   46.7657   35.1882   41.8969 C   0  0  0  0  0  0  0  0  0  0  0  0
   47.6703   34.2727   41.4617 C   0  0  0  0  0  0  0  0  0  0  0  0
   47.9432   33.1784   42.2782 C   0  0  0  0  0  0  0  0  0  0  0  0
   47.2680   33.0933   43.4952 C   0  0  0  0  0  0  0  0  0  0  0  0
   46.3664   33.9863   43.9517 C   0  0  0  0  0  0  0  0  0  0  0  0
   47.6645   31.9234   44.2118 N   0  0  0  0  0  0  0  0  0  0  0  0
   47.4564   29.8882   48.7926 N   0  0  0  0  0  0  0  0  0  0  0  0
   48.2595   32.3365   48.5534 H   0  0  0  0  0  0  0  0  0  0  0  0
   44.2269   29.2947   45.1669 H   0  0  0  0  0  0  0  0  0  0  0  0
   43.2745   29.3492   46.7404 H   0  0  0  0  0  0  0  0  0  0  0  0
   44.4272   26.8917   45.3790 H   0  0  0  0  0  0  0  0  0  0  0  0
   42.9542   27.1142   46.3641 H   0  0  0  0  0  0  0  0  0  0  0  0
   45.2333   26.0848   47.3958 H   0  0  0  0  0  0  0  0  0  0  0  0
   44.0180   26.8949   48.3890 H   0  0  0  0  0  0  0  0  0  0  0  0
   46.7325   27.7844   47.3638 H   0  0  0  0  0  0  0  0  0  0  0  0
   45.7414   28.2794   48.8383 H   0  0  0  0  0  0  0  0  0  0  0  0
   43.9008   36.5901   44.9967 H   0  0  0  0  0  0  0  0  0  0  0  0
   46.5029   36.0630   41.3180 H   0  0  0  0  0  0  0  0  0  0  0  0
   48.1319   34.4398   40.5052 H   0  0  0  0  0  0  0  0  0  0  0  0
   47.0036   31.1938   43.8147 H   0  0  0  0  0  0  0  0  0  0  0  0
   48.3818   31.7082   44.9329 H   0  0  0  0  0  0  0  0  0  0  0  0
   48.1676   29.1293   48.7105 H   0  0  0  0  0  0  0  0  0  0  0  0
   46.9477   30.1555   49.6883 H   0  0  0  0  0  0  0  0  0  0  0  0
   48.9271   32.1712   41.8153 C   0  0  0  0  0  0  0  0  0  0  0  0
   50.2007   32.1047   42.3505 C   0  0  0  0  0  0  0  0  0  0  0  0
   50.6672   32.7252   43.1378 H   0  0  0  0  0  0  0  0  0  0  0  0
   50.9403   30.6868   41.3966 S   0  0  0  0  0  0  0  0  0  0  0  0
   49.3292   30.4490   40.4244 C   0  0  0  0  0  0  0  0  0  0  0  0
   49.1242   29.7082   39.6492 H   0  0  0  0  0  0  0  0  0  0  0  0
   48.6444   31.2810   40.8666 N   0  0  0  0  0  0  0  0  0  0  0  0
  1  2  2  0
  2 23  1  0
  3  2  1  0
  4  3  2  0
  5  4  1  0
  5  6  2  0
  6  1  1  0
  7  3  1  0
  7 11  1  0
  8  9  1  0
  8  7  1  0
  9 10  1  0
 10 11  1  0
 12 13  2  0
 12  5  1  0
 14 13  1  0
 15 14  2  0
 16 15  1  0
 16 21  2  0
 17 16  1  0
 18 17  2  0
 18 19  1  0
 19 20  2  0
 20 21  1  0
 20 22  1  0
 21 12  1  0
  1 24  1  0
  8 25  1  0
  8 26  1  0
  9 27  1  0
  9 28  1  0
 10 29  1  0
 10 30  1  0
 11 31  1  0
 11 32  1  0
 14 33  1  0
 17 34  1  0
 18 35  1  0
 22 36  1  0
 22 37  1  0
 23 38  1  0
 23 39  1  0
 40 41  2  0
 41 42  1  0
 41 43  1  0
 43 44  1  0
 44 45  1  0
 44 46  2  0
 46 40  1  0
 19 40  1  0
M  ISO  8  24  14  25  13  26  13  27  13  28  13  29  13  30  13  31  13
M  ISO  6  32  13  33  14  34  14  35  14  42  15  45  16
M  END
>  <DihAtoms>  (1) 
17,18,39,40

>  <DihDeg>  (1) 
0.012094326052550047

$$$$
