
 OpenBabel03252501423D

 43 46  0  0  0  0  0  0  0  0999 V2000
   43.8770   34.6500   40.7760 O   0  0  0  0  0  0  0  0  0  0  0  0
   42.9730   32.1330   39.4740 Cl  0  0  0  0  0  0  0  0  0  0  0  0
   41.9690   33.4740   39.9840 C   0  0  0  0  0  0  0  0  0  0  0  0
   42.4840   34.6230   40.5910 C   0  0  0  0  0  0  0  0  0  0  0  0
   41.6600   35.6320   40.9650 C   0  0  0  0  0  0  0  0  0  0  0  0
   40.2910   35.6040   40.7830 C   0  0  0  0  0  0  0  0  0  0  0  0
   39.7400   34.4560   40.1720 C   0  0  0  0  0  0  0  0  0  0  0  0
   38.0110   34.3280   39.8960 Cl  0  0  0  0  0  0  0  0  0  0  0  0
   40.6050   33.4490   39.8030 C   0  0  0  0  0  0  0  0  0  0  0  0
   42.1390   36.4850   41.4280 H   0  0  0  0  0  0  0  0  0  0  0  0
   39.6510   36.4190   41.0890 H   0  0  0  0  0  0  0  0  0  0  0  0
   39.8240   31.3380   41.3370 F   0  0  0  0  0  0  0  0  0  0  0  0
   39.6600   31.2040   39.9770 C   0  0  0  0  0  0  0  0  0  0  0  0
   40.0470   32.2580   39.1700 C   0  0  0  0  0  0  0  0  0  0  0  0
   39.8650   32.0840   37.7970 C   0  0  0  0  0  0  0  0  0  0  0  0
   39.3200   30.8950   37.3380 C   0  0  0  0  0  0  0  0  0  0  0  0
   38.9500   29.8700   38.2030 C   0  0  0  0  0  0  0  0  0  0  0  0
   39.1170   30.0070   39.5760 C   0  0  0  0  0  0  0  0  0  0  0  0
   40.1670   32.9060   37.1790 H   0  0  0  0  0  0  0  0  0  0  0  0
   39.2070   30.8310   36.2540 H   0  0  0  0  0  0  0  0  0  0  0  0
   38.5340   28.9750   37.7850 H   0  0  0  0  0  0  0  0  0  0  0  0
   38.8440   29.2430   40.2680 H   0  0  0  0  0  0  0  0  0  0  0  0
   44.3800   34.1410   41.9760 C   0  0  0  0  0  0  0  0  0  0  0  0
   44.0590   33.0380   42.5590 O   0  0  0  0  0  0  0  0  0  0  0  0
   45.3720   34.8710   42.7090 N   0  0  0  0  0  0  0  0  0  0  0  0
   45.7790   35.7500   42.3920 H   0  0  0  0  0  0  0  0  0  0  0  0
   45.6760   34.1540   43.9310 C   0  0  0  0  0  0  0  0  0  0  0  0
   45.2000   34.4350   45.1730 C   0  0  0  0  0  0  0  0  0  0  0  0
   45.6090   33.6300   46.2070 C   0  0  0  0  0  0  0  0  0  0  0  0
   46.4600   32.6080   45.9180 N   0  0  0  0  0  0  0  0  0  0  0  0
   46.9090   32.3630   44.6790 C   0  0  0  0  0  0  0  0  0  0  0  0
   46.5170   33.1420   43.6510 N   0  0  0  0  0  0  0  0  0  0  0  0
   45.2360   33.8460   47.2010 H   0  0  0  0  0  0  0  0  0  0  0  0
   47.8310   31.2220   44.4910 C   0  0  0  0  0  0  0  0  0  0  0  0
   48.6110   30.9800   43.3480 C   0  0  0  0  0  0  0  0  0  0  0  0
   48.5410   31.7220   42.4710 H   0  0  0  0  0  0  0  0  0  0  0  0
   49.4900   29.4240   43.8100 S   0  0  0  0  0  0  0  0  0  0  0  0
   48.6240   29.3880   45.4930 C   0  0  0  0  0  0  0  0  0  0  0  0
   48.8310   28.5840   46.1980 H   0  0  0  0  0  0  0  0  0  0  0  0
   47.9790   30.3190   45.4420 N   0  0  0  0  0  0  0  0  0  0  0  0
   44.3220   35.5360   45.2930 N   0  0  0  0  0  0  0  0  0  0  0  0
   44.2880   36.1180   46.1810 H   0  0  0  0  0  0  0  0  0  0  0  0
   43.6920   35.8080   44.5280 H   0  0  0  0  0  0  0  0  0  0  0  0
  1 23  1  0  0  0  0
  2  3  1  0  0  0  0
  3  4  1  0  0  0  0
  4  1  1  0  0  0  0
  4  5  2  0  0  0  0
  5 10  1  0  0  0  0
  6  5  1  0  0  0  0
  6 11  1  0  0  0  0
  7  6  2  0  0  0  0
  8  7  1  0  0  0  0
  9  3  2  0  0  0  0
  9  7  1  0  0  0  0
 13 12  1  0  0  0  0
 14  9  1  0  0  0  0
 14 13  2  0  0  0  0
 15 14  1  0  0  0  0
 16 15  2  0  0  0  0
 16 17  1  0  0  0  0
 17 18  2  0  0  0  0
 18 13  1  0  0  0  0
 18 22  1  0  0  0  0
 19 15  1  0  0  0  0
 20 16  1  0  0  0  0
 21 17  1  0  0  0  0
 23 24  2  0  0  0  0
 23 25  1  0  0  0  0
 25 27  1  0  0  0  0
 26 25  1  0  0  0  0
 27 28  1  0  0  0  0
 28 41  1  0  0  0  0
 28 29  2  0  0  0  0
 29 33  1  0  0  0  0
 30 29  1  0  0  0  0
 31 30  2  0  0  0  0
 32 27  2  0  0  0  0
 32 31  1  0  0  0  0
 34 31  1  0  0  0  0
 34 40  1  0  0  0  0
 35 37  1  0  0  0  0
 35 34  2  0  0  0  0
 36 35  1  0  0  0  0
 37 38  1  0  0  0  0
 38 39  1  0  0  0  0
 40 38  2  0  0  0  0
 41 42  1  0  0  0  0
 43 41  1  0  0  0  0
M  END
>  <minimizedAffinity>
-6.22605658

>  <minimizedRMSD>
0.462240219

$$$$
