
 OpenBabel03252508263D

 39 43  0  0  1  0  0  0  0  0999 V2000
   46.5530   32.3160   45.6850 C   0  0  1  0  0  0  0  0  0  0  0  0
   46.9480   32.6750   47.0550 C   0  0  0  0  0  0  0  0  0  0  0  0
   45.5750   31.9800   46.7030 C   0  0  2  0  0  0  0  0  0  0  0  0
   47.3890   31.6240   45.3100 H   0  0  0  0  0  0  0  0  0  0  0  0
   46.9240   33.7180   47.4070 H   0  0  0  0  0  0  0  0  0  0  0  0
   47.5090   32.0150   47.7310 H   0  0  0  0  0  0  0  0  0  0  0  0
   44.8440   32.7280   47.1390 H   0  0  0  0  0  0  0  0  0  0  0  0
   45.2950   30.6280   47.1950 C   0  0  0  0  0  0  0  0  0  0  0  0
   45.2030   30.2250   48.4910 C   0  0  0  0  0  0  0  0  0  0  0  0
   45.0650   28.9150   48.9280 C   0  0  0  0  0  0  0  0  0  0  0  0
   45.0190   27.9270   47.9250 C   0  0  0  0  0  0  0  0  0  0  0  0
   45.1090   28.3110   46.5910 C   0  0  0  0  0  0  0  0  0  0  0  0
   44.9990   27.3170   45.6380 C   0  0  0  0  0  0  0  0  0  0  0  0
   45.0120   27.6620   44.2940 C   0  0  0  0  0  0  0  0  0  0  0  0
   45.1310   28.9810   43.9050 C   0  0  0  0  0  0  0  0  0  0  0  0
   45.2410   29.9340   44.8940 C   0  0  0  0  0  0  0  0  0  0  0  0
   45.2410   29.6410   46.2430 C   0  0  0  0  0  0  0  0  0  0  0  0
   45.2430   31.0230   49.2280 H   0  0  0  0  0  0  0  0  0  0  0  0
   44.9970   28.6660   49.9800 H   0  0  0  0  0  0  0  0  0  0  0  0
   44.9170   26.8960   48.2230 H   0  0  0  0  0  0  0  0  0  0  0  0
   44.9040   26.2870   45.9720 H   0  0  0  0  0  0  0  0  0  0  0  0
   44.9200   26.7870   43.6290 H   0  0  0  0  0  0  0  0  0  0  0  0
   45.1190   29.0440   42.8430 H   0  0  0  0  0  0  0  0  0  0  0  0
   45.2310   30.8420   44.3630 H   0  0  0  0  0  0  0  0  0  0  0  0
   45.1320   35.3470   44.1390 C   0  0  0  0  0  0  0  0  0  0  0  0
   45.6000   35.2580   42.7870 C   0  0  0  0  0  0  0  0  0  0  0  0
   46.4160   34.1230   42.4540 C   0  0  0  0  0  0  0  0  0  0  0  0
   46.6940   33.2320   43.3960 N   0  0  0  0  0  0  0  0  0  0  0  0
   46.2230   33.3610   44.6780 C   0  0  0  0  0  0  0  0  0  0  0  0
   45.4640   34.3910   45.0310 N   0  0  0  0  0  0  0  0  0  0  0  0
   44.5370   36.2210   44.2800 H   0  0  0  0  0  0  0  0  0  0  0  0
   45.3750   35.9790   42.0320 H   0  0  0  0  0  0  0  0  0  0  0  0
   46.8870   34.0340   41.0820 C   0  0  0  0  0  0  0  0  0  0  0  0
   46.1490   33.1540   40.1580 C   0  0  0  0  0  0  0  0  0  0  0  0
   45.2670   32.5500   40.4050 H   0  0  0  0  0  0  0  0  0  0  0  0
   47.1190   33.3790   38.5580 S   0  0  0  0  0  0  0  0  0  0  0  0
   48.2950   34.5820   39.4320 C   0  0  0  0  0  0  0  0  0  0  0  0
   49.1860   35.1350   39.0090 H   0  0  0  0  0  0  0  0  0  0  0  0
   47.9270   34.6610   40.5320 N   0  0  0  0  0  0  0  0  0  0  0  0
  1  4  1  6  0  0  0
  1  3  1  0  0  0  0
  1  2  1  0  0  0  0
  2  5  1  0  0  0  0
  2  6  1  0  0  0  0
  3  2  1  0  0  0  0
  3  7  1  1  0  0  0
  3  8  1  0  0  0  0
  8  9  1  0  0  0  0
  9 10  2  0  0  0  0
  9 18  1  0  0  0  0
 10 19  1  0  0  0  0
 11 20  1  0  0  0  0
 11 10  1  0  0  0  0
 12 11  2  0  0  0  0
 13 21  1  0  0  0  0
 13 12  1  0  0  0  0
 14 13  2  0  0  0  0
 15 14  1  0  0  0  0
 15 16  2  0  0  0  0
 16 17  1  0  0  0  0
 17 12  1  0  0  0  0
 17  8  2  0  0  0  0
 22 14  1  0  0  0  0
 23 15  1  0  0  0  0
 24 16  1  0  0  0  0
 25 31  1  0  0  0  0
 25 30  1  0  0  0  0
 26 25  2  0  0  0  0
 27 26  1  0  0  0  0
 27 28  2  0  0  0  0
 28 29  1  0  0  0  0
 29 30  2  0  0  0  0
 29  1  1  0  0  0  0
 32 26  1  0  0  0  0
 33 27  1  0  0  0  0
 34 35  1  0  0  0  0
 34 33  2  0  0  0  0
 36 37  1  0  0  0  0
 36 34  1  0  0  0  0
 37 39  2  0  0  0  0
 38 37  1  0  0  0  0
 39 33  1  0  0  0  0
M  END
>  <minimizedAffinity>
-4.81823874

>  <minimizedRMSD>
0.969599426

$$$$
