
 OpenBabel03242516273D

 41 45  0  0  0  0  0  0  0  0999 V2000
   36.2170   26.7800   39.4620 C   0  0  0  0  0  0  0  0  0  0  0  0
   35.5260   26.5510   38.3170 N   0  0  0  0  0  0  0  0  0  0  0  0
   35.4520   25.3470   37.7360 C   0  0  0  0  0  0  0  0  0  0  0  0
   36.0970   24.3290   38.3270 N   0  0  0  0  0  0  0  0  0  0  0  0
   36.8020   24.4570   39.4540 C   0  0  0  0  0  0  0  0  0  0  0  0
   37.4520   23.4080   40.0760 C   0  0  0  0  0  0  0  0  0  0  0  0
   38.1520   23.6120   41.2550 C   0  0  0  0  0  0  0  0  0  0  0  0
   38.2300   24.8550   41.8530 C   0  0  0  0  0  0  0  0  0  0  0  0
   37.5730   25.8790   41.2110 C   0  0  0  0  0  0  0  0  0  0  0  0
   36.8710   25.7120   40.0460 C   0  0  0  0  0  0  0  0  0  0  0  0
   34.8960   25.1990   36.8260 H   0  0  0  0  0  0  0  0  0  0  0  0
   37.3560   22.4630   39.5580 H   0  0  0  0  0  0  0  0  0  0  0  0
   38.6070   22.6870   41.6170 H   0  0  0  0  0  0  0  0  0  0  0  0
   38.8020   24.8760   42.7660 H   0  0  0  0  0  0  0  0  0  0  0  0
   37.7750   27.1150   41.9630 C   0  0  0  0  0  0  0  0  0  0  0  0
   38.9940   27.9540   41.6610 C   0  0  0  0  0  0  0  0  0  0  0  0
   39.6930   27.7130   40.8690 H   0  0  0  0  0  0  0  0  0  0  0  0
   38.8880   29.2880   42.9040 S   0  0  0  0  0  0  0  0  0  0  0  0
   37.2880   28.5490   43.6160 C   0  0  0  0  0  0  0  0  0  0  0  0
   36.6960   28.9360   44.4500 H   0  0  0  0  0  0  0  0  0  0  0  0
   37.1070   27.6390   42.9810 N   0  0  0  0  0  0  0  0  0  0  0  0
   36.2940   28.3540   40.2700 S   0  0  0  0  0  0  0  0  0  0  0  0
   37.9850   31.6760   38.7290 C   0  0  0  0  0  0  0  0  0  0  0  0
   37.5350   30.6830   39.5710 C   0  0  0  0  0  0  0  0  0  0  0  0
   36.8500   29.5890   39.0990 C   0  0  0  0  0  0  0  0  0  0  0  0
   36.5930   29.4660   37.7210 C   0  0  0  0  0  0  0  0  0  0  0  0
   37.0320   30.4370   36.8890 C   0  0  0  0  0  0  0  0  0  0  0  0
   37.7130   31.5140   37.3940 C   0  0  0  0  0  0  0  0  0  0  0  0
   37.7280   30.7700   40.6300 H   0  0  0  0  0  0  0  0  0  0  0  0
   36.0530   28.6080   37.3450 H   0  0  0  0  0  0  0  0  0  0  0  0
   36.8490   30.3700   35.8190 H   0  0  0  0  0  0  0  0  0  0  0  0
   38.0500   32.2730   36.7030 H   0  0  0  0  0  0  0  0  0  0  0  0
   40.8130   33.8430   39.5650 C   0  0  0  0  0  0  0  0  0  0  0  0
   40.2140   34.9110   40.2400 C   0  0  0  0  0  0  0  0  0  0  0  0
   38.8440   34.9010   40.4170 C   0  0  0  0  0  0  0  0  0  0  0  0
   38.0950   33.8570   39.9350 N   0  0  0  0  0  0  0  0  0  0  0  0
   38.7110   32.8330   39.2820 C   0  0  0  0  0  0  0  0  0  0  0  0
   40.0630   32.8300   39.1000 N   0  0  0  0  0  0  0  0  0  0  0  0
   41.8860   33.8990   39.4530 H   0  0  0  0  0  0  0  0  0  0  0  0
   40.7130   35.7650   40.6500 H   0  0  0  0  0  0  0  0  0  0  0  0
   38.2180   35.6170   40.9000 H   0  0  0  0  0  0  0  0  0  0  0  0
  1 10  1  0  0  0  0
  1 22  1  0  0  0  0
  2  1  2  0  0  0  0
  3  2  1  0  0  0  0
  3  4  2  0  0  0  0
  4  5  1  0  0  0  0
  5 10  2  0  0  0  0
  5  6  1  0  0  0  0
  6  7  2  0  0  0  0
  7 13  1  0  0  0  0
  7  8  1  0  0  0  0
  8 14  1  0  0  0  0
  9  8  2  0  0  0  0
  9 15  1  0  0  0  0
 10  9  1  0  0  0  0
 11  3  1  0  0  0  0
 12  6  1  0  0  0  0
 15 21  1  0  0  0  0
 16 15  2  0  0  0  0
 16 18  1  0  0  0  0
 17 16  1  0  0  0  0
 18 19  1  0  0  0  0
 19 20  1  0  0  0  0
 21 19  2  0  0  0  0
 23 37  1  0  0  0  0
 23 24  1  0  0  0  0
 24 29  1  0  0  0  0
 25 24  2  0  0  0  0
 25 22  1  0  0  0  0
 26 25  1  0  0  0  0
 27 28  1  0  0  0  0
 27 26  2  0  0  0  0
 28 23  2  0  0  0  0
 30 26  1  0  0  0  0
 31 27  1  0  0  0  0
 32 28  1  0  0  0  0
 33 34  1  0  0  0  0
 34 35  2  0  0  0  0
 34 40  1  0  0  0  0
 35 41  1  0  0  0  0
 36 35  1  0  0  0  0
 37 36  2  0  0  0  0
 38 37  1  0  0  0  0
 38 33  2  0  0  0  0
 39 33  1  0  0  0  0
M  END
>  <minimizedAffinity>
-6.41032076

$$$$

 OpenBabel03242516273D

 41 45  0  0  0  0  0  0  0  0999 V2000
   37.4070   28.6450   41.0200 C   0  0  0  0  0  0  0  0  0  0  0  0
   37.5600   29.3030   42.1960 N   0  0  0  0  0  0  0  0  0  0  0  0
   37.5150   28.6920   43.3870 C   0  0  0  0  0  0  0  0  0  0  0  0
   37.3090   27.3650   43.4000 N   0  0  0  0  0  0  0  0  0  0  0  0
   37.1480   26.6330   42.2950 C   0  0  0  0  0  0  0  0  0  0  0  0
   36.9540   25.2650   42.3020 C   0  0  0  0  0  0  0  0  0  0  0  0
   36.8110   24.5660   41.1130 C   0  0  0  0  0  0  0  0  0  0  0  0
   36.8560   25.1970   39.8850 C   0  0  0  0  0  0  0  0  0  0  0  0
   37.0490   26.5590   39.9090 C   0  0  0  0  0  0  0  0  0  0  0  0
   37.1950   27.2800   41.0660 C   0  0  0  0  0  0  0  0  0  0  0  0
   37.6380   29.2440   44.3030 H   0  0  0  0  0  0  0  0  0  0  0  0
   36.9270   24.8310   43.2930 H   0  0  0  0  0  0  0  0  0  0  0  0
   36.6670   23.4980   41.2900 H   0  0  0  0  0  0  0  0  0  0  0  0
   36.7340   24.5390   39.0400 H   0  0  0  0  0  0  0  0  0  0  0  0
   37.0490   27.0610   38.5370 C   0  0  0  0  0  0  0  0  0  0  0  0
   35.7290   27.4340   37.9040 C   0  0  0  0  0  0  0  0  0  0  0  0
   34.7900   27.4040   38.4410 H   0  0  0  0  0  0  0  0  0  0  0  0
   36.2070   27.8690   36.1950 S   0  0  0  0  0  0  0  0  0  0  0  0
   38.0340   27.5000   36.5720 C   0  0  0  0  0  0  0  0  0  0  0  0
   38.8800   27.5840   35.8830 H   0  0  0  0  0  0  0  0  0  0  0  0
   38.0270   27.1840   37.6500 N   0  0  0  0  0  0  0  0  0  0  0  0
   37.5040   29.4250   39.4330 S   0  0  0  0  0  0  0  0  0  0  0  0
   39.5480   32.7870   40.3280 C   0  0  0  0  0  0  0  0  0  0  0  0
   39.1650   31.4770   40.1270 C   0  0  0  0  0  0  0  0  0  0  0  0
   37.9170   31.1540   39.6520 C   0  0  0  0  0  0  0  0  0  0  0  0
   36.9940   32.1750   39.3570 C   0  0  0  0  0  0  0  0  0  0  0  0
   37.3630   33.4600   39.5510 C   0  0  0  0  0  0  0  0  0  0  0  0
   38.6160   33.7480   40.0260 C   0  0  0  0  0  0  0  0  0  0  0  0
   39.8670   30.6890   40.3510 H   0  0  0  0  0  0  0  0  0  0  0  0
   36.0110   31.9240   38.9840 H   0  0  0  0  0  0  0  0  0  0  0  0
   36.6720   34.2710   39.3320 H   0  0  0  0  0  0  0  0  0  0  0  0
   38.8810   34.7850   40.1710 H   0  0  0  0  0  0  0  0  0  0  0  0
   42.5660   34.7230   41.0570 C   0  0  0  0  0  0  0  0  0  0  0  0
   43.3760   33.8120   41.7430 C   0  0  0  0  0  0  0  0  0  0  0  0
   42.9020   32.5330   41.9610 C   0  0  0  0  0  0  0  0  0  0  0  0
   41.6580   32.1740   41.5080 N   0  0  0  0  0  0  0  0  0  0  0  0
   40.8950   33.0850   40.8440 C   0  0  0  0  0  0  0  0  0  0  0  0
   41.3510   34.3520   40.6220 N   0  0  0  0  0  0  0  0  0  0  0  0
   42.9840   35.7090   40.9130 H   0  0  0  0  0  0  0  0  0  0  0  0
   44.3560   34.0000   42.1320 H   0  0  0  0  0  0  0  0  0  0  0  0
   43.3700   31.7130   42.4580 H   0  0  0  0  0  0  0  0  0  0  0  0
  1 10  2  0  0  0  0
  1  2  1  0  0  0  0
  2  3  2  0  0  0  0
  3  4  1  0  0  0  0
  3 11  1  0  0  0  0
  5  6  1  0  0  0  0
  5  4  2  0  0  0  0
  6 12  1  0  0  0  0
  7 13  1  0  0  0  0
  7  6  2  0  0  0  0
  8  9  2  0  0  0  0
  8  7  1  0  0  0  0
  9 10  1  0  0  0  0
 10  5  1  0  0  0  0
 14  8  1  0  0  0  0
 15  9  1  0  0  0  0
 16 17  1  0  0  0  0
 16 15  2  0  0  0  0
 18 19  1  0  0  0  0
 18 16  1  0  0  0  0
 19 21  2  0  0  0  0
 20 19  1  0  0  0  0
 21 15  1  0  0  0  0
 22 25  1  0  0  0  0
 22  1  1  0  0  0  0
 23 37  1  0  0  0  0
 24 23  1  0  0  0  0
 24 29  1  0  0  0  0
 25 24  2  0  0  0  0
 26 27  2  0  0  0  0
 26 25  1  0  0  0  0
 27 28  1  0  0  0  0
 28 32  1  0  0  0  0
 28 23  2  0  0  0  0
 30 26  1  0  0  0  0
 31 27  1  0  0  0  0
 33 34  1  0  0  0  0
 34 35  2  0  0  0  0
 34 40  1  0  0  0  0
 35 41  1  0  0  0  0
 36 35  1  0  0  0  0
 37 36  2  0  0  0  0
 38 37  1  0  0  0  0
 38 33  2  0  0  0  0
 39 33  1  0  0  0  0
M  END
>  <minimizedAffinity>
-6.34237385

$$$$

 OpenBabel03242516273D

 41 45  0  0  0  0  0  0  0  0999 V2000
   39.1920   31.4290   40.9110 C   0  0  0  0  0  0  0  0  0  0  0  0
   37.8810   31.5070   40.5670 N   0  0  0  0  0  0  0  0  0  0  0  0
   37.3170   32.6210   40.0840 C   0  0  0  0  0  0  0  0  0  0  0  0
   38.0990   33.7030   39.9390 N   0  0  0  0  0  0  0  0  0  0  0  0
   39.3970   33.7220   40.2500 C   0  0  0  0  0  0  0  0  0  0  0  0
   40.2100   34.8280   40.0850 C   0  0  0  0  0  0  0  0  0  0  0  0
   41.5560   34.7700   40.4140 C   0  0  0  0  0  0  0  0  0  0  0  0
   42.1360   33.6210   40.9140 C   0  0  0  0  0  0  0  0  0  0  0  0
   41.3030   32.5370   41.0670 C   0  0  0  0  0  0  0  0  0  0  0  0
   39.9700   32.5600   40.7510 C   0  0  0  0  0  0  0  0  0  0  0  0
   36.2730   32.6500   39.8210 H   0  0  0  0  0  0  0  0  0  0  0  0
   39.6960   35.6960   39.6920 H   0  0  0  0  0  0  0  0  0  0  0  0
   42.0570   35.7230   40.2250 H   0  0  0  0  0  0  0  0  0  0  0  0
   43.1900   33.7090   41.1270 H   0  0  0  0  0  0  0  0  0  0  0  0
   42.0720   31.4250   41.6220 C   0  0  0  0  0  0  0  0  0  0  0  0
   42.1810   31.2990   43.1230 C   0  0  0  0  0  0  0  0  0  0  0  0
   41.6640   31.9590   43.8080 H   0  0  0  0  0  0  0  0  0  0  0  0
   43.3110   29.8780   43.3300 S   0  0  0  0  0  0  0  0  0  0  0  0
   43.4620   29.6750   41.4460 C   0  0  0  0  0  0  0  0  0  0  0  0
   44.0530   28.9290   40.9070 H   0  0  0  0  0  0  0  0  0  0  0  0
   42.8100   30.4930   41.0350 N   0  0  0  0  0  0  0  0  0  0  0  0
   39.9670   29.9550   41.5120 S   0  0  0  0  0  0  0  0  0  0  0  0
   37.3000   26.9370   41.7280 C   0  0  0  0  0  0  0  0  0  0  0  0
   38.2700   27.8260   41.3190 C   0  0  0  0  0  0  0  0  0  0  0  0
   38.7120   28.8410   42.1330 C   0  0  0  0  0  0  0  0  0  0  0  0
   38.1690   28.9880   43.4230 C   0  0  0  0  0  0  0  0  0  0  0  0
   37.2170   28.1190   43.8310 C   0  0  0  0  0  0  0  0  0  0  0  0
   36.8000   27.1180   42.9930 C   0  0  0  0  0  0  0  0  0  0  0  0
   38.6920   27.7190   40.3310 H   0  0  0  0  0  0  0  0  0  0  0  0
   38.5120   29.7860   44.0670 H   0  0  0  0  0  0  0  0  0  0  0  0
   36.7790   28.2080   44.8220 H   0  0  0  0  0  0  0  0  0  0  0  0
   36.0380   26.4400   43.3480 H   0  0  0  0  0  0  0  0  0  0  0  0
   36.0870   25.3620   38.6560 C   0  0  0  0  0  0  0  0  0  0  0  0
   36.0110   24.0070   38.9950 C   0  0  0  0  0  0  0  0  0  0  0  0
   36.3700   23.6200   40.2710 C   0  0  0  0  0  0  0  0  0  0  0  0
   36.7920   24.5560   41.1810 N   0  0  0  0  0  0  0  0  0  0  0  0
   36.8550   25.8670   40.8170 C   0  0  0  0  0  0  0  0  0  0  0  0
   36.5030   26.2630   39.5610 N   0  0  0  0  0  0  0  0  0  0  0  0
   35.7950   25.6110   37.6460 H   0  0  0  0  0  0  0  0  0  0  0  0
   35.6950   23.2080   38.3560 H   0  0  0  0  0  0  0  0  0  0  0  0
   36.3780   22.6460   40.7070 H   0  0  0  0  0  0  0  0  0  0  0  0
  1 22  1  0  0  0  0
  2  1  2  0  0  0  0
  3  2  1  0  0  0  0
  4  3  2  0  0  0  0
  4  5  1  0  0  0  0
  5 10  1  0  0  0  0
  6  5  2  0  0  0  0
  6  7  1  0  0  0  0
  7  8  2  0  0  0  0
  8  9  1  0  0  0  0
  8 14  1  0  0  0  0
  9 15  1  0  0  0  0
 10  1  1  0  0  0  0
 10  9  2  0  0  0  0
 11  3  1  0  0  0  0
 12  6  1  0  0  0  0
 13  7  1  0  0  0  0
 15 16  2  0  0  0  0
 16 18  1  0  0  0  0
 16 17  1  0  0  0  0
 19 18  1  0  0  0  0
 20 19  1  0  0  0  0
 21 19  2  0  0  0  0
 21 15  1  0  0  0  0
 22 25  1  0  0  0  0
 23 28  1  0  0  0  0
 24 23  2  0  0  0  0
 24 25  1  0  0  0  0
 25 26  2  0  0  0  0
 26 27  1  0  0  0  0
 26 30  1  0  0  0  0
 27 31  1  0  0  0  0
 28 32  1  0  0  0  0
 28 27  2  0  0  0  0
 29 24  1  0  0  0  0
 33 34  2  0  0  0  0
 33 38  1  0  0  0  0
 34 35  1  0  0  0  0
 35 41  1  0  0  0  0
 35 36  2  0  0  0  0
 37 36  1  0  0  0  0
 37 23  1  0  0  0  0
 38 37  2  0  0  0  0
 39 33  1  0  0  0  0
 40 34  1  0  0  0  0
M  END
>  <minimizedAffinity>
-6.21599913

$$$$

 OpenBabel03242516273D

 41 45  0  0  0  0  0  0  0  0999 V2000
   38.8310   29.4340   42.6910 C   0  0  0  0  0  0  0  0  0  0  0  0
   37.5020   29.1810   42.8020 N   0  0  0  0  0  0  0  0  0  0  0  0
   37.0150   28.0180   43.2510 C   0  0  0  0  0  0  0  0  0  0  0  0
   37.8950   27.0680   43.6060 N   0  0  0  0  0  0  0  0  0  0  0  0
   39.2190   27.2250   43.5320 C   0  0  0  0  0  0  0  0  0  0  0  0
   40.1290   26.2560   43.9130 C   0  0  0  0  0  0  0  0  0  0  0  0
   41.4920   26.4950   43.8250 C   0  0  0  0  0  0  0  0  0  0  0  0
   41.9940   27.6950   43.3580 C   0  0  0  0  0  0  0  0  0  0  0  0
   41.0650   28.6390   42.9860 C   0  0  0  0  0  0  0  0  0  0  0  0
   39.7120   28.4360   43.0620 C   0  0  0  0  0  0  0  0  0  0  0  0
   35.9540   27.8480   43.3260 H   0  0  0  0  0  0  0  0  0  0  0  0
   39.6740   25.3400   44.2660 H   0  0  0  0  0  0  0  0  0  0  0  0
   42.0730   25.6350   44.1630 H   0  0  0  0  0  0  0  0  0  0  0  0
   43.0710   27.7520   43.3420 H   0  0  0  0  0  0  0  0  0  0  0  0
   41.7650   29.8270   42.5030 C   0  0  0  0  0  0  0  0  0  0  0  0
   42.1510   29.8950   41.0450 C   0  0  0  0  0  0  0  0  0  0  0  0
   41.8790   29.1300   40.3270 H   0  0  0  0  0  0  0  0  0  0  0  0
   43.0910   31.4590   40.9460 S   0  0  0  0  0  0  0  0  0  0  0  0
   42.8350   31.7740   42.8030 C   0  0  0  0  0  0  0  0  0  0  0  0
   43.1960   32.6270   43.3840 H   0  0  0  0  0  0  0  0  0  0  0  0
   42.2340   30.8870   43.1450 N   0  0  0  0  0  0  0  0  0  0  0  0
   39.4980   30.9780   42.1380 S   0  0  0  0  0  0  0  0  0  0  0  0
   37.7810   30.9670   38.4880 C   0  0  0  0  0  0  0  0  0  0  0  0
   38.4450   30.6210   39.6450 C   0  0  0  0  0  0  0  0  0  0  0  0
   38.6120   31.5130   40.6770 C   0  0  0  0  0  0  0  0  0  0  0  0
   38.0970   32.8180   40.5650 C   0  0  0  0  0  0  0  0  0  0  0  0
   37.4440   33.1630   39.4320 C   0  0  0  0  0  0  0  0  0  0  0  0
   37.2960   32.2490   38.4220 C   0  0  0  0  0  0  0  0  0  0  0  0
   38.8430   29.6220   39.7390 H   0  0  0  0  0  0  0  0  0  0  0  0
   38.2270   33.5230   41.3740 H   0  0  0  0  0  0  0  0  0  0  0  0
   37.0350   34.1640   39.3160 H   0  0  0  0  0  0  0  0  0  0  0  0
   36.7690   32.5560   37.5300 H   0  0  0  0  0  0  0  0  0  0  0  0
   38.5240   28.0460   36.4130 C   0  0  0  0  0  0  0  0  0  0  0  0
   37.4990   28.0550   35.4620 C   0  0  0  0  0  0  0  0  0  0  0  0
   36.5480   29.0560   35.5190 C   0  0  0  0  0  0  0  0  0  0  0  0
   36.6190   30.0180   36.4950 N   0  0  0  0  0  0  0  0  0  0  0  0
   37.6310   29.9790   37.4050 C   0  0  0  0  0  0  0  0  0  0  0  0
   38.5760   28.9960   37.3610 N   0  0  0  0  0  0  0  0  0  0  0  0
   39.2410   27.2420   36.3240 H   0  0  0  0  0  0  0  0  0  0  0  0
   37.3610   27.3500   34.6670 H   0  0  0  0  0  0  0  0  0  0  0  0
   35.7040   29.2250   34.8890 H   0  0  0  0  0  0  0  0  0  0  0  0
  1  2  2  0  0  0  0
  1 10  1  0  0  0  0
  2  3  1  0  0  0  0
  3 11  1  0  0  0  0
  3  4  2  0  0  0  0
  5  4  1  0  0  0  0
  5  6  1  0  0  0  0
  6 12  1  0  0  0  0
  7  6  2  0  0  0  0
  7 13  1  0  0  0  0
  8  7  1  0  0  0  0
  9 10  1  0  0  0  0
  9  8  2  0  0  0  0
 10  5  2  0  0  0  0
 14  8  1  0  0  0  0
 15  9  1  0  0  0  0
 15 21  1  0  0  0  0
 16 15  2  0  0  0  0
 17 16  1  0  0  0  0
 18 16  1  0  0  0  0
 18 19  1  0  0  0  0
 19 21  2  0  0  0  0
 19 20  1  0  0  0  0
 22  1  1  0  0  0  0
 23 24  1  0  0  0  0
 24 29  1  0  0  0  0
 24 25  2  0  0  0  0
 25 22  1  0  0  0  0
 26 25  1  0  0  0  0
 26 30  1  0  0  0  0
 27 26  2  0  0  0  0
 28 23  2  0  0  0  0
 28 27  1  0  0  0  0
 31 27  1  0  0  0  0
 32 28  1  0  0  0  0
 33 38  1  0  0  0  0
 34 35  1  0  0  0  0
 34 33  2  0  0  0  0
 35 36  2  0  0  0  0
 36 37  1  0  0  0  0
 37 23  1  0  0  0  0
 38 37  2  0  0  0  0
 39 33  1  0  0  0  0
 40 34  1  0  0  0  0
 41 35  1  0  0  0  0
M  END
>  <minimizedAffinity>
-6.18255186

$$$$

 OpenBabel03242516273D

 41 45  0  0  0  0  0  0  0  0999 V2000
   37.5610   27.3610   39.2560 C   0  0  0  0  0  0  0  0  0  0  0  0
   37.3440   27.8010   37.9910 N   0  0  0  0  0  0  0  0  0  0  0  0
   36.6480   27.1040   37.0840 C   0  0  0  0  0  0  0  0  0  0  0  0
   36.1480   25.9160   37.4600 N   0  0  0  0  0  0  0  0  0  0  0  0
   36.3080   25.4020   38.6810 C   0  0  0  0  0  0  0  0  0  0  0  0
   35.7790   24.1880   39.0790 C   0  0  0  0  0  0  0  0  0  0  0  0
   35.9720   23.7240   40.3710 C   0  0  0  0  0  0  0  0  0  0  0  0
   36.6920   24.4420   41.3050 C   0  0  0  0  0  0  0  0  0  0  0  0
   37.2070   25.6450   40.8810 C   0  0  0  0  0  0  0  0  0  0  0  0
   37.0330   26.1350   39.6130 C   0  0  0  0  0  0  0  0  0  0  0  0
   36.4950   27.4810   36.0860 H   0  0  0  0  0  0  0  0  0  0  0  0
   35.2290   23.6740   38.3020 H   0  0  0  0  0  0  0  0  0  0  0  0
   35.4920   22.7540   40.5250 H   0  0  0  0  0  0  0  0  0  0  0  0
   36.7650   23.9700   42.2720 H   0  0  0  0  0  0  0  0  0  0  0  0
   37.9490   26.2570   41.9810 C   0  0  0  0  0  0  0  0  0  0  0  0
   39.3860   25.8440   42.2010 C   0  0  0  0  0  0  0  0  0  0  0  0
   39.9090   25.1620   41.5420 H   0  0  0  0  0  0  0  0  0  0  0  0
   39.8400   26.7490   43.7210 S   0  0  0  0  0  0  0  0  0  0  0  0
   38.1040   27.5140   43.8310 C   0  0  0  0  0  0  0  0  0  0  0  0
   37.7330   28.2050   44.5930 H   0  0  0  0  0  0  0  0  0  0  0  0
   37.5670   27.0900   42.9380 N   0  0  0  0  0  0  0  0  0  0  0  0
   38.4420   28.2850   40.4830 S   0  0  0  0  0  0  0  0  0  0  0  0
   39.0730   32.1380   39.4710 C   0  0  0  0  0  0  0  0  0  0  0  0
   39.2060   30.7850   39.7000 C   0  0  0  0  0  0  0  0  0  0  0  0
   38.1750   30.0340   40.2090 C   0  0  0  0  0  0  0  0  0  0  0  0
   36.9430   30.6470   40.5090 C   0  0  0  0  0  0  0  0  0  0  0  0
   36.8070   31.9730   40.2870 C   0  0  0  0  0  0  0  0  0  0  0  0
   37.8560   32.6930   39.7780 C   0  0  0  0  0  0  0  0  0  0  0  0
   40.1460   30.3080   39.4720 H   0  0  0  0  0  0  0  0  0  0  0  0
   36.1300   30.0590   40.9110 H   0  0  0  0  0  0  0  0  0  0  0  0
   35.8680   32.4750   40.5090 H   0  0  0  0  0  0  0  0  0  0  0  0
   37.7150   33.7510   39.6120 H   0  0  0  0  0  0  0  0  0  0  0  0
   41.8810   32.9790   37.2800 C   0  0  0  0  0  0  0  0  0  0  0  0
   42.3340   34.2000   37.7900 C   0  0  0  0  0  0  0  0  0  0  0  0
   41.6890   34.7450   38.8830 C   0  0  0  0  0  0  0  0  0  0  0  0
   40.6240   34.0920   39.4500 N   0  0  0  0  0  0  0  0  0  0  0  0
   40.2090   32.9050   38.9280 C   0  0  0  0  0  0  0  0  0  0  0  0
   40.8370   32.3550   37.8500 N   0  0  0  0  0  0  0  0  0  0  0  0
   42.4200   32.5970   36.4260 H   0  0  0  0  0  0  0  0  0  0  0  0
   43.1530   34.7810   37.4160 H   0  0  0  0  0  0  0  0  0  0  0  0
   41.8880   35.6550   39.4030 H   0  0  0  0  0  0  0  0  0  0  0  0
  1 10  1  0  0  0  0
  1 22  1  0  0  0  0
  2  1  2  0  0  0  0
  3  4  2  0  0  0  0
  3  2  1  0  0  0  0
  4  5  1  0  0  0  0
  5  6  2  0  0  0  0
  5 10  1  0  0  0  0
  6  7  1  0  0  0  0
  7 13  1  0  0  0  0
  7  8  2  0  0  0  0
  8 14  1  0  0  0  0
  9  8  1  0  0  0  0
  9 15  1  0  0  0  0
 10  9  2  0  0  0  0
 11  3  1  0  0  0  0
 12  6  1  0  0  0  0
 15 16  2  0  0  0  0
 15 21  1  0  0  0  0
 16 18  1  0  0  0  0
 17 16  1  0  0  0  0
 18 19  1  0  0  0  0
 19 20  1  0  0  0  0
 21 19  2  0  0  0  0
 23 24  2  0  0  0  0
 23 28  1  0  0  0  0
 24 25  1  0  0  0  0
 25 22  1  0  0  0  0
 25 26  2  0  0  0  0
 26 30  1  0  0  0  0
 27 26  1  0  0  0  0
 27 31  1  0  0  0  0
 28 27  2  0  0  0  0
 29 24  1  0  0  0  0
 32 28  1  0  0  0  0
 33 34  2  0  0  0  0
 33 38  1  0  0  0  0
 34 35  1  0  0  0  0
 35 41  1  0  0  0  0
 35 36  2  0  0  0  0
 37 36  1  0  0  0  0
 37 23  1  0  0  0  0
 38 37  2  0  0  0  0
 39 33  1  0  0  0  0
 40 34  1  0  0  0  0
M  END
>  <minimizedAffinity>
-6.17482424

$$$$

 OpenBabel03242516273D

 41 45  0  0  0  0  0  0  0  0999 V2000
   36.9860   30.5490   40.4590 C   0  0  0  0  0  0  0  0  0  0  0  0
   36.5630   31.5150   39.6050 N   0  0  0  0  0  0  0  0  0  0  0  0
   37.2800   32.6120   39.3290 C   0  0  0  0  0  0  0  0  0  0  0  0
   38.4720   32.7460   39.9330 N   0  0  0  0  0  0  0  0  0  0  0  0
   38.9720   31.8490   40.7860 C   0  0  0  0  0  0  0  0  0  0  0  0
   40.2060   31.9740   41.3960 C   0  0  0  0  0  0  0  0  0  0  0  0
   40.6680   30.9930   42.2600 C   0  0  0  0  0  0  0  0  0  0  0  0
   39.9270   29.8640   42.5470 C   0  0  0  0  0  0  0  0  0  0  0  0
   38.7030   29.7670   41.9260 C   0  0  0  0  0  0  0  0  0  0  0  0
   38.2170   30.7170   41.0660 C   0  0  0  0  0  0  0  0  0  0  0  0
   36.9150   33.3610   38.6470 H   0  0  0  0  0  0  0  0  0  0  0  0
   40.7360   32.8810   41.1330 H   0  0  0  0  0  0  0  0  0  0  0  0
   41.6560   31.2410   42.6560 H   0  0  0  0  0  0  0  0  0  0  0  0
   40.4020   29.1800   43.2310 H   0  0  0  0  0  0  0  0  0  0  0  0
   38.0520   28.5310   42.3540 C   0  0  0  0  0  0  0  0  0  0  0  0
   38.3780   27.2510   41.6220 C   0  0  0  0  0  0  0  0  0  0  0  0
   39.1190   27.1960   40.8350 H   0  0  0  0  0  0  0  0  0  0  0  0
   37.2560   26.0390   42.4050 S   0  0  0  0  0  0  0  0  0  0  0  0
   36.5460   27.3790   43.5500 C   0  0  0  0  0  0  0  0  0  0  0  0
   35.7700   27.2540   44.3120 H   0  0  0  0  0  0  0  0  0  0  0  0
   37.1080   28.3080   43.2580 N   0  0  0  0  0  0  0  0  0  0  0  0
   36.0740   29.0720   40.8070 S   0  0  0  0  0  0  0  0  0  0  0  0
   34.0590   28.4580   37.3670 C   0  0  0  0  0  0  0  0  0  0  0  0
   34.5340   28.9680   38.5560 C   0  0  0  0  0  0  0  0  0  0  0  0
   35.5280   28.3410   39.2670 C   0  0  0  0  0  0  0  0  0  0  0  0
   36.0860   27.1440   38.7810 C   0  0  0  0  0  0  0  0  0  0  0  0
   35.6250   26.6380   37.6160 C   0  0  0  0  0  0  0  0  0  0  0  0
   34.6330   27.2900   36.9320 C   0  0  0  0  0  0  0  0  0  0  0  0
   34.1100   29.8860   38.9350 H   0  0  0  0  0  0  0  0  0  0  0  0
   36.8680   26.6460   39.3380 H   0  0  0  0  0  0  0  0  0  0  0  0
   36.0370   25.7140   37.2150 H   0  0  0  0  0  0  0  0  0  0  0  0
   34.2860   26.8600   36.0030 H   0  0  0  0  0  0  0  0  0  0  0  0
   30.8950   30.2160   36.8250 C   0  0  0  0  0  0  0  0  0  0  0  0
   30.9110   30.4950   35.4550 C   0  0  0  0  0  0  0  0  0  0  0  0
   31.9970   30.0860   34.7050 C   0  0  0  0  0  0  0  0  0  0  0  0
   33.0350   29.4180   35.3050 N   0  0  0  0  0  0  0  0  0  0  0  0
   32.9870   29.1630   36.6420 C   0  0  0  0  0  0  0  0  0  0  0  0
   31.9220   29.5610   37.3940 N   0  0  0  0  0  0  0  0  0  0  0  0
   30.0240   30.5570   37.3650 H   0  0  0  0  0  0  0  0  0  0  0  0
   30.1510   31.0070   34.9010 H   0  0  0  0  0  0  0  0  0  0  0  0
   32.1840   30.2070   33.6620 H   0  0  0  0  0  0  0  0  0  0  0  0
  1 22  1  0  0  0  0
  1 10  1  0  0  0  0
  2  1  2  0  0  0  0
  3  2  1  0  0  0  0
  3  4  2  0  0  0  0
  4  5  1  0  0  0  0
  5 10  2  0  0  0  0
  5  6  1  0  0  0  0
  6  7  2  0  0  0  0
  7  8  1  0  0  0  0
  7 13  1  0  0  0  0
  8 14  1  0  0  0  0
  9 15  1  0  0  0  0
  9  8  2  0  0  0  0
 10  9  1  0  0  0  0
 11  3  1  0  0  0  0
 12  6  1  0  0  0  0
 15 21  1  0  0  0  0
 16 15  2  0  0  0  0
 16 18  1  0  0  0  0
 17 16  1  0  0  0  0
 18 19  1  0  0  0  0
 19 20  1  0  0  0  0
 21 19  2  0  0  0  0
 23 24  1  0  0  0  0
 24 29  1  0  0  0  0
 24 25  2  0  0  0  0
 25 22  1  0  0  0  0
 26 25  1  0  0  0  0
 26 30  1  0  0  0  0
 27 26  2  0  0  0  0
 28 23  2  0  0  0  0
 28 27  1  0  0  0  0
 31 27  1  0  0  0  0
 32 28  1  0  0  0  0
 33 39  1  0  0  0  0
 33 38  1  0  0  0  0
 34 33  2  0  0  0  0
 35 36  2  0  0  0  0
 35 34  1  0  0  0  0
 36 37  1  0  0  0  0
 37 23  1  0  0  0  0
 37 38  2  0  0  0  0
 40 34  1  0  0  0  0
 41 35  1  0  0  0  0
M  END
>  <minimizedAffinity>
-6.07689762

$$$$

 OpenBabel03242516273D

 41 45  0  0  0  0  0  0  0  0999 V2000
   36.2450   26.6730   38.5540 C   0  0  0  0  0  0  0  0  0  0  0  0
   35.9250   25.7700   37.5930 N   0  0  0  0  0  0  0  0  0  0  0  0
   35.8950   24.4490   37.8120 C   0  0  0  0  0  0  0  0  0  0  0  0
   36.1990   24.0150   39.0460 N   0  0  0  0  0  0  0  0  0  0  0  0
   36.5250   24.8270   40.0540 C   0  0  0  0  0  0  0  0  0  0  0  0
   36.8210   24.3850   41.3300 C   0  0  0  0  0  0  0  0  0  0  0  0
   37.1350   25.2890   42.3340 C   0  0  0  0  0  0  0  0  0  0  0  0
   37.1670   26.6510   42.1070 C   0  0  0  0  0  0  0  0  0  0  0  0
   36.8700   27.0600   40.8280 C   0  0  0  0  0  0  0  0  0  0  0  0
   36.5530   26.1950   39.8130 C   0  0  0  0  0  0  0  0  0  0  0  0
   35.6380   23.7580   37.0270 H   0  0  0  0  0  0  0  0  0  0  0  0
   36.7810   23.3100   41.4430 H   0  0  0  0  0  0  0  0  0  0  0  0
   37.3420   24.7820   43.2800 H   0  0  0  0  0  0  0  0  0  0  0  0
   37.4240   27.2420   42.9710 H   0  0  0  0  0  0  0  0  0  0  0  0
   36.9700   28.5170   40.7610 C   0  0  0  0  0  0  0  0  0  0  0  0
   38.3190   29.1360   40.4800 C   0  0  0  0  0  0  0  0  0  0  0  0
   39.2030   28.5480   40.2640 H   0  0  0  0  0  0  0  0  0  0  0  0
   37.9810   30.9260   40.6200 S   0  0  0  0  0  0  0  0  0  0  0  0
   36.1540   30.5880   41.0200 C   0  0  0  0  0  0  0  0  0  0  0  0
   35.3740   31.3280   41.2220 H   0  0  0  0  0  0  0  0  0  0  0  0
   36.0770   29.4670   40.9970 N   0  0  0  0  0  0  0  0  0  0  0  0
   36.2490   28.4250   38.2980 S   0  0  0  0  0  0  0  0  0  0  0  0
   32.7080   29.2530   36.5510 C   0  0  0  0  0  0  0  0  0  0  0  0
   33.7070   28.9430   37.4500 C   0  0  0  0  0  0  0  0  0  0  0  0
   35.0210   28.8430   37.0630 C   0  0  0  0  0  0  0  0  0  0  0  0
   35.3740   29.0590   35.7170 C   0  0  0  0  0  0  0  0  0  0  0  0
   34.3990   29.3630   34.8320 C   0  0  0  0  0  0  0  0  0  0  0  0
   33.0980   29.4560   35.2510 C   0  0  0  0  0  0  0  0  0  0  0  0
   33.4440   28.7760   38.4830 H   0  0  0  0  0  0  0  0  0  0  0  0
   36.4070   28.9790   35.4090 H   0  0  0  0  0  0  0  0  0  0  0  0
   34.6400   29.5350   33.7850 H   0  0  0  0  0  0  0  0  0  0  0  0
   32.3420   29.7010   34.5190 H   0  0  0  0  0  0  0  0  0  0  0  0
   29.8820   30.0950   38.7180 C   0  0  0  0  0  0  0  0  0  0  0  0
   28.7770   29.6100   38.0120 C   0  0  0  0  0  0  0  0  0  0  0  0
   28.9860   28.9910   36.7950 C   0  0  0  0  0  0  0  0  0  0  0  0
   30.2580   28.8610   36.2970 N   0  0  0  0  0  0  0  0  0  0  0  0
   31.3110   29.3460   37.0110 C   0  0  0  0  0  0  0  0  0  0  0  0
   31.1200   29.9590   38.2140 N   0  0  0  0  0  0  0  0  0  0  0  0
   29.6650   30.5700   39.6640 H   0  0  0  0  0  0  0  0  0  0  0  0
   27.7520   29.6640   38.3180 H   0  0  0  0  0  0  0  0  0  0  0  0
   28.2770   28.5640   36.1210 H   0  0  0  0  0  0  0  0  0  0  0  0
  1 10  1  0  0  0  0
  2  3  1  0  0  0  0
  2  1  2  0  0  0  0
  3  4  2  0  0  0  0
  4  5  1  0  0  0  0
  5  6  1  0  0  0  0
  6 12  1  0  0  0  0
  6  7  2  0  0  0  0
  7 13  1  0  0  0  0
  8  7  1  0  0  0  0
  8 14  1  0  0  0  0
  9  8  2  0  0  0  0
 10  5  2  0  0  0  0
 10  9  1  0  0  0  0
 11  3  1  0  0  0  0
 15  9  1  0  0  0  0
 15 21  1  0  0  0  0
 16 18  1  0  0  0  0
 16 15  2  0  0  0  0
 17 16  1  0  0  0  0
 18 19  1  0  0  0  0
 19 20  1  0  0  0  0
 21 19  2  0  0  0  0
 22  1  1  0  0  0  0
 23 37  1  0  0  0  0
 23 24  1  0  0  0  0
 24 29  1  0  0  0  0
 25 24  2  0  0  0  0
 25 22  1  0  0  0  0
 26 25  1  0  0  0  0
 27 28  1  0  0  0  0
 27 26  2  0  0  0  0
 28 23  2  0  0  0  0
 30 26  1  0  0  0  0
 31 27  1  0  0  0  0
 32 28  1  0  0  0  0
 33 39  1  0  0  0  0
 34 40  1  0  0  0  0
 34 33  2  0  0  0  0
 35 34  1  0  0  0  0
 36 35  2  0  0  0  0
 36 37  1  0  0  0  0
 37 38  2  0  0  0  0
 38 33  1  0  0  0  0
 41 35  1  0  0  0  0
M  END
>  <minimizedAffinity>
-6.01570082

$$$$

 OpenBabel03242516273D

 41 45  0  0  0  0  0  0  0  0999 V2000
   39.2370   29.8260   40.1650 C   0  0  0  0  0  0  0  0  0  0  0  0
   40.3140   29.5990   40.9580 N   0  0  0  0  0  0  0  0  0  0  0  0
   40.9280   30.5660   41.6520 C   0  0  0  0  0  0  0  0  0  0  0  0
   40.4420   31.8130   41.5460 N   0  0  0  0  0  0  0  0  0  0  0  0
   39.3880   32.1330   40.7920 C   0  0  0  0  0  0  0  0  0  0  0  0
   38.8720   33.4120   40.6950 C   0  0  0  0  0  0  0  0  0  0  0  0
   37.7630   33.6670   39.9040 C   0  0  0  0  0  0  0  0  0  0  0  0
   37.1310   32.6690   39.1870 C   0  0  0  0  0  0  0  0  0  0  0  0
   37.6660   31.4070   39.3030 C   0  0  0  0  0  0  0  0  0  0  0  0
   38.7610   31.1200   40.0770 C   0  0  0  0  0  0  0  0  0  0  0  0
   41.7820   30.3530   42.2720 H   0  0  0  0  0  0  0  0  0  0  0  0
   39.4120   34.1470   41.2770 H   0  0  0  0  0  0  0  0  0  0  0  0
   37.4820   34.7220   39.9350 H   0  0  0  0  0  0  0  0  0  0  0  0
   36.2800   33.0010   38.6150 H   0  0  0  0  0  0  0  0  0  0  0  0
   36.8940   30.4870   38.4700 C   0  0  0  0  0  0  0  0  0  0  0  0
   37.2800   30.3300   37.0180 C   0  0  0  0  0  0  0  0  0  0  0  0
   38.1410   30.8210   36.5820 H   0  0  0  0  0  0  0  0  0  0  0  0
   35.9870   29.2120   36.3740 S   0  0  0  0  0  0  0  0  0  0  0  0
   35.1560   29.1270   38.0810 C   0  0  0  0  0  0  0  0  0  0  0  0
   34.2570   28.5650   38.3510 H   0  0  0  0  0  0  0  0  0  0  0  0
   35.8020   29.7830   38.7270 N   0  0  0  0  0  0  0  0  0  0  0  0
   38.3850   28.5560   39.2730 S   0  0  0  0  0  0  0  0  0  0  0  0
   37.3310   24.9830   40.8220 C   0  0  0  0  0  0  0  0  0  0  0  0
   37.7590   25.9980   39.9940 C   0  0  0  0  0  0  0  0  0  0  0  0
   37.8270   27.3020   40.4220 C   0  0  0  0  0  0  0  0  0  0  0  0
   37.4520   27.6250   41.7400 C   0  0  0  0  0  0  0  0  0  0  0  0
   37.0310   26.6350   42.5580 C   0  0  0  0  0  0  0  0  0  0  0  0
   36.9760   25.3450   42.0980 C   0  0  0  0  0  0  0  0  0  0  0  0
   38.0480   25.7580   38.9820 H   0  0  0  0  0  0  0  0  0  0  0  0
   37.5020   28.6500   42.0810 H   0  0  0  0  0  0  0  0  0  0  0  0
   36.7350   26.8530   43.5810 H   0  0  0  0  0  0  0  0  0  0  0  0
   36.6350   24.5760   42.7750 H   0  0  0  0  0  0  0  0  0  0  0  0
   36.0510   22.0660   39.0220 C   0  0  0  0  0  0  0  0  0  0  0  0
   37.0050   21.0780   39.2870 C   0  0  0  0  0  0  0  0  0  0  0  0
   38.0900   21.3970   40.0800 C   0  0  0  0  0  0  0  0  0  0  0  0
   38.2180   22.6630   40.5940 N   0  0  0  0  0  0  0  0  0  0  0  0
   37.2700   23.6000   40.3170 C   0  0  0  0  0  0  0  0  0  0  0  0
   36.1940   23.2990   39.5350 N   0  0  0  0  0  0  0  0  0  0  0  0
   35.2230   21.7640   38.3970 H   0  0  0  0  0  0  0  0  0  0  0  0
   36.9910   20.0680   38.9320 H   0  0  0  0  0  0  0  0  0  0  0  0
   38.9080   20.7850   40.3880 H   0  0  0  0  0  0  0  0  0  0  0  0
  1  2  1  0  0  0  0
  2  3  2  0  0  0  0
  3 11  1  0  0  0  0
  4  3  1  0  0  0  0
  5  4  2  0  0  0  0
  6  5  1  0  0  0  0
  6 12  1  0  0  0  0
  7 13  1  0  0  0  0
  7  6  2  0  0  0  0
  8  9  2  0  0  0  0
  8  7  1  0  0  0  0
  9 10  1  0  0  0  0
 10  1  2  0  0  0  0
 10  5  1  0  0  0  0
 14  8  1  0  0  0  0
 15 21  1  0  0  0  0
 15  9  1  0  0  0  0
 16 15  2  0  0  0  0
 17 16  1  0  0  0  0
 18 16  1  0  0  0  0
 18 19  1  0  0  0  0
 19 20  1  0  0  0  0
 19 21  2  0  0  0  0
 22  1  1  0  0  0  0
 22 25  1  0  0  0  0
 23 28  1  0  0  0  0
 24 25  1  0  0  0  0
 24 23  2  0  0  0  0
 25 26  2  0  0  0  0
 26 30  1  0  0  0  0
 26 27  1  0  0  0  0
 27 31  1  0  0  0  0
 28 27  2  0  0  0  0
 28 32  1  0  0  0  0
 29 24  1  0  0  0  0
 33 34  2  0  0  0  0
 33 38  1  0  0  0  0
 34 35  1  0  0  0  0
 35 41  1  0  0  0  0
 35 36  2  0  0  0  0
 37 36  1  0  0  0  0
 37 23  1  0  0  0  0
 38 37  2  0  0  0  0
 39 33  1  0  0  0  0
 40 34  1  0  0  0  0
M  END
>  <minimizedAffinity>
-6.01048565

$$$$

 OpenBabel03242516273D

 41 45  0  0  0  0  0  0  0  0999 V2000
   36.8090   28.9760   41.1770 C   0  0  0  0  0  0  0  0  0  0  0  0
   37.1400   29.4350   42.4100 N   0  0  0  0  0  0  0  0  0  0  0  0
   37.4650   28.6280   43.4280 C   0  0  0  0  0  0  0  0  0  0  0  0
   37.4600   27.3040   43.1990 N   0  0  0  0  0  0  0  0  0  0  0  0
   37.1490   26.7600   42.0210 C   0  0  0  0  0  0  0  0  0  0  0  0
   37.1610   25.4000   41.7760 C   0  0  0  0  0  0  0  0  0  0  0  0
   36.8430   24.9060   40.5200 C   0  0  0  0  0  0  0  0  0  0  0  0
   36.5050   25.7400   39.4720 C   0  0  0  0  0  0  0  0  0  0  0  0
   36.5020   27.0880   39.7450 C   0  0  0  0  0  0  0  0  0  0  0  0
   36.8120   27.6090   40.9740 C   0  0  0  0  0  0  0  0  0  0  0  0
   37.7210   29.0240   44.3950 H   0  0  0  0  0  0  0  0  0  0  0  0
   37.4310   24.8020   42.6360 H   0  0  0  0  0  0  0  0  0  0  0  0
   36.8980   23.8150   40.4910 H   0  0  0  0  0  0  0  0  0  0  0  0
   36.2820   25.2290   38.5490 H   0  0  0  0  0  0  0  0  0  0  0  0
   36.1050   27.8140   38.5400 C   0  0  0  0  0  0  0  0  0  0  0  0
   34.6350   28.0480   38.2890 C   0  0  0  0  0  0  0  0  0  0  0  0
   33.8640   27.7570   38.9910 H   0  0  0  0  0  0  0  0  0  0  0  0
   34.6260   28.8540   36.6490 S   0  0  0  0  0  0  0  0  0  0  0  0
   36.5220   28.7580   36.5500 C   0  0  0  0  0  0  0  0  0  0  0  0
   37.1600   29.1110   35.7350 H   0  0  0  0  0  0  0  0  0  0  0  0
   36.8170   28.2620   37.5160 N   0  0  0  0  0  0  0  0  0  0  0  0
   36.4160   30.0270   39.8070 S   0  0  0  0  0  0  0  0  0  0  0  0
   39.7890   32.0110   38.8280 C   0  0  0  0  0  0  0  0  0  0  0  0
   38.7930   31.0670   38.9590 C   0  0  0  0  0  0  0  0  0  0  0  0
   37.6510   31.3170   39.6810 C   0  0  0  0  0  0  0  0  0  0  0  0
   37.4780   32.5660   40.3080 C   0  0  0  0  0  0  0  0  0  0  0  0
   38.4510   33.4960   40.1820 C   0  0  0  0  0  0  0  0  0  0  0  0
   39.5780   33.2130   39.4550 C   0  0  0  0  0  0  0  0  0  0  0  0
   38.9180   30.1080   38.4810 H   0  0  0  0  0  0  0  0  0  0  0  0
   36.5820   32.7660   40.8780 H   0  0  0  0  0  0  0  0  0  0  0  0
   38.3460   34.4690   40.6550 H   0  0  0  0  0  0  0  0  0  0  0  0
   40.3370   33.9780   39.3730 H   0  0  0  0  0  0  0  0  0  0  0  0
   42.1090   30.0650   36.7730 C   0  0  0  0  0  0  0  0  0  0  0  0
   43.1720   30.9480   36.5620 C   0  0  0  0  0  0  0  0  0  0  0  0
   43.1090   32.2100   37.1180 C   0  0  0  0  0  0  0  0  0  0  0  0
   42.0170   32.5810   37.8620 N   0  0  0  0  0  0  0  0  0  0  0  0
   40.9990   31.6960   38.0480 C   0  0  0  0  0  0  0  0  0  0  0  0
   41.0490   30.4460   37.5050 N   0  0  0  0  0  0  0  0  0  0  0  0
   42.2080   29.0900   36.3170 H   0  0  0  0  0  0  0  0  0  0  0  0
   44.0620   30.7490   35.9990 H   0  0  0  0  0  0  0  0  0  0  0  0
   43.8140   33.0100   37.0660 H   0  0  0  0  0  0  0  0  0  0  0  0
  1  2  1  0  0  0  0
  2  3  2  0  0  0  0
  3 11  1  0  0  0  0
  4  3  1  0  0  0  0
  5  4  2  0  0  0  0
  6  5  1  0  0  0  0
  6 12  1  0  0  0  0
  7  6  2  0  0  0  0
  8  9  2  0  0  0  0
  8  7  1  0  0  0  0
  9 10  1  0  0  0  0
 10  1  2  0  0  0  0
 10  5  1  0  0  0  0
 13  7  1  0  0  0  0
 14  8  1  0  0  0  0
 15  9  1  0  0  0  0
 16 15  2  0  0  0  0
 16 17  1  0  0  0  0
 18 16  1  0  0  0  0
 19 18  1  0  0  0  0
 19 21  2  0  0  0  0
 20 19  1  0  0  0  0
 21 15  1  0  0  0  0
 22  1  1  0  0  0  0
 23 24  2  0  0  0  0
 23 28  1  0  0  0  0
 24 25  1  0  0  0  0
 25 22  1  0  0  0  0
 25 26  2  0  0  0  0
 26 30  1  0  0  0  0
 27 26  1  0  0  0  0
 27 31  1  0  0  0  0
 28 27  2  0  0  0  0
 29 24  1  0  0  0  0
 32 28  1  0  0  0  0
 33 38  1  0  0  0  0
 34 33  2  0  0  0  0
 34 35  1  0  0  0  0
 35 36  2  0  0  0  0
 36 37  1  0  0  0  0
 37 23  1  0  0  0  0
 38 37  2  0  0  0  0
 39 33  1  0  0  0  0
 40 34  1  0  0  0  0
 41 35  1  0  0  0  0
M  END
>  <minimizedAffinity>
-6.00970173

$$$$
