
 OpenBabel03252506563D

 36 40  0  0  0  0  0  0  0  0999 V2000
   47.4090   31.3610   45.2540 C   0  0  0  0  0  0  0  0  0  0  0  0
   46.9180   32.6500   45.1310 C   0  0  0  0  0  0  0  0  0  0  0  0
   46.2090   33.2710   46.1290 C   0  0  0  0  0  0  0  0  0  0  0  0
   45.9540   32.6150   47.3220 C   0  0  0  0  0  0  0  0  0  0  0  0
   45.3100   32.9000   48.4900 N   0  0  0  0  0  0  0  0  0  0  0  0
   45.4010   31.8180   49.3120 C   0  0  0  0  0  0  0  0  0  0  0  0
   46.1010   30.8810   48.6350 N   0  0  0  0  0  0  0  0  0  0  0  0
   46.4510   31.3390   47.4180 C   0  0  0  0  0  0  0  0  0  0  0  0
   47.1580   30.6800   46.4600 C   0  0  0  0  0  0  0  0  0  0  0  0
   47.9660   30.8790   44.4610 H   0  0  0  0  0  0  0  0  0  0  0  0
   45.8300   34.2800   46.0200 H   0  0  0  0  0  0  0  0  0  0  0  0
   44.8390   33.8210   48.6720 H   0  0  0  0  0  0  0  0  0  0  0  0
   44.9750   31.7610   50.3180 H   0  0  0  0  0  0  0  0  0  0  0  0
   46.5910   35.0900   42.3960 C   0  0  0  0  0  0  0  0  0  0  0  0
   47.6400   34.7540   41.5560 C   0  0  0  0  0  0  0  0  0  0  0  0
   48.4630   33.6850   41.9290 C   0  0  0  0  0  0  0  0  0  0  0  0
   48.1930   33.0300   43.0980 N   0  0  0  0  0  0  0  0  0  0  0  0
   47.1580   33.3870   43.8930 C   0  0  0  0  0  0  0  0  0  0  0  0
   46.3600   34.4100   43.5470 N   0  0  0  0  0  0  0  0  0  0  0  0
   45.9370   35.9180   42.1250 H   0  0  0  0  0  0  0  0  0  0  0  0
   47.8040   35.3140   40.6380 H   0  0  0  0  0  0  0  0  0  0  0  0
   49.2940   33.3960   41.2950 H   0  0  0  0  0  0  0  0  0  0  0  0
   47.6470   29.3140   46.6600 C   0  0  0  0  0  0  0  0  0  0  0  0
   48.9650   28.9390   46.6120 C   0  0  0  0  0  0  0  0  0  0  0  0
   48.9170   27.5570   46.8620 C   0  0  0  0  0  0  0  0  0  0  0  0
   47.5920   27.1760   47.0430 C   0  0  0  0  0  0  0  0  0  0  0  0
   46.9000   28.2860   46.9060 O   0  0  0  0  0  0  0  0  0  0  0  0
   49.8160   29.5490   46.4310 H   0  0  0  0  0  0  0  0  0  0  0  0
   49.7740   26.9060   46.9030 H   0  0  0  0  0  0  0  0  0  0  0  0
   47.0650   25.8250   47.3290 C   0  0  0  0  0  0  0  0  0  0  0  0
   45.9810   25.6910   48.3500 C   0  0  0  0  0  0  0  0  0  0  0  0
   45.5570   26.4690   48.8850 H   0  0  0  0  0  0  0  0  0  0  0  0
   45.7600   23.8170   48.2570 S   0  0  0  0  0  0  0  0  0  0  0  0
   47.1020   23.6230   46.9330 C   0  0  0  0  0  0  0  0  0  0  0  0
   47.3590   22.6560   46.5290 H   0  0  0  0  0  0  0  0  0  0  0  0
   47.5170   24.7520   46.7180 N   0  0  0  0  0  0  0  0  0  0  0  0
  1  9  1  0  0  0  0
  2  1  2  0  0  0  0
  2  3  1  0  0  0  0
  3  4  2  0  0  0  0
  4  8  1  0  0  0  0
  4  5  1  0  0  0  0
  5 12  1  0  0  0  0
  5  6  1  0  0  0  0
  6 13  1  0  0  0  0
  7  6  2  0  0  0  0
  8  7  1  0  0  0  0
  9 23  1  0  0  0  0
  9  8  2  0  0  0  0
 10  1  1  0  0  0  0
 11  3  1  0  0  0  0
 14 19  1  0  0  0  0
 15 16  1  0  0  0  0
 15 14  2  0  0  0  0
 16 17  2  0  0  0  0
 17 18  1  0  0  0  0
 18  2  1  0  0  0  0
 19 18  2  0  0  0  0
 20 14  1  0  0  0  0
 21 15  1  0  0  0  0
 22 16  1  0  0  0  0
 23 27  1  0  0  0  0
 24 23  2  0  0  0  0
 24 25  1  0  0  0  0
 25 29  1  0  0  0  0
 25 26  2  0  0  0  0
 26 30  1  0  0  0  0
 27 26  1  0  0  0  0
 28 24  1  0  0  0  0
 30 31  2  0  0  0  0
 31 32  1  0  0  0  0
 33 31  1  0  0  0  0
 34 33  1  0  0  0  0
 35 34  1  0  0  0  0
 36 34  2  0  0  0  0
 36 30  1  0  0  0  0
M  END
>  <minimizedAffinity>
-5.48264551

>  <minimizedRMSD>
0.688470781

$$$$
