REMARK  Name = 
REMARK  3 active torsions:
REMARK  status: ('A' for Active; 'I' for Inactive)
REMARK    1  A    between atoms: C_1  and  C_7
REMARK    2  A    between atoms: C_2  and  C_16
REMARK    3  A    between atoms: C_7  and  C_8
REMARK                            x       y       z     vdW  Elec       q    Type
REMARK                         _______ _______ _______ _____ _____    ______ ____
ROOT
ATOM      1  C   UNL     1      47.246  34.193  43.241  0.00  0.00    +0.000 A 
ATOM      2  C   UNL     1      46.610  35.162  42.501  0.00  0.00    +0.000 A 
ATOM      3  C   UNL     1      45.374  35.610  43.050  0.00  0.00    +0.000 A 
ATOM      4  N   UNL     1      44.909  35.087  44.209  0.00  0.00    +0.000 NA
ATOM      5  C   UNL     1      45.579  34.142  44.877  0.00  0.00    +0.000 A 
ATOM      6  N   UNL     1      46.728  33.711  44.391  0.00  0.00    +0.000 NA
ATOM      7  H   UNL     1      44.732  36.373  42.606  0.00  0.00    +0.000 HD
ATOM      8  H   UNL     1      45.131  33.785  45.788  0.00  0.00    +0.000 HD
ENDROOT
BRANCH   2   9
ATOM      9  C   UNL     1      47.031  35.800  41.267  0.00  0.00    +0.000 A 
ATOM     10  C   UNL     1      47.857  37.046  41.234  0.00  0.00    +0.000 A 
ATOM     11  H   UNL     1      48.243  37.673  41.872  0.00  0.00    +0.000 HD
ATOM     12  S   UNL     1      48.139  37.297  39.489  0.00  0.00    +0.000 S 
ATOM     13  C   UNL     1      47.148  35.748  39.011  0.00  0.00    +0.000 A 
ATOM     14  H   UNL     1      46.886  35.252  38.022  0.00  0.00    +0.000 HD
ATOM     15  N   UNL     1      46.718  35.208  40.116  0.00  0.00    +0.000 NA
ENDBRANCH   2   9
BRANCH   1  16
ATOM     16  C   UNL     1      48.562  33.675  42.838  0.00  0.00    +0.000 C 
ATOM     17  H   UNL     1      48.492  33.033  41.950  0.00  0.00    +0.000 HD
ATOM     18  H   UNL     1      48.966  33.006  43.639  0.00  0.00    +0.000 HD
BRANCH  16  19
ATOM     19  C   UNL     1      49.525  34.817  42.654  0.00  0.00    +0.000 C 
ATOM     20  H   UNL     1      49.066  35.822  42.714  0.00  0.00    +0.000 HD
ATOM     21  H   UNL     1      50.230  34.812  43.553  0.00  0.00    +0.000 HD
ATOM     22  H   UNL     1      50.210  34.665  41.798  0.00  0.00    +0.000 HD
ENDBRANCH  16  19
ENDBRANCH   1  16
TORSDOF 3
