REMARK  Name = 
REMARK  6 active torsions:
REMARK  status: ('A' for Active; 'I' for Inactive)
REMARK    1  A    between atoms: C_1  and  C_2
REMARK    2  A    between atoms: C_1  and  S_11
REMARK    3  A    between atoms: C_2  and  C_5
REMARK    4  A    between atoms: S_11  and  C_12
REMARK    5  A    between atoms: C_16  and  C_18
REMARK    6  A    between atoms: C_18  and  C_29
REMARK                            x       y       z     vdW  Elec       q    Type
REMARK                         _______ _______ _______ _____ _____    ______ ____
ROOT
ATOM      1  S   UNL     1      43.520  35.049  40.776  0.00  0.00    +0.000 S 
ENDROOT
BRANCH   1   2
ATOM      2  C   UNL     1      44.800  34.709  41.983  0.00  0.00    +0.000 A 
ATOM      3  C   UNL     1      46.101  34.550  41.485  0.00  0.00    +0.000 A 
ATOM      4  C   UNL     1      47.132  34.284  42.390  0.00  0.00    +0.000 A 
ATOM      5  N   UNL     1      46.818  34.194  43.701  0.00  0.00    +0.000 NA
ATOM      6  C   UNL     1      45.578  34.347  44.169  0.00  0.00    +0.000 A 
ATOM      7  N   UNL     1      44.580  34.603  43.305  0.00  0.00    +0.000 NA
ATOM      8  H   UNL     1      46.378  34.618  40.440  0.00  0.00    +0.000 HD
ATOM      9  H   UNL     1      48.150  34.157  42.031  0.00  0.00    +0.000 HD
BRANCH   6  10
ATOM     10  C   UNL     1      45.333  34.234  45.592  0.00  0.00    +0.000 C 
ATOM     11  O   UNL     1      44.551  35.053  46.123  0.00  0.00    +0.000 OA
BRANCH  10  12
ATOM     12  C   UNL     1      46.031  33.162  46.288  0.00  0.00    +0.000 A 
ATOM     13  C   UNL     1      47.131  33.889  47.043  0.00  0.00    +0.000 A 
ATOM     14  H   UNL     1      47.668  34.791  47.334  0.00  0.00    +0.000 HD
ATOM     15  S   UNL     1      47.932  32.394  47.880  0.00  0.00    +0.000 S 
ATOM     16  C   UNL     1      46.706  31.172  47.097  0.00  0.00    +0.000 A 
ATOM     17  H   UNL     1      46.249  30.053  46.899  0.00  0.00    +0.000 HD
ATOM     18  N   UNL     1      45.863  31.879  46.339  0.00  0.00    +0.000 NA
ENDBRANCH  10  12
ENDBRANCH   6  10
ENDBRANCH   1   2
BRANCH   1  19
ATOM     19  C   UNL     1      41.907  35.239  41.524  0.00  0.00    +0.000 C 
ATOM     20  H   UNL     1      42.009  35.577  42.584  0.00  0.00    +0.000 HD
ATOM     21  H   UNL     1      41.447  34.222  41.597  0.00  0.00    +0.000 HD
BRANCH  19  22
ATOM     22  C   UNL     1      40.971  36.089  40.734  0.00  0.00    +0.000 C 
ATOM     23  H   UNL     1      41.458  36.935  40.201  0.00  0.00    +0.000 HD
ATOM     24  H   UNL     1      40.247  36.552  41.458  0.00  0.00    +0.000 HD
BRANCH  22  27
ATOM     25 CL   UNL     1      41.767  36.288  37.812  0.00  0.00    +0.000 Cl
ATOM     26  C   UNL     1      40.464  35.307  38.411  0.00  0.00    +0.000 A 
ATOM     27  C   UNL     1      40.180  35.288  39.783  0.00  0.00    +0.000 A 
ATOM     28  C   UNL     1      39.136  34.487  40.165  0.00  0.00    +0.000 A 
ATOM     29  C   UNL     1      38.340  33.703  39.349  0.00  0.00    +0.000 A 
ATOM     30  C   UNL     1      38.640  33.739  37.994  0.00  0.00    +0.000 A 
ATOM     31 CL   UNL     1      37.691  32.780  36.870  0.00  0.00    +0.000 Cl
ATOM     32  C   UNL     1      39.685  34.531  37.550  0.00  0.00    +0.000 A 
ATOM     33  H   UNL     1      38.884  34.445  41.230  0.00  0.00    +0.000 HD
ATOM     34  H   UNL     1      37.537  33.104  39.755  0.00  0.00    +0.000 HD
ATOM     35  H   UNL     1      39.894  34.536  36.482  0.00  0.00    +0.000 HD
ENDBRANCH  22  27
ENDBRANCH  19  22
ENDBRANCH   1  19
TORSDOF 6
