
 OpenBabel03242515003D

 35 37  0  0  0  0  0  0  0  0999 V2000
   43.8120   34.7390   40.7760 S   0  0  0  0  0  0  0  0  0  0  0  0
   45.0870   34.4980   42.0120 C   0  0  0  0  0  0  0  0  0  0  0  0
   46.4120   34.5300   41.5560 C   0  0  0  0  0  0  0  0  0  0  0  0
   47.4400   34.3480   42.4850 C   0  0  0  0  0  0  0  0  0  0  0  0
   47.1000   34.1500   43.7770 N   0  0  0  0  0  0  0  0  0  0  0  0
   45.8370   34.1210   44.2060 C   0  0  0  0  0  0  0  0  0  0  0  0
   44.8420   34.2960   43.3180 N   0  0  0  0  0  0  0  0  0  0  0  0
   46.7110   34.6880   40.5270 H   0  0  0  0  0  0  0  0  0  0  0  0
   48.4770   34.3680   42.1580 H   0  0  0  0  0  0  0  0  0  0  0  0
   45.5640   33.9030   45.6110 C   0  0  0  0  0  0  0  0  0  0  0  0
   44.7600   34.6710   46.1830 O   0  0  0  0  0  0  0  0  0  0  0  0
   46.2640   32.7930   46.2440 C   0  0  0  0  0  0  0  0  0  0  0  0
   45.8240   31.5880   45.4280 C   0  0  0  0  0  0  0  0  0  0  0  0
   45.2610   31.1250   44.6210 H   0  0  0  0  0  0  0  0  0  0  0  0
   46.7950   30.2540   46.3530 S   0  0  0  0  0  0  0  0  0  0  0  0
   47.5480   31.5040   47.5700 C   0  0  0  0  0  0  0  0  0  0  0  0
   48.2510   31.8200   48.5220 H   0  0  0  0  0  0  0  0  0  0  0  0
   47.0780   32.7120   47.2470 N   0  0  0  0  0  0  0  0  0  0  0  0
   42.1850   34.9180   41.4970 C   0  0  0  0  0  0  0  0  0  0  0  0
   42.2680   35.1320   42.5910 H   0  0  0  0  0  0  0  0  0  0  0  0
   41.6810   33.9210   41.4440 H   0  0  0  0  0  0  0  0  0  0  0  0
   41.3120   35.8920   40.7820 C   0  0  0  0  0  0  0  0  0  0  0  0
   41.8610   36.7090   40.2660 H   0  0  0  0  0  0  0  0  0  0  0  0
   40.6640   36.3900   41.5530 H   0  0  0  0  0  0  0  0  0  0  0  0
   42.0460   36.1030   37.8450 Cl  0  0  0  0  0  0  0  0  0  0  0  0
   40.6580   35.2520   38.4520 C   0  0  0  0  0  0  0  0  0  0  0  0
   40.4110   35.2170   39.8310 C   0  0  0  0  0  0  0  0  0  0  0  0
   39.2940   34.5240   40.2190 C   0  0  0  0  0  0  0  0  0  0  0  0
   38.3940   33.8620   39.4030 C   0  0  0  0  0  0  0  0  0  0  0  0
   38.6600   33.9120   38.0410 C   0  0  0  0  0  0  0  0  0  0  0  0
   37.5800   33.1040   36.9170 Cl  0  0  0  0  0  0  0  0  0  0  0  0
   39.7750   34.5980   37.5910 C   0  0  0  0  0  0  0  0  0  0  0  0
   39.0680   34.4730   41.2890 H   0  0  0  0  0  0  0  0  0  0  0  0
   37.5400   33.3420   39.8140 H   0  0  0  0  0  0  0  0  0  0  0  0
   39.9540   34.6170   36.5180 H   0  0  0  0  0  0  0  0  0  0  0  0
  1 19  1  0  0  0  0
  1  2  1  0  0  0  0
  2  7  1  0  0  0  0
  3  2  2  0  0  0  0
  3  4  1  0  0  0  0
  4  5  2  0  0  0  0
  5  6  1  0  0  0  0
  6 10  1  0  0  0  0
  7  6  2  0  0  0  0
  8  3  1  0  0  0  0
  9  4  1  0  0  0  0
 10 11  2  0  0  0  0
 10 12  1  0  0  0  0
 12 18  1  0  0  0  0
 13 12  2  0  0  0  0
 13 15  1  0  0  0  0
 14 13  1  0  0  0  0
 15 16  1  0  0  0  0
 16 17  1  0  0  0  0
 18 16  2  0  0  0  0
 19 20  1  0  0  0  0
 21 19  1  0  0  0  0
 22 19  1  0  0  0  0
 22 24  1  0  0  0  0
 23 22  1  0  0  0  0
 25 26  1  0  0  0  0
 26 27  1  0  0  0  0
 27 28  2  0  0  0  0
 27 22  1  0  0  0  0
 28 33  1  0  0  0  0
 29 34  1  0  0  0  0
 29 28  1  0  0  0  0
 30 29  2  0  0  0  0
 31 30  1  0  0  0  0
 32 30  1  0  0  0  0
 32 26  2  0  0  0  0
 35 32  1  0  0  0  0
M  END
>  <minimizedAffinity>
-6.39260578

>  <minimizedRMSD>
0.726307988

$$$$
