
 OpenBabel03242514593D

 35 37  0  0  0  0  0  0  0  0999 V2000
   43.5150   34.9140   40.7380 S   0  0  0  0  0  0  0  0  0  0  0  0
   44.7970   34.6610   41.9650 C   0  0  0  0  0  0  0  0  0  0  0  0
   46.1110   34.5730   41.4840 C   0  0  0  0  0  0  0  0  0  0  0  0
   47.1440   34.3770   42.4050 C   0  0  0  0  0  0  0  0  0  0  0  0
   46.8190   34.2810   43.7130 N   0  0  0  0  0  0  0  0  0  0  0  0
   45.5660   34.3660   44.1640 C   0  0  0  0  0  0  0  0  0  0  0  0
   44.5660   34.5550   43.2850 N   0  0  0  0  0  0  0  0  0  0  0  0
   46.3970   34.6470   40.4420 H   0  0  0  0  0  0  0  0  0  0  0  0
   48.1720   34.3060   42.0600 H   0  0  0  0  0  0  0  0  0  0  0  0
   45.3090   34.2530   45.5850 C   0  0  0  0  0  0  0  0  0  0  0  0
   44.5720   35.1090   46.1210 O   0  0  0  0  0  0  0  0  0  0  0  0
   45.9440   33.1370   46.2720 C   0  0  0  0  0  0  0  0  0  0  0  0
   45.1870   33.0570   47.5870 C   0  0  0  0  0  0  0  0  0  0  0  0
   44.4200   33.3980   48.2810 H   0  0  0  0  0  0  0  0  0  0  0  0
   46.1070   31.5920   48.3520 S   0  0  0  0  0  0  0  0  0  0  0  0
   47.2500   31.3950   46.8470 C   0  0  0  0  0  0  0  0  0  0  0  0
   48.1580   30.8610   46.2230 H   0  0  0  0  0  0  0  0  0  0  0  0
   46.9110   32.3350   45.9610 N   0  0  0  0  0  0  0  0  0  0  0  0
   41.8910   35.0800   41.4690 C   0  0  0  0  0  0  0  0  0  0  0  0
   41.9790   35.3620   42.5470 H   0  0  0  0  0  0  0  0  0  0  0  0
   41.4220   34.0650   41.4820 H   0  0  0  0  0  0  0  0  0  0  0  0
   40.9760   35.9780   40.7100 C   0  0  0  0  0  0  0  0  0  0  0  0
   41.4810   36.8350   40.2120 H   0  0  0  0  0  0  0  0  0  0  0  0
   40.2570   36.4270   41.4480 H   0  0  0  0  0  0  0  0  0  0  0  0
   41.8000   36.2610   37.8020 Cl  0  0  0  0  0  0  0  0  0  0  0  0
   40.4690   35.2910   38.3570 C   0  0  0  0  0  0  0  0  0  0  0  0
   40.1740   35.2310   39.7250 C   0  0  0  0  0  0  0  0  0  0  0  0
   39.1080   34.4420   40.0710 C   0  0  0  0  0  0  0  0  0  0  0  0
   38.3000   33.7070   39.2220 C   0  0  0  0  0  0  0  0  0  0  0  0
   38.6120   33.7830   37.8710 C   0  0  0  0  0  0  0  0  0  0  0  0
   37.6490   32.8870   36.7070 Cl  0  0  0  0  0  0  0  0  0  0  0  0
   39.6790   34.5650   37.4630 C   0  0  0  0  0  0  0  0  0  0  0  0
   38.8460   34.3690   41.1320 H   0  0  0  0  0  0  0  0  0  0  0  0
   37.4790   33.1130   39.6000 H   0  0  0  0  0  0  0  0  0  0  0  0
   39.8970   34.6020   36.3970 H   0  0  0  0  0  0  0  0  0  0  0  0
  1 19  1  0  0  0  0
  1  2  1  0  0  0  0
  2  7  1  0  0  0  0
  3  2  2  0  0  0  0
  3  4  1  0  0  0  0
  4  5  2  0  0  0  0
  5  6  1  0  0  0  0
  6 10  1  0  0  0  0
  7  6  2  0  0  0  0
  8  3  1  0  0  0  0
  9  4  1  0  0  0  0
 10 11  2  0  0  0  0
 10 12  1  0  0  0  0
 12 13  2  0  0  0  0
 13 14  1  0  0  0  0
 13 15  1  0  0  0  0
 16 15  1  0  0  0  0
 17 16  1  0  0  0  0
 18 12  1  0  0  0  0
 18 16  2  0  0  0  0
 19 21  1  0  0  0  0
 19 20  1  0  0  0  0
 22 24  1  0  0  0  0
 22 19  1  0  0  0  0
 23 22  1  0  0  0  0
 25 26  1  0  0  0  0
 26 27  1  0  0  0  0
 27 28  2  0  0  0  0
 27 22  1  0  0  0  0
 28 33  1  0  0  0  0
 29 34  1  0  0  0  0
 29 28  1  0  0  0  0
 30 29  2  0  0  0  0
 31 30  1  0  0  0  0
 32 30  1  0  0  0  0
 32 26  2  0  0  0  0
 35 32  1  0  0  0  0
M  END
>  <minimizedAffinity>
-6.60684156

>  <minimizedRMSD>
0.176426098

$$$$
