
 OpenBabel03242515003D

 35 37  0  0  0  0  0  0  0  0999 V2000
   43.4990   34.9060   40.7390 S   0  0  0  0  0  0  0  0  0  0  0  0
   44.7840   34.6590   41.9630 C   0  0  0  0  0  0  0  0  0  0  0  0
   46.0980   34.5760   41.4800 C   0  0  0  0  0  0  0  0  0  0  0  0
   47.1340   34.3840   42.3990 C   0  0  0  0  0  0  0  0  0  0  0  0
   46.8120   34.2890   43.7070 N   0  0  0  0  0  0  0  0  0  0  0  0
   45.5600   34.3700   44.1610 C   0  0  0  0  0  0  0  0  0  0  0  0
   44.5570   34.5540   43.2840 N   0  0  0  0  0  0  0  0  0  0  0  0
   46.3820   34.6490   40.4370 H   0  0  0  0  0  0  0  0  0  0  0  0
   48.1610   34.3170   42.0510 H   0  0  0  0  0  0  0  0  0  0  0  0
   45.3070   34.2570   45.5830 C   0  0  0  0  0  0  0  0  0  0  0  0
   44.5710   35.1130   46.1210 O   0  0  0  0  0  0  0  0  0  0  0  0
   45.9430   33.1410   46.2690 C   0  0  0  0  0  0  0  0  0  0  0  0
   45.1870   33.0600   47.5840 C   0  0  0  0  0  0  0  0  0  0  0  0
   44.4200   33.4010   48.2790 H   0  0  0  0  0  0  0  0  0  0  0  0
   46.1070   31.5940   48.3480 S   0  0  0  0  0  0  0  0  0  0  0  0
   47.2490   31.3990   46.8430 C   0  0  0  0  0  0  0  0  0  0  0  0
   48.1570   30.8650   46.2170 H   0  0  0  0  0  0  0  0  0  0  0  0
   46.9100   32.3390   45.9560 N   0  0  0  0  0  0  0  0  0  0  0  0
   41.8810   35.1000   41.4760 C   0  0  0  0  0  0  0  0  0  0  0  0
   41.9770   35.3980   42.5480 H   0  0  0  0  0  0  0  0  0  0  0  0
   41.4010   34.0900   41.5080 H   0  0  0  0  0  0  0  0  0  0  0  0
   40.9700   35.9940   40.7060 C   0  0  0  0  0  0  0  0  0  0  0  0
   41.4800   36.8470   40.2050 H   0  0  0  0  0  0  0  0  0  0  0  0
   40.2500   36.4490   41.4390 H   0  0  0  0  0  0  0  0  0  0  0  0
   41.8010   36.2630   37.7990 Cl  0  0  0  0  0  0  0  0  0  0  0  0
   40.4700   35.2950   38.3550 C   0  0  0  0  0  0  0  0  0  0  0  0
   40.1710   35.2420   39.7230 C   0  0  0  0  0  0  0  0  0  0  0  0
   39.1040   34.4540   40.0710 C   0  0  0  0  0  0  0  0  0  0  0  0
   38.2990   33.7140   39.2230 C   0  0  0  0  0  0  0  0  0  0  0  0
   38.6140   33.7840   37.8730 C   0  0  0  0  0  0  0  0  0  0  0  0
   37.6550   32.8820   36.7110 Cl  0  0  0  0  0  0  0  0  0  0  0  0
   39.6820   34.5640   37.4640 C   0  0  0  0  0  0  0  0  0  0  0  0
   38.8400   34.3860   41.1310 H   0  0  0  0  0  0  0  0  0  0  0  0
   37.4780   33.1220   39.6030 H   0  0  0  0  0  0  0  0  0  0  0  0
   39.9020   34.5970   36.3980 H   0  0  0  0  0  0  0  0  0  0  0  0
  1 19  1  0  0  0  0
  1  2  1  0  0  0  0
  2  7  1  0  0  0  0
  3  2  2  0  0  0  0
  3  4  1  0  0  0  0
  4  5  2  0  0  0  0
  5  6  1  0  0  0  0
  6 10  1  0  0  0  0
  7  6  2  0  0  0  0
  8  3  1  0  0  0  0
  9  4  1  0  0  0  0
 10 11  2  0  0  0  0
 10 12  1  0  0  0  0
 12 13  2  0  0  0  0
 13 14  1  0  0  0  0
 13 15  1  0  0  0  0
 16 15  1  0  0  0  0
 17 16  1  0  0  0  0
 18 12  1  0  0  0  0
 18 16  2  0  0  0  0
 19 21  1  0  0  0  0
 19 20  1  0  0  0  0
 22 24  1  0  0  0  0
 22 19  1  0  0  0  0
 23 22  1  0  0  0  0
 25 26  1  0  0  0  0
 26 27  1  0  0  0  0
 27 28  2  0  0  0  0
 27 22  1  0  0  0  0
 28 33  1  0  0  0  0
 29 34  1  0  0  0  0
 29 28  1  0  0  0  0
 30 29  2  0  0  0  0
 31 30  1  0  0  0  0
 32 30  1  0  0  0  0
 32 26  2  0  0  0  0
 35 32  1  0  0  0  0
M  END
>  <minimizedAffinity>
-6.6139617

>  <minimizedRMSD>
0.158277184

$$$$
