
 OpenBabel03242514593D

 35 37  0  0  0  0  0  0  0  0999 V2000
   43.8700   34.7030   40.7660 S   0  0  0  0  0  0  0  0  0  0  0  0
   45.1350   34.4660   42.0130 C   0  0  0  0  0  0  0  0  0  0  0  0
   46.4640   34.4970   41.5670 C   0  0  0  0  0  0  0  0  0  0  0  0
   47.4850   34.3170   42.5050 C   0  0  0  0  0  0  0  0  0  0  0  0
   47.1340   34.1230   43.7950 N   0  0  0  0  0  0  0  0  0  0  0  0
   45.8680   34.0950   44.2130 C   0  0  0  0  0  0  0  0  0  0  0  0
   44.8790   34.2670   43.3180 N   0  0  0  0  0  0  0  0  0  0  0  0
   46.7710   34.6520   40.5400 H   0  0  0  0  0  0  0  0  0  0  0  0
   48.5240   34.3370   42.1860 H   0  0  0  0  0  0  0  0  0  0  0  0
   45.5840   33.8800   45.6170 C   0  0  0  0  0  0  0  0  0  0  0  0
   44.7740   34.6500   46.1800 O   0  0  0  0  0  0  0  0  0  0  0  0
   46.2790   32.7730   46.2580 C   0  0  0  0  0  0  0  0  0  0  0  0
   45.8330   31.5640   45.4530 C   0  0  0  0  0  0  0  0  0  0  0  0
   45.2670   31.0970   44.6480 H   0  0  0  0  0  0  0  0  0  0  0  0
   46.7990   30.2320   46.3870 S   0  0  0  0  0  0  0  0  0  0  0  0
   47.5580   31.4870   47.5940 C   0  0  0  0  0  0  0  0  0  0  0  0
   48.2630   31.8070   48.5420 H   0  0  0  0  0  0  0  0  0  0  0  0
   47.0930   32.6950   47.2610 N   0  0  0  0  0  0  0  0  0  0  0  0
   42.2310   34.8270   41.4700 C   0  0  0  0  0  0  0  0  0  0  0  0
   42.2940   34.9890   42.5730 H   0  0  0  0  0  0  0  0  0  0  0  0
   41.7410   33.8270   41.3610 H   0  0  0  0  0  0  0  0  0  0  0  0
   41.3550   35.8220   40.7880 C   0  0  0  0  0  0  0  0  0  0  0  0
   41.9040   36.6460   40.2820 H   0  0  0  0  0  0  0  0  0  0  0  0
   40.7220   36.3090   41.5800 H   0  0  0  0  0  0  0  0  0  0  0  0
   42.0570   36.0800   37.8470 Cl  0  0  0  0  0  0  0  0  0  0  0  0
   40.6660   35.2330   38.4550 C   0  0  0  0  0  0  0  0  0  0  0  0
   40.4350   35.1750   39.8360 C   0  0  0  0  0  0  0  0  0  0  0  0
   39.3160   34.4880   40.2250 C   0  0  0  0  0  0  0  0  0  0  0  0
   38.3980   33.8510   39.4080 C   0  0  0  0  0  0  0  0  0  0  0  0
   38.6480   33.9230   38.0440 C   0  0  0  0  0  0  0  0  0  0  0  0
   37.5460   33.1480   36.9180 Cl  0  0  0  0  0  0  0  0  0  0  0  0
   39.7650   34.6050   37.5930 C   0  0  0  0  0  0  0  0  0  0  0  0
   39.1010   34.4190   41.2960 H   0  0  0  0  0  0  0  0  0  0  0  0
   37.5430   33.3330   39.8190 H   0  0  0  0  0  0  0  0  0  0  0  0
   39.9320   34.6420   36.5180 H   0  0  0  0  0  0  0  0  0  0  0  0
  1 19  1  0  0  0  0
  1  2  1  0  0  0  0
  2  7  1  0  0  0  0
  3  2  2  0  0  0  0
  3  4  1  0  0  0  0
  4  5  2  0  0  0  0
  5  6  1  0  0  0  0
  6 10  1  0  0  0  0
  7  6  2  0  0  0  0
  8  3  1  0  0  0  0
  9  4  1  0  0  0  0
 10 11  2  0  0  0  0
 10 12  1  0  0  0  0
 12 18  1  0  0  0  0
 13 12  2  0  0  0  0
 13 15  1  0  0  0  0
 14 13  1  0  0  0  0
 15 16  1  0  0  0  0
 16 17  1  0  0  0  0
 18 16  2  0  0  0  0
 19 20  1  0  0  0  0
 21 19  1  0  0  0  0
 22 19  1  0  0  0  0
 22 24  1  0  0  0  0
 23 22  1  0  0  0  0
 25 26  1  0  0  0  0
 26 27  1  0  0  0  0
 27 28  2  0  0  0  0
 27 22  1  0  0  0  0
 28 33  1  0  0  0  0
 29 34  1  0  0  0  0
 29 28  1  0  0  0  0
 30 29  2  0  0  0  0
 31 30  1  0  0  0  0
 32 30  1  0  0  0  0
 32 26  2  0  0  0  0
 35 32  1  0  0  0  0
M  END
>  <minimizedAffinity>
-6.37873507

>  <minimizedRMSD>
0.39950943

$$$$
