
 OpenBabel03252509193D

 41 44  0  0  1  0  0  0  0  0999 V2000
   47.6960   29.5420   48.4590 C   0  0  1  0  0  0  0  0  0  0  0  0
   46.8890   30.2180   47.3910 C   0  0  0  0  0  0  0  0  0  0  0  0
   46.9990   29.5820   46.0290 C   0  0  0  0  0  0  0  0  0  0  0  0
   46.9240   28.0860   46.0610 C   0  0  0  0  0  0  0  0  0  0  0  0
   47.7210   27.4830   47.1910 C   0  0  0  0  0  0  0  0  0  0  0  0
   48.6500   28.5500   47.7850 C   0  0  2  0  0  0  0  0  0  0  0  0
   47.0400   28.9130   49.0980 H   0  0  0  0  0  0  0  0  0  0  0  0
   45.8210   30.1730   47.6900 H   0  0  0  0  0  0  0  0  0  0  0  0
   47.1160   31.2980   47.2710 H   0  0  0  0  0  0  0  0  0  0  0  0
   46.1460   29.9460   45.4440 H   0  0  0  0  0  0  0  0  0  0  0  0
   47.9470   29.9480   45.5710 H   0  0  0  0  0  0  0  0  0  0  0  0
   47.3000   27.7400   45.0590 H   0  0  0  0  0  0  0  0  0  0  0  0
   45.8550   27.8110   46.1460 H   0  0  0  0  0  0  0  0  0  0  0  0
   47.1070   27.0990   48.0120 H   0  0  0  0  0  0  0  0  0  0  0  0
   48.4040   26.7110   46.7630 H   0  0  0  0  0  0  0  0  0  0  0  0
   49.1890   29.0750   46.9490 H   0  0  0  0  0  0  0  0  0  0  0  0
   49.9070   32.4650   50.2700 C   0  0  0  0  0  0  0  0  0  0  0  0
   49.2180   31.6810   51.1900 C   0  0  0  0  0  0  0  0  0  0  0  0
   48.4570   30.6820   50.6910 C   0  0  0  0  0  0  0  0  0  0  0  0
   48.3760   30.4610   49.3060 C   0  0  0  0  0  0  0  0  0  0  0  0
   49.4540   31.7580   48.6270 S   0  0  0  0  0  0  0  0  0  0  0  0
   49.2870   31.8600   52.2520 H   0  0  0  0  0  0  0  0  0  0  0  0
   47.8620   29.9840   51.2590 H   0  0  0  0  0  0  0  0  0  0  0  0
   52.0230   34.9880   52.0230 C   0  0  0  0  0  0  0  0  0  0  0  0
   52.5070   35.7010   50.9280 C   0  0  0  0  0  0  0  0  0  0  0  0
   52.1050   35.3150   49.6460 C   0  0  0  0  0  0  0  0  0  0  0  0
   51.2500   34.2470   49.5450 N   0  0  0  0  0  0  0  0  0  0  0  0
   50.8040   33.5830   50.6210 C   0  0  0  0  0  0  0  0  0  0  0  0
   51.1970   33.9620   51.8680 N   0  0  0  0  0  0  0  0  0  0  0  0
   52.3210   35.2700   53.0220 H   0  0  0  0  0  0  0  0  0  0  0  0
   53.1770   36.5360   51.0200 H   0  0  0  0  0  0  0  0  0  0  0  0
   52.4230   35.8010   48.7310 H   0  0  0  0  0  0  0  0  0  0  0  0
   49.5700   27.9460   48.7430 C   0  0  0  0  0  0  0  0  0  0  0  0
   49.3710   26.7910   49.1800 O   0  0  0  0  0  0  0  0  0  0  0  0
   50.7900   28.4070   49.3660 C   0  0  0  0  0  0  0  0  0  0  0  0
   51.6520   27.1610   49.7530 C   0  0  0  0  0  0  0  0  0  0  0  0
   51.7190   26.0030   49.7630 H   0  0  0  0  0  0  0  0  0  0  0  0
   53.1070   27.8660   50.4660 S   0  0  0  0  0  0  0  0  0  0  0  0
   52.5260   29.6380   50.2260 C   0  0  0  0  0  0  0  0  0  0  0  0
   52.9140   30.6660   50.4340 H   0  0  0  0  0  0  0  0  0  0  0  0
   51.5910   29.3130   49.7700 N   0  0  0  0  0  0  0  0  0  0  0  0
  1  7  1  1  0  0  0
  1 20  1  0  0  0  0
  2  8  1  0  0  0  0
  2  1  1  0  0  0  0
  3  4  1  0  0  0  0
  3  2  1  0  0  0  0
  4 13  1  0  0  0  0
  4  5  1  0  0  0  0
  5  6  1  0  0  0  0
  5 14  1  0  0  0  0
  6 16  1  6  0  0  0
  6  1  1  0  0  0  0
  6 33  1  0  0  0  0
  9  2  1  0  0  0  0
 10  3  1  0  0  0  0
 11  3  1  0  0  0  0
 12  4  1  0  0  0  0
 15  5  1  0  0  0  0
 17 28  1  0  0  0  0
 17 18  2  0  0  0  0
 18 22  1  0  0  0  0
 19 18  1  0  0  0  0
 19 23  1  0  0  0  0
 20 19  2  0  0  0  0
 21 20  1  0  0  0  0
 21 17  1  0  0  0  0
 24 30  1  0  0  0  0
 25 31  1  0  0  0  0
 25 24  2  0  0  0  0
 26 25  1  0  0  0  0
 27 26  2  0  0  0  0
 27 28  1  0  0  0  0
 28 29  2  0  0  0  0
 29 24  1  0  0  0  0
 32 26  1  0  0  0  0
 33 34  2  0  0  0  0
 33 35  1  0  0  0  0
 35 36  2  0  0  0  0
 35 41  1  0  0  0  0
 36 37  1  0  0  0  0
 36 38  1  0  0  0  0
 39 40  1  0  0  0  0
 39 38  1  0  0  0  0
 41 39  2  0  0  0  0
M  END
>  <minimizedAffinity>
5.49740553

>  <minimizedRMSD>
6.14548063

$$$$
