
 OpenBabel03242520193D

 33 35  0  0  0  0  0  0  0  0999 V2000
   40.9570   35.7190   39.1940 C   0  0  0  0  0  0  0  0  0  0  0  0
   40.6740   35.3670   38.1980 H   0  0  0  0  0  0  0  0  0  0  0  0
   41.1980   36.7980   39.0950 H   0  0  0  0  0  0  0  0  0  0  0  0
   43.9070   34.5800   41.2700 C   0  0  0  0  0  0  0  0  0  0  0  0
   42.7350   35.2630   40.8810 C   0  0  0  0  0  0  0  0  0  0  0  0
   42.1970   35.0240   39.6280 C   0  0  0  0  0  0  0  0  0  0  0  0
   42.8580   34.1160   38.8320 N   0  0  0  0  0  0  0  0  0  0  0  0
   43.9810   33.4870   39.2520 C   0  0  0  0  0  0  0  0  0  0  0  0
   44.5000   33.7130   40.4530 N   0  0  0  0  0  0  0  0  0  0  0  0
   42.2830   35.9650   41.5840 H   0  0  0  0  0  0  0  0  0  0  0  0
   44.4210   32.7880   38.5360 H   0  0  0  0  0  0  0  0  0  0  0  0
   44.4800   34.8540   42.6130 C   0  0  0  0  0  0  0  0  0  0  0  0
   46.0010   35.2360   42.5330 C   0  0  0  0  0  0  0  0  0  0  0  0
   44.9480   36.1190   43.0480 C   0  0  0  0  0  0  0  0  0  0  0  0
   44.3080   33.9870   43.3060 H   0  0  0  0  0  0  0  0  0  0  0  0
   46.6640   34.6700   43.2130 H   0  0  0  0  0  0  0  0  0  0  0  0
   46.4360   35.3420   41.5260 H   0  0  0  0  0  0  0  0  0  0  0  0
   44.7210   37.0280   42.4310 H   0  0  0  0  0  0  0  0  0  0  0  0
   44.9280   36.3870   44.1320 H   0  0  0  0  0  0  0  0  0  0  0  0
   39.8680   35.5560   40.2340 C   0  0  0  0  0  0  0  0  0  0  0  0
   39.2200   36.4790   40.2070 H   0  0  0  0  0  0  0  0  0  0  0  0
   40.3440   35.5550   41.2170 H   0  0  0  0  0  0  0  0  0  0  0  0
   39.1980   33.2970   40.9350 C   0  0  0  0  0  0  0  0  0  0  0  0
   39.8300   33.3830   42.0290 O   0  0  0  0  0  0  0  0  0  0  0  0
   39.0660   34.3620   40.0120 N   0  0  0  0  0  0  0  0  0  0  0  0
   38.4440   34.3450   39.1970 H   0  0  0  0  0  0  0  0  0  0  0  0
   38.5670   31.9930   40.6240 C   0  0  0  0  0  0  0  0  0  0  0  0
   38.8240   31.5380   39.3850 C   0  0  0  0  0  0  0  0  0  0  0  0
   39.3400   31.7360   38.4360 H   0  0  0  0  0  0  0  0  0  0  0  0
   37.8800   29.8900   39.3340 S   0  0  0  0  0  0  0  0  0  0  0  0
   37.3090   30.2010   41.1190 C   0  0  0  0  0  0  0  0  0  0  0  0
   36.6530   29.7400   42.0310 H   0  0  0  0  0  0  0  0  0  0  0  0
   37.7990   31.1810   41.3190 N   0  0  0  0  0  0  0  0  0  0  0  0
  1  6  1  0  0  0  0
  1 20  1  0  0  0  0
  2  1  1  0  0  0  0
  3  1  1  0  0  0  0
  4 12  1  0  0  0  0
  5  4  1  0  0  0  0
  5 10  1  0  0  0  0
  6  5  2  0  0  0  0
  7  8  2  0  0  0  0
  7  6  1  0  0  0  0
  8  9  1  0  0  0  0
  9  4  2  0  0  0  0
 11  8  1  0  0  0  0
 12 14  1  0  0  0  0
 12 15  1  0  0  0  0
 13 12  1  0  0  0  0
 13 14  1  0  0  0  0
 13 16  1  0  0  0  0
 14 19  1  0  0  0  0
 17 13  1  0  0  0  0
 18 14  1  0  0  0  0
 20 22  1  0  0  0  0
 21 20  1  0  0  0  0
 23 24  2  0  0  0  0
 25 20  1  0  0  0  0
 25 23  1  0  0  0  0
 26 25  1  0  0  0  0
 27 23  1  0  0  0  0
 27 33  1  0  0  0  0
 28 27  2  0  0  0  0
 29 28  1  0  0  0  0
 30 28  1  0  0  0  0
 30 31  1  0  0  0  0
 31 33  2  0  0  0  0
 31 32  1  0  0  0  0
M  END
>  <minimizedAffinity>
-4.87291384

>  <minimizedRMSD>
0.410044193

$$$$
