REMARK  Name = 
REMARK  1 active torsions:
REMARK  status: ('A' for Active; 'I' for Inactive)
REMARK    1  A    between atoms: C_7  and  C_14
REMARK                            x       y       z     vdW  Elec       q    Type
REMARK                         _______ _______ _______ _____ _____    ______ ____
ROOT
ATOM      1  C   UNL     1      44.664  36.070  44.293  0.00  0.00    +0.000 A 
ATOM      2  C   UNL     1      45.483  35.571  43.243  0.00  0.00    +0.000 A 
ATOM      3  C   UNL     1      46.181  34.389  43.461  0.00  0.00    +0.000 A 
ATOM      4  N   UNL     1      46.043  33.777  44.666  0.00  0.00    +0.000 NA
ATOM      5  C   UNL     1      45.266  34.271  45.633  0.00  0.00    +0.000 A 
ATOM      6  N   UNL     1      44.567  35.418  45.466  0.00  0.00    +0.000 NA
ATOM      7  C   UNL     1      46.162  32.587  47.127  0.00  0.00    +0.000 C 
ATOM      8  O   UNL     1      47.093  32.289  46.361  0.00  0.00    +0.000 OA
ATOM      9  N   UNL     1      45.166  33.569  46.886  0.00  0.00    +0.000 N 
ATOM     10  H   UNL     1      44.119  36.996  44.117  0.00  0.00    +0.000 HD
ATOM     11  H   UNL     1      45.587  36.057  42.299  0.00  0.00    +0.000 HD
ATOM     12  H   UNL     1      46.833  33.915  42.740  0.00  0.00    +0.000 HD
ATOM     13  H   UNL     1      44.403  33.791  47.548  0.00  0.00    +0.000 HD
ENDROOT
BRANCH   7  14
ATOM     14  C   UNL     1      46.027  31.897  48.408  0.00  0.00    +0.000 A 
ATOM     15  C   UNL     1      45.851  30.461  48.203  0.00  0.00    +0.000 A 
ATOM     16  H   UNL     1      45.778  29.693  47.487  0.00  0.00    +0.000 HD
ATOM     17  S   UNL     1      45.702  29.802  49.976  0.00  0.00    +0.000 S 
ATOM     18  C   UNL     1      45.906  31.580  50.622  0.00  0.00    +0.000 A 
ATOM     19  H   UNL     1      45.970  32.362  51.614  0.00  0.00    +0.000 HD
ATOM     20  N   UNL     1      46.020  32.203  49.688  0.00  0.00    +0.000 NA
ENDBRANCH   7  14
TORSDOF 1
