
 OpenBabel03242520193D

 33 35  0  0  0  0  0  0  0  0999 V2000
   40.9750   35.8000   39.3270 C   0  0  0  0  0  0  0  0  0  0  0  0
   40.7620   35.5270   38.2900 H   0  0  0  0  0  0  0  0  0  0  0  0
   41.1860   36.8900   39.3340 H   0  0  0  0  0  0  0  0  0  0  0  0
   43.9220   34.6920   41.4250 C   0  0  0  0  0  0  0  0  0  0  0  0
   42.7560   35.3760   41.0210 C   0  0  0  0  0  0  0  0  0  0  0  0
   42.2100   35.1060   39.7770 C   0  0  0  0  0  0  0  0  0  0  0  0
   42.8580   34.1690   39.0050 N   0  0  0  0  0  0  0  0  0  0  0  0
   43.9780   33.5410   39.4380 C   0  0  0  0  0  0  0  0  0  0  0  0
   44.5030   33.7970   40.6300 N   0  0  0  0  0  0  0  0  0  0  0  0
   42.3130   36.1010   41.7040 H   0  0  0  0  0  0  0  0  0  0  0  0
   44.4080   32.8180   38.7410 H   0  0  0  0  0  0  0  0  0  0  0  0
   44.5040   34.9990   42.7570 C   0  0  0  0  0  0  0  0  0  0  0  0
   46.0390   35.3140   42.6670 C   0  0  0  0  0  0  0  0  0  0  0  0
   45.0230   36.2600   43.1400 C   0  0  0  0  0  0  0  0  0  0  0  0
   44.2930   34.1700   43.4850 H   0  0  0  0  0  0  0  0  0  0  0  0
   46.6770   34.7510   43.3720 H   0  0  0  0  0  0  0  0  0  0  0  0
   46.4800   35.3600   41.6580 H   0  0  0  0  0  0  0  0  0  0  0  0
   44.8340   37.1510   42.4840 H   0  0  0  0  0  0  0  0  0  0  0  0
   45.0110   36.5750   44.2110 H   0  0  0  0  0  0  0  0  0  0  0  0
   39.8330   35.5190   40.2820 C   0  0  0  0  0  0  0  0  0  0  0  0
   39.0710   36.3410   40.1650 H   0  0  0  0  0  0  0  0  0  0  0  0
   40.2190   35.6130   41.2990 H   0  0  0  0  0  0  0  0  0  0  0  0
   39.3830   33.2230   41.0390 C   0  0  0  0  0  0  0  0  0  0  0  0
   39.8670   33.4420   42.1880 O   0  0  0  0  0  0  0  0  0  0  0  0
   39.2230   34.2190   40.0440 N   0  0  0  0  0  0  0  0  0  0  0  0
   38.7070   34.0820   39.1690 H   0  0  0  0  0  0  0  0  0  0  0  0
   38.9650   31.8330   40.7380 C   0  0  0  0  0  0  0  0  0  0  0  0
   39.3770   30.9270   41.6440 C   0  0  0  0  0  0  0  0  0  0  0  0
   39.9310   30.7660   42.5770 H   0  0  0  0  0  0  0  0  0  0  0  0
   38.6800   29.2980   40.9580 S   0  0  0  0  0  0  0  0  0  0  0  0
   37.9350   30.2680   39.5040 C   0  0  0  0  0  0  0  0  0  0  0  0
   37.2830   30.1560   38.4860 H   0  0  0  0  0  0  0  0  0  0  0  0
   38.2660   31.2990   39.7610 N   0  0  0  0  0  0  0  0  0  0  0  0
  1  3  1  0  0  0  0
  1  6  1  0  0  0  0
  1 20  1  0  0  0  0
  2  1  1  0  0  0  0
  4 12  1  0  0  0  0
  5  4  1  0  0  0  0
  5 10  1  0  0  0  0
  6  5  2  0  0  0  0
  7  8  2  0  0  0  0
  7  6  1  0  0  0  0
  8  9  1  0  0  0  0
  9  4  2  0  0  0  0
 11  8  1  0  0  0  0
 12 14  1  0  0  0  0
 12 15  1  0  0  0  0
 13 12  1  0  0  0  0
 13 14  1  0  0  0  0
 13 16  1  0  0  0  0
 14 19  1  0  0  0  0
 17 13  1  0  0  0  0
 18 14  1  0  0  0  0
 20 22  1  0  0  0  0
 21 20  1  0  0  0  0
 23 24  2  0  0  0  0
 25 20  1  0  0  0  0
 25 23  1  0  0  0  0
 26 25  1  0  0  0  0
 27 23  1  0  0  0  0
 27 28  2  0  0  0  0
 28 29  1  0  0  0  0
 30 28  1  0  0  0  0
 31 33  2  0  0  0  0
 31 30  1  0  0  0  0
 32 31  1  0  0  0  0
 33 27  1  0  0  0  0
M  END
>  <minimizedAffinity>
-4.59048605

>  <minimizedRMSD>
0.705214977

$$$$
