
 OpenBabel03242510523D

 20 21  0  0  0  0  0  0  0  0999 V2000
   37.2500   33.2110   39.3850 C   0  0  0  0  0  0  0  0  0  0  0  0
   38.1320   34.1560   39.9780 C   0  0  0  0  0  0  0  0  0  0  0  0
   39.0400   33.7000   40.9260 C   0  0  0  0  0  0  0  0  0  0  0  0
   39.0330   32.3770   41.2350 N   0  0  0  0  0  0  0  0  0  0  0  0
   38.1920   31.5140   40.6600 C   0  0  0  0  0  0  0  0  0  0  0  0
   37.2910   31.9110   39.7310 N   0  0  0  0  0  0  0  0  0  0  0  0
   38.9460   29.8300   42.2310 C   0  0  0  0  0  0  0  0  0  0  0  0
   39.5120   30.6550   42.9650 O   0  0  0  0  0  0  0  0  0  0  0  0
   38.2410   30.1240   41.0340 N   0  0  0  0  0  0  0  0  0  0  0  0
   36.5400   33.5730   38.6430 H   0  0  0  0  0  0  0  0  0  0  0  0
   38.1310   35.1940   39.7320 H   0  0  0  0  0  0  0  0  0  0  0  0
   39.7570   34.3220   41.4440 H   0  0  0  0  0  0  0  0  0  0  0  0
   37.7800   29.4100   40.4450 H   0  0  0  0  0  0  0  0  0  0  0  0
   38.9730   28.4100   42.5770 C   0  0  0  0  0  0  0  0  0  0  0  0
   37.9890   27.6700   41.7910 C   0  0  0  0  0  0  0  0  0  0  0  0
   37.2430   27.7410   41.0520 H   0  0  0  0  0  0  0  0  0  0  0  0
   38.2140   25.8900   42.4100 S   0  0  0  0  0  0  0  0  0  0  0  0
   39.5750   26.5060   43.5890 C   0  0  0  0  0  0  0  0  0  0  0  0
   40.4300   26.2300   44.4800 H   0  0  0  0  0  0  0  0  0  0  0  0
   39.6310   27.6150   43.3940 N   0  0  0  0  0  0  0  0  0  0  0  0
  1  6  2  0  0  0  0
  1  2  1  0  0  0  0
  2  3  2  0  0  0  0
  3  4  1  0  0  0  0
  3 12  1  0  0  0  0
  5  9  1  0  0  0  0
  5  4  2  0  0  0  0
  6  5  1  0  0  0  0
  7 14  1  0  0  0  0
  7  8  2  0  0  0  0
  9  7  1  0  0  0  0
 10  1  1  0  0  0  0
 11  2  1  0  0  0  0
 13  9  1  0  0  0  0
 14 20  1  0  0  0  0
 15 17  1  0  0  0  0
 15 14  2  0  0  0  0
 16 15  1  0  0  0  0
 17 18  1  0  0  0  0
 18 19  1  0  0  0  0
 20 18  2  0  0  0  0
M  END
>  <minimizedAffinity>
-3.97747445

$$$$

 OpenBabel03242510523D

 20 21  0  0  0  0  0  0  0  0999 V2000
   36.9450   27.1560   41.5150 C   0  0  0  0  0  0  0  0  0  0  0  0
   36.9420   27.0780   42.9350 C   0  0  0  0  0  0  0  0  0  0  0  0
   37.5200   28.1200   43.6500 C   0  0  0  0  0  0  0  0  0  0  0  0
   38.0580   29.1540   42.9520 N   0  0  0  0  0  0  0  0  0  0  0  0
   38.0460   29.1980   41.6180 C   0  0  0  0  0  0  0  0  0  0  0  0
   37.4930   28.2080   40.8790 N   0  0  0  0  0  0  0  0  0  0  0  0
   39.4850   31.1440   41.7320 C   0  0  0  0  0  0  0  0  0  0  0  0
   39.7570   30.9710   42.9310 O   0  0  0  0  0  0  0  0  0  0  0  0
   38.6340   30.3260   40.9440 N   0  0  0  0  0  0  0  0  0  0  0  0
   36.4900   26.3370   40.9590 H   0  0  0  0  0  0  0  0  0  0  0  0
   36.5180   26.2620   43.4760 H   0  0  0  0  0  0  0  0  0  0  0  0
   37.5780   28.1710   44.7290 H   0  0  0  0  0  0  0  0  0  0  0  0
   38.4290   30.5010   39.9450 H   0  0  0  0  0  0  0  0  0  0  0  0
   40.0620   32.2780   41.0130 C   0  0  0  0  0  0  0  0  0  0  0  0
   41.5210   32.2290   41.0630 C   0  0  0  0  0  0  0  0  0  0  0  0
   42.3560   31.6960   41.4170 H   0  0  0  0  0  0  0  0  0  0  0  0
   42.0240   33.7730   40.0800 S   0  0  0  0  0  0  0  0  0  0  0  0
   40.1810   34.1610   39.8070 C   0  0  0  0  0  0  0  0  0  0  0  0
   39.3070   34.9270   39.3050 H   0  0  0  0  0  0  0  0  0  0  0  0
   39.6400   33.3250   40.3360 N   0  0  0  0  0  0  0  0  0  0  0  0
  1  2  1  0  0  0  0
  2 11  1  0  0  0  0
  2  3  2  0  0  0  0
  3 12  1  0  0  0  0
  4  3  1  0  0  0  0
  5  4  2  0  0  0  0
  6  1  2  0  0  0  0
  6  5  1  0  0  0  0
  7  8  2  0  0  0  0
  9  5  1  0  0  0  0
  9  7  1  0  0  0  0
 10  1  1  0  0  0  0
 13  9  1  0  0  0  0
 14 15  2  0  0  0  0
 14  7  1  0  0  0  0
 15 16  1  0  0  0  0
 17 15  1  0  0  0  0
 18 17  1  0  0  0  0
 18 20  2  0  0  0  0
 19 18  1  0  0  0  0
 20 14  1  0  0  0  0
M  END
>  <minimizedAffinity>
-3.95587349

$$$$

 OpenBabel03242510523D

 20 21  0  0  0  0  0  0  0  0999 V2000
   36.9610   25.6480   40.4180 C   0  0  0  0  0  0  0  0  0  0  0  0
   37.0720   25.3800   41.8100 C   0  0  0  0  0  0  0  0  0  0  0  0
   37.2630   26.4540   42.6710 C   0  0  0  0  0  0  0  0  0  0  0  0
   37.3340   27.7000   42.1350 N   0  0  0  0  0  0  0  0  0  0  0  0
   37.2260   27.9200   40.8230 C   0  0  0  0  0  0  0  0  0  0  0  0
   37.0390   26.9060   39.9460 N   0  0  0  0  0  0  0  0  0  0  0  0
   37.8410   30.2290   41.2220 C   0  0  0  0  0  0  0  0  0  0  0  0
   38.2290   30.0080   42.3810 O   0  0  0  0  0  0  0  0  0  0  0  0
   37.3100   29.2680   40.3230 N   0  0  0  0  0  0  0  0  0  0  0  0
   36.8110   24.8040   39.7470 H   0  0  0  0  0  0  0  0  0  0  0  0
   37.0160   24.3990   42.2240 H   0  0  0  0  0  0  0  0  0  0  0  0
   37.3620   26.3740   43.7450 H   0  0  0  0  0  0  0  0  0  0  0  0
   36.9950   29.4880   39.3630 H   0  0  0  0  0  0  0  0  0  0  0  0
   37.9100   31.5840   40.6800 C   0  0  0  0  0  0  0  0  0  0  0  0
   39.1460   32.2430   41.0980 C   0  0  0  0  0  0  0  0  0  0  0  0
   40.0360   32.1390   41.6470 H   0  0  0  0  0  0  0  0  0  0  0  0
   39.0030   33.9510   40.2830 S   0  0  0  0  0  0  0  0  0  0  0  0
   37.3240   33.4300   39.5550 C   0  0  0  0  0  0  0  0  0  0  0  0
   36.3170   33.7350   38.8520 H   0  0  0  0  0  0  0  0  0  0  0  0
   37.1770   32.3740   39.9240 N   0  0  0  0  0  0  0  0  0  0  0  0
  1  2  1  0  0  0  0
  2 11  1  0  0  0  0
  2  3  2  0  0  0  0
  3 12  1  0  0  0  0
  4  3  1  0  0  0  0
  5  4  2  0  0  0  0
  6  1  2  0  0  0  0
  6  5  1  0  0  0  0
  7  8  2  0  0  0  0
  9  5  1  0  0  0  0
  9  7  1  0  0  0  0
 10  1  1  0  0  0  0
 13  9  1  0  0  0  0
 14 15  2  0  0  0  0
 14  7  1  0  0  0  0
 15 16  1  0  0  0  0
 17 15  1  0  0  0  0
 18 20  2  0  0  0  0
 18 17  1  0  0  0  0
 19 18  1  0  0  0  0
 20 14  1  0  0  0  0
M  END
>  <minimizedAffinity>
-3.94549441

$$$$

 OpenBabel03242510523D

 20 21  0  0  0  0  0  0  0  0999 V2000
   37.8350   27.6270   43.6660 C   0  0  0  0  0  0  0  0  0  0  0  0
   36.6000   27.4510   42.9830 C   0  0  0  0  0  0  0  0  0  0  0  0
   36.3230   28.2810   41.9040 C   0  0  0  0  0  0  0  0  0  0  0  0
   37.2460   29.2170   41.5620 N   0  0  0  0  0  0  0  0  0  0  0  0
   38.3980   29.3580   42.2230 C   0  0  0  0  0  0  0  0  0  0  0  0
   38.7120   28.5720   43.2800 N   0  0  0  0  0  0  0  0  0  0  0  0
   38.8170   31.3690   40.9380 C   0  0  0  0  0  0  0  0  0  0  0  0
   37.6500   31.4380   40.5170 O   0  0  0  0  0  0  0  0  0  0  0  0
   39.3320   30.3710   41.8060 N   0  0  0  0  0  0  0  0  0  0  0  0
   38.0480   26.9740   44.5100 H   0  0  0  0  0  0  0  0  0  0  0  0
   35.8790   26.7140   43.2580 H   0  0  0  0  0  0  0  0  0  0  0  0
   35.4190   28.2420   41.3110 H   0  0  0  0  0  0  0  0  0  0  0  0
   40.3120   30.3440   42.1360 H   0  0  0  0  0  0  0  0  0  0  0  0
   39.7940   32.3780   40.5360 C   0  0  0  0  0  0  0  0  0  0  0  0
   41.0730   32.1500   41.2050 C   0  0  0  0  0  0  0  0  0  0  0  0
   41.5980   31.5370   41.8790 H   0  0  0  0  0  0  0  0  0  0  0  0
   42.1510   33.5600   40.5340 S   0  0  0  0  0  0  0  0  0  0  0  0
   40.6700   34.1600   39.5010 C   0  0  0  0  0  0  0  0  0  0  0  0
   40.2050   34.9990   38.6750 H   0  0  0  0  0  0  0  0  0  0  0  0
   39.8460   33.4300   39.7460 N   0  0  0  0  0  0  0  0  0  0  0  0
  1 10  1  0  0  0  0
  2 11  1  0  0  0  0
  2  1  2  0  0  0  0
  3  2  1  0  0  0  0
  4  3  2  0  0  0  0
  4  5  1  0  0  0  0
  5  6  2  0  0  0  0
  6  1  1  0  0  0  0
  7  9  1  0  0  0  0
  8  7  2  0  0  0  0
  9 13  1  0  0  0  0
  9  5  1  0  0  0  0
 12  3  1  0  0  0  0
 14  7  1  0  0  0  0
 14 15  2  0  0  0  0
 15 16  1  0  0  0  0
 17 15  1  0  0  0  0
 18 20  2  0  0  0  0
 18 17  1  0  0  0  0
 19 18  1  0  0  0  0
 20 14  1  0  0  0  0
M  END
>  <minimizedAffinity>
-3.93912387

$$$$

 OpenBabel03242510523D

 20 21  0  0  0  0  0  0  0  0999 V2000
   39.3310   24.6510   42.1450 C   0  0  0  0  0  0  0  0  0  0  0  0
   38.0300   24.0830   42.2250 C   0  0  0  0  0  0  0  0  0  0  0  0
   36.9390   24.9070   41.9730 C   0  0  0  0  0  0  0  0  0  0  0  0
   37.1760   26.2080   41.6660 N   0  0  0  0  0  0  0  0  0  0  0  0
   38.4110   26.7120   41.5980 C   0  0  0  0  0  0  0  0  0  0  0  0
   39.5030   25.9490   41.8350 N   0  0  0  0  0  0  0  0  0  0  0  0
   37.4310   28.9160   41.3680 C   0  0  0  0  0  0  0  0  0  0  0  0
   36.3000   28.5370   41.7120 O   0  0  0  0  0  0  0  0  0  0  0  0
   38.5890   28.1020   41.2660 N   0  0  0  0  0  0  0  0  0  0  0  0
   40.1830   24.0020   42.3420 H   0  0  0  0  0  0  0  0  0  0  0  0
   37.8500   23.0600   42.4670 H   0  0  0  0  0  0  0  0  0  0  0  0
   35.9050   24.5890   42.0050 H   0  0  0  0  0  0  0  0  0  0  0  0
   39.5180   28.4530   40.9750 H   0  0  0  0  0  0  0  0  0  0  0  0
   37.6520   30.3190   41.0230 C   0  0  0  0  0  0  0  0  0  0  0  0
   38.9970   30.7380   41.4120 C   0  0  0  0  0  0  0  0  0  0  0  0
   39.9020   30.4360   41.8540 H   0  0  0  0  0  0  0  0  0  0  0  0
   39.0390   32.5580   40.8710 S   0  0  0  0  0  0  0  0  0  0  0  0
   37.2530   32.3780   40.2380 C   0  0  0  0  0  0  0  0  0  0  0  0
   36.2490   32.9170   39.6870 H   0  0  0  0  0  0  0  0  0  0  0  0
   36.9850   31.3060   40.4630 N   0  0  0  0  0  0  0  0  0  0  0  0
  1  2  1  0  0  0  0
  1 10  1  0  0  0  0
  2 11  1  0  0  0  0
  3 12  1  0  0  0  0
  3  2  2  0  0  0  0
  4  3  1  0  0  0  0
  5  4  2  0  0  0  0
  5  6  1  0  0  0  0
  6  1  2  0  0  0  0
  7  8  2  0  0  0  0
  9  7  1  0  0  0  0
  9  5  1  0  0  0  0
 13  9  1  0  0  0  0
 14  7  1  0  0  0  0
 14 15  2  0  0  0  0
 15 16  1  0  0  0  0
 17 15  1  0  0  0  0
 18 20  2  0  0  0  0
 18 17  1  0  0  0  0
 19 18  1  0  0  0  0
 20 14  1  0  0  0  0
M  END
>  <minimizedAffinity>
-3.74483347

$$$$

 OpenBabel03242510523D

 20 21  0  0  0  0  0  0  0  0999 V2000
   36.9580   25.0710   40.2790 C   0  0  0  0  0  0  0  0  0  0  0  0
   36.9260   24.7250   41.6580 C   0  0  0  0  0  0  0  0  0  0  0  0
   37.0520   25.7450   42.5940 C   0  0  0  0  0  0  0  0  0  0  0  0
   37.2000   27.0170   42.1380 N   0  0  0  0  0  0  0  0  0  0  0  0
   37.2260   27.3100   40.8360 C   0  0  0  0  0  0  0  0  0  0  0  0
   37.1070   26.3500   39.8890 N   0  0  0  0  0  0  0  0  0  0  0  0
   37.8430   29.5790   41.4240 C   0  0  0  0  0  0  0  0  0  0  0  0
   38.1110   29.2850   42.6010 O   0  0  0  0  0  0  0  0  0  0  0  0
   37.3850   28.6810   40.4240 N   0  0  0  0  0  0  0  0  0  0  0  0
   36.8590   24.2680   39.5510 H   0  0  0  0  0  0  0  0  0  0  0  0
   36.8100   23.7240   42.0090 H   0  0  0  0  0  0  0  0  0  0  0  0
   37.0430   25.6050   43.6660 H   0  0  0  0  0  0  0  0  0  0  0  0
   37.1710   28.9610   39.4520 H   0  0  0  0  0  0  0  0  0  0  0  0
   37.9920   30.9590   40.9680 C   0  0  0  0  0  0  0  0  0  0  0  0
   36.9220   31.3110   40.0380 C   0  0  0  0  0  0  0  0  0  0  0  0
   36.0590   30.9690   39.5440 H   0  0  0  0  0  0  0  0  0  0  0  0
   37.3290   33.1130   39.5980 S   0  0  0  0  0  0  0  0  0  0  0  0
   38.8420   33.0190   40.7480 C   0  0  0  0  0  0  0  0  0  0  0  0
   39.8480   33.6000   41.2490 H   0  0  0  0  0  0  0  0  0  0  0  0
   38.8140   31.9690   41.1590 N   0  0  0  0  0  0  0  0  0  0  0  0
  1  2  1  0  0  0  0
  2 11  1  0  0  0  0
  2  3  2  0  0  0  0
  3 12  1  0  0  0  0
  4  3  1  0  0  0  0
  5  4  2  0  0  0  0
  6  1  2  0  0  0  0
  6  5  1  0  0  0  0
  7  8  2  0  0  0  0
  9  5  1  0  0  0  0
  9  7  1  0  0  0  0
 10  1  1  0  0  0  0
 13  9  1  0  0  0  0
 14 20  1  0  0  0  0
 14  7  1  0  0  0  0
 15 14  2  0  0  0  0
 16 15  1  0  0  0  0
 17 15  1  0  0  0  0
 17 18  1  0  0  0  0
 18 20  2  0  0  0  0
 18 19  1  0  0  0  0
M  END
>  <minimizedAffinity>
-3.73930621

$$$$

 OpenBabel03242510523D

 20 21  0  0  0  0  0  0  0  0999 V2000
   37.1440   31.3100   38.3380 C   0  0  0  0  0  0  0  0  0  0  0  0
   37.1320   32.3360   39.3220 C   0  0  0  0  0  0  0  0  0  0  0  0
   37.4030   31.9850   40.6390 C   0  0  0  0  0  0  0  0  0  0  0  0
   37.6640   30.6800   40.9130 N   0  0  0  0  0  0  0  0  0  0  0  0
   37.6680   29.7390   39.9660 C   0  0  0  0  0  0  0  0  0  0  0  0
   37.4100   30.0330   38.6710 N   0  0  0  0  0  0  0  0  0  0  0  0
   37.8750   28.0720   41.7130 C   0  0  0  0  0  0  0  0  0  0  0  0
   37.5870   28.8710   42.6190 O   0  0  0  0  0  0  0  0  0  0  0  0
   37.9540   28.3750   40.3280 N   0  0  0  0  0  0  0  0  0  0  0  0
   36.9310   31.5900   37.3080 H   0  0  0  0  0  0  0  0  0  0  0  0
   36.9260   33.3590   39.1000 H   0  0  0  0  0  0  0  0  0  0  0  0
   37.4220   32.6760   41.4710 H   0  0  0  0  0  0  0  0  0  0  0  0
   38.1970   27.6820   39.6000 H   0  0  0  0  0  0  0  0  0  0  0  0
   38.1710   26.6790   42.0400 C   0  0  0  0  0  0  0  0  0  0  0  0
   39.4680   26.5710   42.7030 C   0  0  0  0  0  0  0  0  0  0  0  0
   40.3060   27.1020   43.0540 H   0  0  0  0  0  0  0  0  0  0  0  0
   39.6210   24.7050   43.0190 S   0  0  0  0  0  0  0  0  0  0  0  0
   37.9210   24.4590   42.2000 C   0  0  0  0  0  0  0  0  0  0  0  0
   37.0050   23.6610   41.8450 H   0  0  0  0  0  0  0  0  0  0  0  0
   37.6010   25.5000   41.9070 N   0  0  0  0  0  0  0  0  0  0  0  0
  1  6  2  0  0  0  0
  1  2  1  0  0  0  0
  2  3  2  0  0  0  0
  3  4  1  0  0  0  0
  3 12  1  0  0  0  0
  5  9  1  0  0  0  0
  5  4  2  0  0  0  0
  6  5  1  0  0  0  0
  7 14  1  0  0  0  0
  7  8  2  0  0  0  0
  9  7  1  0  0  0  0
 10  1  1  0  0  0  0
 11  2  1  0  0  0  0
 13  9  1  0  0  0  0
 14 15  2  0  0  0  0
 15 17  1  0  0  0  0
 15 16  1  0  0  0  0
 18 17  1  0  0  0  0
 19 18  1  0  0  0  0
 20 14  1  0  0  0  0
 20 18  2  0  0  0  0
M  END
>  <minimizedAffinity>
-3.72879982

$$$$

 OpenBabel03242510523D

 20 21  0  0  0  0  0  0  0  0999 V2000
   35.0100   27.9580   37.8710 C   0  0  0  0  0  0  0  0  0  0  0  0
   34.2750   28.9480   38.5790 C   0  0  0  0  0  0  0  0  0  0  0  0
   34.6250   29.2060   39.8990 C   0  0  0  0  0  0  0  0  0  0  0  0
   35.6500   28.4960   40.4400 N   0  0  0  0  0  0  0  0  0  0  0  0
   36.3210   27.5720   39.7490 C   0  0  0  0  0  0  0  0  0  0  0  0
   36.0170   27.2870   38.4610 N   0  0  0  0  0  0  0  0  0  0  0  0
   37.4460   26.9440   41.8010 C   0  0  0  0  0  0  0  0  0  0  0  0
   36.6530   27.5740   42.5210 O   0  0  0  0  0  0  0  0  0  0  0  0
   37.3970   26.8580   40.3860 N   0  0  0  0  0  0  0  0  0  0  0  0
   34.7320   27.7600   36.8370 H   0  0  0  0  0  0  0  0  0  0  0  0
   33.4710   29.5010   38.1480 H   0  0  0  0  0  0  0  0  0  0  0  0
   34.1400   29.9330   40.5360 H   0  0  0  0  0  0  0  0  0  0  0  0
   38.0760   26.3230   39.8170 H   0  0  0  0  0  0  0  0  0  0  0  0
   38.5510   26.2070   42.4100 C   0  0  0  0  0  0  0  0  0  0  0  0
   39.5420   27.1280   42.9600 C   0  0  0  0  0  0  0  0  0  0  0  0
   39.7970   28.1390   43.1030 H   0  0  0  0  0  0  0  0  0  0  0  0
   40.8490   25.9530   43.6790 S   0  0  0  0  0  0  0  0  0  0  0  0
   39.7980   24.4780   43.0950 C   0  0  0  0  0  0  0  0  0  0  0  0
   39.6590   23.2220   43.0160 H   0  0  0  0  0  0  0  0  0  0  0  0
   38.9020   24.9530   42.6020 N   0  0  0  0  0  0  0  0  0  0  0  0
  1  6  2  0  0  0  0
  1  2  1  0  0  0  0
  2  3  2  0  0  0  0
  3  4  1  0  0  0  0
  3 12  1  0  0  0  0
  5  9  1  0  0  0  0
  5  4  2  0  0  0  0
  6  5  1  0  0  0  0
  7 14  1  0  0  0  0
  7  8  2  0  0  0  0
  9  7  1  0  0  0  0
 10  1  1  0  0  0  0
 11  2  1  0  0  0  0
 13  9  1  0  0  0  0
 14 20  1  0  0  0  0
 14 15  2  0  0  0  0
 15 16  1  0  0  0  0
 15 17  1  0  0  0  0
 18 17  1  0  0  0  0
 19 18  1  0  0  0  0
 20 18  2  0  0  0  0
M  END
>  <minimizedAffinity>
-3.67423701

$$$$

 OpenBabel03242510523D

 20 21  0  0  0  0  0  0  0  0999 V2000
   37.3690   31.7860   38.0310 C   0  0  0  0  0  0  0  0  0  0  0  0
   37.3800   32.5720   39.2160 C   0  0  0  0  0  0  0  0  0  0  0  0
   38.6020   33.0480   39.6750 C   0  0  0  0  0  0  0  0  0  0  0  0
   39.7180   32.7360   38.9670 N   0  0  0  0  0  0  0  0  0  0  0  0
   39.6750   31.9950   37.8570 C   0  0  0  0  0  0  0  0  0  0  0  0
   38.5080   31.5100   37.3720 N   0  0  0  0  0  0  0  0  0  0  0  0
   42.0970   31.9350   37.8770 C   0  0  0  0  0  0  0  0  0  0  0  0
   42.1770   32.3630   39.0410 O   0  0  0  0  0  0  0  0  0  0  0  0
   40.8980   31.7030   37.1550 N   0  0  0  0  0  0  0  0  0  0  0  0
   36.4090   31.4150   37.6760 H   0  0  0  0  0  0  0  0  0  0  0  0
   36.5000   32.8130   39.7680 H   0  0  0  0  0  0  0  0  0  0  0  0
   38.7360   33.6530   40.5620 H   0  0  0  0  0  0  0  0  0  0  0  0
   40.8690   31.3460   36.1850 H   0  0  0  0  0  0  0  0  0  0  0  0
   43.3160   31.6270   37.1320 C   0  0  0  0  0  0  0  0  0  0  0  0
   43.0690   30.5660   36.1590 C   0  0  0  0  0  0  0  0  0  0  0  0
   42.3500   29.9100   35.7600 H   0  0  0  0  0  0  0  0  0  0  0  0
   44.7660   30.3510   35.3360 S   0  0  0  0  0  0  0  0  0  0  0  0
   45.4510   31.7230   36.4640 C   0  0  0  0  0  0  0  0  0  0  0  0
   46.4400   32.4300   36.8170 H   0  0  0  0  0  0  0  0  0  0  0  0
   44.5670   32.0340   37.0910 N   0  0  0  0  0  0  0  0  0  0  0  0
  1  2  1  0  0  0  0
  2  3  2  0  0  0  0
  2 11  1  0  0  0  0
  3 12  1  0  0  0  0
  4  3  1  0  0  0  0
  5  4  2  0  0  0  0
  6  5  1  0  0  0  0
  6  1  2  0  0  0  0
  7  8  2  0  0  0  0
  9  5  1  0  0  0  0
  9  7  1  0  0  0  0
 10  1  1  0  0  0  0
 13  9  1  0  0  0  0
 14  7  1  0  0  0  0
 15 14  2  0  0  0  0
 16 15  1  0  0  0  0
 17 15  1  0  0  0  0
 17 18  1  0  0  0  0
 18 19  1  0  0  0  0
 18 20  2  0  0  0  0
 20 14  1  0  0  0  0
M  END
>  <minimizedAffinity>
-3.64473557

$$$$
