
     RDKit          3D

 33 35  0  0  0  0  0  0  0  0999 V2000
   43.9798   34.5741   41.2838 C   0  0  0  0  0  0  0  0  0  0  0  0
   42.8286   35.2821   40.8799 C   0  0  0  0  0  0  0  0  0  0  0  0
   42.2881   35.0370   39.6293 C   0  0  0  0  0  0  0  0  0  0  0  0
   42.9265   34.0995   38.8499 N   0  0  0  0  0  0  0  0  0  0  0  0
   44.0310   33.4460   39.2842 C   0  0  0  0  0  0  0  0  0  0  0  0
   44.5522   33.6776   40.4833 N   0  0  0  0  0  0  0  0  0  0  0  0
   44.5574   34.8540   42.6239 C   0  0  0  0  0  0  0  0  0  0  0  0
   46.0621   35.2912   42.5339 C   0  0  0  0  0  0  0  0  0  0  0  0
   44.9844   36.1295   43.0683 C   0  0  0  0  0  0  0  0  0  0  0  0
   41.0695   35.7577   39.1791 C   0  0  0  0  0  0  0  0  0  0  0  0
   39.9734   35.6435   40.2189 C   0  0  0  0  0  0  0  0  0  0  0  0
   39.0784   33.4070   40.7093 C   0  0  0  0  0  0  0  0  0  0  0  0
   39.7602   33.3001   41.7695 O   0  0  0  0  0  0  0  0  0  0  0  0
   39.0312   34.5767   39.9127 N   0  0  0  0  0  0  0  0  0  0  0  0
   42.3942   36.0070   41.5686 H   0  0  0  0  0  0  0  0  0  0  0  0
   44.4536   32.7236   38.5807 H   0  0  0  0  0  0  0  0  0  0  0  0
   44.4221   33.9738   43.3091 H   0  0  0  0  0  0  0  0  0  0  0  0
   46.7520   34.7417   43.2006 H   0  0  0  0  0  0  0  0  0  0  0  0
   46.4829   35.4233   41.5240 H   0  0  0  0  0  0  0  0  0  0  0  0
   44.7185   37.0373   42.4629 H   0  0  0  0  0  0  0  0  0  0  0  0
   44.9655   36.3863   44.1551 H   0  0  0  0  0  0  0  0  0  0  0  0
   40.7779   35.3969   38.1889 H   0  0  0  0  0  0  0  0  0  0  0  0
   41.3398   36.8282   39.0618 H   0  0  0  0  0  0  0  0  0  0  0  0
   39.4416   36.6367   40.2763 H   0  0  0  0  0  0  0  0  0  0  0  0
   40.4499   35.5047   41.1911 H   0  0  0  0  0  0  0  0  0  0  0  0
   38.3776   34.7201   39.1362 H   0  0  0  0  0  0  0  0  0  0  0  0
   38.2886   32.2234   40.2945 C   0  0  0  0  0  0  0  0  0  0  0  0
   37.8473   32.2744   39.0241 C   0  0  0  0  0  0  0  0  0  0  0  0
   37.8208   32.8611   38.0970 H   0  0  0  0  0  0  0  0  0  0  0  0
   36.8992   30.6380   38.8401 S   0  0  0  0  0  0  0  0  0  0  0  0
   37.3386   30.2197   40.6409 C   0  0  0  0  0  0  0  0  0  0  0  0
   37.2087   29.3820   41.5104 H   0  0  0  0  0  0  0  0  0  0  0  0
   37.9272   31.1237   40.9182 N   0  0  0  0  0  0  0  0  0  0  0  0
  1  7  1  0
  2  1  2  0
  3  2  1  0
  4  5  1  0
  4  3  2  0
  5  6  2  0
  6  1  1  0
  7  9  1  0
  8  7  1  0
  8  9  1  0
 10  3  1  0
 10 11  1  0
 12 13  2  0
 14 11  1  0
 14 12  1  0
  2 15  1  0
  5 16  1  0
  7 17  1  0
  8 18  1  0
  8 19  1  0
  9 20  1  0
  9 21  1  0
 10 22  1  0
 10 23  1  0
 11 24  1  0
 11 25  1  0
 14 26  1  0
 27 28  2  0
 28 29  1  0
 28 30  1  0
 30 31  1  0
 31 32  1  0
 31 33  2  0
 33 27  1  0
 12 27  1  0
M  ISO  8  15  14  16  14  17  13  18  13  19  13  20  13  21  13  22   8
M  ISO  5  23   8  24   8  25   8  29  15  32  16
M  END
>  <DihAtoms>  (1) 
12,11,26,27

>  <DihDeg>  (1) 
-0.003802744719013515

$$$$
