
 OpenBabel03242520193D

 33 35  0  0  0  0  0  0  0  0999 V2000
   41.4460   35.5360   38.7920 C   0  0  0  0  0  0  0  0  0  0  0  0
   41.2290   35.0770   37.8230 H   0  0  0  0  0  0  0  0  0  0  0  0
   41.7360   36.5880   38.5890 H   0  0  0  0  0  0  0  0  0  0  0  0
   44.1510   34.5370   41.2400 C   0  0  0  0  0  0  0  0  0  0  0  0
   43.0410   35.2030   40.6800 C   0  0  0  0  0  0  0  0  0  0  0  0
   42.6200   34.8610   39.4050 C   0  0  0  0  0  0  0  0  0  0  0  0
   43.3300   33.8750   38.7610 N   0  0  0  0  0  0  0  0  0  0  0  0
   44.3910   33.2660   39.3430 C   0  0  0  0  0  0  0  0  0  0  0  0
   44.7970   33.5900   40.5650 N   0  0  0  0  0  0  0  0  0  0  0  0
   42.5410   35.9720   41.2690 H   0  0  0  0  0  0  0  0  0  0  0  0
   44.8800   32.4980   38.7380 H   0  0  0  0  0  0  0  0  0  0  0  0
   44.5990   34.9210   42.6040 C   0  0  0  0  0  0  0  0  0  0  0  0
   46.1180   35.3170   42.6310 C   0  0  0  0  0  0  0  0  0  0  0  0
   45.0170   36.2210   42.9800 C   0  0  0  0  0  0  0  0  0  0  0  0
   44.3710   34.1060   43.3430 H   0  0  0  0  0  0  0  0  0  0  0  0
   46.7220   34.8140   43.4090 H   0  0  0  0  0  0  0  0  0  0  0  0
   46.6410   35.3520   41.6620 H   0  0  0  0  0  0  0  0  0  0  0  0
   44.8400   37.0780   42.2760 H   0  0  0  0  0  0  0  0  0  0  0  0
   44.8970   36.5710   44.0340 H   0  0  0  0  0  0  0  0  0  0  0  0
   40.2720   35.5290   39.7490 C   0  0  0  0  0  0  0  0  0  0  0  0
   39.4990   36.2510   39.3580 H   0  0  0  0  0  0  0  0  0  0  0  0
   40.6150   35.9460   40.6980 H   0  0  0  0  0  0  0  0  0  0  0  0
   39.6950   33.6350   41.2070 C   0  0  0  0  0  0  0  0  0  0  0  0
   39.9970   34.2740   42.2580 O   0  0  0  0  0  0  0  0  0  0  0  0
   39.6980   34.2010   39.9090 N   0  0  0  0  0  0  0  0  0  0  0  0
   39.3230   33.7360   39.0770 H   0  0  0  0  0  0  0  0  0  0  0  0
   39.3200   32.2110   41.3700 C   0  0  0  0  0  0  0  0  0  0  0  0
   38.1630   31.8760   40.7690 C   0  0  0  0  0  0  0  0  0  0  0  0
   37.3180   32.2330   40.1670 H   0  0  0  0  0  0  0  0  0  0  0  0
   37.9970   30.0270   41.1730 S   0  0  0  0  0  0  0  0  0  0  0  0
   39.6370   30.1230   42.1280 C   0  0  0  0  0  0  0  0  0  0  0  0
   40.4300   29.4730   42.7790 H   0  0  0  0  0  0  0  0  0  0  0  0
   39.8890   31.1980   41.9860 N   0  0  0  0  0  0  0  0  0  0  0  0
  1  6  1  0  0  0  0
  1 20  1  0  0  0  0
  2  1  1  0  0  0  0
  3  1  1  0  0  0  0
  4 12  1  0  0  0  0
  5  4  1  0  0  0  0
  5 10  1  0  0  0  0
  6  5  2  0  0  0  0
  7  8  2  0  0  0  0
  7  6  1  0  0  0  0
  8  9  1  0  0  0  0
  9  4  2  0  0  0  0
 11  8  1  0  0  0  0
 12 13  1  0  0  0  0
 12 14  1  0  0  0  0
 12 15  1  0  0  0  0
 13 14  1  0  0  0  0
 13 16  1  0  0  0  0
 14 19  1  0  0  0  0
 17 13  1  0  0  0  0
 18 14  1  0  0  0  0
 20 25  1  0  0  0  0
 20 22  1  0  0  0  0
 21 20  1  0  0  0  0
 23 27  1  0  0  0  0
 23 24  2  0  0  0  0
 25 23  1  0  0  0  0
 26 25  1  0  0  0  0
 27 33  1  0  0  0  0
 28 30  1  0  0  0  0
 28 27  2  0  0  0  0
 29 28  1  0  0  0  0
 30 31  1  0  0  0  0
 31 32  1  0  0  0  0
 33 31  2  0  0  0  0
M  END
>  <minimizedAffinity>
-4.65325546

>  <minimizedRMSD>
1.20154798

$$$$
