
     RDKit          3D

 20 21  0  0  0  0  0  0  0  0999 V2000
   44.6643   36.0700   44.2933 C   0  0  0  0  0  0  0  0  0  0  0  0
   45.4831   35.5710   43.2427 C   0  0  0  0  0  0  0  0  0  0  0  0
   46.1814   34.3893   43.4614 C   0  0  0  0  0  0  0  0  0  0  0  0
   46.0433   33.7769   44.6655 N   0  0  0  0  0  0  0  0  0  0  0  0
   45.2660   34.2707   45.6331 C   0  0  0  0  0  0  0  0  0  0  0  0
   44.5674   35.4179   45.4658 N   0  0  0  0  0  0  0  0  0  0  0  0
   46.1623   32.5866   47.1274 C   0  0  0  0  0  0  0  0  0  0  0  0
   47.0932   32.2895   46.3615 O   0  0  0  0  0  0  0  0  0  0  0  0
   45.1660   33.5690   46.8862 N   0  0  0  0  0  0  0  0  0  0  0  0
   44.1192   36.9960   44.1172 H   0  0  0  0  0  0  0  0  0  0  0  0
   45.5869   36.0575   42.2994 H   0  0  0  0  0  0  0  0  0  0  0  0
   46.8329   33.9148   42.7400 H   0  0  0  0  0  0  0  0  0  0  0  0
   44.4031   33.7909   47.5484 H   0  0  0  0  0  0  0  0  0  0  0  0
   46.0273   31.8969   48.4085 C   0  0  0  0  0  0  0  0  0  0  0  0
   45.8506   30.4609   48.2026 C   0  0  0  0  0  0  0  0  0  0  0  0
   45.7781   29.6932   47.4871 H   0  0  0  0  0  0  0  0  0  0  0  0
   45.7015   29.8017   49.9759 S   0  0  0  0  0  0  0  0  0  0  0  0
   45.9061   31.5804   50.6218 C   0  0  0  0  0  0  0  0  0  0  0  0
   45.9703   32.3621   51.6142 H   0  0  0  0  0  0  0  0  0  0  0  0
   46.0200   32.2034   49.6879 N   0  0  0  0  0  0  0  0  0  0  0  0
  1  6  2  0
  2  3  2  0
  2  1  1  0
  3  4  1  0
  4  5  2  0
  5  9  1  0
  6  5  1  0
  8  7  2  0
  9  7  1  0
  1 10  1  0
  2 11  1  0
  3 12  1  0
  9 13  1  0
 14 15  2  0
 15 16  1  0
 15 17  1  0
 17 18  1  0
 18 19  1  0
 18 20  2  0
 20 14  1  0
  7 14  1  0
M  ISO  5  10  14  11  14  12  14  16  15  19  16
M  END
>  <DihAtoms>  (1) 
7,6,13,14

>  <DihDeg>  (1) 
-0.0008283276746852978

$$$$
