
 OpenBabel03242520203D

 33 35  0  0  0  0  0  0  0  0999 V2000
   38.3020   27.6160   43.6040 C   0  0  0  0  0  0  0  0  0  0  0  0
   39.1830   28.2210   43.3730 H   0  0  0  0  0  0  0  0  0  0  0  0
   38.3230   27.4240   44.6970 H   0  0  0  0  0  0  0  0  0  0  0  0
   37.4800   24.5450   41.5550 C   0  0  0  0  0  0  0  0  0  0  0  0
   37.3420   25.7890   42.2040 C   0  0  0  0  0  0  0  0  0  0  0  0
   38.4120   26.3020   42.9180 C   0  0  0  0  0  0  0  0  0  0  0  0
   39.5600   25.5450   42.9450 N   0  0  0  0  0  0  0  0  0  0  0  0
   39.6420   24.3530   42.3050 C   0  0  0  0  0  0  0  0  0  0  0  0
   38.6190   23.8590   41.6190 N   0  0  0  0  0  0  0  0  0  0  0  0
   36.3900   26.3160   42.1250 H   0  0  0  0  0  0  0  0  0  0  0  0
   40.6020   23.8390   42.3960 H   0  0  0  0  0  0  0  0  0  0  0  0
   36.3210   24.0000   40.8020 C   0  0  0  0  0  0  0  0  0  0  0  0
   36.2850   24.5250   39.3230 C   0  0  0  0  0  0  0  0  0  0  0  0
   36.4190   23.1140   39.7000 C   0  0  0  0  0  0  0  0  0  0  0  0
   35.3590   24.2130   41.3400 H   0  0  0  0  0  0  0  0  0  0  0  0
   35.3170   24.9470   38.9960 H   0  0  0  0  0  0  0  0  0  0  0  0
   37.1360   25.1430   38.9920 H   0  0  0  0  0  0  0  0  0  0  0  0
   37.4070   22.6330   39.4710 H   0  0  0  0  0  0  0  0  0  0  0  0
   35.5930   22.3970   39.4760 H   0  0  0  0  0  0  0  0  0  0  0  0
   36.9890   28.2870   43.2530 C   0  0  0  0  0  0  0  0  0  0  0  0
   36.3390   28.2850   44.1740 H   0  0  0  0  0  0  0  0  0  0  0  0
   36.4770   27.6560   42.5240 H   0  0  0  0  0  0  0  0  0  0  0  0
   37.2450   29.8390   41.3630 C   0  0  0  0  0  0  0  0  0  0  0  0
   36.9790   28.9420   40.5110 O   0  0  0  0  0  0  0  0  0  0  0  0
   37.1780   29.6460   42.7640 N   0  0  0  0  0  0  0  0  0  0  0  0
   37.2540   30.3990   43.4540 H   0  0  0  0  0  0  0  0  0  0  0  0
   37.6490   31.1650   40.8390 C   0  0  0  0  0  0  0  0  0  0  0  0
   38.8660   31.5690   41.2440 C   0  0  0  0  0  0  0  0  0  0  0  0
   39.7520   31.3180   41.8420 H   0  0  0  0  0  0  0  0  0  0  0  0
   39.0510   33.2640   40.4050 S   0  0  0  0  0  0  0  0  0  0  0  0
   37.3270   33.0350   39.6400 C   0  0  0  0  0  0  0  0  0  0  0  0
   36.4970   33.5570   38.9230 H   0  0  0  0  0  0  0  0  0  0  0  0
   37.0560   32.0360   40.0510 N   0  0  0  0  0  0  0  0  0  0  0  0
  1  3  1  0  0  0  0
  2  1  1  0  0  0  0
  4  9  2  0  0  0  0
  4  5  1  0  0  0  0
  5  6  2  0  0  0  0
  6  7  1  0  0  0  0
  6  1  1  0  0  0  0
  8 11  1  0  0  0  0
  8  7  2  0  0  0  0
  9  8  1  0  0  0  0
 10  5  1  0  0  0  0
 12 15  1  0  0  0  0
 12  4  1  0  0  0  0
 13 14  1  0  0  0  0
 13 12  1  0  0  0  0
 14 12  1  0  0  0  0
 16 13  1  0  0  0  0
 17 13  1  0  0  0  0
 18 14  1  0  0  0  0
 19 14  1  0  0  0  0
 20  1  1  0  0  0  0
 20 21  1  0  0  0  0
 22 20  1  0  0  0  0
 23 25  1  0  0  0  0
 24 23  2  0  0  0  0
 25 20  1  0  0  0  0
 25 26  1  0  0  0  0
 27 28  2  0  0  0  0
 27 23  1  0  0  0  0
 28 29  1  0  0  0  0
 30 28  1  0  0  0  0
 31 33  2  0  0  0  0
 31 30  1  0  0  0  0
 32 31  1  0  0  0  0
 33 27  1  0  0  0  0
M  END
>  <minimizedAffinity>
-4.81755686

$$$$

 OpenBabel03242520203D

 33 35  0  0  0  0  0  0  0  0999 V2000
   36.0330   30.0410   40.6520 C   0  0  0  0  0  0  0  0  0  0  0  0
   34.9830   30.0490   40.9580 H   0  0  0  0  0  0  0  0  0  0  0  0
   36.0600   29.6520   39.6130 H   0  0  0  0  0  0  0  0  0  0  0  0
   37.3040   26.8430   42.2210 C   0  0  0  0  0  0  0  0  0  0  0  0
   36.5630   27.7250   41.4070 C   0  0  0  0  0  0  0  0  0  0  0  0
   36.7890   29.0870   41.5050 C   0  0  0  0  0  0  0  0  0  0  0  0
   37.7420   29.4950   42.4100 N   0  0  0  0  0  0  0  0  0  0  0  0
   38.4270   28.6070   43.1710 C   0  0  0  0  0  0  0  0  0  0  0  0
   38.2130   27.3000   43.0790 N   0  0  0  0  0  0  0  0  0  0  0  0
   35.8280   27.3060   40.7190 H   0  0  0  0  0  0  0  0  0  0  0  0
   39.1580   29.0440   43.8560 H   0  0  0  0  0  0  0  0  0  0  0  0
   37.0440   25.3840   42.1150 C   0  0  0  0  0  0  0  0  0  0  0  0
   37.8230   24.7370   40.9160 C   0  0  0  0  0  0  0  0  0  0  0  0
   38.0160   24.3740   42.3240 C   0  0  0  0  0  0  0  0  0  0  0  0
   35.9420   25.1780   42.0520 H   0  0  0  0  0  0  0  0  0  0  0  0
   37.2100   24.1150   40.2370 H   0  0  0  0  0  0  0  0  0  0  0  0
   38.5180   25.3890   40.3620 H   0  0  0  0  0  0  0  0  0  0  0  0
   39.0060   24.6520   42.7740 H   0  0  0  0  0  0  0  0  0  0  0  0
   37.7110   23.3620   42.6840 H   0  0  0  0  0  0  0  0  0  0  0  0
   36.6880   31.4070   40.6780 C   0  0  0  0  0  0  0  0  0  0  0  0
   36.9050   31.6700   41.7530 H   0  0  0  0  0  0  0  0  0  0  0  0
   35.9510   32.1360   40.3360 H   0  0  0  0  0  0  0  0  0  0  0  0
   38.7330   32.5930   40.0030 C   0  0  0  0  0  0  0  0  0  0  0  0
   38.5710   33.4950   40.8760 O   0  0  0  0  0  0  0  0  0  0  0  0
   37.9080   31.4490   39.8850 N   0  0  0  0  0  0  0  0  0  0  0  0
   38.1140   30.6500   39.2770 H   0  0  0  0  0  0  0  0  0  0  0  0
   39.8620   32.7670   39.0580 C   0  0  0  0  0  0  0  0  0  0  0  0
   40.7020   33.7660   39.3810 C   0  0  0  0  0  0  0  0  0  0  0  0
   40.9250   34.5660   40.0990 H   0  0  0  0  0  0  0  0  0  0  0  0
   41.9920   33.7010   37.9880 S   0  0  0  0  0  0  0  0  0  0  0  0
   41.0470   32.2400   37.2260 C   0  0  0  0  0  0  0  0  0  0  0  0
   41.0420   31.4520   36.3020 H   0  0  0  0  0  0  0  0  0  0  0  0
   40.2130   32.1380   37.9570 N   0  0  0  0  0  0  0  0  0  0  0  0
  1 20  1  0  0  0  0
  1  2  1  0  0  0  0
  1  6  1  0  0  0  0
  3  1  1  0  0  0  0
  4  9  1  0  0  0  0
  5  6  1  0  0  0  0
  5  4  2  0  0  0  0
  6  7  2  0  0  0  0
  7  8  1  0  0  0  0
  8 11  1  0  0  0  0
  9  8  2  0  0  0  0
 10  5  1  0  0  0  0
 12  4  1  0  0  0  0
 12 14  1  0  0  0  0
 13 12  1  0  0  0  0
 13 14  1  0  0  0  0
 14 19  1  0  0  0  0
 14 18  1  0  0  0  0
 15 12  1  0  0  0  0
 16 13  1  0  0  0  0
 17 13  1  0  0  0  0
 20 21  1  0  0  0  0
 22 20  1  0  0  0  0
 23 24  2  0  0  0  0
 25 23  1  0  0  0  0
 25 20  1  0  0  0  0
 26 25  1  0  0  0  0
 27 28  2  0  0  0  0
 27 23  1  0  0  0  0
 28 29  1  0  0  0  0
 30 28  1  0  0  0  0
 31 33  2  0  0  0  0
 31 30  1  0  0  0  0
 32 31  1  0  0  0  0
 33 27  1  0  0  0  0
M  END
>  <minimizedAffinity>
-4.80719328

$$$$

 OpenBabel03242520203D

 33 35  0  0  0  0  0  0  0  0999 V2000
   36.9610   32.1890   39.6050 C   0  0  0  0  0  0  0  0  0  0  0  0
   35.9320   32.2630   39.9670 H   0  0  0  0  0  0  0  0  0  0  0  0
   36.9060   32.1220   38.4980 H   0  0  0  0  0  0  0  0  0  0  0  0
   37.8500   29.2390   41.7980 C   0  0  0  0  0  0  0  0  0  0  0  0
   37.2670   30.4470   41.3610 C   0  0  0  0  0  0  0  0  0  0  0  0
   37.5690   30.9260   40.0980 C   0  0  0  0  0  0  0  0  0  0  0  0
   38.4360   30.1740   39.3400 N   0  0  0  0  0  0  0  0  0  0  0  0
   38.9720   29.0200   39.8060 C   0  0  0  0  0  0  0  0  0  0  0  0
   38.6840   28.5570   41.0160 N   0  0  0  0  0  0  0  0  0  0  0  0
   36.5890   30.9720   42.0360 H   0  0  0  0  0  0  0  0  0  0  0  0
   39.6490   28.5070   39.1180 H   0  0  0  0  0  0  0  0  0  0  0  0
   37.5270   28.7410   43.1600 C   0  0  0  0  0  0  0  0  0  0  0  0
   36.5850   27.4860   43.1160 C   0  0  0  0  0  0  0  0  0  0  0  0
   37.9390   27.4890   43.6800 C   0  0  0  0  0  0  0  0  0  0  0  0
   37.0940   29.5610   43.7930 H   0  0  0  0  0  0  0  0  0  0  0  0
   35.6900   27.5470   43.7620 H   0  0  0  0  0  0  0  0  0  0  0  0
   36.3480   27.0750   42.1210 H   0  0  0  0  0  0  0  0  0  0  0  0
   38.7080   26.8910   43.1220 H   0  0  0  0  0  0  0  0  0  0  0  0
   38.0840   27.3530   44.7790 H   0  0  0  0  0  0  0  0  0  0  0  0
   37.8280   33.3750   39.9780 C   0  0  0  0  0  0  0  0  0  0  0  0
   38.0760   33.2940   41.0740 H   0  0  0  0  0  0  0  0  0  0  0  0
   37.2210   34.2760   39.8750 H   0  0  0  0  0  0  0  0  0  0  0  0
   40.2810   33.2650   39.8500 C   0  0  0  0  0  0  0  0  0  0  0  0
   40.3870   32.8860   41.0530 O   0  0  0  0  0  0  0  0  0  0  0  0
   39.0450   33.4400   39.1820 N   0  0  0  0  0  0  0  0  0  0  0  0
   38.9530   33.6090   38.1750 H   0  0  0  0  0  0  0  0  0  0  0  0
   41.5400   33.5390   39.1170 C   0  0  0  0  0  0  0  0  0  0  0  0
   42.6530   33.3530   39.8480 C   0  0  0  0  0  0  0  0  0  0  0  0
   43.0570   33.0650   40.8270 H   0  0  0  0  0  0  0  0  0  0  0  0
   44.0400   33.7850   38.6230 S   0  0  0  0  0  0  0  0  0  0  0  0
   42.7190   34.1440   37.3060 C   0  0  0  0  0  0  0  0  0  0  0  0
   42.5540   34.4940   36.1550 H   0  0  0  0  0  0  0  0  0  0  0  0
   41.7930   33.9290   37.8870 N   0  0  0  0  0  0  0  0  0  0  0  0
  1  2  1  0  0  0  0
  1 20  1  0  0  0  0
  1  6  1  0  0  0  0
  3  1  1  0  0  0  0
  4 12  1  0  0  0  0
  5  4  1  0  0  0  0
  5 10  1  0  0  0  0
  6  5  2  0  0  0  0
  7  8  2  0  0  0  0
  7  6  1  0  0  0  0
  8  9  1  0  0  0  0
  9  4  2  0  0  0  0
 11  8  1  0  0  0  0
 12 14  1  0  0  0  0
 12 15  1  0  0  0  0
 13 12  1  0  0  0  0
 13 14  1  0  0  0  0
 13 16  1  0  0  0  0
 14 19  1  0  0  0  0
 17 13  1  0  0  0  0
 18 14  1  0  0  0  0
 20 21  1  0  0  0  0
 22 20  1  0  0  0  0
 23 24  2  0  0  0  0
 25 23  1  0  0  0  0
 25 20  1  0  0  0  0
 26 25  1  0  0  0  0
 27 28  2  0  0  0  0
 27 23  1  0  0  0  0
 28 29  1  0  0  0  0
 30 28  1  0  0  0  0
 31 33  2  0  0  0  0
 31 30  1  0  0  0  0
 32 31  1  0  0  0  0
 33 27  1  0  0  0  0
M  END
>  <minimizedAffinity>
-4.69444752

$$$$

 OpenBabel03242520203D

 33 35  0  0  0  0  0  0  0  0999 V2000
   36.5940   27.3390   43.2300 C   0  0  0  0  0  0  0  0  0  0  0  0
   35.9600   26.9650   44.0390 H   0  0  0  0  0  0  0  0  0  0  0  0
   35.9150   27.6230   42.3980 H   0  0  0  0  0  0  0  0  0  0  0  0
   39.6150   25.1600   42.5700 C   0  0  0  0  0  0  0  0  0  0  0  0
   38.8150   26.2220   43.0420 C   0  0  0  0  0  0  0  0  0  0  0  0
   37.4650   26.2400   42.7370 C   0  0  0  0  0  0  0  0  0  0  0  0
   36.9860   25.1980   41.9770 N   0  0  0  0  0  0  0  0  0  0  0  0
   37.7970   24.2010   41.5460 C   0  0  0  0  0  0  0  0  0  0  0  0
   39.0920   24.1800   41.8370 N   0  0  0  0  0  0  0  0  0  0  0  0
   39.2860   27.0040   43.6390 H   0  0  0  0  0  0  0  0  0  0  0  0
   37.3090   23.4270   40.9490 H   0  0  0  0  0  0  0  0  0  0  0  0
   41.0640   25.1580   42.8960 C   0  0  0  0  0  0  0  0  0  0  0  0
   41.8690   26.1560   41.9900 C   0  0  0  0  0  0  0  0  0  0  0  0
   41.7680   26.2560   43.4500 C   0  0  0  0  0  0  0  0  0  0  0  0
   41.4850   24.1180   42.8400 H   0  0  0  0  0  0  0  0  0  0  0  0
   42.7640   25.7300   41.5000 H   0  0  0  0  0  0  0  0  0  0  0  0
   41.2840   26.7880   41.3020 H   0  0  0  0  0  0  0  0  0  0  0  0
   41.1900   27.1320   43.8470 H   0  0  0  0  0  0  0  0  0  0  0  0
   42.6730   26.0860   44.0830 H   0  0  0  0  0  0  0  0  0  0  0  0
   37.4280   28.5440   43.6120 C   0  0  0  0  0  0  0  0  0  0  0  0
   38.5030   28.2120   43.6950 H   0  0  0  0  0  0  0  0  0  0  0  0
   37.1320   28.8490   44.6170 H   0  0  0  0  0  0  0  0  0  0  0  0
   38.4790   30.0840   42.0090 C   0  0  0  0  0  0  0  0  0  0  0  0
   39.5970   29.4960   42.0840 O   0  0  0  0  0  0  0  0  0  0  0  0
   37.3010   29.6300   42.6510 N   0  0  0  0  0  0  0  0  0  0  0  0
   36.3670   30.0180   42.4830 H   0  0  0  0  0  0  0  0  0  0  0  0
   38.4220   31.3210   41.1930 C   0  0  0  0  0  0  0  0  0  0  0  0
   37.2320   31.5400   40.6090 C   0  0  0  0  0  0  0  0  0  0  0  0
   36.2090   31.1670   40.4670 H   0  0  0  0  0  0  0  0  0  0  0  0
   37.5160   33.1670   39.6680 S   0  0  0  0  0  0  0  0  0  0  0  0
   39.3010   33.1920   40.3180 C   0  0  0  0  0  0  0  0  0  0  0  0
   40.3400   33.8200   40.3010 H   0  0  0  0  0  0  0  0  0  0  0  0
   39.3070   32.2560   40.9220 N   0  0  0  0  0  0  0  0  0  0  0  0
  1 20  1  0  0  0  0
  1  2  1  0  0  0  0
  3  1  1  0  0  0  0
  4 12  1  0  0  0  0
  4  5  1  0  0  0  0
  5 10  1  0  0  0  0
  6  5  2  0  0  0  0
  6  1  1  0  0  0  0
  7  6  1  0  0  0  0
  8  9  1  0  0  0  0
  8  7  2  0  0  0  0
  9  4  2  0  0  0  0
 11  8  1  0  0  0  0
 12 14  1  0  0  0  0
 13 12  1  0  0  0  0
 13 14  1  0  0  0  0
 14 18  1  0  0  0  0
 14 19  1  0  0  0  0
 15 12  1  0  0  0  0
 16 13  1  0  0  0  0
 17 13  1  0  0  0  0
 20 21  1  0  0  0  0
 20 22  1  0  0  0  0
 23 24  2  0  0  0  0
 23 25  1  0  0  0  0
 25 20  1  0  0  0  0
 26 25  1  0  0  0  0
 27 23  1  0  0  0  0
 28 27  2  0  0  0  0
 29 28  1  0  0  0  0
 30 31  1  0  0  0  0
 30 28  1  0  0  0  0
 31 33  2  0  0  0  0
 32 31  1  0  0  0  0
 33 27  1  0  0  0  0
M  END
>  <minimizedAffinity>
-4.67224264

$$$$

 OpenBabel03242520203D

 33 35  0  0  0  0  0  0  0  0999 V2000
   35.1890   29.0340   38.6550 C   0  0  0  0  0  0  0  0  0  0  0  0
   35.9360   29.5860   38.0790 H   0  0  0  0  0  0  0  0  0  0  0  0
   34.6840   29.7720   39.3130 H   0  0  0  0  0  0  0  0  0  0  0  0
   36.7730   27.3920   41.6720 C   0  0  0  0  0  0  0  0  0  0  0  0
   36.1340   28.3510   40.8600 C   0  0  0  0  0  0  0  0  0  0  0  0
   35.8710   28.0490   39.5340 C   0  0  0  0  0  0  0  0  0  0  0  0
   36.2620   26.8060   39.0920 N   0  0  0  0  0  0  0  0  0  0  0  0
   36.8750   25.9190   39.9130 C   0  0  0  0  0  0  0  0  0  0  0  0
   37.1270   26.2050   41.1840 N   0  0  0  0  0  0  0  0  0  0  0  0
   35.8620   29.3110   41.3010 H   0  0  0  0  0  0  0  0  0  0  0  0
   37.1410   24.9630   39.4540 H   0  0  0  0  0  0  0  0  0  0  0  0
   37.0590   27.7330   43.0890 C   0  0  0  0  0  0  0  0  0  0  0  0
   38.5940   27.6660   43.4100 C   0  0  0  0  0  0  0  0  0  0  0  0
   37.7750   28.8780   43.5150 C   0  0  0  0  0  0  0  0  0  0  0  0
   36.4620   27.0820   43.7850 H   0  0  0  0  0  0  0  0  0  0  0  0
   38.8630   27.0710   44.3020 H   0  0  0  0  0  0  0  0  0  0  0  0
   39.2720   27.4700   42.5630 H   0  0  0  0  0  0  0  0  0  0  0  0
   37.9980   29.6910   42.7740 H   0  0  0  0  0  0  0  0  0  0  0  0
   37.5760   29.3300   44.5170 H   0  0  0  0  0  0  0  0  0  0  0  0
   34.1420   28.3460   37.8020 C   0  0  0  0  0  0  0  0  0  0  0  0
   34.1610   27.2460   38.0480 H   0  0  0  0  0  0  0  0  0  0  0  0
   34.4590   28.4240   36.7600 H   0  0  0  0  0  0  0  0  0  0  0  0
   32.1910   29.5590   36.9280 C   0  0  0  0  0  0  0  0  0  0  0  0
   32.6420   29.5550   35.7450 O   0  0  0  0  0  0  0  0  0  0  0  0
   32.8110   28.8950   38.0130 N   0  0  0  0  0  0  0  0  0  0  0  0
   32.3820   28.7760   38.9370 H   0  0  0  0  0  0  0  0  0  0  0  0
   30.9370   30.3130   37.1670 C   0  0  0  0  0  0  0  0  0  0  0  0
   30.4450   30.1810   38.4110 C   0  0  0  0  0  0  0  0  0  0  0  0
   30.5850   29.7200   39.3970 H   0  0  0  0  0  0  0  0  0  0  0  0
   28.8760   31.2530   38.3610 S   0  0  0  0  0  0  0  0  0  0  0  0
   29.2600   31.6700   36.5480 C   0  0  0  0  0  0  0  0  0  0  0  0
   28.8670   32.2930   35.5820 H   0  0  0  0  0  0  0  0  0  0  0  0
   30.2010   31.0920   36.4040 N   0  0  0  0  0  0  0  0  0  0  0  0
  1  3  1  0  0  0  0
  1  6  1  0  0  0  0
  2  1  1  0  0  0  0
  4 12  1  0  0  0  0
  5 10  1  0  0  0  0
  5  4  2  0  0  0  0
  6  5  1  0  0  0  0
  7  6  2  0  0  0  0
  7  8  1  0  0  0  0
  8  9  2  0  0  0  0
  9  4  1  0  0  0  0
 11  8  1  0  0  0  0
 12 13  1  0  0  0  0
 12 14  1  0  0  0  0
 12 15  1  0  0  0  0
 13 14  1  0  0  0  0
 13 16  1  0  0  0  0
 14 19  1  0  0  0  0
 17 13  1  0  0  0  0
 18 14  1  0  0  0  0
 20 25  1  0  0  0  0
 20 21  1  0  0  0  0
 20  1  1  0  0  0  0
 22 20  1  0  0  0  0
 23 27  1  0  0  0  0
 23 25  1  0  0  0  0
 24 23  2  0  0  0  0
 25 26  1  0  0  0  0
 27 28  2  0  0  0  0
 28 29  1  0  0  0  0
 30 28  1  0  0  0  0
 31 30  1  0  0  0  0
 32 31  1  0  0  0  0
 33 31  2  0  0  0  0
 33 27  1  0  0  0  0
M  END
>  <minimizedAffinity>
-4.5801506

$$$$

 OpenBabel03242520203D

 33 35  0  0  0  0  0  0  0  0999 V2000
   35.6640   29.2080   37.8500 C   0  0  0  0  0  0  0  0  0  0  0  0
   36.5170   28.9240   37.2280 H   0  0  0  0  0  0  0  0  0  0  0  0
   35.2610   30.1520   37.4270 H   0  0  0  0  0  0  0  0  0  0  0  0
   37.0640   28.7990   41.3400 C   0  0  0  0  0  0  0  0  0  0  0  0
   36.6140   28.4880   40.0400 C   0  0  0  0  0  0  0  0  0  0  0  0
   36.1340   29.5020   39.2280 C   0  0  0  0  0  0  0  0  0  0  0  0
   36.1290   30.7720   39.7590 N   0  0  0  0  0  0  0  0  0  0  0  0
   36.5720   31.0190   41.0160 C   0  0  0  0  0  0  0  0  0  0  0  0
   37.0330   30.0490   41.7960 N   0  0  0  0  0  0  0  0  0  0  0  0
   36.6580   27.4500   39.7080 H   0  0  0  0  0  0  0  0  0  0  0  0
   36.5200   32.0640   41.3330 H   0  0  0  0  0  0  0  0  0  0  0  0
   37.5660   27.7010   42.2040 C   0  0  0  0  0  0  0  0  0  0  0  0
   36.5260   27.3040   43.3110 C   0  0  0  0  0  0  0  0  0  0  0  0
   37.0080   26.4000   42.2620 C   0  0  0  0  0  0  0  0  0  0  0  0
   38.5630   27.9660   42.6490 H   0  0  0  0  0  0  0  0  0  0  0  0
   36.9270   27.2620   44.3400 H   0  0  0  0  0  0  0  0  0  0  0  0
   35.5430   27.8020   43.2720 H   0  0  0  0  0  0  0  0  0  0  0  0
   36.2540   26.0940   41.4890 H   0  0  0  0  0  0  0  0  0  0  0  0
   37.6440   25.5230   42.5320 H   0  0  0  0  0  0  0  0  0  0  0  0
   34.5560   28.1750   37.8780 C   0  0  0  0  0  0  0  0  0  0  0  0
   34.8100   27.4130   38.6690 H   0  0  0  0  0  0  0  0  0  0  0  0
   34.5790   27.6370   36.9280 H   0  0  0  0  0  0  0  0  0  0  0  0
   32.4900   29.2020   37.0290 C   0  0  0  0  0  0  0  0  0  0  0  0
   32.7860   28.9480   35.8250 O   0  0  0  0  0  0  0  0  0  0  0  0
   33.2540   28.7700   38.1400 N   0  0  0  0  0  0  0  0  0  0  0  0
   32.9490   28.8500   39.1160 H   0  0  0  0  0  0  0  0  0  0  0  0
   31.2660   30.0030   37.2660 C   0  0  0  0  0  0  0  0  0  0  0  0
   30.9550   30.8430   36.2640 C   0  0  0  0  0  0  0  0  0  0  0  0
   31.2420   31.2170   35.2720 H   0  0  0  0  0  0  0  0  0  0  0  0
   29.3730   31.6860   36.8930 S   0  0  0  0  0  0  0  0  0  0  0  0
   29.4890   30.6460   38.4780 C   0  0  0  0  0  0  0  0  0  0  0  0
   28.9520   30.4220   39.5440 H   0  0  0  0  0  0  0  0  0  0  0  0
   30.4130   30.0610   38.2670 N   0  0  0  0  0  0  0  0  0  0  0  0
  1 20  1  0  0  0  0
  1  6  1  0  0  0  0
  2  1  1  0  0  0  0
  3  1  1  0  0  0  0
  4  9  1  0  0  0  0
  4 12  1  0  0  0  0
  5  4  2  0  0  0  0
  6  7  2  0  0  0  0
  6  5  1  0  0  0  0
  7  8  1  0  0  0  0
  8 11  1  0  0  0  0
  8  9  2  0  0  0  0
 10  5  1  0  0  0  0
 12 14  1  0  0  0  0
 12 15  1  0  0  0  0
 12 13  1  0  0  0  0
 13 16  1  0  0  0  0
 14 19  1  0  0  0  0
 14 13  1  0  0  0  0
 17 13  1  0  0  0  0
 18 14  1  0  0  0  0
 20 25  1  0  0  0  0
 20 21  1  0  0  0  0
 22 20  1  0  0  0  0
 23 27  1  0  0  0  0
 23 25  1  0  0  0  0
 24 23  2  0  0  0  0
 25 26  1  0  0  0  0
 27 33  1  0  0  0  0
 28 30  1  0  0  0  0
 28 27  2  0  0  0  0
 29 28  1  0  0  0  0
 30 31  1  0  0  0  0
 31 32  1  0  0  0  0
 33 31  2  0  0  0  0
M  END
>  <minimizedAffinity>
-4.5768857

$$$$

 OpenBabel03242520203D

 33 35  0  0  0  0  0  0  0  0999 V2000
   37.5160   30.7180   38.1740 C   0  0  0  0  0  0  0  0  0  0  0  0
   36.4800   31.0540   38.0730 H   0  0  0  0  0  0  0  0  0  0  0  0
   37.6100   29.7890   37.5740 H   0  0  0  0  0  0  0  0  0  0  0  0
   37.3140   29.0650   41.5700 C   0  0  0  0  0  0  0  0  0  0  0  0
   37.0290   29.3900   40.2270 C   0  0  0  0  0  0  0  0  0  0  0  0
   37.7830   30.3620   39.5910 C   0  0  0  0  0  0  0  0  0  0  0  0
   38.7800   30.9560   40.3310 N   0  0  0  0  0  0  0  0  0  0  0  0
   39.0130   30.6080   41.6200 C   0  0  0  0  0  0  0  0  0  0  0  0
   38.2920   29.6770   42.2320 N   0  0  0  0  0  0  0  0  0  0  0  0
   36.2180   28.8630   39.7230 H   0  0  0  0  0  0  0  0  0  0  0  0
   39.8290   31.1470   42.1090 H   0  0  0  0  0  0  0  0  0  0  0  0
   36.4900   28.0280   42.2430 C   0  0  0  0  0  0  0  0  0  0  0  0
   37.2780   26.6830   42.4290 C   0  0  0  0  0  0  0  0  0  0  0  0
   36.7550   27.4980   43.5310 C   0  0  0  0  0  0  0  0  0  0  0  0
   35.5220   27.8680   41.6960 H   0  0  0  0  0  0  0  0  0  0  0  0
   36.7510   25.7770   42.0790 H   0  0  0  0  0  0  0  0  0  0  0  0
   38.3400   26.6830   42.1330 H   0  0  0  0  0  0  0  0  0  0  0  0
   37.5200   27.9990   44.1820 H   0  0  0  0  0  0  0  0  0  0  0  0
   35.9210   27.1080   44.1640 H   0  0  0  0  0  0  0  0  0  0  0  0
   38.5370   31.7220   37.6790 C   0  0  0  0  0  0  0  0  0  0  0  0
   38.7040   32.4800   38.4970 H   0  0  0  0  0  0  0  0  0  0  0  0
   38.0880   32.2720   36.8500 H   0  0  0  0  0  0  0  0  0  0  0  0
   40.9860   31.8310   37.4880 C   0  0  0  0  0  0  0  0  0  0  0  0
   41.0470   32.9270   38.1190 O   0  0  0  0  0  0  0  0  0  0  0  0
   39.7930   31.0910   37.3020 N   0  0  0  0  0  0  0  0  0  0  0  0
   39.7580   30.1410   36.9180 H   0  0  0  0  0  0  0  0  0  0  0  0
   42.2520   31.3100   36.9200 C   0  0  0  0  0  0  0  0  0  0  0  0
   43.3460   31.9990   37.2900 C   0  0  0  0  0  0  0  0  0  0  0  0
   43.7290   32.8440   37.8770 H   0  0  0  0  0  0  0  0  0  0  0  0
   44.7480   31.0780   36.3980 S   0  0  0  0  0  0  0  0  0  0  0  0
   43.4580   29.8860   35.6730 C   0  0  0  0  0  0  0  0  0  0  0  0
   43.3150   28.9150   34.9570 H   0  0  0  0  0  0  0  0  0  0  0  0
   42.5260   30.3030   36.1190 N   0  0  0  0  0  0  0  0  0  0  0  0
  1  6  1  0  0  0  0
  2  1  1  0  0  0  0
  3  1  1  0  0  0  0
  4  9  1  0  0  0  0
  4 12  1  0  0  0  0
  5  4  2  0  0  0  0
  6  5  1  0  0  0  0
  6  7  2  0  0  0  0
  7  8  1  0  0  0  0
  8 11  1  0  0  0  0
  8  9  2  0  0  0  0
 10  5  1  0  0  0  0
 12 13  1  0  0  0  0
 12 14  1  0  0  0  0
 13 14  1  0  0  0  0
 14 19  1  0  0  0  0
 14 18  1  0  0  0  0
 15 12  1  0  0  0  0
 16 13  1  0  0  0  0
 17 13  1  0  0  0  0
 20  1  1  0  0  0  0
 20 21  1  0  0  0  0
 22 20  1  0  0  0  0
 23 24  2  0  0  0  0
 25 23  1  0  0  0  0
 25 20  1  0  0  0  0
 26 25  1  0  0  0  0
 27 28  2  0  0  0  0
 27 23  1  0  0  0  0
 28 29  1  0  0  0  0
 30 28  1  0  0  0  0
 31 33  2  0  0  0  0
 31 30  1  0  0  0  0
 32 31  1  0  0  0  0
 33 27  1  0  0  0  0
M  END
>  <minimizedAffinity>
-4.56269979

$$$$

 OpenBabel03242520203D

 33 35  0  0  0  0  0  0  0  0999 V2000
   36.3370   29.5750   37.5890 C   0  0  0  0  0  0  0  0  0  0  0  0
   35.6850   30.3430   37.1640 H   0  0  0  0  0  0  0  0  0  0  0  0
   35.8240   28.6020   37.4390 H   0  0  0  0  0  0  0  0  0  0  0  0
   36.6080   28.9470   41.3090 C   0  0  0  0  0  0  0  0  0  0  0  0
   36.4750   28.7130   39.9250 C   0  0  0  0  0  0  0  0  0  0  0  0
   36.4630   29.7900   39.0540 C   0  0  0  0  0  0  0  0  0  0  0  0
   36.5820   31.0410   39.6140 N   0  0  0  0  0  0  0  0  0  0  0  0
   36.7060   31.2140   40.9520 C   0  0  0  0  0  0  0  0  0  0  0  0
   36.7190   30.1840   41.7890 N   0  0  0  0  0  0  0  0  0  0  0  0
   36.3870   27.6830   39.5760 H   0  0  0  0  0  0  0  0  0  0  0  0
   36.7930   32.2520   41.2840 H   0  0  0  0  0  0  0  0  0  0  0  0
   36.6090   27.7840   42.2330 C   0  0  0  0  0  0  0  0  0  0  0  0
   38.0660   27.3230   42.5920 C   0  0  0  0  0  0  0  0  0  0  0  0
   37.0860   27.8140   43.5670 C   0  0  0  0  0  0  0  0  0  0  0  0
   35.9990   26.9390   41.8130 H   0  0  0  0  0  0  0  0  0  0  0  0
   38.2620   26.2420   42.4640 H   0  0  0  0  0  0  0  0  0  0  0  0
   38.8930   27.9410   42.2070 H   0  0  0  0  0  0  0  0  0  0  0  0
   37.3160   28.8040   44.0440 H   0  0  0  0  0  0  0  0  0  0  0  0
   36.6670   27.1180   44.3330 H   0  0  0  0  0  0  0  0  0  0  0  0
   37.7060   29.5080   36.9450 C   0  0  0  0  0  0  0  0  0  0  0  0
   37.5670   29.2460   35.8570 H   0  0  0  0  0  0  0  0  0  0  0  0
   38.2420   28.6660   37.3880 H   0  0  0  0  0  0  0  0  0  0  0  0
   39.6630   30.7300   37.7950 C   0  0  0  0  0  0  0  0  0  0  0  0
   40.2400   29.6670   38.1700 O   0  0  0  0  0  0  0  0  0  0  0  0
   38.4410   30.7570   37.0800 N   0  0  0  0  0  0  0  0  0  0  0  0
   38.0420   31.5990   36.6540 H   0  0  0  0  0  0  0  0  0  0  0  0
   40.3250   32.0110   38.1370 C   0  0  0  0  0  0  0  0  0  0  0  0
   39.8770   32.5760   39.2720 C   0  0  0  0  0  0  0  0  0  0  0  0
   39.1780   32.4880   40.1140 H   0  0  0  0  0  0  0  0  0  0  0  0
   40.9190   34.1610   39.3960 S   0  0  0  0  0  0  0  0  0  0  0  0
   41.7890   33.6750   37.7780 C   0  0  0  0  0  0  0  0  0  0  0  0
   42.6370   34.0200   36.9800 H   0  0  0  0  0  0  0  0  0  0  0  0
   41.2700   32.7150   37.5520 N   0  0  0  0  0  0  0  0  0  0  0  0
  1  6  1  0  0  0  0
  2  1  1  0  0  0  0
  3  1  1  0  0  0  0
  4  9  1  0  0  0  0
  4 12  1  0  0  0  0
  5  4  2  0  0  0  0
  6  7  2  0  0  0  0
  6  5  1  0  0  0  0
  7  8  1  0  0  0  0
  8 11  1  0  0  0  0
  8  9  2  0  0  0  0
 10  5  1  0  0  0  0
 12 13  1  0  0  0  0
 12 14  1  0  0  0  0
 13 14  1  0  0  0  0
 14 18  1  0  0  0  0
 14 19  1  0  0  0  0
 15 12  1  0  0  0  0
 16 13  1  0  0  0  0
 17 13  1  0  0  0  0
 20 25  1  0  0  0  0
 20 22  1  0  0  0  0
 20  1  1  0  0  0  0
 21 20  1  0  0  0  0
 23 27  1  0  0  0  0
 23 24  2  0  0  0  0
 25 23  1  0  0  0  0
 26 25  1  0  0  0  0
 27 28  2  0  0  0  0
 28 30  1  0  0  0  0
 28 29  1  0  0  0  0
 31 30  1  0  0  0  0
 32 31  1  0  0  0  0
 33 31  2  0  0  0  0
 33 27  1  0  0  0  0
M  END
>  <minimizedAffinity>
-4.52725267

$$$$

 OpenBabel03242520203D

 33 35  0  0  0  0  0  0  0  0999 V2000
   35.3060   28.9070   37.2550 C   0  0  0  0  0  0  0  0  0  0  0  0
   36.1310   28.3330   36.8250 H   0  0  0  0  0  0  0  0  0  0  0  0
   35.0090   29.6580   36.4940 H   0  0  0  0  0  0  0  0  0  0  0  0
   37.0770   31.4220   39.4560 C   0  0  0  0  0  0  0  0  0  0  0  0
   36.6450   30.7290   38.3060 C   0  0  0  0  0  0  0  0  0  0  0  0
   35.7890   29.6500   38.4480 C   0  0  0  0  0  0  0  0  0  0  0  0
   35.4120   29.3210   39.7300 N   0  0  0  0  0  0  0  0  0  0  0  0
   35.8570   30.0180   40.8030 C   0  0  0  0  0  0  0  0  0  0  0  0
   36.6770   31.0540   40.6710 N   0  0  0  0  0  0  0  0  0  0  0  0
   36.9990   31.0660   37.3310 H   0  0  0  0  0  0  0  0  0  0  0  0
   35.4930   29.6670   41.7720 H   0  0  0  0  0  0  0  0  0  0  0  0
   38.0040   32.5710   39.2910 C   0  0  0  0  0  0  0  0  0  0  0  0
   37.2570   33.9470   39.4040 C   0  0  0  0  0  0  0  0  0  0  0  0
   38.3220   33.5040   40.3100 C   0  0  0  0  0  0  0  0  0  0  0  0
   38.5760   32.4880   38.3280 H   0  0  0  0  0  0  0  0  0  0  0  0
   37.4560   34.6590   38.5820 H   0  0  0  0  0  0  0  0  0  0  0  0
   36.1880   33.9130   39.6710 H   0  0  0  0  0  0  0  0  0  0  0  0
   38.0140   33.2860   41.3660 H   0  0  0  0  0  0  0  0  0  0  0  0
   39.3080   34.0280   40.3080 H   0  0  0  0  0  0  0  0  0  0  0  0
   34.0950   28.0680   37.6090 C   0  0  0  0  0  0  0  0  0  0  0  0
   34.3680   27.4170   38.4880 H   0  0  0  0  0  0  0  0  0  0  0  0
   33.9110   27.3840   36.7780 H   0  0  0  0  0  0  0  0  0  0  0  0
   32.1150   29.3040   36.8390 C   0  0  0  0  0  0  0  0  0  0  0  0
   32.2330   28.8760   35.6530 O   0  0  0  0  0  0  0  0  0  0  0  0
   32.9300   28.8830   37.9170 N   0  0  0  0  0  0  0  0  0  0  0  0
   32.7520   29.1160   38.9000 H   0  0  0  0  0  0  0  0  0  0  0  0
   31.0520   30.3060   37.0890 C   0  0  0  0  0  0  0  0  0  0  0  0
   30.3130   30.0630   38.1860 C   0  0  0  0  0  0  0  0  0  0  0  0
   30.1500   29.3900   39.0380 H   0  0  0  0  0  0  0  0  0  0  0  0
   29.0810   31.5090   38.1960 S   0  0  0  0  0  0  0  0  0  0  0  0
   29.8910   32.1660   36.6080 C   0  0  0  0  0  0  0  0  0  0  0  0
   29.8480   33.0570   35.7830 H   0  0  0  0  0  0  0  0  0  0  0  0
   30.6800   31.3950   36.4510 N   0  0  0  0  0  0  0  0  0  0  0  0
  1 20  1  0  0  0  0
  1  6  1  0  0  0  0
  2  1  1  0  0  0  0
  3  1  1  0  0  0  0
  4  9  1  0  0  0  0
  5  6  1  0  0  0  0
  5  4  2  0  0  0  0
  6  7  2  0  0  0  0
  7  8  1  0  0  0  0
  8 11  1  0  0  0  0
  9  8  2  0  0  0  0
 10  5  1  0  0  0  0
 12 13  1  0  0  0  0
 12  4  1  0  0  0  0
 12 14  1  0  0  0  0
 13 17  1  0  0  0  0
 13 14  1  0  0  0  0
 14 18  1  0  0  0  0
 15 12  1  0  0  0  0
 16 13  1  0  0  0  0
 19 14  1  0  0  0  0
 20 25  1  0  0  0  0
 20 21  1  0  0  0  0
 22 20  1  0  0  0  0
 23 27  1  0  0  0  0
 23 25  1  0  0  0  0
 24 23  2  0  0  0  0
 25 26  1  0  0  0  0
 27 28  2  0  0  0  0
 28 30  1  0  0  0  0
 28 29  1  0  0  0  0
 31 30  1  0  0  0  0
 32 31  1  0  0  0  0
 33 31  2  0  0  0  0
 33 27  1  0  0  0  0
M  END
>  <minimizedAffinity>
-4.5110755

$$$$
