
 OpenBabel03242520193D

 33 35  0  0  0  0  0  0  0  0999 V2000
   41.0270   35.7570   39.1640 C   0  0  0  0  0  0  0  0  0  0  0  0
   40.7520   35.4110   38.1640 H   0  0  0  0  0  0  0  0  0  0  0  0
   41.2870   36.8320   39.0690 H   0  0  0  0  0  0  0  0  0  0  0  0
   43.9380   34.5840   41.2750 C   0  0  0  0  0  0  0  0  0  0  0  0
   42.7840   35.2860   40.8690 C   0  0  0  0  0  0  0  0  0  0  0  0
   42.2490   35.0420   39.6150 C   0  0  0  0  0  0  0  0  0  0  0  0
   42.8970   34.1120   38.8350 N   0  0  0  0  0  0  0  0  0  0  0  0
   44.0040   33.4640   39.2710 C   0  0  0  0  0  0  0  0  0  0  0  0
   44.5190   33.6950   40.4730 N   0  0  0  0  0  0  0  0  0  0  0  0
   42.3420   36.0050   41.5600 H   0  0  0  0  0  0  0  0  0  0  0  0
   44.4350   32.7480   38.5660 H   0  0  0  0  0  0  0  0  0  0  0  0
   44.5080   34.8620   42.6180 C   0  0  0  0  0  0  0  0  0  0  0  0
   46.0270   35.2530   42.5410 C   0  0  0  0  0  0  0  0  0  0  0  0
   44.9680   36.1300   43.0530 C   0  0  0  0  0  0  0  0  0  0  0  0
   44.3390   33.9950   43.3120 H   0  0  0  0  0  0  0  0  0  0  0  0
   46.6920   34.6920   43.2220 H   0  0  0  0  0  0  0  0  0  0  0  0
   46.4630   35.3610   41.5340 H   0  0  0  0  0  0  0  0  0  0  0  0
   44.7360   37.0380   42.4340 H   0  0  0  0  0  0  0  0  0  0  0  0
   44.9450   36.4000   44.1360 H   0  0  0  0  0  0  0  0  0  0  0  0
   39.9210   35.6120   40.1880 C   0  0  0  0  0  0  0  0  0  0  0  0
   39.2750   36.5350   40.1380 H   0  0  0  0  0  0  0  0  0  0  0  0
   40.3800   35.6240   41.1780 H   0  0  0  0  0  0  0  0  0  0  0  0
   39.2300   33.3660   40.9140 C   0  0  0  0  0  0  0  0  0  0  0  0
   39.8400   33.4700   42.0190 O   0  0  0  0  0  0  0  0  0  0  0  0
   39.1200   34.4150   39.9700 N   0  0  0  0  0  0  0  0  0  0  0  0
   38.5150   34.3860   39.1430 H   0  0  0  0  0  0  0  0  0  0  0  0
   38.6020   32.0580   40.6120 C   0  0  0  0  0  0  0  0  0  0  0  0
   38.8450   31.6060   39.3690 C   0  0  0  0  0  0  0  0  0  0  0  0
   39.3460   31.8060   38.4130 H   0  0  0  0  0  0  0  0  0  0  0  0
   37.9090   29.9520   39.3320 S   0  0  0  0  0  0  0  0  0  0  0  0
   37.3610   30.2600   41.1250 C   0  0  0  0  0  0  0  0  0  0  0  0
   36.7200   29.7950   42.0460 H   0  0  0  0  0  0  0  0  0  0  0  0
   37.8480   31.2430   41.3170 N   0  0  0  0  0  0  0  0  0  0  0  0
  1  6  1  0  0  0  0
  1 20  1  0  0  0  0
  2  1  1  0  0  0  0
  3  1  1  0  0  0  0
  4 12  1  0  0  0  0
  5  4  1  0  0  0  0
  5 10  1  0  0  0  0
  6  5  2  0  0  0  0
  7  8  2  0  0  0  0
  7  6  1  0  0  0  0
  8  9  1  0  0  0  0
  9  4  2  0  0  0  0
 11  8  1  0  0  0  0
 12 14  1  0  0  0  0
 12 15  1  0  0  0  0
 13 12  1  0  0  0  0
 13 14  1  0  0  0  0
 13 16  1  0  0  0  0
 14 19  1  0  0  0  0
 17 13  1  0  0  0  0
 18 14  1  0  0  0  0
 20 22  1  0  0  0  0
 21 20  1  0  0  0  0
 23 24  2  0  0  0  0
 25 20  1  0  0  0  0
 25 23  1  0  0  0  0
 26 25  1  0  0  0  0
 27 23  1  0  0  0  0
 27 33  1  0  0  0  0
 28 27  2  0  0  0  0
 29 28  1  0  0  0  0
 30 28  1  0  0  0  0
 30 31  1  0  0  0  0
 31 33  2  0  0  0  0
 31 32  1  0  0  0  0
M  END
>  <minimizedAffinity>
-4.85004234

>  <minimizedRMSD>
0.365356892

$$$$
