REMARK  Name = 
REMARK  3 active torsions:
REMARK  status: ('A' for Active; 'I' for Inactive)
REMARK    1  A    between atoms: C_1  and  N_9
REMARK    2  A    between atoms: C_2  and  N_10
REMARK    3  A    between atoms: C_7  and  C_16
REMARK                            x       y       z     vdW  Elec       q    Type
REMARK                         _______ _______ _______ _____ _____    ______ ____
ROOT
ATOM      1  C   UNL     1      45.310  34.556  45.031  0.00  0.00    +0.000 A 
ATOM      2  C   UNL     1      45.258  33.944  46.271  0.00  0.00    +0.000 A 
ATOM      3  C   UNL     1      46.166  32.906  46.470  0.00  0.00    +0.000 A 
ATOM      4  N   UNL     1      47.004  32.577  45.479  0.00  0.00    +0.000 NA
ATOM      5  C   UNL     1      47.021  33.203  44.280  0.00  0.00    +0.000 A 
ATOM      6  N   UNL     1      46.160  34.215  44.042  0.00  0.00    +0.000 NA
ATOM      7  H   UNL     1      46.120  32.435  47.437  0.00  0.00    +0.000 HD
ATOM      8  H   UNL     1      47.696  32.940  43.478  0.00  0.00    +0.000 HD
ENDROOT
BRANCH   1  11
ATOM      9  C   UNL     1      43.962  35.389  43.291  0.00  0.00    +0.000 C 
ATOM     10  O   UNL     1      44.412  34.279  42.849  0.00  0.00    +0.000 OA
ATOM     11  N   UNL     1      44.457  35.652  44.621  0.00  0.00    +0.000 N 
ATOM     12  H   UNL     1      44.220  36.501  45.167  0.00  0.00    +0.000 HD
BRANCH   9  13
ATOM     13  C   UNL     1      43.060  36.385  42.677  0.00  0.00    +0.000 A 
ATOM     14  C   UNL     1      43.337  37.072  41.472  0.00  0.00    +0.000 A 
ATOM     15  H   UNL     1      44.211  36.912  40.937  0.00  0.00    +0.000 HD
ATOM     16  S   UNL     1      41.868  38.108  41.295  0.00  0.00    +0.000 S 
ATOM     17  C   UNL     1      41.100  37.440  42.900  0.00  0.00    +0.000 A 
ATOM     18  H   UNL     1      40.188  37.538  43.556  0.00  0.00    +0.000 HD
ATOM     19  N   UNL     1      41.959  36.565  43.381  0.00  0.00    +0.000 NA
ENDBRANCH   9  13
ENDBRANCH   1  11
BRANCH   2  20
ATOM     20  N   UNL     1      44.303  34.429  47.194  0.00  0.00    +0.000 N 
ATOM     21  H   UNL     1      44.303  35.450  47.325  0.00  0.00    +0.000 HD
ATOM     22  H   UNL     1      43.678  33.744  47.670  0.00  0.00    +0.000 HD
ENDBRANCH   2  20
TORSDOF 3
