
 OpenBabel03242520193D

 33 35  0  0  0  0  0  0  0  0999 V2000
   41.0310   35.7620   39.1640 C   0  0  0  0  0  0  0  0  0  0  0  0
   40.7560   35.4170   38.1630 H   0  0  0  0  0  0  0  0  0  0  0  0
   41.2930   36.8370   39.0700 H   0  0  0  0  0  0  0  0  0  0  0  0
   43.9390   34.5830   41.2750 C   0  0  0  0  0  0  0  0  0  0  0  0
   42.7870   35.2870   40.8690 C   0  0  0  0  0  0  0  0  0  0  0  0
   42.2510   35.0450   39.6150 C   0  0  0  0  0  0  0  0  0  0  0  0
   42.8960   34.1120   38.8350 N   0  0  0  0  0  0  0  0  0  0  0  0
   44.0030   33.4630   39.2710 C   0  0  0  0  0  0  0  0  0  0  0  0
   44.5180   33.6920   40.4730 N   0  0  0  0  0  0  0  0  0  0  0  0
   42.3460   36.0080   41.5600 H   0  0  0  0  0  0  0  0  0  0  0  0
   44.4310   32.7450   38.5670 H   0  0  0  0  0  0  0  0  0  0  0  0
   44.5100   34.8600   42.6180 C   0  0  0  0  0  0  0  0  0  0  0  0
   46.0260   35.2580   42.5400 C   0  0  0  0  0  0  0  0  0  0  0  0
   44.9650   36.1290   43.0550 C   0  0  0  0  0  0  0  0  0  0  0  0
   44.3460   33.9900   43.3100 H   0  0  0  0  0  0  0  0  0  0  0  0
   46.6950   34.6980   43.2190 H   0  0  0  0  0  0  0  0  0  0  0  0
   46.4600   35.3700   41.5330 H   0  0  0  0  0  0  0  0  0  0  0  0
   44.7280   37.0370   42.4400 H   0  0  0  0  0  0  0  0  0  0  0  0
   44.9410   36.3950   44.1400 H   0  0  0  0  0  0  0  0  0  0  0  0
   39.9230   35.6180   40.1870 C   0  0  0  0  0  0  0  0  0  0  0  0
   39.2780   36.5400   40.1350 H   0  0  0  0  0  0  0  0  0  0  0  0
   40.3820   35.6300   41.1770 H   0  0  0  0  0  0  0  0  0  0  0  0
   39.2330   33.3720   40.9140 C   0  0  0  0  0  0  0  0  0  0  0  0
   39.8410   33.4770   42.0190 O   0  0  0  0  0  0  0  0  0  0  0  0
   39.1230   34.4210   39.9690 N   0  0  0  0  0  0  0  0  0  0  0  0
   38.5190   34.3910   39.1410 H   0  0  0  0  0  0  0  0  0  0  0  0
   38.6050   32.0640   40.6120 C   0  0  0  0  0  0  0  0  0  0  0  0
   38.8470   31.6120   39.3680 C   0  0  0  0  0  0  0  0  0  0  0  0
   39.3480   31.8140   38.4120 H   0  0  0  0  0  0  0  0  0  0  0  0
   37.9130   29.9580   39.3310 S   0  0  0  0  0  0  0  0  0  0  0  0
   37.3660   30.2650   41.1240 C   0  0  0  0  0  0  0  0  0  0  0  0
   36.7270   29.7980   42.0450 H   0  0  0  0  0  0  0  0  0  0  0  0
   37.8530   31.2480   41.3160 N   0  0  0  0  0  0  0  0  0  0  0  0
  1  6  1  0  0  0  0
  1 20  1  0  0  0  0
  2  1  1  0  0  0  0
  3  1  1  0  0  0  0
  4 12  1  0  0  0  0
  5  4  1  0  0  0  0
  5 10  1  0  0  0  0
  6  5  2  0  0  0  0
  7  8  2  0  0  0  0
  7  6  1  0  0  0  0
  8  9  1  0  0  0  0
  9  4  2  0  0  0  0
 11  8  1  0  0  0  0
 12 14  1  0  0  0  0
 12 15  1  0  0  0  0
 13 12  1  0  0  0  0
 13 14  1  0  0  0  0
 13 16  1  0  0  0  0
 14 19  1  0  0  0  0
 17 13  1  0  0  0  0
 18 14  1  0  0  0  0
 20 22  1  0  0  0  0
 21 20  1  0  0  0  0
 23 24  2  0  0  0  0
 25 20  1  0  0  0  0
 25 23  1  0  0  0  0
 26 25  1  0  0  0  0
 27 23  1  0  0  0  0
 27 33  1  0  0  0  0
 28 27  2  0  0  0  0
 29 28  1  0  0  0  0
 30 28  1  0  0  0  0
 30 31  1  0  0  0  0
 31 33  2  0  0  0  0
 31 32  1  0  0  0  0
M  END
>  <minimizedAffinity>
-4.84734726

>  <minimizedRMSD>
0.546494961

$$$$
