
 OpenBabel03252508503D

 26 28  0  0  0  0  0  0  0  0999 V2000
   45.9560   34.1780   41.0490 C   0  0  0  0  0  0  0  0  0  0  0  0
   46.5390   34.8080   42.1440 C   0  0  0  0  0  0  0  0  0  0  0  0
   47.8780   35.1780   42.0030 C   0  0  0  0  0  0  0  0  0  0  0  0
   48.5180   34.9050   40.8310 N   0  0  0  0  0  0  0  0  0  0  0  0
   47.9120   34.2990   39.8140 C   0  0  0  0  0  0  0  0  0  0  0  0
   46.6270   33.9290   39.9110 N   0  0  0  0  0  0  0  0  0  0  0  0
   48.3670   35.6720   42.8360 H   0  0  0  0  0  0  0  0  0  0  0  0
   48.3820   34.0640   38.8670 H   0  0  0  0  0  0  0  0  0  0  0  0
   45.7620   35.0470   43.3400 C   0  0  0  0  0  0  0  0  0  0  0  0
   45.0760   36.2350   43.5700 C   0  0  0  0  0  0  0  0  0  0  0  0
   44.4910   36.0230   44.8040 C   0  0  0  0  0  0  0  0  0  0  0  0
   44.7960   34.7930   45.2970 N   0  0  0  0  0  0  0  0  0  0  0  0
   45.5670   34.2280   44.3880 N   0  0  0  0  0  0  0  0  0  0  0  0
   45.0080   37.1100   42.9500 H   0  0  0  0  0  0  0  0  0  0  0  0
   43.8620   36.7100   45.3560 H   0  0  0  0  0  0  0  0  0  0  0  0
   44.5380   34.3150   46.1680 H   0  0  0  0  0  0  0  0  0  0  0  0
   44.6280   33.7930   41.1440 O   0  0  0  0  0  0  0  0  0  0  0  0
   43.5370   34.4430   40.6430 C   0  0  0  0  0  0  0  0  0  0  0  0
   43.3240   35.7080   40.6260 O   0  0  0  0  0  0  0  0  0  0  0  0
   42.4040   33.6820   40.0230 C   0  0  0  0  0  0  0  0  0  0  0  0
   42.2170   33.8290   38.6520 C   0  0  0  0  0  0  0  0  0  0  0  0
   42.6400   34.3480   37.7820 H   0  0  0  0  0  0  0  0  0  0  0  0
   40.7530   32.7630   38.2700 S   0  0  0  0  0  0  0  0  0  0  0  0
   40.6500   32.2880   40.1050 C   0  0  0  0  0  0  0  0  0  0  0  0
   40.0500   31.6240   41.0100 H   0  0  0  0  0  0  0  0  0  0  0  0
   41.5040   32.8680   40.5310 N   0  0  0  0  0  0  0  0  0  0  0  0
  1 17  1  0  0  0  0
  1  2  1  0  0  0  0
  2  9  1  0  0  0  0
  3  2  2  0  0  0  0
  3  7  1  0  0  0  0
  4  3  1  0  0  0  0
  5  6  1  0  0  0  0
  5  4  2  0  0  0  0
  6  1  2  0  0  0  0
  8  5  1  0  0  0  0
  9 10  1  0  0  0  0
  9 13  2  0  0  0  0
 10 11  2  0  0  0  0
 11 12  1  0  0  0  0
 11 15  1  0  0  0  0
 12 16  1  0  0  0  0
 13 12  1  0  0  0  0
 14 10  1  0  0  0  0
 18 17  1  0  0  0  0
 19 18  2  0  0  0  0
 20 26  1  0  0  0  0
 20 18  1  0  0  0  0
 21 20  2  0  0  0  0
 22 21  1  0  0  0  0
 23 21  1  0  0  0  0
 23 24  1  0  0  0  0
 24 26  2  0  0  0  0
 24 25  1  0  0  0  0
M  END
>  <minimizedAffinity>
-5.01267242

>  <minimizedRMSD>
0.568461955

$$$$
