REMARK  Name = 
REMARK  4 active torsions:
REMARK  status: ('A' for Active; 'I' for Inactive)
REMARK    1  A    between atoms: C_1  and  O_12
REMARK    2  A    between atoms: C_2  and  C_7
REMARK    3  A    between atoms: O_12  and  C_13
REMARK    4  A    between atoms: C_13  and  C_20
REMARK                            x       y       z     vdW  Elec       q    Type
REMARK                         _______ _______ _______ _____ _____    ______ ____
ROOT
ATOM      1  C   UNL     1      46.085  34.161  41.014  0.00  0.00    +0.000 A 
ATOM      2  C   UNL     1      46.617  34.835  42.109  0.00  0.00    +0.000 A 
ATOM      3  C   UNL     1      47.936  35.275  41.982  0.00  0.00    +0.000 A 
ATOM      4  N   UNL     1      48.606  35.024  40.822  0.00  0.00    +0.000 NA
ATOM      5  C   UNL     1      48.049  34.374  39.805  0.00  0.00    +0.000 A 
ATOM      6  N   UNL     1      46.784  33.936  39.889  0.00  0.00    +0.000 NA
ATOM      7  H   UNL     1      48.385  35.804  42.816  0.00  0.00    +0.000 HD
ATOM      8  H   UNL     1      48.544  34.154  38.867  0.00  0.00    +0.000 HD
ENDROOT
BRANCH   2   9
ATOM      9  C   UNL     1      45.811  35.045  43.292  0.00  0.00    +0.000 A 
ATOM     10  C   UNL     1      45.046  36.189  43.490  0.00  0.00    +0.000 A 
ATOM     11  C   UNL     1      44.461  35.963  44.722  0.00  0.00    +0.000 A 
ATOM     12  N   UNL     1      44.840  34.765  45.242  0.00  0.00    +0.000 N 
ATOM     13  N   UNL     1      45.657  34.235  44.353  0.00  0.00    +0.000 NA
ATOM     14  H   UNL     1      44.928  37.046  42.852  0.00  0.00    +0.000 HD
ATOM     15  H   UNL     1      43.781  36.617  45.253  0.00  0.00    +0.000 HD
ATOM     16  H   UNL     1      44.603  34.288  46.120  0.00  0.00    +0.000 HD
ENDBRANCH   2   9
BRANCH   1  17
ATOM     17  O   UNL     1      44.778  33.706  41.096  0.00  0.00    +0.000 OA
BRANCH  17  18
ATOM     18  C   UNL     1      43.688  34.187  40.430  0.00  0.00    +0.000 C 
ATOM     19  O   UNL     1      43.253  35.394  40.418  0.00  0.00    +0.000 OA
BRANCH  18  20
ATOM     20  C   UNL     1      42.834  33.283  39.593  0.00  0.00    +0.000 A 
ATOM     21  C   UNL     1      41.486  33.609  39.481  0.00  0.00    +0.000 A 
ATOM     22  H   UNL     1      40.758  34.359  39.814  0.00  0.00    +0.000 HD
ATOM     23  S   UNL     1      40.780  32.285  38.398  0.00  0.00    +0.000 S 
ATOM     24  C   UNL     1      42.501  31.494  38.284  0.00  0.00    +0.000 A 
ATOM     25  H   UNL     1      43.222  30.553  37.819  0.00  0.00    +0.000 HD
ATOM     26  N   UNL     1      43.106  32.191  38.913  0.00  0.00    +0.000 NA
ENDBRANCH  18  20
ENDBRANCH  17  18
ENDBRANCH   1  17
TORSDOF 4
