REMARK  Name = 
REMARK  2 active torsions:
REMARK  status: ('A' for Active; 'I' for Inactive)
REMARK    1  A    between atoms: C_3  and  N_9
REMARK    2  A    between atoms: C_7  and  C_14
REMARK                            x       y       z     vdW  Elec       q    Type
REMARK                         _______ _______ _______ _____ _____    ______ ____
ROOT
ATOM      1  C   UNL     1      46.375  34.208  40.803  0.00  0.00    +0.000 C 
ATOM      2  O   UNL     1      45.223  33.721  40.938  0.00  0.00    +0.000 OA
ATOM      3  N   UNL     1      46.894  34.855  41.951  0.00  0.00    +0.000 N 
ATOM      4  H   UNL     1      47.872  35.240  41.796  0.00  0.00    +0.000 HD
ENDROOT
BRANCH   3   7
ATOM      5  C   UNL     1      44.536  36.047  44.559  0.00  0.00    +0.000 A 
ATOM      6  C   UNL     1      45.250  36.013  43.354  0.00  0.00    +0.000 A 
ATOM      7  C   UNL     1      46.147  34.947  43.142  0.00  0.00    +0.000 A 
ATOM      8  N   UNL     1      46.285  33.995  44.110  0.00  0.00    +0.000 NA
ATOM      9  C   UNL     1      45.568  34.078  45.257  0.00  0.00    +0.000 A 
ATOM     10  N   UNL     1      44.706  35.078  45.492  0.00  0.00    +0.000 NA
ATOM     11  H   UNL     1      43.854  36.868  44.707  0.00  0.00    +0.000 HD
ATOM     12  H   UNL     1      45.118  36.777  42.614  0.00  0.00    +0.000 HD
ATOM     13  H   UNL     1      45.699  33.309  46.006  0.00  0.00    +0.000 HD
ENDBRANCH   3   7
BRANCH   1  14
ATOM     14  C   UNL     1      46.964  34.016  39.487  0.00  0.00    +0.000 A 
ATOM     15  C   UNL     1      46.668  32.936  38.709  0.00  0.00    +0.000 A 
ATOM     16  H   UNL     1      46.025  32.060  38.817  0.00  0.00    +0.000 HD
ATOM     17  S   UNL     1      47.675  33.254  37.250  0.00  0.00    +0.000 S 
ATOM     18  C   UNL     1      48.343  34.869  38.000  0.00  0.00    +0.000 A 
ATOM     19  H   UNL     1      49.084  35.209  37.056  0.00  0.00    +0.000 HD
ATOM     20  N   UNL     1      47.809  34.873  38.983  0.00  0.00    +0.000 NA
ENDBRANCH   1  14
TORSDOF 2
