
 OpenBabel03252503343D

 20 21  0  0  0  0  0  0  0  0999 V2000
   46.3830   34.0220   40.8840 C   0  0  0  0  0  0  0  0  0  0  0  0
   45.3360   33.3630   41.1130 O   0  0  0  0  0  0  0  0  0  0  0  0
   46.8350   34.8260   41.9590 N   0  0  0  0  0  0  0  0  0  0  0  0
   47.7270   35.3550   41.7260 H   0  0  0  0  0  0  0  0  0  0  0  0
   44.5220   35.8840   44.6630 C   0  0  0  0  0  0  0  0  0  0  0  0
   45.1840   35.8870   43.4280 C   0  0  0  0  0  0  0  0  0  0  0  0
   46.1360   34.8780   43.1810 C   0  0  0  0  0  0  0  0  0  0  0  0
   46.3760   33.9430   44.1450 N   0  0  0  0  0  0  0  0  0  0  0  0
   45.7050   33.9880   45.3220 C   0  0  0  0  0  0  0  0  0  0  0  0
   44.7930   34.9330   45.5910 N   0  0  0  0  0  0  0  0  0  0  0  0
   43.7970   36.6610   44.8380 H   0  0  0  0  0  0  0  0  0  0  0  0
   44.9720   36.6370   42.6920 H   0  0  0  0  0  0  0  0  0  0  0  0
   45.9170   33.2330   46.0670 H   0  0  0  0  0  0  0  0  0  0  0  0
   46.9380   33.8370   39.5520 C   0  0  0  0  0  0  0  0  0  0  0  0
   48.1590   34.3290   39.2000 C   0  0  0  0  0  0  0  0  0  0  0  0
   48.9360   34.8990   39.7090 H   0  0  0  0  0  0  0  0  0  0  0  0
   48.2830   33.7920   37.4840 S   0  0  0  0  0  0  0  0  0  0  0  0
   46.5750   32.9600   37.5670 C   0  0  0  0  0  0  0  0  0  0  0  0
   46.5310   32.5300   36.3980 H   0  0  0  0  0  0  0  0  0  0  0  0
   46.2890   33.1850   38.6250 N   0  0  0  0  0  0  0  0  0  0  0  0
  1  2  2  0  0  0  0
  1  3  1  0  0  0  0
  3  7  1  0  0  0  0
  4  3  1  0  0  0  0
  5 11  1  0  0  0  0
  5 10  1  0  0  0  0
  6  5  2  0  0  0  0
  7  6  1  0  0  0  0
  7  8  2  0  0  0  0
  8  9  1  0  0  0  0
  9 10  2  0  0  0  0
  9 13  1  0  0  0  0
 12  6  1  0  0  0  0
 14  1  1  0  0  0  0
 15 14  2  0  0  0  0
 15 16  1  0  0  0  0
 17 18  1  0  0  0  0
 17 15  1  0  0  0  0
 18 20  2  0  0  0  0
 19 18  1  0  0  0  0
 20 14  1  0  0  0  0
M  END
>  <minimizedAffinity>
-4.1190958

>  <minimizedRMSD>
0.378805071

$$$$
