
 OpenBabel03252503343D

 20 21  0  0  0  0  0  0  0  0999 V2000
   46.3540   34.0570   40.8260 C   0  0  0  0  0  0  0  0  0  0  0  0
   45.2460   33.4930   41.0190 O   0  0  0  0  0  0  0  0  0  0  0  0
   46.8460   34.8080   41.9220 N   0  0  0  0  0  0  0  0  0  0  0  0
   47.7880   35.2570   41.7190 H   0  0  0  0  0  0  0  0  0  0  0  0
   44.5170   36.0140   44.5490 C   0  0  0  0  0  0  0  0  0  0  0  0
   45.2080   35.9660   43.3310 C   0  0  0  0  0  0  0  0  0  0  0  0
   46.1210   34.9130   43.1250 C   0  0  0  0  0  0  0  0  0  0  0  0
   46.2960   33.9850   44.1110 N   0  0  0  0  0  0  0  0  0  0  0  0
   45.6000   34.0810   45.2700 C   0  0  0  0  0  0  0  0  0  0  0  0
   44.7240   35.0690   45.5000 N   0  0  0  0  0  0  0  0  0  0  0  0
   43.8230   36.8250   44.6930 H   0  0  0  0  0  0  0  0  0  0  0  0
   45.0470   36.7110   42.5770 H   0  0  0  0  0  0  0  0  0  0  0  0
   45.7600   33.3310   46.0330 H   0  0  0  0  0  0  0  0  0  0  0  0
   46.9260   33.8340   39.5080 C   0  0  0  0  0  0  0  0  0  0  0  0
   48.1600   34.3000   39.1640 C   0  0  0  0  0  0  0  0  0  0  0  0
   48.9380   34.8700   39.6730 H   0  0  0  0  0  0  0  0  0  0  0  0
   48.3030   33.7230   37.4640 S   0  0  0  0  0  0  0  0  0  0  0  0
   46.5820   32.9190   37.5370 C   0  0  0  0  0  0  0  0  0  0  0  0
   46.5510   32.4630   36.3770 H   0  0  0  0  0  0  0  0  0  0  0  0
   46.2830   33.1710   38.5850 N   0  0  0  0  0  0  0  0  0  0  0  0
  1  2  2  0  0  0  0
  1  3  1  0  0  0  0
  3  7  1  0  0  0  0
  4  3  1  0  0  0  0
  5 11  1  0  0  0  0
  5 10  1  0  0  0  0
  6  5  2  0  0  0  0
  7  6  1  0  0  0  0
  7  8  2  0  0  0  0
  8  9  1  0  0  0  0
  9 10  2  0  0  0  0
  9 13  1  0  0  0  0
 12  6  1  0  0  0  0
 14  1  1  0  0  0  0
 15 14  2  0  0  0  0
 15 16  1  0  0  0  0
 17 18  1  0  0  0  0
 17 15  1  0  0  0  0
 18 20  2  0  0  0  0
 19 18  1  0  0  0  0
 20 14  1  0  0  0  0
M  END
>  <minimizedAffinity>
-4.12750244

>  <minimizedRMSD>
0.155126959

$$$$
