
 OpenBabel03242512053D

 18 19  0  0  0  0  0  0  0  0999 V2000
   38.6750   26.3570   41.2730 C   0  0  0  0  0  0  0  0  0  0  0  0
   37.4590   26.2060   41.9740 C   0  0  0  0  0  0  0  0  0  0  0  0
   36.9840   24.8940   42.1380 C   0  0  0  0  0  0  0  0  0  0  0  0
   37.7020   23.8730   41.6260 N   0  0  0  0  0  0  0  0  0  0  0  0
   38.8610   24.0600   40.9630 C   0  0  0  0  0  0  0  0  0  0  0  0
   39.3320   25.2970   40.7950 N   0  0  0  0  0  0  0  0  0  0  0  0
   39.1060   27.3350   41.1060 H   0  0  0  0  0  0  0  0  0  0  0  0
   36.0540   24.7310   42.6700 H   0  0  0  0  0  0  0  0  0  0  0  0
   39.3820   23.1920   40.5810 H   0  0  0  0  0  0  0  0  0  0  0  0
   36.7610   27.3380   42.4830 C   0  0  0  0  0  0  0  0  0  0  0  0
   36.4100   27.3010   43.6790 O   0  0  0  0  0  0  0  0  0  0  0  0
   36.4520   28.5170   41.6480 C   0  0  0  0  0  0  0  0  0  0  0  0
   37.1840   29.7330   41.8990 C   0  0  0  0  0  0  0  0  0  0  0  0
   37.9310   29.9590   42.5940 H   0  0  0  0  0  0  0  0  0  0  0  0
   36.4900   30.8670   40.6770 S   0  0  0  0  0  0  0  0  0  0  0  0
   35.3170   29.5260   40.0110 C   0  0  0  0  0  0  0  0  0  0  0  0
   34.4600   29.3610   39.1740 H   0  0  0  0  0  0  0  0  0  0  0  0
   35.5740   28.6280   40.6700 N   0  0  0  0  0  0  0  0  0  0  0  0
  1  2  1  0  0  0  0
  2  3  2  0  0  0  0
  2 10  1  0  0  0  0
  3  8  1  0  0  0  0
  4  3  1  0  0  0  0
  5  4  2  0  0  0  0
  6  5  1  0  0  0  0
  6  1  2  0  0  0  0
  7  1  1  0  0  0  0
  9  5  1  0  0  0  0
 10 11  2  0  0  0  0
 12 13  2  0  0  0  0
 12 10  1  0  0  0  0
 13 14  1  0  0  0  0
 15 13  1  0  0  0  0
 16 18  2  0  0  0  0
 16 15  1  0  0  0  0
 17 16  1  0  0  0  0
 18 12  1  0  0  0  0
M  END
>  <minimizedAffinity>
-3.81752443

$$$$

 OpenBabel03242512053D

 18 19  0  0  0  0  0  0  0  0999 V2000
   36.5860   27.5310   41.7870 C   0  0  0  0  0  0  0  0  0  0  0  0
   36.7130   28.9120   41.5200 C   0  0  0  0  0  0  0  0  0  0  0  0
   37.5750   29.6390   42.3570 C   0  0  0  0  0  0  0  0  0  0  0  0
   38.2210   28.9900   43.3480 N   0  0  0  0  0  0  0  0  0  0  0  0
   38.0720   27.6680   43.5700 C   0  0  0  0  0  0  0  0  0  0  0  0
   37.2580   26.9570   42.7880 N   0  0  0  0  0  0  0  0  0  0  0  0
   35.9420   26.9030   41.1870 H   0  0  0  0  0  0  0  0  0  0  0  0
   37.7030   30.7020   42.1890 H   0  0  0  0  0  0  0  0  0  0  0  0
   38.6240   27.2170   44.3840 H   0  0  0  0  0  0  0  0  0  0  0  0
   35.9950   29.5210   40.4520 C   0  0  0  0  0  0  0  0  0  0  0  0
   34.8010   29.1930   40.3060 O   0  0  0  0  0  0  0  0  0  0  0  0
   36.6180   30.5040   39.5410 C   0  0  0  0  0  0  0  0  0  0  0  0
   37.1160   30.0300   38.2740 C   0  0  0  0  0  0  0  0  0  0  0  0
   37.1250   29.0750   37.8490 H   0  0  0  0  0  0  0  0  0  0  0  0
   37.7690   31.5360   37.5220 S   0  0  0  0  0  0  0  0  0  0  0  0
   37.2690   32.5780   39.0330 C   0  0  0  0  0  0  0  0  0  0  0  0
   37.3050   33.7160   39.4390 H   0  0  0  0  0  0  0  0  0  0  0  0
   36.7920   31.8000   39.7190 N   0  0  0  0  0  0  0  0  0  0  0  0
  1  6  1  0  0  0  0
  2  1  2  0  0  0  0
  2  3  1  0  0  0  0
  3  4  2  0  0  0  0
  4  5  1  0  0  0  0
  5  9  1  0  0  0  0
  6  5  2  0  0  0  0
  7  1  1  0  0  0  0
  8  3  1  0  0  0  0
 10  2  1  0  0  0  0
 11 10  2  0  0  0  0
 12 18  1  0  0  0  0
 12 10  1  0  0  0  0
 13 12  2  0  0  0  0
 14 13  1  0  0  0  0
 15 13  1  0  0  0  0
 15 16  1  0  0  0  0
 16 17  1  0  0  0  0
 16 18  2  0  0  0  0
M  END
>  <minimizedAffinity>
-3.74974465

$$$$

 OpenBabel03242512053D

 18 19  0  0  0  0  0  0  0  0999 V2000
   35.8260   28.8450   41.1210 C   0  0  0  0  0  0  0  0  0  0  0  0
   36.9400   28.7530   41.9830 C   0  0  0  0  0  0  0  0  0  0  0  0
   37.8660   29.8080   41.9330 C   0  0  0  0  0  0  0  0  0  0  0  0
   37.6420   30.8300   41.0810 N   0  0  0  0  0  0  0  0  0  0  0  0
   36.5620   30.8810   40.2740 C   0  0  0  0  0  0  0  0  0  0  0  0
   35.6700   29.8900   40.3040 N   0  0  0  0  0  0  0  0  0  0  0  0
   35.0690   28.0730   41.1010 H   0  0  0  0  0  0  0  0  0  0  0  0
   38.7370   29.7790   42.5760 H   0  0  0  0  0  0  0  0  0  0  0  0
   36.4500   31.7340   39.6180 H   0  0  0  0  0  0  0  0  0  0  0  0
   37.1040   27.6380   42.8530 C   0  0  0  0  0  0  0  0  0  0  0  0
   36.1940   27.4160   43.6750 O   0  0  0  0  0  0  0  0  0  0  0  0
   38.2960   26.7650   42.8040 C   0  0  0  0  0  0  0  0  0  0  0  0
   38.4510   25.8970   41.6640 C   0  0  0  0  0  0  0  0  0  0  0  0
   37.8540   25.7530   40.8180 H   0  0  0  0  0  0  0  0  0  0  0  0
   40.0010   25.0460   42.0280 S   0  0  0  0  0  0  0  0  0  0  0  0
   40.2050   25.9930   43.6650 C   0  0  0  0  0  0  0  0  0  0  0  0
   40.9600   26.0880   44.6050 H   0  0  0  0  0  0  0  0  0  0  0  0
   39.2770   26.6580   43.6800 N   0  0  0  0  0  0  0  0  0  0  0  0
  1  2  1  0  0  0  0
  2 10  1  0  0  0  0
  3  2  2  0  0  0  0
  3  8  1  0  0  0  0
  4  3  1  0  0  0  0
  5  6  1  0  0  0  0
  5  4  2  0  0  0  0
  6  1  2  0  0  0  0
  7  1  1  0  0  0  0
  9  5  1  0  0  0  0
 10 11  2  0  0  0  0
 12 10  1  0  0  0  0
 12 18  1  0  0  0  0
 13 15  1  0  0  0  0
 13 12  2  0  0  0  0
 14 13  1  0  0  0  0
 15 16  1  0  0  0  0
 16 18  2  0  0  0  0
 16 17  1  0  0  0  0
M  END
>  <minimizedAffinity>
-3.73459864

$$$$

 OpenBabel03242512053D

 18 19  0  0  0  0  0  0  0  0999 V2000
   38.1680   25.5800   41.9380 C   0  0  0  0  0  0  0  0  0  0  0  0
   38.1890   26.6830   42.8190 C   0  0  0  0  0  0  0  0  0  0  0  0
   39.2980   26.7870   43.6740 C   0  0  0  0  0  0  0  0  0  0  0  0
   40.2630   25.8460   43.6060 N   0  0  0  0  0  0  0  0  0  0  0  0
   40.2050   24.8060   42.7500 C   0  0  0  0  0  0  0  0  0  0  0  0
   39.1610   24.6860   41.9280 N   0  0  0  0  0  0  0  0  0  0  0  0
   37.3480   25.4300   41.2490 H   0  0  0  0  0  0  0  0  0  0  0  0
   39.3560   27.6190   44.3670 H   0  0  0  0  0  0  0  0  0  0  0  0
   41.0180   24.0920   42.7530 H   0  0  0  0  0  0  0  0  0  0  0  0
   37.1290   27.6340   42.8280 C   0  0  0  0  0  0  0  0  0  0  0  0
   36.1650   27.4070   43.5850 O   0  0  0  0  0  0  0  0  0  0  0  0
   37.1480   28.8460   41.9830 C   0  0  0  0  0  0  0  0  0  0  0  0
   36.0340   29.0690   41.0950 C   0  0  0  0  0  0  0  0  0  0  0  0
   35.1670   28.5110   40.9200 H   0  0  0  0  0  0  0  0  0  0  0  0
   36.4790   30.6220   40.2890 S   0  0  0  0  0  0  0  0  0  0  0  0
   38.1030   30.7360   41.2740 C   0  0  0  0  0  0  0  0  0  0  0  0
   39.0710   31.4480   41.4060 H   0  0  0  0  0  0  0  0  0  0  0  0
   38.0650   29.7920   41.9170 N   0  0  0  0  0  0  0  0  0  0  0  0
  1  2  1  0  0  0  0
  2 10  1  0  0  0  0
  2  3  2  0  0  0  0
  3  8  1  0  0  0  0
  4  3  1  0  0  0  0
  5  9  1  0  0  0  0
  5  4  2  0  0  0  0
  6  1  2  0  0  0  0
  6  5  1  0  0  0  0
  7  1  1  0  0  0  0
 10 11  2  0  0  0  0
 12 10  1  0  0  0  0
 13 12  2  0  0  0  0
 14 13  1  0  0  0  0
 15 13  1  0  0  0  0
 15 16  1  0  0  0  0
 16 17  1  0  0  0  0
 16 18  2  0  0  0  0
 18 12  1  0  0  0  0
M  END
>  <minimizedAffinity>
-3.73264551

$$$$

 OpenBabel03242512053D

 18 19  0  0  0  0  0  0  0  0999 V2000
   37.6830   29.7670   41.8880 C   0  0  0  0  0  0  0  0  0  0  0  0
   36.7740   28.6990   41.7270 C   0  0  0  0  0  0  0  0  0  0  0  0
   35.7450   28.8830   40.7890 C   0  0  0  0  0  0  0  0  0  0  0  0
   35.6840   30.0460   40.1090 N   0  0  0  0  0  0  0  0  0  0  0  0
   36.5730   31.0430   40.2930 C   0  0  0  0  0  0  0  0  0  0  0  0
   37.5590   30.8920   41.1780 N   0  0  0  0  0  0  0  0  0  0  0  0
   38.5020   29.7020   42.5910 H   0  0  0  0  0  0  0  0  0  0  0  0
   35.0240   28.0890   40.6320 H   0  0  0  0  0  0  0  0  0  0  0  0
   36.4600   31.9480   39.7090 H   0  0  0  0  0  0  0  0  0  0  0  0
   36.9080   27.5010   42.4860 C   0  0  0  0  0  0  0  0  0  0  0  0
   36.5530   27.5390   43.6800 O   0  0  0  0  0  0  0  0  0  0  0  0
   37.4440   26.2530   41.9040 C   0  0  0  0  0  0  0  0  0  0  0  0
   38.5400   26.3580   40.9720 C   0  0  0  0  0  0  0  0  0  0  0  0
   39.0590   27.1880   40.6060 H   0  0  0  0  0  0  0  0  0  0  0  0
   38.8500   24.6330   40.5380 S   0  0  0  0  0  0  0  0  0  0  0  0
   37.4540   24.0320   41.6810 C   0  0  0  0  0  0  0  0  0  0  0  0
   36.9150   23.0130   42.0460 H   0  0  0  0  0  0  0  0  0  0  0  0
   37.0570   25.0100   42.1170 N   0  0  0  0  0  0  0  0  0  0  0  0
  1  7  1  0  0  0  0
  2  1  1  0  0  0  0
  2 10  1  0  0  0  0
  3  2  2  0  0  0  0
  4  5  2  0  0  0  0
  4  3  1  0  0  0  0
  5  6  1  0  0  0  0
  6  1  2  0  0  0  0
  8  3  1  0  0  0  0
  9  5  1  0  0  0  0
 10 11  2  0  0  0  0
 12 18  1  0  0  0  0
 12 10  1  0  0  0  0
 13 12  2  0  0  0  0
 14 13  1  0  0  0  0
 15 13  1  0  0  0  0
 15 16  1  0  0  0  0
 16 17  1  0  0  0  0
 16 18  2  0  0  0  0
M  END
>  <minimizedAffinity>
-3.66482306

$$$$

 OpenBabel03242512053D

 18 19  0  0  0  0  0  0  0  0999 V2000
   36.7030   28.3860   41.9130 C   0  0  0  0  0  0  0  0  0  0  0  0
   37.5650   29.5040   41.9200 C   0  0  0  0  0  0  0  0  0  0  0  0
   38.7530   29.3800   42.6580 C   0  0  0  0  0  0  0  0  0  0  0  0
   38.9990   28.2230   43.3070 N   0  0  0  0  0  0  0  0  0  0  0  0
   38.1480   27.1770   43.2760 C   0  0  0  0  0  0  0  0  0  0  0  0
   37.0130   27.2710   42.5810 N   0  0  0  0  0  0  0  0  0  0  0  0
   35.7690   28.4030   41.3680 H   0  0  0  0  0  0  0  0  0  0  0  0
   39.4440   30.2140   42.6910 H   0  0  0  0  0  0  0  0  0  0  0  0
   38.4140   26.2810   43.8210 H   0  0  0  0  0  0  0  0  0  0  0  0
   37.2310   30.6910   41.2070 C   0  0  0  0  0  0  0  0  0  0  0  0
   36.0240   30.9910   41.1320 O   0  0  0  0  0  0  0  0  0  0  0  0
   38.2560   31.5470   40.5740 C   0  0  0  0  0  0  0  0  0  0  0  0
   38.8040   31.1220   39.3100 C   0  0  0  0  0  0  0  0  0  0  0  0
   38.6090   30.2810   38.7200 H   0  0  0  0  0  0  0  0  0  0  0  0
   39.9810   32.4380   38.9320 S   0  0  0  0  0  0  0  0  0  0  0  0
   39.5540   33.3630   40.5380 C   0  0  0  0  0  0  0  0  0  0  0  0
   39.8470   34.3640   41.1490 H   0  0  0  0  0  0  0  0  0  0  0  0
   38.7640   32.6850   41.0070 N   0  0  0  0  0  0  0  0  0  0  0  0
  1  2  2  0  0  0  0
  1  6  1  0  0  0  0
  2  3  1  0  0  0  0
  3  8  1  0  0  0  0
  3  4  2  0  0  0  0
  5  4  1  0  0  0  0
  5  9  1  0  0  0  0
  6  5  2  0  0  0  0
  7  1  1  0  0  0  0
 10  2  1  0  0  0  0
 11 10  2  0  0  0  0
 12 18  1  0  0  0  0
 12 10  1  0  0  0  0
 13 12  2  0  0  0  0
 14 13  1  0  0  0  0
 15 13  1  0  0  0  0
 15 16  1  0  0  0  0
 16 18  2  0  0  0  0
 16 17  1  0  0  0  0
M  END
>  <minimizedAffinity>
-3.64973998

$$$$

 OpenBabel03242512053D

 18 19  0  0  0  0  0  0  0  0999 V2000
   36.7530   26.8630   40.3390 C   0  0  0  0  0  0  0  0  0  0  0  0
   37.0180   26.8760   41.7260 C   0  0  0  0  0  0  0  0  0  0  0  0
   37.1270   25.6270   42.3590 C   0  0  0  0  0  0  0  0  0  0  0  0
   36.9750   24.5070   41.6210 N   0  0  0  0  0  0  0  0  0  0  0  0
   36.7230   24.5380   40.2970 C   0  0  0  0  0  0  0  0  0  0  0  0
   36.6150   25.7130   39.6740 N   0  0  0  0  0  0  0  0  0  0  0  0
   36.6560   27.7840   39.7810 H   0  0  0  0  0  0  0  0  0  0  0  0
   37.3290   25.5880   43.4230 H   0  0  0  0  0  0  0  0  0  0  0  0
   36.6140   23.5990   39.7720 H   0  0  0  0  0  0  0  0  0  0  0  0
   37.1650   28.1030   42.4330 C   0  0  0  0  0  0  0  0  0  0  0  0
   37.1720   28.0470   43.6780 O   0  0  0  0  0  0  0  0  0  0  0  0
   37.3020   29.4020   41.7420 C   0  0  0  0  0  0  0  0  0  0  0  0
   38.6320   29.9190   41.5340 C   0  0  0  0  0  0  0  0  0  0  0  0
   39.5700   29.5370   41.7910 H   0  0  0  0  0  0  0  0  0  0  0  0
   38.3160   31.4780   40.6790 S   0  0  0  0  0  0  0  0  0  0  0  0
   36.4360   31.1940   40.7310 C   0  0  0  0  0  0  0  0  0  0  0  0
   35.4000   31.7180   40.3940 H   0  0  0  0  0  0  0  0  0  0  0  0
   36.3560   30.1890   41.2680 N   0  0  0  0  0  0  0  0  0  0  0  0
  1  2  1  0  0  0  0
  2  3  2  0  0  0  0
  2 10  1  0  0  0  0
  3  8  1  0  0  0  0
  4  3  1  0  0  0  0
  5  4  2  0  0  0  0
  6  5  1  0  0  0  0
  6  1  2  0  0  0  0
  7  1  1  0  0  0  0
  9  5  1  0  0  0  0
 10 11  2  0  0  0  0
 12 10  1  0  0  0  0
 13 12  2  0  0  0  0
 13 14  1  0  0  0  0
 15 16  1  0  0  0  0
 15 13  1  0  0  0  0
 16 18  2  0  0  0  0
 17 16  1  0  0  0  0
 18 12  1  0  0  0  0
M  END
>  <minimizedAffinity>
-3.57626414

$$$$

 OpenBabel03242512053D

 18 19  0  0  0  0  0  0  0  0999 V2000
   36.4800   27.8440   42.2480 C   0  0  0  0  0  0  0  0  0  0  0  0
   36.2940   27.9720   40.8540 C   0  0  0  0  0  0  0  0  0  0  0  0
   36.7380   26.9040   40.0580 C   0  0  0  0  0  0  0  0  0  0  0  0
   37.3070   25.8370   40.6570 N   0  0  0  0  0  0  0  0  0  0  0  0
   37.4660   25.7540   41.9940 C   0  0  0  0  0  0  0  0  0  0  0  0
   37.0520   26.7560   42.7710 N   0  0  0  0  0  0  0  0  0  0  0  0
   36.1650   28.6240   42.9270 H   0  0  0  0  0  0  0  0  0  0  0  0
   36.6160   26.9580   38.9830 H   0  0  0  0  0  0  0  0  0  0  0  0
   37.9300   24.8660   42.4030 H   0  0  0  0  0  0  0  0  0  0  0  0
   35.6850   29.1330   40.2990 C   0  0  0  0  0  0  0  0  0  0  0  0
   34.4420   29.1390   40.2130 O   0  0  0  0  0  0  0  0  0  0  0  0
   36.4730   30.2950   39.8360 C   0  0  0  0  0  0  0  0  0  0  0  0
   36.8930   31.2610   40.8190 C   0  0  0  0  0  0  0  0  0  0  0  0
   36.7430   31.3060   41.8530 H   0  0  0  0  0  0  0  0  0  0  0  0
   37.7990   32.4640   39.8230 S   0  0  0  0  0  0  0  0  0  0  0  0
   37.4720   31.4790   38.2290 C   0  0  0  0  0  0  0  0  0  0  0  0
   37.6990   31.5150   37.0420 H   0  0  0  0  0  0  0  0  0  0  0  0
   36.8650   30.5900   38.6110 N   0  0  0  0  0  0  0  0  0  0  0  0
  1  6  1  0  0  0  0
  1  7  1  0  0  0  0
  2  1  2  0  0  0  0
  3  4  2  0  0  0  0
  3  2  1  0  0  0  0
  4  5  1  0  0  0  0
  5  9  1  0  0  0  0
  5  6  2  0  0  0  0
  8  3  1  0  0  0  0
 10  2  1  0  0  0  0
 11 10  2  0  0  0  0
 12 10  1  0  0  0  0
 12 13  2  0  0  0  0
 13 14  1  0  0  0  0
 15 13  1  0  0  0  0
 16 18  2  0  0  0  0
 16 15  1  0  0  0  0
 17 16  1  0  0  0  0
 18 12  1  0  0  0  0
M  END
>  <minimizedAffinity>
-3.51721644

$$$$

 OpenBabel03242512053D

 18 19  0  0  0  0  0  0  0  0999 V2000
   39.1490   28.5970   42.9320 C   0  0  0  0  0  0  0  0  0  0  0  0
   38.3370   29.5020   42.2130 C   0  0  0  0  0  0  0  0  0  0  0  0
   36.9920   29.1370   42.0340 C   0  0  0  0  0  0  0  0  0  0  0  0
   36.5610   27.9670   42.5470 N   0  0  0  0  0  0  0  0  0  0  0  0
   37.3700   27.1300   43.2280 C   0  0  0  0  0  0  0  0  0  0  0  0
   38.6510   27.4550   43.4120 N   0  0  0  0  0  0  0  0  0  0  0  0
   40.1940   28.8070   43.1120 H   0  0  0  0  0  0  0  0  0  0  0  0
   36.3320   29.8010   41.4880 H   0  0  0  0  0  0  0  0  0  0  0  0
   36.9520   26.2080   43.6110 H   0  0  0  0  0  0  0  0  0  0  0  0
   38.8700   30.7200   41.7030 C   0  0  0  0  0  0  0  0  0  0  0  0
   39.7700   31.2710   42.3650 O   0  0  0  0  0  0  0  0  0  0  0  0
   38.3910   31.3250   40.4420 C   0  0  0  0  0  0  0  0  0  0  0  0
   38.7700   30.6940   39.2030 C   0  0  0  0  0  0  0  0  0  0  0  0
   39.3490   29.8450   39.0080 H   0  0  0  0  0  0  0  0  0  0  0  0
   37.9800   31.7490   37.9690 S   0  0  0  0  0  0  0  0  0  0  0  0
   37.2580   32.8830   39.3150 C   0  0  0  0  0  0  0  0  0  0  0  0
   36.5760   33.8740   39.4380 H   0  0  0  0  0  0  0  0  0  0  0  0
   37.6400   32.3960   40.2750 N   0  0  0  0  0  0  0  0  0  0  0  0
  1  7  1  0  0  0  0
  1  6  1  0  0  0  0
  2  1  2  0  0  0  0
  3  2  1  0  0  0  0
  3  4  2  0  0  0  0
  4  5  1  0  0  0  0
  5  6  2  0  0  0  0
  5  9  1  0  0  0  0
  8  3  1  0  0  0  0
 10  2  1  0  0  0  0
 10 11  2  0  0  0  0
 12 10  1  0  0  0  0
 13 12  2  0  0  0  0
 14 13  1  0  0  0  0
 15 13  1  0  0  0  0
 15 16  1  0  0  0  0
 16 17  1  0  0  0  0
 16 18  2  0  0  0  0
 18 12  1  0  0  0  0
M  END
>  <minimizedAffinity>
-3.51032686

$$$$
