
 OpenBabel03242512043D

 18 19  0  0  0  0  0  0  0  0999 V2000
   45.2340   36.0050   43.4040 C   0  0  0  0  0  0  0  0  0  0  0  0
   46.1400   34.9510   43.1550 C   0  0  0  0  0  0  0  0  0  0  0  0
   46.2720   33.9810   44.1630 C   0  0  0  0  0  0  0  0  0  0  0  0
   45.5400   34.1090   45.2890 N   0  0  0  0  0  0  0  0  0  0  0  0
   44.6850   35.1330   45.4880 C   0  0  0  0  0  0  0  0  0  0  0  0
   44.5430   36.0650   44.5450 N   0  0  0  0  0  0  0  0  0  0  0  0
   45.0770   36.7900   42.6770 H   0  0  0  0  0  0  0  0  0  0  0  0
   46.9560   33.1540   44.0150 H   0  0  0  0  0  0  0  0  0  0  0  0
   44.1320   35.1680   46.4180 H   0  0  0  0  0  0  0  0  0  0  0  0
   46.8760   34.8880   41.9380 C   0  0  0  0  0  0  0  0  0  0  0  0
   47.9780   35.4690   41.9070 O   0  0  0  0  0  0  0  0  0  0  0  0
   46.3730   34.1730   40.7460 C   0  0  0  0  0  0  0  0  0  0  0  0
   47.3320   33.7630   39.7500 C   0  0  0  0  0  0  0  0  0  0  0  0
   48.3690   33.8790   39.7000 H   0  0  0  0  0  0  0  0  0  0  0  0
   46.2920   32.9510   38.5180 S   0  0  0  0  0  0  0  0  0  0  0  0
   44.7200   33.2870   39.5350 C   0  0  0  0  0  0  0  0  0  0  0  0
   43.5250   33.1050   39.5020 H   0  0  0  0  0  0  0  0  0  0  0  0
   45.1330   33.8390   40.4470 N   0  0  0  0  0  0  0  0  0  0  0  0
  1  6  1  0  0  0  0
  2  1  2  0  0  0  0
  2  3  1  0  0  0  0
  3  4  2  0  0  0  0
  4  5  1  0  0  0  0
  5  9  1  0  0  0  0
  6  5  2  0  0  0  0
  7  1  1  0  0  0  0
  8  3  1  0  0  0  0
 10  2  1  0  0  0  0
 11 10  2  0  0  0  0
 12 10  1  0  0  0  0
 13 12  2  0  0  0  0
 14 13  1  0  0  0  0
 15 16  1  0  0  0  0
 15 13  1  0  0  0  0
 16 18  2  0  0  0  0
 17 16  1  0  0  0  0
 18 12  1  0  0  0  0
M  END
>  <minimizedAffinity>
-3.93816972

>  <minimizedRMSD>
0.407420903

$$$$
