
 OpenBabel03252503343D

 20 21  0  0  0  0  0  0  0  0999 V2000
   46.3540   34.0570   40.8260 C   0  0  0  0  0  0  0  0  0  0  0  0
   45.2470   33.4920   41.0190 O   0  0  0  0  0  0  0  0  0  0  0  0
   46.8460   34.8080   41.9210 N   0  0  0  0  0  0  0  0  0  0  0  0
   47.7880   35.2570   41.7180 H   0  0  0  0  0  0  0  0  0  0  0  0
   44.5170   36.0130   44.5490 C   0  0  0  0  0  0  0  0  0  0  0  0
   45.2080   35.9660   43.3310 C   0  0  0  0  0  0  0  0  0  0  0  0
   46.1210   34.9130   43.1240 C   0  0  0  0  0  0  0  0  0  0  0  0
   46.2970   33.9850   44.1100 N   0  0  0  0  0  0  0  0  0  0  0  0
   45.6010   34.0800   45.2690 C   0  0  0  0  0  0  0  0  0  0  0  0
   44.7240   35.0690   45.4990 N   0  0  0  0  0  0  0  0  0  0  0  0
   43.8220   36.8240   44.6920 H   0  0  0  0  0  0  0  0  0  0  0  0
   45.0470   36.7110   42.5770 H   0  0  0  0  0  0  0  0  0  0  0  0
   45.7610   33.3310   46.0320 H   0  0  0  0  0  0  0  0  0  0  0  0
   46.9270   33.8340   39.5080 C   0  0  0  0  0  0  0  0  0  0  0  0
   48.1600   34.2990   39.1630 C   0  0  0  0  0  0  0  0  0  0  0  0
   48.9390   34.8700   39.6730 H   0  0  0  0  0  0  0  0  0  0  0  0
   48.3040   33.7240   37.4630 S   0  0  0  0  0  0  0  0  0  0  0  0
   46.5820   32.9190   37.5370 C   0  0  0  0  0  0  0  0  0  0  0  0
   46.5510   32.4620   36.3770 H   0  0  0  0  0  0  0  0  0  0  0  0
   46.2830   33.1720   38.5840 N   0  0  0  0  0  0  0  0  0  0  0  0
  1  2  2  0  0  0  0
  1  3  1  0  0  0  0
  3  7  1  0  0  0  0
  4  3  1  0  0  0  0
  5 11  1  0  0  0  0
  5 10  1  0  0  0  0
  6  5  2  0  0  0  0
  7  6  1  0  0  0  0
  7  8  2  0  0  0  0
  8  9  1  0  0  0  0
  9 10  2  0  0  0  0
  9 13  1  0  0  0  0
 12  6  1  0  0  0  0
 14  1  1  0  0  0  0
 15 14  2  0  0  0  0
 15 16  1  0  0  0  0
 17 18  1  0  0  0  0
 17 15  1  0  0  0  0
 18 20  2  0  0  0  0
 19 18  1  0  0  0  0
 20 14  1  0  0  0  0
M  END
>  <minimizedAffinity>
-4.12767792

>  <minimizedRMSD>
0.613620281

$$$$
