
 OpenBabel03252503343D

 20 21  0  0  0  0  0  0  0  0999 V2000
   46.1810   33.9520   40.9010 C   0  0  0  0  0  0  0  0  0  0  0  0
   45.1400   33.3060   41.1860 O   0  0  0  0  0  0  0  0  0  0  0  0
   46.6820   34.7760   41.9380 N   0  0  0  0  0  0  0  0  0  0  0  0
   47.5670   35.2920   41.6580 H   0  0  0  0  0  0  0  0  0  0  0  0
   44.5010   35.9270   44.7140 C   0  0  0  0  0  0  0  0  0  0  0  0
   45.1150   35.8970   43.4540 C   0  0  0  0  0  0  0  0  0  0  0  0
   46.0320   34.8620   43.1850 C   0  0  0  0  0  0  0  0  0  0  0  0
   46.2860   33.9340   44.1530 N   0  0  0  0  0  0  0  0  0  0  0  0
   45.6630   34.0110   45.3540 C   0  0  0  0  0  0  0  0  0  0  0  0
   44.7850   34.9820   45.6440 N   0  0  0  0  0  0  0  0  0  0  0  0
   43.8020   36.7240   44.9050 H   0  0  0  0  0  0  0  0  0  0  0  0
   44.8930   36.6420   42.7160 H   0  0  0  0  0  0  0  0  0  0  0  0
   45.8850   33.2620   46.1010 H   0  0  0  0  0  0  0  0  0  0  0  0
   46.6820   33.7310   39.5530 C   0  0  0  0  0  0  0  0  0  0  0  0
   45.9950   32.9940   38.6350 C   0  0  0  0  0  0  0  0  0  0  0  0
   45.0470   32.4510   38.6340 H   0  0  0  0  0  0  0  0  0  0  0  0
   47.0890   33.0820   37.2070 S   0  0  0  0  0  0  0  0  0  0  0  0
   48.3350   34.1550   38.1640 C   0  0  0  0  0  0  0  0  0  0  0  0
   49.1790   34.2960   37.2580 H   0  0  0  0  0  0  0  0  0  0  0  0
   47.8190   34.2320   39.1550 N   0  0  0  0  0  0  0  0  0  0  0  0
  1  2  2  0  0  0  0
  1  3  1  0  0  0  0
  3  7  1  0  0  0  0
  4  3  1  0  0  0  0
  5 11  1  0  0  0  0
  5 10  1  0  0  0  0
  6  5  2  0  0  0  0
  7  6  1  0  0  0  0
  7  8  2  0  0  0  0
  8  9  1  0  0  0  0
  9 10  2  0  0  0  0
  9 13  1  0  0  0  0
 12  6  1  0  0  0  0
 14  1  1  0  0  0  0
 15 14  2  0  0  0  0
 16 15  1  0  0  0  0
 17 18  1  0  0  0  0
 17 15  1  0  0  0  0
 18 20  2  0  0  0  0
 19 18  1  0  0  0  0
 20 14  1  0  0  0  0
M  END
>  <minimizedAffinity>
-4.0482955

>  <minimizedRMSD>
0.566738069

$$$$
