
 OpenBabel03242519473D

 41 44  0  0  1  0  0  0  0  0999 V2000
   46.9240   32.7650   46.4180 C   0  0  2  0  0  0  0  0  0  0  0  0
   46.9840   32.6310   44.9490 C   0  0  1  0  0  0  0  0  0  0  0  0
   46.1550   31.4550   44.6650 O   0  0  0  0  0  0  0  0  0  0  0  0
   46.8510   30.5830   45.5360 C   0  0  0  0  0  0  0  0  0  0  0  0
   46.6430   31.3410   46.8740 C   0  0  2  0  0  0  0  0  0  0  0  0
   47.8390   33.1660   46.8890 H   0  0  0  0  0  0  0  0  0  0  0  0
   47.9580   32.3340   44.5460 H   0  0  0  0  0  0  0  0  0  0  0  0
   46.5360   29.5700   45.5380 H   0  0  0  0  0  0  0  0  0  0  0  0
   47.9310   30.6620   45.2490 H   0  0  0  0  0  0  0  0  0  0  0  0
   47.3990   30.9140   47.5710 H   0  0  0  0  0  0  0  0  0  0  0  0
   44.7170   35.2980   43.9160 C   0  0  0  0  0  0  0  0  0  0  0  0
   45.4050   35.9470   42.8930 C   0  0  0  0  0  0  0  0  0  0  0  0
   46.6810   35.4670   42.5320 C   0  0  0  0  0  0  0  0  0  0  0  0
   47.1940   34.3800   43.2000 N   0  0  0  0  0  0  0  0  0  0  0  0
   46.4930   33.7810   44.1870 C   0  0  0  0  0  0  0  0  0  0  0  0
   45.2620   34.2240   44.5530 N   0  0  0  0  0  0  0  0  0  0  0  0
   44.9710   36.7880   42.3980 H   0  0  0  0  0  0  0  0  0  0  0  0
   47.2440   35.9460   41.7410 H   0  0  0  0  0  0  0  0  0  0  0  0
   43.4460   35.7270   44.3200 O   0  0  0  0  0  0  0  0  0  0  0  0
   42.9080   36.1940   43.5930 H   0  0  0  0  0  0  0  0  0  0  0  0
   45.7910   33.5740   46.7760 O   0  0  0  0  0  0  0  0  0  0  0  0
   45.7920   33.5530   47.7660 H   0  0  0  0  0  0  0  0  0  0  0  0
   45.3410   31.1750   47.2330 O   0  0  0  0  0  0  0  0  0  0  0  0
   45.0570   30.1820   48.1350 C   0  0  0  0  0  0  0  0  0  0  0  0
   45.2280   30.5110   49.1550 H   0  0  0  0  0  0  0  0  0  0  0  0
   43.8590   30.2080   48.1490 H   0  0  0  0  0  0  0  0  0  0  0  0
   45.4430   28.8090   47.7660 C   0  0  0  0  0  0  0  0  0  0  0  0
   46.3740   28.7280   47.1710 H   0  0  0  0  0  0  0  0  0  0  0  0
   45.4980   28.1820   48.6910 H   0  0  0  0  0  0  0  0  0  0  0  0
   43.6420   28.7330   45.8750 C   0  0  0  0  0  3  0  0  0  0  0  0
   44.3900   28.2110   46.9030 C   0  0  0  0  0  0  0  0  0  0  0  0
   44.0760   26.8670   47.1670 C   0  0  0  0  0  0  0  0  0  0  0  0
   44.6000   26.3390   47.9580 H   0  0  0  0  0  0  0  0  0  0  0  0
   43.1330   26.1150   46.5000 C   0  0  0  0  0  0  0  0  0  0  0  0
   42.7160   24.8430   46.6240 N   0  0  0  0  0  0  0  0  0  0  0  0
   41.7620   24.6330   45.7050 C   0  0  0  0  0  0  0  0  0  0  0  0
   41.2060   23.7190   45.5210 H   0  0  0  0  0  0  0  0  0  0  0  0
   41.5830   25.7870   45.0020 N   0  0  0  0  0  0  0  0  0  0  0  0
   42.4280   26.7120   45.4870 C   0  0  0  0  0  0  0  0  0  0  0  0
   42.6890   28.0290   45.1770 C   0  0  0  0  0  3  0  0  0  0  0  0
   43.0690   24.1560   47.3060 H   0  0  0  0  0  0  0  0  0  0  0  0
  1 21  1  0  0  0  0
  1  5  1  0  0  0  0
  1  6  1  1  0  0  0
  2  7  1  6  0  0  0
  2  1  1  0  0  0  0
  3  2  1  0  0  0  0
  3  4  1  0  0  0  0
  4  8  1  0  0  0  0
  4  5  1  0  0  0  0
  5 23  1  0  0  0  0
  5 10  1  1  0  0  0
  9  4  1  0  0  0  0
 11 19  1  0  0  0  0
 11 16  1  0  0  0  0
 12 11  2  0  0  0  0
 13 12  1  0  0  0  0
 13 14  2  0  0  0  0
 14 15  1  0  0  0  0
 15 16  2  0  0  0  0
 15  2  1  0  0  0  0
 17 12  1  0  0  0  0
 18 13  1  0  0  0  0
 20 19  1  0  0  0  0
 21 22  1  0  0  0  0
 23 24  1  0  0  0  0
 24 26  1  0  0  0  0
 24 25  1  0  0  0  0
 27 24  1  0  0  0  0
 27 29  1  0  0  0  0
 28 27  1  0  0  0  0
 30 31  1  0  0  0  0
 31 32  2  0  0  0  0
 31 27  1  0  0  0  0
 32 33  1  0  0  0  0
 34 35  1  0  0  0  0
 34 32  1  0  0  0  0
 35 41  1  0  0  0  0
 36 35  1  0  0  0  0
 37 36  1  0  0  0  0
 38 39  1  0  0  0  0
 38 36  2  0  0  0  0
 39 34  2  0  0  0  0
 40 39  1  0  0  0  0
 40 30  2  0  0  0  0
M  END
>  <minimizedAffinity>
-5.78480244

>  <minimizedRMSD>
0.647582531

$$$$
