
 OpenBabel03252507043D

 50 54  0  0  0  0  0  0  0  0999 V2000
   41.0100   33.5910   40.2040 N   0  0  0  0  0  0  0  0  0  0  0  0
   40.3940   32.3000   40.2160 C   0  0  0  0  0  0  0  0  0  0  0  0
   39.0310   32.6940   40.7780 C   0  0  0  0  0  0  0  0  0  0  0  0
   38.3100   33.6570   39.9650 C   0  0  0  0  0  0  0  0  0  0  0  0
   39.0580   34.5290   39.0870 C   0  0  0  0  0  0  0  0  0  0  0  0
   40.5670   34.5630   39.1800 C   0  0  0  0  0  0  0  0  0  0  0  0
   40.3550   31.7280   39.3060 H   0  0  0  0  0  0  0  0  0  0  0  0
   40.8540   31.6640   40.9930 H   0  0  0  0  0  0  0  0  0  0  0  0
   39.1740   33.0140   41.8360 H   0  0  0  0  0  0  0  0  0  0  0  0
   38.4540   31.7300   40.8660 H   0  0  0  0  0  0  0  0  0  0  0  0
   37.5660   33.1060   39.3160 H   0  0  0  0  0  0  0  0  0  0  0  0
   37.6730   34.2950   40.6350 H   0  0  0  0  0  0  0  0  0  0  0  0
   38.6420   35.1780   38.3840 H   0  0  0  0  0  0  0  0  0  0  0  0
   41.9430   34.0460   41.0460 C   0  0  0  0  0  0  0  0  0  0  0  0
   41.6250   34.0090   42.1110 H   0  0  0  0  0  0  0  0  0  0  0  0
   42.1970   35.1510   40.8920 H   0  0  0  0  0  0  0  0  0  0  0  0
   43.2520   33.3540   40.9330 C   0  0  0  0  0  0  0  0  0  0  0  0
   43.1960   32.3630   41.4410 H   0  0  0  0  0  0  0  0  0  0  0  0
   43.5240   33.2090   39.8520 H   0  0  0  0  0  0  0  0  0  0  0  0
   44.2650   34.1590   41.6380 C   0  0  0  0  0  0  0  0  0  0  0  0
   43.8990   35.2980   42.3140 C   0  0  0  0  0  0  0  0  0  0  0  0
   44.8880   36.0350   42.9540 C   0  0  0  0  0  0  0  0  0  0  0  0
   46.1740   35.5840   42.8780 N   0  0  0  0  0  0  0  0  0  0  0  0
   46.4900   34.4730   42.2150 C   0  0  0  0  0  0  0  0  0  0  0  0
   45.5220   33.7820   41.6040 N   0  0  0  0  0  0  0  0  0  0  0  0
   42.9640   35.7990   42.5010 H   0  0  0  0  0  0  0  0  0  0  0  0
   44.7890   36.9560   43.5320 H   0  0  0  0  0  0  0  0  0  0  0  0
   47.8890   34.0500   42.2220 C   0  0  0  0  0  0  0  0  0  0  0  0
   48.2180   32.7150   42.0010 C   0  0  0  0  0  0  0  0  0  0  0  0
   49.5400   32.3190   42.0270 C   0  0  0  0  0  0  0  0  0  0  0  0
   50.4350   33.3300   42.2780 C   0  0  0  0  0  0  0  0  0  0  0  0
   50.1570   34.6720   42.5040 C   0  0  0  0  0  0  0  0  0  0  0  0
   48.8330   34.9780   42.4620 N   0  0  0  0  0  0  0  0  0  0  0  0
   47.4410   31.9970   41.8120 H   0  0  0  0  0  0  0  0  0  0  0  0
   49.8620   31.3200   41.8670 H   0  0  0  0  0  0  0  0  0  0  0  0
   51.4960   33.0650   42.3080 H   0  0  0  0  0  0  0  0  0  0  0  0
   50.9300   35.3960   42.6950 H   0  0  0  0  0  0  0  0  0  0  0  0
   41.5800   35.5730   38.2290 S   0  0  0  0  0  0  0  0  0  0  0  0
   40.9550   36.9500   36.2130 C   0  0  0  0  0  3  0  0  0  0  0  0
   40.9750   37.0610   37.6030 C   0  0  0  0  0  0  0  0  0  0  0  0
   40.5550   38.2660   38.0460 C   0  0  0  0  0  0  0  0  0  0  0  0
   40.5950   38.3640   39.1130 H   0  0  0  0  0  0  0  0  0  0  0  0
   40.1330   39.3320   37.3280 C   0  0  0  0  0  0  0  0  0  0  0  0
   39.7040   40.5500   37.6960 N   0  0  0  0  0  0  0  0  0  0  0  0
   39.4270   41.1630   36.5170 C   0  0  0  0  0  0  0  0  0  0  0  0
   39.0520   42.1900   36.5070 H   0  0  0  0  0  0  0  0  0  0  0  0
   39.6740   40.3620   35.4790 N   0  0  0  0  0  0  0  0  0  0  0  0
   40.1280   39.1800   35.9630 C   0  0  0  0  0  0  0  0  0  0  0  0
   40.5370   37.9920   35.3820 C   0  0  0  0  0  3  0  0  0  0  0  0
   39.6070   40.9330   38.6690 H   0  0  0  0  0  0  0  0  0  0  0  0
  1  2  1  0  0  0  0
  1 14  1  0  0  0  0
  2  3  1  0  0  0  0
  2  8  1  0  0  0  0
  3 10  1  0  0  0  0
  3  9  1  0  0  0  0
  4 12  1  0  0  0  0
  4  3  1  0  0  0  0
  5  6  2  0  0  0  0
  5  4  1  0  0  0  0
  6  1  1  0  0  0  0
  7  2  1  0  0  0  0
 11  4  1  0  0  0  0
 13  5  1  0  0  0  0
 14 15  1  0  0  0  0
 16 14  1  0  0  0  0
 17 14  1  0  0  0  0
 17 18  1  0  0  0  0
 17 20  1  0  0  0  0
 19 17  1  0  0  0  0
 20 21  1  0  0  0  0
 21 26  1  0  0  0  0
 21 22  2  0  0  0  0
 22 27  1  0  0  0  0
 23 22  1  0  0  0  0
 24 28  1  0  0  0  0
 24 23  2  0  0  0  0
 25 20  2  0  0  0  0
 25 24  1  0  0  0  0
 28 33  1  0  0  0  0
 29 30  1  0  0  0  0
 29 28  2  0  0  0  0
 30 31  2  0  0  0  0
 31 36  1  0  0  0  0
 31 32  1  0  0  0  0
 32 37  1  0  0  0  0
 33 32  2  0  0  0  0
 34 29  1  0  0  0  0
 35 30  1  0  0  0  0
 38  6  1  0  0  0  0
 39 40  1  0  0  0  0
 40 41  2  0  0  0  0
 40 38  1  0  0  0  0
 41 42  1  0  0  0  0
 43 44  1  0  0  0  0
 43 41  1  0  0  0  0
 44 50  1  0  0  0  0
 45 44  1  0  0  0  0
 46 45  1  0  0  0  0
 47 48  1  0  0  0  0
 47 45  2  0  0  0  0
 48 43  2  0  0  0  0
 49 48  1  0  0  0  0
 49 39  2  0  0  0  0
M  END
>  <minimizedAffinity>
-2.79207635

>  <minimizedRMSD>
0.614433289

$$$$
