
     RDKit          3D

 47 50  0  0  0  0  0  0  0  0999 V2000
   43.8759   35.2087   41.1835 C   0  0  0  0  0  0  0  0  0  0  0  0
   43.9643   35.5874   42.4717 C   0  0  0  0  0  0  0  0  0  0  0  0
   45.2233   35.5228   43.3043 C   0  0  0  0  0  0  0  0  0  0  0  0
   45.0062   34.6560   44.3460 O   0  0  0  0  0  0  0  0  0  0  0  0
   45.7052   32.4973   42.9515 O   0  0  0  0  0  0  0  0  0  0  0  0
   46.0008   33.3015   44.1965 P   0  0  1  0  0  0  0  0  0  0  0  0
   47.6321   33.7916   44.1001 O   0  0  0  0  0  0  0  0  0  0  0  0
   45.8611   32.3273   45.5642 O   0  0  0  0  0  0  0  0  0  0  0  0
   46.1983   32.9902   46.7255 C   0  0  0  0  0  0  0  0  0  0  0  0
   47.0536   32.2972   47.7400 C   0  0  0  0  0  0  0  0  0  0  0  0
   45.5648   32.4557   47.9857 C   0  0  0  0  0  0  0  0  0  0  0  0
   42.6203   35.3634   40.6215 O   0  0  0  0  0  0  0  0  0  0  0  0
   41.4388   35.6621   41.2168 C   0  0  0  0  0  0  0  0  0  0  0  0
   40.2874   33.5401   41.5841 C   0  0  0  0  0  0  0  0  0  0  0  0
   40.3145   34.7234   40.8587 C   0  0  0  0  0  0  0  0  0  0  0  0
   39.3472   34.9399   39.9253 C   0  0  0  0  0  0  0  0  0  0  0  0
   38.4350   33.9791   39.7822 N   0  0  0  0  0  0  0  0  0  0  0  0
   38.3933   32.8520   40.4608 C   0  0  0  0  0  0  0  0  0  0  0  0
   39.3657   32.5927   41.4245 N   0  0  0  0  0  0  0  0  0  0  0  0
   44.7083   34.8269   40.6536 H   0  0  0  0  0  0  0  0  0  0  0  0
   43.2071   35.9877   43.1288 H   0  0  0  0  0  0  0  0  0  0  0  0
   45.5499   36.5316   43.6051 H   0  0  0  0  0  0  0  0  0  0  0  0
   46.0093   35.1256   42.6386 H   0  0  0  0  0  0  0  0  0  0  0  0
   47.7363   34.5996   44.6721 H   0  0  0  0  0  0  0  0  0  0  0  0
   46.2723   34.0873   46.6355 H   0  0  0  0  0  0  0  0  0  0  0  0
   47.7435   32.9636   48.2962 H   0  0  0  0  0  0  0  0  0  0  0  0
   47.3976   31.2939   47.4924 H   0  0  0  0  0  0  0  0  0  0  0  0
   44.9636   31.5322   47.9426 H   0  0  0  0  0  0  0  0  0  0  0  0
   45.2861   33.1505   48.7996 H   0  0  0  0  0  0  0  0  0  0  0  0
   41.0670   36.6293   40.7148 H   0  0  0  0  0  0  0  0  0  0  0  0
   41.3793   35.8383   42.2818 H   0  0  0  0  0  0  0  0  0  0  0  0
   41.0107   33.2773   42.3451 H   0  0  0  0  0  0  0  0  0  0  0  0
   39.4131   35.8702   39.3908 H   0  0  0  0  0  0  0  0  0  0  0  0
   36.3250   31.6871   41.1459 C   0  0  0  0  0  0  0  0  0  0  0  0
   37.3553   31.8485   40.2417 C   0  0  0  0  0  0  0  0  0  0  0  0
   37.4725   31.0903   39.0951 C   0  0  0  0  0  0  0  0  0  0  0  0
   38.2842   31.2263   38.3946 H   0  0  0  0  0  0  0  0  0  0  0  0
   36.5164   30.1281   38.8422 C   0  0  0  0  0  0  0  0  0  0  0  0
   36.3701   29.2499   37.8210 N   0  0  0  0  0  0  0  0  0  0  0  0
   35.2501   28.5261   38.0670 C   0  0  0  0  0  0  0  0  0  0  0  0
   34.7963   27.7291   37.4897 H   0  0  0  0  0  0  0  0  0  0  0  0
   34.7028   28.9427   39.2226 N   0  0  0  0  0  0  0  0  0  0  0  0
   35.4678   29.9475   39.7405 C   0  0  0  0  0  0  0  0  0  0  0  0
   35.3737   30.7223   40.8843 C   0  0  0  0  0  0  0  0  0  0  0  0
   36.3092   32.3313   42.0289 H   0  0  0  0  0  0  0  0  0  0  0  0
   36.9817   29.1192   36.9799 H   0  0  0  0  0  0  0  0  0  0  0  0
   34.5732   30.5914   41.5794 H   0  0  0  0  0  0  0  0  0  0  0  0
  1  2  2  0
  2  3  1  0
  3  4  1  0
  6  5  2  0
  6  4  1  1
  6  8  1  0
  7  6  1  0
  8  9  1  0
  9 10  1  0
  9 11  1  0
 10 11  1  0
 12  1  1  0
 12 13  1  0
 15 13  1  0
 15 14  2  0
 16 15  1  0
 17 16  2  0
 17 18  1  0
 18 19  2  0
 19 14  1  0
  1 20  1  0
  2 21  1  0
  3 22  1  0
  3 23  1  0
  7 24  1  0
  9 25  1  0
 10 26  1  0
 10 27  1  0
 11 28  1  0
 11 29  1  0
 13 30  1  0
 13 31  1  0
 14 32  1  0
 16 33  1  0
 34 35  2  0
 35 36  1  0
 36 37  1  0
 36 38  2  0
 38 39  1  0
 39 40  1  0
 40 41  1  0
 40 42  2  0
 42 43  1  0
 43 44  2  0
 44 34  1  0
 43 38  1  0
 34 45  1  0
 39 46  1  0
 44 47  1  0
 18 35  1  0
M  ISO  8  22   8  23   8  24   3  25  13  26  13  27  13  28  13  29  13
M  ISO  6  30   8  31   8  32  14  33  14  37  15  41  14
M  END
>  <DihAtoms>  (1) 
16,17,34,33

>  <DihDeg>  (1) 
-179.99953759713563

$$$$
