
 OpenBabel03252509043D

 51 54  0  0  1  0  0  0  0  0999 V2000
   46.7160   34.3670   43.4780 N   0  0  0  0  0  0  0  0  0  0  0  0
   46.4570   34.9430   42.2140 C   0  0  0  0  0  0  0  0  0  0  0  0
   44.9880   34.9710   41.8310 C   0  0  0  0  0  0  0  0  0  0  0  0
   44.0620   35.2170   42.9900 C   0  0  0  0  0  0  0  0  0  0  0  0
   44.8190   35.4190   44.2820 C   0  0  0  0  0  0  0  0  0  0  0  0
   45.7220   34.1280   44.3920 C   0  0  2  0  0  0  0  0  0  0  0  0
   46.9850   34.5080   41.3600 H   0  0  0  0  0  0  0  0  0  0  0  0
   46.7840   36.0200   42.2390 H   0  0  0  0  0  0  0  0  0  0  0  0
   44.6840   34.0190   41.3250 H   0  0  0  0  0  0  0  0  0  0  0  0
   44.8210   35.7660   41.0710 H   0  0  0  0  0  0  0  0  0  0  0  0
   43.4380   36.1450   42.8360 H   0  0  0  0  0  0  0  0  0  0  0  0
   43.3310   34.3990   43.1470 H   0  0  0  0  0  0  0  0  0  0  0  0
   45.4530   36.3150   44.2770 H   0  0  0  0  0  0  0  0  0  0  0  0
   44.1230   35.3420   45.1320 H   0  0  0  0  0  0  0  0  0  0  0  0
   45.0430   33.2740   44.2120 H   0  0  0  0  0  0  0  0  0  0  0  0
   47.9120   33.5600   43.5250 C   0  0  0  0  0  0  0  0  0  0  0  0
   48.7160   34.1730   43.0630 H   0  0  0  0  0  0  0  0  0  0  0  0
   48.2730   33.3530   44.5600 H   0  0  0  0  0  0  0  0  0  0  0  0
   47.6700   32.3370   42.7020 C   0  0  0  0  0  0  0  0  0  0  0  0
   47.4930   31.4650   43.3300 H   0  0  0  0  0  0  0  0  0  0  0  0
   46.7740   32.4510   42.0360 H   0  0  0  0  0  0  0  0  0  0  0  0
   51.2050   32.1810   41.4410 C   0  0  0  0  0  0  0  0  0  0  0  0
   50.0930   32.3930   42.2780 C   0  0  0  0  0  0  0  0  0  0  0  0
   48.8350   32.1090   41.8080 C   0  0  0  0  0  0  0  0  0  0  0  0
   48.7310   31.6390   40.5620 N   0  0  0  0  0  0  0  0  0  0  0  0
   49.7900   31.4380   39.7680 C   0  0  0  0  0  0  0  0  0  0  0  0
   51.0320   31.7020   40.1840 N   0  0  0  0  0  0  0  0  0  0  0  0
   52.2030   32.4010   41.7980 H   0  0  0  0  0  0  0  0  0  0  0  0
   50.2790   32.7780   43.2730 H   0  0  0  0  0  0  0  0  0  0  0  0
   49.5260   31.0530   38.7890 H   0  0  0  0  0  0  0  0  0  0  0  0
   46.1520   34.2170   45.7020 O   0  0  0  0  0  0  0  0  0  0  0  0
   45.6360   31.6050   45.5850 O   0  0  0  0  0  0  0  0  0  0  0  0
   46.0480   32.7420   46.5160 P   0  0  2  0  0  0  0  0  0  0  0  0
   44.7310   32.9120   47.6030 O   0  0  0  0  0  0  0  0  0  0  0  0
   44.2240   32.0860   47.6820 H   0  0  0  0  0  0  0  0  0  0  0  0
   47.3910   32.3780   47.4130 O   0  0  0  0  0  0  0  0  0  0  0  0
   47.7550   31.0630   47.1760 C   0  0  0  0  0  0  0  0  0  0  0  0
   46.8340   30.4600   47.1760 H   0  0  0  0  0  0  0  0  0  0  0  0
   48.3270   30.9170   46.2560 H   0  0  0  0  0  0  0  0  0  0  0  0
   49.1270   31.5600   49.2410 C   0  0  0  0  0  3  0  0  0  0  0  0
   48.6250   30.6490   48.3320 C   0  0  0  0  0  0  0  0  0  0  0  0
   48.9100   29.2880   48.4490 C   0  0  0  0  0  0  0  0  0  0  0  0
   48.5090   28.5690   47.7240 H   0  0  0  0  0  0  0  0  0  0  0  0
   49.6990   28.8470   49.4840 C   0  0  0  0  0  0  0  0  0  0  0  0
   50.0870   27.5860   49.7700 N   0  0  0  0  0  0  0  0  0  0  0  0
   50.8530   27.6540   50.8800 C   0  0  0  0  0  0  0  0  0  0  0  0
   51.3250   26.8240   51.3790 H   0  0  0  0  0  0  0  0  0  0  0  0
   50.9270   28.9610   51.2620 N   0  0  0  0  0  0  0  0  0  0  0  0
   50.2200   29.7260   50.4150 C   0  0  0  0  0  0  0  0  0  0  0  0
   49.9260   31.0760   50.2810 C   0  0  0  0  0  3  0  0  0  0  0  0
   49.8860   26.6730   49.2900 H   0  0  0  0  0  0  0  0  0  0  0  0
  1 16  1  0  0  0  0
  1  6  1  0  0  0  0
  2  8  1  0  0  0  0
  2  1  1  0  0  0  0
  3  2  1  0  0  0  0
  3  4  1  0  0  0  0
  4 12  1  0  0  0  0
  4  5  1  0  0  0  0
  5  6  1  0  0  0  0
  5 14  1  0  0  0  0
  6 15  1  6  0  0  0
  6 31  1  0  0  0  0
  7  2  1  0  0  0  0
  9  3  1  0  0  0  0
 10  3  1  0  0  0  0
 11  4  1  0  0  0  0
 13  5  1  0  0  0  0
 16 18  1  0  0  0  0
 17 16  1  0  0  0  0
 19 20  1  0  0  0  0
 19 16  1  0  0  0  0
 21 19  1  0  0  0  0
 22 28  1  0  0  0  0
 22 23  1  0  0  0  0
 23 29  1  0  0  0  0
 24 23  2  0  0  0  0
 24 19  1  0  0  0  0
 25 24  1  0  0  0  0
 26 27  1  0  0  0  0
 26 25  2  0  0  0  0
 27 22  2  0  0  0  0
 30 26  1  0  0  0  0
 31 33  1  0  0  0  0
 33 32  2  6  0  0  0
 33 36  1  0  0  0  0
 33 34  1  0  0  0  0
 34 35  1  0  0  0  0
 37 38  1  0  0  0  0
 37 36  1  0  0  0  0
 37 41  1  0  0  0  0
 39 37  1  0  0  0  0
 40 50  1  0  0  0  0
 41 42  1  0  0  0  0
 41 40  2  0  0  0  0
 42 44  2  0  0  0  0
 43 42  1  0  0  0  0
 44 45  1  0  0  0  0
 44 49  1  0  0  0  0
 45 46  1  0  0  0  0
 46 48  2  0  0  0  0
 46 47  1  0  0  0  0
 49 48  1  0  0  0  0
 50 49  2  0  0  0  0
 51 45  1  0  0  0  0
M  END
>  <minimizedAffinity>
-5.57308626

>  <minimizedRMSD>
3.18428588

$$$$
