
 OpenBabel03252509083D

 44 48  0  0  0  0  0  0  0  0999 V2000
   47.1230   31.6570   37.7200 C   0  0  0  0  0  0  0  0  0  0  0  0
   46.8560   32.9450   38.0850 C   0  0  0  0  0  0  0  0  0  0  0  0
   47.7480   33.9500   37.7500 C   0  0  0  0  0  0  0  0  0  0  0  0
   48.8990   33.6590   37.0530 C   0  0  0  0  0  0  0  0  0  0  0  0
   49.2070   32.3600   36.6630 C   0  0  0  0  0  0  0  0  0  0  0  0
   48.2910   31.3610   37.0120 C   0  0  0  0  0  0  0  0  0  0  0  0
   47.5580   34.9810   38.0290 H   0  0  0  0  0  0  0  0  0  0  0  0
   49.6380   34.3700   36.7550 H   0  0  0  0  0  0  0  0  0  0  0  0
   50.0770   32.0400   36.1200 H   0  0  0  0  0  0  0  0  0  0  0  0
   48.5010   30.3330   36.7220 H   0  0  0  0  0  0  0  0  0  0  0  0
   44.6650   34.5640   42.4700 Cl  0  0  0  0  0  0  0  0  0  0  0  0
   44.6390   34.0810   40.7930 C   0  0  0  0  0  0  0  0  0  0  0  0
   45.7800   33.7210   40.1500 C   0  0  0  0  0  0  0  0  0  0  0  0
   45.6650   33.3580   38.8130 C   0  0  0  0  0  0  0  0  0  0  0  0
   44.4580   33.3650   38.1630 C   0  0  0  0  0  0  0  0  0  0  0  0
   43.3260   33.7270   38.8190 C   0  0  0  0  0  0  0  0  0  0  0  0
   43.4230   34.0880   40.1500 C   0  0  0  0  0  0  0  0  0  0  0  0
   44.4320   33.0730   37.1170 H   0  0  0  0  0  0  0  0  0  0  0  0
   42.4000   33.7160   38.2730 H   0  0  0  0  0  0  0  0  0  0  0  0
   42.5020   34.3710   40.6410 H   0  0  0  0  0  0  0  0  0  0  0  0
   48.9900   34.8960   41.7690 C   0  0  0  0  0  0  0  0  0  0  0  0
   47.7780   34.8910   41.0720 C   0  0  0  0  0  0  0  0  0  0  0  0
   47.0410   33.7370   40.8670 C   0  0  0  0  0  0  0  0  0  0  0  0
   47.6020   32.6450   41.3970 N   0  0  0  0  0  0  0  0  0  0  0  0
   48.7540   32.6270   42.0650 C   0  0  0  0  0  0  0  0  0  0  0  0
   49.4470   33.7410   42.2520 N   0  0  0  0  0  0  0  0  0  0  0  0
   49.5290   35.8210   41.9040 H   0  0  0  0  0  0  0  0  0  0  0  0
   47.3930   35.8340   40.6720 H   0  0  0  0  0  0  0  0  0  0  0  0
   49.0370   31.6340   42.4160 H   0  0  0  0  0  0  0  0  0  0  0  0
   46.0850   30.3870   38.1200 S   0  0  0  0  0  0  0  0  0  0  0  0
   44.9650   30.2950   37.0520 O   0  0  0  0  0  0  0  0  0  0  0  0
   46.8810   29.1020   37.8970 O   0  0  0  0  0  0  0  0  0  0  0  0
   45.7270   30.1820   40.8370 C   0  0  0  0  0  3  0  0  0  0  0  0
   45.1440   30.2940   39.5440 C   0  0  0  0  0  0  0  0  0  0  0  0
   43.7670   30.3800   39.7110 C   0  0  0  0  0  0  0  0  0  0  0  0
   43.1920   30.5010   38.8050 H   0  0  0  0  0  0  0  0  0  0  0  0
   43.0420   30.3640   40.8600 C   0  0  0  0  0  0  0  0  0  0  0  0
   41.7320   30.4370   41.1360 N   0  0  0  0  0  0  0  0  0  0  0  0
   41.6270   30.3660   42.4950 C   0  0  0  0  0  0  0  0  0  0  0  0
   40.6770   30.4010   43.0130 H   0  0  0  0  0  0  0  0  0  0  0  0
   42.8720   30.2510   43.0350 N   0  0  0  0  0  0  0  0  0  0  0  0
   43.7650   30.2480   42.0250 C   0  0  0  0  0  0  0  0  0  0  0  0
   45.1330   30.1510   42.0810 C   0  0  0  0  0  3  0  0  0  0  0  0
   40.9700   30.5280   40.4420 H   0  0  0  0  0  0  0  0  0  0  0  0
  1  2  1  0  0  0  0
  1 30  1  0  0  0  0
  2 14  1  0  0  0  0
  3  7  1  0  0  0  0
  3  2  2  0  0  0  0
  4  3  1  0  0  0  0
  5  6  1  0  0  0  0
  5  4  2  0  0  0  0
  6  1  2  0  0  0  0
  8  4  1  0  0  0  0
  9  5  1  0  0  0  0
 10  6  1  0  0  0  0
 12 11  1  0  0  0  0
 13 12  1  0  0  0  0
 13 23  1  0  0  0  0
 14 13  2  0  0  0  0
 15 14  1  0  0  0  0
 15 16  2  0  0  0  0
 16 17  1  0  0  0  0
 17 20  1  0  0  0  0
 17 12  2  0  0  0  0
 18 15  1  0  0  0  0
 19 16  1  0  0  0  0
 21 27  1  0  0  0  0
 21 26  1  0  0  0  0
 22 21  2  0  0  0  0
 23 22  1  0  0  0  0
 23 24  2  0  0  0  0
 24 25  1  0  0  0  0
 25 26  2  0  0  0  0
 25 29  1  0  0  0  0
 28 22  1  0  0  0  0
 30 34  1  0  0  0  0
 31 30  2  0  0  0  0
 32 30  2  0  0  0  0
 33 43  1  0  0  0  0
 34 35  1  0  0  0  0
 34 33  2  0  0  0  0
 35 37  2  0  0  0  0
 36 35  1  0  0  0  0
 37 38  1  0  0  0  0
 37 42  1  0  0  0  0
 38 39  1  0  0  0  0
 39 40  1  0  0  0  0
 39 41  2  0  0  0  0
 42 43  2  0  0  0  0
 42 41  1  0  0  0  0
 44 38  1  0  0  0  0
M  END
>  <minimizedAffinity>
-4.36125374

>  <minimizedRMSD>
1.65845728

$$$$
