REMARK  Name = 
REMARK  2 active torsions:
REMARK  status: ('A' for Active; 'I' for Inactive)
REMARK    1  A    between atoms: C_3  and  C_10
REMARK    2  A    between atoms: C_7  and  C_18
REMARK                            x       y       z     vdW  Elec       q    Type
REMARK                         _______ _______ _______ _____ _____    ______ ____
ROOT
ATOM      1  C   UNL     1      45.431  35.199  43.095  0.00  0.00    +0.000 A 
ATOM      2  C   UNL     1      46.454  35.560  42.214  0.00  0.00    +0.000 A 
ATOM      3  C   UNL     1      47.686  34.879  42.380  0.00  0.00    +0.000 A 
ATOM      4  N   UNL     1      47.768  33.946  43.367  0.00  0.00    +0.000 NA
ATOM      5  C   UNL     1      46.740  33.648  44.182  0.00  0.00    +0.000 A 
ATOM      6  N   UNL     1      45.564  34.273  44.051  0.00  0.00    +0.000 NA
ATOM      7  C   UNL     1      43.401  35.351  41.889  0.00  0.00    +0.000 C 
ATOM      8  O   UNL     1      43.955  34.462  41.157  0.00  0.00    +0.000 OA
ATOM      9  N   UNL     1      44.153  35.841  42.993  0.00  0.00    +0.000 N 
ATOM     10  H   UNL     1      46.227  36.319  41.486  0.00  0.00    +0.000 HD
ATOM     11  H   UNL     1      46.930  32.886  44.930  0.00  0.00    +0.000 HD
ATOM     12  H   UNL     1      43.800  36.562  43.621  0.00  0.00    +0.000 HD
ENDROOT
BRANCH   7  14
ATOM     13  C   UNL     1      41.602  37.122  41.906  0.00  0.00    +0.000 A 
ATOM     14  C   UNL     1      42.055  35.848  41.609  0.00  0.00    +0.000 A 
ATOM     15  C   UNL     1      41.169  34.995  41.009  0.00  0.00    +0.000 A 
ATOM     16  H   UNL     1      41.474  34.002  40.761  0.00  0.00    +0.000 HD
ATOM     17  C   UNL     1      39.862  35.382  40.704  0.00  0.00    +0.000 A 
ATOM     18  N   UNL     1      38.810  34.748  40.124  0.00  0.00    +0.000 N 
ATOM     19  C   UNL     1      37.759  35.613  40.075  0.00  0.00    +0.000 A 
ATOM     20  H   UNL     1      36.759  35.435  39.673  0.00  0.00    +0.000 HD
ATOM     21  N   UNL     1      38.140  36.781  40.616  0.00  0.00    +0.000 NA
ATOM     22  C   UNL     1      39.421  36.660  41.006  0.00  0.00    +0.000 A 
ATOM     23  C   UNL     1      40.314  37.521  41.612  0.00  0.00    +0.000 A 
ATOM     24  H   UNL     1      38.799  33.760  39.772  0.00  0.00    +0.000 HD
ENDBRANCH   7  14
BRANCH   3  25
ATOM     25  C   UNL     1      48.735  35.274  41.449  0.00  0.00    +0.000 C 
ATOM     26  F   UNL     1      49.851  34.452  41.666  0.00  0.00    +0.000 F 
ATOM     27  F   UNL     1      49.145  36.548  41.809  0.00  0.00    +0.000 F 
ATOM     28  F   UNL     1      48.388  35.140  40.142  0.00  0.00    +0.000 F 
ENDBRANCH   3  25
TORSDOF 2
