
 OpenBabel03252509293D

 24 26  0  0  0  0  0  0  0  0999 V2000
   47.0400   34.6490   42.2510 C   0  0  0  0  0  0  0  0  0  0  0  0
   47.2500   35.6370   41.8160 H   0  0  0  0  0  0  0  0  0  0  0  0
   48.0310   34.2330   42.5340 H   0  0  0  0  0  0  0  0  0  0  0  0
   46.9550   32.4450   41.1680 C   0  0  0  0  0  3  0  0  0  0  0  0
   46.4830   33.7400   41.2130 C   0  0  0  0  0  0  0  0  0  0  0  0
   45.5250   34.1640   40.3150 C   0  0  0  0  0  0  0  0  0  0  0  0
   45.1440   35.1890   40.3410 H   0  0  0  0  0  0  0  0  0  0  0  0
   45.0200   33.3030   39.3590 C   0  0  0  0  0  0  0  0  0  0  0  0
   44.0960   33.4330   38.3680 N   0  0  0  0  0  0  0  0  0  0  0  0
   44.0330   32.2170   37.7530 C   0  0  0  0  0  0  0  0  0  0  0  0
   43.3780   32.0070   36.9170 H   0  0  0  0  0  0  0  0  0  0  0  0
   44.8930   31.3520   38.3420 N   0  0  0  0  0  0  0  0  0  0  0  0
   45.5010   32.0260   39.3330 C   0  0  0  0  0  0  0  0  0  0  0  0
   46.4650   31.5540   40.2160 C   0  0  0  0  0  3  0  0  0  0  0  0
   43.5540   34.2980   38.1400 H   0  0  0  0  0  0  0  0  0  0  0  0
   44.5270   35.8760   44.7020 C   0  0  0  0  0  0  0  0  0  0  0  0
   45.3200   35.7770   43.5380 C   0  0  0  0  0  0  0  0  0  0  0  0
   46.2280   34.7360   43.4620 C   0  0  0  0  0  0  0  0  0  0  0  0
   46.3190   33.8590   44.5050 N   0  0  0  0  0  0  0  0  0  0  0  0
   45.5410   33.9890   45.6010 C   0  0  0  0  0  0  0  0  0  0  0  0
   44.6560   34.9830   45.7030 N   0  0  0  0  0  0  0  0  0  0  0  0
   43.8020   36.6720   44.8110 H   0  0  0  0  0  0  0  0  0  0  0  0
   45.1700   36.5180   42.7790 H   0  0  0  0  0  0  0  0  0  0  0  0
   45.6580   33.2520   46.4100 H   0  0  0  0  0  0  0  0  0  0  0  0
  1  3  1  0  0  0  0
  1 18  1  0  0  0  0
  2  1  1  0  0  0  0
  4  5  1  0  0  0  0
  5  1  1  0  0  0  0
  6  7  1  0  0  0  0
  6  5  2  0  0  0  0
  8  6  1  0  0  0  0
  9  8  1  0  0  0  0
 10 12  2  0  0  0  0
 10  9  1  0  0  0  0
 11 10  1  0  0  0  0
 12 13  1  0  0  0  0
 13  8  2  0  0  0  0
 13 14  1  0  0  0  0
 14  4  2  0  0  0  0
 15  9  1  0  0  0  0
 16 22  1  0  0  0  0
 16 21  1  0  0  0  0
 17 16  2  0  0  0  0
 18 17  1  0  0  0  0
 18 19  2  0  0  0  0
 19 20  1  0  0  0  0
 20 21  2  0  0  0  0
 20 24  1  0  0  0  0
 23 17  1  0  0  0  0
M  END
>  <minimizedAffinity>
-3.91223049

>  <minimizedRMSD>
0.645175338

$$$$
