
     RDKit          3D

 53 56  0  0  0  0  0  0  0  0999 V2000
   47.1507   34.1589   43.0732 N   0  0  0  0  0  0  0  0  0  0  0  0
   46.6461   35.3545   42.5166 C   0  0  0  0  0  0  0  0  0  0  0  0
   45.1554   35.5572   42.7180 C   0  0  0  0  0  0  0  0  0  0  0  0
   44.6466   35.0520   44.0408 C   0  0  0  0  0  0  0  0  0  0  0  0
   45.7593   34.4849   44.8924 C   0  0  0  0  0  0  0  0  0  0  0  0
   46.4276   33.4011   43.9591 C   0  0  2  0  0  0  0  0  0  0  0  0
   48.1599   33.5128   42.2684 C   0  0  0  0  0  0  0  0  0  0  0  0
   47.4616   32.6534   41.2652 C   0  0  0  0  0  0  0  0  0  0  0  0
   49.3364   32.2753   38.0311 C   0  0  0  0  0  0  0  0  0  0  0  0
   48.8183   32.0128   39.3141 C   0  0  0  0  0  0  0  0  0  0  0  0
   48.0018   32.9421   39.9115 C   0  0  0  0  0  0  0  0  0  0  0  0
   47.7386   34.0624   39.2329 N   0  0  0  0  0  0  0  0  0  0  0  0
   48.2335   34.3081   38.0128 C   0  0  0  0  0  0  0  0  0  0  0  0
   49.0305   33.4334   37.3953 N   0  0  0  0  0  0  0  0  0  0  0  0
   47.2175   32.7220   44.8671 O   0  0  0  0  0  0  0  0  0  0  0  0
   46.0377   30.5457   43.8803 O   0  0  0  0  0  0  0  0  0  0  0  0
   46.6883   31.1408   45.1255 P   0  0  2  0  0  0  0  0  0  0  0  0
   45.4103   31.2681   46.2651 O   0  0  0  0  0  0  0  0  0  0  0  0
   47.8417   30.1494   45.7796 O   0  0  0  0  0  0  0  0  0  0  0  0
   47.7399   28.8922   45.2069 C   0  0  0  0  0  0  0  0  0  0  0  0
   46.8332   35.5168   41.4513 H   0  0  0  0  0  0  0  0  0  0  0  0
   47.1421   36.2246   43.0333 H   0  0  0  0  0  0  0  0  0  0  0  0
   44.5670   35.0702   41.8987 H   0  0  0  0  0  0  0  0  0  0  0  0
   44.9162   36.6402   42.6385 H   0  0  0  0  0  0  0  0  0  0  0  0
   44.1682   35.8759   44.6462 H   0  0  0  0  0  0  0  0  0  0  0  0
   43.8635   34.2739   43.9400 H   0  0  0  0  0  0  0  0  0  0  0  0
   46.5064   35.2351   45.1826 H   0  0  0  0  0  0  0  0  0  0  0  0
   45.3265   33.9061   45.7230 H   0  0  0  0  0  0  0  0  0  0  0  0
   45.5945   32.7920   43.5647 H   0  0  0  0  0  0  0  0  0  0  0  0
   48.7088   34.3276   41.7489 H   0  0  0  0  0  0  0  0  0  0  0  0
   48.9387   32.9821   42.8648 H   0  0  0  0  0  0  0  0  0  0  0  0
   47.5731   31.5958   41.5042 H   0  0  0  0  0  0  0  0  0  0  0  0
   46.3624   32.8683   41.2220 H   0  0  0  0  0  0  0  0  0  0  0  0
   49.9810   31.5524   37.5482 H   0  0  0  0  0  0  0  0  0  0  0  0
   49.0887   31.0759   39.7841 H   0  0  0  0  0  0  0  0  0  0  0  0
   47.9192   35.2640   37.6078 H   0  0  0  0  0  0  0  0  0  0  0  0
   44.6998   30.6295   46.0768 H   0  0  0  0  0  0  0  0  0  0  0  0
   46.7503   28.4879   45.4704 H   0  0  0  0  0  0  0  0  0  0  0  0
   47.9012   28.8803   44.1264 H   0  0  0  0  0  0  0  0  0  0  0  0
   49.8525   28.5982   46.5659 C   0  0  0  0  0  0  0  0  0  0  0  0
   48.8110   28.0479   45.8437 C   0  0  0  0  0  0  0  0  0  0  0  0
   48.7079   26.6674   45.6727 C   0  0  0  0  0  0  0  0  0  0  0  0
   47.8789   26.2353   45.0984 H   0  0  0  0  0  0  0  0  0  0  0  0
   49.6560   25.8427   46.2305 C   0  0  0  0  0  0  0  0  0  0  0  0
   49.7346   24.4959   46.1808 N   0  0  0  0  0  0  0  0  0  0  0  0
   50.8374   24.1413   46.8752 C   0  0  0  0  0  0  0  0  0  0  0  0
   51.1953   23.1380   47.0337 H   0  0  0  0  0  0  0  0  0  0  0  0
   51.4237   25.2813   47.3440 N   0  0  0  0  0  0  0  0  0  0  0  0
   50.7130   26.3534   46.9598 C   0  0  0  0  0  0  0  0  0  0  0  0
   50.7983   27.7292   47.1189 C   0  0  0  0  0  0  0  0  0  0  0  0
   49.9159   29.6692   46.6876 H   0  0  0  0  0  0  0  0  0  0  0  0
   49.1152   23.7798   45.7221 H   0  0  0  0  0  0  0  0  0  0  0  0
   51.6376   28.1315   47.6977 H   0  0  0  0  0  0  0  0  0  0  0  0
  1  6  1  0
  2  3  1  0
  2  1  1  0
  3  4  1  0
  4  5  1  0
  6 15  1  0
  6  5  1  0
  7  1  1  0
  8  7  1  0
  9 10  2  0
 10 11  1  0
 11  8  1  0
 12 11  2  0
 13 12  1  0
 14 13  2  0
 14  9  1  0
 17 15  1  6
 17 16  2  0
 17 19  1  0
 17 18  1  0
 20 19  1  0
  2 21  1  0
  2 22  1  0
  3 23  1  0
  3 24  1  0
  4 25  1  0
  4 26  1  0
  5 27  1  0
  5 28  1  0
  6 29  1  6
  7 30  1  0
  7 31  1  0
  8 32  1  0
  8 33  1  0
  9 34  1  0
 10 35  1  0
 13 36  1  0
 18 37  1  0
 20 38  1  0
 20 39  1  0
 40 41  2  0
 41 42  1  0
 42 43  1  0
 42 44  2  0
 44 45  1  0
 45 46  1  0
 46 47  1  0
 46 48  2  0
 48 49  1  0
 49 50  2  0
 50 40  1  0
 49 44  1  0
 40 51  1  0
 45 52  1  0
 50 53  1  0
 20 41  1  0
M  ISO  8  21  13  22  13  23  13  24  13  25  13  26  13  27  13  28  13
M  ISO  8  29  13  30   8  31   8  32   8  33   8  34  14  35  14  36  14
M  ISO  5  37   3  38   8  39   8  43  15  47  14
M  END
>  <DihAtoms>  (1) 
18,19,40,39

>  <DihDeg>  (1) 
90.00050032448611

$$$$
