
 OpenBabel03242523293D

 24 26  0  0  0  0  0  0  0  0999 V2000
   36.2180   28.0350   42.1680 C   0  0  0  0  0  0  0  0  0  0  0  0
   36.0640   28.6660   43.0850 H   0  0  0  0  0  0  0  0  0  0  0  0
   35.3170   27.4610   41.9370 H   0  0  0  0  0  0  0  0  0  0  0  0
   36.7660   28.6350   39.7690 C   0  0  0  0  0  3  0  0  0  0  0  0
   36.5190   28.9930   41.0800 C   0  0  0  0  0  0  0  0  0  0  0  0
   36.5520   30.3300   41.4150 C   0  0  0  0  0  0  0  0  0  0  0  0
   36.3720   30.7050   42.4190 H   0  0  0  0  0  0  0  0  0  0  0  0
   36.8310   31.2750   40.4280 C   0  0  0  0  0  0  0  0  0  0  0  0
   36.9300   32.6280   40.4510 N   0  0  0  0  0  0  0  0  0  0  0  0
   37.2220   33.0340   39.2000 C   0  0  0  0  0  0  0  0  0  0  0  0
   37.3710   34.0470   38.8580 H   0  0  0  0  0  0  0  0  0  0  0  0
   37.3120   31.9680   38.3780 N   0  0  0  0  0  0  0  0  0  0  0  0
   37.0730   30.8650   39.1140 C   0  0  0  0  0  0  0  0  0  0  0  0
   37.0450   29.5400   38.7670 C   0  0  0  0  0  3  0  0  0  0  0  0
   36.7960   33.2290   41.3160 H   0  0  0  0  0  0  0  0  0  0  0  0
   38.6300   25.2070   42.3820 C   0  0  0  0  0  0  0  0  0  0  0  0
   39.6430   25.7460   43.2020 C   0  0  0  0  0  0  0  0  0  0  0  0
   39.4530   27.0460   43.6420 C   0  0  0  0  0  0  0  0  0  0  0  0
   38.3380   27.7520   43.2880 N   0  0  0  0  0  0  0  0  0  0  0  0
   37.3930   27.1800   42.4930 C   0  0  0  0  0  0  0  0  0  0  0  0
   37.5590   25.9260   42.0590 N   0  0  0  0  0  0  0  0  0  0  0  0
   38.6960   24.2100   41.9980 H   0  0  0  0  0  0  0  0  0  0  0  0
   40.5030   25.1380   43.4490 H   0  0  0  0  0  0  0  0  0  0  0  0
   40.2150   27.4860   44.2750 H   0  0  0  0  0  0  0  0  0  0  0  0
  1 20  1  0  0  0  0
  1  2  1  0  0  0  0
  3  1  1  0  0  0  0
  4  5  1  0  0  0  0
  5  6  2  0  0  0  0
  5  1  1  0  0  0  0
  6  7  1  0  0  0  0
  8  9  1  0  0  0  0
  8  6  1  0  0  0  0
  9 15  1  0  0  0  0
 10  9  1  0  0  0  0
 11 10  1  0  0  0  0
 12 13  1  0  0  0  0
 12 10  2  0  0  0  0
 13  8  2  0  0  0  0
 14 13  1  0  0  0  0
 14  4  2  0  0  0  0
 16 17  1  0  0  0  0
 17 23  1  0  0  0  0
 17 18  2  0  0  0  0
 18 24  1  0  0  0  0
 19 18  1  0  0  0  0
 20 19  2  0  0  0  0
 21 16  2  0  0  0  0
 21 20  1  0  0  0  0
 22 16  1  0  0  0  0
M  END
>  <minimizedAffinity>
-5.04743004

$$$$

 OpenBabel03242523293D

 24 26  0  0  0  0  0  0  0  0999 V2000
   37.5960   28.2870   43.6350 C   0  0  0  0  0  0  0  0  0  0  0  0
   38.0650   28.5420   44.6230 H   0  0  0  0  0  0  0  0  0  0  0  0
   36.5110   28.1980   43.7320 H   0  0  0  0  0  0  0  0  0  0  0  0
   39.1870   30.0190   42.6920 C   0  0  0  0  0  3  0  0  0  0  0  0
   37.9480   29.4100   42.7340 C   0  0  0  0  0  0  0  0  0  0  0  0
   36.9590   29.8660   41.8880 C   0  0  0  0  0  0  0  0  0  0  0  0
   35.9570   29.4490   41.8520 H   0  0  0  0  0  0  0  0  0  0  0  0
   37.2370   30.9210   41.0190 C   0  0  0  0  0  0  0  0  0  0  0  0
   36.4890   31.5710   40.0920 N   0  0  0  0  0  0  0  0  0  0  0  0
   37.2690   32.5190   39.5370 C   0  0  0  0  0  0  0  0  0  0  0  0
   36.9960   33.2220   38.7640 H   0  0  0  0  0  0  0  0  0  0  0  0
   38.5000   32.4880   40.0890 N   0  0  0  0  0  0  0  0  0  0  0  0
   38.5070   31.5060   41.0110 C   0  0  0  0  0  0  0  0  0  0  0  0
   39.4970   31.0630   41.8470 C   0  0  0  0  0  3  0  0  0  0  0  0
   35.4760   31.3490   39.8700 H   0  0  0  0  0  0  0  0  0  0  0  0
   39.9800   25.4500   43.2740 C   0  0  0  0  0  0  0  0  0  0  0  0
   39.3200   24.6310   42.3360 C   0  0  0  0  0  0  0  0  0  0  0  0
   38.0970   25.0860   41.8710 C   0  0  0  0  0  0  0  0  0  0  0  0
   37.5730   26.2680   42.3130 N   0  0  0  0  0  0  0  0  0  0  0  0
   38.2550   27.0180   43.2210 C   0  0  0  0  0  0  0  0  0  0  0  0
   39.4380   26.5950   43.6800 N   0  0  0  0  0  0  0  0  0  0  0  0
   40.9290   25.1760   43.6840 H   0  0  0  0  0  0  0  0  0  0  0  0
   39.7850   23.7050   42.0230 H   0  0  0  0  0  0  0  0  0  0  0  0
   37.5670   24.4760   41.1480 H   0  0  0  0  0  0  0  0  0  0  0  0
  1  3  1  0  0  0  0
  1  2  1  0  0  0  0
  4  5  1  0  0  0  0
  5  1  1  0  0  0  0
  6  5  2  0  0  0  0
  7  6  1  0  0  0  0
  8  6  1  0  0  0  0
  9  8  1  0  0  0  0
 10 12  2  0  0  0  0
 10  9  1  0  0  0  0
 11 10  1  0  0  0  0
 12 13  1  0  0  0  0
 13  8  2  0  0  0  0
 13 14  1  0  0  0  0
 14  4  2  0  0  0  0
 15  9  1  0  0  0  0
 16 21  1  0  0  0  0
 16 22  1  0  0  0  0
 17 16  2  0  0  0  0
 18 19  2  0  0  0  0
 18 17  1  0  0  0  0
 19 20  1  0  0  0  0
 20  1  1  0  0  0  0
 20 21  2  0  0  0  0
 23 17  1  0  0  0  0
 24 18  1  0  0  0  0
M  END
>  <minimizedAffinity>
-4.9861474

$$$$

 OpenBabel03242523293D

 24 26  0  0  0  0  0  0  0  0999 V2000
   35.6700   28.7870   41.0190 C   0  0  0  0  0  0  0  0  0  0  0  0
   35.3090   28.0950   40.2120 H   0  0  0  0  0  0  0  0  0  0  0  0
   34.8520   29.0560   41.6930 H   0  0  0  0  0  0  0  0  0  0  0  0
   37.3140   28.4490   42.9170 C   0  0  0  0  0  3  0  0  0  0  0  0
   36.7150   28.0280   41.7450 C   0  0  0  0  0  0  0  0  0  0  0  0
   37.1050   26.8240   41.2010 C   0  0  0  0  0  0  0  0  0  0  0  0
   36.6910   26.4140   40.2830 H   0  0  0  0  0  0  0  0  0  0  0  0
   38.0860   26.0690   41.8440 C   0  0  0  0  0  0  0  0  0  0  0  0
   38.6630   24.8750   41.5580 N   0  0  0  0  0  0  0  0  0  0  0  0
   39.5600   24.6170   42.5290 C   0  0  0  0  0  0  0  0  0  0  0  0
   40.2000   23.7500   42.6180 H   0  0  0  0  0  0  0  0  0  0  0  0
   39.5690   25.6220   43.4300 N   0  0  0  0  0  0  0  0  0  0  0  0
   38.6630   26.5350   43.0280 C   0  0  0  0  0  0  0  0  0  0  0  0
   38.2860   27.7300   43.5800 C   0  0  0  0  0  3  0  0  0  0  0  0
   38.4270   24.2770   40.7140 H   0  0  0  0  0  0  0  0  0  0  0  0
   37.0330   32.1410   40.1510 C   0  0  0  0  0  0  0  0  0  0  0  0
   37.2910   32.0050   38.7720 C   0  0  0  0  0  0  0  0  0  0  0  0
   36.9880   30.7770   38.2060 C   0  0  0  0  0  0  0  0  0  0  0  0
   36.4680   29.7640   38.9610 N   0  0  0  0  0  0  0  0  0  0  0  0
   36.2380   29.9530   40.2900 C   0  0  0  0  0  0  0  0  0  0  0  0
   36.5240   31.1320   40.8530 N   0  0  0  0  0  0  0  0  0  0  0  0
   37.2360   33.0550   40.6690 H   0  0  0  0  0  0  0  0  0  0  0  0
   37.7030   32.8420   38.2260 H   0  0  0  0  0  0  0  0  0  0  0  0
   37.1760   30.6430   37.1470 H   0  0  0  0  0  0  0  0  0  0  0  0
  1  3  1  0  0  0  0
  1  5  1  0  0  0  0
  2  1  1  0  0  0  0
  4 14  1  0  0  0  0
  5  4  2  0  0  0  0
  6  5  1  0  0  0  0
  6  8  2  0  0  0  0
  7  6  1  0  0  0  0
  8 13  1  0  0  0  0
  9  8  1  0  0  0  0
  9 10  1  0  0  0  0
 10 11  1  0  0  0  0
 10 12  2  0  0  0  0
 13 12  1  0  0  0  0
 13 14  2  0  0  0  0
 15  9  1  0  0  0  0
 16 22  1  0  0  0  0
 16 21  1  0  0  0  0
 17 16  2  0  0  0  0
 18 17  1  0  0  0  0
 18 19  2  0  0  0  0
 19 20  1  0  0  0  0
 20 21  2  0  0  0  0
 20  1  1  0  0  0  0
 23 17  1  0  0  0  0
 24 18  1  0  0  0  0
M  END
>  <minimizedAffinity>
-4.87191772

$$$$

 OpenBabel03242523293D

 24 26  0  0  0  0  0  0  0  0999 V2000
   36.8410   31.8160   39.1900 C   0  0  0  0  0  0  0  0  0  0  0  0
   36.7610   31.5100   38.1130 H   0  0  0  0  0  0  0  0  0  0  0  0
   36.0080   32.4660   39.4710 H   0  0  0  0  0  0  0  0  0  0  0  0
   36.5030   29.3150   39.4170 C   0  0  0  0  0  3  0  0  0  0  0  0
   36.7970   30.5510   39.9600 C   0  0  0  0  0  0  0  0  0  0  0  0
   37.0700   30.6300   41.3090 C   0  0  0  0  0  0  0  0  0  0  0  0
   37.3110   31.5570   41.8220 H   0  0  0  0  0  0  0  0  0  0  0  0
   37.0430   29.4690   42.0810 C   0  0  0  0  0  0  0  0  0  0  0  0
   37.2620   29.2350   43.3990 N   0  0  0  0  0  0  0  0  0  0  0  0
   37.1010   27.9130   43.6080 C   0  0  0  0  0  0  0  0  0  0  0  0
   37.2010   27.3800   44.5420 H   0  0  0  0  0  0  0  0  0  0  0  0
   36.7830   27.2980   42.4490 N   0  0  0  0  0  0  0  0  0  0  0  0
   36.7410   28.2400   41.4870 C   0  0  0  0  0  0  0  0  0  0  0  0
   36.4670   28.1470   40.1480 C   0  0  0  0  0  3  0  0  0  0  0  0
   37.5140   29.9800   44.1120 H   0  0  0  0  0  0  0  0  0  0  0  0
   39.6080   34.1540   40.0460 C   0  0  0  0  0  0  0  0  0  0  0  0
   40.7030   33.5720   39.3740 C   0  0  0  0  0  0  0  0  0  0  0  0
   40.4430   32.4120   38.6620 C   0  0  0  0  0  0  0  0  0  0  0  0
   39.1870   31.8760   38.6260 N   0  0  0  0  0  0  0  0  0  0  0  0
   38.1680   32.4820   39.2950 C   0  0  0  0  0  0  0  0  0  0  0  0
   38.4000   33.6020   39.9870 N   0  0  0  0  0  0  0  0  0  0  0  0
   39.7190   35.0510   40.6190 H   0  0  0  0  0  0  0  0  0  0  0  0
   41.6740   34.0430   39.4390 H   0  0  0  0  0  0  0  0  0  0  0  0
   41.2660   31.9430   38.1350 H   0  0  0  0  0  0  0  0  0  0  0  0
  1 20  1  0  0  0  0
  1  3  1  0  0  0  0
  1  5  1  0  0  0  0
  2  1  1  0  0  0  0
  4  5  2  0  0  0  0
  4 14  1  0  0  0  0
  5  6  1  0  0  0  0
  6  7  1  0  0  0  0
  6  8  2  0  0  0  0
  8  9  1  0  0  0  0
  9 10  1  0  0  0  0
  9 15  1  0  0  0  0
 10 11  1  0  0  0  0
 12 10  2  0  0  0  0
 13  8  1  0  0  0  0
 13 12  1  0  0  0  0
 14 13  2  0  0  0  0
 16 22  1  0  0  0  0
 17 23  1  0  0  0  0
 17 16  2  0  0  0  0
 18 17  1  0  0  0  0
 19 18  2  0  0  0  0
 19 20  1  0  0  0  0
 20 21  2  0  0  0  0
 21 16  1  0  0  0  0
 24 18  1  0  0  0  0
M  END
>  <minimizedAffinity>
-4.84374952

$$$$

 OpenBabel03242523293D

 24 26  0  0  0  0  0  0  0  0999 V2000
   36.0950   28.6530   41.4360 C   0  0  0  0  0  0  0  0  0  0  0  0
   35.7300   28.6820   42.4980 H   0  0  0  0  0  0  0  0  0  0  0  0
   35.2560   28.7070   40.7370 H   0  0  0  0  0  0  0  0  0  0  0  0
   38.2710   29.9100   41.7560 C   0  0  0  0  0  3  0  0  0  0  0  0
   36.9720   29.8380   41.2920 C   0  0  0  0  0  0  0  0  0  0  0  0
   36.4400   30.9350   40.6490 C   0  0  0  0  0  0  0  0  0  0  0  0
   35.4290   30.9700   40.2520 H   0  0  0  0  0  0  0  0  0  0  0  0
   37.2230   32.0780   40.4860 C   0  0  0  0  0  0  0  0  0  0  0  0
   36.9840   33.2830   39.9110 N   0  0  0  0  0  0  0  0  0  0  0  0
   38.1040   34.0210   40.0390 C   0  0  0  0  0  0  0  0  0  0  0  0
   38.2650   35.0310   39.6930 H   0  0  0  0  0  0  0  0  0  0  0  0
   39.0540   33.3120   40.6840 N   0  0  0  0  0  0  0  0  0  0  0  0
   38.5330   32.1030   40.9720 C   0  0  0  0  0  0  0  0  0  0  0  0
   39.0740   31.0210   41.6140 C   0  0  0  0  0  3  0  0  0  0  0  0
   36.0690   33.5620   39.4520 H   0  0  0  0  0  0  0  0  0  0  0  0
   37.8630   25.4740   42.2280 C   0  0  0  0  0  0  0  0  0  0  0  0
   38.2930   25.0510   40.9530 C   0  0  0  0  0  0  0  0  0  0  0  0
   37.9590   25.8710   39.8870 C   0  0  0  0  0  0  0  0  0  0  0  0
   37.2500   27.0230   40.0810 N   0  0  0  0  0  0  0  0  0  0  0  0
   36.8620   27.3810   41.3360 C   0  0  0  0  0  0  0  0  0  0  0  0
   37.1750   26.6020   42.3770 N   0  0  0  0  0  0  0  0  0  0  0  0
   38.0780   24.9010   43.1060 H   0  0  0  0  0  0  0  0  0  0  0  0
   38.8520   24.1300   40.8620 H   0  0  0  0  0  0  0  0  0  0  0  0
   38.2770   25.5720   38.8950 H   0  0  0  0  0  0  0  0  0  0  0  0
  1  2  1  0  0  0  0
  3  1  1  0  0  0  0
  5  1  1  0  0  0  0
  5  4  2  0  0  0  0
  6  5  1  0  0  0  0
  7  6  1  0  0  0  0
  8  6  2  0  0  0  0
  8 13  1  0  0  0  0
  9 10  1  0  0  0  0
  9  8  1  0  0  0  0
 10 12  2  0  0  0  0
 11 10  1  0  0  0  0
 12 13  1  0  0  0  0
 13 14  2  0  0  0  0
 14  4  1  0  0  0  0
 15  9  1  0  0  0  0
 16 21  1  0  0  0  0
 16 22  1  0  0  0  0
 17 16  2  0  0  0  0
 18 19  2  0  0  0  0
 18 17  1  0  0  0  0
 19 20  1  0  0  0  0
 20  1  1  0  0  0  0
 20 21  2  0  0  0  0
 23 17  1  0  0  0  0
 24 18  1  0  0  0  0
M  END
>  <minimizedAffinity>
-4.84330177

$$$$

 OpenBabel03242523293D

 24 26  0  0  0  0  0  0  0  0999 V2000
   39.1680   30.0470   42.5940 C   0  0  0  0  0  0  0  0  0  0  0  0
   38.9590   30.4870   43.6070 H   0  0  0  0  0  0  0  0  0  0  0  0
   40.2420   29.9140   42.4440 H   0  0  0  0  0  0  0  0  0  0  0  0
   37.3640   28.4370   43.3520 C   0  0  0  0  0  3  0  0  0  0  0  0
   38.4740   28.7380   42.5860 C   0  0  0  0  0  0  0  0  0  0  0  0
   38.9840   27.7660   41.7520 C   0  0  0  0  0  0  0  0  0  0  0  0
   39.8520   27.9130   41.1150 H   0  0  0  0  0  0  0  0  0  0  0  0
   38.3690   26.5150   41.7050 C   0  0  0  0  0  0  0  0  0  0  0  0
   38.6320   25.3860   41.0010 N   0  0  0  0  0  0  0  0  0  0  0  0
   37.7090   24.4680   41.3480 C   0  0  0  0  0  0  0  0  0  0  0  0
   37.6200   23.4570   40.9810 H   0  0  0  0  0  0  0  0  0  0  0  0
   36.8600   24.9880   42.2600 N   0  0  0  0  0  0  0  0  0  0  0  0
   37.2470   26.2570   42.4980 C   0  0  0  0  0  0  0  0  0  0  0  0
   36.7310   27.2130   43.3320 C   0  0  0  0  0  3  0  0  0  0  0  0
   39.4300   25.2780   40.3100 H   0  0  0  0  0  0  0  0  0  0  0  0
   36.8850   31.7010   40.1630 C   0  0  0  0  0  0  0  0  0  0  0  0
   37.5710   32.9010   39.8850 C   0  0  0  0  0  0  0  0  0  0  0  0
   38.7790   33.0870   40.5390 C   0  0  0  0  0  0  0  0  0  0  0  0
   39.2600   32.1460   41.4050 N   0  0  0  0  0  0  0  0  0  0  0  0
   38.5540   31.0060   41.6350 C   0  0  0  0  0  0  0  0  0  0  0  0
   37.3870   30.8090   41.0120 N   0  0  0  0  0  0  0  0  0  0  0  0
   35.9460   31.4770   39.7010 H   0  0  0  0  0  0  0  0  0  0  0  0
   37.1400   33.6080   39.1900 H   0  0  0  0  0  0  0  0  0  0  0  0
   39.3290   34.0000   40.3450 H   0  0  0  0  0  0  0  0  0  0  0  0
  1  2  1  0  0  0  0
  3  1  1  0  0  0  0
  5  1  1  0  0  0  0
  5  4  2  0  0  0  0
  6  5  1  0  0  0  0
  7  6  1  0  0  0  0
  8  6  2  0  0  0  0
  8 13  1  0  0  0  0
  9 10  1  0  0  0  0
  9  8  1  0  0  0  0
 10 12  2  0  0  0  0
 11 10  1  0  0  0  0
 12 13  1  0  0  0  0
 13 14  2  0  0  0  0
 14  4  1  0  0  0  0
 15  9  1  0  0  0  0
 16 21  1  0  0  0  0
 17 16  2  0  0  0  0
 17 18  1  0  0  0  0
 18 19  2  0  0  0  0
 19 20  1  0  0  0  0
 20  1  1  0  0  0  0
 21 20  2  0  0  0  0
 22 16  1  0  0  0  0
 23 17  1  0  0  0  0
 24 18  1  0  0  0  0
M  END
>  <minimizedAffinity>
-4.8259263

$$$$

 OpenBabel03242523293D

 24 26  0  0  0  0  0  0  0  0999 V2000
   37.6450   28.2030   43.6790 C   0  0  0  0  0  0  0  0  0  0  0  0
   38.2990   28.4670   44.5530 H   0  0  0  0  0  0  0  0  0  0  0  0
   36.5960   28.1440   43.9840 H   0  0  0  0  0  0  0  0  0  0  0  0
   36.9430   29.6260   41.7030 C   0  0  0  0  0  3  0  0  0  0  0  0
   37.8410   29.2980   42.7000 C   0  0  0  0  0  0  0  0  0  0  0  0
   39.0060   30.0280   42.8050 C   0  0  0  0  0  0  0  0  0  0  0  0
   39.7690   29.8420   43.5560 H   0  0  0  0  0  0  0  0  0  0  0  0
   39.2410   31.0700   41.9080 C   0  0  0  0  0  0  0  0  0  0  0  0
   40.2680   31.9460   41.7630 N   0  0  0  0  0  0  0  0  0  0  0  0
   39.9710   32.7480   40.7220 C   0  0  0  0  0  0  0  0  0  0  0  0
   40.5680   33.5580   40.3290 H   0  0  0  0  0  0  0  0  0  0  0  0
   38.7760   32.4030   40.1980 N   0  0  0  0  0  0  0  0  0  0  0  0
   38.3020   31.3650   40.9160 C   0  0  0  0  0  0  0  0  0  0  0  0
   37.1420   30.6480   40.8000 C   0  0  0  0  0  3  0  0  0  0  0  0
   41.1340   31.9670   42.3760 H   0  0  0  0  0  0  0  0  0  0  0  0
   38.0950   24.9730   41.8840 C   0  0  0  0  0  0  0  0  0  0  0  0
   39.3470   24.5410   42.3670 C   0  0  0  0  0  0  0  0  0  0  0  0
   39.9760   25.3720   43.2820 C   0  0  0  0  0  0  0  0  0  0  0  0
   39.3970   26.5430   43.6800 N   0  0  0  0  0  0  0  0  0  0  0  0
   38.1850   26.9100   43.1790 C   0  0  0  0  0  0  0  0  0  0  0  0
   37.5640   26.1200   42.2970 N   0  0  0  0  0  0  0  0  0  0  0  0
   37.5410   24.3930   41.1770 H   0  0  0  0  0  0  0  0  0  0  0  0
   39.7550   23.6030   42.0160 H   0  0  0  0  0  0  0  0  0  0  0  0
   40.9400   25.0640   43.6710 H   0  0  0  0  0  0  0  0  0  0  0  0
  1  3  1  0  0  0  0
  1  2  1  0  0  0  0
  4  5  1  0  0  0  0
  5  6  2  0  0  0  0
  5  1  1  0  0  0  0
  6  7  1  0  0  0  0
  8  6  1  0  0  0  0
  9  8  1  0  0  0  0
  9 15  1  0  0  0  0
 10  9  1  0  0  0  0
 11 10  1  0  0  0  0
 12 10  2  0  0  0  0
 12 13  1  0  0  0  0
 13  8  2  0  0  0  0
 14 13  1  0  0  0  0
 14  4  2  0  0  0  0
 16 21  2  0  0  0  0
 16 17  1  0  0  0  0
 17 18  2  0  0  0  0
 18 24  1  0  0  0  0
 18 19  1  0  0  0  0
 20  1  1  0  0  0  0
 20 19  2  0  0  0  0
 21 20  1  0  0  0  0
 22 16  1  0  0  0  0
 23 17  1  0  0  0  0
M  END
>  <minimizedAffinity>
-4.76756907

$$$$

 OpenBabel03242523293D

 24 26  0  0  0  0  0  0  0  0999 V2000
   37.6150   28.8920   43.3400 C   0  0  0  0  0  0  0  0  0  0  0  0
   36.5200   28.8320   43.5850 H   0  0  0  0  0  0  0  0  0  0  0  0
   38.1860   29.2480   44.2020 H   0  0  0  0  0  0  0  0  0  0  0  0
   39.1850   26.9040   43.3950 C   0  0  0  0  0  3  0  0  0  0  0  0
   38.0120   27.5090   42.9860 C   0  0  0  0  0  0  0  0  0  0  0  0
   37.1410   26.7920   42.1940 C   0  0  0  0  0  0  0  0  0  0  0  0
   36.1980   27.1860   41.8250 H   0  0  0  0  0  0  0  0  0  0  0  0
   37.4670   25.4860   41.8300 C   0  0  0  0  0  0  0  0  0  0  0  0
   36.8290   24.5530   41.0800 N   0  0  0  0  0  0  0  0  0  0  0  0
   37.6040   23.4520   41.0570 C   0  0  0  0  0  0  0  0  0  0  0  0
   37.4030   22.5190   40.5520 H   0  0  0  0  0  0  0  0  0  0  0  0
   38.7260   23.6610   41.7780 N   0  0  0  0  0  0  0  0  0  0  0  0
   38.6650   24.9150   42.2690 C   0  0  0  0  0  0  0  0  0  0  0  0
   39.5390   25.6160   43.0560 C   0  0  0  0  0  3  0  0  0  0  0  0
   35.8880   24.6970   40.6090 H   0  0  0  0  0  0  0  0  0  0  0  0
   38.8350   31.0540   40.5660 C   0  0  0  0  0  0  0  0  0  0  0  0
   37.6280   31.5040   39.9930 C   0  0  0  0  0  0  0  0  0  0  0  0
   36.4580   31.0510   40.5810 C   0  0  0  0  0  0  0  0  0  0  0  0
   36.4940   30.2100   41.6570 N   0  0  0  0  0  0  0  0  0  0  0  0
   37.6890   29.8070   42.1680 C   0  0  0  0  0  0  0  0  0  0  0  0
   38.8280   30.2350   41.6140 N   0  0  0  0  0  0  0  0  0  0  0  0
   39.7840   31.3560   40.1750 H   0  0  0  0  0  0  0  0  0  0  0  0
   37.6630   32.1700   39.1410 H   0  0  0  0  0  0  0  0  0  0  0  0
   35.5150   31.3820   40.1620 H   0  0  0  0  0  0  0  0  0  0  0  0
  1  2  1  0  0  0  0
  1  3  1  0  0  0  0
  5  1  1  0  0  0  0
  5  4  2  0  0  0  0
  6  5  1  0  0  0  0
  7  6  1  0  0  0  0
  8  6  2  0  0  0  0
  8 13  1  0  0  0  0
  9  8  1  0  0  0  0
 10  9  1  0  0  0  0
 10 12  2  0  0  0  0
 11 10  1  0  0  0  0
 12 13  1  0  0  0  0
 13 14  2  0  0  0  0
 14  4  1  0  0  0  0
 15  9  1  0  0  0  0
 16 21  1  0  0  0  0
 17 16  2  0  0  0  0
 17 18  1  0  0  0  0
 18 19  2  0  0  0  0
 19 20  1  0  0  0  0
 20  1  1  0  0  0  0
 21 20  2  0  0  0  0
 22 16  1  0  0  0  0
 23 17  1  0  0  0  0
 24 18  1  0  0  0  0
M  END
>  <minimizedAffinity>
-4.72617435

$$$$

 OpenBabel03242523293D

 24 26  0  0  0  0  0  0  0  0999 V2000
   36.2150   30.3590   41.2210 C   0  0  0  0  0  0  0  0  0  0  0  0
   36.8840   31.2540   41.1050 H   0  0  0  0  0  0  0  0  0  0  0  0
   35.3030   30.6250   41.7630 H   0  0  0  0  0  0  0  0  0  0  0  0
   34.7780   29.1940   39.4900 C   0  0  0  0  0  3  0  0  0  0  0  0
   35.8940   29.9290   39.8400 C   0  0  0  0  0  0  0  0  0  0  0  0
   36.7820   30.2940   38.8500 C   0  0  0  0  0  0  0  0  0  0  0  0
   37.6850   30.8700   39.0320 H   0  0  0  0  0  0  0  0  0  0  0  0
   36.5280   29.9150   37.5320 C   0  0  0  0  0  0  0  0  0  0  0  0
   37.1980   30.1200   36.3710 N   0  0  0  0  0  0  0  0  0  0  0  0
   36.4940   29.5260   35.3880 C   0  0  0  0  0  0  0  0  0  0  0  0
   36.7370   29.4920   34.3360 H   0  0  0  0  0  0  0  0  0  0  0  0
   35.3870   28.9450   35.8970 N   0  0  0  0  0  0  0  0  0  0  0  0
   35.3850   29.1720   37.2250 C   0  0  0  0  0  0  0  0  0  0  0  0
   34.4960   28.8020   38.1990 C   0  0  0  0  0  3  0  0  0  0  0  0
   38.1100   30.6550   36.2860 H   0  0  0  0  0  0  0  0  0  0  0  0
   37.4240   27.2740   42.9180 C   0  0  0  0  0  0  0  0  0  0  0  0
   38.7470   27.6250   43.2560 C   0  0  0  0  0  0  0  0  0  0  0  0
   39.1620   28.8960   42.8910 C   0  0  0  0  0  0  0  0  0  0  0  0
   38.3180   29.7480   42.2360 N   0  0  0  0  0  0  0  0  0  0  0  0
   37.0500   29.3550   41.9350 C   0  0  0  0  0  0  0  0  0  0  0  0
   36.6330   28.1320   42.2800 N   0  0  0  0  0  0  0  0  0  0  0  0
   37.0230   26.3130   43.1630 H   0  0  0  0  0  0  0  0  0  0  0  0
   39.3680   26.9070   43.7760 H   0  0  0  0  0  0  0  0  0  0  0  0
   40.1740   29.1930   43.1390 H   0  0  0  0  0  0  0  0  0  0  0  0
  1  3  1  0  0  0  0
  1 20  1  0  0  0  0
  2  1  1  0  0  0  0
  4  5  1  0  0  0  0
  5  1  1  0  0  0  0
  6  7  1  0  0  0  0
  6  5  2  0  0  0  0
  8  6  1  0  0  0  0
  9  8  1  0  0  0  0
 10 12  2  0  0  0  0
 10  9  1  0  0  0  0
 11 10  1  0  0  0  0
 12 13  1  0  0  0  0
 13  8  2  0  0  0  0
 13 14  1  0  0  0  0
 14  4  2  0  0  0  0
 15  9  1  0  0  0  0
 16 22  1  0  0  0  0
 16 17  1  0  0  0  0
 17 23  1  0  0  0  0
 18 24  1  0  0  0  0
 18 17  2  0  0  0  0
 19 18  1  0  0  0  0
 20 19  2  0  0  0  0
 20 21  1  0  0  0  0
 21 16  2  0  0  0  0
M  END
>  <minimizedAffinity>
-4.72338724

$$$$
