
 OpenBabel03252506383D

 47 51  0  0  1  0  0  0  0  0999 V2000
   46.6900   29.9880   46.5320 S   0  0  0  0  0  0  0  0  0  0  0  0
   44.5310   35.4710   45.1610 C   0  0  0  0  0  0  0  0  0  0  0  0
   45.1840   35.4760   43.9110 C   0  0  0  0  0  0  0  0  0  0  0  0
   46.1080   34.5250   43.6440 C   0  0  0  0  0  0  0  0  0  0  0  0
   46.3510   33.6090   44.6130 N   0  0  0  0  0  0  0  0  0  0  0  0
   45.7350   33.6060   45.7860 C   0  0  0  0  0  0  0  0  0  0  0  0
   44.8200   34.5320   46.0790 N   0  0  0  0  0  0  0  0  0  0  0  0
   46.0750   32.5870   46.7420 N   0  0  0  0  0  0  0  0  0  0  0  0
   45.3420   32.3250   47.9250 C   0  0  0  0  0  0  0  0  0  0  0  0
   46.4180   31.9740   48.9340 C   0  0  0  0  0  0  0  0  0  0  0  0
   47.7000   31.8820   48.1600 C   0  0  0  0  0  0  0  0  0  0  0  0
   47.1970   31.6820   46.7310 C   0  0  1  0  0  0  0  0  0  0  0  0
   43.7970   36.2410   45.3520 H   0  0  0  0  0  0  0  0  0  0  0  0
   46.6120   34.5100   42.7070 H   0  0  0  0  0  0  0  0  0  0  0  0
   44.5450   31.6650   48.0230 H   0  0  0  0  0  0  0  0  0  0  0  0
   44.9630   33.3310   48.2950 H   0  0  0  0  0  0  0  0  0  0  0  0
   46.5290   32.6820   49.7530 H   0  0  0  0  0  0  0  0  0  0  0  0
   46.1810   30.9840   49.4140 H   0  0  0  0  0  0  0  0  0  0  0  0
   48.2810   30.9790   48.4620 H   0  0  0  0  0  0  0  0  0  0  0  0
   48.2860   32.8010   48.2790 H   0  0  0  0  0  0  0  0  0  0  0  0
   48.0300   31.9890   46.0750 H   0  0  0  0  0  0  0  0  0  0  0  0
   44.8150   36.5160   42.9880 N   0  0  0  0  0  0  0  0  0  0  0  0
   45.6020   36.8150   42.3800 H   0  0  0  0  0  0  0  0  0  0  0  0
   43.8740   36.9370   42.9170 H   0  0  0  0  0  0  0  0  0  0  0  0
   45.4350   30.5240   43.4900 O   0  0  0  0  0  0  0  0  0  0  0  0
   44.8810   29.9620   44.4490 C   0  0  0  0  0  0  0  0  0  0  0  0
   45.0910   29.7080   45.8940 C   0  0  1  0  0  0  0  0  0  0  0  0
   44.5710   28.3000   46.0440 C   0  0  0  0  0  0  0  0  0  0  0  0
   43.2020   28.5140   45.3870 C   0  0  0  0  0  0  0  0  0  0  0  0
   43.6180   29.3030   44.2350 N   0  0  0  0  0  0  0  0  0  0  0  0
   44.2330   30.2980   46.3210 H   0  0  0  0  0  0  0  0  0  0  0  0
   45.1050   27.5790   45.3960 H   0  0  0  0  0  0  0  0  0  0  0  0
   44.4470   27.9860   47.0860 H   0  0  0  0  0  0  0  0  0  0  0  0
   42.8340   27.5280   45.0700 H   0  0  0  0  0  0  0  0  0  0  0  0
   42.5110   29.0630   46.0470 H   0  0  0  0  0  0  0  0  0  0  0  0
   42.7790   28.1250   42.3660 C   0  0  0  0  0  3  0  0  0  0  0  0
   42.7330   29.3040   43.0920 C   0  0  0  0  0  0  0  0  0  0  0  0
   41.9140   30.3310   42.7180 C   0  0  0  0  0  0  0  0  0  0  0  0
   41.9370   31.2160   43.3380 H   0  0  0  0  0  0  0  0  0  0  0  0
   41.1120   30.1980   41.5940 C   0  0  0  0  0  0  0  0  0  0  0  0
   40.2360   31.0500   41.0300 N   0  0  0  0  0  0  0  0  0  0  0  0
   39.7260   30.4060   39.9400 C   0  0  0  0  0  0  0  0  0  0  0  0
   38.9790   30.7970   39.2360 H   0  0  0  0  0  0  0  0  0  0  0  0
   40.2570   29.1840   39.8120 N   0  0  0  0  0  0  0  0  0  0  0  0
   41.1230   29.0280   40.8270 C   0  0  0  0  0  0  0  0  0  0  0  0
   41.9750   28.0050   41.2470 C   0  0  0  0  0  3  0  0  0  0  0  0
   39.9920   32.0130   41.3560 H   0  0  0  0  0  0  0  0  0  0  0  0
  1 12  1  0  0  0  0
  2 13  1  0  0  0  0
  2  7  1  0  0  0  0
  3  2  2  0  0  0  0
  4  3  1  0  0  0  0
  4  5  2  0  0  0  0
  5  6  1  0  0  0  0
  6  7  2  0  0  0  0
  6  8  1  0  0  0  0
  8  9  1  0  0  0  0
  9 15  1  0  0  0  0
  9 16  1  0  0  0  0
  9 10  1  0  0  0  0
 10 18  1  0  0  0  0
 10 17  1  0  0  0  0
 11 20  1  0  0  0  0
 11 19  1  0  0  0  0
 11 10  1  0  0  0  0
 12 21  1  6  0  0  0
 12  8  1  0  0  0  0
 12 11  1  0  0  0  0
 14  4  1  0  0  0  0
 22  3  1  0  0  0  0
 23 22  1  0  0  0  0
 24 22  1  0  0  0  0
 25 26  2  0  0  0  0
 26 27  1  0  0  0  0
 27 28  1  0  0  0  0
 27 31  1  1  0  0  0
 27  1  1  0  0  0  0
 28 33  1  0  0  0  0
 29 28  1  0  0  0  0
 29 35  1  0  0  0  0
 30 26  1  0  0  0  0
 30 29  1  0  0  0  0
 32 28  1  0  0  0  0
 34 29  1  0  0  0  0
 36 37  1  0  0  0  0
 37 30  1  0  0  0  0
 38 37  2  0  0  0  0
 38 39  1  0  0  0  0
 40 38  1  0  0  0  0
 41 47  1  0  0  0  0
 41 40  1  0  0  0  0
 42 41  1  0  0  0  0
 43 42  1  0  0  0  0
 44 42  2  0  0  0  0
 44 45  1  0  0  0  0
 45 46  1  0  0  0  0
 45 40  2  0  0  0  0
 46 36  2  0  0  0  0
M  END
>  <minimizedAffinity>
-5.66734123

>  <minimizedRMSD>
0.765625834

$$$$
