
 OpenBabel03252502223D

 36 39  0  0  1  0  0  0  0  0999 V2000
   37.6520   28.2380   40.8530 N   0  0  0  0  0  0  0  0  0  0  0  0
   38.1930   27.0010   41.4150 C   0  0  0  0  0  0  0  0  0  0  0  0
   37.3260   26.7040   42.6370 C   0  0  0  0  0  0  0  0  0  0  0  0
   37.5600   27.7730   43.6740 C   0  0  0  0  0  0  0  0  0  0  0  0
   37.6400   29.1490   43.1410 C   0  0  0  0  0  0  0  0  0  0  0  0
   37.2570   29.3180   41.7050 C   0  0  1  0  0  0  0  0  0  0  0  0
   39.2620   27.1480   41.7300 H   0  0  0  0  0  0  0  0  0  0  0  0
   38.1030   26.1790   40.6760 H   0  0  0  0  0  0  0  0  0  0  0  0
   37.5020   25.7140   43.0510 H   0  0  0  0  0  0  0  0  0  0  0  0
   36.2780   26.8250   42.2720 H   0  0  0  0  0  0  0  0  0  0  0  0
   36.8190   27.6500   44.4970 H   0  0  0  0  0  0  0  0  0  0  0  0
   38.5510   27.5220   44.1550 H   0  0  0  0  0  0  0  0  0  0  0  0
   36.9300   29.7750   43.7490 H   0  0  0  0  0  0  0  0  0  0  0  0
   38.6370   29.6300   43.3440 H   0  0  0  0  0  0  0  0  0  0  0  0
   36.1360   29.3570   41.6680 H   0  0  0  0  0  0  0  0  0  0  0  0
   36.8920   31.4220   40.5520 C   0  0  0  0  0  3  0  0  0  0  0  0
   37.7980   30.6350   41.2330 C   0  0  0  0  0  0  0  0  0  0  0  0
   39.1030   31.0340   41.4590 C   0  0  0  0  0  0  0  0  0  0  0  0
   39.7080   30.3200   42.0060 H   0  0  0  0  0  0  0  0  0  0  0  0
   39.4940   32.2710   40.9770 C   0  0  0  0  0  0  0  0  0  0  0  0
   40.7170   32.8390   41.0950 N   0  0  0  0  0  0  0  0  0  0  0  0
   40.6000   34.0420   40.4660 C   0  0  0  0  0  0  0  0  0  0  0  0
   41.4270   34.7500   40.3850 H   0  0  0  0  0  0  0  0  0  0  0  0
   39.3500   34.1610   40.0020 N   0  0  0  0  0  0  0  0  0  0  0  0
   38.6140   33.0820   40.2940 C   0  0  0  0  0  0  0  0  0  0  0  0
   37.3120   32.6520   40.0830 C   0  0  0  0  0  3  0  0  0  0  0  0
   41.5630   32.4520   41.5600 H   0  0  0  0  0  0  0  0  0  0  0  0
   36.2080   28.4630   37.4210 C   0  0  0  0  0  0  0  0  0  0  0  0
   36.2320   28.2910   38.8250 C   0  0  0  0  0  0  0  0  0  0  0  0
   37.5070   28.3950   39.4460 C   0  0  0  0  0  0  0  0  0  0  0  0
   38.6020   28.6460   38.6740 N   0  0  0  0  0  0  0  0  0  0  0  0
   38.5190   28.8020   37.3280 C   0  0  0  0  0  0  0  0  0  0  0  0
   37.3280   28.7090   36.7170 N   0  0  0  0  0  0  0  0  0  0  0  0
   35.1960   28.3670   37.0360 H   0  0  0  0  0  0  0  0  0  0  0  0
   35.3600   28.0940   39.4180 H   0  0  0  0  0  0  0  0  0  0  0  0
   39.3840   28.9990   36.7290 H   0  0  0  0  0  0  0  0  0  0  0  0
  1  2  1  0  0  0  0
  1  6  1  0  0  0  0
  2  7  1  0  0  0  0
  2  3  1  0  0  0  0
  3  9  1  0  0  0  0
  3  4  1  0  0  0  0
  4 12  1  0  0  0  0
  4 11  1  0  0  0  0
  5 14  1  0  0  0  0
  5  4  1  0  0  0  0
  5 13  1  0  0  0  0
  6 15  1  6  0  0  0
  6  5  1  0  0  0  0
  8  2  1  0  0  0  0
 10  3  1  0  0  0  0
 16 17  1  0  0  0  0
 17 18  2  0  0  0  0
 17  6  1  0  0  0  0
 18 19  1  0  0  0  0
 20 21  1  0  0  0  0
 20 18  1  0  0  0  0
 21 27  1  0  0  0  0
 22 21  1  0  0  0  0
 23 22  1  0  0  0  0
 24 25  1  0  0  0  0
 24 22  2  0  0  0  0
 25 20  2  0  0  0  0
 26 25  1  0  0  0  0
 26 16  2  0  0  0  0
 28 29  1  0  0  0  0
 29 35  1  0  0  0  0
 29 30  2  0  0  0  0
 30  1  1  0  0  0  0
 31 30  1  0  0  0  0
 32 31  2  0  0  0  0
 33 32  1  0  0  0  0
 33 28  2  0  0  0  0
 34 28  1  0  0  0  0
 36 32  1  0  0  0  0
M  END
>  <minimizedAffinity>
-5.71899748

$$$$

 OpenBabel03252502223D

 36 39  0  0  1  0  0  0  0  0999 V2000
   37.4160   27.5860   40.7200 N   0  0  0  0  0  0  0  0  0  0  0  0
   37.9050   26.2910   41.1920 C   0  0  0  0  0  0  0  0  0  0  0  0
   36.9370   25.8780   42.2990 C   0  0  0  0  0  0  0  0  0  0  0  0
   37.0860   26.8290   43.4580 C   0  0  0  0  0  0  0  0  0  0  0  0
   37.2140   28.2530   43.0820 C   0  0  0  0  0  0  0  0  0  0  0  0
   36.9540   28.5750   41.6440 C   0  0  1  0  0  0  0  0  0  0  0  0
   38.9440   26.3920   41.6080 H   0  0  0  0  0  0  0  0  0  0  0  0
   37.8750   25.5520   40.3660 H   0  0  0  0  0  0  0  0  0  0  0  0
   37.0750   24.8480   42.6200 H   0  0  0  0  0  0  0  0  0  0  0  0
   35.9240   26.0480   41.8620 H   0  0  0  0  0  0  0  0  0  0  0  0
   36.2780   26.6290   44.1990 H   0  0  0  0  0  0  0  0  0  0  0  0
   38.0320   26.5180   43.9910 H   0  0  0  0  0  0  0  0  0  0  0  0
   36.4570   28.8190   43.6910 H   0  0  0  0  0  0  0  0  0  0  0  0
   38.1910   28.6980   43.4170 H   0  0  0  0  0  0  0  0  0  0  0  0
   35.8400   28.6310   41.5190 H   0  0  0  0  0  0  0  0  0  0  0  0
   38.8410   30.0950   41.7760 C   0  0  0  0  0  3  0  0  0  0  0  0
   37.5360   29.9280   41.3610 C   0  0  0  0  0  0  0  0  0  0  0  0
   36.8230   30.9340   40.7320 C   0  0  0  0  0  0  0  0  0  0  0  0
   35.8090   30.6690   40.4590 H   0  0  0  0  0  0  0  0  0  0  0  0
   37.4620   32.1440   40.5210 C   0  0  0  0  0  0  0  0  0  0  0  0
   36.9430   33.2430   39.9280 N   0  0  0  0  0  0  0  0  0  0  0  0
   37.9500   34.1610   39.9600 C   0  0  0  0  0  0  0  0  0  0  0  0
   37.8460   35.1680   39.5520 H   0  0  0  0  0  0  0  0  0  0  0  0
   39.0140   33.6050   40.5520 N   0  0  0  0  0  0  0  0  0  0  0  0
   38.7650   32.3430   40.9240 C   0  0  0  0  0  0  0  0  0  0  0  0
   39.4510   31.3140   41.5510 C   0  0  0  0  0  3  0  0  0  0  0  0
   35.9890   33.3700   39.5330 H   0  0  0  0  0  0  0  0  0  0  0  0
   36.2590   28.2520   37.2370 C   0  0  0  0  0  0  0  0  0  0  0  0
   36.1630   27.9410   38.6130 C   0  0  0  0  0  0  0  0  0  0  0  0
   37.3900   27.8910   39.3300 C   0  0  0  0  0  0  0  0  0  0  0  0
   38.5550   28.1370   38.6660 N   0  0  0  0  0  0  0  0  0  0  0  0
   38.5870   28.4300   37.3410 C   0  0  0  0  0  0  0  0  0  0  0  0
   37.4430   28.4840   36.6430 N   0  0  0  0  0  0  0  0  0  0  0  0
   35.2750   28.2680   36.7740 H   0  0  0  0  0  0  0  0  0  0  0  0
   35.2370   27.7500   39.1200 H   0  0  0  0  0  0  0  0  0  0  0  0
   39.5060   28.6230   36.8280 H   0  0  0  0  0  0  0  0  0  0  0  0
  1  2  1  0  0  0  0
  1  6  1  0  0  0  0
  2  7  1  0  0  0  0
  2  3  1  0  0  0  0
  3  9  1  0  0  0  0
  3  4  1  0  0  0  0
  4 12  1  0  0  0  0
  4 11  1  0  0  0  0
  5 14  1  0  0  0  0
  5  4  1  0  0  0  0
  5 13  1  0  0  0  0
  6 15  1  6  0  0  0
  6  5  1  0  0  0  0
  8  2  1  0  0  0  0
 10  3  1  0  0  0  0
 17  6  1  0  0  0  0
 17 16  2  0  0  0  0
 18 17  1  0  0  0  0
 19 18  1  0  0  0  0
 20 18  2  0  0  0  0
 20 25  1  0  0  0  0
 21 22  1  0  0  0  0
 21 20  1  0  0  0  0
 22 24  2  0  0  0  0
 23 22  1  0  0  0  0
 24 25  1  0  0  0  0
 25 26  2  0  0  0  0
 26 16  1  0  0  0  0
 27 21  1  0  0  0  0
 28 29  1  0  0  0  0
 29 35  1  0  0  0  0
 29 30  2  0  0  0  0
 30  1  1  0  0  0  0
 31 30  1  0  0  0  0
 32 31  2  0  0  0  0
 33 28  2  0  0  0  0
 33 32  1  0  0  0  0
 34 28  1  0  0  0  0
 36 32  1  0  0  0  0
M  END
>  <minimizedAffinity>
-5.61139727

$$$$

 OpenBabel03252502223D

 36 39  0  0  1  0  0  0  0  0999 V2000
   38.5110   31.1980   40.7690 N   0  0  0  0  0  0  0  0  0  0  0  0
   39.6950   32.0140   40.5000 C   0  0  0  0  0  0  0  0  0  0  0  0
   39.3050   33.4320   40.9140 C   0  0  0  0  0  0  0  0  0  0  0  0
   38.2310   33.9340   39.9840 C   0  0  0  0  0  0  0  0  0  0  0  0
   37.1820   32.9470   39.6550 C   0  0  0  0  0  0  0  0  0  0  0  0
   37.2020   31.6810   40.4520 C   0  0  1  0  0  0  0  0  0  0  0  0
   39.9470   31.9890   39.4060 H   0  0  0  0  0  0  0  0  0  0  0  0
   40.5450   31.6580   41.1160 H   0  0  0  0  0  0  0  0  0  0  0  0
   40.1520   34.1140   40.9360 H   0  0  0  0  0  0  0  0  0  0  0  0
   38.8390   33.3110   41.9200 H   0  0  0  0  0  0  0  0  0  0  0  0
   37.8350   34.9000   40.3740 H   0  0  0  0  0  0  0  0  0  0  0  0
   38.7610   34.2190   39.0280 H   0  0  0  0  0  0  0  0  0  0  0  0
   36.1930   33.4460   39.8490 H   0  0  0  0  0  0  0  0  0  0  0  0
   37.1380   32.7200   38.5530 H   0  0  0  0  0  0  0  0  0  0  0  0
   36.7000   31.9040   41.4300 H   0  0  0  0  0  0  0  0  0  0  0  0
   35.4450   30.0060   40.4880 C   0  0  0  0  0  3  0  0  0  0  0  0
   36.3870   30.6590   39.7170 C   0  0  0  0  0  0  0  0  0  0  0  0
   36.5610   30.3860   38.3720 C   0  0  0  0  0  0  0  0  0  0  0  0
   37.3340   30.9700   37.8870 H   0  0  0  0  0  0  0  0  0  0  0  0
   35.7510   29.4210   37.7970 C   0  0  0  0  0  0  0  0  0  0  0  0
   35.7650   29.0130   36.5070 N   0  0  0  0  0  0  0  0  0  0  0  0
   34.7950   28.0590   36.4370 C   0  0  0  0  0  0  0  0  0  0  0  0
   34.5540   27.5260   35.5150 H   0  0  0  0  0  0  0  0  0  0  0  0
   34.2420   27.9230   37.6490 N   0  0  0  0  0  0  0  0  0  0  0  0
   34.8020   28.7520   38.5390 C   0  0  0  0  0  0  0  0  0  0  0  0
   34.6530   29.0480   39.8850 C   0  0  0  0  0  3  0  0  0  0  0  0
   36.3750   29.3470   35.7340 H   0  0  0  0  0  0  0  0  0  0  0  0
   39.2310   27.5760   41.2890 C   0  0  0  0  0  0  0  0  0  0  0  0
   39.1560   28.8130   40.6080 C   0  0  0  0  0  0  0  0  0  0  0  0
   38.6350   29.9060   41.3520 C   0  0  0  0  0  0  0  0  0  0  0  0
   38.2470   29.7030   42.6430 N   0  0  0  0  0  0  0  0  0  0  0  0
   38.3410   28.4910   43.2470 C   0  0  0  0  0  0  0  0  0  0  0  0
   38.8310   27.4430   42.5660 N   0  0  0  0  0  0  0  0  0  0  0  0
   39.6410   26.8020   40.6440 H   0  0  0  0  0  0  0  0  0  0  0  0
   39.4670   28.9550   39.5910 H   0  0  0  0  0  0  0  0  0  0  0  0
   38.0340   28.3410   44.2610 H   0  0  0  0  0  0  0  0  0  0  0  0
  1 30  1  0  0  0  0
  2  1  1  0  0  0  0
  2  3  1  0  0  0  0
  2  8  1  0  0  0  0
  3  9  1  0  0  0  0
  3 10  1  0  0  0  0
  4 11  1  0  0  0  0
  4  3  1  0  0  0  0
  5 13  1  0  0  0  0
  5  4  1  0  0  0  0
  5  6  1  0  0  0  0
  6  1  1  0  0  0  0
  6 15  1  1  0  0  0
  7  2  1  0  0  0  0
 12  4  1  0  0  0  0
 14  5  1  0  0  0  0
 17  6  1  0  0  0  0
 17 16  2  0  0  0  0
 18 17  1  0  0  0  0
 19 18  1  0  0  0  0
 20 18  2  0  0  0  0
 20 25  1  0  0  0  0
 21 20  1  0  0  0  0
 22 21  1  0  0  0  0
 22 24  2  0  0  0  0
 23 22  1  0  0  0  0
 24 25  1  0  0  0  0
 25 26  2  0  0  0  0
 26 16  1  0  0  0  0
 27 21  1  0  0  0  0
 28 33  1  0  0  0  0
 29 28  2  0  0  0  0
 29 30  1  0  0  0  0
 30 31  2  0  0  0  0
 31 32  1  0  0  0  0
 32 36  1  0  0  0  0
 33 32  2  0  0  0  0
 34 28  1  0  0  0  0
 35 29  1  0  0  0  0
M  END
>  <minimizedAffinity>
-5.53884411

$$$$

 OpenBabel03252502223D

 36 39  0  0  1  0  0  0  0  0999 V2000
   36.2060   29.3680   37.2180 N   0  0  0  0  0  0  0  0  0  0  0  0
   35.9120   28.9070   35.8610 C   0  0  0  0  0  0  0  0  0  0  0  0
   34.4560   29.3000   35.6120 C   0  0  0  0  0  0  0  0  0  0  0  0
   33.5700   28.4970   36.5290 C   0  0  0  0  0  0  0  0  0  0  0  0
   34.0710   28.3550   37.9120 C   0  0  0  0  0  0  0  0  0  0  0  0
   35.2510   29.2030   38.2700 C   0  0  1  0  0  0  0  0  0  0  0  0
   36.0250   27.7920   35.7930 H   0  0  0  0  0  0  0  0  0  0  0  0
   36.5740   29.4230   35.1360 H   0  0  0  0  0  0  0  0  0  0  0  0
   34.1570   29.1780   34.5740 H   0  0  0  0  0  0  0  0  0  0  0  0
   34.3940   30.3640   35.9440 H   0  0  0  0  0  0  0  0  0  0  0  0
   32.5290   28.8880   36.4630 H   0  0  0  0  0  0  0  0  0  0  0  0
   33.5070   27.4670   36.0690 H   0  0  0  0  0  0  0  0  0  0  0  0
   33.2290   28.6530   38.5950 H   0  0  0  0  0  0  0  0  0  0  0  0
   34.2550   27.2810   38.1930 H   0  0  0  0  0  0  0  0  0  0  0  0
   34.8570   30.2270   38.5060 H   0  0  0  0  0  0  0  0  0  0  0  0
   36.2520   27.3080   39.4110 C   0  0  0  0  0  3  0  0  0  0  0  0
   35.8720   28.6310   39.5100 C   0  0  0  0  0  0  0  0  0  0  0  0
   36.0510   29.3690   40.6680 C   0  0  0  0  0  0  0  0  0  0  0  0
   35.7080   30.3950   40.6090 H   0  0  0  0  0  0  0  0  0  0  0  0
   36.6360   28.7380   41.7520 C   0  0  0  0  0  0  0  0  0  0  0  0
   36.8960   29.2810   42.9640 N   0  0  0  0  0  0  0  0  0  0  0  0
   37.4680   28.2720   43.6790 C   0  0  0  0  0  0  0  0  0  0  0  0
   37.7980   28.3920   44.7120 H   0  0  0  0  0  0  0  0  0  0  0  0
   37.5340   27.1840   42.9020 N   0  0  0  0  0  0  0  0  0  0  0  0
   37.0270   27.4180   41.6850 C   0  0  0  0  0  0  0  0  0  0  0  0
   36.8330   26.7070   40.5100 C   0  0  0  0  0  3  0  0  0  0  0  0
   36.7060   30.2520   43.2870 H   0  0  0  0  0  0  0  0  0  0  0  0
   38.8020   31.8810   38.1460 C   0  0  0  0  0  0  0  0  0  0  0  0
   37.5130   31.3690   37.8660 C   0  0  0  0  0  0  0  0  0  0  0  0
   37.4490   29.9910   37.5210 C   0  0  0  0  0  0  0  0  0  0  0  0
   38.6010   29.2640   37.4790 N   0  0  0  0  0  0  0  0  0  0  0  0
   39.8130   29.8100   37.7570 C   0  0  0  0  0  0  0  0  0  0  0  0
   39.9000   31.1080   38.0860 N   0  0  0  0  0  0  0  0  0  0  0  0
   38.7520   32.9370   38.4000 H   0  0  0  0  0  0  0  0  0  0  0  0
   36.6150   31.9550   37.9050 H   0  0  0  0  0  0  0  0  0  0  0  0
   40.7130   29.2320   37.7220 H   0  0  0  0  0  0  0  0  0  0  0  0
  1 30  1  0  0  0  0
  1  6  1  0  0  0  0
  2  1  1  0  0  0  0
  3  2  1  0  0  0  0
  3 10  1  0  0  0  0
  3  4  1  0  0  0  0
  4  5  1  0  0  0  0
  5 14  1  0  0  0  0
  5  6  1  0  0  0  0
  5 13  1  0  0  0  0
  6 15  1  1  0  0  0
  6 17  1  0  0  0  0
  7  2  1  0  0  0  0
  8  2  1  0  0  0  0
  9  3  1  0  0  0  0
 11  4  1  0  0  0  0
 12  4  1  0  0  0  0
 16 17  2  0  0  0  0
 16 26  1  0  0  0  0
 17 18  1  0  0  0  0
 18 20  2  0  0  0  0
 19 18  1  0  0  0  0
 20 21  1  0  0  0  0
 21 27  1  0  0  0  0
 21 22  1  0  0  0  0
 22 23  1  0  0  0  0
 24 22  2  0  0  0  0
 25 20  1  0  0  0  0
 25 24  1  0  0  0  0
 26 25  2  0  0  0  0
 28 34  1  0  0  0  0
 29 35  1  0  0  0  0
 29 28  2  0  0  0  0
 30 29  1  0  0  0  0
 31 30  2  0  0  0  0
 31 32  1  0  0  0  0
 32 33  2  0  0  0  0
 33 28  1  0  0  0  0
 36 32  1  0  0  0  0
M  END
>  <minimizedAffinity>
-5.52165127

$$$$

 OpenBabel03252502223D

 36 39  0  0  1  0  0  0  0  0999 V2000
   37.6030   29.3710   41.1530 N   0  0  0  0  0  0  0  0  0  0  0  0
   37.1670   29.2640   42.5450 C   0  0  0  0  0  0  0  0  0  0  0  0
   37.7700   27.9560   43.0530 C   0  0  0  0  0  0  0  0  0  0  0  0
   37.1260   26.8050   42.3230 C   0  0  0  0  0  0  0  0  0  0  0  0
   36.9370   27.0170   40.8730 C   0  0  0  0  0  0  0  0  0  0  0  0
   37.6030   28.2250   40.2960 C   0  0  1  0  0  0  0  0  0  0  0  0
   36.0460   29.2180   42.6010 H   0  0  0  0  0  0  0  0  0  0  0  0
   37.5620   30.1180   43.1310 H   0  0  0  0  0  0  0  0  0  0  0  0
   37.6750   27.8370   44.1300 H   0  0  0  0  0  0  0  0  0  0  0  0
   38.8370   27.9960   42.7290 H   0  0  0  0  0  0  0  0  0  0  0  0
   37.6700   25.8660   42.5750 H   0  0  0  0  0  0  0  0  0  0  0  0
   36.1090   26.6720   42.7970 H   0  0  0  0  0  0  0  0  0  0  0  0
   37.3710   26.1190   40.3540 H   0  0  0  0  0  0  0  0  0  0  0  0
   35.8530   26.9810   40.5730 H   0  0  0  0  0  0  0  0  0  0  0  0
   38.6790   27.9550   40.1270 H   0  0  0  0  0  0  0  0  0  0  0  0
   35.6060   28.7350   39.0130 C   0  0  0  0  0  3  0  0  0  0  0  0
   36.9680   28.5150   38.9680 C   0  0  0  0  0  0  0  0  0  0  0  0
   37.6860   28.5570   37.7860 C   0  0  0  0  0  0  0  0  0  0  0  0
   38.7480   28.3660   37.8930 H   0  0  0  0  0  0  0  0  0  0  0  0
   36.9960   28.8340   36.6190 C   0  0  0  0  0  0  0  0  0  0  0  0
   37.5120   28.9200   35.3720 N   0  0  0  0  0  0  0  0  0  0  0  0
   36.4440   29.2080   34.5760 C   0  0  0  0  0  0  0  0  0  0  0  0
   36.5300   29.3430   33.4960 H   0  0  0  0  0  0  0  0  0  0  0  0
   35.3490   29.2850   35.3420 N   0  0  0  0  0  0  0  0  0  0  0  0
   35.6360   29.0590   36.6300 C   0  0  0  0  0  0  0  0  0  0  0  0
   34.9450   29.0090   37.8320 C   0  0  0  0  0  3  0  0  0  0  0  0
   38.5010   28.7960   35.0760 H   0  0  0  0  0  0  0  0  0  0  0  0
   37.6870   32.9080   39.9720 C   0  0  0  0  0  0  0  0  0  0  0  0
   37.1470   31.7210   40.5190 C   0  0  0  0  0  0  0  0  0  0  0  0
   38.0370   30.6170   40.6200 C   0  0  0  0  0  0  0  0  0  0  0  0
   39.3240   30.7630   40.1960 N   0  0  0  0  0  0  0  0  0  0  0  0
   39.7890   31.9290   39.6770 C   0  0  0  0  0  0  0  0  0  0  0  0
   38.9690   32.9850   39.5710 N   0  0  0  0  0  0  0  0  0  0  0  0
   36.9370   33.6950   39.9350 H   0  0  0  0  0  0  0  0  0  0  0  0
   36.1310   31.6240   40.8490 H   0  0  0  0  0  0  0  0  0  0  0  0
   40.8010   32.0350   39.3460 H   0  0  0  0  0  0  0  0  0  0  0  0
  1  2  1  0  0  0  0
  2  7  1  0  0  0  0
  2  3  1  0  0  0  0
  2  8  1  0  0  0  0
  3  9  1  0  0  0  0
  4 11  1  0  0  0  0
  4 12  1  0  0  0  0
  4  3  1  0  0  0  0
  5  4  1  0  0  0  0
  6 15  1  6  0  0  0
  6  5  1  0  0  0  0
  6  1  1  0  0  0  0
 10  3  1  0  0  0  0
 13  5  1  0  0  0  0
 14  5  1  0  0  0  0
 17 16  1  0  0  0  0
 17  6  1  0  0  0  0
 18 19  1  0  0  0  0
 18 17  2  0  0  0  0
 20 25  2  0  0  0  0
 20 18  1  0  0  0  0
 21 20  1  0  0  0  0
 22 24  2  0  0  0  0
 22 21  1  0  0  0  0
 23 22  1  0  0  0  0
 24 25  1  0  0  0  0
 25 26  1  0  0  0  0
 26 16  2  0  0  0  0
 27 21  1  0  0  0  0
 28 29  1  0  0  0  0
 29 30  2  0  0  0  0
 29 35  1  0  0  0  0
 30  1  1  0  0  0  0
 31 30  1  0  0  0  0
 32 31  2  0  0  0  0
 33 32  1  0  0  0  0
 33 28  2  0  0  0  0
 34 28  1  0  0  0  0
 36 32  1  0  0  0  0
M  END
>  <minimizedAffinity>
-5.39975929

$$$$

 OpenBabel03252502223D

 36 39  0  0  1  0  0  0  0  0999 V2000
   37.6520   29.3070   41.3490 N   0  0  0  0  0  0  0  0  0  0  0  0
   37.5280   29.2590   42.8050 C   0  0  0  0  0  0  0  0  0  0  0  0
   38.2270   27.9650   43.2230 C   0  0  0  0  0  0  0  0  0  0  0  0
   37.4390   26.7930   42.6970 C   0  0  0  0  0  0  0  0  0  0  0  0
   36.9390   26.9490   41.3150 C   0  0  0  0  0  0  0  0  0  0  0  0
   37.4650   28.1280   40.5590 C   0  0  1  0  0  0  0  0  0  0  0  0
   36.4460   29.2250   43.1060 H   0  0  0  0  0  0  0  0  0  0  0  0
   38.0430   30.1310   43.2570 H   0  0  0  0  0  0  0  0  0  0  0  0
   38.3680   27.8900   44.2990 H   0  0  0  0  0  0  0  0  0  0  0  0
   39.1970   27.9820   42.6730 H   0  0  0  0  0  0  0  0  0  0  0  0
   38.0230   25.8590   42.8630 H   0  0  0  0  0  0  0  0  0  0  0  0
   36.5490   26.6880   43.3850 H   0  0  0  0  0  0  0  0  0  0  0  0
   37.2500   26.0280   40.7510 H   0  0  0  0  0  0  0  0  0  0  0  0
   35.8160   26.9120   41.2600 H   0  0  0  0  0  0  0  0  0  0  0  0
   38.4780   27.8420   40.1720 H   0  0  0  0  0  0  0  0  0  0  0  0
   37.1870   28.3960   38.1630 C   0  0  0  0  0  3  0  0  0  0  0  0
   36.5570   28.3710   39.3910 C   0  0  0  0  0  0  0  0  0  0  0  0
   35.1920   28.5580   39.5270 C   0  0  0  0  0  0  0  0  0  0  0  0
   34.8280   28.5140   40.5470 H   0  0  0  0  0  0  0  0  0  0  0  0
   34.4510   28.7750   38.3780 C   0  0  0  0  0  0  0  0  0  0  0  0
   33.1150   28.9770   38.3000 N   0  0  0  0  0  0  0  0  0  0  0  0
   32.8680   29.1390   36.9700 C   0  0  0  0  0  0  0  0  0  0  0  0
   31.8690   29.3220   36.5720 H   0  0  0  0  0  0  0  0  0  0  0  0
   34.0260   29.0330   36.3060 N   0  0  0  0  0  0  0  0  0  0  0  0
   35.0500   28.8050   37.1370 C   0  0  0  0  0  0  0  0  0  0  0  0
   36.4200   28.6150   37.0350 C   0  0  0  0  0  3  0  0  0  0  0  0
   32.4230   29.0040   39.0760 H   0  0  0  0  0  0  0  0  0  0  0  0
   37.4260   32.7470   39.9250 C   0  0  0  0  0  0  0  0  0  0  0  0
   37.0100   31.5820   40.6100 C   0  0  0  0  0  0  0  0  0  0  0  0
   37.9610   30.5270   40.6850 C   0  0  0  0  0  0  0  0  0  0  0  0
   39.1830   30.6950   40.1060 N   0  0  0  0  0  0  0  0  0  0  0  0
   39.5280   31.8370   39.4580 C   0  0  0  0  0  0  0  0  0  0  0  0
   38.6490   32.8470   39.3750 N   0  0  0  0  0  0  0  0  0  0  0  0
   36.6380   33.4960   39.9190 H   0  0  0  0  0  0  0  0  0  0  0  0
   36.0440   31.4660   41.0610 H   0  0  0  0  0  0  0  0  0  0  0  0
   40.4900   31.9600   39.0070 H   0  0  0  0  0  0  0  0  0  0  0  0
  1  2  1  0  0  0  0
  2  7  1  0  0  0  0
  2  3  1  0  0  0  0
  2  8  1  0  0  0  0
  3  9  1  0  0  0  0
  4 11  1  0  0  0  0
  4  3  1  0  0  0  0
  4 12  1  0  0  0  0
  5  4  1  0  0  0  0
  6 15  1  6  0  0  0
  6  5  1  0  0  0  0
  6  1  1  0  0  0  0
 10  3  1  0  0  0  0
 13  5  1  0  0  0  0
 14  5  1  0  0  0  0
 16 17  1  0  0  0  0
 17 18  2  0  0  0  0
 17  6  1  0  0  0  0
 18 19  1  0  0  0  0
 20 18  1  0  0  0  0
 21 20  1  0  0  0  0
 21 27  1  0  0  0  0
 22 21  1  0  0  0  0
 23 22  1  0  0  0  0
 24 22  2  0  0  0  0
 24 25  1  0  0  0  0
 25 20  2  0  0  0  0
 26 25  1  0  0  0  0
 26 16  2  0  0  0  0
 28 29  1  0  0  0  0
 29 30  2  0  0  0  0
 29 35  1  0  0  0  0
 30  1  1  0  0  0  0
 31 30  1  0  0  0  0
 32 31  2  0  0  0  0
 33 32  1  0  0  0  0
 33 28  2  0  0  0  0
 34 28  1  0  0  0  0
 36 32  1  0  0  0  0
M  END
>  <minimizedAffinity>
-5.35298443

$$$$

 OpenBabel03252502223D

 36 39  0  0  1  0  0  0  0  0999 V2000
   36.6930   28.3120   40.9790 N   0  0  0  0  0  0  0  0  0  0  0  0
   36.8710   27.0950   41.7700 C   0  0  0  0  0  0  0  0  0  0  0  0
   36.5800   27.5080   43.2120 C   0  0  0  0  0  0  0  0  0  0  0  0
   37.6490   28.4650   43.6700 C   0  0  0  0  0  0  0  0  0  0  0  0
   38.0410   29.4850   42.6750 C   0  0  0  0  0  0  0  0  0  0  0  0
   37.1800   29.5710   41.4540 C   0  0  1  0  0  0  0  0  0  0  0  0
   37.9270   26.7220   41.6830 H   0  0  0  0  0  0  0  0  0  0  0  0
   36.1450   26.3230   41.4420 H   0  0  0  0  0  0  0  0  0  0  0  0
   36.4990   26.6600   43.8870 H   0  0  0  0  0  0  0  0  0  0  0  0
   35.6270   28.0850   43.1490 H   0  0  0  0  0  0  0  0  0  0  0  0
   37.3580   28.8880   44.6590 H   0  0  0  0  0  0  0  0  0  0  0  0
   38.5540   27.8280   43.8990 H   0  0  0  0  0  0  0  0  0  0  0  0
   37.9850   30.4820   43.1910 H   0  0  0  0  0  0  0  0  0  0  0  0
   39.1260   29.4090   42.3890 H   0  0  0  0  0  0  0  0  0  0  0  0
   36.2770   30.1760   41.7340 H   0  0  0  0  0  0  0  0  0  0  0  0
   37.3610   31.4920   39.9810 C   0  0  0  0  0  3  0  0  0  0  0  0
   37.9450   30.3130   40.4000 C   0  0  0  0  0  0  0  0  0  0  0  0
   39.1440   29.8570   39.8810 C   0  0  0  0  0  0  0  0  0  0  0  0
   39.4900   28.9180   40.2980 H   0  0  0  0  0  0  0  0  0  0  0  0
   39.7640   30.6250   38.9110 C   0  0  0  0  0  0  0  0  0  0  0  0
   40.9320   30.3540   38.2850 N   0  0  0  0  0  0  0  0  0  0  0  0
   41.1140   31.3970   37.4270 C   0  0  0  0  0  0  0  0  0  0  0  0
   41.9800   31.4760   36.7670 H   0  0  0  0  0  0  0  0  0  0  0  0
   40.0820   32.2400   37.5560 N   0  0  0  0  0  0  0  0  0  0  0  0
   39.2060   31.8060   38.4720 C   0  0  0  0  0  0  0  0  0  0  0  0
   38.0030   32.2360   39.0110 C   0  0  0  0  0  3  0  0  0  0  0  0
   41.5600   29.5350   38.4210 H   0  0  0  0  0  0  0  0  0  0  0  0
   34.2570   28.8800   38.2120 C   0  0  0  0  0  0  0  0  0  0  0  0
   34.8270   28.9960   39.5010 C   0  0  0  0  0  0  0  0  0  0  0  0
   36.0310   28.2720   39.7200 C   0  0  0  0  0  0  0  0  0  0  0  0
   36.5510   27.5280   38.7030 N   0  0  0  0  0  0  0  0  0  0  0  0
   35.9590   27.4520   37.4840 C   0  0  0  0  0  0  0  0  0  0  0  0
   34.8220   28.1270   37.2510 N   0  0  0  0  0  0  0  0  0  0  0  0
   33.3440   29.4660   38.1380 H   0  0  0  0  0  0  0  0  0  0  0  0
   34.4050   29.5870   40.2900 H   0  0  0  0  0  0  0  0  0  0  0  0
   36.3730   26.8660   36.6910 H   0  0  0  0  0  0  0  0  0  0  0  0
  1  6  1  0  0  0  0
  1  2  1  0  0  0  0
  2  3  1  0  0  0  0
  3  4  1  0  0  0  0
  3  9  1  0  0  0  0
  4 12  1  0  0  0  0
  4 11  1  0  0  0  0
  5 13  1  0  0  0  0
  5  4  1  0  0  0  0
  6 15  1  1  0  0  0
  6  5  1  0  0  0  0
  7  2  1  0  0  0  0
  8  2  1  0  0  0  0
 10  3  1  0  0  0  0
 14  5  1  0  0  0  0
 16 17  1  0  0  0  0
 17  6  1  0  0  0  0
 18 19  1  0  0  0  0
 18 17  2  0  0  0  0
 20 18  1  0  0  0  0
 21 27  1  0  0  0  0
 21 20  1  0  0  0  0
 22 24  2  0  0  0  0
 22 21  1  0  0  0  0
 23 22  1  0  0  0  0
 24 25  1  0  0  0  0
 25 20  2  0  0  0  0
 25 26  1  0  0  0  0
 26 16  2  0  0  0  0
 28 29  1  0  0  0  0
 29 30  2  0  0  0  0
 29 35  1  0  0  0  0
 30  1  1  0  0  0  0
 31 30  1  0  0  0  0
 32 31  2  0  0  0  0
 33 32  1  0  0  0  0
 33 28  2  0  0  0  0
 34 28  1  0  0  0  0
 36 32  1  0  0  0  0
M  END
>  <minimizedAffinity>
-5.26212454

$$$$

 OpenBabel03252502223D

 36 39  0  0  1  0  0  0  0  0999 V2000
   35.9840   28.4820   38.5330 N   0  0  0  0  0  0  0  0  0  0  0  0
   34.6030   28.1750   38.1620 C   0  0  0  0  0  0  0  0  0  0  0  0
   34.6710   27.7320   36.7020 C   0  0  0  0  0  0  0  0  0  0  0  0
   35.0810   28.9070   35.8530 C   0  0  0  0  0  0  0  0  0  0  0  0
   36.1620   29.7390   36.4230 C   0  0  0  0  0  0  0  0  0  0  0  0
   36.8460   29.1840   37.6320 C   0  0  1  0  0  0  0  0  0  0  0  0
   33.9600   29.0910   38.2560 H   0  0  0  0  0  0  0  0  0  0  0  0
   34.2180   27.3480   38.7930 H   0  0  0  0  0  0  0  0  0  0  0  0
   33.7380   27.3010   36.3460 H   0  0  0  0  0  0  0  0  0  0  0  0
   35.5100   26.9960   36.6720 H   0  0  0  0  0  0  0  0  0  0  0  0
   35.2830   28.5540   34.8160 H   0  0  0  0  0  0  0  0  0  0  0  0
   34.1570   29.5490   35.7510 H   0  0  0  0  0  0  0  0  0  0  0  0
   36.9430   29.8520   35.6230 H   0  0  0  0  0  0  0  0  0  0  0  0
   35.8340   30.8000   36.6070 H   0  0  0  0  0  0  0  0  0  0  0  0
   37.5990   28.4370   37.2660 H   0  0  0  0  0  0  0  0  0  0  0  0
   38.9430   30.1470   38.3850 C   0  0  0  0  0  3  0  0  0  0  0  0
   37.5740   30.3070   38.3090 C   0  0  0  0  0  0  0  0  0  0  0  0
   36.9290   31.4190   38.8210 C   0  0  0  0  0  0  0  0  0  0  0  0
   35.8530   31.4170   38.6940 H   0  0  0  0  0  0  0  0  0  0  0  0
   37.7030   32.3950   39.4250 C   0  0  0  0  0  0  0  0  0  0  0  0
   37.2660   33.5480   39.9820 N   0  0  0  0  0  0  0  0  0  0  0  0
   38.3950   34.1600   40.4370 C   0  0  0  0  0  0  0  0  0  0  0  0
   38.3800   35.1270   40.9440 H   0  0  0  0  0  0  0  0  0  0  0  0
   39.4460   33.3830   40.1500 N   0  0  0  0  0  0  0  0  0  0  0  0
   39.0720   32.2650   39.5170 C   0  0  0  0  0  0  0  0  0  0  0  0
   39.6880   31.1380   38.9940 C   0  0  0  0  0  3  0  0  0  0  0  0
   36.2890   33.8970   40.0520 H   0  0  0  0  0  0  0  0  0  0  0  0
   36.5580   28.1520   42.2040 C   0  0  0  0  0  0  0  0  0  0  0  0
   35.9640   28.6120   41.0060 C   0  0  0  0  0  0  0  0  0  0  0  0
   36.5020   28.0880   39.7990 C   0  0  0  0  0  0  0  0  0  0  0  0
   37.5310   27.1970   39.8650 N   0  0  0  0  0  0  0  0  0  0  0  0
   38.0640   26.7900   41.0460 C   0  0  0  0  0  0  0  0  0  0  0  0
   37.5740   27.2700   42.1990 N   0  0  0  0  0  0  0  0  0  0  0  0
   36.0830   28.6040   43.0720 H   0  0  0  0  0  0  0  0  0  0  0  0
   35.1530   29.3140   40.9720 H   0  0  0  0  0  0  0  0  0  0  0  0
   38.8720   26.0910   41.0880 H   0  0  0  0  0  0  0  0  0  0  0  0
  1 30  1  0  0  0  0
  2  7  1  0  0  0  0
  2  1  1  0  0  0  0
  2  8  1  0  0  0  0
  3  2  1  0  0  0  0
  4  5  1  0  0  0  0
  4  3  1  0  0  0  0
  5 14  1  0  0  0  0
  5  6  1  0  0  0  0
  6 15  1  6  0  0  0
  6 17  1  0  0  0  0
  6  1  1  0  0  0  0
  9  3  1  0  0  0  0
 10  3  1  0  0  0  0
 11  4  1  0  0  0  0
 12  4  1  0  0  0  0
 13  5  1  0  0  0  0
 16 26  1  0  0  0  0
 17 16  2  0  0  0  0
 17 18  1  0  0  0  0
 18 20  2  0  0  0  0
 19 18  1  0  0  0  0
 20 25  1  0  0  0  0
 20 21  1  0  0  0  0
 21 27  1  0  0  0  0
 21 22  1  0  0  0  0
 22 23  1  0  0  0  0
 24 22  2  0  0  0  0
 25 24  1  0  0  0  0
 26 25  2  0  0  0  0
 28 34  1  0  0  0  0
 29 28  2  0  0  0  0
 30 31  2  0  0  0  0
 30 29  1  0  0  0  0
 31 32  1  0  0  0  0
 32 36  1  0  0  0  0
 32 33  2  0  0  0  0
 33 28  1  0  0  0  0
 35 29  1  0  0  0  0
M  END
>  <minimizedAffinity>
-5.25298738

$$$$

 OpenBabel03252502223D

 36 39  0  0  1  0  0  0  0  0999 V2000
   38.3420   30.8610   40.1780 N   0  0  0  0  0  0  0  0  0  0  0  0
   39.4780   31.7570   40.3940 C   0  0  0  0  0  0  0  0  0  0  0  0
   38.8720   33.0410   40.9580 C   0  0  0  0  0  0  0  0  0  0  0  0
   38.0230   33.6890   39.8950 C   0  0  0  0  0  0  0  0  0  0  0  0
   37.1830   32.7570   39.1160 C   0  0  0  0  0  0  0  0  0  0  0  0
   37.1160   31.3530   39.6280 C   0  0  1  0  0  0  0  0  0  0  0  0
   39.9970   31.9730   39.4210 H   0  0  0  0  0  0  0  0  0  0  0  0
   40.1760   31.3100   41.1300 H   0  0  0  0  0  0  0  0  0  0  0  0
   39.6220   33.7330   41.3340 H   0  0  0  0  0  0  0  0  0  0  0  0
   38.1820   32.6930   41.7630 H   0  0  0  0  0  0  0  0  0  0  0  0
   37.4580   34.5360   40.3480 H   0  0  0  0  0  0  0  0  0  0  0  0
   38.7480   34.1890   39.1860 H   0  0  0  0  0  0  0  0  0  0  0  0
   36.1360   33.1670   39.1360 H   0  0  0  0  0  0  0  0  0  0  0  0
   37.4360   32.7660   38.0190 H   0  0  0  0  0  0  0  0  0  0  0  0
   36.3670   31.3460   40.4640 H   0  0  0  0  0  0  0  0  0  0  0  0
   35.5300   29.6830   38.8600 C   0  0  0  0  0  3  0  0  0  0  0  0
   36.6050   30.4800   38.5200 C   0  0  0  0  0  0  0  0  0  0  0  0
   37.1650   30.4680   37.2550 C   0  0  0  0  0  0  0  0  0  0  0  0
   38.0040   31.1420   37.1240 H   0  0  0  0  0  0  0  0  0  0  0  0
   36.6110   29.6220   36.3100 C   0  0  0  0  0  0  0  0  0  0  0  0
   37.0100   29.4660   35.0270 N   0  0  0  0  0  0  0  0  0  0  0  0
   36.1610   28.5320   34.5130 C   0  0  0  0  0  0  0  0  0  0  0  0
   36.2220   28.1820   33.4810 H   0  0  0  0  0  0  0  0  0  0  0  0
   35.3020   28.1640   35.4710 N   0  0  0  0  0  0  0  0  0  0  0  0
   35.5370   28.8140   36.6170 C   0  0  0  0  0  0  0  0  0  0  0  0
   35.0000   28.8490   37.8950 C   0  0  0  0  0  3  0  0  0  0  0  0
   37.7890   29.9470   34.5330 H   0  0  0  0  0  0  0  0  0  0  0  0
   37.9100   27.5670   41.8740 C   0  0  0  0  0  0  0  0  0  0  0  0
   37.7480   28.9520   41.6390 C   0  0  0  0  0  0  0  0  0  0  0  0
   38.4310   29.4800   40.5100 C   0  0  0  0  0  0  0  0  0  0  0  0
   39.1850   28.6440   39.7410 N   0  0  0  0  0  0  0  0  0  0  0  0
   39.3060   27.3200   40.0150 C   0  0  0  0  0  0  0  0  0  0  0  0
   38.6700   26.7970   41.0740 N   0  0  0  0  0  0  0  0  0  0  0  0
   37.3530   27.2540   42.7530 H   0  0  0  0  0  0  0  0  0  0  0  0
   37.1500   29.5960   42.2540 H   0  0  0  0  0  0  0  0  0  0  0  0
   39.9000   26.6700   39.4060 H   0  0  0  0  0  0  0  0  0  0  0  0
  1  2  1  0  0  0  0
  1 30  1  0  0  0  0
  2  3  1  0  0  0  0
  2  8  1  0  0  0  0
  3  9  1  0  0  0  0
  3 10  1  0  0  0  0
  4 11  1  0  0  0  0
  4  3  1  0  0  0  0
  5 13  1  0  0  0  0
  5  6  1  0  0  0  0
  5  4  1  0  0  0  0
  6  1  1  0  0  0  0
  6 15  1  1  0  0  0
  7  2  1  0  0  0  0
 12  4  1  0  0  0  0
 14  5  1  0  0  0  0
 17 16  1  0  0  0  0
 17  6  1  0  0  0  0
 18 17  2  0  0  0  0
 19 18  1  0  0  0  0
 20 25  2  0  0  0  0
 20 18  1  0  0  0  0
 21 20  1  0  0  0  0
 22 21  1  0  0  0  0
 22 24  2  0  0  0  0
 23 22  1  0  0  0  0
 24 25  1  0  0  0  0
 25 26  1  0  0  0  0
 26 16  2  0  0  0  0
 27 21  1  0  0  0  0
 28 34  1  0  0  0  0
 29 28  1  0  0  0  0
 29 35  1  0  0  0  0
 30 29  2  0  0  0  0
 31 32  2  0  0  0  0
 31 30  1  0  0  0  0
 32 33  1  0  0  0  0
 33 28  2  0  0  0  0
 36 32  1  0  0  0  0
M  END
>  <minimizedAffinity>
-5.19560719

$$$$
