REMARK  Name = 
REMARK  4 active torsions:
REMARK  status: ('A' for Active; 'I' for Inactive)
REMARK    1  A    between atoms: C_2  and  N_12
REMARK    2  A    between atoms: C_11  and  S_13
REMARK    3  A    between atoms: S_13  and  C_16
REMARK    4  A    between atoms: N_19  and  C_37
REMARK                            x       y       z     vdW  Elec       q    Type
REMARK                         _______ _______ _______ _____ _____    ______ ____
ROOT
ATOM      1  S   UNL     1      46.618  30.075  46.642  0.00  0.00    +0.000 S 
ENDROOT
BRANCH   1  12
ATOM      2  C   UNL     1      44.500  35.534  45.121  0.00  0.00    +0.000 A 
ATOM      3  C   UNL     1      45.164  35.506  43.877  0.00  0.00    +0.000 A 
ATOM      4  C   UNL     1      46.085  34.544  43.641  0.00  0.00    +0.000 A 
ATOM      5  N   UNL     1      46.315  33.650  44.634  0.00  0.00    +0.000 NA
ATOM      6  C   UNL     1      45.689  33.679  45.801  0.00  0.00    +0.000 A 
ATOM      7  N   UNL     1      44.776  34.616  46.064  0.00  0.00    +0.000 NA
ATOM      8  N   UNL     1      46.015  32.681  46.784  0.00  0.00    +0.000 N 
ATOM      9  C   UNL     1      45.270  32.452  47.967  0.00  0.00    +0.000 C 
ATOM     10  C   UNL     1      46.336  32.119  48.993  0.00  0.00    +0.000 C 
ATOM     11  C   UNL     1      47.624  32.002  48.233  0.00  0.00    +0.000 C 
ATOM     12  C   UNL     1      47.132  31.770  46.805  0.00  0.00    +0.000 C 
ATOM     13  H   UNL     1      43.769  36.313  45.287  0.00  0.00    +0.000 HD
ATOM     14  H   UNL     1      46.597  34.504  42.709  0.00  0.00    +0.000 HD
ATOM     15  H   UNL     1      44.469  31.798  48.073  0.00  0.00    +0.000 HD
ATOM     16  H   UNL     1      44.894  33.468  48.309  0.00  0.00    +0.000 HD
ATOM     17  H   UNL     1      46.444  32.846  49.796  0.00  0.00    +0.000 HD
ATOM     18  H   UNL     1      46.089  31.142  49.495  0.00  0.00    +0.000 HD
ATOM     19  H   UNL     1      48.197  31.103  48.561  0.00  0.00    +0.000 HD
ATOM     20  H   UNL     1      48.214  32.921  48.335  0.00  0.00    +0.000 HD
ATOM     21  H   UNL     1      47.972  32.057  46.149  0.00  0.00    +0.000 HD
BRANCH   3  22
ATOM     22  N   UNL     1      44.809  36.525  42.926  0.00  0.00    +0.000 N 
ATOM     23  H   UNL     1      45.602  36.806  42.318  0.00  0.00    +0.000 HD
ATOM     24  H   UNL     1      43.871  36.950  42.837  0.00  0.00    +0.000 HD
ENDBRANCH   3  22
ENDBRANCH   1  12
BRANCH   1  27
ATOM     25  O   UNL     1      45.621  30.508  43.490  0.00  0.00    +0.000 OA
ATOM     26  C   UNL     1      44.985  29.986  44.419  0.00  0.00    +0.000 C 
ATOM     27  C   UNL     1      45.073  29.783  45.885  0.00  0.00    +0.000 C 
ATOM     28  C   UNL     1      44.528  28.385  46.042  0.00  0.00    +0.000 C 
ATOM     29  C   UNL     1      43.220  28.585  45.268  0.00  0.00    +0.000 C 
ATOM     30  N   UNL     1      43.737  29.328  44.126  0.00  0.00    +0.000 N 
ATOM     31  H   UNL     1      44.189  30.395  46.218  0.00  0.00    +0.000 HD
ATOM     32  H   UNL     1      45.106  27.637  45.467  0.00  0.00    +0.000 HD
ATOM     33  H   UNL     1      44.316  28.111  47.081  0.00  0.00    +0.000 HD
ATOM     34  H   UNL     1      42.869  27.591  44.957  0.00  0.00    +0.000 HD
ATOM     35  H   UNL     1      42.483  29.163  45.848  0.00  0.00    +0.000 HD
BRANCH  30  37
ATOM     36  C   UNL     1      42.530  30.549  42.503  0.00  0.00    +0.000 A 
ATOM     37  C   UNL     1      42.949  29.294  42.915  0.00  0.00    +0.000 A 
ATOM     38  C   UNL     1      42.619  28.174  42.206  0.00  0.00    +0.000 A 
ATOM     39  H   UNL     1      42.985  27.234  42.595  0.00  0.00    +0.000 HD
ATOM     40  C   UNL     1      41.853  28.287  41.056  0.00  0.00    +0.000 A 
ATOM     41  N   UNL     1      41.406  27.350  40.200  0.00  0.00    +0.000 N 
ATOM     42  C   UNL     1      40.699  28.017  39.241  0.00  0.00    +0.000 A 
ATOM     43  H   UNL     1      40.187  27.575  38.377  0.00  0.00    +0.000 HD
ATOM     44  N   UNL     1      40.696  29.334  39.476  0.00  0.00    +0.000 NA
ATOM     45  C   UNL     1      41.406  29.530  40.598  0.00  0.00    +0.000 A 
ATOM     46  C   UNL     1      41.768  30.648  41.355  0.00  0.00    +0.000 A 
ATOM     47  H   UNL     1      41.563  26.317  40.253  0.00  0.00    +0.000 HD
ENDBRANCH  30  37
ENDBRANCH   1  27
TORSDOF 4
