
     RDKit          3D

 27 29  0  0  0  0  0  0  0  0999 V2000
   44.5330   36.0460   44.5702 C   0  0  0  0  0  0  0  0  0  0  0  0
   45.2521   36.0027   43.3557 C   0  0  0  0  0  0  0  0  0  0  0  0
   46.1394   34.9416   43.1506 C   0  0  0  0  0  0  0  0  0  0  0  0
   46.2816   34.0019   44.1058 N   0  0  0  0  0  0  0  0  0  0  0  0
   45.5686   34.0721   45.2749 C   0  0  0  0  0  0  0  0  0  0  0  0
   44.7136   35.0869   45.4824 N   0  0  0  0  0  0  0  0  0  0  0  0
   46.3946   34.1847   40.7947 C   0  0  0  0  0  0  0  0  0  0  0  0
   45.2231   33.7378   40.9303 O   0  0  0  0  0  0  0  0  0  0  0  0
   46.8780   34.8673   41.9415 N   0  0  0  0  0  0  0  0  0  0  0  0
   43.8394   36.8515   44.7611 H   0  0  0  0  0  0  0  0  0  0  0  0
   45.0962   36.7890   42.6217 H   0  0  0  0  0  0  0  0  0  0  0  0
   45.7617   33.2664   45.9682 H   0  0  0  0  0  0  0  0  0  0  0  0
   47.8042   35.3456   41.9403 H   0  0  0  0  0  0  0  0  0  0  0  0
   48.1658   34.9267   39.1638 C   0  0  0  0  0  0  0  0  0  0  0  0
   47.2047   34.0340   39.5908 C   0  0  0  0  0  0  0  0  0  0  0  0
   46.9976   32.9073   38.8100 C   0  0  0  0  0  0  0  0  0  0  0  0
   46.2812   32.1205   39.0151 H   0  0  0  0  0  0  0  0  0  0  0  0
   47.7279   32.6837   37.6428 C   0  0  0  0  0  0  0  0  0  0  0  0
   47.7872   31.7446   36.6876 N   0  0  0  0  0  0  0  0  0  0  0  0
   48.7164   32.0712   35.7735 C   0  0  0  0  0  0  0  0  0  0  0  0
   49.0162   31.5325   34.8767 H   0  0  0  0  0  0  0  0  0  0  0  0
   49.2991   33.2477   36.1079 N   0  0  0  0  0  0  0  0  0  0  0  0
   48.6813   33.6024   37.2500 C   0  0  0  0  0  0  0  0  0  0  0  0
   48.8965   34.7254   38.0168 C   0  0  0  0  0  0  0  0  0  0  0  0
   48.3329   35.8084   39.7681 H   0  0  0  0  0  0  0  0  0  0  0  0
   47.1854   30.8853   36.6745 H   0  0  0  0  0  0  0  0  0  0  0  0
   49.6307   35.4860   37.7639 H   0  0  0  0  0  0  0  0  0  0  0  0
  1  6  2  0
  2  1  1  0
  3  2  2  0
  3  4  1  0
  4  5  2  0
  5  6  1  0
  7  8  2  0
  7  9  1  0
  9  3  1  0
  1 10  1  0
  2 11  1  0
  5 12  1  0
  9 13  1  0
 14 15  2  0
 15 16  1  0
 16 17  1  0
 16 18  2  0
 18 19  1  0
 19 20  1  0
 20 21  1  0
 20 22  2  0
 22 23  1  0
 23 24  2  0
 24 14  1  0
 23 18  1  0
 14 25  1  0
 19 26  1  0
 24 27  1  0
  7 15  1  0
M  ISO  5  10  14  11  14  12  14  17  15  21  14
M  END
>  <DihAtoms>  (1) 
7,6,14,13

>  <DihDeg>  (1) 
179.99955153938652

$$$$
