
 OpenBabel03252501523D

 48 52  0  0  1  0  0  0  0  0999 V2000
   36.3800   27.8410   39.9810 C   0  0  0  0  0  0  0  0  0  0  0  0
   37.3280   27.7770   39.4060 H   0  0  0  0  0  0  0  0  0  0  0  0
   36.0160   26.8100   40.2190 H   0  0  0  0  0  0  0  0  0  0  0  0
   36.6500   28.5430   41.2020 N   0  0  0  0  0  0  0  0  0  0  0  0
   36.2970   27.7570   42.3400 C   0  0  0  0  0  0  0  0  0  0  0  0
   37.2680   28.0840   43.4440 C   0  0  0  0  0  0  0  0  0  0  0  0
   38.4810   28.5240   42.6900 C   0  0  0  0  0  0  0  0  0  0  0  0
   38.0130   28.9390   41.3090 C   0  0  2  0  0  0  0  0  0  0  0  0
   35.2380   27.8330   42.6290 H   0  0  0  0  0  0  0  0  0  0  0  0
   36.4780   26.6720   42.0910 H   0  0  0  0  0  0  0  0  0  0  0  0
   37.4780   27.2150   44.1000 H   0  0  0  0  0  0  0  0  0  0  0  0
   36.8290   28.9240   44.0230 H   0  0  0  0  0  0  0  0  0  0  0  0
   38.9270   29.4340   43.1710 H   0  0  0  0  0  0  0  0  0  0  0  0
   39.2820   27.7650   42.6750 H   0  0  0  0  0  0  0  0  0  0  0  0
   38.6150   28.3610   40.5820 H   0  0  0  0  0  0  0  0  0  0  0  0
   39.5880   30.6830   41.3940 C   0  0  0  0  0  3  0  0  0  0  0  0
   38.2650   30.3770   41.0570 C   0  0  0  0  0  0  0  0  0  0  0  0
   37.4630   31.3900   40.5740 C   0  0  0  0  0  0  0  0  0  0  0  0
   36.4690   31.0060   40.3560 H   0  0  0  0  0  0  0  0  0  0  0  0
   37.9560   32.6570   40.4310 C   0  0  0  0  0  0  0  0  0  0  0  0
   37.2890   33.7400   39.9730 N   0  0  0  0  0  0  0  0  0  0  0  0
   38.1880   34.7520   40.0160 C   0  0  0  0  0  0  0  0  0  0  0  0
   37.9120   35.7630   39.6950 H   0  0  0  0  0  0  0  0  0  0  0  0
   39.3640   34.2820   40.4870 N   0  0  0  0  0  0  0  0  0  0  0  0
   39.2580   32.9650   40.7610 C   0  0  0  0  0  0  0  0  0  0  0  0
   40.0900   31.9790   41.2470 C   0  0  0  0  0  3  0  0  0  0  0  0
   36.2930   33.7950   39.6530 H   0  0  0  0  0  0  0  0  0  0  0  0
   34.9470   27.9600   37.9920 C   0  0  0  0  0  3  0  0  0  0  0  0
   35.4150   28.5710   39.0930 C   0  0  0  0  0  3  0  0  0  0  0  0
   32.7090   29.1020   37.5030 C   0  0  0  0  0  0  0  0  0  0  0  0
   33.9960   28.6450   37.0890 C   0  0  0  0  0  0  0  0  0  0  0  0
   34.3930   28.8500   35.7570 C   0  0  0  0  0  0  0  0  0  0  0  0
   33.5210   29.4810   34.9210 N   0  0  0  0  0  0  0  0  0  0  0  0
   32.3160   29.8960   35.3530 C   0  0  0  0  0  0  0  0  0  0  0  0
   31.9450   29.6980   36.6190 N   0  0  0  0  0  0  0  0  0  0  0  0
   32.4600   28.9140   38.5440 H   0  0  0  0  0  0  0  0  0  0  0  0
   35.3550   28.5060   35.4540 H   0  0  0  0  0  0  0  0  0  0  0  0
   30.8370   28.4880   33.4800 F   0  0  0  0  0  0  0  0  0  0  0  0
   30.6960   29.8350   33.4870 C   0  0  0  0  0  0  0  0  0  0  0  0
   31.4240   30.5660   34.4150 C   0  0  0  0  0  0  0  0  0  0  0  0
   31.3430   31.9560   34.4960 C   0  0  0  0  0  0  0  0  0  0  0  0
   30.4850   32.5810   33.5920 C   0  0  0  0  0  0  0  0  0  0  0  0
   29.7370   31.8580   32.6420 C   0  0  0  0  0  0  0  0  0  0  0  0
   29.8510   30.4790   32.5990 C   0  0  0  0  0  0  0  0  0  0  0  0
   31.9040   32.5420   35.2120 H   0  0  0  0  0  0  0  0  0  0  0  0
   30.4400   33.6640   33.6750 H   0  0  0  0  0  0  0  0  0  0  0  0
   29.0950   32.4100   31.9750 H   0  0  0  0  0  0  0  0  0  0  0  0
   29.2800   29.9390   31.8770 H   0  0  0  0  0  0  0  0  0  0  0  0
  1  3  1  0  0  0  0
  1  4  1  0  0  0  0
  2  1  1  0  0  0  0
  4  8  1  0  0  0  0
  4  5  1  0  0  0  0
  5  9  1  0  0  0  0
  5  6  1  0  0  0  0
  6 12  1  0  0  0  0
  6 11  1  0  0  0  0
  7 13  1  0  0  0  0
  7  6  1  0  0  0  0
  8 15  1  6  0  0  0
  8  7  1  0  0  0  0
 10  5  1  0  0  0  0
 14  7  1  0  0  0  0
 17  8  1  0  0  0  0
 17 16  2  0  0  0  0
 18 17  1  0  0  0  0
 19 18  1  0  0  0  0
 20 18  2  0  0  0  0
 20 25  1  0  0  0  0
 21 22  1  0  0  0  0
 21 20  1  0  0  0  0
 22 24  2  0  0  0  0
 23 22  1  0  0  0  0
 24 25  1  0  0  0  0
 25 26  2  0  0  0  0
 26 16  1  0  0  0  0
 27 21  1  0  0  0  0
 28 29  2  0  0  0  0
 29  1  1  0  0  0  0
 30 36  1  0  0  0  0
 31 30  1  0  0  0  0
 31 28  1  0  0  0  0
 32 31  2  0  0  0  0
 33 34  2  0  0  0  0
 33 32  1  0  0  0  0
 34 35  1  0  0  0  0
 35 30  2  0  0  0  0
 37 32  1  0  0  0  0
 38 39  1  0  0  0  0
 39 40  1  0  0  0  0
 40 41  2  0  0  0  0
 40 34  1  0  0  0  0
 41 45  1  0  0  0  0
 42 46  1  0  0  0  0
 42 41  1  0  0  0  0
 43 42  2  0  0  0  0
 44 43  1  0  0  0  0
 44 39  2  0  0  0  0
 47 43  1  0  0  0  0
 48 44  1  0  0  0  0
M  END
>  <minimizedAffinity>
-6.96318579

$$$$

 OpenBabel03252501523D

 48 52  0  0  1  0  0  0  0  0999 V2000
   37.4740   27.5690   40.0590 C   0  0  0  0  0  0  0  0  0  0  0  0
   38.3790   27.9460   39.5380 H   0  0  0  0  0  0  0  0  0  0  0  0
   37.6550   26.5240   40.4170 H   0  0  0  0  0  0  0  0  0  0  0  0
   37.2260   28.4210   41.1850 N   0  0  0  0  0  0  0  0  0  0  0  0
   36.6380   27.6940   42.2640 C   0  0  0  0  0  0  0  0  0  0  0  0
   37.1370   28.2970   43.5510 C   0  0  0  0  0  0  0  0  0  0  0  0
   38.4520   28.8800   43.1480 C   0  0  0  0  0  0  0  0  0  0  0  0
   38.4060   29.0690   41.6440 C   0  0  2  0  0  0  0  0  0  0  0  0
   35.5430   27.5990   42.2000 H   0  0  0  0  0  0  0  0  0  0  0  0
   37.0460   26.6420   42.2460 H   0  0  0  0  0  0  0  0  0  0  0  0
   37.2440   27.5470   44.3610 H   0  0  0  0  0  0  0  0  0  0  0  0
   36.4160   29.0920   43.8370 H   0  0  0  0  0  0  0  0  0  0  0  0
   38.5800   29.8980   43.6020 H   0  0  0  0  0  0  0  0  0  0  0  0
   39.3150   28.2840   43.4920 H   0  0  0  0  0  0  0  0  0  0  0  0
   39.2900   28.5460   41.2300 H   0  0  0  0  0  0  0  0  0  0  0  0
   37.3010   30.9300   40.7240 C   0  0  0  0  0  3  0  0  0  0  0  0
   38.5160   30.4990   41.2700 C   0  0  0  0  0  0  0  0  0  0  0  0
   39.5470   31.4100   41.3710 C   0  0  0  0  0  0  0  0  0  0  0  0
   40.4200   30.9350   41.8110 H   0  0  0  0  0  0  0  0  0  0  0  0
   39.3790   32.6980   40.9450 C   0  0  0  0  0  0  0  0  0  0  0  0
   40.2950   33.6910   40.9830 N   0  0  0  0  0  0  0  0  0  0  0  0
   39.6680   34.7700   40.4570 C   0  0  0  0  0  0  0  0  0  0  0  0
   40.1860   35.7310   40.3650 H   0  0  0  0  0  0  0  0  0  0  0  0
   38.4070   34.4280   40.1140 N   0  0  0  0  0  0  0  0  0  0  0  0
   38.1850   33.1290   40.4070 C   0  0  0  0  0  0  0  0  0  0  0  0
   37.1320   32.2480   40.2900 C   0  0  0  0  0  3  0  0  0  0  0  0
   41.2790   33.6450   41.3390 H   0  0  0  0  0  0  0  0  0  0  0  0
   36.0180   28.7980   38.5120 C   0  0  0  0  0  3  0  0  0  0  0  0
   36.3710   27.6150   39.0420 C   0  0  0  0  0  3  0  0  0  0  0  0
   35.1710   28.9470   36.1010 C   0  0  0  0  0  0  0  0  0  0  0  0
   34.9360   28.8880   37.5070 C   0  0  0  0  0  0  0  0  0  0  0  0
   33.6120   28.9150   37.9750 C   0  0  0  0  0  0  0  0  0  0  0  0
   32.6100   28.9970   37.0550 N   0  0  0  0  0  0  0  0  0  0  0  0
   32.8760   29.0510   35.7360 C   0  0  0  0  0  0  0  0  0  0  0  0
   34.1360   29.0250   35.2980 N   0  0  0  0  0  0  0  0  0  0  0  0
   36.2150   28.9220   35.8010 H   0  0  0  0  0  0  0  0  0  0  0  0
   33.4420   28.8710   39.0270 H   0  0  0  0  0  0  0  0  0  0  0  0
   32.2900   31.3920   34.3750 F   0  0  0  0  0  0  0  0  0  0  0  0
   31.4940   30.3240   34.1300 C   0  0  0  0  0  0  0  0  0  0  0  0
   31.7660   29.1380   34.7970 C   0  0  0  0  0  0  0  0  0  0  0  0
   31.0010   27.9870   34.6070 C   0  0  0  0  0  0  0  0  0  0  0  0
   29.9430   28.0860   33.7050 C   0  0  0  0  0  0  0  0  0  0  0  0
   29.6510   29.2800   33.0180 C   0  0  0  0  0  0  0  0  0  0  0  0
   30.4370   30.3970   33.2390 C   0  0  0  0  0  0  0  0  0  0  0  0
   31.1980   27.0540   35.1190 H   0  0  0  0  0  0  0  0  0  0  0  0
   29.3630   27.1750   33.5760 H   0  0  0  0  0  0  0  0  0  0  0  0
   28.8160   29.2820   32.3360 H   0  0  0  0  0  0  0  0  0  0  0  0
   30.2090   31.2990   32.7130 H   0  0  0  0  0  0  0  0  0  0  0  0
  1  3  1  0  0  0  0
  1  4  1  0  0  0  0
  2  1  1  0  0  0  0
  4  8  1  0  0  0  0
  4  5  1  0  0  0  0
  5  6  1  0  0  0  0
  6 12  1  0  0  0  0
  6 11  1  0  0  0  0
  7 14  1  0  0  0  0
  7  6  1  0  0  0  0
  7 13  1  0  0  0  0
  8 15  1  6  0  0  0
  8  7  1  0  0  0  0
  9  5  1  0  0  0  0
 10  5  1  0  0  0  0
 16 17  1  0  0  0  0
 17 18  2  0  0  0  0
 17  8  1  0  0  0  0
 18 19  1  0  0  0  0
 20 21  1  0  0  0  0
 20 18  1  0  0  0  0
 21 27  1  0  0  0  0
 22 21  1  0  0  0  0
 23 22  1  0  0  0  0
 24 25  1  0  0  0  0
 24 22  2  0  0  0  0
 25 20  2  0  0  0  0
 26 25  1  0  0  0  0
 26 16  2  0  0  0  0
 28 29  2  0  0  0  0
 29  1  1  0  0  0  0
 30 31  1  0  0  0  0
 31 32  2  0  0  0  0
 31 28  1  0  0  0  0
 32 37  1  0  0  0  0
 33 32  1  0  0  0  0
 34 33  2  0  0  0  0
 35 34  1  0  0  0  0
 35 30  2  0  0  0  0
 36 30  1  0  0  0  0
 39 38  1  0  0  0  0
 39 40  1  0  0  0  0
 40 34  1  0  0  0  0
 41 40  2  0  0  0  0
 41 45  1  0  0  0  0
 42 41  1  0  0  0  0
 43 44  1  0  0  0  0
 43 42  2  0  0  0  0
 44 39  2  0  0  0  0
 46 42  1  0  0  0  0
 47 43  1  0  0  0  0
 48 44  1  0  0  0  0
M  END
>  <minimizedAffinity>
-6.38397312

$$$$

 OpenBabel03252501523D

 48 52  0  0  1  0  0  0  0  0999 V2000
   39.3300   31.5700   37.8170 C   0  0  0  0  0  0  0  0  0  0  0  0
   39.5160   32.4300   37.1390 H   0  0  0  0  0  0  0  0  0  0  0  0
   40.0140   30.7260   37.5490 H   0  0  0  0  0  0  0  0  0  0  0  0
   39.6040   31.9980   39.1580 N   0  0  0  0  0  0  0  0  0  0  0  0
   40.3030   33.2420   39.1710 C   0  0  0  0  0  0  0  0  0  0  0  0
   39.8580   34.0070   40.3890 C   0  0  0  0  0  0  0  0  0  0  0  0
   38.4880   33.4630   40.6330 C   0  0  0  0  0  0  0  0  0  0  0  0
   38.4220   32.1150   39.9420 C   0  0  2  0  0  0  0  0  0  0  0  0
   41.3950   33.1480   39.0660 H   0  0  0  0  0  0  0  0  0  0  0  0
   39.9550   33.8530   38.2880 H   0  0  0  0  0  0  0  0  0  0  0  0
   39.8480   35.1050   40.2260 H   0  0  0  0  0  0  0  0  0  0  0  0
   40.5510   33.7330   41.2140 H   0  0  0  0  0  0  0  0  0  0  0  0
   38.3340   33.2770   41.7280 H   0  0  0  0  0  0  0  0  0  0  0  0
   37.6850   34.1560   40.3270 H   0  0  0  0  0  0  0  0  0  0  0  0
   37.5440   32.1450   39.2680 H   0  0  0  0  0  0  0  0  0  0  0  0
   39.3460   30.8750   41.7130 C   0  0  0  0  0  3  0  0  0  0  0  0
   38.2080   31.0150   40.9110 C   0  0  0  0  0  0  0  0  0  0  0  0
   37.1420   30.1700   41.1360 C   0  0  0  0  0  0  0  0  0  0  0  0
   36.3360   30.3940   40.4420 H   0  0  0  0  0  0  0  0  0  0  0  0
   37.2030   29.2220   42.1190 C   0  0  0  0  0  0  0  0  0  0  0  0
   36.2410   28.3320   42.4500 N   0  0  0  0  0  0  0  0  0  0  0  0
   36.7600   27.6130   43.4720 C   0  0  0  0  0  0  0  0  0  0  0  0
   36.1850   26.8080   43.9440 H   0  0  0  0  0  0  0  0  0  0  0  0
   38.0050   28.0640   43.7450 N   0  0  0  0  0  0  0  0  0  0  0  0
   38.3200   29.0790   42.9140 C   0  0  0  0  0  0  0  0  0  0  0  0
   39.4060   29.9050   42.7190 C   0  0  0  0  0  3  0  0  0  0  0  0
   35.2950   28.2170   42.0150 H   0  0  0  0  0  0  0  0  0  0  0  0
   37.5900   29.9470   37.2160 C   0  0  0  0  0  3  0  0  0  0  0  0
   37.8920   31.1950   37.6100 C   0  0  0  0  0  3  0  0  0  0  0  0
   35.2660   29.2880   38.0620 C   0  0  0  0  0  0  0  0  0  0  0  0
   36.1850   29.5370   36.9990 C   0  0  0  0  0  0  0  0  0  0  0  0
   35.7460   29.3890   35.6730 C   0  0  0  0  0  0  0  0  0  0  0  0
   34.4520   29.0110   35.4670 N   0  0  0  0  0  0  0  0  0  0  0  0
   33.6180   28.7870   36.4990 C   0  0  0  0  0  0  0  0  0  0  0  0
   34.0420   28.9290   37.7560 N   0  0  0  0  0  0  0  0  0  0  0  0
   35.6650   29.4190   39.0640 H   0  0  0  0  0  0  0  0  0  0  0  0
   36.4370   29.5760   34.8840 H   0  0  0  0  0  0  0  0  0  0  0  0
   31.4980   30.5540   36.7390 F   0  0  0  0  0  0  0  0  0  0  0  0
   31.2030   29.2920   36.3490 C   0  0  0  0  0  0  0  0  0  0  0  0
   32.2450   28.3850   36.2190 C   0  0  0  0  0  0  0  0  0  0  0  0
   32.0370   27.0640   35.8220 C   0  0  0  0  0  0  0  0  0  0  0  0
   30.7190   26.6960   35.5580 C   0  0  0  0  0  0  0  0  0  0  0  0
   29.6460   27.6010   35.6830 C   0  0  0  0  0  0  0  0  0  0  0  0
   29.9020   28.9020   36.0810 C   0  0  0  0  0  0  0  0  0  0  0  0
   32.8380   26.3440   35.7170 H   0  0  0  0  0  0  0  0  0  0  0  0
   30.5830   25.6620   35.2510 H   0  0  0  0  0  0  0  0  0  0  0  0
   28.6530   27.2440   35.4630 H   0  0  0  0  0  0  0  0  0  0  0  0
   29.0830   29.5810   36.1730 H   0  0  0  0  0  0  0  0  0  0  0  0
  1  4  1  0  0  0  0
  2  1  1  0  0  0  0
  3  1  1  0  0  0  0
  4  5  1  0  0  0  0
  4  8  1  0  0  0  0
  5  6  1  0  0  0  0
  6  7  1  0  0  0  0
  6 12  1  0  0  0  0
  7 13  1  0  0  0  0
  8 15  1  6  0  0  0
  8  7  1  0  0  0  0
  8 17  1  0  0  0  0
  9  5  1  0  0  0  0
 10  5  1  0  0  0  0
 11  6  1  0  0  0  0
 14  7  1  0  0  0  0
 16 26  1  0  0  0  0
 17 18  1  0  0  0  0
 17 16  2  0  0  0  0
 18 20  2  0  0  0  0
 19 18  1  0  0  0  0
 20 21  1  0  0  0  0
 20 25  1  0  0  0  0
 21 22  1  0  0  0  0
 22 24  2  0  0  0  0
 22 23  1  0  0  0  0
 25 24  1  0  0  0  0
 26 25  2  0  0  0  0
 27 21  1  0  0  0  0
 28 29  2  0  0  0  0
 29  1  1  0  0  0  0
 30 36  1  0  0  0  0
 31 28  1  0  0  0  0
 31 30  2  0  0  0  0
 32 31  1  0  0  0  0
 33 32  2  0  0  0  0
 33 34  1  0  0  0  0
 34 35  2  0  0  0  0
 35 30  1  0  0  0  0
 37 32  1  0  0  0  0
 39 38  1  0  0  0  0
 40 39  1  0  0  0  0
 40 34  1  0  0  0  0
 41 40  2  0  0  0  0
 42 43  2  0  0  0  0
 42 41  1  0  0  0  0
 43 44  1  0  0  0  0
 44 48  1  0  0  0  0
 44 39  2  0  0  0  0
 45 41  1  0  0  0  0
 46 42  1  0  0  0  0
 47 43  1  0  0  0  0
M  END
>  <minimizedAffinity>
-6.26498938

$$$$

 OpenBabel03252501523D

 48 52  0  0  1  0  0  0  0  0999 V2000
   36.6060   29.5030   36.4250 C   0  0  0  0  0  0  0  0  0  0  0  0
   37.0120   28.6290   35.8730 H   0  0  0  0  0  0  0  0  0  0  0  0
   36.2290   30.2640   35.6970 H   0  0  0  0  0  0  0  0  0  0  0  0
   35.5170   29.0440   37.2390 N   0  0  0  0  0  0  0  0  0  0  0  0
   34.2750   29.1450   36.5450 C   0  0  0  0  0  0  0  0  0  0  0  0
   33.4020   28.0020   36.9940 C   0  0  0  0  0  0  0  0  0  0  0  0
   34.4030   26.9710   37.4020 C   0  0  0  0  0  0  0  0  0  0  0  0
   35.7000   27.7040   37.6820 C   0  0  2  0  0  0  0  0  0  0  0  0
   33.7990   30.1350   36.6140 H   0  0  0  0  0  0  0  0  0  0  0  0
   34.4660   28.9640   35.4470 H   0  0  0  0  0  0  0  0  0  0  0  0
   32.7290   27.6360   36.1920 H   0  0  0  0  0  0  0  0  0  0  0  0
   32.8200   28.3640   37.8690 H   0  0  0  0  0  0  0  0  0  0  0  0
   34.0880   26.4850   38.3640 H   0  0  0  0  0  0  0  0  0  0  0  0
   34.5070   26.1520   36.6690 H   0  0  0  0  0  0  0  0  0  0  0  0
   36.4790   27.2210   37.0600 H   0  0  0  0  0  0  0  0  0  0  0  0
   36.6560   26.2960   39.3050 C   0  0  0  0  0  3  0  0  0  0  0  0
   36.1100   27.5680   39.1000 C   0  0  0  0  0  0  0  0  0  0  0  0
   36.0470   28.4330   40.1710 C   0  0  0  0  0  0  0  0  0  0  0  0
   35.6020   29.3760   39.8630 H   0  0  0  0  0  0  0  0  0  0  0  0
   36.5080   28.0510   41.4000 C   0  0  0  0  0  0  0  0  0  0  0  0
   36.5110   28.7890   42.5320 N   0  0  0  0  0  0  0  0  0  0  0  0
   37.0610   27.9890   43.4750 C   0  0  0  0  0  0  0  0  0  0  0  0
   37.1890   28.3390   44.5050 H   0  0  0  0  0  0  0  0  0  0  0  0
   37.3810   26.8000   42.9180 N   0  0  0  0  0  0  0  0  0  0  0  0
   37.0480   26.7990   41.6100 C   0  0  0  0  0  0  0  0  0  0  0  0
   37.1270   25.9070   40.5630 C   0  0  0  0  0  3  0  0  0  0  0  0
   36.1640   29.7690   42.6620 H   0  0  0  0  0  0  0  0  0  0  0  0
   37.5450   31.0940   38.0400 C   0  0  0  0  0  3  0  0  0  0  0  0
   37.7500   30.0390   37.2350 C   0  0  0  0  0  3  0  0  0  0  0  0
   38.4380   32.5270   39.9640 C   0  0  0  0  0  0  0  0  0  0  0  0
   38.6460   31.6550   38.8530 C   0  0  0  0  0  0  0  0  0  0  0  0
   39.9600   31.3040   38.5040 C   0  0  0  0  0  0  0  0  0  0  0  0
   40.9790   31.8170   39.2500 N   0  0  0  0  0  0  0  0  0  0  0  0
   40.7380   32.6370   40.2900 C   0  0  0  0  0  0  0  0  0  0  0  0
   39.4870   32.9670   40.6170 N   0  0  0  0  0  0  0  0  0  0  0  0
   37.4000   32.7630   40.1840 H   0  0  0  0  0  0  0  0  0  0  0  0
   40.1100   30.6530   37.6740 H   0  0  0  0  0  0  0  0  0  0  0  0
   41.5330   35.2850   40.1100 F   0  0  0  0  0  0  0  0  0  0  0  0
   42.2420   34.4870   40.9430 C   0  0  0  0  0  0  0  0  0  0  0  0
   41.8660   33.1560   41.0530 C   0  0  0  0  0  0  0  0  0  0  0  0
   42.5370   32.2600   41.8860 C   0  0  0  0  0  0  0  0  0  0  0  0
   43.6130   32.7720   42.6090 C   0  0  0  0  0  0  0  0  0  0  0  0
   44.0110   34.1200   42.5110 C   0  0  0  0  0  0  0  0  0  0  0  0
   43.3150   34.9710   41.6710 C   0  0  0  0  0  0  0  0  0  0  0  0
   42.2580   31.2190   41.9840 H   0  0  0  0  0  0  0  0  0  0  0  0
   44.1190   32.0540   43.2500 H   0  0  0  0  0  0  0  0  0  0  0  0
   44.8540   34.4440   43.1010 H   0  0  0  0  0  0  0  0  0  0  0  0
   43.6230   35.9920   41.6040 H   0  0  0  0  0  0  0  0  0  0  0  0
  1 29  1  0  0  0  0
  1  4  1  0  0  0  0
  2  1  1  0  0  0  0
  3  1  1  0  0  0  0
  4  8  1  0  0  0  0
  5  9  1  0  0  0  0
  5  6  1  0  0  0  0
  5  4  1  0  0  0  0
  6  7  1  0  0  0  0
  6 12  1  0  0  0  0
  7  8  1  0  0  0  0
  7 13  1  0  0  0  0
  8 15  1  6  0  0  0
  8 17  1  0  0  0  0
 10  5  1  0  0  0  0
 11  6  1  0  0  0  0
 14  7  1  0  0  0  0
 16 26  1  0  0  0  0
 17 16  2  0  0  0  0
 17 18  1  0  0  0  0
 18 20  2  0  0  0  0
 19 18  1  0  0  0  0
 20 25  1  0  0  0  0
 20 21  1  0  0  0  0
 21 27  1  0  0  0  0
 21 22  1  0  0  0  0
 22 23  1  0  0  0  0
 24 22  2  0  0  0  0
 25 24  1  0  0  0  0
 26 25  2  0  0  0  0
 28 31  1  0  0  0  0
 29 28  2  0  0  0  0
 30 36  1  0  0  0  0
 30 35  1  0  0  0  0
 31 30  2  0  0  0  0
 32 31  1  0  0  0  0
 32 33  2  0  0  0  0
 33 34  1  0  0  0  0
 34 35  2  0  0  0  0
 34 40  1  0  0  0  0
 37 32  1  0  0  0  0
 38 39  1  0  0  0  0
 39 40  2  0  0  0  0
 39 44  1  0  0  0  0
 40 41  1  0  0  0  0
 41 45  1  0  0  0  0
 41 42  2  0  0  0  0
 42 46  1  0  0  0  0
 43 42  1  0  0  0  0
 43 47  1  0  0  0  0
 44 43  2  0  0  0  0
 48 44  1  0  0  0  0
M  END
>  <minimizedAffinity>
-6.25854492

$$$$

 OpenBabel03252501523D

 48 52  0  0  1  0  0  0  0  0999 V2000
   39.9250   25.6180   43.4930 C   0  0  0  0  0  0  0  0  0  0  0  0
   39.2620   25.5170   44.3790 H   0  0  0  0  0  0  0  0  0  0  0  0
   40.7320   24.8440   43.5390 H   0  0  0  0  0  0  0  0  0  0  0  0
   39.1290   25.4060   42.3190 N   0  0  0  0  0  0  0  0  0  0  0  0
   39.0950   24.0250   41.9600 C   0  0  0  0  0  0  0  0  0  0  0  0
   37.7430   23.7390   41.3620 C   0  0  0  0  0  0  0  0  0  0  0  0
   36.8780   24.7760   42.0010 C   0  0  0  0  0  0  0  0  0  0  0  0
   37.7980   25.8850   42.4740 C   0  0  2  0  0  0  0  0  0  0  0  0
   39.9450   23.6990   41.3410 H   0  0  0  0  0  0  0  0  0  0  0  0
   39.1410   23.4120   42.9060 H   0  0  0  0  0  0  0  0  0  0  0  0
   37.3880   22.7100   41.5760 H   0  0  0  0  0  0  0  0  0  0  0  0
   37.8310   23.9100   40.2670 H   0  0  0  0  0  0  0  0  0  0  0  0
   36.1860   25.2260   41.2420 H   0  0  0  0  0  0  0  0  0  0  0  0
   36.2310   24.3700   42.7980 H   0  0  0  0  0  0  0  0  0  0  0  0
   37.5900   26.0340   43.5510 H   0  0  0  0  0  0  0  0  0  0  0  0
   38.1260   27.1560   40.5230 C   0  0  0  0  0  3  0  0  0  0  0  0
   37.5120   27.1630   41.7800 C   0  0  0  0  0  0  0  0  0  0  0  0
   36.7880   28.2770   42.1480 C   0  0  0  0  0  0  0  0  0  0  0  0
   36.3720   28.1400   43.1430 H   0  0  0  0  0  0  0  0  0  0  0  0
   36.6760   29.3440   41.2990 C   0  0  0  0  0  0  0  0  0  0  0  0
   36.0020   30.4930   41.5240 N   0  0  0  0  0  0  0  0  0  0  0  0
   36.1830   31.2340   40.4050 C   0  0  0  0  0  0  0  0  0  0  0  0
   35.7380   32.2310   40.3130 H   0  0  0  0  0  0  0  0  0  0  0  0
   36.9460   30.5400   39.5320 N   0  0  0  0  0  0  0  0  0  0  0  0
   37.2780   29.3430   40.0590 C   0  0  0  0  0  0  0  0  0  0  0  0
   38.0110   28.2470   39.6570 C   0  0  0  0  0  3  0  0  0  0  0  0
   35.4570   30.7620   42.3770 H   0  0  0  0  0  0  0  0  0  0  0  0
   41.1430   27.5050   42.5050 C   0  0  0  0  0  3  0  0  0  0  0  0
   40.4920   27.0050   43.5680 C   0  0  0  0  0  3  0  0  0  0  0  0
   40.9750   30.0270   42.9140 C   0  0  0  0  0  0  0  0  0  0  0  0
   41.7190   28.8670   42.5380 C   0  0  0  0  0  0  0  0  0  0  0  0
   43.0690   29.0150   42.1780 C   0  0  0  0  0  0  0  0  0  0  0  0
   43.6050   30.2680   42.2070 N   0  0  0  0  0  0  0  0  0  0  0  0
   42.8680   31.3340   42.5680 C   0  0  0  0  0  0  0  0  0  0  0  0
   41.5860   31.1880   42.9080 N   0  0  0  0  0  0  0  0  0  0  0  0
   39.9370   29.8490   43.1800 H   0  0  0  0  0  0  0  0  0  0  0  0
   43.6190   28.1460   41.8980 H   0  0  0  0  0  0  0  0  0  0  0  0
   42.0440   33.3640   40.8710 F   0  0  0  0  0  0  0  0  0  0  0  0
   43.0610   33.6480   41.7190 C   0  0  0  0  0  0  0  0  0  0  0  0
   43.4930   32.6500   42.5810 C   0  0  0  0  0  0  0  0  0  0  0  0
   44.5330   32.8520   43.4890 C   0  0  0  0  0  0  0  0  0  0  0  0
   45.1210   34.1150   43.4900 C   0  0  0  0  0  0  0  0  0  0  0  0
   44.6960   35.1420   42.6230 C   0  0  0  0  0  0  0  0  0  0  0  0
   43.6610   34.8950   41.7390 C   0  0  0  0  0  0  0  0  0  0  0  0
   44.8830   32.0850   44.1680 H   0  0  0  0  0  0  0  0  0  0  0  0
   45.9280   34.2460   44.2060 H   0  0  0  0  0  0  0  0  0  0  0  0
   45.1990   36.0940   42.6800 H   0  0  0  0  0  0  0  0  0  0  0  0
   43.3450   35.6790   41.0860 H   0  0  0  0  0  0  0  0  0  0  0  0
  1  3  1  0  0  0  0
  1 29  1  0  0  0  0
  1  2  1  0  0  0  0
  4  8  1  0  0  0  0
  4  1  1  0  0  0  0
  5  4  1  0  0  0  0
  5 10  1  0  0  0  0
  6 11  1  0  0  0  0
  6  5  1  0  0  0  0
  6  7  1  0  0  0  0
  7  8  1  0  0  0  0
  7 14  1  0  0  0  0
  8 15  1  1  0  0  0
  9  5  1  0  0  0  0
 12  6  1  0  0  0  0
 13  7  1  0  0  0  0
 16 17  1  0  0  0  0
 17 18  2  0  0  0  0
 17  8  1  0  0  0  0
 18 19  1  0  0  0  0
 20 21  1  0  0  0  0
 20 18  1  0  0  0  0
 21 27  1  0  0  0  0
 22 21  1  0  0  0  0
 23 22  1  0  0  0  0
 24 25  1  0  0  0  0
 24 22  2  0  0  0  0
 25 20  2  0  0  0  0
 26 25  1  0  0  0  0
 26 16  2  0  0  0  0
 28 31  1  0  0  0  0
 28 29  2  0  0  0  0
 30 36  1  0  0  0  0
 31 30  2  0  0  0  0
 32 33  2  0  0  0  0
 32 31  1  0  0  0  0
 33 34  1  0  0  0  0
 34 40  1  0  0  0  0
 34 35  2  0  0  0  0
 35 30  1  0  0  0  0
 37 32  1  0  0  0  0
 38 39  1  0  0  0  0
 39 44  2  0  0  0  0
 39 40  1  0  0  0  0
 40 41  2  0  0  0  0
 41 42  1  0  0  0  0
 41 45  1  0  0  0  0
 42 46  1  0  0  0  0
 43 47  1  0  0  0  0
 43 42  2  0  0  0  0
 44 43  1  0  0  0  0
 48 44  1  0  0  0  0
M  END
>  <minimizedAffinity>
-6.24144411

$$$$

 OpenBabel03252501523D

 48 52  0  0  1  0  0  0  0  0999 V2000
   35.7750   23.4570   37.5280 C   0  0  0  0  0  0  0  0  0  0  0  0
   36.6350   23.7990   36.9150 H   0  0  0  0  0  0  0  0  0  0  0  0
   35.3190   22.5480   37.0600 H   0  0  0  0  0  0  0  0  0  0  0  0
   36.2680   23.1240   38.8330 N   0  0  0  0  0  0  0  0  0  0  0  0
   36.4630   21.7170   38.9680 C   0  0  0  0  0  0  0  0  0  0  0  0
   37.6460   21.5020   39.8760 C   0  0  0  0  0  0  0  0  0  0  0  0
   38.4390   22.7520   39.6790 C   0  0  0  0  0  0  0  0  0  0  0  0
   37.4820   23.7990   39.1420 C   0  0  2  0  0  0  0  0  0  0  0  0
   35.5590   21.1610   39.2590 H   0  0  0  0  0  0  0  0  0  0  0  0
   36.7760   21.3050   37.9650 H   0  0  0  0  0  0  0  0  0  0  0  0
   38.2270   20.5940   39.6150 H   0  0  0  0  0  0  0  0  0  0  0  0
   37.2500   21.4360   40.9120 H   0  0  0  0  0  0  0  0  0  0  0  0
   38.8170   23.1300   40.6650 H   0  0  0  0  0  0  0  0  0  0  0  0
   39.3320   22.6050   39.0480 H   0  0  0  0  0  0  0  0  0  0  0  0
   37.9270   24.1870   38.2060 H   0  0  0  0  0  0  0  0  0  0  0  0
   37.1600   24.4520   41.3770 C   0  0  0  0  0  3  0  0  0  0  0  0
   37.3390   24.9390   40.0780 C   0  0  0  0  0  0  0  0  0  0  0  0
   37.3560   26.3050   39.8870 C   0  0  0  0  0  0  0  0  0  0  0  0
   37.5020   26.5320   38.8340 H   0  0  0  0  0  0  0  0  0  0  0  0
   37.2020   27.1550   40.9470 C   0  0  0  0  0  0  0  0  0  0  0  0
   37.1980   28.5060   40.9090 N   0  0  0  0  0  0  0  0  0  0  0  0
   37.0150   28.8950   42.1930 C   0  0  0  0  0  0  0  0  0  0  0  0
   36.9720   29.9570   42.4580 H   0  0  0  0  0  0  0  0  0  0  0  0
   36.9130   27.8000   42.9790 N   0  0  0  0  0  0  0  0  0  0  0  0
   37.0250   26.6830   42.2300 C   0  0  0  0  0  0  0  0  0  0  0  0
   37.0020   25.3240   42.4590 C   0  0  0  0  0  3  0  0  0  0  0  0
   37.3110   29.1260   40.0730 H   0  0  0  0  0  0  0  0  0  0  0  0
   35.1270   25.7410   36.9080 C   0  0  0  0  0  3  0  0  0  0  0  0
   34.8080   24.6050   37.5490 C   0  0  0  0  0  3  0  0  0  0  0  0
   34.4260   28.0840   37.6660 C   0  0  0  0  0  0  0  0  0  0  0  0
   34.2030   26.8970   36.9050 C   0  0  0  0  0  0  0  0  0  0  0  0
   33.0500   26.8100   36.1080 C   0  0  0  0  0  0  0  0  0  0  0  0
   32.1960   27.8720   36.1000 N   0  0  0  0  0  0  0  0  0  0  0  0
   32.4450   28.9730   36.8340 C   0  0  0  0  0  0  0  0  0  0  0  0
   33.5410   29.0490   37.5890 N   0  0  0  0  0  0  0  0  0  0  0  0
   35.3340   28.0910   38.2630 H   0  0  0  0  0  0  0  0  0  0  0  0
   32.8890   25.9210   35.5420 H   0  0  0  0  0  0  0  0  0  0  0  0
   31.0110   29.7660   39.0680 F   0  0  0  0  0  0  0  0  0  0  0  0
   30.7910   30.4540   37.9220 C   0  0  0  0  0  0  0  0  0  0  0  0
   31.4970   30.0780   36.7880 C   0  0  0  0  0  0  0  0  0  0  0  0
   31.3360   30.7280   35.5640 C   0  0  0  0  0  0  0  0  0  0  0  0
   30.4260   31.7840   35.5360 C   0  0  0  0  0  0  0  0  0  0  0  0
   29.7010   32.1810   36.6760 C   0  0  0  0  0  0  0  0  0  0  0  0
   29.8930   31.5050   37.8690 C   0  0  0  0  0  0  0  0  0  0  0  0
   31.8770   30.4490   34.6690 H   0  0  0  0  0  0  0  0  0  0  0  0
   30.3200   32.2730   34.5710 H   0  0  0  0  0  0  0  0  0  0  0  0
   29.0130   33.0060   36.5790 H   0  0  0  0  0  0  0  0  0  0  0  0
   29.3390   31.8130   38.7290 H   0  0  0  0  0  0  0  0  0  0  0  0
  1 29  1  0  0  0  0
  1  4  1  0  0  0  0
  2  1  1  0  0  0  0
  3  1  1  0  0  0  0
  4  5  1  0  0  0  0
  4  8  1  0  0  0  0
  5  9  1  0  0  0  0
  5  6  1  0  0  0  0
  6 12  1  0  0  0  0
  7  6  1  0  0  0  0
  7 13  1  0  0  0  0
  8 15  1  6  0  0  0
  8  7  1  0  0  0  0
  8 17  1  0  0  0  0
 10  5  1  0  0  0  0
 11  6  1  0  0  0  0
 14  7  1  0  0  0  0
 16 26  1  0  0  0  0
 17 16  2  0  0  0  0
 18 17  1  0  0  0  0
 18 20  2  0  0  0  0
 19 18  1  0  0  0  0
 20 25  1  0  0  0  0
 21 20  1  0  0  0  0
 21 22  1  0  0  0  0
 22 23  1  0  0  0  0
 22 24  2  0  0  0  0
 25 26  2  0  0  0  0
 25 24  1  0  0  0  0
 27 21  1  0  0  0  0
 28 29  2  0  0  0  0
 30 36  1  0  0  0  0
 31 28  1  0  0  0  0
 31 30  2  0  0  0  0
 32 31  1  0  0  0  0
 33 32  2  0  0  0  0
 33 34  1  0  0  0  0
 34 35  2  0  0  0  0
 35 30  1  0  0  0  0
 37 32  1  0  0  0  0
 39 38  1  0  0  0  0
 40 34  1  0  0  0  0
 40 39  2  0  0  0  0
 41 40  1  0  0  0  0
 42 41  2  0  0  0  0
 42 43  1  0  0  0  0
 43 44  2  0  0  0  0
 44 39  1  0  0  0  0
 44 48  1  0  0  0  0
 45 41  1  0  0  0  0
 46 42  1  0  0  0  0
 47 43  1  0  0  0  0
M  END
>  <minimizedAffinity>
-6.17711639

$$$$

 OpenBabel03252501523D

 48 52  0  0  1  0  0  0  0  0999 V2000
   35.7990   23.6040   37.7690 C   0  0  0  0  0  0  0  0  0  0  0  0
   36.5920   23.8840   37.0440 H   0  0  0  0  0  0  0  0  0  0  0  0
   35.3270   22.6390   37.4530 H   0  0  0  0  0  0  0  0  0  0  0  0
   36.4140   23.4330   39.0530 N   0  0  0  0  0  0  0  0  0  0  0  0
   36.7340   22.0640   39.2960 C   0  0  0  0  0  0  0  0  0  0  0  0
   37.9950   22.0260   40.1190 C   0  0  0  0  0  0  0  0  0  0  0  0
   38.6650   23.3080   39.7480 C   0  0  0  0  0  0  0  0  0  0  0  0
   37.5880   24.2240   39.2000 C   0  0  2  0  0  0  0  0  0  0  0  0
   35.9020   21.4730   39.7090 H   0  0  0  0  0  0  0  0  0  0  0  0
   37.0030   21.5830   38.3110 H   0  0  0  0  0  0  0  0  0  0  0  0
   38.6270   21.1430   39.8930 H   0  0  0  0  0  0  0  0  0  0  0  0
   37.6840   22.0300   41.1870 H   0  0  0  0  0  0  0  0  0  0  0  0
   39.0840   23.8050   40.6630 H   0  0  0  0  0  0  0  0  0  0  0  0
   39.5180   23.1690   39.0610 H   0  0  0  0  0  0  0  0  0  0  0  0
   37.9290   24.5540   38.2000 H   0  0  0  0  0  0  0  0  0  0  0  0
   37.2850   25.0530   41.3800 C   0  0  0  0  0  3  0  0  0  0  0  0
   37.4220   25.4340   40.0400 C   0  0  0  0  0  0  0  0  0  0  0  0
   37.3870   26.7780   39.7350 C   0  0  0  0  0  0  0  0  0  0  0  0
   37.5060   26.9200   38.6640 H   0  0  0  0  0  0  0  0  0  0  0  0
   37.2230   27.7100   40.7230 C   0  0  0  0  0  0  0  0  0  0  0  0
   37.1710   29.0520   40.5720 N   0  0  0  0  0  0  0  0  0  0  0  0
   36.9980   29.5420   41.8220 C   0  0  0  0  0  0  0  0  0  0  0  0
   36.9220   30.6200   41.9980 H   0  0  0  0  0  0  0  0  0  0  0  0
   36.9490   28.5140   42.6990 N   0  0  0  0  0  0  0  0  0  0  0  0
   37.0870   27.3420   42.0440 C   0  0  0  0  0  0  0  0  0  0  0  0
   37.1160   26.0080   42.3880 C   0  0  0  0  0  3  0  0  0  0  0  0
   37.2460   29.6030   39.6840 H   0  0  0  0  0  0  0  0  0  0  0  0
   34.9530   25.7100   36.8370 C   0  0  0  0  0  3  0  0  0  0  0  0
   34.8090   24.7310   37.7440 C   0  0  0  0  0  3  0  0  0  0  0  0
   32.8230   26.8360   35.9730 C   0  0  0  0  0  0  0  0  0  0  0  0
   34.0010   26.8410   36.7800 C   0  0  0  0  0  0  0  0  0  0  0  0
   34.2810   27.9710   37.5650 C   0  0  0  0  0  0  0  0  0  0  0  0
   33.4060   29.0160   37.5170 N   0  0  0  0  0  0  0  0  0  0  0  0
   32.3060   28.9700   36.7420 C   0  0  0  0  0  0  0  0  0  0  0  0
   32.0460   27.8930   35.9980 N   0  0  0  0  0  0  0  0  0  0  0  0
   32.6620   25.9350   35.3880 H   0  0  0  0  0  0  0  0  0  0  0  0
   35.1610   27.9690   38.1650 H   0  0  0  0  0  0  0  0  0  0  0  0
   32.1020   30.6480   34.5470 F   0  0  0  0  0  0  0  0  0  0  0  0
   31.3250   30.9400   35.6160 C   0  0  0  0  0  0  0  0  0  0  0  0
   31.4060   30.1150   36.7290 C   0  0  0  0  0  0  0  0  0  0  0  0
   30.6440   30.3380   37.8760 C   0  0  0  0  0  0  0  0  0  0  0  0
   29.7870   31.4370   37.8490 C   0  0  0  0  0  0  0  0  0  0  0  0
   29.6890   32.2860   36.7290 C   0  0  0  0  0  0  0  0  0  0  0  0
   30.4660   32.0260   35.6140 C   0  0  0  0  0  0  0  0  0  0  0  0
   30.6950   29.7060   38.7530 H   0  0  0  0  0  0  0  0  0  0  0  0
   29.2050   31.5880   38.7540 H   0  0  0  0  0  0  0  0  0  0  0  0
   29.0050   33.1180   36.7810 H   0  0  0  0  0  0  0  0  0  0  0  0
   30.3860   32.6740   34.7690 H   0  0  0  0  0  0  0  0  0  0  0  0
  1  4  1  0  0  0  0
  2  1  1  0  0  0  0
  3  1  1  0  0  0  0
  4  8  1  0  0  0  0
  4  5  1  0  0  0  0
  5  9  1  0  0  0  0
  5  6  1  0  0  0  0
  6 12  1  0  0  0  0
  7  6  1  0  0  0  0
  7 13  1  0  0  0  0
  8 15  1  6  0  0  0
  8  7  1  0  0  0  0
  8 17  1  0  0  0  0
 10  5  1  0  0  0  0
 11  6  1  0  0  0  0
 14  7  1  0  0  0  0
 16 26  1  0  0  0  0
 17 16  2  0  0  0  0
 18 17  1  0  0  0  0
 18 20  2  0  0  0  0
 19 18  1  0  0  0  0
 20 25  1  0  0  0  0
 21 20  1  0  0  0  0
 21 22  1  0  0  0  0
 22 23  1  0  0  0  0
 22 24  2  0  0  0  0
 25 26  2  0  0  0  0
 25 24  1  0  0  0  0
 27 21  1  0  0  0  0
 28 29  2  0  0  0  0
 29  1  1  0  0  0  0
 30 35  2  0  0  0  0
 30 31  1  0  0  0  0
 31 28  1  0  0  0  0
 31 32  2  0  0  0  0
 32 37  1  0  0  0  0
 33 32  1  0  0  0  0
 34 33  2  0  0  0  0
 35 34  1  0  0  0  0
 36 30  1  0  0  0  0
 38 39  1  0  0  0  0
 39 40  1  0  0  0  0
 40 34  1  0  0  0  0
 40 41  2  0  0  0  0
 41 45  1  0  0  0  0
 42 41  1  0  0  0  0
 42 46  1  0  0  0  0
 43 47  1  0  0  0  0
 43 42  2  0  0  0  0
 44 39  2  0  0  0  0
 44 43  1  0  0  0  0
 48 44  1  0  0  0  0
M  END
>  <minimizedAffinity>
-6.06949329

$$$$

 OpenBabel03252501523D

 48 52  0  0  1  0  0  0  0  0999 V2000
   38.6160   24.9670   37.8430 C   0  0  0  0  0  0  0  0  0  0  0  0
   39.5630   24.3870   37.8500 H   0  0  0  0  0  0  0  0  0  0  0  0
   38.1150   24.8540   36.8480 H   0  0  0  0  0  0  0  0  0  0  0  0
   37.7650   24.4350   38.8670 N   0  0  0  0  0  0  0  0  0  0  0  0
   37.1020   23.2510   38.4250 C   0  0  0  0  0  0  0  0  0  0  0  0
   36.9410   22.3420   39.6150 C   0  0  0  0  0  0  0  0  0  0  0  0
   38.0750   22.7560   40.4960 C   0  0  0  0  0  0  0  0  0  0  0  0
   38.4740   24.1550   40.0690 C   0  0  2  0  0  0  0  0  0  0  0  0
   36.1720   23.4370   37.8650 H   0  0  0  0  0  0  0  0  0  0  0  0
   37.7900   22.7030   37.7180 H   0  0  0  0  0  0  0  0  0  0  0  0
   36.9950   21.2680   39.3440 H   0  0  0  0  0  0  0  0  0  0  0  0
   35.9620   22.5870   40.0800 H   0  0  0  0  0  0  0  0  0  0  0  0
   37.7320   22.8250   41.5620 H   0  0  0  0  0  0  0  0  0  0  0  0
   38.9120   22.0380   40.4920 H   0  0  0  0  0  0  0  0  0  0  0  0
   39.5590   24.1240   39.8500 H   0  0  0  0  0  0  0  0  0  0  0  0
   39.4920   25.4320   41.7610 C   0  0  0  0  0  3  0  0  0  0  0  0
   38.2640   25.1390   41.1580 C   0  0  0  0  0  0  0  0  0  0  0  0
   37.1340   25.7690   41.6350 C   0  0  0  0  0  0  0  0  0  0  0  0
   36.2620   25.4450   41.0730 H   0  0  0  0  0  0  0  0  0  0  0  0
   37.2200   26.6570   42.6720 C   0  0  0  0  0  0  0  0  0  0  0  0
   36.2040   27.3440   43.2380 N   0  0  0  0  0  0  0  0  0  0  0  0
   36.7790   28.0850   44.2140 C   0  0  0  0  0  0  0  0  0  0  0  0
   36.1770   28.7500   44.8440 H   0  0  0  0  0  0  0  0  0  0  0  0
   38.1090   27.8460   44.2280 N   0  0  0  0  0  0  0  0  0  0  0  0
   38.4270   26.9500   43.2710 C   0  0  0  0  0  0  0  0  0  0  0  0
   39.5780   26.3390   42.8210 C   0  0  0  0  0  3  0  0  0  0  0  0
   35.1880   27.3150   42.9840 H   0  0  0  0  0  0  0  0  0  0  0  0
   38.0550   27.3020   38.3480 C   0  0  0  0  0  3  0  0  0  0  0  0
   39.0100   26.3930   38.0980 C   0  0  0  0  0  3  0  0  0  0  0  0
   38.2580   29.7500   37.6270 C   0  0  0  0  0  0  0  0  0  0  0  0
   38.4010   28.7180   38.6030 C   0  0  0  0  0  0  0  0  0  0  0  0
   38.8950   29.0510   39.8750 C   0  0  0  0  0  0  0  0  0  0  0  0
   39.2140   30.3540   40.1160 N   0  0  0  0  0  0  0  0  0  0  0  0
   39.0640   31.2960   39.1670 C   0  0  0  0  0  0  0  0  0  0  0  0
   38.5950   30.9740   37.9600 N   0  0  0  0  0  0  0  0  0  0  0  0
   37.8720   29.4300   36.6630 H   0  0  0  0  0  0  0  0  0  0  0  0
   38.9990   28.2760   40.5990 H   0  0  0  0  0  0  0  0  0  0  0  0
   37.3230   32.9970   40.4910 F   0  0  0  0  0  0  0  0  0  0  0  0
   38.5300   33.5030   40.1430 C   0  0  0  0  0  0  0  0  0  0  0  0
   39.4220   32.6730   39.4800 C   0  0  0  0  0  0  0  0  0  0  0  0
   40.6870   33.1080   39.0830 C   0  0  0  0  0  0  0  0  0  0  0  0
   41.0150   34.4280   39.3900 C   0  0  0  0  0  0  0  0  0  0  0  0
   40.1230   35.2860   40.0630 C   0  0  0  0  0  0  0  0  0  0  0  0
   38.8780   34.8100   40.4370 C   0  0  0  0  0  0  0  0  0  0  0  0
   41.3950   32.4750   38.5640 H   0  0  0  0  0  0  0  0  0  0  0  0
   42.0050   34.7410   39.0700 H   0  0  0  0  0  0  0  0  0  0  0  0
   40.4460   36.2950   40.2660 H   0  0  0  0  0  0  0  0  0  0  0  0
   38.2090   35.4680   40.9470 H   0  0  0  0  0  0  0  0  0  0  0  0
  1  2  1  0  0  0  0
  1 29  1  0  0  0  0
  1  4  1  0  0  0  0
  3  1  1  0  0  0  0
  4  8  1  0  0  0  0
  5  4  1  0  0  0  0
  5  6  1  0  0  0  0
  6 12  1  0  0  0  0
  6  7  1  0  0  0  0
  7 13  1  0  0  0  0
  8 15  1  6  0  0  0
  8  7  1  0  0  0  0
  8 17  1  0  0  0  0
  9  5  1  0  0  0  0
 10  5  1  0  0  0  0
 11  6  1  0  0  0  0
 14  7  1  0  0  0  0
 16 26  1  0  0  0  0
 17 18  1  0  0  0  0
 17 16  2  0  0  0  0
 18 20  2  0  0  0  0
 19 18  1  0  0  0  0
 20 21  1  0  0  0  0
 20 25  1  0  0  0  0
 21 22  1  0  0  0  0
 22 24  2  0  0  0  0
 22 23  1  0  0  0  0
 25 24  1  0  0  0  0
 26 25  2  0  0  0  0
 27 21  1  0  0  0  0
 28 31  1  0  0  0  0
 29 28  2  0  0  0  0
 30 35  2  0  0  0  0
 30 31  1  0  0  0  0
 31 32  2  0  0  0  0
 32 33  1  0  0  0  0
 32 37  1  0  0  0  0
 34 40  1  0  0  0  0
 34 33  2  0  0  0  0
 35 34  1  0  0  0  0
 36 30  1  0  0  0  0
 39 44  1  0  0  0  0
 39 38  1  0  0  0  0
 40 39  2  0  0  0  0
 41 42  2  0  0  0  0
 41 40  1  0  0  0  0
 42 43  1  0  0  0  0
 43 47  1  0  0  0  0
 43 44  2  0  0  0  0
 44 48  1  0  0  0  0
 45 41  1  0  0  0  0
 46 42  1  0  0  0  0
M  END
>  <minimizedAffinity>
-6.0497365

$$$$

 OpenBabel03252501523D

 48 52  0  0  1  0  0  0  0  0999 V2000
   35.9930   25.7920   37.8450 C   0  0  0  0  0  0  0  0  0  0  0  0
   36.7700   25.4510   37.1290 H   0  0  0  0  0  0  0  0  0  0  0  0
   34.9920   25.7850   37.3430 H   0  0  0  0  0  0  0  0  0  0  0  0
   35.9780   24.8780   38.9490 N   0  0  0  0  0  0  0  0  0  0  0  0
   35.0640   23.8050   38.7210 C   0  0  0  0  0  0  0  0  0  0  0  0
   35.6320   22.5720   39.3720 C   0  0  0  0  0  0  0  0  0  0  0  0
   37.1010   22.8440   39.3620 C   0  0  0  0  0  0  0  0  0  0  0  0
   37.2680   24.3450   39.2290 C   0  0  2  0  0  0  0  0  0  0  0  0
   34.0240   24.0310   39.0020 H   0  0  0  0  0  0  0  0  0  0  0  0
   35.0500   23.5820   37.6150 H   0  0  0  0  0  0  0  0  0  0  0  0
   35.3760   21.6420   38.8240 H   0  0  0  0  0  0  0  0  0  0  0  0
   35.2370   22.5430   40.4110 H   0  0  0  0  0  0  0  0  0  0  0  0
   37.5560   22.5500   40.3440 H   0  0  0  0  0  0  0  0  0  0  0  0
   37.6430   22.2700   38.5910 H   0  0  0  0  0  0  0  0  0  0  0  0
   37.9260   24.5170   38.3560 H   0  0  0  0  0  0  0  0  0  0  0  0
   36.9760   25.5080   41.2520 C   0  0  0  0  0  3  0  0  0  0  0  0
   37.9370   24.9270   40.4170 C   0  0  0  0  0  0  0  0  0  0  0  0
   39.2590   24.9810   40.8050 C   0  0  0  0  0  0  0  0  0  0  0  0
   39.8850   24.4920   40.0620 H   0  0  0  0  0  0  0  0  0  0  0  0
   39.6140   25.5880   41.9770 C   0  0  0  0  0  0  0  0  0  0  0  0
   40.8610   25.7140   42.4810 N   0  0  0  0  0  0  0  0  0  0  0  0
   40.7060   26.3810   43.6480 C   0  0  0  0  0  0  0  0  0  0  0  0
   41.5700   26.6230   44.2770 H   0  0  0  0  0  0  0  0  0  0  0  0
   39.3950   26.6460   43.8370 N   0  0  0  0  0  0  0  0  0  0  0  0
   38.6720   26.1620   42.8050 C   0  0  0  0  0  0  0  0  0  0  0  0
   37.3410   26.1290   42.4500 C   0  0  0  0  0  3  0  0  0  0  0  0
   41.7600   25.3730   42.0650 H   0  0  0  0  0  0  0  0  0  0  0  0
   37.6030   27.6430   37.8930 C   0  0  0  0  0  3  0  0  0  0  0  0
   36.3930   27.1820   38.2460 C   0  0  0  0  0  3  0  0  0  0  0  0
   37.7640   30.1640   37.4820 C   0  0  0  0  0  0  0  0  0  0  0  0
   38.0370   29.0060   38.2700 C   0  0  0  0  0  0  0  0  0  0  0  0
   38.7550   29.1540   39.4690 C   0  0  0  0  0  0  0  0  0  0  0  0
   39.1570   30.4080   39.8220 N   0  0  0  0  0  0  0  0  0  0  0  0
   38.8780   31.4740   39.0490 C   0  0  0  0  0  0  0  0  0  0  0  0
   38.1960   31.3260   37.9120 N   0  0  0  0  0  0  0  0  0  0  0  0
   37.2070   29.9850   36.5670 H   0  0  0  0  0  0  0  0  0  0  0  0
   38.9560   28.2860   40.0530 H   0  0  0  0  0  0  0  0  0  0  0  0
   37.1270   33.3750   40.0480 F   0  0  0  0  0  0  0  0  0  0  0  0
   38.4330   33.7240   39.9720 C   0  0  0  0  0  0  0  0  0  0  0  0
   39.3320   32.7910   39.4760 C   0  0  0  0  0  0  0  0  0  0  0  0
   40.6960   33.0610   39.3610 C   0  0  0  0  0  0  0  0  0  0  0  0
   41.1160   34.3250   39.7740 C   0  0  0  0  0  0  0  0  0  0  0  0
   40.2190   35.2860   40.2800 C   0  0  0  0  0  0  0  0  0  0  0  0
   38.8740   34.9730   40.3750 C   0  0  0  0  0  0  0  0  0  0  0  0
   41.4120   32.3460   38.9760 H   0  0  0  0  0  0  0  0  0  0  0  0
   42.1820   34.5110   39.6740 H   0  0  0  0  0  0  0  0  0  0  0  0
   40.6160   36.2430   40.5790 H   0  0  0  0  0  0  0  0  0  0  0  0
   38.2010   35.7070   40.7600 H   0  0  0  0  0  0  0  0  0  0  0  0
  1 29  1  0  0  0  0
  1  4  1  0  0  0  0
  2  1  1  0  0  0  0
  3  1  1  0  0  0  0
  4  8  1  0  0  0  0
  5  4  1  0  0  0  0
  5  9  1  0  0  0  0
  5  6  1  0  0  0  0
  6 12  1  0  0  0  0
  7  6  1  0  0  0  0
  7 13  1  0  0  0  0
  8 15  1  6  0  0  0
  8  7  1  0  0  0  0
  8 17  1  0  0  0  0
 10  5  1  0  0  0  0
 11  6  1  0  0  0  0
 14  7  1  0  0  0  0
 16 26  1  0  0  0  0
 17 18  1  0  0  0  0
 17 16  2  0  0  0  0
 18 20  2  0  0  0  0
 19 18  1  0  0  0  0
 20 21  1  0  0  0  0
 20 25  1  0  0  0  0
 21 22  1  0  0  0  0
 22 24  2  0  0  0  0
 22 23  1  0  0  0  0
 25 24  1  0  0  0  0
 26 25  2  0  0  0  0
 27 21  1  0  0  0  0
 28 29  2  0  0  0  0
 28 31  1  0  0  0  0
 30 35  2  0  0  0  0
 30 31  1  0  0  0  0
 31 32  2  0  0  0  0
 32 33  1  0  0  0  0
 32 37  1  0  0  0  0
 34 40  1  0  0  0  0
 34 33  2  0  0  0  0
 35 34  1  0  0  0  0
 36 30  1  0  0  0  0
 39 38  1  0  0  0  0
 39 44  1  0  0  0  0
 40 39  2  0  0  0  0
 41 40  1  0  0  0  0
 41 42  2  0  0  0  0
 42 43  1  0  0  0  0
 43 44  2  0  0  0  0
 43 47  1  0  0  0  0
 44 48  1  0  0  0  0
 45 41  1  0  0  0  0
 46 42  1  0  0  0  0
M  END
>  <minimizedAffinity>
-5.91394043

$$$$
