
 OpenBabel03252509003D

 48 51  0  0  1  0  0  0  0  0999 V2000
   47.1730   34.1560   43.0860 N   0  0  0  0  0  0  0  0  0  0  0  0
   46.6680   35.3460   42.5050 C   0  0  0  0  0  0  0  0  0  0  0  0
   45.1960   35.5980   42.7130 C   0  0  0  0  0  0  0  0  0  0  0  0
   44.6530   35.0790   44.0180 C   0  0  0  0  0  0  0  0  0  0  0  0
   45.7460   34.5070   44.8900 C   0  0  0  0  0  0  0  0  0  0  0  0
   46.4030   33.4140   43.9690 C   0  0  2  0  0  0  0  0  0  0  0  0
   46.8780   35.4930   41.4430 H   0  0  0  0  0  0  0  0  0  0  0  0
   47.1940   36.1960   43.0340 H   0  0  0  0  0  0  0  0  0  0  0  0
   45.0260   36.7090   42.6250 H   0  0  0  0  0  0  0  0  0  0  0  0
   44.6350   35.1410   41.8640 H   0  0  0  0  0  0  0  0  0  0  0  0
   44.1870   35.9110   44.5880 H   0  0  0  0  0  0  0  0  0  0  0  0
   43.9010   34.2990   43.8450 H   0  0  0  0  0  0  0  0  0  0  0  0
   45.3030   33.9820   45.7420 H   0  0  0  0  0  0  0  0  0  0  0  0
   46.5210   35.2310   45.1470 H   0  0  0  0  0  0  0  0  0  0  0  0
   45.5650   32.8060   43.5530 H   0  0  0  0  0  0  0  0  0  0  0  0
   48.1500   33.4790   42.2850 C   0  0  0  0  0  0  0  0  0  0  0  0
   48.7380   32.7840   42.9380 H   0  0  0  0  0  0  0  0  0  0  0  0
   48.8440   34.2000   41.8480 H   0  0  0  0  0  0  0  0  0  0  0  0
   47.4410   32.6160   41.2850 C   0  0  0  0  0  0  0  0  0  0  0  0
   46.3640   32.8860   41.2310 H   0  0  0  0  0  0  0  0  0  0  0  0
   47.4890   31.5330   41.5000 H   0  0  0  0  0  0  0  0  0  0  0  0
   49.3330   32.1730   38.0710 C   0  0  0  0  0  0  0  0  0  0  0  0
   48.8020   31.9380   39.3530 C   0  0  0  0  0  0  0  0  0  0  0  0
   47.9920   32.8820   39.9320 C   0  0  0  0  0  0  0  0  0  0  0  0
   47.7440   33.9990   39.2360 N   0  0  0  0  0  0  0  0  0  0  0  0
   48.2500   34.2260   38.0130 C   0  0  0  0  0  0  0  0  0  0  0  0
   49.0450   33.3220   37.4190 N   0  0  0  0  0  0  0  0  0  0  0  0
   49.9750   31.4640   37.5710 H   0  0  0  0  0  0  0  0  0  0  0  0
   49.0420   31.0270   39.8490 H   0  0  0  0  0  0  0  0  0  0  0  0
   47.9790   35.1670   37.5470 H   0  0  0  0  0  0  0  0  0  0  0  0
   47.1890   32.7230   44.8830 O   0  0  0  0  0  0  0  0  0  0  0  0
   45.9690   30.5620   43.9490 O   0  0  0  0  0  0  0  0  0  0  0  0
   46.6240   31.1630   45.1770 P   0  0  2  0  0  0  0  0  0  0  0  0
   45.3620   31.3270   46.3230 O   0  0  0  0  0  0  0  0  0  0  0  0
   45.7180   31.1460   47.2280 H   0  0  0  0  0  0  0  0  0  0  0  0
   47.8110   30.2000   45.8400 O   0  0  0  0  0  0  0  0  0  0  0  0
   46.8480   28.1260   45.2520 C   0  0  0  0  0  3  0  0  0  0  0  0
   47.7980   28.8410   45.9910 C   0  0  0  0  0  0  0  0  0  0  0  0
   48.6490   28.1340   46.8160 C   0  0  0  0  0  0  0  0  0  0  0  0
   49.3930   28.6850   47.3960 H   0  0  0  0  0  0  0  0  0  0  0  0
   48.5420   26.7410   46.8910 C   0  0  0  0  0  0  0  0  0  0  0  0
   49.2590   25.8460   47.6200 N   0  0  0  0  0  0  0  0  0  0  0  0
   48.8080   24.5970   47.3790 C   0  0  0  0  0  0  0  0  0  0  0  0
   49.2110   23.7020   47.8360 H   0  0  0  0  0  0  0  0  0  0  0  0
   47.7990   24.7190   46.4870 N   0  0  0  0  0  0  0  0  0  0  0  0
   47.6110   26.0250   46.1680 C   0  0  0  0  0  0  0  0  0  0  0  0
   46.7660   26.7420   45.3460 C   0  0  0  0  0  3  0  0  0  0  0  0
   50.0340   26.1250   48.2600 H   0  0  0  0  0  0  0  0  0  0  0  0
  1  6  1  0  0  0  0
  2  3  1  0  0  0  0
  2  8  1  0  0  0  0
  2  1  1  0  0  0  0
  3  4  1  0  0  0  0
  4 11  1  0  0  0  0
  4  5  1  0  0  0  0
  5 14  1  0  0  0  0
  5 13  1  0  0  0  0
  6 15  1  6  0  0  0
  6 31  1  0  0  0  0
  6  5  1  0  0  0  0
  7  2  1  0  0  0  0
  9  3  1  0  0  0  0
 10  3  1  0  0  0  0
 12  4  1  0  0  0  0
 16 17  1  0  0  0  0
 16  1  1  0  0  0  0
 18 16  1  0  0  0  0
 19 21  1  0  0  0  0
 19 16  1  0  0  0  0
 20 19  1  0  0  0  0
 22 23  1  0  0  0  0
 23 29  1  0  0  0  0
 23 24  2  0  0  0  0
 24 19  1  0  0  0  0
 25 24  1  0  0  0  0
 26 25  2  0  0  0  0
 27 26  1  0  0  0  0
 27 22  2  0  0  0  0
 28 22  1  0  0  0  0
 30 26  1  0  0  0  0
 31 33  1  0  0  0  0
 33 32  2  6  0  0  0
 33 36  1  0  0  0  0
 33 34  1  0  0  0  0
 34 35  1  0  0  0  0
 36 38  1  0  0  0  0
 37 47  2  0  0  0  0
 37 38  1  0  0  0  0
 38 39  2  0  0  0  0
 39 41  1  0  0  0  0
 39 40  1  0  0  0  0
 41 42  1  0  0  0  0
 42 48  1  0  0  0  0
 43 42  1  0  0  0  0
 43 44  1  0  0  0  0
 45 43  2  0  0  0  0
 46 45  1  0  0  0  0
 46 41  2  0  0  0  0
 47 46  1  0  0  0  0
M  END
>  <minimizedAffinity>
-3.93113232

>  <minimizedRMSD>
0.155764788

$$$$
