
 OpenBabel03242519473D

 41 44  0  0  1  0  0  0  0  0999 V2000
   46.6430   32.8920   46.7490 C   0  0  2  0  0  0  0  0  0  0  0  0
   47.0750   32.7720   45.3420 C   0  0  1  0  0  0  0  0  0  0  0  0
   46.6350   31.4300   44.9490 O   0  0  0  0  0  0  0  0  0  0  0  0
   47.2920   30.7550   46.0060 C   0  0  0  0  0  0  0  0  0  0  0  0
   46.6040   31.4450   47.2140 C   0  0  2  0  0  0  0  0  0  0  0  0
   47.3020   33.5040   47.3890 H   0  0  0  0  0  0  0  0  0  0  0  0
   48.1580   32.7170   45.1890 H   0  0  0  0  0  0  0  0  0  0  0  0
   47.2310   29.6960   45.9970 H   0  0  0  0  0  0  0  0  0  0  0  0
   48.3590   31.0910   45.9670 H   0  0  0  0  0  0  0  0  0  0  0  0
   47.2540   31.2150   48.0880 H   0  0  0  0  0  0  0  0  0  0  0  0
   44.7220   35.2250   44.0130 C   0  0  0  0  0  0  0  0  0  0  0  0
   45.3270   35.6680   42.8370 C   0  0  0  0  0  0  0  0  0  0  0  0
   46.5730   35.1170   42.4740 C   0  0  0  0  0  0  0  0  0  0  0  0
   47.1410   34.1670   43.2910 N   0  0  0  0  0  0  0  0  0  0  0  0
   46.5220   33.7660   44.4210 C   0  0  0  0  0  0  0  0  0  0  0  0
   45.3210   34.2810   44.7930 N   0  0  0  0  0  0  0  0  0  0  0  0
   44.8530   36.4080   42.2310 H   0  0  0  0  0  0  0  0  0  0  0  0
   47.0720   35.4370   41.5680 H   0  0  0  0  0  0  0  0  0  0  0  0
   43.4850   35.7330   44.4260 O   0  0  0  0  0  0  0  0  0  0  0  0
   42.8900   36.0630   43.6690 H   0  0  0  0  0  0  0  0  0  0  0  0
   45.3010   33.4050   46.7920 O   0  0  0  0  0  0  0  0  0  0  0  0
   45.0750   33.3890   47.7550 H   0  0  0  0  0  0  0  0  0  0  0  0
   45.3310   30.9700   47.2770 O   0  0  0  0  0  0  0  0  0  0  0  0
   45.0960   29.9020   48.1050 C   0  0  0  0  0  0  0  0  0  0  0  0
   45.3150   30.1450   49.1400 H   0  0  0  0  0  0  0  0  0  0  0  0
   43.8990   29.9160   48.1790 H   0  0  0  0  0  0  0  0  0  0  0  0
   45.4690   28.5690   47.6030 C   0  0  0  0  0  0  0  0  0  0  0  0
   46.2970   28.5610   46.8660 H   0  0  0  0  0  0  0  0  0  0  0  0
   45.6950   27.9000   48.4710 H   0  0  0  0  0  0  0  0  0  0  0  0
   43.7450   26.7180   46.9480 C   0  0  0  0  0  3  0  0  0  0  0  0
   44.3160   27.9660   46.8830 C   0  0  0  0  0  0  0  0  0  0  0  0
   43.6780   28.8000   45.9510 C   0  0  0  0  0  0  0  0  0  0  0  0
   44.0350   29.8150   45.8060 H   0  0  0  0  0  0  0  0  0  0  0  0
   42.5990   28.4530   45.1670 C   0  0  0  0  0  0  0  0  0  0  0  0
   41.8810   29.1160   44.2430 N   0  0  0  0  0  0  0  0  0  0  0  0
   40.9300   28.2880   43.7890 C   0  0  0  0  0  0  0  0  0  0  0  0
   40.1730   28.4920   43.0380 H   0  0  0  0  0  0  0  0  0  0  0  0
   41.0570   27.0950   44.4370 N   0  0  0  0  0  0  0  0  0  0  0  0
   42.0880   27.1880   45.2930 C   0  0  0  0  0  0  0  0  0  0  0  0
   42.6700   26.3190   46.1910 C   0  0  0  0  0  3  0  0  0  0  0  0
   42.0370   30.0900   43.9420 H   0  0  0  0  0  0  0  0  0  0  0  0
  1 21  1  0  0  0  0
  1  5  1  0  0  0  0
  1  6  1  1  0  0  0
  2  7  1  6  0  0  0
  2  1  1  0  0  0  0
  3  2  1  0  0  0  0
  3  4  1  0  0  0  0
  4  5  1  0  0  0  0
  5 23  1  0  0  0  0
  5 10  1  1  0  0  0
  8  4  1  0  0  0  0
  9  4  1  0  0  0  0
 11 19  1  0  0  0  0
 11 16  1  0  0  0  0
 12 11  2  0  0  0  0
 13 12  1  0  0  0  0
 13 14  2  0  0  0  0
 14 15  1  0  0  0  0
 15 16  2  0  0  0  0
 15  2  1  0  0  0  0
 17 12  1  0  0  0  0
 18 13  1  0  0  0  0
 20 19  1  0  0  0  0
 21 22  1  0  0  0  0
 23 24  1  0  0  0  0
 24 26  1  0  0  0  0
 24 25  1  0  0  0  0
 27 24  1  0  0  0  0
 27 29  1  0  0  0  0
 28 27  1  0  0  0  0
 31 30  1  0  0  0  0
 31 27  1  0  0  0  0
 32 31  2  0  0  0  0
 33 32  1  0  0  0  0
 34 39  2  0  0  0  0
 34 32  1  0  0  0  0
 35 34  1  0  0  0  0
 36 35  1  0  0  0  0
 36 38  2  0  0  0  0
 37 36  1  0  0  0  0
 38 39  1  0  0  0  0
 39 40  1  0  0  0  0
 40 30  2  0  0  0  0
 41 35  1  0  0  0  0
M  END
>  <minimizedAffinity>
-6.04549932

>  <minimizedRMSD>
0.807514548

$$$$
