
 OpenBabel03252509003D

 48 51  0  0  1  0  0  0  0  0999 V2000
   47.1610   34.0640   43.1190 N   0  0  0  0  0  0  0  0  0  0  0  0
   46.7590   35.3340   42.6340 C   0  0  0  0  0  0  0  0  0  0  0  0
   45.3060   35.6770   42.8390 C   0  0  0  0  0  0  0  0  0  0  0  0
   44.6950   35.0930   44.0850 C   0  0  0  0  0  0  0  0  0  0  0  0
   45.7220   34.3680   44.9220 C   0  0  0  0  0  0  0  0  0  0  0  0
   46.3180   33.3100   43.9220 C   0  0  2  0  0  0  0  0  0  0  0  0
   47.0040   35.5540   41.5930 H   0  0  0  0  0  0  0  0  0  0  0  0
   47.3340   36.0940   43.2430 H   0  0  0  0  0  0  0  0  0  0  0  0
   45.2200   36.8020   42.8430 H   0  0  0  0  0  0  0  0  0  0  0  0
   44.7320   35.3380   41.9440 H   0  0  0  0  0  0  0  0  0  0  0  0
   44.2790   35.9060   44.7170 H   0  0  0  0  0  0  0  0  0  0  0  0
   43.8920   34.3890   43.8330 H   0  0  0  0  0  0  0  0  0  0  0  0
   45.2230   33.8070   45.7180 H   0  0  0  0  0  0  0  0  0  0  0  0
   46.5430   35.0070   45.2530 H   0  0  0  0  0  0  0  0  0  0  0  0
   45.4470   32.8040   43.4410 H   0  0  0  0  0  0  0  0  0  0  0  0
   48.1030   33.3860   42.2790 C   0  0  0  0  0  0  0  0  0  0  0  0
   48.6530   32.6240   42.8890 H   0  0  0  0  0  0  0  0  0  0  0  0
   48.8360   34.0940   41.8850 H   0  0  0  0  0  0  0  0  0  0  0  0
   47.3530   32.6210   41.2300 C   0  0  0  0  0  0  0  0  0  0  0  0
   46.2950   32.9600   41.1820 H   0  0  0  0  0  0  0  0  0  0  0  0
   47.3310   31.5270   41.3880 H   0  0  0  0  0  0  0  0  0  0  0  0
   49.3220   32.2630   38.0520 C   0  0  0  0  0  0  0  0  0  0  0  0
   48.7620   31.9950   39.3140 C   0  0  0  0  0  0  0  0  0  0  0  0
   47.9350   32.9220   39.8960 C   0  0  0  0  0  0  0  0  0  0  0  0
   47.6970   34.0540   39.2220 N   0  0  0  0  0  0  0  0  0  0  0  0
   48.2300   34.3120   38.0160 C   0  0  0  0  0  0  0  0  0  0  0  0
   49.0430   33.4270   37.4200 N   0  0  0  0  0  0  0  0  0  0  0  0
   49.9780   31.5690   37.5490 H   0  0  0  0  0  0  0  0  0  0  0  0
   48.9950   31.0740   39.7940 H   0  0  0  0  0  0  0  0  0  0  0  0
   47.9660   35.2630   37.5670 H   0  0  0  0  0  0  0  0  0  0  0  0
   47.0300   32.4870   44.7850 O   0  0  0  0  0  0  0  0  0  0  0  0
   45.2340   30.7090   43.9820 O   0  0  0  0  0  0  0  0  0  0  0  0
   46.2650   31.0100   45.0530 P   0  0  2  0  0  0  0  0  0  0  0  0
   45.3670   31.1990   46.4990 O   0  0  0  0  0  0  0  0  0  0  0  0
   45.8880   30.8320   47.2560 H   0  0  0  0  0  0  0  0  0  0  0  0
   47.3690   29.7830   45.2790 O   0  0  0  0  0  0  0  0  0  0  0  0
   46.3130   27.6730   45.2390 C   0  0  0  0  0  3  0  0  0  0  0  0
   47.1650   28.5750   45.8860 C   0  0  0  0  0  0  0  0  0  0  0  0
   47.7370   28.1900   47.0820 C   0  0  0  0  0  0  0  0  0  0  0  0
   48.4030   28.8890   47.5930 H   0  0  0  0  0  0  0  0  0  0  0  0
   47.4530   26.9250   47.6080 C   0  0  0  0  0  0  0  0  0  0  0  0
   47.8920   26.3330   48.7520 N   0  0  0  0  0  0  0  0  0  0  0  0
   47.3570   25.0990   48.8600 C   0  0  0  0  0  0  0  0  0  0  0  0
   47.5470   24.4190   49.6800 H   0  0  0  0  0  0  0  0  0  0  0  0
   46.5780   24.9230   47.7690 N   0  0  0  0  0  0  0  0  0  0  0  0
   46.6160   26.0270   46.9810 C   0  0  0  0  0  0  0  0  0  0  0  0
   46.0510   26.4220   45.7870 C   0  0  0  0  0  3  0  0  0  0  0  0
   48.5420   26.8010   49.4180 H   0  0  0  0  0  0  0  0  0  0  0  0
  1  6  1  0  0  0  0
  2  3  1  0  0  0  0
  2  1  1  0  0  0  0
  2  8  1  0  0  0  0
  3  9  1  0  0  0  0
  3  4  1  0  0  0  0
  4 11  1  0  0  0  0
  4  5  1  0  0  0  0
  5 14  1  0  0  0  0
  5 13  1  0  0  0  0
  6 15  1  6  0  0  0
  6 31  1  0  0  0  0
  6  5  1  0  0  0  0
  7  2  1  0  0  0  0
 10  3  1  0  0  0  0
 12  4  1  0  0  0  0
 16 17  1  0  0  0  0
 16  1  1  0  0  0  0
 18 16  1  0  0  0  0
 19 21  1  0  0  0  0
 19 16  1  0  0  0  0
 20 19  1  0  0  0  0
 22 23  1  0  0  0  0
 23 29  1  0  0  0  0
 23 24  2  0  0  0  0
 24 19  1  0  0  0  0
 25 24  1  0  0  0  0
 26 25  2  0  0  0  0
 27 26  1  0  0  0  0
 27 22  2  0  0  0  0
 28 22  1  0  0  0  0
 30 26  1  0  0  0  0
 31 33  1  0  0  0  0
 33 32  2  6  0  0  0
 33 36  1  0  0  0  0
 33 34  1  0  0  0  0
 34 35  1  0  0  0  0
 36 38  1  0  0  0  0
 37 47  2  0  0  0  0
 37 38  1  0  0  0  0
 38 39  2  0  0  0  0
 39 40  1  0  0  0  0
 39 41  1  0  0  0  0
 41 42  1  0  0  0  0
 42 43  1  0  0  0  0
 42 48  1  0  0  0  0
 43 44  1  0  0  0  0
 45 43  2  0  0  0  0
 46 41  2  0  0  0  0
 46 45  1  0  0  0  0
 47 46  1  0  0  0  0
M  END
>  <minimizedAffinity>
-4.45539188

>  <minimizedRMSD>
0.844499052

$$$$
