
 OpenBabel03242511483D

 47 50  0  0  0  0  0  0  0  0999 V2000
   35.7570   29.1680   39.5130 C   0  0  0  0  0  0  0  0  0  0  0  0
   36.0540   28.5690   40.7670 C   0  0  0  0  0  0  0  0  0  0  0  0
   36.8220   29.3010   41.6380 C   0  0  0  0  0  0  0  0  0  0  0  0
   37.2560   30.5270   41.2880 N   0  0  0  0  0  0  0  0  0  0  0  0
   36.9460   31.0510   40.0860 C   0  0  0  0  0  0  0  0  0  0  0  0
   36.2150   30.3990   39.2090 N   0  0  0  0  0  0  0  0  0  0  0  0
   35.1560   28.5980   38.8270 H   0  0  0  0  0  0  0  0  0  0  0  0
   35.6930   27.5890   41.0190 H   0  0  0  0  0  0  0  0  0  0  0  0
   37.4580   32.3990   39.7730 C   0  0  0  0  0  0  0  0  0  0  0  0
   37.8740   32.3380   38.7340 H   0  0  0  0  0  0  0  0  0  0  0  0
   36.6310   33.1200   39.7300 H   0  0  0  0  0  0  0  0  0  0  0  0
   38.5440   32.7560   40.7540 C   0  0  0  0  0  0  0  0  0  0  0  0
   39.2710   31.9080   40.8870 H   0  0  0  0  0  0  0  0  0  0  0  0
   38.0300   32.8200   41.7530 H   0  0  0  0  0  0  0  0  0  0  0  0
   39.2580   33.9570   40.3800 C   0  0  0  0  0  0  0  0  0  0  0  0
   38.8590   35.2620   40.4880 C   0  0  0  0  0  0  0  0  0  0  0  0
   39.6190   36.3210   40.1030 C   0  0  0  0  0  0  0  0  0  0  0  0
   40.8670   36.0660   39.5710 C   0  0  0  0  0  0  0  0  0  0  0  0
   41.2810   34.7600   39.4550 C   0  0  0  0  0  0  0  0  0  0  0  0
   40.4920   33.7020   39.8540 C   0  0  0  0  0  0  0  0  0  0  0  0
   37.8690   35.4140   40.9120 H   0  0  0  0  0  0  0  0  0  0  0  0
   39.2300   37.3230   40.2220 H   0  0  0  0  0  0  0  0  0  0  0  0
   41.4270   36.9590   39.2820 H   0  0  0  0  0  0  0  0  0  0  0  0
   42.2870   34.7380   39.0180 H   0  0  0  0  0  0  0  0  0  0  0  0
   41.0250   31.9460   38.2700 C   0  0  0  0  0  0  0  0  0  0  0  0
   40.3510   32.2140   37.1990 O   0  0  0  0  0  0  0  0  0  0  0  0
   41.2220   32.4920   39.5910 N   0  0  0  0  0  0  0  0  0  0  0  0
   41.4610   31.0610   37.8150 H   0  0  0  0  0  0  0  0  0  0  0  0
   41.8670   31.9110   40.1320 H   0  0  0  0  0  0  0  0  0  0  0  0
   37.1250   28.6650   42.9450 C   0  0  0  0  0  0  0  0  0  0  0  0
   38.2230   28.7850   43.1240 H   0  0  0  0  0  0  0  0  0  0  0  0
   36.5010   29.1310   43.7060 H   0  0  0  0  0  0  0  0  0  0  0  0
   36.8930   27.1660   42.9030 C   0  0  0  0  0  0  0  0  0  0  0  0
   36.2570   26.8740   42.0650 H   0  0  0  0  0  0  0  0  0  0  0  0
   36.4380   26.8350   43.8620 H   0  0  0  0  0  0  0  0  0  0  0  0
   38.6340   25.5860   41.9170 C   0  0  0  0  0  3  0  0  0  0  0  0
   38.2450   26.5490   42.8240 C   0  0  0  0  0  0  0  0  0  0  0  0
   39.1380   27.0400   43.7830 C   0  0  0  0  0  0  0  0  0  0  0  0
   38.8750   27.7930   44.5100 H   0  0  0  0  0  0  0  0  0  0  0  0
   40.4180   26.5720   43.8390 C   0  0  0  0  0  0  0  0  0  0  0  0
   41.4940   26.8150   44.6040 N   0  0  0  0  0  0  0  0  0  0  0  0
   42.4950   26.0280   44.1730 C   0  0  0  0  0  0  0  0  0  0  0  0
   43.4600   26.1000   44.6930 H   0  0  0  0  0  0  0  0  0  0  0  0
   42.0910   25.2570   43.1220 N   0  0  0  0  0  0  0  0  0  0  0  0
   40.8020   25.6050   42.9260 C   0  0  0  0  0  0  0  0  0  0  0  0
   39.9380   25.0930   41.9570 C   0  0  0  0  0  3  0  0  0  0  0  0
   41.4620   27.5080   45.3670 H   0  0  0  0  0  0  0  0  0  0  0  0
  1  2  1  0  0  0  0
  2  8  1  0  0  0  0
  2  3  2  0  0  0  0
  3 30  1  0  0  0  0
  4  3  1  0  0  0  0
  5  4  2  0  0  0  0
  6  1  2  0  0  0  0
  6  5  1  0  0  0  0
  7  1  1  0  0  0  0
  9  5  1  0  0  0  0
  9 12  1  0  0  0  0
 10  9  1  0  0  0  0
 11  9  1  0  0  0  0
 12 13  1  0  0  0  0
 12 14  1  0  0  0  0
 15 16  1  0  0  0  0
 15 12  1  0  0  0  0
 16 21  1  0  0  0  0
 17 22  1  0  0  0  0
 17 16  2  0  0  0  0
 18 17  1  0  0  0  0
 19 18  2  0  0  0  0
 19 20  1  0  0  0  0
 20 15  2  0  0  0  0
 23 18  1  0  0  0  0
 24 19  1  0  0  0  0
 25 27  1  0  0  0  0
 26 25  2  0  0  0  0
 27 20  1  0  0  0  0
 27 29  1  0  0  0  0
 28 25  1  0  0  0  0
 30 31  1  0  0  0  0
 30 32  1  0  0  0  0
 33 30  1  0  0  0  0
 33 35  1  0  0  0  0
 34 33  1  0  0  0  0
 36 46  2  0  0  0  0
 36 37  1  0  0  0  0
 37 33  1  0  0  0  0
 37 38  2  0  0  0  0
 38 40  1  0  0  0  0
 38 39  1  0  0  0  0
 40 41  1  0  0  0  0
 41 47  1  0  0  0  0
 42 41  1  0  0  0  0
 42 43  1  0  0  0  0
 44 42  2  0  0  0  0
 45 44  1  0  0  0  0
 45 40  2  0  0  0  0
 46 45  1  0  0  0  0
M  END
>  <minimizedAffinity>
-6.91829395

$$$$

 OpenBabel03242511483D

 47 50  0  0  0  0  0  0  0  0999 V2000
   35.5580   29.5530   40.0270 C   0  0  0  0  0  0  0  0  0  0  0  0
   35.9600   28.8430   41.1890 C   0  0  0  0  0  0  0  0  0  0  0  0
   36.9330   29.4230   41.9660 C   0  0  0  0  0  0  0  0  0  0  0  0
   37.4590   30.6120   41.6120 N   0  0  0  0  0  0  0  0  0  0  0  0
   37.0410   31.2450   40.4980 C   0  0  0  0  0  0  0  0  0  0  0  0
   36.1140   30.7410   39.7140 N   0  0  0  0  0  0  0  0  0  0  0  0
   34.7960   29.1030   39.4160 H   0  0  0  0  0  0  0  0  0  0  0  0
   35.5220   27.8960   41.4470 H   0  0  0  0  0  0  0  0  0  0  0  0
   37.6640   32.5440   40.1740 C   0  0  0  0  0  0  0  0  0  0  0  0
   37.6130   32.6420   39.0590 H   0  0  0  0  0  0  0  0  0  0  0  0
   37.0620   33.3680   40.5810 H   0  0  0  0  0  0  0  0  0  0  0  0
   39.0980   32.5340   40.6360 C   0  0  0  0  0  0  0  0  0  0  0  0
   39.3620   31.5590   41.1300 H   0  0  0  0  0  0  0  0  0  0  0  0
   39.1410   33.2770   41.4810 H   0  0  0  0  0  0  0  0  0  0  0  0
   40.0290   32.8060   39.5640 C   0  0  0  0  0  0  0  0  0  0  0  0
   40.2280   32.1110   38.4020 C   0  0  0  0  0  0  0  0  0  0  0  0
   41.1380   32.4620   37.4550 C   0  0  0  0  0  0  0  0  0  0  0  0
   41.9070   33.5870   37.6780 C   0  0  0  0  0  0  0  0  0  0  0  0
   41.7180   34.2960   38.8400 C   0  0  0  0  0  0  0  0  0  0  0  0
   40.7880   33.9190   39.7860 C   0  0  0  0  0  0  0  0  0  0  0  0
   39.6010   31.2320   38.2710 H   0  0  0  0  0  0  0  0  0  0  0  0
   41.2340   31.8570   36.5640 H   0  0  0  0  0  0  0  0  0  0  0  0
   42.6170   33.8140   36.8800 H   0  0  0  0  0  0  0  0  0  0  0  0
   42.4030   35.1520   38.8560 H   0  0  0  0  0  0  0  0  0  0  0  0
   39.9400   35.9780   40.7460 C   0  0  0  0  0  0  0  0  0  0  0  0
   39.0400   36.4110   39.9230 O   0  0  0  0  0  0  0  0  0  0  0  0
   40.8560   34.8690   40.8630 N   0  0  0  0  0  0  0  0  0  0  0  0
   39.7790   36.8160   41.4170 H   0  0  0  0  0  0  0  0  0  0  0  0
   41.4130   34.9470   41.7180 H   0  0  0  0  0  0  0  0  0  0  0  0
   37.3450   28.6720   43.1780 C   0  0  0  0  0  0  0  0  0  0  0  0
   38.4570   28.7580   43.2570 H   0  0  0  0  0  0  0  0  0  0  0  0
   36.8090   29.0810   44.0340 H   0  0  0  0  0  0  0  0  0  0  0  0
   37.0710   27.1860   43.0340 C   0  0  0  0  0  0  0  0  0  0  0  0
   36.4170   26.9710   42.1860 H   0  0  0  0  0  0  0  0  0  0  0  0
   36.6180   26.8000   43.9730 H   0  0  0  0  0  0  0  0  0  0  0  0
   38.7370   25.5850   41.9560 C   0  0  0  0  0  3  0  0  0  0  0  0
   38.4040   26.5410   42.8930 C   0  0  0  0  0  0  0  0  0  0  0  0
   39.3440   26.9960   43.8250 C   0  0  0  0  0  0  0  0  0  0  0  0
   39.1260   27.7420   44.5730 H   0  0  0  0  0  0  0  0  0  0  0  0
   40.6140   26.4990   43.8240 C   0  0  0  0  0  0  0  0  0  0  0  0
   41.7240   26.7050   44.5510 N   0  0  0  0  0  0  0  0  0  0  0  0
   42.6890   25.9030   44.0700 C   0  0  0  0  0  0  0  0  0  0  0  0
   43.6750   25.9450   44.5540 H   0  0  0  0  0  0  0  0  0  0  0  0
   42.2290   25.1590   43.0220 N   0  0  0  0  0  0  0  0  0  0  0  0
   40.9420   25.5380   42.8820 C   0  0  0  0  0  0  0  0  0  0  0  0
   40.0300   25.0630   41.9380 C   0  0  0  0  0  3  0  0  0  0  0  0
   41.7370   27.3850   45.3260 H   0  0  0  0  0  0  0  0  0  0  0  0
  1  2  1  0  0  0  0
  2  8  1  0  0  0  0
  2  3  2  0  0  0  0
  3 30  1  0  0  0  0
  4  3  1  0  0  0  0
  5  4  2  0  0  0  0
  6  1  2  0  0  0  0
  6  5  1  0  0  0  0
  7  1  1  0  0  0  0
  9  5  1  0  0  0  0
  9 11  1  0  0  0  0
  9 12  1  0  0  0  0
 10  9  1  0  0  0  0
 12 13  1  0  0  0  0
 12 14  1  0  0  0  0
 15 20  1  0  0  0  0
 15 12  1  0  0  0  0
 16 15  2  0  0  0  0
 17 18  2  0  0  0  0
 17 16  1  0  0  0  0
 18 19  1  0  0  0  0
 19 24  1  0  0  0  0
 19 20  2  0  0  0  0
 20 27  1  0  0  0  0
 21 16  1  0  0  0  0
 22 17  1  0  0  0  0
 23 18  1  0  0  0  0
 25 27  1  0  0  0  0
 25 28  1  0  0  0  0
 26 25  2  0  0  0  0
 27 29  1  0  0  0  0
 30 31  1  0  0  0  0
 30 32  1  0  0  0  0
 33 30  1  0  0  0  0
 33 35  1  0  0  0  0
 34 33  1  0  0  0  0
 36 37  1  0  0  0  0
 37 33  1  0  0  0  0
 37 38  2  0  0  0  0
 38 39  1  0  0  0  0
 40 38  1  0  0  0  0
 40 41  1  0  0  0  0
 41 47  1  0  0  0  0
 42 41  1  0  0  0  0
 42 43  1  0  0  0  0
 44 42  2  0  0  0  0
 45 44  1  0  0  0  0
 45 40  2  0  0  0  0
 46 36  2  0  0  0  0
 46 45  1  0  0  0  0
M  END
>  <minimizedAffinity>
-6.73101282

$$$$

 OpenBabel03242511483D

 47 50  0  0  0  0  0  0  0  0999 V2000
   35.5820   28.9500   39.5090 C   0  0  0  0  0  0  0  0  0  0  0  0
   36.1670   30.0850   38.8880 C   0  0  0  0  0  0  0  0  0  0  0  0
   37.0960   30.7830   39.6200 C   0  0  0  0  0  0  0  0  0  0  0  0
   37.4140   30.3810   40.8660 N   0  0  0  0  0  0  0  0  0  0  0  0
   36.8290   29.2950   41.4090 C   0  0  0  0  0  0  0  0  0  0  0  0
   35.9330   28.5860   40.7590 N   0  0  0  0  0  0  0  0  0  0  0  0
   34.8540   28.4000   38.9400 H   0  0  0  0  0  0  0  0  0  0  0  0
   35.8940   30.3830   37.8920 H   0  0  0  0  0  0  0  0  0  0  0  0
   37.2270   28.9160   42.7790 C   0  0  0  0  0  0  0  0  0  0  0  0
   38.3350   29.0750   42.8340 H   0  0  0  0  0  0  0  0  0  0  0  0
   36.7820   29.6050   43.5100 H   0  0  0  0  0  0  0  0  0  0  0  0
   36.8930   27.4650   43.0070 C   0  0  0  0  0  0  0  0  0  0  0  0
   36.2000   27.0750   42.2120 H   0  0  0  0  0  0  0  0  0  0  0  0
   36.2590   27.4510   43.9380 H   0  0  0  0  0  0  0  0  0  0  0  0
   38.0700   26.6290   43.0830 C   0  0  0  0  0  0  0  0  0  0  0  0
   39.2430   26.8550   43.7510 C   0  0  0  0  0  0  0  0  0  0  0  0
   40.2920   25.9900   43.7540 C   0  0  0  0  0  0  0  0  0  0  0  0
   40.1680   24.8150   43.0410 C   0  0  0  0  0  0  0  0  0  0  0  0
   38.9950   24.5740   42.3650 C   0  0  0  0  0  0  0  0  0  0  0  0
   37.9450   25.4660   42.3770 C   0  0  0  0  0  0  0  0  0  0  0  0
   39.2950   27.7940   44.2970 H   0  0  0  0  0  0  0  0  0  0  0  0
   41.1860   26.2450   44.3080 H   0  0  0  0  0  0  0  0  0  0  0  0
   41.0450   24.1650   43.0850 H   0  0  0  0  0  0  0  0  0  0  0  0
   39.0650   23.6030   41.8580 H   0  0  0  0  0  0  0  0  0  0  0  0
   36.9900   25.2010   40.1650 C   0  0  0  0  0  0  0  0  0  0  0  0
   37.7650   25.8540   39.3610 O   0  0  0  0  0  0  0  0  0  0  0  0
   36.8910   24.9070   41.5740 N   0  0  0  0  0  0  0  0  0  0  0  0
   36.3440   24.8950   39.3480 H   0  0  0  0  0  0  0  0  0  0  0  0
   36.0670   24.3350   41.7690 H   0  0  0  0  0  0  0  0  0  0  0  0
   37.7010   31.9690   38.9610 C   0  0  0  0  0  0  0  0  0  0  0  0
   38.8080   31.8940   39.1010 H   0  0  0  0  0  0  0  0  0  0  0  0
   37.3880   31.9770   37.9180 H   0  0  0  0  0  0  0  0  0  0  0  0
   37.2990   33.2570   39.6530 C   0  0  0  0  0  0  0  0  0  0  0  0
   36.6740   33.0730   40.5300 H   0  0  0  0  0  0  0  0  0  0  0  0
   36.7630   33.9130   38.9330 H   0  0  0  0  0  0  0  0  0  0  0  0
   38.7380   35.3050   40.1400 C   0  0  0  0  0  3  0  0  0  0  0  0
   38.5720   33.9420   40.0040 C   0  0  0  0  0  0  0  0  0  0  0  0
   39.6430   33.0620   40.1970 C   0  0  0  0  0  0  0  0  0  0  0  0
   39.5570   31.9910   40.1010 H   0  0  0  0  0  0  0  0  0  0  0  0
   40.8790   33.5380   40.5240 C   0  0  0  0  0  0  0  0  0  0  0  0
   42.0800   32.9940   40.7710 N   0  0  0  0  0  0  0  0  0  0  0  0
   42.9390   33.9910   41.0460 C   0  0  0  0  0  0  0  0  0  0  0  0
   43.9790   33.7200   41.2740 H   0  0  0  0  0  0  0  0  0  0  0  0
   42.3150   35.2030   40.9830 N   0  0  0  0  0  0  0  0  0  0  0  0
   41.0390   34.9070   40.6590 C   0  0  0  0  0  0  0  0  0  0  0  0
   39.9930   35.8130   40.4750 C   0  0  0  0  0  3  0  0  0  0  0  0
   42.2230   31.9730   40.7330 H   0  0  0  0  0  0  0  0  0  0  0  0
  1  6  1  0  0  0  0
  2  1  2  0  0  0  0
  2  3  1  0  0  0  0
  3  4  2  0  0  0  0
  4  5  1  0  0  0  0
  5  9  1  0  0  0  0
  6  5  2  0  0  0  0
  7  1  1  0  0  0  0
  8  2  1  0  0  0  0
  9 10  1  0  0  0  0
  9 12  1  0  0  0  0
  9 11  1  0  0  0  0
 12 15  1  0  0  0  0
 12 14  1  0  0  0  0
 13 12  1  0  0  0  0
 15 16  1  0  0  0  0
 16 17  2  0  0  0  0
 16 21  1  0  0  0  0
 17 22  1  0  0  0  0
 18 23  1  0  0  0  0
 18 17  1  0  0  0  0
 19 20  1  0  0  0  0
 19 18  2  0  0  0  0
 20 15  2  0  0  0  0
 24 19  1  0  0  0  0
 25 27  1  0  0  0  0
 26 25  2  0  0  0  0
 27 29  1  0  0  0  0
 27 20  1  0  0  0  0
 28 25  1  0  0  0  0
 30 31  1  0  0  0  0
 30  3  1  0  0  0  0
 30 33  1  0  0  0  0
 32 30  1  0  0  0  0
 33 37  1  0  0  0  0
 33 34  1  0  0  0  0
 35 33  1  0  0  0  0
 36 46  1  0  0  0  0
 37 36  2  0  0  0  0
 37 38  1  0  0  0  0
 38 40  2  0  0  0  0
 39 38  1  0  0  0  0
 40 45  1  0  0  0  0
 40 41  1  0  0  0  0
 41 42  1  0  0  0  0
 42 43  1  0  0  0  0
 44 42  2  0  0  0  0
 45 44  1  0  0  0  0
 46 45  2  0  0  0  0
 47 41  1  0  0  0  0
M  END
>  <minimizedAffinity>
-6.70968199

$$$$

 OpenBabel03242511483D

 47 50  0  0  0  0  0  0  0  0999 V2000
   37.0730   30.1010   37.4490 C   0  0  0  0  0  0  0  0  0  0  0  0
   37.2370   31.2810   38.2220 C   0  0  0  0  0  0  0  0  0  0  0  0
   37.0940   31.1570   39.5820 C   0  0  0  0  0  0  0  0  0  0  0  0
   36.8130   29.9560   40.1240 N   0  0  0  0  0  0  0  0  0  0  0  0
   36.6670   28.8660   39.3460 C   0  0  0  0  0  0  0  0  0  0  0  0
   36.7910   28.9210   38.0380 N   0  0  0  0  0  0  0  0  0  0  0  0
   37.1830   30.1930   36.3840 H   0  0  0  0  0  0  0  0  0  0  0  0
   37.4610   32.2260   37.7630 H   0  0  0  0  0  0  0  0  0  0  0  0
   36.3590   27.5850   40.0110 C   0  0  0  0  0  0  0  0  0  0  0  0
   35.3230   27.3100   39.6860 H   0  0  0  0  0  0  0  0  0  0  0  0
   37.0190   26.7920   39.6340 H   0  0  0  0  0  0  0  0  0  0  0  0
   36.4070   27.7790   41.5040 C   0  0  0  0  0  0  0  0  0  0  0  0
   35.4280   27.5070   41.9840 H   0  0  0  0  0  0  0  0  0  0  0  0
   36.4750   28.8920   41.6560 H   0  0  0  0  0  0  0  0  0  0  0  0
   37.4790   27.0330   42.1260 C   0  0  0  0  0  0  0  0  0  0  0  0
   37.8380   25.7260   41.9370 C   0  0  0  0  0  0  0  0  0  0  0  0
   38.8740   25.1240   42.5800 C   0  0  0  0  0  0  0  0  0  0  0  0
   39.6070   25.8750   43.4760 C   0  0  0  0  0  0  0  0  0  0  0  0
   39.2580   27.1900   43.6760 C   0  0  0  0  0  0  0  0  0  0  0  0
   38.2030   27.7780   43.0120 C   0  0  0  0  0  0  0  0  0  0  0  0
   37.2320   25.1740   41.2220 H   0  0  0  0  0  0  0  0  0  0  0  0
   39.0920   24.0840   42.3740 H   0  0  0  0  0  0  0  0  0  0  0  0
   40.4250   25.3330   43.9580 H   0  0  0  0  0  0  0  0  0  0  0  0
   39.9390   27.6350   44.4130 H   0  0  0  0  0  0  0  0  0  0  0  0
   39.0050   30.0530   42.7750 C   0  0  0  0  0  0  0  0  0  0  0  0
   39.9090   30.0190   41.8500 O   0  0  0  0  0  0  0  0  0  0  0  0
   38.1170   29.1420   43.4560 N   0  0  0  0  0  0  0  0  0  0  0  0
   39.1310   31.1240   42.9050 H   0  0  0  0  0  0  0  0  0  0  0  0
   37.5600   29.6350   44.1580 H   0  0  0  0  0  0  0  0  0  0  0  0
   37.2680   32.3980   40.3800 C   0  0  0  0  0  0  0  0  0  0  0  0
   36.3150   32.5660   40.9400 H   0  0  0  0  0  0  0  0  0  0  0  0
   38.1400   32.2730   41.0210 H   0  0  0  0  0  0  0  0  0  0  0  0
   37.4250   33.6160   39.4900 C   0  0  0  0  0  0  0  0  0  0  0  0
   36.5520   34.2710   39.5340 H   0  0  0  0  0  0  0  0  0  0  0  0
   37.6040   33.2880   38.4430 H   0  0  0  0  0  0  0  0  0  0  0  0
   38.8560   35.6640   40.0010 C   0  0  0  0  0  3  0  0  0  0  0  0
   38.6630   34.2980   39.9530 C   0  0  0  0  0  0  0  0  0  0  0  0
   39.6700   33.4140   40.3550 C   0  0  0  0  0  0  0  0  0  0  0  0
   39.5610   32.3400   40.3340 H   0  0  0  0  0  0  0  0  0  0  0  0
   40.8670   33.8870   40.8060 C   0  0  0  0  0  0  0  0  0  0  0  0
   42.0070   33.3380   41.2540 N   0  0  0  0  0  0  0  0  0  0  0  0
   42.8540   34.3340   41.5610 C   0  0  0  0  0  0  0  0  0  0  0  0
   43.8460   34.0600   41.9470 H   0  0  0  0  0  0  0  0  0  0  0  0
   42.2850   35.5510   41.3190 N   0  0  0  0  0  0  0  0  0  0  0  0
   41.0540   35.2580   40.8520 C   0  0  0  0  0  0  0  0  0  0  0  0
   40.0720   36.1690   40.4590 C   0  0  0  0  0  3  0  0  0  0  0  0
   42.1190   32.3150   41.3160 H   0  0  0  0  0  0  0  0  0  0  0  0
  1  6  2  0  0  0  0
  1  2  1  0  0  0  0
  2  3  2  0  0  0  0
  3  4  1  0  0  0  0
  3 30  1  0  0  0  0
  5  9  1  0  0  0  0
  5  4  2  0  0  0  0
  6  5  1  0  0  0  0
  7  1  1  0  0  0  0
  8  2  1  0  0  0  0
  9 12  1  0  0  0  0
 10  9  1  0  0  0  0
 11  9  1  0  0  0  0
 12 14  1  0  0  0  0
 12 13  1  0  0  0  0
 12 15  1  0  0  0  0
 15 20  1  0  0  0  0
 16 15  2  0  0  0  0
 16 17  1  0  0  0  0
 17 18  2  0  0  0  0
 18 19  1  0  0  0  0
 18 23  1  0  0  0  0
 19 24  1  0  0  0  0
 20 27  1  0  0  0  0
 20 19  2  0  0  0  0
 21 16  1  0  0  0  0
 22 17  1  0  0  0  0
 25 28  1  0  0  0  0
 25 27  1  0  0  0  0
 26 25  2  0  0  0  0
 27 29  1  0  0  0  0
 30 31  1  0  0  0  0
 30 32  1  0  0  0  0
 33 34  1  0  0  0  0
 33 37  1  0  0  0  0
 33 30  1  0  0  0  0
 35 33  1  0  0  0  0
 36 46  1  0  0  0  0
 37 36  2  0  0  0  0
 37 38  1  0  0  0  0
 38 40  2  0  0  0  0
 39 38  1  0  0  0  0
 40 45  1  0  0  0  0
 40 41  1  0  0  0  0
 41 47  1  0  0  0  0
 41 42  1  0  0  0  0
 42 43  1  0  0  0  0
 44 42  2  0  0  0  0
 45 44  1  0  0  0  0
 46 45  2  0  0  0  0
M  END
>  <minimizedAffinity>
-6.65647745

$$$$

 OpenBabel03242511483D

 47 50  0  0  0  0  0  0  0  0999 V2000
   38.0480   29.9030   37.2190 C   0  0  0  0  0  0  0  0  0  0  0  0
   37.4040   28.8690   37.9490 C   0  0  0  0  0  0  0  0  0  0  0  0
   36.6990   29.2450   39.0670 C   0  0  0  0  0  0  0  0  0  0  0  0
   36.6430   30.5430   39.4240 N   0  0  0  0  0  0  0  0  0  0  0  0
   37.2720   31.4850   38.6960 C   0  0  0  0  0  0  0  0  0  0  0  0
   37.9620   31.1890   37.6170 N   0  0  0  0  0  0  0  0  0  0  0  0
   38.6010   29.6140   36.3430 H   0  0  0  0  0  0  0  0  0  0  0  0
   37.4660   27.8420   37.6410 H   0  0  0  0  0  0  0  0  0  0  0  0
   37.1660   32.8860   39.1490 C   0  0  0  0  0  0  0  0  0  0  0  0
   37.4960   33.5170   38.2850 H   0  0  0  0  0  0  0  0  0  0  0  0
   36.1150   33.1480   39.3350 H   0  0  0  0  0  0  0  0  0  0  0  0
   38.0760   33.0940   40.3310 C   0  0  0  0  0  0  0  0  0  0  0  0
   38.6170   32.1460   40.6030 H   0  0  0  0  0  0  0  0  0  0  0  0
   37.3900   33.2650   41.2070 H   0  0  0  0  0  0  0  0  0  0  0  0
   39.0330   34.1570   40.1150 C   0  0  0  0  0  0  0  0  0  0  0  0
   38.9030   35.4950   40.3710 C   0  0  0  0  0  0  0  0  0  0  0  0
   39.8780   36.4110   40.1280 C   0  0  0  0  0  0  0  0  0  0  0  0
   41.0680   35.9660   39.5900 C   0  0  0  0  0  0  0  0  0  0  0  0
   41.2140   34.6250   39.3270 C   0  0  0  0  0  0  0  0  0  0  0  0
   40.2110   33.7140   39.5830 C   0  0  0  0  0  0  0  0  0  0  0  0
   37.9480   35.7980   40.7940 H   0  0  0  0  0  0  0  0  0  0  0  0
   39.6940   37.4520   40.3590 H   0  0  0  0  0  0  0  0  0  0  0  0
   41.8090   36.7510   39.4200 H   0  0  0  0  0  0  0  0  0  0  0  0
   42.2120   34.4460   38.9080 H   0  0  0  0  0  0  0  0  0  0  0  0
   41.3600   31.6820   40.2380 C   0  0  0  0  0  0  0  0  0  0  0  0
   41.6880   31.8420   41.4790 O   0  0  0  0  0  0  0  0  0  0  0  0
   40.6910   32.4170   39.1910 N   0  0  0  0  0  0  0  0  0  0  0  0
   41.7990   30.6900   40.2130 H   0  0  0  0  0  0  0  0  0  0  0  0
   40.6700   31.8760   38.3230 H   0  0  0  0  0  0  0  0  0  0  0  0
   36.0300   28.1560   39.8220 C   0  0  0  0  0  0  0  0  0  0  0  0
   34.9930   28.0600   39.4140 H   0  0  0  0  0  0  0  0  0  0  0  0
   36.6290   27.2510   39.7220 H   0  0  0  0  0  0  0  0  0  0  0  0
   35.8470   28.5210   41.2830 C   0  0  0  0  0  0  0  0  0  0  0  0
   34.8830   28.1850   41.6720 H   0  0  0  0  0  0  0  0  0  0  0  0
   35.9450   29.6220   41.4050 H   0  0  0  0  0  0  0  0  0  0  0  0
   37.8540   28.5540   42.8560 C   0  0  0  0  0  3  0  0  0  0  0  0
   36.9910   27.8980   42.0020 C   0  0  0  0  0  0  0  0  0  0  0  0
   37.1380   26.5320   41.7380 C   0  0  0  0  0  0  0  0  0  0  0  0
   36.4860   25.9810   41.0780 H   0  0  0  0  0  0  0  0  0  0  0  0
   38.1420   25.8190   42.3230 C   0  0  0  0  0  0  0  0  0  0  0  0
   38.5550   24.5420   42.2910 N   0  0  0  0  0  0  0  0  0  0  0  0
   39.6260   24.4320   43.0950 C   0  0  0  0  0  0  0  0  0  0  0  0
   40.0960   23.4430   43.1870 H   0  0  0  0  0  0  0  0  0  0  0  0
   39.9340   25.6330   43.6660 N   0  0  0  0  0  0  0  0  0  0  0  0
   39.0060   26.4830   43.1780 C   0  0  0  0  0  0  0  0  0  0  0  0
   38.8880   27.8440   43.4650 C   0  0  0  0  0  3  0  0  0  0  0  0
   38.0680   23.8370   41.7170 H   0  0  0  0  0  0  0  0  0  0  0  0
  1  6  2  0  0  0  0
  1  2  1  0  0  0  0
  2  3  2  0  0  0  0
  3  4  1  0  0  0  0
  3 30  1  0  0  0  0
  5  9  1  0  0  0  0
  5  4  2  0  0  0  0
  6  5  1  0  0  0  0
  7  1  1  0  0  0  0
  8  2  1  0  0  0  0
  9 11  1  0  0  0  0
  9 12  1  0  0  0  0
 10  9  1  0  0  0  0
 12 13  1  0  0  0  0
 12 14  1  0  0  0  0
 15 12  1  0  0  0  0
 15 16  1  0  0  0  0
 16 21  1  0  0  0  0
 17 22  1  0  0  0  0
 17 16  2  0  0  0  0
 18 17  1  0  0  0  0
 19 20  1  0  0  0  0
 19 18  2  0  0  0  0
 20 15  2  0  0  0  0
 23 18  1  0  0  0  0
 24 19  1  0  0  0  0
 25 26  2  0  0  0  0
 27 20  1  0  0  0  0
 27 25  1  0  0  0  0
 28 25  1  0  0  0  0
 29 27  1  0  0  0  0
 30 33  1  0  0  0  0
 31 30  1  0  0  0  0
 32 30  1  0  0  0  0
 33 35  1  0  0  0  0
 33 34  1  0  0  0  0
 33 37  1  0  0  0  0
 36 46  1  0  0  0  0
 37 36  2  0  0  0  0
 38 37  1  0  0  0  0
 38 40  2  0  0  0  0
 39 38  1  0  0  0  0
 40 45  1  0  0  0  0
 41 40  1  0  0  0  0
 41 42  1  0  0  0  0
 42 43  1  0  0  0  0
 42 44  2  0  0  0  0
 45 46  2  0  0  0  0
 45 44  1  0  0  0  0
 47 41  1  0  0  0  0
M  END
>  <minimizedAffinity>
-6.60251617

$$$$

 OpenBabel03242511483D

 47 50  0  0  0  0  0  0  0  0999 V2000
   35.3110   29.4690   39.9590 C   0  0  0  0  0  0  0  0  0  0  0  0
   35.8340   28.7610   41.0730 C   0  0  0  0  0  0  0  0  0  0  0  0
   36.8970   29.3330   41.7280 C   0  0  0  0  0  0  0  0  0  0  0  0
   37.3950   30.5120   41.3070 N   0  0  0  0  0  0  0  0  0  0  0  0
   36.8610   31.1430   40.2430 C   0  0  0  0  0  0  0  0  0  0  0  0
   35.8440   30.6470   39.5740 N   0  0  0  0  0  0  0  0  0  0  0  0
   34.4790   29.0250   39.4420 H   0  0  0  0  0  0  0  0  0  0  0  0
   35.4170   27.8220   41.3870 H   0  0  0  0  0  0  0  0  0  0  0  0
   37.4590   32.4310   39.8390 C   0  0  0  0  0  0  0  0  0  0  0  0
   37.8320   32.2840   38.7930 H   0  0  0  0  0  0  0  0  0  0  0  0
   36.6860   33.2090   39.7820 H   0  0  0  0  0  0  0  0  0  0  0  0
   38.6020   32.7570   40.7640 C   0  0  0  0  0  0  0  0  0  0  0  0
   39.3320   31.9040   40.8310 H   0  0  0  0  0  0  0  0  0  0  0  0
   38.1480   32.7940   41.7940 H   0  0  0  0  0  0  0  0  0  0  0  0
   39.2980   33.9660   40.3820 C   0  0  0  0  0  0  0  0  0  0  0  0
   38.8870   35.2660   40.4950 C   0  0  0  0  0  0  0  0  0  0  0  0
   39.6310   36.3340   40.1020 C   0  0  0  0  0  0  0  0  0  0  0  0
   40.8760   36.0920   39.5560 C   0  0  0  0  0  0  0  0  0  0  0  0
   41.3030   34.7910   39.4360 C   0  0  0  0  0  0  0  0  0  0  0  0
   40.5290   33.7240   39.8430 C   0  0  0  0  0  0  0  0  0  0  0  0
   37.8990   35.4070   40.9300 H   0  0  0  0  0  0  0  0  0  0  0  0
   39.2310   37.3310   40.2250 H   0  0  0  0  0  0  0  0  0  0  0  0
   41.4220   36.9910   39.2610 H   0  0  0  0  0  0  0  0  0  0  0  0
   42.3050   34.7800   38.9880 H   0  0  0  0  0  0  0  0  0  0  0  0
   41.0550   31.9670   38.2590 C   0  0  0  0  0  0  0  0  0  0  0  0
   40.3570   32.2210   37.1990 O   0  0  0  0  0  0  0  0  0  0  0  0
   41.2710   32.5230   39.5730 N   0  0  0  0  0  0  0  0  0  0  0  0
   41.4940   31.0850   37.8000 H   0  0  0  0  0  0  0  0  0  0  0  0
   41.9330   31.9530   40.1040 H   0  0  0  0  0  0  0  0  0  0  0  0
   37.4360   28.5840   42.8920 C   0  0  0  0  0  0  0  0  0  0  0  0
   37.7390   29.3400   43.6590 H   0  0  0  0  0  0  0  0  0  0  0  0
   36.6710   27.8890   43.2360 H   0  0  0  0  0  0  0  0  0  0  0  0
   38.7120   27.8450   42.5380 C   0  0  0  0  0  0  0  0  0  0  0  0
   39.4120   27.8110   43.3760 H   0  0  0  0  0  0  0  0  0  0  0  0
   39.1900   28.3320   41.6600 H   0  0  0  0  0  0  0  0  0  0  0  0
   37.1890   25.8010   42.5830 C   0  0  0  0  0  3  0  0  0  0  0  0
   38.2870   26.4860   42.1060 C   0  0  0  0  0  0  0  0  0  0  0  0
   39.1200   25.9250   41.1320 C   0  0  0  0  0  0  0  0  0  0  0  0
   39.9880   26.4260   40.7320 H   0  0  0  0  0  0  0  0  0  0  0  0
   38.8610   24.6820   40.6340 C   0  0  0  0  0  0  0  0  0  0  0  0
   39.4350   23.8750   39.7270 N   0  0  0  0  0  0  0  0  0  0  0  0
   38.7100   22.7450   39.6610 C   0  0  0  0  0  0  0  0  0  0  0  0
   39.0410   21.9670   38.9600 H   0  0  0  0  0  0  0  0  0  0  0  0
   37.6510   22.7930   40.5210 N   0  0  0  0  0  0  0  0  0  0  0  0
   37.7590   23.9990   41.1180 C   0  0  0  0  0  0  0  0  0  0  0  0
   36.9060   24.5280   42.0870 C   0  0  0  0  0  3  0  0  0  0  0  0
   40.2850   24.1610   39.2180 H   0  0  0  0  0  0  0  0  0  0  0  0
  1  2  1  0  0  0  0
  2  8  1  0  0  0  0
  2  3  2  0  0  0  0
  3 30  1  0  0  0  0
  4  3  1  0  0  0  0
  5  4  2  0  0  0  0
  6  1  2  0  0  0  0
  6  5  1  0  0  0  0
  7  1  1  0  0  0  0
  9  5  1  0  0  0  0
  9 12  1  0  0  0  0
 10  9  1  0  0  0  0
 11  9  1  0  0  0  0
 12 13  1  0  0  0  0
 12 14  1  0  0  0  0
 15 16  1  0  0  0  0
 15 12  1  0  0  0  0
 16 21  1  0  0  0  0
 17 22  1  0  0  0  0
 17 16  2  0  0  0  0
 18 17  1  0  0  0  0
 19 18  2  0  0  0  0
 19 20  1  0  0  0  0
 20 15  2  0  0  0  0
 23 18  1  0  0  0  0
 24 19  1  0  0  0  0
 25 27  1  0  0  0  0
 26 25  2  0  0  0  0
 27 20  1  0  0  0  0
 27 29  1  0  0  0  0
 28 25  1  0  0  0  0
 30 32  1  0  0  0  0
 30 31  1  0  0  0  0
 33 30  1  0  0  0  0
 33 34  1  0  0  0  0
 35 33  1  0  0  0  0
 37 33  1  0  0  0  0
 37 36  1  0  0  0  0
 38 37  2  0  0  0  0
 39 38  1  0  0  0  0
 40 45  2  0  0  0  0
 40 38  1  0  0  0  0
 41 40  1  0  0  0  0
 42 41  1  0  0  0  0
 42 44  2  0  0  0  0
 43 42  1  0  0  0  0
 44 45  1  0  0  0  0
 45 46  1  0  0  0  0
 46 36  2  0  0  0  0
 47 41  1  0  0  0  0
M  END
>  <minimizedAffinity>
-6.48783112

$$$$

 OpenBabel03242511483D

 47 50  0  0  0  0  0  0  0  0999 V2000
   36.9270   25.9880   39.8910 C   0  0  0  0  0  0  0  0  0  0  0  0
   36.4160   27.0120   39.0500 C   0  0  0  0  0  0  0  0  0  0  0  0
   36.0340   28.1820   39.6590 C   0  0  0  0  0  0  0  0  0  0  0  0
   36.1530   28.3180   40.9940 N   0  0  0  0  0  0  0  0  0  0  0  0
   36.6450   27.3150   41.7470 C   0  0  0  0  0  0  0  0  0  0  0  0
   37.0270   26.1720   41.2240 N   0  0  0  0  0  0  0  0  0  0  0  0
   37.2270   25.0700   39.4190 H   0  0  0  0  0  0  0  0  0  0  0  0
   36.3330   26.8760   37.9880 H   0  0  0  0  0  0  0  0  0  0  0  0
   36.7450   27.5370   43.2030 C   0  0  0  0  0  0  0  0  0  0  0  0
   36.3870   28.5830   43.3820 H   0  0  0  0  0  0  0  0  0  0  0  0
   36.0460   26.8790   43.7380 H   0  0  0  0  0  0  0  0  0  0  0  0
   38.1830   27.3940   43.6280 C   0  0  0  0  0  0  0  0  0  0  0  0
   38.6060   26.4010   43.3120 H   0  0  0  0  0  0  0  0  0  0  0  0
   38.1540   27.3210   44.7510 H   0  0  0  0  0  0  0  0  0  0  0  0
   39.0190   28.4620   43.1270 C   0  0  0  0  0  0  0  0  0  0  0  0
   38.7380   29.7970   43.0260 C   0  0  0  0  0  0  0  0  0  0  0  0
   39.6080   30.7210   42.5380 C   0  0  0  0  0  0  0  0  0  0  0  0
   40.8490   30.2860   42.1180 C   0  0  0  0  0  0  0  0  0  0  0  0
   41.1470   28.9470   42.2140 C   0  0  0  0  0  0  0  0  0  0  0  0
   40.2470   28.0300   42.7140 C   0  0  0  0  0  0  0  0  0  0  0  0
   37.7480   30.0930   43.3670 H   0  0  0  0  0  0  0  0  0  0  0  0
   39.3070   31.7590   42.4900 H   0  0  0  0  0  0  0  0  0  0  0  0
   41.5000   31.0760   41.7380 H   0  0  0  0  0  0  0  0  0  0  0  0
   42.1650   28.7760   41.8420 H   0  0  0  0  0  0  0  0  0  0  0  0
   41.6630   26.4110   43.8320 C   0  0  0  0  0  0  0  0  0  0  0  0
   42.0080   26.9540   44.9550 O   0  0  0  0  0  0  0  0  0  0  0  0
   40.8740   26.7370   42.6680 N   0  0  0  0  0  0  0  0  0  0  0  0
   42.2230   25.5080   44.0570 H   0  0  0  0  0  0  0  0  0  0  0  0
   40.8940   25.9720   41.9900 H   0  0  0  0  0  0  0  0  0  0  0  0
   35.5010   29.2460   38.7700 C   0  0  0  0  0  0  0  0  0  0  0  0
   34.5900   28.8320   38.2710 H   0  0  0  0  0  0  0  0  0  0  0  0
   35.3100   30.1320   39.3730 H   0  0  0  0  0  0  0  0  0  0  0  0
   36.4630   29.5620   37.6400 C   0  0  0  0  0  0  0  0  0  0  0  0
   35.9490   29.9690   36.7670 H   0  0  0  0  0  0  0  0  0  0  0  0
   37.0210   28.6410   37.3600 H   0  0  0  0  0  0  0  0  0  0  0  0
   38.8240   30.4070   38.1020 C   0  0  0  0  0  3  0  0  0  0  0  0
   37.4530   30.5170   38.2070 C   0  0  0  0  0  0  0  0  0  0  0  0
   36.8650   31.5890   38.8870 C   0  0  0  0  0  0  0  0  0  0  0  0
   35.7990   31.7140   38.9920 H   0  0  0  0  0  0  0  0  0  0  0  0
   37.6420   32.5510   39.4630 C   0  0  0  0  0  0  0  0  0  0  0  0
   37.4140   33.6730   40.1650 N   0  0  0  0  0  0  0  0  0  0  0  0
   38.6040   34.2180   40.4720 C   0  0  0  0  0  0  0  0  0  0  0  0
   38.6030   35.1520   41.0510 H   0  0  0  0  0  0  0  0  0  0  0  0
   39.6290   33.4640   39.9780 N   0  0  0  0  0  0  0  0  0  0  0  0
   39.0170   32.4350   39.3550 C   0  0  0  0  0  0  0  0  0  0  0  0
   39.6370   31.3790   38.6840 C   0  0  0  0  0  3  0  0  0  0  0  0
   36.4550   33.9830   40.3820 H   0  0  0  0  0  0  0  0  0  0  0  0
  1  6  1  0  0  0  0
  2  3  1  0  0  0  0
  2  1  2  0  0  0  0
  3  4  2  0  0  0  0
  4  5  1  0  0  0  0
  5  9  1  0  0  0  0
  6  5  2  0  0  0  0
  7  1  1  0  0  0  0
  8  2  1  0  0  0  0
  9 10  1  0  0  0  0
  9 12  1  0  0  0  0
  9 11  1  0  0  0  0
 12 14  1  0  0  0  0
 13 12  1  0  0  0  0
 15 12  1  0  0  0  0
 16 15  1  0  0  0  0
 16 21  1  0  0  0  0
 17 16  2  0  0  0  0
 18 19  2  0  0  0  0
 18 17  1  0  0  0  0
 19 20  1  0  0  0  0
 20 15  2  0  0  0  0
 22 17  1  0  0  0  0
 23 18  1  0  0  0  0
 24 19  1  0  0  0  0
 25 28  1  0  0  0  0
 25 26  2  0  0  0  0
 27 20  1  0  0  0  0
 27 25  1  0  0  0  0
 29 27  1  0  0  0  0
 30 32  1  0  0  0  0
 30  3  1  0  0  0  0
 31 30  1  0  0  0  0
 33 37  1  0  0  0  0
 33 30  1  0  0  0  0
 34 33  1  0  0  0  0
 35 33  1  0  0  0  0
 36 37  2  0  0  0  0
 36 46  1  0  0  0  0
 37 38  1  0  0  0  0
 38 39  1  0  0  0  0
 38 40  2  0  0  0  0
 40 41  1  0  0  0  0
 41 47  1  0  0  0  0
 41 42  1  0  0  0  0
 42 43  1  0  0  0  0
 44 42  2  0  0  0  0
 45 40  1  0  0  0  0
 45 44  1  0  0  0  0
 46 45  2  0  0  0  0
M  END
>  <minimizedAffinity>
-6.37770176

$$$$

 OpenBabel03242511483D

 47 50  0  0  0  0  0  0  0  0999 V2000
   36.6570   26.3870   39.6500 C   0  0  0  0  0  0  0  0  0  0  0  0
   36.3190   27.6300   39.0520 C   0  0  0  0  0  0  0  0  0  0  0  0
   36.1260   28.6930   39.8990 C   0  0  0  0  0  0  0  0  0  0  0  0
   36.2580   28.5290   41.2300 N   0  0  0  0  0  0  0  0  0  0  0  0
   36.5800   27.3280   41.7470 C   0  0  0  0  0  0  0  0  0  0  0  0
   36.7780   26.2720   40.9890 N   0  0  0  0  0  0  0  0  0  0  0  0
   36.8100   25.5510   38.9910 H   0  0  0  0  0  0  0  0  0  0  0  0
   36.2210   27.7320   37.9870 H   0  0  0  0  0  0  0  0  0  0  0  0
   36.7070   27.2240   43.2130 C   0  0  0  0  0  0  0  0  0  0  0  0
   35.7140   27.5290   43.6320 H   0  0  0  0  0  0  0  0  0  0  0  0
   36.8560   26.1770   43.5100 H   0  0  0  0  0  0  0  0  0  0  0  0
   37.7870   28.1630   43.6840 C   0  0  0  0  0  0  0  0  0  0  0  0
   37.6810   28.3920   44.7800 H   0  0  0  0  0  0  0  0  0  0  0  0
   37.5600   29.1470   43.1870 H   0  0  0  0  0  0  0  0  0  0  0  0
   39.1160   27.6590   43.4170 C   0  0  0  0  0  0  0  0  0  0  0  0
   39.7790   26.6220   44.0150 C   0  0  0  0  0  0  0  0  0  0  0  0
   41.0360   26.2310   43.6790 C   0  0  0  0  0  0  0  0  0  0  0  0
   41.6840   26.9210   42.6740 C   0  0  0  0  0  0  0  0  0  0  0  0
   41.0310   27.9650   42.0630 C   0  0  0  0  0  0  0  0  0  0  0  0
   39.7550   28.3420   42.4220 C   0  0  0  0  0  0  0  0  0  0  0  0
   39.2290   26.1090   44.8020 H   0  0  0  0  0  0  0  0  0  0  0  0
   41.4900   25.4010   44.2030 H   0  0  0  0  0  0  0  0  0  0  0  0
   42.6900   26.5570   42.4520 H   0  0  0  0  0  0  0  0  0  0  0  0
   41.6840   28.3970   41.2940 H   0  0  0  0  0  0  0  0  0  0  0  0
   39.8990   30.7310   42.0340 C   0  0  0  0  0  0  0  0  0  0  0  0
   40.6190   31.2070   42.9980 O   0  0  0  0  0  0  0  0  0  0  0  0
   39.3830   29.4570   41.5940 N   0  0  0  0  0  0  0  0  0  0  0  0
   39.7820   31.7150   41.5900 H   0  0  0  0  0  0  0  0  0  0  0  0
   38.8260   29.5650   40.7430 H   0  0  0  0  0  0  0  0  0  0  0  0
   35.7730   29.9890   39.2630 C   0  0  0  0  0  0  0  0  0  0  0  0
   34.7180   29.9030   38.9040 H   0  0  0  0  0  0  0  0  0  0  0  0
   35.9290   30.7820   39.9930 H   0  0  0  0  0  0  0  0  0  0  0  0
   36.5980   30.2380   38.0140 C   0  0  0  0  0  0  0  0  0  0  0  0
   35.9920   30.6370   37.1970 H   0  0  0  0  0  0  0  0  0  0  0  0
   37.0890   29.2920   37.6990 H   0  0  0  0  0  0  0  0  0  0  0  0
   38.9980   31.0990   38.0300 C   0  0  0  0  0  3  0  0  0  0  0  0
   37.6770   31.1770   38.4220 C   0  0  0  0  0  0  0  0  0  0  0  0
   37.2370   32.1950   39.2750 C   0  0  0  0  0  0  0  0  0  0  0  0
   36.2140   32.2920   39.6060 H   0  0  0  0  0  0  0  0  0  0  0  0
   38.1100   33.1350   39.7380 C   0  0  0  0  0  0  0  0  0  0  0  0
   38.0260   34.2070   40.5410 N   0  0  0  0  0  0  0  0  0  0  0  0
   39.2500   34.7560   40.6280 C   0  0  0  0  0  0  0  0  0  0  0  0
   39.3630   35.6530   41.2520 H   0  0  0  0  0  0  0  0  0  0  0  0
   40.1550   34.0530   39.8870 N   0  0  0  0  0  0  0  0  0  0  0  0
   39.4340   33.0510   39.3410 C   0  0  0  0  0  0  0  0  0  0  0  0
   39.9070   32.0500   38.4910 C   0  0  0  0  0  3  0  0  0  0  0  0
   37.1310   34.4860   40.9700 H   0  0  0  0  0  0  0  0  0  0  0  0
  1  6  1  0  0  0  0
  2  1  2  0  0  0  0
  2  3  1  0  0  0  0
  3  4  2  0  0  0  0
  4  5  1  0  0  0  0
  5  9  1  0  0  0  0
  6  5  2  0  0  0  0
  7  1  1  0  0  0  0
  8  2  1  0  0  0  0
  9 11  1  0  0  0  0
  9 10  1  0  0  0  0
  9 12  1  0  0  0  0
 12 13  1  0  0  0  0
 14 12  1  0  0  0  0
 15 12  1  0  0  0  0
 15 16  1  0  0  0  0
 16 21  1  0  0  0  0
 17 16  2  0  0  0  0
 17 22  1  0  0  0  0
 18 17  1  0  0  0  0
 19 20  1  0  0  0  0
 19 18  2  0  0  0  0
 20 15  2  0  0  0  0
 23 18  1  0  0  0  0
 24 19  1  0  0  0  0
 25 26  2  0  0  0  0
 27 25  1  0  0  0  0
 27 20  1  0  0  0  0
 28 25  1  0  0  0  0
 29 27  1  0  0  0  0
 30  3  1  0  0  0  0
 30 32  1  0  0  0  0
 31 30  1  0  0  0  0
 33 37  1  0  0  0  0
 33 30  1  0  0  0  0
 34 33  1  0  0  0  0
 35 33  1  0  0  0  0
 36 37  2  0  0  0  0
 36 46  1  0  0  0  0
 37 38  1  0  0  0  0
 38 39  1  0  0  0  0
 38 40  2  0  0  0  0
 40 41  1  0  0  0  0
 41 42  1  0  0  0  0
 41 47  1  0  0  0  0
 42 43  1  0  0  0  0
 44 42  2  0  0  0  0
 45 40  1  0  0  0  0
 45 44  1  0  0  0  0
 46 45  2  0  0  0  0
M  END
>  <minimizedAffinity>
-6.3193469

$$$$

 OpenBabel03242511483D

 47 50  0  0  0  0  0  0  0  0999 V2000
   35.3320   26.5980   37.0260 C   0  0  0  0  0  0  0  0  0  0  0  0
   35.4680   28.0110   37.0670 C   0  0  0  0  0  0  0  0  0  0  0  0
   36.0760   28.5450   38.1760 C   0  0  0  0  0  0  0  0  0  0  0  0
   36.5120   27.7360   39.1610 N   0  0  0  0  0  0  0  0  0  0  0  0
   36.3600   26.4000   39.0730 C   0  0  0  0  0  0  0  0  0  0  0  0
   35.7850   25.8300   38.0380 N   0  0  0  0  0  0  0  0  0  0  0  0
   34.8560   26.1760   36.1590 H   0  0  0  0  0  0  0  0  0  0  0  0
   35.1100   28.6320   36.2660 H   0  0  0  0  0  0  0  0  0  0  0  0
   36.8620   25.5780   40.1910 C   0  0  0  0  0  0  0  0  0  0  0  0
   36.1020   24.7700   40.3470 H   0  0  0  0  0  0  0  0  0  0  0  0
   37.7930   25.0700   39.9030 H   0  0  0  0  0  0  0  0  0  0  0  0
   36.9780   26.4360   41.4240 C   0  0  0  0  0  0  0  0  0  0  0  0
   36.0550   26.3640   42.0620 H   0  0  0  0  0  0  0  0  0  0  0  0
   36.9550   27.4980   41.0480 H   0  0  0  0  0  0  0  0  0  0  0  0
   38.1460   26.1170   42.2150 C   0  0  0  0  0  0  0  0  0  0  0  0
   38.8950   24.9720   42.2170 C   0  0  0  0  0  0  0  0  0  0  0  0
   39.9830   24.7790   43.0090 C   0  0  0  0  0  0  0  0  0  0  0  0
   40.3550   25.7990   43.8620 C   0  0  0  0  0  0  0  0  0  0  0  0
   39.6120   26.9550   43.8710 C   0  0  0  0  0  0  0  0  0  0  0  0
   38.5120   27.1270   43.0580 C   0  0  0  0  0  0  0  0  0  0  0  0
   38.5640   24.1960   41.5300 H   0  0  0  0  0  0  0  0  0  0  0  0
   40.5210   23.8420   42.9500 H   0  0  0  0  0  0  0  0  0  0  0  0
   41.2360   25.5810   44.4690 H   0  0  0  0  0  0  0  0  0  0  0  0
   40.0420   27.6550   44.5990 H   0  0  0  0  0  0  0  0  0  0  0  0
   38.6420   29.5090   42.6290 C   0  0  0  0  0  0  0  0  0  0  0  0
   39.6310   29.6710   41.8100 O   0  0  0  0  0  0  0  0  0  0  0  0
   37.9750   28.4340   43.3230 N   0  0  0  0  0  0  0  0  0  0  0  0
   38.4330   30.5750   42.6410 H   0  0  0  0  0  0  0  0  0  0  0  0
   37.2120   28.7930   43.9020 H   0  0  0  0  0  0  0  0  0  0  0  0
   36.2120   30.0240   38.2080 C   0  0  0  0  0  0  0  0  0  0  0  0
   37.1390   30.2810   37.6370 H   0  0  0  0  0  0  0  0  0  0  0  0
   35.3040   30.4600   37.7950 H   0  0  0  0  0  0  0  0  0  0  0  0
   36.4600   30.5310   39.6160 C   0  0  0  0  0  0  0  0  0  0  0  0
   36.6530   29.7150   40.3170 H   0  0  0  0  0  0  0  0  0  0  0  0
   35.5840   31.1250   39.9550 H   0  0  0  0  0  0  0  0  0  0  0  0
   38.6700   31.3420   38.6370 C   0  0  0  0  0  3  0  0  0  0  0  0
   37.6110   31.4670   39.5120 C   0  0  0  0  0  0  0  0  0  0  0  0
   37.5400   32.5380   40.4110 C   0  0  0  0  0  0  0  0  0  0  0  0
   36.7310   32.6730   41.1110 H   0  0  0  0  0  0  0  0  0  0  0  0
   38.5230   33.4840   40.4370 C   0  0  0  0  0  0  0  0  0  0  0  0
   38.7600   34.5990   41.1460 N   0  0  0  0  0  0  0  0  0  0  0  0
   39.9180   35.1260   40.7140 C   0  0  0  0  0  0  0  0  0  0  0  0
   40.2660   36.0530   41.1900 H   0  0  0  0  0  0  0  0  0  0  0  0
   40.4580   34.3670   39.7160 N   0  0  0  0  0  0  0  0  0  0  0  0
   39.5830   33.3520   39.5570 C   0  0  0  0  0  0  0  0  0  0  0  0
   39.6850   32.2980   38.6470 C   0  0  0  0  0  3  0  0  0  0  0  0
   38.1060   34.9170   41.8770 H   0  0  0  0  0  0  0  0  0  0  0  0
  1  2  2  0  0  0  0
  1  6  1  0  0  0  0
  2  3  1  0  0  0  0
  3 30  1  0  0  0  0
  3  4  2  0  0  0  0
  5  4  1  0  0  0  0
  5  9  1  0  0  0  0
  6  5  2  0  0  0  0
  7  1  1  0  0  0  0
  8  2  1  0  0  0  0
  9 10  1  0  0  0  0
  9 12  1  0  0  0  0
 11  9  1  0  0  0  0
 12 13  1  0  0  0  0
 12 15  1  0  0  0  0
 14 12  1  0  0  0  0
 15 16  2  0  0  0  0
 15 20  1  0  0  0  0
 16 17  1  0  0  0  0
 17 18  2  0  0  0  0
 18 19  1  0  0  0  0
 18 23  1  0  0  0  0
 19 24  1  0  0  0  0
 20 27  1  0  0  0  0
 20 19  2  0  0  0  0
 21 16  1  0  0  0  0
 22 17  1  0  0  0  0
 25 28  1  0  0  0  0
 25 27  1  0  0  0  0
 26 25  2  0  0  0  0
 27 29  1  0  0  0  0
 30 33  1  0  0  0  0
 31 30  1  0  0  0  0
 32 30  1  0  0  0  0
 33 35  1  0  0  0  0
 33 34  1  0  0  0  0
 36 46  2  0  0  0  0
 36 37  1  0  0  0  0
 37 33  1  0  0  0  0
 37 38  2  0  0  0  0
 38 40  1  0  0  0  0
 38 39  1  0  0  0  0
 40 41  1  0  0  0  0
 41 47  1  0  0  0  0
 42 41  1  0  0  0  0
 42 43  1  0  0  0  0
 44 42  2  0  0  0  0
 45 44  1  0  0  0  0
 45 40  2  0  0  0  0
 46 45  1  0  0  0  0
M  END
>  <minimizedAffinity>
-6.27191257

$$$$
