
 OpenBabel03252505313D

 30 32  0  0  0  0  0  0  0  0999 V2000
   37.1040   30.0970   39.2480 O   0  0  0  0  0  0  0  0  0  0  0  0
   36.8990   31.3970   38.8520 C   0  0  0  0  0  0  0  0  0  0  0  0
   35.9110   31.7110   39.2960 H   0  0  0  0  0  0  0  0  0  0  0  0
   36.7460   31.4870   37.7440 H   0  0  0  0  0  0  0  0  0  0  0  0
   37.5120   33.6160   39.7210 C   0  0  0  0  0  3  0  0  0  0  0  0
   37.9200   32.3560   39.2850 C   0  0  0  0  0  0  0  0  0  0  0  0
   39.2760   32.1060   39.2960 C   0  0  0  0  0  0  0  0  0  0  0  0
   39.6030   31.1230   38.9560 H   0  0  0  0  0  0  0  0  0  0  0  0
   40.2540   32.9920   39.6980 C   0  0  0  0  0  0  0  0  0  0  0  0
   41.5940   32.9250   39.7750 N   0  0  0  0  0  0  0  0  0  0  0  0
   42.0380   34.1210   40.2530 C   0  0  0  0  0  0  0  0  0  0  0  0
   43.0790   34.3980   40.4340 H   0  0  0  0  0  0  0  0  0  0  0  0
   40.9510   34.9110   40.4630 N   0  0  0  0  0  0  0  0  0  0  0  0
   39.8310   34.2390   40.1290 C   0  0  0  0  0  0  0  0  0  0  0  0
   38.4750   34.5160   40.1280 C   0  0  0  0  0  3  0  0  0  0  0  0
   42.2060   32.1070   39.5180 H   0  0  0  0  0  0  0  0  0  0  0  0
   34.5890   29.4780   39.3290 O   0  0  0  0  0  0  0  0  0  0  0  0
   35.8120   29.6400   40.2320 P   0  0  2  0  0  0  0  0  0  0  0  0
   35.5650   30.8730   41.3580 O   0  0  0  0  0  0  0  0  0  0  0  0
   36.4410   31.2730   41.6220 H   0  0  0  0  0  0  0  0  0  0  0  0
   36.0920   28.1620   41.0020 O   0  0  0  0  0  0  0  0  0  0  0  0
   38.8350   28.6540   43.1860 C   0  0  0  0  0  0  0  0  0  0  0  0
   39.3080   27.3380   43.4690 C   0  0  0  0  0  0  0  0  0  0  0  0
   38.6080   26.2820   42.8500 C   0  0  0  0  0  0  0  0  0  0  0  0
   37.5470   26.6020   42.0390 N   0  0  0  0  0  0  0  0  0  0  0  0
   37.1610   27.8590   41.8200 C   0  0  0  0  0  0  0  0  0  0  0  0
   37.7930   28.8770   42.3840 N   0  0  0  0  0  0  0  0  0  0  0  0
   39.3810   29.4700   43.6680 H   0  0  0  0  0  0  0  0  0  0  0  0
   40.1550   27.1720   44.1220 H   0  0  0  0  0  0  0  0  0  0  0  0
   38.9250   25.2640   43.0310 H   0  0  0  0  0  0  0  0  0  0  0  0
  1 18  1  0  0  0  0
  2  1  1  0  0  0  0
  2  6  1  0  0  0  0
  2  3  1  0  0  0  0
  4  2  1  0  0  0  0
  5 15  1  0  0  0  0
  6  7  1  0  0  0  0
  6  5  2  0  0  0  0
  7  9  2  0  0  0  0
  8  7  1  0  0  0  0
  9 10  1  0  0  0  0
  9 14  1  0  0  0  0
 10 11  1  0  0  0  0
 11 12  1  0  0  0  0
 11 13  2  0  0  0  0
 14 13  1  0  0  0  0
 15 14  2  0  0  0  0
 16 10  1  0  0  0  0
 18 17  2  6  0  0  0
 18 21  1  0  0  0  0
 18 19  1  0  0  0  0
 19 20  1  0  0  0  0
 21 26  1  0  0  0  0
 22 23  1  0  0  0  0
 22 28  1  0  0  0  0
 23 29  1  0  0  0  0
 24 30  1  0  0  0  0
 24 23  2  0  0  0  0
 25 24  1  0  0  0  0
 26 25  2  0  0  0  0
 26 27  1  0  0  0  0
 27 22  2  0  0  0  0
M  END
>  <minimizedAffinity>
-5.59605551

$$$$

 OpenBabel03252505313D

 30 32  0  0  0  0  0  0  0  0999 V2000
   37.8650   30.1600   37.6950 O   0  0  0  0  0  0  0  0  0  0  0  0
   36.6990   30.0530   38.4130 C   0  0  0  0  0  0  0  0  0  0  0  0
   35.9350   29.6060   37.7130 H   0  0  0  0  0  0  0  0  0  0  0  0
   36.2710   31.0560   38.6850 H   0  0  0  0  0  0  0  0  0  0  0  0
   36.6840   27.8260   39.4590 C   0  0  0  0  0  3  0  0  0  0  0  0
   36.7700   29.2100   39.6100 C   0  0  0  0  0  0  0  0  0  0  0  0
   36.9180   29.6840   40.8960 C   0  0  0  0  0  0  0  0  0  0  0  0
   36.9850   30.7660   41.0220 H   0  0  0  0  0  0  0  0  0  0  0  0
   36.9870   28.9110   42.0360 C   0  0  0  0  0  0  0  0  0  0  0  0
   37.1280   29.1920   43.3430 N   0  0  0  0  0  0  0  0  0  0  0  0
   37.1320   28.0090   44.0190 C   0  0  0  0  0  0  0  0  0  0  0  0
   37.2300   27.8830   45.1000 H   0  0  0  0  0  0  0  0  0  0  0  0
   36.9930   27.0110   43.1050 N   0  0  0  0  0  0  0  0  0  0  0  0
   36.9010   27.5390   41.8680 C   0  0  0  0  0  0  0  0  0  0  0  0
   36.7520   27.0350   40.5880 C   0  0  0  0  0  3  0  0  0  0  0  0
   37.2190   30.1450   43.7820 H   0  0  0  0  0  0  0  0  0  0  0  0
   37.4670   32.5620   38.5800 O   0  0  0  0  0  0  0  0  0  0  0  0
   38.5760   31.6430   38.0670 P   0  0  2  0  0  0  0  0  0  0  0  0
   39.2510   32.2570   36.6470 O   0  0  0  0  0  0  0  0  0  0  0  0
   39.6160   31.5110   36.0940 H   0  0  0  0  0  0  0  0  0  0  0  0
   39.7400   31.5030   39.2820 O   0  0  0  0  0  0  0  0  0  0  0  0
   41.5660   34.5370   39.2190 C   0  0  0  0  0  0  0  0  0  0  0  0
   42.3970   34.4790   40.3770 C   0  0  0  0  0  0  0  0  0  0  0  0
   42.2750   33.3180   41.1700 C   0  0  0  0  0  0  0  0  0  0  0  0
   41.3810   32.3580   40.7680 N   0  0  0  0  0  0  0  0  0  0  0  0
   40.6350   32.4800   39.6710 C   0  0  0  0  0  0  0  0  0  0  0  0
   40.7220   33.5540   38.9020 N   0  0  0  0  0  0  0  0  0  0  0  0
   41.6640   35.4380   38.6070 H   0  0  0  0  0  0  0  0  0  0  0  0
   43.0780   35.2830   40.6220 H   0  0  0  0  0  0  0  0  0  0  0  0
   42.8830   33.2240   42.0590 H   0  0  0  0  0  0  0  0  0  0  0  0
  1 18  1  0  0  0  0
  1  2  1  0  0  0  0
  2  4  1  0  0  0  0
  2  6  1  0  0  0  0
  3  2  1  0  0  0  0
  5  6  2  0  0  0  0
  5 15  1  0  0  0  0
  6  7  1  0  0  0  0
  7  8  1  0  0  0  0
  7  9  2  0  0  0  0
  9 10  1  0  0  0  0
 10 16  1  0  0  0  0
 10 11  1  0  0  0  0
 11 12  1  0  0  0  0
 13 11  2  0  0  0  0
 14  9  1  0  0  0  0
 14 13  1  0  0  0  0
 15 14  2  0  0  0  0
 18 17  2  1  0  0  0
 18 21  1  0  0  0  0
 19 18  1  0  0  0  0
 20 19  1  0  0  0  0
 21 26  1  0  0  0  0
 22 23  1  0  0  0  0
 23 29  1  0  0  0  0
 23 24  2  0  0  0  0
 24 30  1  0  0  0  0
 25 24  1  0  0  0  0
 26 25  2  0  0  0  0
 27 22  2  0  0  0  0
 27 26  1  0  0  0  0
 28 22  1  0  0  0  0
M  END
>  <minimizedAffinity>
-5.40074492

$$$$

 OpenBabel03252505313D

 30 32  0  0  0  0  0  0  0  0999 V2000
   38.1490   30.2910   41.9010 O   0  0  0  0  0  0  0  0  0  0  0  0
   37.4100   29.4200   42.6650 C   0  0  0  0  0  0  0  0  0  0  0  0
   36.3360   29.5480   42.3420 H   0  0  0  0  0  0  0  0  0  0  0  0
   37.4070   29.7030   43.7520 H   0  0  0  0  0  0  0  0  0  0  0  0
   38.8870   27.5270   43.2030 C   0  0  0  0  0  3  0  0  0  0  0  0
   37.7640   28.0040   42.5280 C   0  0  0  0  0  0  0  0  0  0  0  0
   37.0630   27.0910   41.7700 C   0  0  0  0  0  0  0  0  0  0  0  0
   36.1840   27.4570   41.2380 H   0  0  0  0  0  0  0  0  0  0  0  0
   37.3770   25.7550   41.6260 C   0  0  0  0  0  0  0  0  0  0  0  0
   36.8220   24.7380   40.9450 N   0  0  0  0  0  0  0  0  0  0  0  0
   37.5750   23.6280   41.1800 C   0  0  0  0  0  0  0  0  0  0  0  0
   37.3960   22.6290   40.7750 H   0  0  0  0  0  0  0  0  0  0  0  0
   38.5910   23.9860   42.0100 N   0  0  0  0  0  0  0  0  0  0  0  0
   38.4940   25.2980   42.3040 C   0  0  0  0  0  0  0  0  0  0  0  0
   39.2170   26.1940   43.0720 C   0  0  0  0  0  3  0  0  0  0  0  0
   35.9630   24.7740   40.3360 H   0  0  0  0  0  0  0  0  0  0  0  0
   37.6240   32.3550   40.4250 O   0  0  0  0  0  0  0  0  0  0  0  0
   37.1360   30.9360   40.7160 P   0  0  2  0  0  0  0  0  0  0  0  0
   35.5680   30.9590   41.3400 O   0  0  0  0  0  0  0  0  0  0  0  0
   35.4210   30.1600   41.9200 H   0  0  0  0  0  0  0  0  0  0  0  0
   37.2040   30.0560   39.2750 O   0  0  0  0  0  0  0  0  0  0  0  0
   35.2600   29.1710   36.4500 C   0  0  0  0  0  0  0  0  0  0  0  0
   34.0110   28.7490   36.9920 C   0  0  0  0  0  0  0  0  0  0  0  0
   33.8980   28.7960   38.3980 C   0  0  0  0  0  0  0  0  0  0  0  0
   34.9830   29.2360   39.1150 N   0  0  0  0  0  0  0  0  0  0  0  0
   36.1230   29.6160   38.5380 C   0  0  0  0  0  0  0  0  0  0  0  0
   36.2660   29.5860   37.2220 N   0  0  0  0  0  0  0  0  0  0  0  0
   35.3440   29.1340   35.3600 H   0  0  0  0  0  0  0  0  0  0  0  0
   33.2040   28.4150   36.3540 H   0  0  0  0  0  0  0  0  0  0  0  0
   32.9710   28.4860   38.8610 H   0  0  0  0  0  0  0  0  0  0  0  0
  1  2  1  0  0  0  0
  2  4  1  0  0  0  0
  3  2  1  0  0  0  0
  6  2  1  0  0  0  0
  6  5  2  0  0  0  0
  7  6  1  0  0  0  0
  8  7  1  0  0  0  0
  9  7  2  0  0  0  0
  9 14  1  0  0  0  0
 10 11  1  0  0  0  0
 10  9  1  0  0  0  0
 11 13  2  0  0  0  0
 12 11  1  0  0  0  0
 13 14  1  0  0  0  0
 14 15  2  0  0  0  0
 15  5  1  0  0  0  0
 16 10  1  0  0  0  0
 18 17  2  6  0  0  0
 18 19  1  0  0  0  0
 18  1  1  0  0  0  0
 19 20  1  0  0  0  0
 21 18  1  0  0  0  0
 22 23  2  0  0  0  0
 22 27  1  0  0  0  0
 23 24  1  0  0  0  0
 24 30  1  0  0  0  0
 24 25  2  0  0  0  0
 26 25  1  0  0  0  0
 26 21  1  0  0  0  0
 27 26  2  0  0  0  0
 28 22  1  0  0  0  0
 29 23  1  0  0  0  0
M  END
>  <minimizedAffinity>
-5.3237834

$$$$

 OpenBabel03252505313D

 30 32  0  0  0  0  0  0  0  0999 V2000
   38.3860   30.6260   41.5950 O   0  0  0  0  0  0  0  0  0  0  0  0
   38.2370   31.0820   40.3070 C   0  0  0  0  0  0  0  0  0  0  0  0
   37.2120   31.5500   40.2530 H   0  0  0  0  0  0  0  0  0  0  0  0
   38.1990   30.2450   39.5590 H   0  0  0  0  0  0  0  0  0  0  0  0
   39.4270   33.2040   40.6760 C   0  0  0  0  0  3  0  0  0  0  0  0
   39.2190   32.0820   39.8750 C   0  0  0  0  0  0  0  0  0  0  0  0
   39.9660   31.9990   38.7200 C   0  0  0  0  0  0  0  0  0  0  0  0
   39.8080   31.1240   38.0870 H   0  0  0  0  0  0  0  0  0  0  0  0
   40.8940   32.9260   38.2930 C   0  0  0  0  0  0  0  0  0  0  0  0
   41.6980   33.0100   37.2190 N   0  0  0  0  0  0  0  0  0  0  0  0
   42.4100   34.1670   37.3300 C   0  0  0  0  0  0  0  0  0  0  0  0
   43.1550   34.5360   36.6210 H   0  0  0  0  0  0  0  0  0  0  0  0
   42.0260   34.7790   38.4820 N   0  0  0  0  0  0  0  0  0  0  0  0
   41.0880   34.0340   39.1010 C   0  0  0  0  0  0  0  0  0  0  0  0
   40.3510   34.1430   40.2670 C   0  0  0  0  0  3  0  0  0  0  0  0
   41.7770   32.3200   36.4290 H   0  0  0  0  0  0  0  0  0  0  0  0
   36.0150   29.7240   41.0660 O   0  0  0  0  0  0  0  0  0  0  0  0
   37.2880   29.3690   41.8350 P   0  0  2  0  0  0  0  0  0  0  0  0
   36.9760   29.2710   43.4910 O   0  0  0  0  0  0  0  0  0  0  0  0
   37.8050   29.4840   44.0060 H   0  0  0  0  0  0  0  0  0  0  0  0
   37.8640   27.8980   41.2370 O   0  0  0  0  0  0  0  0  0  0  0  0
   39.1730   24.7250   42.1120 C   0  0  0  0  0  0  0  0  0  0  0  0
   39.8670   24.9490   43.3370 C   0  0  0  0  0  0  0  0  0  0  0  0
   39.8450   26.2710   43.8290 C   0  0  0  0  0  0  0  0  0  0  0  0
   39.1680   27.2170   43.0990 N   0  0  0  0  0  0  0  0  0  0  0  0
   38.5400   26.9340   41.9580 C   0  0  0  0  0  0  0  0  0  0  0  0
   38.5390   25.7050   41.4650 N   0  0  0  0  0  0  0  0  0  0  0  0
   39.1920   23.6990   41.7340 H   0  0  0  0  0  0  0  0  0  0  0  0
   40.3770   24.1450   43.8510 H   0  0  0  0  0  0  0  0  0  0  0  0
   40.3560   26.4960   44.7550 H   0  0  0  0  0  0  0  0  0  0  0  0
  1 18  1  0  0  0  0
  2  1  1  0  0  0  0
  3  2  1  0  0  0  0
  4  2  1  0  0  0  0
  6  2  1  0  0  0  0
  6  5  2  0  0  0  0
  7  6  1  0  0  0  0
  8  7  1  0  0  0  0
  9  7  2  0  0  0  0
  9 14  1  0  0  0  0
 10 11  1  0  0  0  0
 10  9  1  0  0  0  0
 11 13  2  0  0  0  0
 12 11  1  0  0  0  0
 13 14  1  0  0  0  0
 14 15  2  0  0  0  0
 15  5  1  0  0  0  0
 16 10  1  0  0  0  0
 18 17  2  6  0  0  0
 18 19  1  0  0  0  0
 19 20  1  0  0  0  0
 21 18  1  0  0  0  0
 21 26  1  0  0  0  0
 22 23  1  0  0  0  0
 23 24  2  0  0  0  0
 23 29  1  0  0  0  0
 24 30  1  0  0  0  0
 25 24  1  0  0  0  0
 26 25  2  0  0  0  0
 27 26  1  0  0  0  0
 27 22  2  0  0  0  0
 28 22  1  0  0  0  0
M  END
>  <minimizedAffinity>
-5.24666166

$$$$

 OpenBabel03252505313D

 30 32  0  0  0  0  0  0  0  0999 V2000
   36.5230   28.6420   40.5690 O   0  0  0  0  0  0  0  0  0  0  0  0
   36.6880   27.8060   41.6470 C   0  0  0  0  0  0  0  0  0  0  0  0
   35.7170   27.8330   42.2210 H   0  0  0  0  0  0  0  0  0  0  0  0
   37.4500   28.1940   42.3760 H   0  0  0  0  0  0  0  0  0  0  0  0
   37.2000   25.5090   42.3650 C   0  0  0  0  0  3  0  0  0  0  0  0
   36.9890   26.4090   41.3210 C   0  0  0  0  0  0  0  0  0  0  0  0
   37.0810   25.9050   40.0410 C   0  0  0  0  0  0  0  0  0  0  0  0
   36.9180   26.6030   39.2190 H   0  0  0  0  0  0  0  0  0  0  0  0
   37.3630   24.5950   39.7110 C   0  0  0  0  0  0  0  0  0  0  0  0
   37.4900   23.9380   38.5450 N   0  0  0  0  0  0  0  0  0  0  0  0
   37.7770   22.6380   38.8360 C   0  0  0  0  0  0  0  0  0  0  0  0
   37.9420   21.8360   38.1140 H   0  0  0  0  0  0  0  0  0  0  0  0
   37.8220   22.5190   40.1900 N   0  0  0  0  0  0  0  0  0  0  0  0
   37.5680   23.7150   40.7590 C   0  0  0  0  0  0  0  0  0  0  0  0
   37.4820   24.1950   42.0550 C   0  0  0  0  0  3  0  0  0  0  0  0
   37.3900   24.3370   37.5760 H   0  0  0  0  0  0  0  0  0  0  0  0
   37.8970   30.0130   42.2860 O   0  0  0  0  0  0  0  0  0  0  0  0
   37.0790   30.1740   41.0050 P   0  0  2  0  0  0  0  0  0  0  0  0
   35.7290   31.1490   41.2780 O   0  0  0  0  0  0  0  0  0  0  0  0
   34.9990   30.9070   40.6410 H   0  0  0  0  0  0  0  0  0  0  0  0
   38.0840   30.8440   39.8240 O   0  0  0  0  0  0  0  0  0  0  0  0
   40.4820   33.3980   39.3060 C   0  0  0  0  0  0  0  0  0  0  0  0
   39.9070   34.5570   39.9060 C   0  0  0  0  0  0  0  0  0  0  0  0
   38.6380   34.3830   40.4970 C   0  0  0  0  0  0  0  0  0  0  0  0
   38.0710   33.1340   40.4460 N   0  0  0  0  0  0  0  0  0  0  0  0
   38.6690   32.0940   39.8660 C   0  0  0  0  0  0  0  0  0  0  0  0
   39.8600   32.2180   39.3010 N   0  0  0  0  0  0  0  0  0  0  0  0
   41.4660   33.5360   38.8490 H   0  0  0  0  0  0  0  0  0  0  0  0
   40.4240   35.5080   39.9030 H   0  0  0  0  0  0  0  0  0  0  0  0
   38.1570   35.2300   40.9670 H   0  0  0  0  0  0  0  0  0  0  0  0
  1 18  1  0  0  0  0
  1  2  1  0  0  0  0
  2  3  1  0  0  0  0
  2  4  1  0  0  0  0
  6  2  1  0  0  0  0
  6  5  2  0  0  0  0
  7  6  1  0  0  0  0
  8  7  1  0  0  0  0
  9  7  2  0  0  0  0
  9 14  1  0  0  0  0
 10 11  1  0  0  0  0
 10  9  1  0  0  0  0
 11 13  2  0  0  0  0
 12 11  1  0  0  0  0
 13 14  1  0  0  0  0
 14 15  2  0  0  0  0
 15  5  1  0  0  0  0
 16 10  1  0  0  0  0
 18 19  1  0  0  0  0
 18 17  2  1  0  0  0
 20 19  1  0  0  0  0
 21 26  1  0  0  0  0
 21 18  1  0  0  0  0
 22 23  1  0  0  0  0
 23 24  2  0  0  0  0
 24 30  1  0  0  0  0
 25 24  1  0  0  0  0
 26 25  2  0  0  0  0
 27 22  2  0  0  0  0
 27 26  1  0  0  0  0
 28 22  1  0  0  0  0
 29 23  1  0  0  0  0
M  END
>  <minimizedAffinity>
-5.22739172

$$$$

 OpenBabel03252505313D

 30 32  0  0  0  0  0  0  0  0999 V2000
   38.1690   27.1360   42.5750 O   0  0  0  0  0  0  0  0  0  0  0  0
   37.0250   26.3940   42.4090 C   0  0  0  0  0  0  0  0  0  0  0  0
   36.2250   27.1160   42.0730 H   0  0  0  0  0  0  0  0  0  0  0  0
   36.6370   25.9840   43.3790 H   0  0  0  0  0  0  0  0  0  0  0  0
   36.6100   25.5410   40.1380 C   0  0  0  0  0  3  0  0  0  0  0  0
   37.1110   25.3150   41.4200 C   0  0  0  0  0  0  0  0  0  0  0  0
   37.6590   24.0730   41.6600 C   0  0  0  0  0  0  0  0  0  0  0  0
   38.0530   23.8890   42.6610 H   0  0  0  0  0  0  0  0  0  0  0  0
   37.7510   23.0440   40.7470 C   0  0  0  0  0  0  0  0  0  0  0  0
   38.2410   21.7930   40.8020 N   0  0  0  0  0  0  0  0  0  0  0  0
   38.0580   21.2270   39.5760 C   0  0  0  0  0  0  0  0  0  0  0  0
   38.3450   20.2140   39.2840 H   0  0  0  0  0  0  0  0  0  0  0  0
   37.4510   22.1490   38.7820 N   0  0  0  0  0  0  0  0  0  0  0  0
   37.2490   23.2850   39.4790 C   0  0  0  0  0  0  0  0  0  0  0  0
   36.6930   24.5240   39.2100 C   0  0  0  0  0  3  0  0  0  0  0  0
   38.6880   21.3220   41.6300 H   0  0  0  0  0  0  0  0  0  0  0  0
   39.0070   29.5810   42.7540 O   0  0  0  0  0  0  0  0  0  0  0  0
   37.7230   28.7520   42.7610 P   0  0  2  0  0  0  0  0  0  0  0  0
   36.9270   28.8960   44.2420 O   0  0  0  0  0  0  0  0  0  0  0  0
   36.3880   28.0740   44.4200 H   0  0  0  0  0  0  0  0  0  0  0  0
   36.7470   29.2920   41.4920 O   0  0  0  0  0  0  0  0  0  0  0  0
   38.1300   30.5870   38.5000 C   0  0  0  0  0  0  0  0  0  0  0  0
   37.8470   31.9840   38.5500 C   0  0  0  0  0  0  0  0  0  0  0  0
   37.1470   32.4340   39.6890 C   0  0  0  0  0  0  0  0  0  0  0  0
   36.8020   31.5060   40.6390 N   0  0  0  0  0  0  0  0  0  0  0  0
   37.1020   30.2120   40.5260 C   0  0  0  0  0  0  0  0  0  0  0  0
   37.7580   29.7520   39.4710 N   0  0  0  0  0  0  0  0  0  0  0  0
   38.6740   30.2420   37.6160 H   0  0  0  0  0  0  0  0  0  0  0  0
   38.1550   32.6500   37.7550 H   0  0  0  0  0  0  0  0  0  0  0  0
   36.9060   33.4850   39.7770 H   0  0  0  0  0  0  0  0  0  0  0  0
  1 18  1  0  0  0  0
  2  1  1  0  0  0  0
  2  4  1  0  0  0  0
  3  2  1  0  0  0  0
  5  6  1  0  0  0  0
  6  7  2  0  0  0  0
  6  2  1  0  0  0  0
  7  8  1  0  0  0  0
  9 10  1  0  0  0  0
  9  7  1  0  0  0  0
 10 16  1  0  0  0  0
 11 10  1  0  0  0  0
 12 11  1  0  0  0  0
 13 14  1  0  0  0  0
 13 11  2  0  0  0  0
 14  9  2  0  0  0  0
 15 14  1  0  0  0  0
 15  5  2  0  0  0  0
 18 17  2  1  0  0  0
 18 19  1  0  0  0  0
 19 20  1  0  0  0  0
 21 18  1  0  0  0  0
 22 23  2  0  0  0  0
 22 27  1  0  0  0  0
 23 24  1  0  0  0  0
 24 30  1  0  0  0  0
 24 25  2  0  0  0  0
 26 25  1  0  0  0  0
 26 21  1  0  0  0  0
 27 26  2  0  0  0  0
 28 22  1  0  0  0  0
 29 23  1  0  0  0  0
M  END
>  <minimizedAffinity>
-5.20459461

$$$$

 OpenBabel03252505313D

 30 32  0  0  0  0  0  0  0  0999 V2000
   36.5840   31.1570   39.4840 O   0  0  0  0  0  0  0  0  0  0  0  0
   36.5920   31.1310   40.8580 C   0  0  0  0  0  0  0  0  0  0  0  0
   35.5200   31.2670   41.1830 H   0  0  0  0  0  0  0  0  0  0  0  0
   37.1290   32.0140   41.2990 H   0  0  0  0  0  0  0  0  0  0  0  0
   36.2740   28.7740   41.4860 C   0  0  0  0  0  3  0  0  0  0  0  0
   37.1010   29.8960   41.4620 C   0  0  0  0  0  0  0  0  0  0  0  0
   38.3550   29.7540   42.0180 C   0  0  0  0  0  0  0  0  0  0  0  0
   39.0070   30.6280   42.0030 H   0  0  0  0  0  0  0  0  0  0  0  0
   38.8540   28.6030   42.5910 C   0  0  0  0  0  0  0  0  0  0  0  0
   40.0260   28.2860   43.1690 N   0  0  0  0  0  0  0  0  0  0  0  0
   39.9520   26.9820   43.5580 C   0  0  0  0  0  0  0  0  0  0  0  0
   40.7370   26.4120   44.0600 H   0  0  0  0  0  0  0  0  0  0  0  0
   38.7230   26.5160   43.2080 N   0  0  0  0  0  0  0  0  0  0  0  0
   38.0200   27.4980   42.6060 C   0  0  0  0  0  0  0  0  0  0  0  0
   36.7560   27.6130   42.0550 C   0  0  0  0  0  3  0  0  0  0  0  0
   40.8590   28.9160   43.3060 H   0  0  0  0  0  0  0  0  0  0  0  0
   36.9540   33.7200   39.3940 O   0  0  0  0  0  0  0  0  0  0  0  0
   37.6050   32.4010   38.9780 P   0  0  2  0  0  0  0  0  0  0  0  0
   37.7360   32.3040   37.2980 O   0  0  0  0  0  0  0  0  0  0  0  0
   37.7260   31.3480   37.0110 H   0  0  0  0  0  0  0  0  0  0  0  0
   39.1240   32.3150   39.7120 O   0  0  0  0  0  0  0  0  0  0  0  0
   42.0560   34.2990   39.7880 C   0  0  0  0  0  0  0  0  0  0  0  0
   42.5940   34.1950   38.4710 C   0  0  0  0  0  0  0  0  0  0  0  0
   41.8670   33.3920   37.5670 C   0  0  0  0  0  0  0  0  0  0  0  0
   40.7220   32.7870   38.0220 N   0  0  0  0  0  0  0  0  0  0  0  0
   40.2780   32.9300   39.2710 C   0  0  0  0  0  0  0  0  0  0  0  0
   40.9330   33.6760   40.1480 N   0  0  0  0  0  0  0  0  0  0  0  0
   42.6220   34.9230   40.4850 H   0  0  0  0  0  0  0  0  0  0  0  0
   43.5060   34.7060   38.1920 H   0  0  0  0  0  0  0  0  0  0  0  0
   42.2310   33.2790   36.5550 H   0  0  0  0  0  0  0  0  0  0  0  0
  1  2  1  0  0  0  0
  2  3  1  0  0  0  0
  2  4  1  0  0  0  0
  2  6  1  0  0  0  0
  5 15  1  0  0  0  0
  6  5  2  0  0  0  0
  6  7  1  0  0  0  0
  7  9  2  0  0  0  0
  8  7  1  0  0  0  0
  9 14  1  0  0  0  0
  9 10  1  0  0  0  0
 10 16  1  0  0  0  0
 10 11  1  0  0  0  0
 11 12  1  0  0  0  0
 13 11  2  0  0  0  0
 14 13  1  0  0  0  0
 15 14  2  0  0  0  0
 18 17  2  1  0  0  0
 18  1  1  0  0  0  0
 18 21  1  0  0  0  0
 19 18  1  0  0  0  0
 20 19  1  0  0  0  0
 22 27  1  0  0  0  0
 22 28  1  0  0  0  0
 23 22  2  0  0  0  0
 24 25  2  0  0  0  0
 24 23  1  0  0  0  0
 25 26  1  0  0  0  0
 26 21  1  0  0  0  0
 26 27  2  0  0  0  0
 29 23  1  0  0  0  0
 30 24  1  0  0  0  0
M  END
>  <minimizedAffinity>
-5.16150284

$$$$

 OpenBabel03252505313D

 30 32  0  0  0  0  0  0  0  0999 V2000
   37.5140   30.1220   37.6410 O   0  0  0  0  0  0  0  0  0  0  0  0
   36.4400   30.0730   38.4960 C   0  0  0  0  0  0  0  0  0  0  0  0
   35.5740   29.6710   37.8940 H   0  0  0  0  0  0  0  0  0  0  0  0
   36.1020   31.0950   38.8170 H   0  0  0  0  0  0  0  0  0  0  0  0
   36.7240   27.8430   39.4950 C   0  0  0  0  0  3  0  0  0  0  0  0
   36.6110   29.2210   39.6760 C   0  0  0  0  0  0  0  0  0  0  0  0
   36.6710   29.6810   40.9740 C   0  0  0  0  0  0  0  0  0  0  0  0
   36.5830   30.7580   41.1240 H   0  0  0  0  0  0  0  0  0  0  0  0
   36.8310   28.8990   42.0990 C   0  0  0  0  0  0  0  0  0  0  0  0
   36.9100   29.1660   43.4140 N   0  0  0  0  0  0  0  0  0  0  0  0
   37.0720   27.9800   44.0650 C   0  0  0  0  0  0  0  0  0  0  0  0
   37.1690   27.8450   45.1440 H   0  0  0  0  0  0  0  0  0  0  0  0
   37.0890   26.9950   43.1280 N   0  0  0  0  0  0  0  0  0  0  0  0
   36.9430   27.5330   41.9010 C   0  0  0  0  0  0  0  0  0  0  0  0
   36.8860   27.0430   40.6070 C   0  0  0  0  0  3  0  0  0  0  0  0
   36.8590   30.1120   43.8740 H   0  0  0  0  0  0  0  0  0  0  0  0
   37.3380   32.4920   38.6730 O   0  0  0  0  0  0  0  0  0  0  0  0
   38.2710   31.6160   37.8360 P   0  0  2  0  0  0  0  0  0  0  0  0
   38.4970   32.2800   36.3010 O   0  0  0  0  0  0  0  0  0  0  0  0
   38.7020   31.5570   35.6440 H   0  0  0  0  0  0  0  0  0  0  0  0
   39.7390   31.4820   38.6610 O   0  0  0  0  0  0  0  0  0  0  0  0
   40.4040   28.9830   41.0810 C   0  0  0  0  0  0  0  0  0  0  0  0
   40.3210   29.6640   42.3310 C   0  0  0  0  0  0  0  0  0  0  0  0
   40.0210   31.0410   42.2680 C   0  0  0  0  0  0  0  0  0  0  0  0
   39.8360   31.6020   41.0290 N   0  0  0  0  0  0  0  0  0  0  0  0
   39.9290   30.9010   39.8990 C   0  0  0  0  0  0  0  0  0  0  0  0
   40.2090   29.6070   39.9180 N   0  0  0  0  0  0  0  0  0  0  0  0
   40.6370   27.9160   41.1330 H   0  0  0  0  0  0  0  0  0  0  0  0
   40.4810   29.1450   43.2670 H   0  0  0  0  0  0  0  0  0  0  0  0
   39.9460   31.6050   43.1880 H   0  0  0  0  0  0  0  0  0  0  0  0
  1 18  1  0  0  0  0
  1  2  1  0  0  0  0
  2  4  1  0  0  0  0
  2  6  1  0  0  0  0
  3  2  1  0  0  0  0
  5  6  2  0  0  0  0
  5 15  1  0  0  0  0
  6  7  1  0  0  0  0
  7  8  1  0  0  0  0
  7  9  2  0  0  0  0
  9 10  1  0  0  0  0
 10 16  1  0  0  0  0
 10 11  1  0  0  0  0
 11 12  1  0  0  0  0
 13 11  2  0  0  0  0
 14  9  1  0  0  0  0
 14 13  1  0  0  0  0
 15 14  2  0  0  0  0
 18 21  1  0  0  0  0
 18 17  2  1  0  0  0
 19 18  1  0  0  0  0
 20 19  1  0  0  0  0
 21 26  1  0  0  0  0
 22 28  1  0  0  0  0
 22 23  1  0  0  0  0
 23 29  1  0  0  0  0
 24 23  2  0  0  0  0
 24 30  1  0  0  0  0
 25 24  1  0  0  0  0
 26 27  1  0  0  0  0
 26 25  2  0  0  0  0
 27 22  2  0  0  0  0
M  END
>  <minimizedAffinity>
-5.12920523

$$$$

 OpenBabel03252505313D

 30 32  0  0  0  0  0  0  0  0999 V2000
   37.6520   28.4190   41.2210 O   0  0  0  0  0  0  0  0  0  0  0  0
   36.8370   29.5040   41.0020 C   0  0  0  0  0  0  0  0  0  0  0  0
   36.2100   29.6220   41.9320 H   0  0  0  0  0  0  0  0  0  0  0  0
   36.0890   29.3180   40.1850 H   0  0  0  0  0  0  0  0  0  0  0  0
   36.8260   31.8090   40.1430 C   0  0  0  0  0  3  0  0  0  0  0  0
   37.5300   30.7720   40.7530 C   0  0  0  0  0  0  0  0  0  0  0  0
   38.8450   31.0250   41.0790 C   0  0  0  0  0  0  0  0  0  0  0  0
   39.4030   30.2180   41.5560 H   0  0  0  0  0  0  0  0  0  0  0  0
   39.5160   32.2080   40.8550 C   0  0  0  0  0  0  0  0  0  0  0  0
   40.7700   32.6270   41.1010 N   0  0  0  0  0  0  0  0  0  0  0  0
   40.8680   33.9110   40.6560 C   0  0  0  0  0  0  0  0  0  0  0  0
   41.7570   34.5450   40.7050 H   0  0  0  0  0  0  0  0  0  0  0  0
   39.6610   34.2620   40.1400 N   0  0  0  0  0  0  0  0  0  0  0  0
   38.8020   33.2280   40.2490 C   0  0  0  0  0  0  0  0  0  0  0  0
   37.4800   33.0020   39.9100 C   0  0  0  0  0  3  0  0  0  0  0  0
   41.5470   32.0780   41.5520 H   0  0  0  0  0  0  0  0  0  0  0  0
   36.0980   27.2780   42.9520 O   0  0  0  0  0  0  0  0  0  0  0  0
   37.4690   27.9440   42.8290 P   0  0  2  0  0  0  0  0  0  0  0  0
   37.5470   29.3320   43.7850 O   0  0  0  0  0  0  0  0  0  0  0  0
   38.2010   29.9770   43.3950 H   0  0  0  0  0  0  0  0  0  0  0  0
   38.6380   26.8180   43.2960 O   0  0  0  0  0  0  0  0  0  0  0  0
   41.7340   28.5340   43.1720 C   0  0  0  0  0  0  0  0  0  0  0  0
   42.6630   27.6420   43.7860 C   0  0  0  0  0  0  0  0  0  0  0  0
   42.1360   26.4140   44.2400 C   0  0  0  0  0  0  0  0  0  0  0  0
   40.7950   26.1840   44.0560 N   0  0  0  0  0  0  0  0  0  0  0  0
   39.9840   27.0670   43.4720 C   0  0  0  0  0  0  0  0  0  0  0  0
   40.4430   28.2290   43.0330 N   0  0  0  0  0  0  0  0  0  0  0  0
   42.1460   29.4840   42.8210 H   0  0  0  0  0  0  0  0  0  0  0  0
   43.7080   27.9020   43.8920 H   0  0  0  0  0  0  0  0  0  0  0  0
   42.7970   25.7020   44.7130 H   0  0  0  0  0  0  0  0  0  0  0  0
  1 18  1  0  0  0  0
  2  1  1  0  0  0  0
  2  3  1  0  0  0  0
  4  2  1  0  0  0  0
  5  6  1  0  0  0  0
  6  2  1  0  0  0  0
  6  7  2  0  0  0  0
  7  8  1  0  0  0  0
  9  7  1  0  0  0  0
  9 10  1  0  0  0  0
 10 16  1  0  0  0  0
 11 12  1  0  0  0  0
 11 10  1  0  0  0  0
 13 14  1  0  0  0  0
 13 11  2  0  0  0  0
 14  9  2  0  0  0  0
 15  5  2  0  0  0  0
 15 14  1  0  0  0  0
 18 17  2  1  0  0  0
 18 21  1  0  0  0  0
 18 19  1  0  0  0  0
 20 19  1  0  0  0  0
 21 26  1  0  0  0  0
 22 23  1  0  0  0  0
 23 29  1  0  0  0  0
 23 24  2  0  0  0  0
 24 30  1  0  0  0  0
 25 24  1  0  0  0  0
 26 25  2  0  0  0  0
 27 22  2  0  0  0  0
 27 26  1  0  0  0  0
 28 22  1  0  0  0  0
M  END
>  <minimizedAffinity>
-5.11967564

$$$$
