REMARK  Name = 
REMARK  10 active torsions:
REMARK  status: ('A' for Active; 'I' for Inactive)
REMARK    1  A    between atoms: O_1  and  C_3
REMARK    2  A    between atoms: O_1  and  P_11
REMARK    3  A    between atoms: C_2  and  O_7
REMARK    4  A    between atoms: O_7  and  C_8
REMARK    5  A    between atoms: C_8  and  C_9
REMARK    6  A    between atoms: P_11  and  O_12
REMARK    7  A    between atoms: P_11  and  O_13
REMARK    8  A    between atoms: O_13  and  C_18
REMARK    9  A    between atoms: C_14  and  O_20
REMARK   10  A    between atoms: O_20  and  C_36
REMARK                            x       y       z     vdW  Elec       q    Type
REMARK                         _______ _______ _______ _____ _____    ______ ____
ROOT
ATOM      1  O   UNL     1      47.165  32.996  46.944  0.00  0.00    +0.000 OA
ATOM      2  P   UNL     1      45.727  32.670  46.747  0.00  0.00    +0.000 P 
ENDROOT
BRANCH   2   3
ATOM      3  O   UNL     1      45.585  31.469  45.561  0.00  0.00    +0.000 OA
ATOM      4  H   UNL     1      46.219  31.627  44.812  0.00  0.00    +0.000 HD
ENDBRANCH   2   3
BRANCH   2   5
ATOM      5  O   UNL     1      45.154  32.104  48.186  0.00  0.00    +0.000 OA
BRANCH   5   7
ATOM      6  C   UNL     1      46.984  30.571  48.206  0.00  0.00    +0.000 C 
ATOM      7  C   UNL     1      45.529  30.797  48.368  0.00  0.00    +0.000 C 
ATOM      8  C   UNL     1      44.872  29.881  47.460  0.00  0.00    +0.000 C 
ATOM      9  O   UNL     1      45.747  28.822  47.177  0.00  0.00    +0.000 OA
ATOM     10  C   UNL     1      46.837  29.017  47.956  0.00  0.00    +0.000 C 
ATOM     11  H   UNL     1      47.438  30.768  47.221  0.00  0.00    +0.000 HD
ATOM     12  H   UNL     1      45.376  30.640  49.474  0.00  0.00    +0.000 HD
ATOM     13  H   UNL     1      44.139  30.138  46.728  0.00  0.00    +0.000 HD
ATOM     14  H   UNL     1      44.172  29.291  48.155  0.00  0.00    +0.000 HD
ATOM     15  H   UNL     1      46.585  28.659  48.992  0.00  0.00    +0.000 HD
ATOM     16  H   UNL     1      47.786  28.592  47.640  0.00  0.00    +0.000 HD
BRANCH   6  17
ATOM     17  O   UNL     1      47.760  30.731  49.290  0.00  0.00    +0.000 OA
BRANCH  17  18
ATOM     18  C   UNL     1      49.011  31.095  49.293  0.00  0.00    +0.000 C 
ATOM     19  H   UNL     1      49.284  32.096  49.113  0.00  0.00    +0.000 HD
ATOM     20  H   UNL     1      49.490  30.613  48.276  0.00  0.00    +0.000 HD
BRANCH  18  21
ATOM     21  C   UNL     1      49.732  30.334  50.395  0.00  0.00    +0.000 C 
ATOM     22  H   UNL     1      49.223  29.389  50.624  0.00  0.00    +0.000 HD
ATOM     23  H   UNL     1      49.849  30.967  51.306  0.00  0.00    +0.000 HD
ATOM     24  H   UNL     1      50.767  30.110  50.059  0.00  0.00    +0.000 HD
ENDBRANCH  18  21
ENDBRANCH  17  18
ENDBRANCH   6  17
ENDBRANCH   5   7
ENDBRANCH   2   5
BRANCH   2  25
ATOM     25  O   UNL     1      44.977  34.123  46.262  0.00  0.00    +0.000 OA
BRANCH  25  30
ATOM     26  C   UNL     1      44.980  36.390  43.479  0.00  0.00    +0.000 A 
ATOM     27  C   UNL     1      45.033  35.544  42.347  0.00  0.00    +0.000 A 
ATOM     28  C   UNL     1      45.067  34.156  42.606  0.00  0.00    +0.000 A 
ATOM     29  N   UNL     1      45.048  33.727  43.883  0.00  0.00    +0.000 NA
ATOM     30  C   UNL     1      44.997  34.567  44.928  0.00  0.00    +0.000 A 
ATOM     31  N   UNL     1      44.964  35.887  44.712  0.00  0.00    +0.000 NA
ATOM     32  H   UNL     1      45.047  35.928  41.339  0.00  0.00    +0.000 HD
ATOM     33  H   UNL     1      45.107  33.506  41.755  0.00  0.00    +0.000 HD
BRANCH  26  34
ATOM     34  O   UNL     1      44.947  37.741  43.283  0.00  0.00    +0.000 OA
BRANCH  34  36
ATOM     35  C   UNL     1      45.454  39.925  44.181  0.00  0.00    +0.000 A 
ATOM     36  C   UNL     1      44.896  38.665  44.310  0.00  0.00    +0.000 A 
ATOM     37  C   UNL     1      44.245  38.206  45.448  0.00  0.00    +0.000 A 
ATOM     38  H   UNL     1      43.820  37.232  45.534  0.00  0.00    +0.000 HD
ATOM     39  C   UNL     1      44.152  39.077  46.527  0.00  0.00    +0.000 A 
ATOM     40  N   UNL     1      43.590  38.931  47.755  0.00  0.00    +0.000 N 
ATOM     41  C   UNL     1      43.788  40.095  48.410  0.00  0.00    +0.000 A 
ATOM     42  H   UNL     1      43.455  40.298  49.419  0.00  0.00    +0.000 HD
ATOM     43  N   UNL     1      44.453  40.953  47.624  0.00  0.00    +0.000 NA
ATOM     44  C   UNL     1      44.692  40.344  46.447  0.00  0.00    +0.000 A 
ATOM     45  C   UNL     1      45.337  40.766  45.287  0.00  0.00    +0.000 A 
ATOM     46  H   UNL     1      43.118  38.058  48.052  0.00  0.00    +0.000 HD
ENDBRANCH  34  36
ENDBRANCH  26  34
ENDBRANCH  25  30
ENDBRANCH   2  25
TORSDOF 10
