
 OpenBabel03242519473D

 41 44  0  0  1  0  0  0  0  0999 V2000
   46.6410   32.8930   46.7510 C   0  0  2  0  0  0  0  0  0  0  0  0
   47.0750   32.7730   45.3450 C   0  0  1  0  0  0  0  0  0  0  0  0
   46.6360   31.4300   44.9510 O   0  0  0  0  0  0  0  0  0  0  0  0
   47.2920   30.7560   46.0080 C   0  0  0  0  0  0  0  0  0  0  0  0
   46.6030   31.4450   47.2160 C   0  0  2  0  0  0  0  0  0  0  0  0
   47.2990   33.5040   47.3920 H   0  0  0  0  0  0  0  0  0  0  0  0
   48.1580   32.7190   45.1920 H   0  0  0  0  0  0  0  0  0  0  0  0
   47.2330   29.6960   45.9990 H   0  0  0  0  0  0  0  0  0  0  0  0
   48.3600   31.0920   45.9710 H   0  0  0  0  0  0  0  0  0  0  0  0
   47.2520   31.2160   48.0900 H   0  0  0  0  0  0  0  0  0  0  0  0
   44.7230   35.2260   44.0140 C   0  0  0  0  0  0  0  0  0  0  0  0
   45.3270   35.6680   42.8380 C   0  0  0  0  0  0  0  0  0  0  0  0
   46.5730   35.1160   42.4750 C   0  0  0  0  0  0  0  0  0  0  0  0
   47.1410   34.1660   43.2920 N   0  0  0  0  0  0  0  0  0  0  0  0
   46.5220   33.7670   44.4230 C   0  0  0  0  0  0  0  0  0  0  0  0
   45.3210   34.2830   44.7950 N   0  0  0  0  0  0  0  0  0  0  0  0
   44.8530   36.4070   42.2320 H   0  0  0  0  0  0  0  0  0  0  0  0
   47.0710   35.4350   41.5690 H   0  0  0  0  0  0  0  0  0  0  0  0
   43.4860   35.7350   44.4280 O   0  0  0  0  0  0  0  0  0  0  0  0
   42.8900   36.0650   43.6710 H   0  0  0  0  0  0  0  0  0  0  0  0
   45.2980   33.4040   46.7920 O   0  0  0  0  0  0  0  0  0  0  0  0
   45.0710   33.3870   47.7550 H   0  0  0  0  0  0  0  0  0  0  0  0
   45.3290   30.9690   47.2780 O   0  0  0  0  0  0  0  0  0  0  0  0
   45.0960   29.8970   48.1010 C   0  0  0  0  0  0  0  0  0  0  0  0
   45.3200   30.1340   49.1360 H   0  0  0  0  0  0  0  0  0  0  0  0
   43.9000   29.9130   48.1800 H   0  0  0  0  0  0  0  0  0  0  0  0
   45.4640   28.5660   47.5900 C   0  0  0  0  0  0  0  0  0  0  0  0
   46.2890   28.5600   46.8490 H   0  0  0  0  0  0  0  0  0  0  0  0
   45.6920   27.8910   48.4530 H   0  0  0  0  0  0  0  0  0  0  0  0
   43.7320   26.7240   46.9350 C   0  0  0  0  0  0  0  0  0  0  0  0
   44.3070   27.9700   46.8710 C   0  0  0  0  0  0  0  0  0  0  0  0
   43.6700   28.8080   45.9420 C   0  0  0  0  0  0  0  0  0  0  0  0
   44.0310   29.8210   45.7980 H   0  0  0  0  0  0  0  0  0  0  0  0
   42.5860   28.4670   45.1600 C   0  0  0  0  0  0  0  0  0  0  0  0
   41.8710   29.1340   44.2390 N   0  0  0  0  0  0  0  0  0  0  0  0
   40.9150   28.3100   43.7860 C   0  0  0  0  0  0  0  0  0  0  0  0
   40.1580   28.5200   43.0370 H   0  0  0  0  0  0  0  0  0  0  0  0
   41.0390   27.1160   44.4310 N   0  0  0  0  0  0  0  0  0  0  0  0
   42.0730   27.2040   45.2850 C   0  0  0  0  0  0  0  0  0  0  0  0
   42.6520   26.3310   46.1800 C   0  0  0  0  0  0  0  0  0  0  0  0
   42.0310   30.1080   43.9390 H   0  0  0  0  0  0  0  0  0  0  0  0
  1 21  1  0  0  0  0
  1  5  1  0  0  0  0
  1  6  1  1  0  0  0
  2  7  1  6  0  0  0
  2  1  1  0  0  0  0
  3  2  1  0  0  0  0
  3  4  1  0  0  0  0
  4  5  1  0  0  0  0
  5 23  1  0  0  0  0
  5 10  1  1  0  0  0
  8  4  1  0  0  0  0
  9  4  1  0  0  0  0
 11 19  1  0  0  0  0
 11 16  1  0  0  0  0
 12 11  2  0  0  0  0
 13 12  1  0  0  0  0
 13 14  2  0  0  0  0
 14 15  1  0  0  0  0
 15 16  2  0  0  0  0
 15  2  1  0  0  0  0
 17 12  1  0  0  0  0
 18 13  1  0  0  0  0
 20 19  1  0  0  0  0
 21 22  1  0  0  0  0
 23 24  1  0  0  0  0
 24 26  1  0  0  0  0
 24 25  1  0  0  0  0
 27 24  1  0  0  0  0
 27 29  1  0  0  0  0
 28 27  1  0  0  0  0
 31 30  1  0  0  0  0
 31 27  1  0  0  0  0
 32 31  2  0  0  0  0
 33 32  1  0  0  0  0
 34 39  2  0  0  0  0
 34 32  1  0  0  0  0
 35 34  1  0  0  0  0
 36 35  1  0  0  0  0
 36 38  2  0  0  0  0
 37 36  1  0  0  0  0
 38 39  1  0  0  0  0
 39 40  1  0  0  0  0
 40 30  2  0  0  0  0
 41 35  1  0  0  0  0
M  END
>  <minimizedAffinity>
-6.05632114

>  <minimizedRMSD>
0.68670249

$$$$
