
 OpenBabel03252509023D

 48 51  0  0  1  0  0  0  0  0999 V2000
   37.0150   26.6800   41.7180 N   0  0  0  0  0  0  0  0  0  0  0  0
   37.2630   25.3780   42.2240 C   0  0  0  0  0  0  0  0  0  0  0  0
   36.8170   24.2420   41.3410 C   0  0  0  0  0  0  0  0  0  0  0  0
   36.8960   24.5290   39.8650 C   0  0  0  0  0  0  0  0  0  0  0  0
   37.5160   25.8790   39.5920 C   0  0  0  0  0  0  0  0  0  0  0  0
   36.6020   26.8650   40.4070 C   0  0  2  0  0  0  0  0  0  0  0  0
   36.8960   25.1740   43.2320 H   0  0  0  0  0  0  0  0  0  0  0  0
   38.3880   25.2810   42.2900 H   0  0  0  0  0  0  0  0  0  0  0  0
   37.4420   23.3410   41.6050 H   0  0  0  0  0  0  0  0  0  0  0  0
   35.7700   23.9690   41.6160 H   0  0  0  0  0  0  0  0  0  0  0  0
   37.5380   23.7710   39.3680 H   0  0  0  0  0  0  0  0  0  0  0  0
   35.8980   24.5070   39.4090 H   0  0  0  0  0  0  0  0  0  0  0  0
   37.3970   26.1350   38.5350 H   0  0  0  0  0  0  0  0  0  0  0  0
   38.5320   25.9760   39.9780 H   0  0  0  0  0  0  0  0  0  0  0  0
   35.5470   26.6080   40.1470 H   0  0  0  0  0  0  0  0  0  0  0  0
   36.6070   27.6280   42.7120 C   0  0  0  0  0  0  0  0  0  0  0  0
   35.7220   27.2210   43.2630 H   0  0  0  0  0  0  0  0  0  0  0  0
   36.3070   28.5650   42.2380 H   0  0  0  0  0  0  0  0  0  0  0  0
   37.7030   27.7690   43.7250 C   0  0  0  0  0  0  0  0  0  0  0  0
   38.1320   26.7740   43.9760 H   0  0  0  0  0  0  0  0  0  0  0  0
   37.3890   28.2320   44.6780 H   0  0  0  0  0  0  0  0  0  0  0  0
   39.6050   30.5700   42.0990 C   0  0  0  0  0  0  0  0  0  0  0  0
   38.5610   29.8150   42.6630 C   0  0  0  0  0  0  0  0  0  0  0  0
   38.8190   28.5510   43.1330 C   0  0  0  0  0  0  0  0  0  0  0  0
   40.0730   28.0940   43.0290 N   0  0  0  0  0  0  0  0  0  0  0  0
   41.0710   28.8130   42.4910 C   0  0  0  0  0  0  0  0  0  0  0  0
   40.8520   30.0510   42.0230 N   0  0  0  0  0  0  0  0  0  0  0  0
   39.4570   31.5680   41.7150 H   0  0  0  0  0  0  0  0  0  0  0  0
   37.5870   30.2420   42.7130 H   0  0  0  0  0  0  0  0  0  0  0  0
   42.0450   28.3370   42.4610 H   0  0  0  0  0  0  0  0  0  0  0  0
   37.0120   28.0950   39.9080 O   0  0  0  0  0  0  0  0  0  0  0  0
   34.6790   29.3290   40.1670 O   0  0  0  0  0  0  0  0  0  0  0  0
   35.7590   28.9490   39.1730 P   0  0  2  0  0  0  0  0  0  0  0  0
   35.0090   27.8490   38.0950 O   0  0  0  0  0  0  0  0  0  0  0  0
   35.3650   27.9920   37.1830 H   0  0  0  0  0  0  0  0  0  0  0  0
   36.3360   30.2370   38.2880 O   0  0  0  0  0  0  0  0  0  0  0  0
   38.5770   30.9650   38.1580 C   0  0  0  0  0  3  0  0  0  0  0  0
   37.2840   31.1490   38.6590 C   0  0  0  0  0  0  0  0  0  0  0  0
   37.0530   32.2290   39.4900 C   0  0  0  0  0  0  0  0  0  0  0  0
   36.0470   32.3790   39.8850 H   0  0  0  0  0  0  0  0  0  0  0  0
   38.1040   33.0970   39.8010 C   0  0  0  0  0  0  0  0  0  0  0  0
   38.1180   34.2090   40.5830 N   0  0  0  0  0  0  0  0  0  0  0  0
   39.3590   34.7390   40.6010 C   0  0  0  0  0  0  0  0  0  0  0  0
   39.6380   35.6290   41.1500 H   0  0  0  0  0  0  0  0  0  0  0  0
   40.1250   33.9450   39.8190 N   0  0  0  0  0  0  0  0  0  0  0  0
   39.3830   32.9270   39.3140 C   0  0  0  0  0  0  0  0  0  0  0  0
   39.6010   31.8450   38.4860 C   0  0  0  0  0  3  0  0  0  0  0  0
   37.2730   34.5650   41.0780 H   0  0  0  0  0  0  0  0  0  0  0  0
  1  2  1  0  0  0  0
  1 16  1  0  0  0  0
  2  8  1  0  0  0  0
  2  7  1  0  0  0  0
  3  9  1  0  0  0  0
  3 10  1  0  0  0  0
  3  2  1  0  0  0  0
  4  3  1  0  0  0  0
  5  4  1  0  0  0  0
  5 14  1  0  0  0  0
  5  6  1  0  0  0  0
  6 15  1  6  0  0  0
  6  1  1  0  0  0  0
 11  4  1  0  0  0  0
 12  4  1  0  0  0  0
 13  5  1  0  0  0  0
 16 17  1  0  0  0  0
 16 19  1  0  0  0  0
 18 16  1  0  0  0  0
 19 20  1  0  0  0  0
 19 21  1  0  0  0  0
 22 23  1  0  0  0  0
 23 29  1  0  0  0  0
 23 24  2  0  0  0  0
 24 19  1  0  0  0  0
 25 24  1  0  0  0  0
 26 25  2  0  0  0  0
 27 22  2  0  0  0  0
 27 26  1  0  0  0  0
 28 22  1  0  0  0  0
 30 26  1  0  0  0  0
 31  6  1  0  0  0  0
 33 31  1  0  0  0  0
 33 32  2  1  0  0  0
 34 33  1  0  0  0  0
 35 34  1  0  0  0  0
 36 38  1  0  0  0  0
 36 33  1  0  0  0  0
 37 47  2  0  0  0  0
 37 38  1  0  0  0  0
 38 39  2  0  0  0  0
 39 41  1  0  0  0  0
 39 40  1  0  0  0  0
 41 42  1  0  0  0  0
 42 43  1  0  0  0  0
 42 48  1  0  0  0  0
 43 44  1  0  0  0  0
 45 43  2  0  0  0  0
 46 41  2  0  0  0  0
 46 45  1  0  0  0  0
 47 46  1  0  0  0  0
M  END
>  <minimizedAffinity>
-6.09845114

$$$$

 OpenBabel03252509023D

 48 51  0  0  1  0  0  0  0  0999 V2000
   36.5660   25.9220   40.1700 N   0  0  0  0  0  0  0  0  0  0  0  0
   36.5320   24.7060   39.4410 C   0  0  0  0  0  0  0  0  0  0  0  0
   37.5710   23.6860   39.8320 C   0  0  0  0  0  0  0  0  0  0  0  0
   37.9520   23.7100   41.2880 C   0  0  0  0  0  0  0  0  0  0  0  0
   37.1160   24.6960   42.0680 C   0  0  0  0  0  0  0  0  0  0  0  0
   37.3540   26.0500   41.3040 C   0  0  2  0  0  0  0  0  0  0  0  0
   36.5520   24.7940   38.3530 H   0  0  0  0  0  0  0  0  0  0  0  0
   35.5370   24.2270   39.6850 H   0  0  0  0  0  0  0  0  0  0  0  0
   37.1760   22.6710   39.5400 H   0  0  0  0  0  0  0  0  0  0  0  0
   38.4780   23.8460   39.2020 H   0  0  0  0  0  0  0  0  0  0  0  0
   37.7770   22.7090   41.7380 H   0  0  0  0  0  0  0  0  0  0  0  0
   39.0090   23.9760   41.4100 H   0  0  0  0  0  0  0  0  0  0  0  0
   37.5310   24.8210   43.0730 H   0  0  0  0  0  0  0  0  0  0  0  0
   36.0470   24.4820   42.0350 H   0  0  0  0  0  0  0  0  0  0  0  0
   38.4570   26.1480   41.1690 H   0  0  0  0  0  0  0  0  0  0  0  0
   36.2990   27.0880   39.3790 C   0  0  0  0  0  0  0  0  0  0  0  0
   36.4210   27.9980   40.0200 H   0  0  0  0  0  0  0  0  0  0  0  0
   35.2700   27.0690   39.0140 H   0  0  0  0  0  0  0  0  0  0  0  0
   37.3380   27.1910   38.3040 C   0  0  0  0  0  0  0  0  0  0  0  0
   37.6250   26.1800   37.9400 H   0  0  0  0  0  0  0  0  0  0  0  0
   38.2720   27.6950   38.6150 H   0  0  0  0  0  0  0  0  0  0  0  0
   34.9030   29.0210   36.1070 C   0  0  0  0  0  0  0  0  0  0  0  0
   35.4690   28.3540   37.2090 C   0  0  0  0  0  0  0  0  0  0  0  0
   36.7580   27.8920   37.1290 C   0  0  0  0  0  0  0  0  0  0  0  0
   37.4250   28.1040   35.9880 N   0  0  0  0  0  0  0  0  0  0  0  0
   36.8870   28.7400   34.9340 C   0  0  0  0  0  0  0  0  0  0  0  0
   35.6280   29.2030   34.9800 N   0  0  0  0  0  0  0  0  0  0  0  0
   33.8940   29.4040   36.1170 H   0  0  0  0  0  0  0  0  0  0  0  0
   34.8800   28.2210   38.0860 H   0  0  0  0  0  0  0  0  0  0  0  0
   37.5230   28.8510   34.0630 H   0  0  0  0  0  0  0  0  0  0  0  0
   36.8190   26.9680   42.2000 O   0  0  0  0  0  0  0  0  0  0  0  0
   38.9750   27.5170   43.6430 O   0  0  0  0  0  0  0  0  0  0  0  0
   37.9470   28.1150   42.7030 P   0  0  2  0  0  0  0  0  0  0  0  0
   37.0770   29.2470   43.6500 O   0  0  0  0  0  0  0  0  0  0  0  0
   36.8420   30.0270   43.0900 H   0  0  0  0  0  0  0  0  0  0  0  0
   38.6160   28.9210   41.4080 O   0  0  0  0  0  0  0  0  0  0  0  0
   37.2820   30.4450   40.1960 C   0  0  0  0  0  3  0  0  0  0  0  0
   38.3900   30.2110   41.0180 C   0  0  0  0  0  0  0  0  0  0  0  0
   39.1760   31.2900   41.3770 C   0  0  0  0  0  0  0  0  0  0  0  0
   40.0420   31.1150   42.0180 H   0  0  0  0  0  0  0  0  0  0  0  0
   38.8450   32.5680   40.9160 C   0  0  0  0  0  0  0  0  0  0  0  0
   39.4580   33.7620   41.1330 N   0  0  0  0  0  0  0  0  0  0  0  0
   38.7910   34.7410   40.4880 C   0  0  0  0  0  0  0  0  0  0  0  0
   39.0730   35.7860   40.4990 H   0  0  0  0  0  0  0  0  0  0  0  0
   37.7500   34.1470   39.8620 N   0  0  0  0  0  0  0  0  0  0  0  0
   37.7570   32.8120   40.1050 C   0  0  0  0  0  0  0  0  0  0  0  0
   36.9800   31.7270   39.7540 C   0  0  0  0  0  3  0  0  0  0  0  0
   40.3150   33.8620   41.7170 H   0  0  0  0  0  0  0  0  0  0  0  0
  1  6  1  0  0  0  0
  2  8  1  0  0  0  0
  2  3  1  0  0  0  0
  2  1  1  0  0  0  0
  3  4  1  0  0  0  0
  4 12  1  0  0  0  0
  4 11  1  0  0  0  0
  4  5  1  0  0  0  0
  5 13  1  0  0  0  0
  6 15  1  6  0  0  0
  6  5  1  0  0  0  0
  6 31  1  0  0  0  0
  7  2  1  0  0  0  0
  9  3  1  0  0  0  0
 10  3  1  0  0  0  0
 14  5  1  0  0  0  0
 16 17  1  0  0  0  0
 16  1  1  0  0  0  0
 18 16  1  0  0  0  0
 19 21  1  0  0  0  0
 19 16  1  0  0  0  0
 20 19  1  0  0  0  0
 22 28  1  0  0  0  0
 22 23  1  0  0  0  0
 23 29  1  0  0  0  0
 24 23  2  0  0  0  0
 24 19  1  0  0  0  0
 25 24  1  0  0  0  0
 26 27  1  0  0  0  0
 26 25  2  0  0  0  0
 27 22  2  0  0  0  0
 30 26  1  0  0  0  0
 31 33  1  0  0  0  0
 33 32  2  1  0  0  0
 33 34  1  0  0  0  0
 35 34  1  0  0  0  0
 36 33  1  0  0  0  0
 37 38  1  0  0  0  0
 38 39  2  0  0  0  0
 38 36  1  0  0  0  0
 39 40  1  0  0  0  0
 41 42  1  0  0  0  0
 41 39  1  0  0  0  0
 42 48  1  0  0  0  0
 43 44  1  0  0  0  0
 43 42  1  0  0  0  0
 45 46  1  0  0  0  0
 45 43  2  0  0  0  0
 46 41  2  0  0  0  0
 47 46  1  0  0  0  0
 47 37  2  0  0  0  0
M  END
>  <minimizedAffinity>
-5.99879789

$$$$

 OpenBabel03252509023D

 48 51  0  0  1  0  0  0  0  0999 V2000
   36.6600   26.1140   40.2180 N   0  0  0  0  0  0  0  0  0  0  0  0
   36.6290   24.8940   39.4940 C   0  0  0  0  0  0  0  0  0  0  0  0
   37.5740   23.8260   39.9800 C   0  0  0  0  0  0  0  0  0  0  0  0
   37.8250   23.8430   41.4650 C   0  0  0  0  0  0  0  0  0  0  0  0
   36.9760   24.8780   42.1630 C   0  0  0  0  0  0  0  0  0  0  0  0
   37.3500   26.2110   41.4170 C   0  0  2  0  0  0  0  0  0  0  0  0
   36.7490   24.9710   38.4120 H   0  0  0  0  0  0  0  0  0  0  0  0
   35.5920   24.4690   39.6510 H   0  0  0  0  0  0  0  0  0  0  0  0
   37.1540   22.8300   39.6590 H   0  0  0  0  0  0  0  0  0  0  0  0
   38.5400   23.9330   39.4330 H   0  0  0  0  0  0  0  0  0  0  0  0
   37.5590   22.8570   41.9020 H   0  0  0  0  0  0  0  0  0  0  0  0
   38.8800   24.0560   41.6790 H   0  0  0  0  0  0  0  0  0  0  0  0
   37.3060   24.9900   43.2010 H   0  0  0  0  0  0  0  0  0  0  0  0
   35.9040   24.7180   42.0360 H   0  0  0  0  0  0  0  0  0  0  0  0
   38.4650   26.2510   41.3810 H   0  0  0  0  0  0  0  0  0  0  0  0
   36.5260   27.2840   39.4020 C   0  0  0  0  0  0  0  0  0  0  0  0
   36.9270   28.1670   39.9620 H   0  0  0  0  0  0  0  0  0  0  0  0
   35.4720   27.4740   39.1850 H   0  0  0  0  0  0  0  0  0  0  0  0
   37.3910   27.1300   38.1880 C   0  0  0  0  0  0  0  0  0  0  0  0
   36.8620   27.5000   37.2820 H   0  0  0  0  0  0  0  0  0  0  0  0
   37.7000   26.0900   37.9750 H   0  0  0  0  0  0  0  0  0  0  0  0
   39.7200   30.0600   37.8780 C   0  0  0  0  0  0  0  0  0  0  0  0
   38.5890   29.2320   37.7520 C   0  0  0  0  0  0  0  0  0  0  0  0
   38.5940   27.9890   38.3330 C   0  0  0  0  0  0  0  0  0  0  0  0
   39.6940   27.6210   39.0020 N   0  0  0  0  0  0  0  0  0  0  0  0
   40.7740   28.4080   39.1240 C   0  0  0  0  0  0  0  0  0  0  0  0
   40.8010   29.6300   38.5680 N   0  0  0  0  0  0  0  0  0  0  0  0
   39.7680   31.0460   37.4420 H   0  0  0  0  0  0  0  0  0  0  0  0
   37.7490   29.5900   37.2040 H   0  0  0  0  0  0  0  0  0  0  0  0
   41.6050   28.0020   39.6890 H   0  0  0  0  0  0  0  0  0  0  0  0
   36.7870   27.1630   42.2580 O   0  0  0  0  0  0  0  0  0  0  0  0
   38.7590   27.1870   44.0310 O   0  0  0  0  0  0  0  0  0  0  0  0
   37.9460   28.0570   43.0930 P   0  0  2  0  0  0  0  0  0  0  0  0
   37.0740   29.1230   44.1130 O   0  0  0  0  0  0  0  0  0  0  0  0
   37.0050   30.0080   43.6760 H   0  0  0  0  0  0  0  0  0  0  0  0
   38.8750   28.9700   42.0550 O   0  0  0  0  0  0  0  0  0  0  0  0
   37.3440   30.3640   40.9220 C   0  0  0  0  0  3  0  0  0  0  0  0
   38.5890   30.2040   41.5410 C   0  0  0  0  0  0  0  0  0  0  0  0
   39.4390   31.2920   41.5890 C   0  0  0  0  0  0  0  0  0  0  0  0
   40.4120   31.1750   42.0700 H   0  0  0  0  0  0  0  0  0  0  0  0
   39.0360   32.5080   41.0280 C   0  0  0  0  0  0  0  0  0  0  0  0
   39.6910   33.6980   40.9560 N   0  0  0  0  0  0  0  0  0  0  0  0
   38.9190   34.6050   40.3210 C   0  0  0  0  0  0  0  0  0  0  0  0
   39.2070   35.6310   40.1340 H   0  0  0  0  0  0  0  0  0  0  0  0
   37.7710   33.9690   39.9950 N   0  0  0  0  0  0  0  0  0  0  0  0
   37.8130   32.6800   40.4150 C   0  0  0  0  0  0  0  0  0  0  0  0
   36.9730   31.5860   40.3730 C   0  0  0  0  0  3  0  0  0  0  0  0
   40.6460   33.8450   41.3450 H   0  0  0  0  0  0  0  0  0  0  0  0
  1  6  1  0  0  0  0
  2  8  1  0  0  0  0
  2  3  1  0  0  0  0
  2  1  1  0  0  0  0
  3  4  1  0  0  0  0
  4 12  1  0  0  0  0
  4 11  1  0  0  0  0
  4  5  1  0  0  0  0
  5 13  1  0  0  0  0
  6 15  1  6  0  0  0
  6  5  1  0  0  0  0
  6 31  1  0  0  0  0
  7  2  1  0  0  0  0
  9  3  1  0  0  0  0
 10  3  1  0  0  0  0
 14  5  1  0  0  0  0
 16 17  1  0  0  0  0
 16  1  1  0  0  0  0
 18 16  1  0  0  0  0
 19 24  1  0  0  0  0
 19 16  1  0  0  0  0
 20 19  1  0  0  0  0
 21 19  1  0  0  0  0
 22 27  1  0  0  0  0
 23 22  2  0  0  0  0
 23 24  1  0  0  0  0
 24 25  2  0  0  0  0
 25 26  1  0  0  0  0
 26 30  1  0  0  0  0
 27 26  2  0  0  0  0
 28 22  1  0  0  0  0
 29 23  1  0  0  0  0
 31 33  1  0  0  0  0
 33 32  2  1  0  0  0
 33 34  1  0  0  0  0
 35 34  1  0  0  0  0
 36 33  1  0  0  0  0
 37 38  1  0  0  0  0
 38 39  2  0  0  0  0
 38 36  1  0  0  0  0
 39 40  1  0  0  0  0
 41 39  1  0  0  0  0
 42 41  1  0  0  0  0
 42 48  1  0  0  0  0
 43 42  1  0  0  0  0
 44 43  1  0  0  0  0
 45 43  2  0  0  0  0
 45 46  1  0  0  0  0
 46 41  2  0  0  0  0
 47 46  1  0  0  0  0
 47 37  2  0  0  0  0
M  END
>  <minimizedAffinity>
-5.89294767

$$$$

 OpenBabel03252509023D

 48 51  0  0  1  0  0  0  0  0999 V2000
   37.8920   27.9120   42.6880 N   0  0  0  0  0  0  0  0  0  0  0  0
   39.0780   27.5750   43.3880 C   0  0  0  0  0  0  0  0  0  0  0  0
   40.3480   28.1790   42.8450 C   0  0  0  0  0  0  0  0  0  0  0  0
   40.1740   29.5380   42.2190 C   0  0  0  0  0  0  0  0  0  0  0  0
   38.7610   30.0470   42.3730 C   0  0  0  0  0  0  0  0  0  0  0  0
   37.8960   28.9050   41.7210 C   0  0  2  0  0  0  0  0  0  0  0  0
   39.2630   26.5100   43.5440 H   0  0  0  0  0  0  0  0  0  0  0  0
   38.9600   28.0110   44.4250 H   0  0  0  0  0  0  0  0  0  0  0  0
   41.0920   28.2230   43.6920 H   0  0  0  0  0  0  0  0  0  0  0  0
   40.7850   27.4740   42.1000 H   0  0  0  0  0  0  0  0  0  0  0  0
   40.8390   30.2710   42.7220 H   0  0  0  0  0  0  0  0  0  0  0  0
   40.4190   29.5080   41.1500 H   0  0  0  0  0  0  0  0  0  0  0  0
   38.6200   30.9420   41.7590 H   0  0  0  0  0  0  0  0  0  0  0  0
   38.4450   30.1470   43.4120 H   0  0  0  0  0  0  0  0  0  0  0  0
   38.3650   28.6780   40.7340 H   0  0  0  0  0  0  0  0  0  0  0  0
   36.9560   26.8340   42.5660 C   0  0  0  0  0  0  0  0  0  0  0  0
   36.3550   26.9770   41.6320 H   0  0  0  0  0  0  0  0  0  0  0  0
   36.2670   26.8350   43.4140 H   0  0  0  0  0  0  0  0  0  0  0  0
   37.7140   25.5530   42.3850 C   0  0  0  0  0  0  0  0  0  0  0  0
   37.4960   24.8490   43.2180 H   0  0  0  0  0  0  0  0  0  0  0  0
   38.8120   25.6720   42.3470 H   0  0  0  0  0  0  0  0  0  0  0  0
   37.0220   22.8700   39.8490 C   0  0  0  0  0  0  0  0  0  0  0  0
   37.4640   23.5290   41.0110 C   0  0  0  0  0  0  0  0  0  0  0  0
   37.2400   24.8750   41.1510 C   0  0  0  0  0  0  0  0  0  0  0  0
   36.6020   25.5050   40.1560 N   0  0  0  0  0  0  0  0  0  0  0  0
   36.1800   24.8790   39.0460 C   0  0  0  0  0  0  0  0  0  0  0  0
   36.3830   23.5630   38.8790 N   0  0  0  0  0  0  0  0  0  0  0  0
   37.1720   21.8130   39.6890 H   0  0  0  0  0  0  0  0  0  0  0  0
   37.9650   22.9640   41.7620 H   0  0  0  0  0  0  0  0  0  0  0  0
   35.6760   25.4940   38.3090 H   0  0  0  0  0  0  0  0  0  0  0  0
   36.6570   29.5260   41.6170 O   0  0  0  0  0  0  0  0  0  0  0  0
   34.6200   29.0810   39.9780 O   0  0  0  0  0  0  0  0  0  0  0  0
   36.0660   29.5330   40.0390 P   0  0  2  0  0  0  0  0  0  0  0  0
   36.9490   28.3290   39.1990 O   0  0  0  0  0  0  0  0  0  0  0  0
   37.6910   28.7560   38.7030 H   0  0  0  0  0  0  0  0  0  0  0  0
   36.3380   30.9980   39.2930 O   0  0  0  0  0  0  0  0  0  0  0  0
   38.5690   31.5090   38.7150 C   0  0  0  0  0  3  0  0  0  0  0  0
   37.4160   31.8250   39.4430 C   0  0  0  0  0  0  0  0  0  0  0  0
   37.4440   32.9400   40.2590 C   0  0  0  0  0  0  0  0  0  0  0  0
   36.5480   33.1920   40.8300 H   0  0  0  0  0  0  0  0  0  0  0  0
   38.6070   33.7120   40.3320 C   0  0  0  0  0  0  0  0  0  0  0  0
   38.8680   34.8360   41.0530 N   0  0  0  0  0  0  0  0  0  0  0  0
   40.1310   35.2470   40.8160 C   0  0  0  0  0  0  0  0  0  0  0  0
   40.5860   36.1190   41.2670 H   0  0  0  0  0  0  0  0  0  0  0  0
   40.6610   34.3670   39.9370 N   0  0  0  0  0  0  0  0  0  0  0  0
   39.7500   33.4130   39.6200 C   0  0  0  0  0  0  0  0  0  0  0  0
   39.7100   32.2970   38.8090 C   0  0  0  0  0  3  0  0  0  0  0  0
   38.1670   35.2800   41.6840 H   0  0  0  0  0  0  0  0  0  0  0  0
  1  2  1  0  0  0  0
  2  7  1  0  0  0  0
  2  8  1  0  0  0  0
  3  2  1  0  0  0  0
  3  9  1  0  0  0  0
  4  5  1  0  0  0  0
  4 11  1  0  0  0  0
  4  3  1  0  0  0  0
  5 14  1  0  0  0  0
  6 15  1  6  0  0  0
  6  5  1  0  0  0  0
  6  1  1  0  0  0  0
 10  3  1  0  0  0  0
 12  4  1  0  0  0  0
 13  5  1  0  0  0  0
 16  1  1  0  0  0  0
 16 18  1  0  0  0  0
 17 16  1  0  0  0  0
 19 16  1  0  0  0  0
 19 20  1  0  0  0  0
 21 19  1  0  0  0  0
 22 23  1  0  0  0  0
 23 24  2  0  0  0  0
 23 29  1  0  0  0  0
 24 19  1  0  0  0  0
 25 24  1  0  0  0  0
 26 25  2  0  0  0  0
 27 26  1  0  0  0  0
 27 22  2  0  0  0  0
 28 22  1  0  0  0  0
 30 26  1  0  0  0  0
 31  6  1  0  0  0  0
 33 32  2  6  0  0  0
 33 31  1  0  0  0  0
 34 33  1  0  0  0  0
 35 34  1  0  0  0  0
 36 38  1  0  0  0  0
 36 33  1  0  0  0  0
 37 47  2  0  0  0  0
 37 38  1  0  0  0  0
 38 39  2  0  0  0  0
 39 41  1  0  0  0  0
 39 40  1  0  0  0  0
 41 42  1  0  0  0  0
 42 48  1  0  0  0  0
 43 42  1  0  0  0  0
 43 44  1  0  0  0  0
 45 43  2  0  0  0  0
 46 45  1  0  0  0  0
 46 41  2  0  0  0  0
 47 46  1  0  0  0  0
M  END
>  <minimizedAffinity>
-5.87364483

$$$$

 OpenBabel03252509023D

 48 51  0  0  1  0  0  0  0  0999 V2000
   36.6660   26.2150   40.2390 N   0  0  0  0  0  0  0  0  0  0  0  0
   36.6040   25.0490   39.4330 C   0  0  0  0  0  0  0  0  0  0  0  0
   37.5110   23.9210   39.8530 C   0  0  0  0  0  0  0  0  0  0  0  0
   37.7460   23.8280   41.3370 C   0  0  0  0  0  0  0  0  0  0  0  0
   36.9220   24.8400   42.0970 C   0  0  0  0  0  0  0  0  0  0  0  0
   37.3450   26.2080   41.4480 C   0  0  2  0  0  0  0  0  0  0  0  0
   36.7380   25.1960   38.3600 H   0  0  0  0  0  0  0  0  0  0  0  0
   35.5530   24.6480   39.5510 H   0  0  0  0  0  0  0  0  0  0  0  0
   37.0630   22.9630   39.4600 H   0  0  0  0  0  0  0  0  0  0  0  0
   38.4860   24.0340   39.3230 H   0  0  0  0  0  0  0  0  0  0  0  0
   37.4450   22.8240   41.7040 H   0  0  0  0  0  0  0  0  0  0  0  0
   38.8050   23.9930   41.5750 H   0  0  0  0  0  0  0  0  0  0  0  0
   37.2440   24.8700   43.1430 H   0  0  0  0  0  0  0  0  0  0  0  0
   35.8470   24.7230   41.9500 H   0  0  0  0  0  0  0  0  0  0  0  0
   38.4610   26.2160   41.4240 H   0  0  0  0  0  0  0  0  0  0  0  0
   36.5760   27.4420   39.5040 C   0  0  0  0  0  0  0  0  0  0  0  0
   36.8860   28.2880   40.1690 H   0  0  0  0  0  0  0  0  0  0  0  0
   35.5450   27.6200   39.1910 H   0  0  0  0  0  0  0  0  0  0  0  0
   37.5680   27.4060   38.3810 C   0  0  0  0  0  0  0  0  0  0  0  0
   37.1050   26.9790   37.4640 H   0  0  0  0  0  0  0  0  0  0  0  0
   38.4750   26.8090   38.5890 H   0  0  0  0  0  0  0  0  0  0  0  0
   39.6540   30.4810   37.8340 C   0  0  0  0  0  0  0  0  0  0  0  0
   39.2690   29.1690   38.1650 C   0  0  0  0  0  0  0  0  0  0  0  0
   37.9560   28.7960   38.0270 C   0  0  0  0  0  0  0  0  0  0  0  0
   37.0930   29.7160   37.5760 N   0  0  0  0  0  0  0  0  0  0  0  0
   37.4580   30.9690   37.2600 C   0  0  0  0  0  0  0  0  0  0  0  0
   38.7340   31.3650   37.3840 N   0  0  0  0  0  0  0  0  0  0  0  0
   40.6730   30.8260   37.9240 H   0  0  0  0  0  0  0  0  0  0  0  0
   40.0090   28.4900   38.5180 H   0  0  0  0  0  0  0  0  0  0  0  0
   36.6710   31.6240   36.9060 H   0  0  0  0  0  0  0  0  0  0  0  0
   36.8020   27.1180   42.3470 O   0  0  0  0  0  0  0  0  0  0  0  0
   38.6230   27.0580   44.2750 O   0  0  0  0  0  0  0  0  0  0  0  0
   37.9810   27.9440   43.2250 P   0  0  2  0  0  0  0  0  0  0  0  0
   37.1500   29.1550   44.1060 O   0  0  0  0  0  0  0  0  0  0  0  0
   37.2080   30.0120   43.6160 H   0  0  0  0  0  0  0  0  0  0  0  0
   39.0790   28.6900   42.2180 O   0  0  0  0  0  0  0  0  0  0  0  0
   40.2300   30.7050   41.7910 C   0  0  0  0  0  3  0  0  0  0  0  0
   39.0410   29.9700   41.7410 C   0  0  0  0  0  0  0  0  0  0  0  0
   37.9170   30.5810   41.2200 C   0  0  0  0  0  0  0  0  0  0  0  0
   36.9850   30.0140   41.1780 H   0  0  0  0  0  0  0  0  0  0  0  0
   37.9980   31.9000   40.7620 C   0  0  0  0  0  0  0  0  0  0  0  0
   37.0410   32.6980   40.2160 N   0  0  0  0  0  0  0  0  0  0  0  0
   37.5680   33.9030   39.9180 C   0  0  0  0  0  0  0  0  0  0  0  0
   37.0160   34.7210   39.4730 H   0  0  0  0  0  0  0  0  0  0  0  0
   38.8690   33.8530   40.2830 N   0  0  0  0  0  0  0  0  0  0  0  0
   39.1640   32.6360   40.8050 C   0  0  0  0  0  0  0  0  0  0  0  0
   40.2790   32.0140   41.3270 C   0  0  0  0  0  3  0  0  0  0  0  0
   36.0580   32.3850   40.0690 H   0  0  0  0  0  0  0  0  0  0  0  0
  1  6  1  0  0  0  0
  2  8  1  0  0  0  0
  2  3  1  0  0  0  0
  2  1  1  0  0  0  0
  3  4  1  0  0  0  0
  4 12  1  0  0  0  0
  4 11  1  0  0  0  0
  4  5  1  0  0  0  0
  5 13  1  0  0  0  0
  6 15  1  6  0  0  0
  6  5  1  0  0  0  0
  6 31  1  0  0  0  0
  7  2  1  0  0  0  0
  9  3  1  0  0  0  0
 10  3  1  0  0  0  0
 14  5  1  0  0  0  0
 16 17  1  0  0  0  0
 16  1  1  0  0  0  0
 18 16  1  0  0  0  0
 19 21  1  0  0  0  0
 19 16  1  0  0  0  0
 20 19  1  0  0  0  0
 22 28  1  0  0  0  0
 22 23  1  0  0  0  0
 23 29  1  0  0  0  0
 24 23  2  0  0  0  0
 24 19  1  0  0  0  0
 25 24  1  0  0  0  0
 26 27  1  0  0  0  0
 26 25  2  0  0  0  0
 27 22  2  0  0  0  0
 30 26  1  0  0  0  0
 31 33  1  0  0  0  0
 33 34  1  0  0  0  0
 33 32  2  1  0  0  0
 35 34  1  0  0  0  0
 36 33  1  0  0  0  0
 38 37  1  0  0  0  0
 38 36  1  0  0  0  0
 39 38  2  0  0  0  0
 40 39  1  0  0  0  0
 41 46  2  0  0  0  0
 41 39  1  0  0  0  0
 42 41  1  0  0  0  0
 43 42  1  0  0  0  0
 43 45  2  0  0  0  0
 44 43  1  0  0  0  0
 45 46  1  0  0  0  0
 46 47  1  0  0  0  0
 47 37  2  0  0  0  0
 48 42  1  0  0  0  0
M  END
>  <minimizedAffinity>
-5.86668348

$$$$

 OpenBabel03252509023D

 48 51  0  0  1  0  0  0  0  0999 V2000
   40.5540   28.5810   42.3290 N   0  0  0  0  0  0  0  0  0  0  0  0
   41.9040   28.6590   42.7540 C   0  0  0  0  0  0  0  0  0  0  0  0
   42.2400   27.8810   44.0000 C   0  0  0  0  0  0  0  0  0  0  0  0
   41.4390   26.6180   44.1820 C   0  0  0  0  0  0  0  0  0  0  0  0
   40.5380   26.3530   42.9990 C   0  0  0  0  0  0  0  0  0  0  0  0
   39.6810   27.6680   42.9010 C   0  0  2  0  0  0  0  0  0  0  0  0
   42.3160   29.6630   42.8740 H   0  0  0  0  0  0  0  0  0  0  0  0
   42.5150   28.1820   41.9300 H   0  0  0  0  0  0  0  0  0  0  0  0
   43.3440   27.6520   43.9700 H   0  0  0  0  0  0  0  0  0  0  0  0
   42.0970   28.5470   44.8830 H   0  0  0  0  0  0  0  0  0  0  0  0
   42.1250   25.7480   44.2670 H   0  0  0  0  0  0  0  0  0  0  0  0
   40.8200   26.6750   45.0850 H   0  0  0  0  0  0  0  0  0  0  0  0
   39.8460   25.5380   43.2350 H   0  0  0  0  0  0  0  0  0  0  0  0
   41.0780   26.2410   42.0570 H   0  0  0  0  0  0  0  0  0  0  0  0
   39.3010   27.8760   43.9300 H   0  0  0  0  0  0  0  0  0  0  0  0
   40.0280   29.8110   41.8150 C   0  0  0  0  0  0  0  0  0  0  0  0
   40.5750   30.6660   42.2870 H   0  0  0  0  0  0  0  0  0  0  0  0
   38.9700   29.9050   42.0710 H   0  0  0  0  0  0  0  0  0  0  0  0
   40.3200   29.8860   40.3470 C   0  0  0  0  0  0  0  0  0  0  0  0
   39.4460   29.5340   39.7560 H   0  0  0  0  0  0  0  0  0  0  0  0
   41.1890   29.2850   40.0210 H   0  0  0  0  0  0  0  0  0  0  0  0
   40.9530   32.9430   38.2580 C   0  0  0  0  0  0  0  0  0  0  0  0
   40.7590   31.6030   38.6420 C   0  0  0  0  0  0  0  0  0  0  0  0
   40.5220   31.3070   39.9610 C   0  0  0  0  0  0  0  0  0  0  0  0
   40.4850   32.3250   40.8290 N   0  0  0  0  0  0  0  0  0  0  0  0
   40.6690   33.6040   40.4660 C   0  0  0  0  0  0  0  0  0  0  0  0
   40.9030   33.9270   39.1840 N   0  0  0  0  0  0  0  0  0  0  0  0
   41.1430   33.2310   37.2350 H   0  0  0  0  0  0  0  0  0  0  0  0
   40.8030   30.8440   37.8970 H   0  0  0  0  0  0  0  0  0  0  0  0
   40.6170   34.3420   41.2580 H   0  0  0  0  0  0  0  0  0  0  0  0
   38.6860   27.2810   42.0110 O   0  0  0  0  0  0  0  0  0  0  0  0
   37.1910   27.7760   44.1440 O   0  0  0  0  0  0  0  0  0  0  0  0
   37.1480   27.3220   42.6980 P   0  0  2  0  0  0  0  0  0  0  0  0
   36.6120   25.6960   42.7530 O   0  0  0  0  0  0  0  0  0  0  0  0
   36.0330   25.5170   41.9710 H   0  0  0  0  0  0  0  0  0  0  0  0
   36.0840   28.1920   41.7560 O   0  0  0  0  0  0  0  0  0  0  0  0
   36.4890   28.9190   39.5480 C   0  0  0  0  0  3  0  0  0  0  0  0
   36.3690   29.2250   40.9070 C   0  0  0  0  0  0  0  0  0  0  0  0
   36.5480   30.5380   41.2990 C   0  0  0  0  0  0  0  0  0  0  0  0
   36.4560   30.7840   42.3590 H   0  0  0  0  0  0  0  0  0  0  0  0
   36.8370   31.5110   40.3390 C   0  0  0  0  0  0  0  0  0  0  0  0
   37.0510   32.8470   40.4820 N   0  0  0  0  0  0  0  0  0  0  0  0
   37.2990   33.4010   39.2770 C   0  0  0  0  0  0  0  0  0  0  0  0
   37.5010   34.4520   39.1160 H   0  0  0  0  0  0  0  0  0  0  0  0
   37.2400   32.3970   38.3740 N   0  0  0  0  0  0  0  0  0  0  0  0
   36.9580   31.2230   38.9950 C   0  0  0  0  0  0  0  0  0  0  0  0
   36.7780   29.9090   38.6160 C   0  0  0  0  0  3  0  0  0  0  0  0
   37.0180   33.3310   41.4050 H   0  0  0  0  0  0  0  0  0  0  0  0
  1  2  1  0  0  0  0
  1  6  1  0  0  0  0
  2  7  1  0  0  0  0
  2  3  1  0  0  0  0
  3  4  1  0  0  0  0
  3 10  1  0  0  0  0
  4 11  1  0  0  0  0
  4 12  1  0  0  0  0
  5 13  1  0  0  0  0
  5  4  1  0  0  0  0
  6  5  1  0  0  0  0
  6 15  1  1  0  0  0
  8  2  1  0  0  0  0
  9  3  1  0  0  0  0
 14  5  1  0  0  0  0
 16 18  1  0  0  0  0
 16 17  1  0  0  0  0
 16  1  1  0  0  0  0
 19 16  1  0  0  0  0
 20 19  1  0  0  0  0
 21 19  1  0  0  0  0
 22 23  2  0  0  0  0
 22 27  1  0  0  0  0
 23 24  1  0  0  0  0
 24 19  1  0  0  0  0
 24 25  2  0  0  0  0
 26 25  1  0  0  0  0
 26 30  1  0  0  0  0
 27 26  2  0  0  0  0
 28 22  1  0  0  0  0
 29 23  1  0  0  0  0
 31 33  1  0  0  0  0
 31  6  1  0  0  0  0
 33 34  1  0  0  0  0
 33 32  2  1  0  0  0
 35 34  1  0  0  0  0
 36 33  1  0  0  0  0
 37 38  1  0  0  0  0
 38 39  2  0  0  0  0
 38 36  1  0  0  0  0
 39 40  1  0  0  0  0
 41 42  1  0  0  0  0
 41 39  1  0  0  0  0
 42 48  1  0  0  0  0
 43 42  1  0  0  0  0
 44 43  1  0  0  0  0
 45 46  1  0  0  0  0
 45 43  2  0  0  0  0
 46 41  2  0  0  0  0
 47 46  1  0  0  0  0
 47 37  2  0  0  0  0
M  END
>  <minimizedAffinity>
-5.85873556

$$$$

 OpenBabel03252509023D

 48 51  0  0  1  0  0  0  0  0999 V2000
   37.9710   24.8040   40.8750 N   0  0  0  0  0  0  0  0  0  0  0  0
   38.9840   24.1020   40.1740 C   0  0  0  0  0  0  0  0  0  0  0  0
   40.3420   24.7540   40.1670 C   0  0  0  0  0  0  0  0  0  0  0  0
   40.6610   25.5440   41.4090 C   0  0  0  0  0  0  0  0  0  0  0  0
   39.5730   25.4140   42.4480 C   0  0  0  0  0  0  0  0  0  0  0  0
   38.2860   25.8890   41.6790 C   0  0  2  0  0  0  0  0  0  0  0  0
   38.7520   23.8170   39.1450 H   0  0  0  0  0  0  0  0  0  0  0  0
   39.1240   23.1260   40.7280 H   0  0  0  0  0  0  0  0  0  0  0  0
   41.1080   23.9430   40.0040 H   0  0  0  0  0  0  0  0  0  0  0  0
   40.4130   25.4160   39.2720 H   0  0  0  0  0  0  0  0  0  0  0  0
   41.5960   25.1570   41.8700 H   0  0  0  0  0  0  0  0  0  0  0  0
   40.7920   26.6070   41.1730 H   0  0  0  0  0  0  0  0  0  0  0  0
   39.7440   26.1320   43.2560 H   0  0  0  0  0  0  0  0  0  0  0  0
   39.4020   24.3870   42.7730 H   0  0  0  0  0  0  0  0  0  0  0  0
   38.5510   26.8530   41.1810 H   0  0  0  0  0  0  0  0  0  0  0  0
   36.6830   24.7590   40.2480 C   0  0  0  0  0  0  0  0  0  0  0  0
   35.9780   25.4160   40.8180 H   0  0  0  0  0  0  0  0  0  0  0  0
   36.2880   23.7420   40.2690 H   0  0  0  0  0  0  0  0  0  0  0  0
   36.7930   25.3540   38.8760 C   0  0  0  0  0  0  0  0  0  0  0  0
   37.5260   24.7870   38.2620 H   0  0  0  0  0  0  0  0  0  0  0  0
   37.1130   26.4120   38.8600 H   0  0  0  0  0  0  0  0  0  0  0  0
   33.6080   23.8550   37.5660 C   0  0  0  0  0  0  0  0  0  0  0  0
   34.8440   24.0050   38.2220 C   0  0  0  0  0  0  0  0  0  0  0  0
   35.4890   25.2150   38.1770 C   0  0  0  0  0  0  0  0  0  0  0  0
   34.9000   26.2090   37.5010 N   0  0  0  0  0  0  0  0  0  0  0  0
   33.7200   26.0690   36.8740 C   0  0  0  0  0  0  0  0  0  0  0  0
   33.0640   24.8980   36.8990 N   0  0  0  0  0  0  0  0  0  0  0  0
   33.0590   22.9260   37.5700 H   0  0  0  0  0  0  0  0  0  0  0  0
   35.2540   23.1710   38.7410 H   0  0  0  0  0  0  0  0  0  0  0  0
   33.3420   26.9440   36.3590 H   0  0  0  0  0  0  0  0  0  0  0  0
   37.3800   26.0350   42.7230 O   0  0  0  0  0  0  0  0  0  0  0  0
   38.1180   28.5110   43.3210 O   0  0  0  0  0  0  0  0  0  0  0  0
   36.9280   27.6400   42.9700 P   0  0  2  0  0  0  0  0  0  0  0  0
   35.9430   27.6410   44.3710 O   0  0  0  0  0  0  0  0  0  0  0  0
   34.9910   27.6310   44.1000 H   0  0  0  0  0  0  0  0  0  0  0  0
   36.0270   28.2220   41.6960 O   0  0  0  0  0  0  0  0  0  0  0  0
   36.5100   28.9510   39.5040 C   0  0  0  0  0  3  0  0  0  0  0  0
   36.3340   29.2570   40.8580 C   0  0  0  0  0  0  0  0  0  0  0  0
   36.4840   30.5720   41.2550 C   0  0  0  0  0  0  0  0  0  0  0  0
   36.3490   30.8180   42.3090 H   0  0  0  0  0  0  0  0  0  0  0  0
   36.8010   31.5470   40.3050 C   0  0  0  0  0  0  0  0  0  0  0  0
   36.9950   32.8860   40.4550 N   0  0  0  0  0  0  0  0  0  0  0  0
   37.2840   33.4410   39.2600 C   0  0  0  0  0  0  0  0  0  0  0  0
   37.4820   34.4940   39.1050 H   0  0  0  0  0  0  0  0  0  0  0  0
   37.2700   32.4350   38.3560 N   0  0  0  0  0  0  0  0  0  0  0  0
   36.9770   31.2600   38.9670 C   0  0  0  0  0  0  0  0  0  0  0  0
   36.8250   29.9430   38.5840 C   0  0  0  0  0  3  0  0  0  0  0  0
   36.9210   33.3690   41.3750 H   0  0  0  0  0  0  0  0  0  0  0  0
  1  6  1  0  0  0  0
  2  8  1  0  0  0  0
  2  1  1  0  0  0  0
  3  2  1  0  0  0  0
  3  4  1  0  0  0  0
  4 11  1  0  0  0  0
  4  5  1  0  0  0  0
  5 14  1  0  0  0  0
  5 13  1  0  0  0  0
  6 15  1  6  0  0  0
  6  5  1  0  0  0  0
  6 31  1  0  0  0  0
  7  2  1  0  0  0  0
  9  3  1  0  0  0  0
 10  3  1  0  0  0  0
 12  4  1  0  0  0  0
 16 18  1  0  0  0  0
 16 17  1  0  0  0  0
 16  1  1  0  0  0  0
 19 16  1  0  0  0  0
 20 19  1  0  0  0  0
 21 19  1  0  0  0  0
 22 28  1  0  0  0  0
 22 23  1  0  0  0  0
 23 29  1  0  0  0  0
 24 23  2  0  0  0  0
 24 19  1  0  0  0  0
 25 24  1  0  0  0  0
 26 27  1  0  0  0  0
 26 25  2  0  0  0  0
 27 22  2  0  0  0  0
 30 26  1  0  0  0  0
 31 33  1  0  0  0  0
 33 32  2  1  0  0  0
 33 34  1  0  0  0  0
 35 34  1  0  0  0  0
 36 33  1  0  0  0  0
 37 38  1  0  0  0  0
 38 39  2  0  0  0  0
 38 36  1  0  0  0  0
 39 40  1  0  0  0  0
 41 42  1  0  0  0  0
 41 39  1  0  0  0  0
 42 48  1  0  0  0  0
 43 42  1  0  0  0  0
 44 43  1  0  0  0  0
 45 46  1  0  0  0  0
 45 43  2  0  0  0  0
 46 41  2  0  0  0  0
 47 46  1  0  0  0  0
 47 37  2  0  0  0  0
M  END
>  <minimizedAffinity>
-5.85055017

$$$$

 OpenBabel03252509023D

 48 51  0  0  1  0  0  0  0  0999 V2000
   36.9460   27.3470   41.4880 N   0  0  0  0  0  0  0  0  0  0  0  0
   36.9220   27.1630   42.8940 C   0  0  0  0  0  0  0  0  0  0  0  0
   37.9360   27.9640   43.6710 C   0  0  0  0  0  0  0  0  0  0  0  0
   38.2700   29.3030   43.0670 C   0  0  0  0  0  0  0  0  0  0  0  0
   37.4210   29.5950   41.8530 C   0  0  0  0  0  0  0  0  0  0  0  0
   37.6980   28.3620   40.9160 C   0  0  2  0  0  0  0  0  0  0  0  0
   36.9780   26.1320   43.2480 H   0  0  0  0  0  0  0  0  0  0  0  0
   35.9140   27.5430   43.2380 H   0  0  0  0  0  0  0  0  0  0  0  0
   37.5380   28.0880   44.7190 H   0  0  0  0  0  0  0  0  0  0  0  0
   38.8650   27.3550   43.7740 H   0  0  0  0  0  0  0  0  0  0  0  0
   38.0680   30.1080   43.8040 H   0  0  0  0  0  0  0  0  0  0  0  0
   39.3260   29.3440   42.7710 H   0  0  0  0  0  0  0  0  0  0  0  0
   37.8040   30.4800   41.3360 H   0  0  0  0  0  0  0  0  0  0  0  0
   36.3500   29.6130   42.0650 H   0  0  0  0  0  0  0  0  0  0  0  0
   38.8070   28.2370   40.8770 H   0  0  0  0  0  0  0  0  0  0  0  0
   36.7190   26.1480   40.7360 C   0  0  0  0  0  0  0  0  0  0  0  0
   37.4250   26.1250   39.8660 H   0  0  0  0  0  0  0  0  0  0  0  0
   35.7000   26.1360   40.3430 H   0  0  0  0  0  0  0  0  0  0  0  0
   37.0680   24.9670   41.5900 C   0  0  0  0  0  0  0  0  0  0  0  0
   36.3040   24.8210   42.3840 H   0  0  0  0  0  0  0  0  0  0  0  0
   38.0470   25.0430   42.0990 H   0  0  0  0  0  0  0  0  0  0  0  0
   35.9090   22.3790   39.1290 C   0  0  0  0  0  0  0  0  0  0  0  0
   35.9620   23.5390   39.9220 C   0  0  0  0  0  0  0  0  0  0  0  0
   37.0300   23.7350   40.7610 C   0  0  0  0  0  0  0  0  0  0  0  0
   37.9830   22.7950   40.7830 N   0  0  0  0  0  0  0  0  0  0  0  0
   37.9350   21.6860   40.0270 C   0  0  0  0  0  0  0  0  0  0  0  0
   36.9040   21.4650   39.1960 N   0  0  0  0  0  0  0  0  0  0  0  0
   35.0920   22.1750   38.4520 H   0  0  0  0  0  0  0  0  0  0  0  0
   35.1680   24.2450   39.8530 H   0  0  0  0  0  0  0  0  0  0  0  0
   38.7650   20.9970   40.1300 H   0  0  0  0  0  0  0  0  0  0  0  0
   37.1460   28.7980   39.7180 O   0  0  0  0  0  0  0  0  0  0  0  0
   38.1200   27.8650   37.4340 O   0  0  0  0  0  0  0  0  0  0  0  0
   38.2910   28.9400   38.4890 P   0  0  2  0  0  0  0  0  0  0  0  0
   39.8070   28.6150   39.2190 O   0  0  0  0  0  0  0  0  0  0  0  0
   40.2490   29.4700   39.4470 H   0  0  0  0  0  0  0  0  0  0  0  0
   38.3300   30.4850   37.8680 O   0  0  0  0  0  0  0  0  0  0  0  0
   37.3080   32.3140   38.9550 C   0  0  0  0  0  3  0  0  0  0  0  0
   38.4770   31.6590   38.5530 C   0  0  0  0  0  0  0  0  0  0  0  0
   39.6910   32.2370   38.8700 C   0  0  0  0  0  0  0  0  0  0  0  0
   40.6080   31.7320   38.5600 H   0  0  0  0  0  0  0  0  0  0  0  0
   39.7170   33.4430   39.5760 C   0  0  0  0  0  0  0  0  0  0  0  0
   40.7740   34.1900   39.9960 N   0  0  0  0  0  0  0  0  0  0  0  0
   40.3300   35.2860   40.6450 C   0  0  0  0  0  0  0  0  0  0  0  0
   40.9700   36.0440   41.0780 H   0  0  0  0  0  0  0  0  0  0  0  0
   38.9790   35.2190   40.6280 N   0  0  0  0  0  0  0  0  0  0  0  0
   38.5730   34.0990   39.9790 C   0  0  0  0  0  0  0  0  0  0  0  0
   37.3670   33.5120   39.6560 C   0  0  0  0  0  3  0  0  0  0  0  0
   41.7650   33.9190   39.8200 H   0  0  0  0  0  0  0  0  0  0  0  0
  1  2  1  0  0  0  0
  2  8  1  0  0  0  0
  2  7  1  0  0  0  0
  2  3  1  0  0  0  0
  3 10  1  0  0  0  0
  3  9  1  0  0  0  0
  4  3  1  0  0  0  0
  4 11  1  0  0  0  0
  5 14  1  0  0  0  0
  5  4  1  0  0  0  0
  6 15  1  6  0  0  0
  6  1  1  0  0  0  0
  6  5  1  0  0  0  0
 12  4  1  0  0  0  0
 13  5  1  0  0  0  0
 16  1  1  0  0  0  0
 16 19  1  0  0  0  0
 17 16  1  0  0  0  0
 18 16  1  0  0  0  0
 19 21  1  0  0  0  0
 19 20  1  0  0  0  0
 22 27  2  0  0  0  0
 22 23  1  0  0  0  0
 23 24  2  0  0  0  0
 24 25  1  0  0  0  0
 24 19  1  0  0  0  0
 26 30  1  0  0  0  0
 26 25  2  0  0  0  0
 27 26  1  0  0  0  0
 28 22  1  0  0  0  0
 29 23  1  0  0  0  0
 31  6  1  0  0  0  0
 33 32  2  6  0  0  0
 33 34  1  0  0  0  0
 33 31  1  0  0  0  0
 34 35  1  0  0  0  0
 36 33  1  0  0  0  0
 36 38  1  0  0  0  0
 37 47  1  0  0  0  0
 38 39  1  0  0  0  0
 38 37  2  0  0  0  0
 39 41  2  0  0  0  0
 40 39  1  0  0  0  0
 41 46  1  0  0  0  0
 41 42  1  0  0  0  0
 42 43  1  0  0  0  0
 43 44  1  0  0  0  0
 45 43  2  0  0  0  0
 46 45  1  0  0  0  0
 47 46  2  0  0  0  0
 48 42  1  0  0  0  0
M  END
>  <minimizedAffinity>
-5.7661972

$$$$

 OpenBabel03252509023D

 48 51  0  0  1  0  0  0  0  0999 V2000
   37.9550   29.1460   41.8900 N   0  0  0  0  0  0  0  0  0  0  0  0
   38.2400   29.0750   43.2770 C   0  0  0  0  0  0  0  0  0  0  0  0
   37.2190   28.3480   44.1140 C   0  0  0  0  0  0  0  0  0  0  0  0
   36.5210   27.2170   43.4040 C   0  0  0  0  0  0  0  0  0  0  0  0
   37.0870   26.9920   42.0220 C   0  0  0  0  0  0  0  0  0  0  0  0
   36.9270   28.3990   41.3360 C   0  0  2  0  0  0  0  0  0  0  0  0
   38.4580   30.0220   43.7760 H   0  0  0  0  0  0  0  0  0  0  0  0
   39.1880   28.4650   43.3670 H   0  0  0  0  0  0  0  0  0  0  0  0
   37.7430   27.9730   45.0400 H   0  0  0  0  0  0  0  0  0  0  0  0
   36.4660   29.0870   44.4760 H   0  0  0  0  0  0  0  0  0  0  0  0
   36.6650   26.2730   43.9710 H   0  0  0  0  0  0  0  0  0  0  0  0
   35.4470   27.4190   43.3120 H   0  0  0  0  0  0  0  0  0  0  0  0
   36.4490   26.2940   41.4700 H   0  0  0  0  0  0  0  0  0  0  0  0
   38.1490   26.7440   42.0220 H   0  0  0  0  0  0  0  0  0  0  0  0
   35.8770   28.7260   41.5270 H   0  0  0  0  0  0  0  0  0  0  0  0
   38.3040   30.3960   41.2820 C   0  0  0  0  0  0  0  0  0  0  0  0
   37.7900   31.2250   41.8330 H   0  0  0  0  0  0  0  0  0  0  0  0
   37.9650   30.4190   40.2450 H   0  0  0  0  0  0  0  0  0  0  0  0
   39.7750   30.6260   41.4590 C   0  0  0  0  0  0  0  0  0  0  0  0
   40.3560   29.9920   40.7540 H   0  0  0  0  0  0  0  0  0  0  0  0
   40.1550   30.4050   42.4740 H   0  0  0  0  0  0  0  0  0  0  0  0
   41.7380   33.7460   40.7410 C   0  0  0  0  0  0  0  0  0  0  0  0
   41.4130   32.4200   41.0800 C   0  0  0  0  0  0  0  0  0  0  0  0
   40.0980   32.0310   41.0990 C   0  0  0  0  0  0  0  0  0  0  0  0
   39.1740   32.9480   40.7890 N   0  0  0  0  0  0  0  0  0  0  0  0
   39.4800   34.2150   40.4660 C   0  0  0  0  0  0  0  0  0  0  0  0
   40.7570   34.6270   40.4370 N   0  0  0  0  0  0  0  0  0  0  0  0
   42.7550   34.1050   40.7110 H   0  0  0  0  0  0  0  0  0  0  0  0
   42.2010   31.7430   41.3160 H   0  0  0  0  0  0  0  0  0  0  0  0
   38.6460   34.8680   40.2340 H   0  0  0  0  0  0  0  0  0  0  0  0
   37.1780   28.0850   40.0060 O   0  0  0  0  0  0  0  0  0  0  0  0
   34.9590   29.5060   39.7060 O   0  0  0  0  0  0  0  0  0  0  0  0
   36.0250   28.7300   38.9590 P   0  0  2  0  0  0  0  0  0  0  0  0
   35.2080   27.3890   38.2740 O   0  0  0  0  0  0  0  0  0  0  0  0
   35.5990   27.1870   37.3880 H   0  0  0  0  0  0  0  0  0  0  0  0
   36.7380   29.5930   37.7260 O   0  0  0  0  0  0  0  0  0  0  0  0
   39.0350   29.0600   37.6250 C   0  0  0  0  0  3  0  0  0  0  0  0
   38.0310   30.0330   37.6510 C   0  0  0  0  0  0  0  0  0  0  0  0
   38.4070   31.3620   37.6020 C   0  0  0  0  0  0  0  0  0  0  0  0
   37.6290   32.1270   37.6210 H   0  0  0  0  0  0  0  0  0  0  0  0
   39.7630   31.6920   37.5260 C   0  0  0  0  0  0  0  0  0  0  0  0
   40.3660   32.9100   37.4680 N   0  0  0  0  0  0  0  0  0  0  0  0
   41.7050   32.7540   37.4050 C   0  0  0  0  0  0  0  0  0  0  0  0
   42.4150   33.5690   37.3510 H   0  0  0  0  0  0  0  0  0  0  0  0
   41.9360   31.4220   37.4260 N   0  0  0  0  0  0  0  0  0  0  0  0
   40.7640   30.7430   37.5000 C   0  0  0  0  0  0  0  0  0  0  0  0
   40.3750   29.4200   37.5500 C   0  0  0  0  0  3  0  0  0  0  0  0
   39.8350   33.8060   37.4730 H   0  0  0  0  0  0  0  0  0  0  0  0
  1  2  1  0  0  0  0
  2  8  1  0  0  0  0
  2  7  1  0  0  0  0
  2  3  1  0  0  0  0
  3 10  1  0  0  0  0
  3  9  1  0  0  0  0
  4 11  1  0  0  0  0
  4  3  1  0  0  0  0
  5  4  1  0  0  0  0
  6 15  1  1  0  0  0
  6  1  1  0  0  0  0
  6  5  1  0  0  0  0
 12  4  1  0  0  0  0
 13  5  1  0  0  0  0
 14  5  1  0  0  0  0
 16 19  1  0  0  0  0
 16 17  1  0  0  0  0
 16  1  1  0  0  0  0
 18 16  1  0  0  0  0
 19 21  1  0  0  0  0
 20 19  1  0  0  0  0
 22 23  1  0  0  0  0
 23 24  2  0  0  0  0
 23 29  1  0  0  0  0
 24 19  1  0  0  0  0
 25 24  1  0  0  0  0
 26 25  2  0  0  0  0
 27 26  1  0  0  0  0
 27 22  2  0  0  0  0
 28 22  1  0  0  0  0
 30 26  1  0  0  0  0
 31  6  1  0  0  0  0
 33 32  2  1  0  0  0
 33 31  1  0  0  0  0
 34 33  1  0  0  0  0
 35 34  1  0  0  0  0
 36 33  1  0  0  0  0
 37 38  1  0  0  0  0
 38 36  1  0  0  0  0
 39 40  1  0  0  0  0
 39 38  2  0  0  0  0
 41 39  1  0  0  0  0
 42 48  1  0  0  0  0
 42 41  1  0  0  0  0
 43 45  2  0  0  0  0
 43 42  1  0  0  0  0
 44 43  1  0  0  0  0
 45 46  1  0  0  0  0
 46 41  2  0  0  0  0
 46 47  1  0  0  0  0
 47 37  2  0  0  0  0
M  END
>  <minimizedAffinity>
-5.7554841

$$$$
