
 OpenBabel03252509003D

 48 51  0  0  1  0  0  0  0  0999 V2000
   47.1580   34.1780   43.0800 N   0  0  0  0  0  0  0  0  0  0  0  0
   46.6600   35.3890   42.5360 C   0  0  0  0  0  0  0  0  0  0  0  0
   45.1890   35.6410   42.7510 C   0  0  0  0  0  0  0  0  0  0  0  0
   44.6420   35.0840   44.0390 C   0  0  0  0  0  0  0  0  0  0  0  0
   45.7310   34.4780   44.8920 C   0  0  0  0  0  0  0  0  0  0  0  0
   46.3830   33.4120   43.9370 C   0  0  2  0  0  0  0  0  0  0  0  0
   46.8720   35.5690   41.4800 H   0  0  0  0  0  0  0  0  0  0  0  0
   47.1890   36.2190   43.0930 H   0  0  0  0  0  0  0  0  0  0  0  0
   45.0250   36.7560   42.6980 H   0  0  0  0  0  0  0  0  0  0  0  0
   44.6270   35.2150   41.8870 H   0  0  0  0  0  0  0  0  0  0  0  0
   44.1790   35.8990   44.6340 H   0  0  0  0  0  0  0  0  0  0  0  0
   43.8870   34.3130   43.8400 H   0  0  0  0  0  0  0  0  0  0  0  0
   45.2850   33.9280   45.7270 H   0  0  0  0  0  0  0  0  0  0  0  0
   46.5090   35.1900   45.1730 H   0  0  0  0  0  0  0  0  0  0  0  0
   45.5430   32.8220   43.5010 H   0  0  0  0  0  0  0  0  0  0  0  0
   48.1320   33.5230   42.2580 C   0  0  0  0  0  0  0  0  0  0  0  0
   48.7280   32.8180   42.8920 H   0  0  0  0  0  0  0  0  0  0  0  0
   48.8200   34.2550   41.8310 H   0  0  0  0  0  0  0  0  0  0  0  0
   47.4210   32.6770   41.2460 C   0  0  0  0  0  0  0  0  0  0  0  0
   46.3450   32.9540   41.1930 H   0  0  0  0  0  0  0  0  0  0  0  0
   47.4610   31.5900   41.4470 H   0  0  0  0  0  0  0  0  0  0  0  0
   49.3240   32.2660   38.0340 C   0  0  0  0  0  0  0  0  0  0  0  0
   48.7880   32.0180   39.3110 C   0  0  0  0  0  0  0  0  0  0  0  0
   47.9770   32.9570   39.8970 C   0  0  0  0  0  0  0  0  0  0  0  0
   47.7320   34.0800   39.2120 N   0  0  0  0  0  0  0  0  0  0  0  0
   48.2420   34.3200   37.9930 C   0  0  0  0  0  0  0  0  0  0  0  0
   49.0390   33.4220   37.3920 N   0  0  0  0  0  0  0  0  0  0  0  0
   49.9670   31.5610   37.5280 H   0  0  0  0  0  0  0  0  0  0  0  0
   49.0260   31.1010   39.7980 H   0  0  0  0  0  0  0  0  0  0  0  0
   47.9730   35.2660   37.5360 H   0  0  0  0  0  0  0  0  0  0  0  0
   47.1660   32.6880   44.8290 O   0  0  0  0  0  0  0  0  0  0  0  0
   45.6440   30.6670   44.0360 O   0  0  0  0  0  0  0  0  0  0  0  0
   46.5290   31.1640   45.1620 P   0  0  2  0  0  0  0  0  0  0  0  0
   45.4790   31.3740   46.4990 O   0  0  0  0  0  0  0  0  0  0  0  0
   45.9570   31.1280   47.3300 H   0  0  0  0  0  0  0  0  0  0  0  0
   47.7230   30.0870   45.5980 O   0  0  0  0  0  0  0  0  0  0  0  0
   47.4240   28.3810   47.2020 C   0  0  0  0  0  3  0  0  0  0  0  0
   47.5890   28.7530   45.8640 C   0  0  0  0  0  0  0  0  0  0  0  0
   47.6060   27.7570   44.9060 C   0  0  0  0  0  0  0  0  0  0  0  0
   47.7350   28.0380   43.8590 H   0  0  0  0  0  0  0  0  0  0  0  0
   47.4600   26.4220   45.2970 C   0  0  0  0  0  0  0  0  0  0  0  0
   47.4450   25.2860   44.5480 N   0  0  0  0  0  0  0  0  0  0  0  0
   47.2770   24.2140   45.3500 C   0  0  0  0  0  0  0  0  0  0  0  0
   47.2310   23.1900   45.0010 H   0  0  0  0  0  0  0  0  0  0  0  0
   47.1870   24.6890   46.6120 N   0  0  0  0  0  0  0  0  0  0  0  0
   47.2960   26.0420   46.6130 C   0  0  0  0  0  0  0  0  0  0  0  0
   47.2800   27.0450   47.5600 C   0  0  0  0  0  3  0  0  0  0  0  0
   47.5500   25.2890   43.5110 H   0  0  0  0  0  0  0  0  0  0  0  0
  1  6  1  0  0  0  0
  2  3  1  0  0  0  0
  2  1  1  0  0  0  0
  2  8  1  0  0  0  0
  3  4  1  0  0  0  0
  4 11  1  0  0  0  0
  4  5  1  0  0  0  0
  5 14  1  0  0  0  0
  5 13  1  0  0  0  0
  6 15  1  6  0  0  0
  6 31  1  0  0  0  0
  6  5  1  0  0  0  0
  7  2  1  0  0  0  0
  9  3  1  0  0  0  0
 10  3  1  0  0  0  0
 12  4  1  0  0  0  0
 16 17  1  0  0  0  0
 16  1  1  0  0  0  0
 18 16  1  0  0  0  0
 19 21  1  0  0  0  0
 19 16  1  0  0  0  0
 20 19  1  0  0  0  0
 22 23  1  0  0  0  0
 23 29  1  0  0  0  0
 23 24  2  0  0  0  0
 24 19  1  0  0  0  0
 25 24  1  0  0  0  0
 26 25  2  0  0  0  0
 27 26  1  0  0  0  0
 27 22  2  0  0  0  0
 28 22  1  0  0  0  0
 30 26  1  0  0  0  0
 31 33  1  0  0  0  0
 33 32  2  6  0  0  0
 33 36  1  0  0  0  0
 33 34  1  0  0  0  0
 34 35  1  0  0  0  0
 36 38  1  0  0  0  0
 37 47  1  0  0  0  0
 38 37  2  0  0  0  0
 39 41  2  0  0  0  0
 39 38  1  0  0  0  0
 40 39  1  0  0  0  0
 41 46  1  0  0  0  0
 42 41  1  0  0  0  0
 42 43  1  0  0  0  0
 43 45  2  0  0  0  0
 44 43  1  0  0  0  0
 45 46  1  0  0  0  0
 46 47  2  0  0  0  0
 48 42  1  0  0  0  0
M  END
>  <minimizedAffinity>
-3.98350549

>  <minimizedRMSD>
0.401639074

$$$$
