
 OpenBabel03252506383D

 47 51  0  0  1  0  0  0  0  0999 V2000
   46.6440   30.0270   46.5450 S   0  0  0  0  0  0  0  0  0  0  0  0
   44.5130   35.5100   45.1330 C   0  0  0  0  0  0  0  0  0  0  0  0
   45.1680   35.5040   43.8840 C   0  0  0  0  0  0  0  0  0  0  0  0
   46.0870   34.5460   43.6240 C   0  0  0  0  0  0  0  0  0  0  0  0
   46.3250   33.6350   44.6000 N   0  0  0  0  0  0  0  0  0  0  0  0
   45.7080   33.6440   45.7720 C   0  0  0  0  0  0  0  0  0  0  0  0
   44.7970   34.5770   46.0580 N   0  0  0  0  0  0  0  0  0  0  0  0
   46.0420   32.6300   46.7360 N   0  0  0  0  0  0  0  0  0  0  0  0
   45.3060   32.3810   47.9200 C   0  0  0  0  0  0  0  0  0  0  0  0
   46.3800   32.0310   48.9320 C   0  0  0  0  0  0  0  0  0  0  0  0
   47.6620   31.9270   48.1600 C   0  0  0  0  0  0  0  0  0  0  0  0
   47.1590   31.7190   46.7320 C   0  0  1  0  0  0  0  0  0  0  0  0
   43.7840   36.2860   45.3180 H   0  0  0  0  0  0  0  0  0  0  0  0
   46.5910   34.5220   42.6880 H   0  0  0  0  0  0  0  0  0  0  0  0
   44.5060   31.7250   48.0220 H   0  0  0  0  0  0  0  0  0  0  0  0
   44.9330   33.3910   48.2830 H   0  0  0  0  0  0  0  0  0  0  0  0
   46.4950   32.7440   49.7460 H   0  0  0  0  0  0  0  0  0  0  0  0
   46.1370   31.0450   49.4190 H   0  0  0  0  0  0  0  0  0  0  0  0
   48.2380   31.0230   48.4680 H   0  0  0  0  0  0  0  0  0  0  0  0
   48.2530   32.8440   48.2730 H   0  0  0  0  0  0  0  0  0  0  0  0
   47.9940   32.0170   46.0750 H   0  0  0  0  0  0  0  0  0  0  0  0
   44.8050   36.5390   42.9530 N   0  0  0  0  0  0  0  0  0  0  0  0
   45.5930   36.8300   42.3440 H   0  0  0  0  0  0  0  0  0  0  0  0
   43.8660   36.9650   42.8790 H   0  0  0  0  0  0  0  0  0  0  0  0
   45.5760   30.5240   43.4250 O   0  0  0  0  0  0  0  0  0  0  0  0
   44.9620   29.9820   44.3570 C   0  0  0  0  0  0  0  0  0  0  0  0
   45.0830   29.7480   45.8160 C   0  0  1  0  0  0  0  0  0  0  0  0
   44.5430   28.3460   45.9560 C   0  0  0  0  0  0  0  0  0  0  0  0
   43.2180   28.5600   45.2160 C   0  0  0  0  0  0  0  0  0  0  0  0
   43.7090   29.3280   44.0780 N   0  0  0  0  0  0  0  0  0  0  0  0
   44.2060   30.3520   46.1820 H   0  0  0  0  0  0  0  0  0  0  0  0
   45.1090   27.6120   45.3530 H   0  0  0  0  0  0  0  0  0  0  0  0
   44.3550   28.0500   46.9930 H   0  0  0  0  0  0  0  0  0  0  0  0
   42.8610   27.5720   44.8920 H   0  0  0  0  0  0  0  0  0  0  0  0
   42.4930   29.1250   45.8240 H   0  0  0  0  0  0  0  0  0  0  0  0
   41.8520   30.2300   42.9290 C   0  0  0  0  0  3  0  0  0  0  0  0
   42.8940   29.3180   42.8850 C   0  0  0  0  0  0  0  0  0  0  0  0
   43.0830   28.5170   41.7940 C   0  0  0  0  0  0  0  0  0  0  0  0
   43.9180   27.8330   41.8390 H   0  0  0  0  0  0  0  0  0  0  0  0
   42.2220   28.6120   40.7120 C   0  0  0  0  0  0  0  0  0  0  0  0
   42.1980   27.9460   39.5430 N   0  0  0  0  0  0  0  0  0  0  0  0
   41.1340   28.4390   38.8440 C   0  0  0  0  0  0  0  0  0  0  0  0
   40.8060   28.1310   37.8430 H   0  0  0  0  0  0  0  0  0  0  0  0
   40.5000   29.3890   39.5430 N   0  0  0  0  0  0  0  0  0  0  0  0
   41.1550   29.5170   40.7070 C   0  0  0  0  0  0  0  0  0  0  0  0
   41.0010   30.3160   41.8430 C   0  0  0  0  0  3  0  0  0  0  0  0
   42.8590   27.1980   39.2270 H   0  0  0  0  0  0  0  0  0  0  0  0
  1 12  1  0  0  0  0
  2 13  1  0  0  0  0
  2  7  1  0  0  0  0
  3  2  2  0  0  0  0
  4  3  1  0  0  0  0
  4  5  2  0  0  0  0
  5  6  1  0  0  0  0
  6  7  2  0  0  0  0
  6  8  1  0  0  0  0
  8  9  1  0  0  0  0
  9 15  1  0  0  0  0
  9 16  1  0  0  0  0
  9 10  1  0  0  0  0
 10 18  1  0  0  0  0
 10 17  1  0  0  0  0
 11 20  1  0  0  0  0
 11 19  1  0  0  0  0
 11 10  1  0  0  0  0
 12 21  1  6  0  0  0
 12  8  1  0  0  0  0
 12 11  1  0  0  0  0
 14  4  1  0  0  0  0
 22  3  1  0  0  0  0
 23 22  1  0  0  0  0
 24 22  1  0  0  0  0
 25 26  2  0  0  0  0
 26 27  1  0  0  0  0
 27 28  1  0  0  0  0
 27 31  1  1  0  0  0
 27  1  1  0  0  0  0
 28 33  1  0  0  0  0
 29 35  1  0  0  0  0
 29 28  1  0  0  0  0
 30 26  1  0  0  0  0
 30 29  1  0  0  0  0
 32 28  1  0  0  0  0
 34 29  1  0  0  0  0
 37 36  1  0  0  0  0
 37 30  1  0  0  0  0
 38 39  1  0  0  0  0
 38 37  2  0  0  0  0
 40 38  1  0  0  0  0
 41 40  1  0  0  0  0
 42 44  2  0  0  0  0
 42 41  1  0  0  0  0
 43 42  1  0  0  0  0
 44 45  1  0  0  0  0
 45 40  2  0  0  0  0
 45 46  1  0  0  0  0
 46 36  2  0  0  0  0
 47 41  1  0  0  0  0
M  END
>  <minimizedAffinity>
-5.47201681

>  <minimizedRMSD>
0.250172913

$$$$
