
 OpenBabel03252503313D

 44 47  0  0  1  0  0  0  0  0999 V2000
   45.4250   34.3130   42.1470 C   0  0  0  0  0  0  0  0  0  0  0  0
   46.5010   35.1200   41.6780 C   0  0  0  0  0  0  0  0  0  0  0  0
   47.7920   34.7090   42.0590 C   0  0  0  0  0  0  0  0  0  0  0  0
   47.9080   33.6100   42.8190 N   0  0  0  0  0  0  0  0  0  0  0  0
   46.8570   32.8780   43.2390 C   0  0  0  0  0  0  0  0  0  0  0  0
   45.6040   33.2410   42.8940 N   0  0  0  0  0  0  0  0  0  0  0  0
   43.7850   34.3350   40.4660 C   0  0  0  0  0  0  0  0  0  0  0  0
   44.7100   33.8360   39.7370 O   0  0  0  0  0  0  0  0  0  0  0  0
   44.0750   34.6610   41.8060 N   0  0  0  0  0  0  0  0  0  0  0  0
   42.5180   34.5250   39.8650 N   0  0  0  0  0  0  0  0  0  0  0  0
   42.3960   34.4650   38.3960 C   0  0  0  0  0  0  0  0  0  0  0  0
   41.2670   35.4130   38.1310 C   0  0  0  0  0  0  0  0  0  0  0  0
   40.7680   35.8540   39.4760 C   0  0  0  0  0  0  0  0  0  0  0  0
   41.2150   34.7590   40.4150 C   0  0  1  0  0  0  0  0  0  0  0  0
   46.2360   35.9810   41.0680 H   0  0  0  0  0  0  0  0  0  0  0  0
   47.0060   31.9970   43.8540 H   0  0  0  0  0  0  0  0  0  0  0  0
   43.3230   35.1010   42.3910 H   0  0  0  0  0  0  0  0  0  0  0  0
   42.0790   33.4550   38.0550 H   0  0  0  0  0  0  0  0  0  0  0  0
   43.2960   34.8420   37.8910 H   0  0  0  0  0  0  0  0  0  0  0  0
   41.5480   36.2660   37.4810 H   0  0  0  0  0  0  0  0  0  0  0  0
   40.3900   34.9120   37.6300 H   0  0  0  0  0  0  0  0  0  0  0  0
   41.5350   36.6660   39.7410 H   0  0  0  0  0  0  0  0  0  0  0  0
   39.8660   36.3630   39.5690 H   0  0  0  0  0  0  0  0  0  0  0  0
   41.1310   35.2100   41.4090 H   0  0  0  0  0  0  0  0  0  0  0  0
   39.7440   32.9330   41.4770 C   0  0  0  0  0  0  0  0  0  0  0  0
   39.7590   33.7100   42.4570 O   0  0  0  0  0  0  0  0  0  0  0  0
   40.4290   33.5340   40.3530 N   0  0  0  0  0  0  0  0  0  0  0  0
   40.3670   33.0630   39.3980 H   0  0  0  0  0  0  0  0  0  0  0  0
   37.8250   31.3490   41.0820 C   0  0  0  0  0  3  0  0  0  0  0  0
   39.1550   31.6280   41.4170 C   0  0  0  0  0  0  0  0  0  0  0  0
   40.0190   30.5890   41.7260 C   0  0  0  0  0  0  0  0  0  0  0  0
   41.0580   30.7380   41.9930 H   0  0  0  0  0  0  0  0  0  0  0  0
   39.6080   29.2580   41.7150 C   0  0  0  0  0  0  0  0  0  0  0  0
   40.2120   28.0710   41.9640 N   0  0  0  0  0  0  0  0  0  0  0  0
   39.2530   27.1240   41.7780 C   0  0  0  0  0  0  0  0  0  0  0  0
   39.3840   26.0520   41.8930 H   0  0  0  0  0  0  0  0  0  0  0  0
   38.0850   27.6960   41.4220 N   0  0  0  0  0  0  0  0  0  0  0  0
   38.2940   29.0070   41.3820 C   0  0  0  0  0  0  0  0  0  0  0  0
   37.4170   30.0220   41.0710 C   0  0  0  0  0  3  0  0  0  0  0  0
   41.2090   27.9470   42.2400 H   0  0  0  0  0  0  0  0  0  0  0  0
   48.8740   35.5580   41.5620 C   0  0  0  0  0  0  0  0  0  0  0  0
   50.0920   34.9980   41.9410 F   0  0  0  0  0  0  0  0  0  0  0  0
   48.7880   36.7700   42.2660 F   0  0  0  0  0  0  0  0  0  0  0  0
   48.8720   35.7310   40.2110 F   0  0  0  0  0  0  0  0  0  0  0  0
  1  6  1  0  0  0  0
  2  3  1  0  0  0  0
  2  1  2  0  0  0  0
  3  4  2  0  0  0  0
  4  5  1  0  0  0  0
  5 16  1  0  0  0  0
  6  5  2  0  0  0  0
  7  9  1  0  0  0  0
  8  7  2  0  0  0  0
  9  1  1  0  0  0  0
  9 17  1  0  0  0  0
 10 14  1  0  0  0  0
 10  7  1  0  0  0  0
 11 10  1  0  0  0  0
 12 11  1  0  0  0  0
 12 13  1  0  0  0  0
 13 23  1  0  0  0  0
 13 22  1  0  0  0  0
 13 14  1  0  0  0  0
 14 24  1  1  0  0  0
 15  2  1  0  0  0  0
 18 11  1  0  0  0  0
 19 11  1  0  0  0  0
 20 12  1  0  0  0  0
 21 12  1  0  0  0  0
 25 26  2  0  0  0  0
 27 14  1  0  0  0  0
 27 25  1  0  0  0  0
 28 27  1  0  0  0  0
 29 30  1  0  0  0  0
 30 25  1  0  0  0  0
 30 31  2  0  0  0  0
 31 32  1  0  0  0  0
 33 31  1  0  0  0  0
 33 34  1  0  0  0  0
 34 40  1  0  0  0  0
 35 36  1  0  0  0  0
 35 34  1  0  0  0  0
 37 35  2  0  0  0  0
 38 37  1  0  0  0  0
 38 33  2  0  0  0  0
 39 29  2  0  0  0  0
 39 38  1  0  0  0  0
 41 42  1  0  0  0  0
 41  3  1  0  0  0  0
 41 43  1  0  0  0  0
 44 41  1  0  0  0  0
M  END
>  <minimizedAffinity>
-7.18049288

>  <minimizedRMSD>
1.47034431

$$$$
