
 OpenBabel03252504583D

 40 43  0  0  1  0  0  0  0  0999 V2000
   47.8540   33.9460   41.9910 N   0  0  0  0  0  0  0  0  0  0  0  0
   47.8560   34.8830   40.9410 C   0  0  0  0  0  0  0  0  0  0  0  0
   49.0290   35.7240   41.2460 C   0  0  0  0  0  0  0  0  0  0  0  0
   49.7050   35.1660   42.4950 C   0  0  0  0  0  0  0  0  0  0  0  0
   49.1350   33.7410   42.5340 C   0  0  2  0  0  0  0  0  0  0  0  0
   47.3180   35.1410   40.0790 H   0  0  0  0  0  0  0  0  0  0  0  0
   49.4520   36.5790   40.7420 H   0  0  0  0  0  0  0  0  0  0  0  0
   50.7920   35.1330   42.2750 H   0  0  0  0  0  0  0  0  0  0  0  0
   49.4240   35.7420   43.3830 H   0  0  0  0  0  0  0  0  0  0  0  0
   49.1500   33.3190   43.5360 H   0  0  0  0  0  0  0  0  0  0  0  0
   46.6760   33.3700   42.4020 C   0  0  0  0  0  0  0  0  0  0  0  0
   46.9010   32.3130   42.6950 H   0  0  0  0  0  0  0  0  0  0  0  0
   45.9250   33.2240   41.5910 H   0  0  0  0  0  0  0  0  0  0  0  0
   44.5890   35.8010   44.4170 C   0  0  0  0  0  0  0  0  0  0  0  0
   45.2520   35.2390   43.2870 C   0  0  0  0  0  0  0  0  0  0  0  0
   45.9820   34.0650   43.4630 C   0  0  0  0  0  0  0  0  0  0  0  0
   46.0110   33.5360   44.7040 N   0  0  0  0  0  0  0  0  0  0  0  0
   45.3650   34.0880   45.7890 C   0  0  0  0  0  0  0  0  0  0  0  0
   44.6610   35.2110   45.6430 N   0  0  0  0  0  0  0  0  0  0  0  0
   44.0520   36.7110   44.1690 H   0  0  0  0  0  0  0  0  0  0  0  0
   45.2060   35.6880   42.3250 H   0  0  0  0  0  0  0  0  0  0  0  0
   45.4480   33.5880   46.7440 H   0  0  0  0  0  0  0  0  0  0  0  0
   49.8560   33.0060   41.5810 O   0  0  0  0  0  0  0  0  0  0  0  0
   49.2980   30.8270   42.9910 O   0  0  0  0  0  0  0  0  0  0  0  0
   50.2960   31.4870   42.0680 P   0  0  2  0  0  0  0  0  0  0  0  0
   51.7570   31.6020   42.9200 O   0  0  0  0  0  0  0  0  0  0  0  0
   52.5340   31.2850   42.4070 H   0  0  0  0  0  0  0  0  0  0  0  0
   50.6070   30.4610   40.7320 O   0  0  0  0  0  0  0  0  0  0  0  0
   51.4750   31.5780   38.6690 C   0  0  0  0  0  0  0  0  0  0  0  0
   51.5240   30.7370   39.7610 C   0  0  0  0  0  0  0  0  0  0  0  0
   52.7000   30.0040   39.9620 C   0  0  0  0  0  0  0  0  0  0  0  0
   52.9070   29.2930   40.7760 H   0  0  0  0  0  0  0  0  0  0  0  0
   53.7920   30.1150   39.0950 C   0  0  0  0  0  0  0  0  0  0  0  0
   55.0120   29.5740   39.0120 N   0  0  0  0  0  0  0  0  0  0  0  0
   55.6540   30.0670   37.9300 C   0  0  0  0  0  0  0  0  0  0  0  0
   56.6420   29.8640   37.5500 H   0  0  0  0  0  0  0  0  0  0  0  0
   54.8430   30.9510   37.2840 N   0  0  0  0  0  0  0  0  0  0  0  0
   53.7070   30.9660   38.0130 C   0  0  0  0  0  0  0  0  0  0  0  0
   52.5500   31.6900   37.8120 C   0  0  0  0  0  0  0  0  0  0  0  0
   55.4070   28.8780   39.6810 H   0  0  0  0  0  0  0  0  0  0  0  0
  1 11  1  0  0  0  0
  1  5  1  0  0  0  0
  2  3  2  0  0  0  0
  2  1  1  0  0  0  0
  3  4  1  0  0  0  0
  4  5  1  0  0  0  0
  4  9  1  0  0  0  0
  5 10  1  1  0  0  0
  6  2  1  0  0  0  0
  7  3  1  0  0  0  0
  8  4  1  0  0  0  0
 11 12  1  0  0  0  0
 11 16  1  0  0  0  0
 13 11  1  0  0  0  0
 14 19  1  0  0  0  0
 15 16  1  0  0  0  0
 15 14  2  0  0  0  0
 16 17  2  0  0  0  0
 17 18  1  0  0  0  0
 18 22  1  0  0  0  0
 19 18  2  0  0  0  0
 20 14  1  0  0  0  0
 21 15  1  0  0  0  0
 23 25  1  0  0  0  0
 23  5  1  0  0  0  0
 25 26  1  0  0  0  0
 25 24  2  1  0  0  0
 27 26  1  0  0  0  0
 28 25  1  0  0  0  0
 29 30  1  0  0  0  0
 30 31  2  0  0  0  0
 30 28  1  0  0  0  0
 31 32  1  0  0  0  0
 33 31  1  0  0  0  0
 34 33  1  0  0  0  0
 34 40  1  0  0  0  0
 35 34  1  0  0  0  0
 36 35  1  0  0  0  0
 37 35  2  0  0  0  0
 37 38  1  0  0  0  0
 38 33  2  0  0  0  0
 39 38  1  0  0  0  0
 39 29  2  0  0  0  0
M  END
>  <minimizedAffinity>
-5.52067184

>  <minimizedRMSD>
0.936546743

$$$$
