
 OpenBabel03252508593D

 48 51  0  0  1  0  0  0  0  0999 V2000
   47.1720   34.1630   43.0910 N   0  0  0  0  0  0  0  0  0  0  0  0
   46.7270   35.2980   42.3660 C   0  0  0  0  0  0  0  0  0  0  0  0
   45.2640   35.6290   42.5110 C   0  0  0  0  0  0  0  0  0  0  0  0
   44.6760   35.2850   43.8540 C   0  0  0  0  0  0  0  0  0  0  0  0
   45.7270   34.7740   44.8090 C   0  0  0  0  0  0  0  0  0  0  0  0
   46.3550   33.5570   44.0340 C   0  0  2  0  0  0  0  0  0  0  0  0
   46.9630   35.3140   41.3000 H   0  0  0  0  0  0  0  0  0  0  0  0
   47.2780   36.1820   42.8080 H   0  0  0  0  0  0  0  0  0  0  0  0
   45.1420   36.7290   42.2930 H   0  0  0  0  0  0  0  0  0  0  0  0
   44.7000   35.1010   41.7060 H   0  0  0  0  0  0  0  0  0  0  0  0
   44.2340   36.1940   44.3150 H   0  0  0  0  0  0  0  0  0  0  0  0
   43.8960   34.5200   43.7530 H   0  0  0  0  0  0  0  0  0  0  0  0
   45.2480   34.3670   45.7050 H   0  0  0  0  0  0  0  0  0  0  0  0
   46.5270   35.4910   45.0000 H   0  0  0  0  0  0  0  0  0  0  0  0
   45.5000   32.9390   43.6700 H   0  0  0  0  0  0  0  0  0  0  0  0
   48.1340   33.3620   42.3940 C   0  0  0  0  0  0  0  0  0  0  0  0
   48.6850   32.7280   43.1350 H   0  0  0  0  0  0  0  0  0  0  0  0
   48.8630   34.0000   41.8900 H   0  0  0  0  0  0  0  0  0  0  0  0
   47.4080   32.4130   41.4890 C   0  0  0  0  0  0  0  0  0  0  0  0
   46.3450   32.7170   41.3770 H   0  0  0  0  0  0  0  0  0  0  0  0
   47.4060   31.3620   41.8330 H   0  0  0  0  0  0  0  0  0  0  0  0
   49.3410   31.5100   38.3980 C   0  0  0  0  0  0  0  0  0  0  0  0
   48.7760   31.4530   39.6850 C   0  0  0  0  0  0  0  0  0  0  0  0
   47.9960   32.4920   40.1260 C   0  0  0  0  0  0  0  0  0  0  0  0
   47.8090   33.5240   39.2960 N   0  0  0  0  0  0  0  0  0  0  0  0
   48.3470   33.5820   38.0660 C   0  0  0  0  0  0  0  0  0  0  0  0
   49.1140   32.5820   37.6050 N   0  0  0  0  0  0  0  0  0  0  0  0
   49.9620   30.7210   38.0010 H   0  0  0  0  0  0  0  0  0  0  0  0
   48.9680   30.6000   40.2920 H   0  0  0  0  0  0  0  0  0  0  0  0
   48.1250   34.4690   37.4850 H   0  0  0  0  0  0  0  0  0  0  0  0
   47.0950   32.9450   45.0380 O   0  0  0  0  0  0  0  0  0  0  0  0
   45.7420   30.7530   44.4100 O   0  0  0  0  0  0  0  0  0  0  0  0
   46.4150   31.4910   45.5510 P   0  0  2  0  0  0  0  0  0  0  0  0
   45.1480   31.9150   46.6220 O   0  0  0  0  0  0  0  0  0  0  0  0
   45.4740   31.8530   47.5540 H   0  0  0  0  0  0  0  0  0  0  0  0
   47.5190   30.5640   46.3870 O   0  0  0  0  0  0  0  0  0  0  0  0
   46.1040   28.7930   47.0460 C   0  0  0  0  0  3  0  0  0  0  0  0
   47.3950   29.2570   46.7670 C   0  0  0  0  0  0  0  0  0  0  0  0
   48.4480   28.3720   46.8920 C   0  0  0  0  0  0  0  0  0  0  0  0
   49.4570   28.7260   46.6760 H   0  0  0  0  0  0  0  0  0  0  0  0
   48.1990   27.0540   47.2900 C   0  0  0  0  0  0  0  0  0  0  0  0
   49.0600   26.0190   47.4780 N   0  0  0  0  0  0  0  0  0  0  0  0
   48.3770   24.9220   47.8650 C   0  0  0  0  0  0  0  0  0  0  0  0
   48.8300   23.9620   48.0810 H   0  0  0  0  0  0  0  0  0  0  0  0
   47.0750   25.2800   47.9160 N   0  0  0  0  0  0  0  0  0  0  0  0
   46.9320   26.5850   47.5680 C   0  0  0  0  0  0  0  0  0  0  0  0
   45.8890   27.4770   47.4390 C   0  0  0  0  0  3  0  0  0  0  0  0
   50.0900   26.1040   47.3350 H   0  0  0  0  0  0  0  0  0  0  0  0
  1  6  1  0  0  0  0
  2  3  1  0  0  0  0
  2  8  1  0  0  0  0
  2  1  1  0  0  0  0
  3  4  1  0  0  0  0
  4 11  1  0  0  0  0
  4  5  1  0  0  0  0
  5 14  1  0  0  0  0
  5 13  1  0  0  0  0
  6 15  1  6  0  0  0
  6  5  1  0  0  0  0
  6 31  1  0  0  0  0
  7  2  1  0  0  0  0
  9  3  1  0  0  0  0
 10  3  1  0  0  0  0
 12  4  1  0  0  0  0
 16  1  1  0  0  0  0
 16 17  1  0  0  0  0
 18 16  1  0  0  0  0
 19 21  1  0  0  0  0
 19 16  1  0  0  0  0
 20 19  1  0  0  0  0
 22 23  1  0  0  0  0
 23 24  2  0  0  0  0
 23 29  1  0  0  0  0
 24 19  1  0  0  0  0
 25 24  1  0  0  0  0
 26 25  2  0  0  0  0
 27 26  1  0  0  0  0
 27 22  2  0  0  0  0
 28 22  1  0  0  0  0
 30 26  1  0  0  0  0
 31 33  1  0  0  0  0
 33 32  2  6  0  0  0
 33 36  1  0  0  0  0
 33 34  1  0  0  0  0
 34 35  1  0  0  0  0
 36 38  1  0  0  0  0
 37 47  1  0  0  0  0
 38 39  1  0  0  0  0
 38 37  2  0  0  0  0
 39 41  2  0  0  0  0
 40 39  1  0  0  0  0
 41 42  1  0  0  0  0
 41 46  1  0  0  0  0
 42 43  1  0  0  0  0
 43 45  2  0  0  0  0
 43 44  1  0  0  0  0
 46 45  1  0  0  0  0
 47 46  2  0  0  0  0
 48 42  1  0  0  0  0
M  END
>  <minimizedAffinity>
-4.10975027

>  <minimizedRMSD>
1.04027545

$$$$
