REMARK  Name = 
REMARK  4 active torsions:
REMARK  status: ('A' for Active; 'I' for Inactive)
REMARK    1  A    between atoms: C_3  and  C_10
REMARK    2  A    between atoms: C_4  and  C_15
REMARK    3  A    between atoms: C_14  and  S_20
REMARK    4  A    between atoms: S_20  and  C_34
REMARK                            x       y       z     vdW  Elec       q    Type
REMARK                         _______ _______ _______ _____ _____    ______ ____
ROOT
ATOM      1  C   UNL     1      47.788  31.871  38.986  0.00  0.00    +0.000 A 
ATOM      2  C   UNL     1      47.232  33.112  38.876  0.00  0.00    +0.000 A 
ATOM      3  C   UNL     1      47.771  34.028  37.988  0.00  0.00    +0.000 A 
ATOM      4  C   UNL     1      48.861  33.695  37.217  0.00  0.00    +0.000 A 
ATOM      5  C   UNL     1      49.457  32.440  37.299  0.00  0.00    +0.000 A 
ATOM      6  C   UNL     1      48.895  31.532  38.203  0.00  0.00    +0.000 A 
ATOM      7  H   UNL     1      47.346  35.021  37.883  0.00  0.00    +0.000 HD
ATOM      8  H   UNL     1      49.338  34.337  36.509  0.00  0.00    +0.000 HD
ATOM      9  H   UNL     1      50.306  32.093  36.740  0.00  0.00    +0.000 HD
ATOM     10  H   UNL     1      49.337  30.541  38.292  0.00  0.00    +0.000 HD
ENDROOT
BRANCH   2  14
ATOM     11 CL   UNL     1      45.278  35.283  43.133  0.00  0.00    +0.000 Cl
ATOM     12  C   UNL     1      45.156  34.529  41.564  0.00  0.00    +0.000 A 
ATOM     13  C   UNL     1      46.267  34.145  40.883  0.00  0.00    +0.000 A 
ATOM     14  C   UNL     1      46.074  33.559  39.637  0.00  0.00    +0.000 A 
ATOM     15  C   UNL     1      44.822  33.377  39.109  0.00  0.00    +0.000 A 
ATOM     16  C   UNL     1      43.721  33.766  39.802  0.00  0.00    +0.000 A 
ATOM     17  C   UNL     1      43.895  34.348  41.044  0.00  0.00    +0.000 A 
ATOM     18  H   UNL     1      44.735  32.916  38.130  0.00  0.00    +0.000 HD
ATOM     19  H   UNL     1      42.758  33.603  39.353  0.00  0.00    +0.000 HD
ATOM     20  H   UNL     1      42.997  34.645  41.567  0.00  0.00    +0.000 HD
BRANCH  13  23
ATOM     21  C   UNL     1      49.541  35.748  41.891  0.00  0.00    +0.000 A 
ATOM     22  C   UNL     1      48.281  35.546  41.319  0.00  0.00    +0.000 A 
ATOM     23  C   UNL     1      47.576  34.364  41.468  0.00  0.00    +0.000 A 
ATOM     24  N   UNL     1      48.216  33.450  42.206  0.00  0.00    +0.000 NA
ATOM     25  C   UNL     1      49.415  33.622  42.760  0.00  0.00    +0.000 A 
ATOM     26  N   UNL     1      50.076  34.760  42.607  0.00  0.00    +0.000 NA
ATOM     27  H   UNL     1      50.052  36.687  41.747  0.00  0.00    +0.000 HD
ATOM     28  H   UNL     1      47.831  36.351  40.729  0.00  0.00    +0.000 HD
ATOM     29  H   UNL     1      49.761  32.754  43.323  0.00  0.00    +0.000 HD
ENDBRANCH  13  23
ENDBRANCH   2  14
BRANCH   1  30
ATOM     30  S   UNL     1      47.190  30.721  40.068  0.00  0.00    +0.000 S 
ATOM     31  O   UNL     1      46.810  29.439  39.282  0.00  0.00    +0.000 OA
ATOM     32  O   UNL     1      48.382  30.270  40.910  0.00  0.00    +0.000 OA
BRANCH  30  34
ATOM     33  C   UNL     1      45.840  31.374  42.371  0.00  0.00    +0.000 A 
ATOM     34  C   UNL     1      45.787  30.906  41.027  0.00  0.00    +0.000 A 
ATOM     35  C   UNL     1      44.450  30.729  40.696  0.00  0.00    +0.000 A 
ATOM     36  H   UNL     1      44.256  30.404  39.685  0.00  0.00    +0.000 HD
ATOM     37  C   UNL     1      43.345  30.940  41.459  0.00  0.00    +0.000 A 
ATOM     38  N   UNL     1      42.028  30.804  41.248  0.00  0.00    +0.000 N 
ATOM     39  C   UNL     1      41.419  31.176  42.411  0.00  0.00    +0.000 A 
ATOM     40  H   UNL     1      40.343  31.169  42.539  0.00  0.00    +0.000 HD
ATOM     41  N   UNL     1      42.367  31.536  43.320  0.00  0.00    +0.000 NA
ATOM     42  C   UNL     1      43.575  31.393  42.738  0.00  0.00    +0.000 A 
ATOM     43  C   UNL     1      44.821  31.633  43.261  0.00  0.00    +0.000 A 
ATOM     44  H   UNL     1      41.584  30.480  40.372  0.00  0.00    +0.000 HD
ENDBRANCH  30  34
ENDBRANCH   1  30
TORSDOF 4
