
 OpenBabel03252509043D

 51 54  0  0  1  0  0  0  0  0999 V2000
   47.1490   34.1640   43.0760 N   0  0  0  0  0  0  0  0  0  0  0  0
   46.6500   35.3350   42.4650 C   0  0  0  0  0  0  0  0  0  0  0  0
   45.1570   35.5430   42.6390 C   0  0  0  0  0  0  0  0  0  0  0  0
   44.6320   35.0920   43.9750 C   0  0  0  0  0  0  0  0  0  0  0  0
   45.7330   34.5620   44.8620 C   0  0  0  0  0  0  0  0  0  0  0  0
   46.4150   33.4420   43.9830 C   0  0  2  0  0  0  0  0  0  0  0  0
   46.8510   35.4540   41.3960 H   0  0  0  0  0  0  0  0  0  0  0  0
   47.1390   36.2260   42.9510 H   0  0  0  0  0  0  0  0  0  0  0  0
   44.5800   35.0220   41.8330 H   0  0  0  0  0  0  0  0  0  0  0  0
   44.9180   36.6220   42.5120 H   0  0  0  0  0  0  0  0  0  0  0  0
   44.1450   35.9400   44.5390 H   0  0  0  0  0  0  0  0  0  0  0  0
   43.8510   34.3100   43.8960 H   0  0  0  0  0  0  0  0  0  0  0  0
   46.4760   35.3250   45.1320 H   0  0  0  0  0  0  0  0  0  0  0  0
   45.2910   34.0170   45.7110 H   0  0  0  0  0  0  0  0  0  0  0  0
   45.5870   32.8160   43.6040 H   0  0  0  0  0  0  0  0  0  0  0  0
   48.1690   33.4870   42.3110 C   0  0  0  0  0  0  0  0  0  0  0  0
   48.7230   34.2800   41.7660 H   0  0  0  0  0  0  0  0  0  0  0  0
   48.9410   32.9820   42.9390 H   0  0  0  0  0  0  0  0  0  0  0  0
   47.4850   32.5850   41.3360 C   0  0  0  0  0  0  0  0  0  0  0  0
   47.5960   31.5390   41.6190 H   0  0  0  0  0  0  0  0  0  0  0  0
   46.3840   32.7940   41.2730 H   0  0  0  0  0  0  0  0  0  0  0  0
   49.3950   32.0830   38.1410 C   0  0  0  0  0  0  0  0  0  0  0  0
   48.8640   31.8710   39.4280 C   0  0  0  0  0  0  0  0  0  0  0  0
   48.0390   32.8210   39.9780 C   0  0  0  0  0  0  0  0  0  0  0  0
   47.7800   33.9110   39.2520 N   0  0  0  0  0  0  0  0  0  0  0  0
   48.2860   34.1100   38.0290 C   0  0  0  0  0  0  0  0  0  0  0  0
   49.0940   33.2130   37.4550 N   0  0  0  0  0  0  0  0  0  0  0  0
   50.0480   31.3430   37.6950 H   0  0  0  0  0  0  0  0  0  0  0  0
   49.1330   30.9550   39.9380 H   0  0  0  0  0  0  0  0  0  0  0  0
   47.9740   35.0470   37.5820 H   0  0  0  0  0  0  0  0  0  0  0  0
   47.1940   32.8020   44.9280 O   0  0  0  0  0  0  0  0  0  0  0  0
   46.0420   30.5770   44.0200 O   0  0  0  0  0  0  0  0  0  0  0  0
   46.6560   31.2360   45.2530 P   0  0  2  0  0  0  0  0  0  0  0  0
   45.3450   31.4200   46.3460 O   0  0  0  0  0  0  0  0  0  0  0  0
   44.6410   30.7720   46.1700 H   0  0  0  0  0  0  0  0  0  0  0  0
   47.7900   30.2800   45.9900 O   0  0  0  0  0  0  0  0  0  0  0  0
   47.7030   28.9940   45.4810 C   0  0  0  0  0  0  0  0  0  0  0  0
   46.7030   28.6070   45.7300 H   0  0  0  0  0  0  0  0  0  0  0  0
   47.9010   28.9250   44.4080 H   0  0  0  0  0  0  0  0  0  0  0  0
   48.9310   28.2580   47.5660 C   0  0  0  0  0  3  0  0  0  0  0  0
   48.7480   28.1830   46.1980 C   0  0  0  0  0  0  0  0  0  0  0  0
   49.5360   27.3390   45.4150 C   0  0  0  0  0  0  0  0  0  0  0  0
   49.3870   27.2830   44.3290 H   0  0  0  0  0  0  0  0  0  0  0  0
   50.5080   26.5720   46.0120 C   0  0  0  0  0  0  0  0  0  0  0  0
   51.3650   25.7020   45.4370 N   0  0  0  0  0  0  0  0  0  0  0  0
   52.1280   25.1910   46.4270 C   0  0  0  0  0  0  0  0  0  0  0  0
   52.9160   24.4650   46.3140 H   0  0  0  0  0  0  0  0  0  0  0  0
   51.7270   25.7570   47.6030 N   0  0  0  0  0  0  0  0  0  0  0  0
   50.7220   26.6180   47.3770 C   0  0  0  0  0  0  0  0  0  0  0  0
   49.9290   27.4640   48.1380 C   0  0  0  0  0  3  0  0  0  0  0  0
   51.4920   25.4130   44.4340 H   0  0  0  0  0  0  0  0  0  0  0  0
  1  6  1  0  0  0  0
  2  3  1  0  0  0  0
  2  8  1  0  0  0  0
  2  1  1  0  0  0  0
  3  4  1  0  0  0  0
  4 11  1  0  0  0  0
  4  5  1  0  0  0  0
  5 13  1  0  0  0  0
  5 14  1  0  0  0  0
  6 15  1  6  0  0  0
  6  5  1  0  0  0  0
  6 31  1  0  0  0  0
  7  2  1  0  0  0  0
  9  3  1  0  0  0  0
 10  3  1  0  0  0  0
 12  4  1  0  0  0  0
 16 18  1  0  0  0  0
 16  1  1  0  0  0  0
 17 16  1  0  0  0  0
 19 20  1  0  0  0  0
 19 16  1  0  0  0  0
 21 19  1  0  0  0  0
 22 23  1  0  0  0  0
 23 29  1  0  0  0  0
 23 24  2  0  0  0  0
 24 19  1  0  0  0  0
 25 24  1  0  0  0  0
 26 25  2  0  0  0  0
 27 26  1  0  0  0  0
 27 22  2  0  0  0  0
 28 22  1  0  0  0  0
 30 26  1  0  0  0  0
 31 33  1  0  0  0  0
 33 32  2  6  0  0  0
 33 36  1  0  0  0  0
 33 34  1  0  0  0  0
 35 34  1  0  0  0  0
 37 38  1  0  0  0  0
 37 36  1  0  0  0  0
 37 41  1  0  0  0  0
 39 37  1  0  0  0  0
 40 50  1  0  0  0  0
 41 40  2  0  0  0  0
 42 44  2  0  0  0  0
 42 41  1  0  0  0  0
 43 42  1  0  0  0  0
 44 49  1  0  0  0  0
 45 44  1  0  0  0  0
 45 46  1  0  0  0  0
 46 48  2  0  0  0  0
 47 46  1  0  0  0  0
 49 48  1  0  0  0  0
 49 50  2  0  0  0  0
 51 45  1  0  0  0  0
M  END
>  <minimizedAffinity>
-3.71268511

>  <minimizedRMSD>
0.322758049

$$$$
