
 OpenBabel03252505273D

 27 29  0  0  0  0  0  0  0  0999 V2000
   47.0130   31.3840   48.1020 O   0  0  0  0  0  0  0  0  0  0  0  0
   45.9840   31.9240   47.1100 P   0  0  1  0  0  0  0  0  0  0  0  0
   44.6180   32.4970   47.9160 O   0  0  0  0  0  0  0  0  0  0  0  0
   44.8400   33.3230   48.3880 H   0  0  0  0  0  0  0  0  0  0  0  0
   46.7320   33.1480   46.2470 O   0  0  0  0  0  0  0  0  0  0  0  0
   44.4640   35.4980   44.8460 C   0  0  0  0  0  0  0  0  0  0  0  0
   44.8630   35.6380   43.5050 C   0  0  0  0  0  0  0  0  0  0  0  0
   45.9710   34.8700   43.1030 C   0  0  0  0  0  0  0  0  0  0  0  0
   46.5650   34.0610   44.0200 N   0  0  0  0  0  0  0  0  0  0  0  0
   46.1420   33.9650   45.2940 C   0  0  0  0  0  0  0  0  0  0  0  0
   45.0850   34.6870   45.7080 N   0  0  0  0  0  0  0  0  0  0  0  0
   43.6030   36.0810   45.2020 H   0  0  0  0  0  0  0  0  0  0  0  0
   44.3630   36.2900   42.8120 H   0  0  0  0  0  0  0  0  0  0  0  0
   46.3310   34.9310   42.0790 H   0  0  0  0  0  0  0  0  0  0  0  0
   45.5040   30.6160   46.1470 O   0  0  0  0  0  0  0  0  0  0  0  0
   45.5020   28.2930   45.8200 C   0  0  0  0  0  0  0  0  0  0  0  0
   45.3180   29.3540   46.6950 C   0  0  0  0  0  0  0  0  0  0  0  0
   44.9750   29.0550   47.9960 C   0  0  0  0  0  0  0  0  0  0  0  0
   44.8400   29.8820   48.6460 H   0  0  0  0  0  0  0  0  0  0  0  0
   44.8290   27.7220   48.3790 C   0  0  0  0  0  0  0  0  0  0  0  0
   44.5050   27.1860   49.5700 N   0  0  0  0  0  0  0  0  0  0  0  0
   44.4880   25.8390   49.4450 C   0  0  0  0  0  0  0  0  0  0  0  0
   44.2720   25.1010   50.1860 H   0  0  0  0  0  0  0  0  0  0  0  0
   44.7990   25.5270   48.1800 N   0  0  0  0  0  0  0  0  0  0  0  0
   45.0190   26.6670   47.4790 C   0  0  0  0  0  0  0  0  0  0  0  0
   45.3640   26.9660   46.1720 C   0  0  0  0  0  0  0  0  0  0  0  0
   44.3010   27.7070   50.4450 H   0  0  0  0  0  0  0  0  0  0  0  0
  2  3  1  0  0  0  0
  2  1  2  1  0  0  0
  3  4  1  0  0  0  0
  5  2  1  0  0  0  0
  6 12  1  0  0  0  0
  6 11  1  0  0  0  0
  7  6  2  0  0  0  0
  8  7  1  0  0  0  0
  8  9  2  0  0  0  0
  9 10  1  0  0  0  0
 10 11  2  0  0  0  0
 10  5  1  0  0  0  0
 13  7  1  0  0  0  0
 14  8  1  0  0  0  0
 15 17  1  0  0  0  0
 15  2  1  0  0  0  0
 16 26  2  0  0  0  0
 16 17  1  0  0  0  0
 17 18  2  0  0  0  0
 18 20  1  0  0  0  0
 18 19  1  0  0  0  0
 20 21  1  0  0  0  0
 21 27  1  0  0  0  0
 22 21  1  0  0  0  0
 22 23  1  0  0  0  0
 24 22  2  0  0  0  0
 25 24  1  0  0  0  0
 25 20  2  0  0  0  0
 26 25  1  0  0  0  0
M  END
>  <minimizedAffinity>
-4.98471069

>  <minimizedRMSD>
1.54479182

$$$$
