
 OpenBabel03252509083D

 44 48  0  0  0  0  0  0  0  0999 V2000
   47.5520   31.7160   39.1140 C   0  0  0  0  0  0  0  0  0  0  0  0
   47.1070   32.9940   38.9420 C   0  0  0  0  0  0  0  0  0  0  0  0
   47.7690   33.8380   38.0670 C   0  0  0  0  0  0  0  0  0  0  0  0
   48.8720   33.3980   37.3710 C   0  0  0  0  0  0  0  0  0  0  0  0
   49.3580   32.1020   37.5180 C   0  0  0  0  0  0  0  0  0  0  0  0
   48.6720   31.2670   38.4070 C   0  0  0  0  0  0  0  0  0  0  0  0
   47.4340   34.8590   37.9130 H   0  0  0  0  0  0  0  0  0  0  0  0
   49.4400   33.9790   36.6790 H   0  0  0  0  0  0  0  0  0  0  0  0
   50.2070   31.6730   37.0200 H   0  0  0  0  0  0  0  0  0  0  0  0
   49.0260   30.2470   38.5460 H   0  0  0  0  0  0  0  0  0  0  0  0
   45.1050   35.5200   42.9750 Cl  0  0  0  0  0  0  0  0  0  0  0  0
   45.0060   34.6860   41.4450 C   0  0  0  0  0  0  0  0  0  0  0  0
   46.1200   34.1970   40.8400 C   0  0  0  0  0  0  0  0  0  0  0  0
   45.9460   33.5530   39.6200 C   0  0  0  0  0  0  0  0  0  0  0  0
   44.7100   33.4170   39.0430 C   0  0  0  0  0  0  0  0  0  0  0  0
   43.6060   33.9110   39.6600 C   0  0  0  0  0  0  0  0  0  0  0  0
   43.7610   34.5520   40.8760 C   0  0  0  0  0  0  0  0  0  0  0  0
   44.6380   32.9070   38.0880 H   0  0  0  0  0  0  0  0  0  0  0  0
   42.6560   33.7810   39.1750 H   0  0  0  0  0  0  0  0  0  0  0  0
   42.8610   34.9320   41.3380 H   0  0  0  0  0  0  0  0  0  0  0  0
   49.4710   35.6220   41.8630 C   0  0  0  0  0  0  0  0  0  0  0  0
   48.2270   35.4640   41.2420 C   0  0  0  0  0  0  0  0  0  0  0  0
   47.4130   34.3690   41.4750 C   0  0  0  0  0  0  0  0  0  0  0  0
   47.9310   33.4930   42.3430 N   0  0  0  0  0  0  0  0  0  0  0  0
   49.1120   33.6250   42.9450 C   0  0  0  0  0  0  0  0  0  0  0  0
   49.8790   34.6790   42.7110 N   0  0  0  0  0  0  0  0  0  0  0  0
   50.0700   36.4930   41.6500 H   0  0  0  0  0  0  0  0  0  0  0  0
   47.8810   36.2330   40.5440 H   0  0  0  0  0  0  0  0  0  0  0  0
   49.3500   32.7990   43.6170 H   0  0  0  0  0  0  0  0  0  0  0  0
   46.8000   30.6480   40.1840 S   0  0  0  0  0  0  0  0  0  0  0  0
   47.0250   29.1960   39.6880 O   0  0  0  0  0  0  0  0  0  0  0  0
   47.6110   30.7010   41.4770 O   0  0  0  0  0  0  0  0  0  0  0  0
   44.1810   30.0960   39.5600 C   0  0  0  0  0  3  0  0  0  0  0  0
   45.1220   30.5940   40.5050 C   0  0  0  0  0  0  0  0  0  0  0  0
   44.4250   30.9180   41.6630 C   0  0  0  0  0  0  0  0  0  0  0  0
   45.0220   31.2830   42.4830 H   0  0  0  0  0  0  0  0  0  0  0  0
   43.0940   30.8110   41.9170 C   0  0  0  0  0  0  0  0  0  0  0  0
   42.3230   31.0890   42.9780 N   0  0  0  0  0  0  0  0  0  0  0  0
   41.0490   30.7610   42.6160 C   0  0  0  0  0  0  0  0  0  0  0  0
   40.2010   30.8800   43.2790 H   0  0  0  0  0  0  0  0  0  0  0  0
   41.0540   30.2840   41.3400 N   0  0  0  0  0  0  0  0  0  0  0  0
   42.3240   30.3100   40.8910 C   0  0  0  0  0  0  0  0  0  0  0  0
   42.8180   29.9280   39.6690 C   0  0  0  0  0  3  0  0  0  0  0  0
   42.6490   31.4770   43.8790 H   0  0  0  0  0  0  0  0  0  0  0  0
  1 30  1  0  0  0  0
  2  1  1  0  0  0  0
  2 14  1  0  0  0  0
  3  2  2  0  0  0  0
  4  5  2  0  0  0  0
  4  3  1  0  0  0  0
  5  6  1  0  0  0  0
  6 10  1  0  0  0  0
  6  1  2  0  0  0  0
  7  3  1  0  0  0  0
  8  4  1  0  0  0  0
  9  5  1  0  0  0  0
 12 11  1  0  0  0  0
 13 12  2  0  0  0  0
 13 23  1  0  0  0  0
 14 13  1  0  0  0  0
 15 14  2  0  0  0  0
 15 16  1  0  0  0  0
 16 17  2  0  0  0  0
 17 20  1  0  0  0  0
 17 12  1  0  0  0  0
 18 15  1  0  0  0  0
 19 16  1  0  0  0  0
 21 26  1  0  0  0  0
 22 23  1  0  0  0  0
 22 21  2  0  0  0  0
 23 24  2  0  0  0  0
 24 25  1  0  0  0  0
 25 29  1  0  0  0  0
 26 25  2  0  0  0  0
 27 21  1  0  0  0  0
 28 22  1  0  0  0  0
 30 34  1  0  0  0  0
 30 32  2  0  0  0  0
 31 30  2  0  0  0  0
 33 43  2  0  0  0  0
 33 34  1  0  0  0  0
 34 35  2  0  0  0  0
 35 37  1  0  0  0  0
 35 36  1  0  0  0  0
 37 38  1  0  0  0  0
 38 44  1  0  0  0  0
 39 38  1  0  0  0  0
 39 40  1  0  0  0  0
 41 39  2  0  0  0  0
 42 41  1  0  0  0  0
 42 37  2  0  0  0  0
 43 42  1  0  0  0  0
M  END
>  <minimizedAffinity>
-5.3109746

>  <minimizedRMSD>
1.11613512

$$$$
