REMARK  Name = 
REMARK  2 active torsions:
REMARK  status: ('A' for Active; 'I' for Inactive)
REMARK    1  A    between atoms: C_3  and  N_9
REMARK    2  A    between atoms: C_7  and  C_15
REMARK                            x       y       z     vdW  Elec       q    Type
REMARK                         _______ _______ _______ _____ _____    ______ ____
ROOT
ATOM      1  C   UNL     1      46.395  34.185  40.795  0.00  0.00    +0.000 C 
ATOM      2  O   UNL     1      45.223  33.738  40.930  0.00  0.00    +0.000 OA
ATOM      3  N   UNL     1      46.878  34.867  41.941  0.00  0.00    +0.000 N 
ATOM      4  H   UNL     1      47.804  35.346  41.940  0.00  0.00    +0.000 HD
ENDROOT
BRANCH   1   6
ATOM      5  C   UNL     1      48.582  33.958  39.565  0.00  0.00    +0.000 A 
ATOM      6  C   UNL     1      47.205  34.034  39.591  0.00  0.00    +0.000 A 
ATOM      7  C   UNL     1      46.545  33.961  38.374  0.00  0.00    +0.000 A 
ATOM      8  H   UNL     1      45.471  34.006  38.234  0.00  0.00    +0.000 HD
ATOM      9  C   UNL     1      47.241  33.816  37.173  0.00  0.00    +0.000 A 
ATOM     10  N   UNL     1      46.940  33.717  35.871  0.00  0.00    +0.000 N 
ATOM     11  C   UNL     1      48.063  33.592  35.144  0.00  0.00    +0.000 A 
ATOM     12  H   UNL     1      48.175  33.489  34.066  0.00  0.00    +0.000 HD
ATOM     13  N   UNL     1      49.145  33.606  35.959  0.00  0.00    +0.000 NA
ATOM     14  C   UNL     1      48.620  33.744  37.191  0.00  0.00    +0.000 A 
ATOM     15  C   UNL     1      49.287  33.816  38.394  0.00  0.00    +0.000 A 
ATOM     16  H   UNL     1      45.961  33.735  35.494  0.00  0.00    +0.000 HD
ENDBRANCH   1   6
BRANCH   3  19
ATOM     17  C   UNL     1      44.533  36.046  44.570  0.00  0.00    +0.000 A 
ATOM     18  C   UNL     1      45.252  36.003  43.356  0.00  0.00    +0.000 A 
ATOM     19  C   UNL     1      46.139  34.942  43.151  0.00  0.00    +0.000 A 
ATOM     20  N   UNL     1      46.282  34.002  44.106  0.00  0.00    +0.000 NA
ATOM     21  C   UNL     1      45.569  34.072  45.275  0.00  0.00    +0.000 A 
ATOM     22  N   UNL     1      44.714  35.087  45.482  0.00  0.00    +0.000 NA
ATOM     23  H   UNL     1      43.839  36.852  44.761  0.00  0.00    +0.000 HD
ATOM     24  H   UNL     1      45.096  36.789  42.622  0.00  0.00    +0.000 HD
ATOM     25  H   UNL     1      45.762  33.266  45.968  0.00  0.00    +0.000 HD
ENDBRANCH   3  19
TORSDOF 2
