
     RDKit          3D

 54 58  0  0  0  0  0  0  0  0999 V2000
   47.5564   31.9636   46.4097 C   0  0  2  0  0  0  0  0  0  0  0  0
   47.2942   30.4940   45.9583 C   0  0  0  0  0  0  0  0  0  0  0  0
   48.1108   29.5699   46.7961 C   0  0  0  0  0  0  0  0  0  0  0  0
   48.1160   29.8458   48.2621 C   0  0  0  0  0  0  0  0  0  0  0  0
   48.1273   31.2473   48.6049 C   0  0  0  0  0  0  0  0  0  0  0  0
   47.1290   32.0963   47.7875 C   0  0  2  0  0  0  0  0  0  0  0  0
   46.9088   32.9131   45.5263 C   0  0  0  0  0  0  0  0  0  0  0  0
   45.8009   33.5882   46.0146 C   0  0  0  0  0  0  0  0  0  0  0  0
   45.1207   34.5091   45.1833 C   0  0  0  0  0  0  0  0  0  0  0  0
   45.6321   34.6761   43.8978 N   0  0  0  0  0  0  0  0  0  0  0  0
   46.7062   33.9948   43.4911 C   0  0  0  0  0  0  0  0  0  0  0  0
   47.3336   33.1292   44.2875 N   0  0  0  0  0  0  0  0  0  0  0  0
   47.2055   34.2321   42.1316 C   0  0  0  0  0  0  0  0  0  0  0  0
   48.1910   35.1634   41.8904 C   0  0  0  0  0  0  0  0  0  0  0  0
   48.7104   35.4402   40.6441 C   0  0  0  0  0  0  0  0  0  0  0  0
   48.1675   34.7048   39.6141 C   0  0  0  0  0  0  0  0  0  0  0  0
   47.1838   33.7719   39.8377 C   0  0  0  0  0  0  0  0  0  0  0  0
   46.7029   33.5361   41.0986 N   0  0  0  0  0  0  0  0  0  0  0  0
   45.7893   31.5298   47.9529 N   0  0  0  0  0  0  0  0  0  0  0  0
   45.1911   30.8497   49.0276 C   0  0  0  0  0  0  0  0  0  0  0  0
   44.7602   31.4456   50.0796 O   0  0  0  0  0  0  0  0  0  0  0  0
   45.0904   29.4362   48.8572 N   0  0  0  0  0  0  0  0  0  0  0  0
   48.6625   32.0428   46.2726 H   0  0  0  0  0  0  0  0  0  0  0  0
   46.2191   30.2804   45.9313 H   0  0  0  0  0  0  0  0  0  0  0  0
   47.6466   30.4797   44.9067 H   0  0  0  0  0  0  0  0  0  0  0  0
   49.0989   29.4983   46.3011 H   0  0  0  0  0  0  0  0  0  0  0  0
   47.6598   28.5413   46.6765 H   0  0  0  0  0  0  0  0  0  0  0  0
   47.7455   29.0730   48.9350 H   0  0  0  0  0  0  0  0  0  0  0  0
   49.2295   29.5934   48.4873 H   0  0  0  0  0  0  0  0  0  0  0  0
   49.0865   31.8141   48.5222 H   0  0  0  0  0  0  0  0  0  0  0  0
   47.8172   31.3767   49.6755 H   0  0  0  0  0  0  0  0  0  0  0  0
   47.2581   33.0752   48.2521 H   0  0  0  0  0  0  0  0  0  0  0  0
   45.2757   33.6411   46.9454 H   0  0  0  0  0  0  0  0  0  0  0  0
   44.2610   35.1048   45.3942 H   0  0  0  0  0  0  0  0  0  0  0  0
   48.5678   35.7022   42.7540 H   0  0  0  0  0  0  0  0  0  0  0  0
   49.4732   36.1674   40.4906 H   0  0  0  0  0  0  0  0  0  0  0  0
   48.5404   34.8839   38.6170 H   0  0  0  0  0  0  0  0  0  0  0  0
   45.0643   31.5248   47.1398 H   0  0  0  0  0  0  0  0  0  0  0  0
   44.7080   28.8782   48.0904 H   0  0  0  0  0  0  0  0  0  0  0  0
   45.4514   28.8102   49.6099 H   0  0  0  0  0  0  0  0  0  0  0  0
   47.3005   31.9330   38.2208 C   0  0  0  0  0  0  0  0  0  0  0  0
   46.5886   32.9776   38.7711 C   0  0  0  0  0  0  0  0  0  0  0  0
   45.3401   33.1876   38.2514 C   0  0  0  0  0  0  0  0  0  0  0  0
   44.7369   33.9808   38.6336 H   0  0  0  0  0  0  0  0  0  0  0  0
   44.7790   32.4338   37.2413 C   0  0  0  0  0  0  0  0  0  0  0  0
   43.5773   32.4936   36.6108 N   0  0  0  0  0  0  0  0  0  0  0  0
   43.5422   31.5198   35.6992 C   0  0  0  0  0  0  0  0  0  0  0  0
   42.6682   31.3740   35.0674 H   0  0  0  0  0  0  0  0  0  0  0  0
   44.7207   30.8366   35.7458 N   0  0  0  0  0  0  0  0  0  0  0  0
   45.5096   31.3846   36.6973 C   0  0  0  0  0  0  0  0  0  0  0  0
   46.7703   31.1444   37.1964 C   0  0  0  0  0  0  0  0  0  0  0  0
   48.3086   31.6547   38.5408 H   0  0  0  0  0  0  0  0  0  0  0  0
   42.8322   33.1924   36.8256 H   0  0  0  0  0  0  0  0  0  0  0  0
   47.2697   30.3173   36.7240 H   0  0  0  0  0  0  0  0  0  0  0  0
  1  6  1  0
  2  1  1  0
  2  3  1  0
  3  4  1  0
  4  5  1  0
  6 19  1  0
  6  5  1  0
  7  8  2  0
  7  1  1  0
  9  8  1  0
 10  9  2  0
 11 10  1  0
 11 12  2  0
 12  7  1  0
 13 11  1  0
 14 13  2  0
 15 14  1  0
 16 17  1  0
 16 15  2  0
 17 18  2  0
 18 13  1  0
 19 20  1  0
 20 21  2  0
 22 20  1  0
  1 23  1  1
  2 24  1  0
  2 25  1  0
  3 26  1  0
  3 27  1  0
  4 28  1  0
  4 29  1  0
  5 30  1  0
  5 31  1  0
  6 32  1  1
  8 33  1  0
  9 34  1  0
 14 35  1  0
 15 36  1  0
 16 37  1  0
 19 38  1  0
 22 39  1  0
 22 40  1  0
 41 42  2  0
 42 43  1  0
 43 44  1  0
 43 45  2  0
 45 46  1  0
 46 47  1  0
 47 48  1  0
 47 49  2  0
 49 50  1  0
 50 51  2  0
 51 41  1  0
 50 45  1  0
 41 52  1  0
 46 53  1  0
 51 54  1  0
 17 42  1  0
M  ISO  8  23  13  24  13  25  13  26  13  27  13  28  13  29  13  30  13
M  ISO  8  31  13  32  13  33  14  34  14  35  14  36  14  37  14  44  15
M  ISO  1  48  14
M  END
>  <DihAtoms>  (1) 
15,16,41,40

>  <DihDeg>  (1) 
-179.99969715647222

$$$$
