
 OpenBabel03252503333D

 44 47  0  0  1  0  0  0  0  0999 V2000
   39.4220   27.4950   40.8190 C   0  0  0  0  0  0  0  0  0  0  0  0
   38.2780   26.6470   40.8270 C   0  0  0  0  0  0  0  0  0  0  0  0
   38.3600   25.5060   41.6470 C   0  0  0  0  0  0  0  0  0  0  0  0
   39.4880   25.3100   42.3460 N   0  0  0  0  0  0  0  0  0  0  0  0
   40.5470   26.1440   42.3070 C   0  0  0  0  0  0  0  0  0  0  0  0
   40.5040   27.2470   41.5310 N   0  0  0  0  0  0  0  0  0  0  0  0
   38.6270   29.6930   40.5830 C   0  0  0  0  0  0  0  0  0  0  0  0
   38.0000   29.4460   41.6700 O   0  0  0  0  0  0  0  0  0  0  0  0
   39.4220   28.6800   40.0090 N   0  0  0  0  0  0  0  0  0  0  0  0
   38.4760   30.9850   40.0270 N   0  0  0  0  0  0  0  0  0  0  0  0
   37.3870   31.8580   40.5060 C   0  0  0  0  0  0  0  0  0  0  0  0
   37.0650   32.6640   39.2850 C   0  0  0  0  0  0  0  0  0  0  0  0
   38.0670   32.2620   38.2430 C   0  0  0  0  0  0  0  0  0  0  0  0
   39.2230   31.7030   39.0360 C   0  0  1  0  0  0  0  0  0  0  0  0
   37.4400   26.9500   40.2010 H   0  0  0  0  0  0  0  0  0  0  0  0
   41.4370   25.9380   42.8920 H   0  0  0  0  0  0  0  0  0  0  0  0
   39.9080   28.8750   39.1000 H   0  0  0  0  0  0  0  0  0  0  0  0
   37.7420   32.5580   41.2920 H   0  0  0  0  0  0  0  0  0  0  0  0
   36.4940   31.2840   40.7920 H   0  0  0  0  0  0  0  0  0  0  0  0
   36.0190   32.5450   38.9390 H   0  0  0  0  0  0  0  0  0  0  0  0
   37.2180   33.7700   39.4450 H   0  0  0  0  0  0  0  0  0  0  0  0
   37.6030   31.2860   37.8550 H   0  0  0  0  0  0  0  0  0  0  0  0
   38.1780   32.8150   37.3690 H   0  0  0  0  0  0  0  0  0  0  0  0
   39.8050   31.1400   38.2990 H   0  0  0  0  0  0  0  0  0  0  0  0
   41.4320   32.4780   40.1070 C   0  0  0  0  0  0  0  0  0  0  0  0
   41.8480   31.3840   39.6660 O   0  0  0  0  0  0  0  0  0  0  0  0
   40.0660   32.6990   39.6830 N   0  0  0  0  0  0  0  0  0  0  0  0
   39.6230   33.6560   39.8480 H   0  0  0  0  0  0  0  0  0  0  0  0
   42.0360   34.8070   40.8520 C   0  0  0  0  0  3  0  0  0  0  0  0
   42.1530   33.4140   40.9170 C   0  0  0  0  0  0  0  0  0  0  0  0
   43.0270   32.8400   41.8270 C   0  0  0  0  0  0  0  0  0  0  0  0
   43.1620   31.7690   41.9260 H   0  0  0  0  0  0  0  0  0  0  0  0
   43.8040   33.6060   42.6920 C   0  0  0  0  0  0  0  0  0  0  0  0
   44.7160   33.3280   43.6550 N   0  0  0  0  0  0  0  0  0  0  0  0
   45.1190   34.5340   44.1370 C   0  0  0  0  0  0  0  0  0  0  0  0
   45.8500   34.6940   44.9260 H   0  0  0  0  0  0  0  0  0  0  0  0
   44.4820   35.5370   43.5000 N   0  0  0  0  0  0  0  0  0  0  0  0
   43.6730   34.9760   42.6090 C   0  0  0  0  0  0  0  0  0  0  0  0
   42.8130   35.5700   41.7150 C   0  0  0  0  0  3  0  0  0  0  0  0
   45.0210   32.3730   43.9400 H   0  0  0  0  0  0  0  0  0  0  0  0
   37.1710   24.6550   41.6320 C   0  0  0  0  0  0  0  0  0  0  0  0
   37.5740   23.3240   41.5810 F   0  0  0  0  0  0  0  0  0  0  0  0
   36.5230   24.8940   40.4090 F   0  0  0  0  0  0  0  0  0  0  0  0
   36.3500   24.8260   42.7060 F   0  0  0  0  0  0  0  0  0  0  0  0
  1  2  2  0  0  0  0
  1  6  1  0  0  0  0
  2  3  1  0  0  0  0
  3  4  2  0  0  0  0
  5  4  1  0  0  0  0
  5 16  1  0  0  0  0
  6  5  2  0  0  0  0
  7  8  2  0  0  0  0
  9  7  1  0  0  0  0
  9  1  1  0  0  0  0
 10 11  1  0  0  0  0
 10  7  1  0  0  0  0
 11 19  1  0  0  0  0
 11 18  1  0  0  0  0
 12 21  1  0  0  0  0
 12 11  1  0  0  0  0
 13 14  1  0  0  0  0
 13 12  1  0  0  0  0
 14 24  1  6  0  0  0
 14 27  1  0  0  0  0
 14 10  1  0  0  0  0
 15  2  1  0  0  0  0
 17  9  1  0  0  0  0
 20 12  1  0  0  0  0
 22 13  1  0  0  0  0
 23 13  1  0  0  0  0
 25 30  1  0  0  0  0
 26 25  2  0  0  0  0
 27 28  1  0  0  0  0
 27 25  1  0  0  0  0
 29 30  2  0  0  0  0
 29 39  1  0  0  0  0
 30 31  1  0  0  0  0
 31 32  1  0  0  0  0
 31 33  2  0  0  0  0
 33 34  1  0  0  0  0
 34 40  1  0  0  0  0
 34 35  1  0  0  0  0
 35 36  1  0  0  0  0
 37 35  2  0  0  0  0
 38 33  1  0  0  0  0
 38 37  1  0  0  0  0
 39 38  2  0  0  0  0
 41  3  1  0  0  0  0
 41 44  1  0  0  0  0
 42 41  1  0  0  0  0
 43 41  1  0  0  0  0
M  END
>  <minimizedAffinity>
-6.71566582

$$$$

 OpenBabel03252503333D

 44 47  0  0  1  0  0  0  0  0999 V2000
   39.9520   31.1270   40.6200 C   0  0  0  0  0  0  0  0  0  0  0  0
   39.3500   32.3930   40.8780 C   0  0  0  0  0  0  0  0  0  0  0  0
   39.5980   33.3990   39.9260 C   0  0  0  0  0  0  0  0  0  0  0  0
   40.3660   33.0950   38.8690 N   0  0  0  0  0  0  0  0  0  0  0  0
   40.9130   31.8800   38.6680 C   0  0  0  0  0  0  0  0  0  0  0  0
   40.6990   30.8900   39.5590 N   0  0  0  0  0  0  0  0  0  0  0  0
   38.4580   29.4990   41.4160 C   0  0  0  0  0  0  0  0  0  0  0  0
   37.6440   30.0220   40.5790 O   0  0  0  0  0  0  0  0  0  0  0  0
   39.7510   30.0460   41.5420 N   0  0  0  0  0  0  0  0  0  0  0  0
   37.9940   28.3920   42.1660 N   0  0  0  0  0  0  0  0  0  0  0  0
   36.5490   28.0990   42.2080 C   0  0  0  0  0  0  0  0  0  0  0  0
   36.3870   27.4890   43.5660 C   0  0  0  0  0  0  0  0  0  0  0  0
   37.7680   27.3850   44.1450 C   0  0  0  0  0  0  0  0  0  0  0  0
   38.6770   27.3960   42.9390 C   0  0  1  0  0  0  0  0  0  0  0  0
   38.7530   32.4750   41.7850 H   0  0  0  0  0  0  0  0  0  0  0  0
   41.5280   31.6870   37.7950 H   0  0  0  0  0  0  0  0  0  0  0  0
   40.4050   29.6350   42.2530 H   0  0  0  0  0  0  0  0  0  0  0  0
   36.2670   27.3320   41.4550 H   0  0  0  0  0  0  0  0  0  0  0  0
   35.9410   29.0140   42.1600 H   0  0  0  0  0  0  0  0  0  0  0  0
   35.6910   28.0470   44.2230 H   0  0  0  0  0  0  0  0  0  0  0  0
   35.9960   26.4320   43.5210 H   0  0  0  0  0  0  0  0  0  0  0  0
   37.9300   28.4560   44.5240 H   0  0  0  0  0  0  0  0  0  0  0  0
   37.9470   26.8190   44.9990 H   0  0  0  0  0  0  0  0  0  0  0  0
   39.6640   27.6280   43.3520 H   0  0  0  0  0  0  0  0  0  0  0  0
   39.6310   25.8740   41.0950 C   0  0  0  0  0  0  0  0  0  0  0  0
   40.4870   26.7820   41.0070 O   0  0  0  0  0  0  0  0  0  0  0  0
   38.7280   26.1460   42.1930 N   0  0  0  0  0  0  0  0  0  0  0  0
   38.0400   25.3890   42.4960 H   0  0  0  0  0  0  0  0  0  0  0  0
   40.0550   24.5690   38.9830 C   0  0  0  0  0  3  0  0  0  0  0  0
   39.5110   24.7140   40.2640 C   0  0  0  0  0  0  0  0  0  0  0  0
   38.7840   23.6740   40.8230 C   0  0  0  0  0  0  0  0  0  0  0  0
   38.3370   23.7240   41.8090 H   0  0  0  0  0  0  0  0  0  0  0  0
   38.5710   22.4740   40.1490 C   0  0  0  0  0  0  0  0  0  0  0  0
   37.9220   21.3200   40.4370 N   0  0  0  0  0  0  0  0  0  0  0  0
   38.0860   20.5240   39.3470 C   0  0  0  0  0  0  0  0  0  0  0  0
   37.6950   19.5170   39.2280 H   0  0  0  0  0  0  0  0  0  0  0  0
   38.8140   21.1560   38.4040 N   0  0  0  0  0  0  0  0  0  0  0  0
   39.1160   22.3550   38.8880 C   0  0  0  0  0  0  0  0  0  0  0  0
   39.8410   23.3720   38.3120 C   0  0  0  0  0  3  0  0  0  0  0  0
   37.4120   21.1200   41.3240 H   0  0  0  0  0  0  0  0  0  0  0  0
   38.9670   34.6860   40.2190 C   0  0  0  0  0  0  0  0  0  0  0  0
   37.7040   34.7080   39.6340 F   0  0  0  0  0  0  0  0  0  0  0  0
   39.7100   35.6610   39.5330 F   0  0  0  0  0  0  0  0  0  0  0  0
   38.8420   34.9560   41.5480 F   0  0  0  0  0  0  0  0  0  0  0  0
  1  2  1  0  0  0  0
  1  9  1  0  0  0  0
  2 15  1  0  0  0  0
  3 41  1  0  0  0  0
  3  2  2  0  0  0  0
  4  3  1  0  0  0  0
  5  4  2  0  0  0  0
  5  6  1  0  0  0  0
  6  1  2  0  0  0  0
  7  9  1  0  0  0  0
  7 10  1  0  0  0  0
  8  7  2  0  0  0  0
  9 17  1  0  0  0  0
 10 11  1  0  0  0  0
 10 14  1  0  0  0  0
 11 12  1  0  0  0  0
 12 13  1  0  0  0  0
 12 20  1  0  0  0  0
 13 22  1  0  0  0  0
 13 23  1  0  0  0  0
 14 24  1  1  0  0  0
 14 13  1  0  0  0  0
 16  5  1  0  0  0  0
 18 11  1  0  0  0  0
 19 11  1  0  0  0  0
 21 12  1  0  0  0  0
 25 27  1  0  0  0  0
 26 25  2  0  0  0  0
 27 28  1  0  0  0  0
 27 14  1  0  0  0  0
 29 30  1  0  0  0  0
 30 31  2  0  0  0  0
 30 25  1  0  0  0  0
 31 32  1  0  0  0  0
 33 34  1  0  0  0  0
 33 31  1  0  0  0  0
 34 40  1  0  0  0  0
 35 34  1  0  0  0  0
 36 35  1  0  0  0  0
 37 38  1  0  0  0  0
 37 35  2  0  0  0  0
 38 33  2  0  0  0  0
 39 38  1  0  0  0  0
 39 29  2  0  0  0  0
 41 44  1  0  0  0  0
 42 41  1  0  0  0  0
 43 41  1  0  0  0  0
M  END
>  <minimizedAffinity>
-6.69896984

$$$$

 OpenBabel03252503333D

 44 47  0  0  1  0  0  0  0  0999 V2000
   37.2480   24.9080   39.3970 C   0  0  0  0  0  0  0  0  0  0  0  0
   37.6080   23.5720   39.7320 C   0  0  0  0  0  0  0  0  0  0  0  0
   38.0610   22.7690   38.6680 C   0  0  0  0  0  0  0  0  0  0  0  0
   38.1180   23.3150   37.4440 N   0  0  0  0  0  0  0  0  0  0  0  0
   37.7670   24.5890   37.1760 C   0  0  0  0  0  0  0  0  0  0  0  0
   37.3270   25.3880   38.1710 N   0  0  0  0  0  0  0  0  0  0  0  0
   37.8320   26.2420   41.2400 C   0  0  0  0  0  0  0  0  0  0  0  0
   39.0140   25.8060   41.0180 O   0  0  0  0  0  0  0  0  0  0  0  0
   36.7750   25.7940   40.4230 N   0  0  0  0  0  0  0  0  0  0  0  0
   37.6700   27.1600   42.3050 N   0  0  0  0  0  0  0  0  0  0  0  0
   38.7500   27.3180   43.2970 C   0  0  0  0  0  0  0  0  0  0  0  0
   37.9930   27.6680   44.5400 C   0  0  0  0  0  0  0  0  0  0  0  0
   36.5530   27.7870   44.1330 C   0  0  0  0  0  0  0  0  0  0  0  0
   36.6090   28.0610   42.6490 C   0  0  1  0  0  0  0  0  0  0  0  0
   37.5030   23.2840   40.7770 H   0  0  0  0  0  0  0  0  0  0  0  0
   37.8310   24.9810   36.1670 H   0  0  0  0  0  0  0  0  0  0  0  0
   35.8020   26.1290   40.6290 H   0  0  0  0  0  0  0  0  0  0  0  0
   39.4090   28.1780   43.0460 H   0  0  0  0  0  0  0  0  0  0  0  0
   39.2920   26.3780   43.4700 H   0  0  0  0  0  0  0  0  0  0  0  0
   38.1430   26.9480   45.3690 H   0  0  0  0  0  0  0  0  0  0  0  0
   38.2780   28.6800   44.9490 H   0  0  0  0  0  0  0  0  0  0  0  0
   36.2360   26.6840   44.1180 H   0  0  0  0  0  0  0  0  0  0  0  0
   35.8510   28.2090   44.7730 H   0  0  0  0  0  0  0  0  0  0  0  0
   35.5940   27.8450   42.3000 H   0  0  0  0  0  0  0  0  0  0  0  0
   36.9360   29.9630   40.9460 C   0  0  0  0  0  0  0  0  0  0  0  0
   36.3470   29.1680   40.1810 O   0  0  0  0  0  0  0  0  0  0  0  0
   36.9840   29.4220   42.2870 N   0  0  0  0  0  0  0  0  0  0  0  0
   37.3150   30.0470   43.0850 H   0  0  0  0  0  0  0  0  0  0  0  0
   36.8530   32.2520   39.8980 C   0  0  0  0  0  3  0  0  0  0  0  0
   37.5020   31.2340   40.6040 C   0  0  0  0  0  0  0  0  0  0  0  0
   38.8070   31.4200   41.0330 C   0  0  0  0  0  0  0  0  0  0  0  0
   39.3650   30.6710   41.5830 H   0  0  0  0  0  0  0  0  0  0  0  0
   39.5070   32.5990   40.7850 C   0  0  0  0  0  0  0  0  0  0  0  0
   40.7520   33.0480   41.0740 N   0  0  0  0  0  0  0  0  0  0  0  0
   40.8230   34.2990   40.5460 C   0  0  0  0  0  0  0  0  0  0  0  0
   41.6830   34.9620   40.5900 H   0  0  0  0  0  0  0  0  0  0  0  0
   39.6610   34.6270   39.9460 N   0  0  0  0  0  0  0  0  0  0  0  0
   38.8470   33.5870   40.0870 C   0  0  0  0  0  0  0  0  0  0  0  0
   37.5520   33.4270   39.6500 C   0  0  0  0  0  3  0  0  0  0  0  0
   41.4800   32.5150   41.5960 H   0  0  0  0  0  0  0  0  0  0  0  0
   38.4220   21.4030   39.0430 C   0  0  0  0  0  0  0  0  0  0  0  0
   37.4040   20.5440   38.6370 F   0  0  0  0  0  0  0  0  0  0  0  0
   38.4070   21.3570   40.4470 F   0  0  0  0  0  0  0  0  0  0  0  0
   39.6000   20.9720   38.5140 F   0  0  0  0  0  0  0  0  0  0  0  0
  1  2  1  0  0  0  0
  1  9  1  0  0  0  0
  2 15  1  0  0  0  0
  3 41  1  0  0  0  0
  3  2  2  0  0  0  0
  4  3  1  0  0  0  0
  5  4  2  0  0  0  0
  5  6  1  0  0  0  0
  6  1  2  0  0  0  0
  7 10  1  0  0  0  0
  8  7  2  0  0  0  0
  9 17  1  0  0  0  0
  9  7  1  0  0  0  0
 10 14  1  0  0  0  0
 10 11  1  0  0  0  0
 11 19  1  0  0  0  0
 11 12  1  0  0  0  0
 12 21  1  0  0  0  0
 12 20  1  0  0  0  0
 13 12  1  0  0  0  0
 13 23  1  0  0  0  0
 14 24  1  6  0  0  0
 14 13  1  0  0  0  0
 16  5  1  0  0  0  0
 18 11  1  0  0  0  0
 22 13  1  0  0  0  0
 25 27  1  0  0  0  0
 26 25  2  0  0  0  0
 27 14  1  0  0  0  0
 27 28  1  0  0  0  0
 29 30  1  0  0  0  0
 30 25  1  0  0  0  0
 30 31  2  0  0  0  0
 31 32  1  0  0  0  0
 33 31  1  0  0  0  0
 33 34  1  0  0  0  0
 34 40  1  0  0  0  0
 35 36  1  0  0  0  0
 35 34  1  0  0  0  0
 37 38  1  0  0  0  0
 37 35  2  0  0  0  0
 38 33  2  0  0  0  0
 39 29  2  0  0  0  0
 39 38  1  0  0  0  0
 41 43  1  0  0  0  0
 42 41  1  0  0  0  0
 44 41  1  0  0  0  0
M  END
>  <minimizedAffinity>
-6.61831045

$$$$

 OpenBabel03252503333D

 44 47  0  0  1  0  0  0  0  0999 V2000
   40.2790   30.6880   39.7300 C   0  0  0  0  0  0  0  0  0  0  0  0
   40.3440   32.0210   40.2270 C   0  0  0  0  0  0  0  0  0  0  0  0
   40.5170   33.0320   39.2630 C   0  0  0  0  0  0  0  0  0  0  0  0
   40.6040   32.6690   37.9740 N   0  0  0  0  0  0  0  0  0  0  0  0
   40.5360   31.3910   37.5520 C   0  0  0  0  0  0  0  0  0  0  0  0
   40.3720   30.3940   38.4470 N   0  0  0  0  0  0  0  0  0  0  0  0
   38.7770   29.5280   41.1140 C   0  0  0  0  0  0  0  0  0  0  0  0
   37.9390   30.4140   40.7290 O   0  0  0  0  0  0  0  0  0  0  0  0
   40.1050   29.5970   40.6460 N   0  0  0  0  0  0  0  0  0  0  0  0
   38.3030   28.5270   41.9950 N   0  0  0  0  0  0  0  0  0  0  0  0
   37.0110   28.7160   42.6800 C   0  0  0  0  0  0  0  0  0  0  0  0
   37.2230   27.9820   43.9690 C   0  0  0  0  0  0  0  0  0  0  0  0
   38.5770   27.3440   43.8680 C   0  0  0  0  0  0  0  0  0  0  0  0
   38.8350   27.2520   42.3830 C   0  0  1  0  0  0  0  0  0  0  0  0
   40.2550   32.1460   41.3050 H   0  0  0  0  0  0  0  0  0  0  0  0
   40.6140   31.1510   36.4970 H   0  0  0  0  0  0  0  0  0  0  0  0
   40.7980   28.8880   40.9900 H   0  0  0  0  0  0  0  0  0  0  0  0
   36.1830   28.2140   42.1340 H   0  0  0  0  0  0  0  0  0  0  0  0
   36.8160   29.7740   42.9080 H   0  0  0  0  0  0  0  0  0  0  0  0
   37.1200   28.6240   44.8660 H   0  0  0  0  0  0  0  0  0  0  0  0
   36.4950   27.1320   44.1060 H   0  0  0  0  0  0  0  0  0  0  0  0
   39.2590   28.2290   44.1320 H   0  0  0  0  0  0  0  0  0  0  0  0
   38.8790   26.6220   44.5520 H   0  0  0  0  0  0  0  0  0  0  0  0
   39.9140   27.0820   42.3090 H   0  0  0  0  0  0  0  0  0  0  0  0
   38.4930   24.7940   41.7000 C   0  0  0  0  0  0  0  0  0  0  0  0
   39.4080   24.6000   42.5300 O   0  0  0  0  0  0  0  0  0  0  0  0
   38.1120   26.1900   41.6960 N   0  0  0  0  0  0  0  0  0  0  0  0
   37.2420   26.4870   41.1550 H   0  0  0  0  0  0  0  0  0  0  0  0
   38.4830   22.6580   40.3650 C   0  0  0  0  0  3  0  0  0  0  0  0
   37.8750   23.8210   40.8500 C   0  0  0  0  0  0  0  0  0  0  0  0
   36.5610   24.1020   40.5090 C   0  0  0  0  0  0  0  0  0  0  0  0
   36.0340   24.9850   40.8520 H   0  0  0  0  0  0  0  0  0  0  0  0
   35.8120   23.2600   39.6910 C   0  0  0  0  0  0  0  0  0  0  0  0
   34.5470   23.2780   39.2060 N   0  0  0  0  0  0  0  0  0  0  0  0
   34.4250   22.1510   38.4550 C   0  0  0  0  0  0  0  0  0  0  0  0
   33.5370   21.8390   37.9120 H   0  0  0  0  0  0  0  0  0  0  0  0
   35.5750   21.4460   38.4680 N   0  0  0  0  0  0  0  0  0  0  0  0
   36.4330   22.1200   39.2240 C   0  0  0  0  0  0  0  0  0  0  0  0
   37.7360   21.8190   39.5480 C   0  0  0  0  0  3  0  0  0  0  0  0
   33.8400   24.0210   39.3910 H   0  0  0  0  0  0  0  0  0  0  0  0
   40.5800   34.3890   39.8040 C   0  0  0  0  0  0  0  0  0  0  0  0
   41.2940   35.1910   38.9180 F   0  0  0  0  0  0  0  0  0  0  0  0
   41.3730   34.3210   40.9620 F   0  0  0  0  0  0  0  0  0  0  0  0
   39.3630   34.9570   40.0310 F   0  0  0  0  0  0  0  0  0  0  0  0
  1  2  1  0  0  0  0
  1  9  1  0  0  0  0
  2 15  1  0  0  0  0
  3 41  1  0  0  0  0
  3  2  2  0  0  0  0
  4  3  1  0  0  0  0
  5  4  2  0  0  0  0
  5  6  1  0  0  0  0
  6  1  2  0  0  0  0
  7 10  1  0  0  0  0
  8  7  2  0  0  0  0
  9 17  1  0  0  0  0
  9  7  1  0  0  0  0
 10 14  1  0  0  0  0
 10 11  1  0  0  0  0
 11 19  1  0  0  0  0
 11 12  1  0  0  0  0
 12 21  1  0  0  0  0
 12 20  1  0  0  0  0
 13 12  1  0  0  0  0
 13 22  1  0  0  0  0
 13 23  1  0  0  0  0
 14 24  1  6  0  0  0
 14 13  1  0  0  0  0
 16  5  1  0  0  0  0
 18 11  1  0  0  0  0
 25 26  2  0  0  0  0
 27 25  1  0  0  0  0
 27 14  1  0  0  0  0
 28 27  1  0  0  0  0
 29 30  1  0  0  0  0
 30 25  1  0  0  0  0
 31 30  2  0  0  0  0
 31 32  1  0  0  0  0
 33 31  1  0  0  0  0
 34 40  1  0  0  0  0
 34 33  1  0  0  0  0
 35 37  2  0  0  0  0
 35 34  1  0  0  0  0
 36 35  1  0  0  0  0
 37 38  1  0  0  0  0
 38 39  1  0  0  0  0
 38 33  2  0  0  0  0
 39 29  2  0  0  0  0
 41 44  1  0  0  0  0
 41 43  1  0  0  0  0
 42 41  1  0  0  0  0
M  END
>  <minimizedAffinity>
-6.61071539

$$$$

 OpenBabel03252503333D

 44 47  0  0  1  0  0  0  0  0999 V2000
   39.4710   31.6300   41.0160 C   0  0  0  0  0  0  0  0  0  0  0  0
   39.5350   32.9270   40.4310 C   0  0  0  0  0  0  0  0  0  0  0  0
   40.7880   33.5670   40.4840 C   0  0  0  0  0  0  0  0  0  0  0  0
   41.8050   32.9180   41.0700 N   0  0  0  0  0  0  0  0  0  0  0  0
   41.6950   31.6880   41.6100 C   0  0  0  0  0  0  0  0  0  0  0  0
   40.5100   31.0430   41.5790 N   0  0  0  0  0  0  0  0  0  0  0  0
   37.9530   30.3860   39.7250 C   0  0  0  0  0  0  0  0  0  0  0  0
   38.7630   30.6340   38.7670 O   0  0  0  0  0  0  0  0  0  0  0  0
   38.2310   30.9070   41.0050 N   0  0  0  0  0  0  0  0  0  0  0  0
   36.8200   29.5920   39.4280 N   0  0  0  0  0  0  0  0  0  0  0  0
   36.4420   29.3680   38.0190 C   0  0  0  0  0  0  0  0  0  0  0  0
   34.9530   29.2320   38.1080 C   0  0  0  0  0  0  0  0  0  0  0  0
   34.6150   29.2800   39.5690 C   0  0  0  0  0  0  0  0  0  0  0  0
   35.8950   28.8780   40.2600 C   0  0  1  0  0  0  0  0  0  0  0  0
   38.6150   33.3120   39.9940 H   0  0  0  0  0  0  0  0  0  0  0  0
   42.5500   31.2080   42.0740 H   0  0  0  0  0  0  0  0  0  0  0  0
   37.5470   30.7290   41.7810 H   0  0  0  0  0  0  0  0  0  0  0  0
   36.8490   28.4080   37.6360 H   0  0  0  0  0  0  0  0  0  0  0  0
   36.6770   30.2360   37.3870 H   0  0  0  0  0  0  0  0  0  0  0  0
   34.4020   29.9910   37.5180 H   0  0  0  0  0  0  0  0  0  0  0  0
   34.5890   28.2280   37.7440 H   0  0  0  0  0  0  0  0  0  0  0  0
   34.6330   30.4120   39.7620 H   0  0  0  0  0  0  0  0  0  0  0  0
   33.6680   29.0150   39.9060 H   0  0  0  0  0  0  0  0  0  0  0  0
   35.7530   29.2030   41.2950 H   0  0  0  0  0  0  0  0  0  0  0  0
   36.9560   26.7400   41.2250 C   0  0  0  0  0  0  0  0  0  0  0  0
   37.1440   27.4710   42.2220 O   0  0  0  0  0  0  0  0  0  0  0  0
   36.1980   27.4540   40.2190 N   0  0  0  0  0  0  0  0  0  0  0  0
   35.8230   26.9170   39.3770 H   0  0  0  0  0  0  0  0  0  0  0  0
   38.5410   24.8240   41.6230 C   0  0  0  0  0  3  0  0  0  0  0  0
   37.3990   25.3900   41.0450 C   0  0  0  0  0  0  0  0  0  0  0  0
   36.5940   24.6210   40.2200 C   0  0  0  0  0  0  0  0  0  0  0  0
   35.6980   25.0000   39.7420 H   0  0  0  0  0  0  0  0  0  0  0  0
   36.8810   23.2870   39.9390 C   0  0  0  0  0  0  0  0  0  0  0  0
   36.2930   22.3210   39.1920 N   0  0  0  0  0  0  0  0  0  0  0  0
   37.0770   21.2190   39.3340 C   0  0  0  0  0  0  0  0  0  0  0  0
   36.9060   20.2510   38.8720 H   0  0  0  0  0  0  0  0  0  0  0  0
   38.1230   21.4830   40.1440 N   0  0  0  0  0  0  0  0  0  0  0  0
   38.0110   22.7510   40.5200 C   0  0  0  0  0  0  0  0  0  0  0  0
   38.8260   23.4940   41.3420 C   0  0  0  0  0  3  0  0  0  0  0  0
   35.4190   22.4370   38.6360 H   0  0  0  0  0  0  0  0  0  0  0  0
   40.8210   34.8970   39.8760 C   0  0  0  0  0  0  0  0  0  0  0  0
   41.3980   34.7960   38.6130 F   0  0  0  0  0  0  0  0  0  0  0  0
   41.7220   35.6610   40.6350 F   0  0  0  0  0  0  0  0  0  0  0  0
   39.5990   35.4860   39.7570 F   0  0  0  0  0  0  0  0  0  0  0  0
  1  6  1  0  0  0  0
  2  3  1  0  0  0  0
  2  1  2  0  0  0  0
  3  4  2  0  0  0  0
  4  5  1  0  0  0  0
  5 16  1  0  0  0  0
  6  5  2  0  0  0  0
  7  9  1  0  0  0  0
  8  7  2  0  0  0  0
  9  1  1  0  0  0  0
  9 17  1  0  0  0  0
 10  7  1  0  0  0  0
 10 14  1  0  0  0  0
 11 12  1  0  0  0  0
 11 10  1  0  0  0  0
 12 13  1  0  0  0  0
 13 22  1  0  0  0  0
 13 23  1  0  0  0  0
 13 14  1  0  0  0  0
 14 24  1  1  0  0  0
 15  2  1  0  0  0  0
 18 11  1  0  0  0  0
 19 11  1  0  0  0  0
 20 12  1  0  0  0  0
 21 12  1  0  0  0  0
 25 26  2  0  0  0  0
 27 14  1  0  0  0  0
 27 25  1  0  0  0  0
 28 27  1  0  0  0  0
 30 25  1  0  0  0  0
 30 29  2  0  0  0  0
 31 30  1  0  0  0  0
 32 31  1  0  0  0  0
 33 31  2  0  0  0  0
 33 38  1  0  0  0  0
 34 35  1  0  0  0  0
 34 33  1  0  0  0  0
 35 37  2  0  0  0  0
 36 35  1  0  0  0  0
 37 38  1  0  0  0  0
 38 39  2  0  0  0  0
 39 29  1  0  0  0  0
 40 34  1  0  0  0  0
 41  3  1  0  0  0  0
 41 43  1  0  0  0  0
 42 41  1  0  0  0  0
 44 41  1  0  0  0  0
M  END
>  <minimizedAffinity>
-6.57976151

$$$$

 OpenBabel03252503333D

 44 47  0  0  1  0  0  0  0  0999 V2000
   37.6200   31.3150   40.4450 C   0  0  0  0  0  0  0  0  0  0  0  0
   37.7140   32.6890   40.0800 C   0  0  0  0  0  0  0  0  0  0  0  0
   38.8110   33.3950   40.6100 C   0  0  0  0  0  0  0  0  0  0  0  0
   39.6670   32.7320   41.4010 N   0  0  0  0  0  0  0  0  0  0  0  0
   39.5360   31.4280   41.7180 C   0  0  0  0  0  0  0  0  0  0  0  0
   38.4970   30.7190   41.2300 N   0  0  0  0  0  0  0  0  0  0  0  0
   36.7160   30.1890   38.5930 C   0  0  0  0  0  0  0  0  0  0  0  0
   37.7460   30.6370   37.9810 O   0  0  0  0  0  0  0  0  0  0  0  0
   36.5310   30.5230   39.9500 N   0  0  0  0  0  0  0  0  0  0  0  0
   35.8240   29.3780   37.8530 N   0  0  0  0  0  0  0  0  0  0  0  0
   35.9190   29.3510   36.3810 C   0  0  0  0  0  0  0  0  0  0  0  0
   34.4990   29.1040   35.9730 C   0  0  0  0  0  0  0  0  0  0  0  0
   33.7290   28.9030   37.2450 C   0  0  0  0  0  0  0  0  0  0  0  0
   34.7750   28.4840   38.2500 C   0  0  1  0  0  0  0  0  0  0  0  0
   36.9340   33.0760   39.4270 H   0  0  0  0  0  0  0  0  0  0  0  0
   40.2570   30.9390   42.3640 H   0  0  0  0  0  0  0  0  0  0  0  0
   35.6670   30.1810   40.4390 H   0  0  0  0  0  0  0  0  0  0  0  0
   36.5290   28.4910   36.0280 H   0  0  0  0  0  0  0  0  0  0  0  0
   36.2380   30.3200   35.9710 H   0  0  0  0  0  0  0  0  0  0  0  0
   34.0730   29.9070   35.3400 H   0  0  0  0  0  0  0  0  0  0  0  0
   34.3780   28.1470   35.3890 H   0  0  0  0  0  0  0  0  0  0  0  0
   33.5610   29.9890   37.5760 H   0  0  0  0  0  0  0  0  0  0  0  0
   32.7600   28.5250   37.2280 H   0  0  0  0  0  0  0  0  0  0  0  0
   34.2890   28.6340   39.2200 H   0  0  0  0  0  0  0  0  0  0  0  0
   36.1200   26.4430   39.0590 C   0  0  0  0  0  0  0  0  0  0  0  0
   36.2800   27.1500   40.0780 O   0  0  0  0  0  0  0  0  0  0  0  0
   35.2320   27.1060   38.1280 N   0  0  0  0  0  0  0  0  0  0  0  0
   34.8740   26.5650   37.2810 H   0  0  0  0  0  0  0  0  0  0  0  0
   36.9840   24.6410   37.5260 C   0  0  0  0  0  3  0  0  0  0  0  0
   36.7020   25.1620   38.7940 C   0  0  0  0  0  0  0  0  0  0  0  0
   36.9910   24.4130   39.9240 C   0  0  0  0  0  0  0  0  0  0  0  0
   36.7960   24.7590   40.9330 H   0  0  0  0  0  0  0  0  0  0  0  0
   37.5600   23.1430   39.8460 C   0  0  0  0  0  0  0  0  0  0  0  0
   37.9400   22.2110   40.7520 N   0  0  0  0  0  0  0  0  0  0  0  0
   38.4310   21.1720   40.0260 C   0  0  0  0  0  0  0  0  0  0  0  0
   38.8290   20.2440   40.4280 H   0  0  0  0  0  0  0  0  0  0  0  0
   38.3640   21.4420   38.7060 N   0  0  0  0  0  0  0  0  0  0  0  0
   37.8290   22.6510   38.5870 C   0  0  0  0  0  0  0  0  0  0  0  0
   37.5510   23.3750   37.4500 C   0  0  0  0  0  3  0  0  0  0  0  0
   37.8560   22.3060   41.7870 H   0  0  0  0  0  0  0  0  0  0  0  0
   38.8790   34.8020   40.2170 C   0  0  0  0  0  0  0  0  0  0  0  0
   40.0020   34.9890   39.4160 F   0  0  0  0  0  0  0  0  0  0  0  0
   39.1340   35.5320   41.3900 F   0  0  0  0  0  0  0  0  0  0  0  0
   37.7810   35.2480   39.5470 F   0  0  0  0  0  0  0  0  0  0  0  0
  1  6  1  0  0  0  0
  2  1  2  0  0  0  0
  2  3  1  0  0  0  0
  3  4  2  0  0  0  0
  4  5  1  0  0  0  0
  5 16  1  0  0  0  0
  6  5  2  0  0  0  0
  7  9  1  0  0  0  0
  8  7  2  0  0  0  0
  9 17  1  0  0  0  0
  9  1  1  0  0  0  0
 10 14  1  0  0  0  0
 10  7  1  0  0  0  0
 11 10  1  0  0  0  0
 12 11  1  0  0  0  0
 12 13  1  0  0  0  0
 13 22  1  0  0  0  0
 13 14  1  0  0  0  0
 14 24  1  1  0  0  0
 15  2  1  0  0  0  0
 18 11  1  0  0  0  0
 19 11  1  0  0  0  0
 20 12  1  0  0  0  0
 21 12  1  0  0  0  0
 23 13  1  0  0  0  0
 25 26  2  0  0  0  0
 27 14  1  0  0  0  0
 27 25  1  0  0  0  0
 28 27  1  0  0  0  0
 29 30  1  0  0  0  0
 30 25  1  0  0  0  0
 30 31  2  0  0  0  0
 31 32  1  0  0  0  0
 33 31  1  0  0  0  0
 33 34  1  0  0  0  0
 34 40  1  0  0  0  0
 35 36  1  0  0  0  0
 35 34  1  0  0  0  0
 37 35  2  0  0  0  0
 38 37  1  0  0  0  0
 38 33  2  0  0  0  0
 39 29  2  0  0  0  0
 39 38  1  0  0  0  0
 41  3  1  0  0  0  0
 41 43  1  0  0  0  0
 42 41  1  0  0  0  0
 44 41  1  0  0  0  0
M  END
>  <minimizedAffinity>
-6.41065741

$$$$

 OpenBabel03252503333D

 44 47  0  0  1  0  0  0  0  0999 V2000
   42.0270   31.9250   42.3670 C   0  0  0  0  0  0  0  0  0  0  0  0
   42.6710   33.0870   41.8510 C   0  0  0  0  0  0  0  0  0  0  0  0
   44.0560   33.1800   42.0830 C   0  0  0  0  0  0  0  0  0  0  0  0
   44.6520   32.1860   42.7590 N   0  0  0  0  0  0  0  0  0  0  0  0
   44.0000   31.1040   43.2280 C   0  0  0  0  0  0  0  0  0  0  0  0
   42.6710   30.9800   43.0250 N   0  0  0  0  0  0  0  0  0  0  0  0
   40.3210   31.3730   40.8510 C   0  0  0  0  0  0  0  0  0  0  0  0
   41.2790   31.2730   40.0090 O   0  0  0  0  0  0  0  0  0  0  0  0
   40.6160   31.7520   42.1760 N   0  0  0  0  0  0  0  0  0  0  0  0
   39.0160   31.0890   40.3840 N   0  0  0  0  0  0  0  0  0  0  0  0
   38.7630   31.0220   38.9320 C   0  0  0  0  0  0  0  0  0  0  0  0
   37.3420   31.4860   38.8350 C   0  0  0  0  0  0  0  0  0  0  0  0
   36.8670   31.6760   40.2450 C   0  0  0  0  0  0  0  0  0  0  0  0
   37.7870   30.8060   41.0670 C   0  0  1  0  0  0  0  0  0  0  0  0
   42.0400   33.8010   41.3240 H   0  0  0  0  0  0  0  0  0  0  0  0
   44.5300   30.3280   43.7700 H   0  0  0  0  0  0  0  0  0  0  0  0
   39.8240   31.8640   42.8560 H   0  0  0  0  0  0  0  0  0  0  0  0
   38.8060   29.9760   38.5600 H   0  0  0  0  0  0  0  0  0  0  0  0
   39.3990   31.7210   38.3710 H   0  0  0  0  0  0  0  0  0  0  0  0
   37.2150   32.3960   38.2160 H   0  0  0  0  0  0  0  0  0  0  0  0
   36.6630   30.7050   38.3870 H   0  0  0  0  0  0  0  0  0  0  0  0
   37.3040   32.7090   40.4880 H   0  0  0  0  0  0  0  0  0  0  0  0
   35.8570   31.8090   40.4540 H   0  0  0  0  0  0  0  0  0  0  0  0
   37.6530   31.1680   42.0920 H   0  0  0  0  0  0  0  0  0  0  0  0
   37.8840   28.4140   42.0140 C   0  0  0  0  0  0  0  0  0  0  0  0
   38.3050   29.0020   43.0340 O   0  0  0  0  0  0  0  0  0  0  0  0
   37.5070   29.3770   41.0020 N   0  0  0  0  0  0  0  0  0  0  0  0
   36.9850   29.0400   40.1350 H   0  0  0  0  0  0  0  0  0  0  0  0
   36.9500   26.1370   42.5520 C   0  0  0  0  0  3  0  0  0  0  0  0
   37.7690   27.0000   41.8160 C   0  0  0  0  0  0  0  0  0  0  0  0
   38.5580   26.4920   40.7950 C   0  0  0  0  0  0  0  0  0  0  0  0
   39.2130   27.1070   40.1890 H   0  0  0  0  0  0  0  0  0  0  0  0
   38.5670   25.1380   40.4690 C   0  0  0  0  0  0  0  0  0  0  0  0
   39.2150   24.3820   39.5510 N   0  0  0  0  0  0  0  0  0  0  0  0
   38.7820   23.1090   39.7510 C   0  0  0  0  0  0  0  0  0  0  0  0
   39.0940   22.2330   39.1890 H   0  0  0  0  0  0  0  0  0  0  0  0
   37.8900   23.0650   40.7610 N   0  0  0  0  0  0  0  0  0  0  0  0
   37.7520   24.3080   41.2090 C   0  0  0  0  0  0  0  0  0  0  0  0
   36.9600   24.7870   42.2270 C   0  0  0  0  0  3  0  0  0  0  0  0
   39.9000   24.7380   38.8500 H   0  0  0  0  0  0  0  0  0  0  0  0
   44.6860   34.3830   41.5420 C   0  0  0  0  0  0  0  0  0  0  0  0
   43.8930   35.4840   41.8560 F   0  0  0  0  0  0  0  0  0  0  0  0
   44.6260   34.2710   40.1430 F   0  0  0  0  0  0  0  0  0  0  0  0
   45.9490   34.6050   42.0000 F   0  0  0  0  0  0  0  0  0  0  0  0
  1  6  1  0  0  0  0
  2  3  1  0  0  0  0
  2  1  2  0  0  0  0
  3  4  2  0  0  0  0
  4  5  1  0  0  0  0
  5 16  1  0  0  0  0
  6  5  2  0  0  0  0
  7  9  1  0  0  0  0
  8  7  2  0  0  0  0
  9  1  1  0  0  0  0
  9 17  1  0  0  0  0
 10  7  1  0  0  0  0
 10 14  1  0  0  0  0
 11 10  1  0  0  0  0
 12 11  1  0  0  0  0
 12 13  1  0  0  0  0
 13 23  1  0  0  0  0
 13 22  1  0  0  0  0
 13 14  1  0  0  0  0
 14 24  1  1  0  0  0
 15  2  1  0  0  0  0
 18 11  1  0  0  0  0
 19 11  1  0  0  0  0
 20 12  1  0  0  0  0
 21 12  1  0  0  0  0
 25 26  2  0  0  0  0
 27 14  1  0  0  0  0
 27 25  1  0  0  0  0
 28 27  1  0  0  0  0
 30 25  1  0  0  0  0
 30 29  2  0  0  0  0
 31 30  1  0  0  0  0
 32 31  1  0  0  0  0
 33 31  2  0  0  0  0
 33 38  1  0  0  0  0
 34 35  1  0  0  0  0
 34 33  1  0  0  0  0
 35 37  2  0  0  0  0
 36 35  1  0  0  0  0
 37 38  1  0  0  0  0
 38 39  2  0  0  0  0
 39 29  1  0  0  0  0
 40 34  1  0  0  0  0
 41 42  1  0  0  0  0
 41 44  1  0  0  0  0
 41  3  1  0  0  0  0
 43 41  1  0  0  0  0
M  END
>  <minimizedAffinity>
-6.3501792

$$$$

 OpenBabel03252503333D

 44 47  0  0  1  0  0  0  0  0999 V2000
   41.1380   32.0970   39.5240 C   0  0  0  0  0  0  0  0  0  0  0  0
   41.8120   32.7310   40.6080 C   0  0  0  0  0  0  0  0  0  0  0  0
   42.4190   33.9670   40.3190 C   0  0  0  0  0  0  0  0  0  0  0  0
   42.3190   34.4450   39.0690 N   0  0  0  0  0  0  0  0  0  0  0  0
   41.6690   33.8080   38.0760 C   0  0  0  0  0  0  0  0  0  0  0  0
   41.0750   32.6200   38.3140 N   0  0  0  0  0  0  0  0  0  0  0  0
   39.2850   30.9850   40.4430 C   0  0  0  0  0  0  0  0  0  0  0  0
   38.9420   32.1530   40.8360 O   0  0  0  0  0  0  0  0  0  0  0  0
   40.4930   30.8330   39.7320 N   0  0  0  0  0  0  0  0  0  0  0  0
   38.4130   29.9140   40.7530 N   0  0  0  0  0  0  0  0  0  0  0  0
   37.3580   30.1090   41.7650 C   0  0  0  0  0  0  0  0  0  0  0  0
   37.2220   28.7370   42.3520 C   0  0  0  0  0  0  0  0  0  0  0  0
   38.1320   27.8500   41.5540 C   0  0  0  0  0  0  0  0  0  0  0  0
   38.3060   28.5780   40.2430 C   0  0  1  0  0  0  0  0  0  0  0  0
   41.8000   32.2080   41.5630 H   0  0  0  0  0  0  0  0  0  0  0  0
   41.6180   34.2380   37.0810 H   0  0  0  0  0  0  0  0  0  0  0  0
   40.7870   29.8690   39.4400 H   0  0  0  0  0  0  0  0  0  0  0  0
   36.3870   30.3750   41.2940 H   0  0  0  0  0  0  0  0  0  0  0  0
   37.6710   30.8000   42.5600 H   0  0  0  0  0  0  0  0  0  0  0  0
   37.4330   28.6970   43.4390 H   0  0  0  0  0  0  0  0  0  0  0  0
   36.1870   28.3110   42.2170 H   0  0  0  0  0  0  0  0  0  0  0  0
   39.1460   28.0790   42.0420 H   0  0  0  0  0  0  0  0  0  0  0  0
   38.0760   26.8150   41.6380 H   0  0  0  0  0  0  0  0  0  0  0  0
   39.1860   28.1090   39.7920 H   0  0  0  0  0  0  0  0  0  0  0  0
   37.1790   28.9310   37.9550 C   0  0  0  0  0  0  0  0  0  0  0  0
   38.3450   29.2120   37.6010 O   0  0  0  0  0  0  0  0  0  0  0  0
   37.1710   28.4900   39.3340 N   0  0  0  0  0  0  0  0  0  0  0  0
   36.2780   28.0670   39.7360 H   0  0  0  0  0  0  0  0  0  0  0  0
   35.9460   29.1180   35.7670 C   0  0  0  0  0  3  0  0  0  0  0  0
   35.9900   29.0120   37.1620 C   0  0  0  0  0  0  0  0  0  0  0  0
   34.8080   28.9780   37.8860 C   0  0  0  0  0  0  0  0  0  0  0  0
   34.7750   28.8960   38.9660 H   0  0  0  0  0  0  0  0  0  0  0  0
   33.5600   29.0460   37.2700 C   0  0  0  0  0  0  0  0  0  0  0  0
   32.2780   29.0350   37.7080 N   0  0  0  0  0  0  0  0  0  0  0  0
   31.5080   29.1340   36.5920 C   0  0  0  0  0  0  0  0  0  0  0  0
   30.4220   29.1540   36.5660 H   0  0  0  0  0  0  0  0  0  0  0  0
   32.2790   29.2040   35.4880 N   0  0  0  0  0  0  0  0  0  0  0  0
   33.5420   29.1510   35.8950 C   0  0  0  0  0  0  0  0  0  0  0  0
   34.7010   29.1870   35.1540 C   0  0  0  0  0  3  0  0  0  0  0  0
   31.9820   28.9650   38.7050 H   0  0  0  0  0  0  0  0  0  0  0  0
   43.1020   34.5920   41.4510 C   0  0  0  0  0  0  0  0  0  0  0  0
   43.1120   33.6950   42.5170 F   0  0  0  0  0  0  0  0  0  0  0  0
   42.2890   35.6570   41.8710 F   0  0  0  0  0  0  0  0  0  0  0  0
   44.3810   34.9770   41.1880 F   0  0  0  0  0  0  0  0  0  0  0  0
  1  9  1  0  0  0  0
  1  2  1  0  0  0  0
  2 15  1  0  0  0  0
  3  2  2  0  0  0  0
  3 41  1  0  0  0  0
  4  3  1  0  0  0  0
  5  6  1  0  0  0  0
  5  4  2  0  0  0  0
  6  1  2  0  0  0  0
  7 10  1  0  0  0  0
  7  8  2  0  0  0  0
  9  7  1  0  0  0  0
 10 11  1  0  0  0  0
 11 12  1  0  0  0  0
 11 19  1  0  0  0  0
 12 20  1  0  0  0  0
 13 23  1  0  0  0  0
 13 22  1  0  0  0  0
 13 12  1  0  0  0  0
 14 24  1  6  0  0  0
 14 10  1  0  0  0  0
 14 13  1  0  0  0  0
 16  5  1  0  0  0  0
 17  9  1  0  0  0  0
 18 11  1  0  0  0  0
 21 12  1  0  0  0  0
 25 27  1  0  0  0  0
 26 25  2  0  0  0  0
 27 28  1  0  0  0  0
 27 14  1  0  0  0  0
 29 30  1  0  0  0  0
 30 31  2  0  0  0  0
 30 25  1  0  0  0  0
 31 32  1  0  0  0  0
 33 34  1  0  0  0  0
 33 31  1  0  0  0  0
 34 40  1  0  0  0  0
 35 34  1  0  0  0  0
 36 35  1  0  0  0  0
 37 38  1  0  0  0  0
 37 35  2  0  0  0  0
 38 33  2  0  0  0  0
 39 29  2  0  0  0  0
 39 38  1  0  0  0  0
 41 43  1  0  0  0  0
 41 42  1  0  0  0  0
 44 41  1  0  0  0  0
M  END
>  <minimizedAffinity>
-6.23958635

$$$$

 OpenBabel03252503333D

 44 47  0  0  1  0  0  0  0  0999 V2000
   36.2100   26.1840   38.7720 C   0  0  0  0  0  0  0  0  0  0  0  0
   36.0510   24.7690   38.7800 C   0  0  0  0  0  0  0  0  0  0  0  0
   36.0070   24.1460   37.5190 C   0  0  0  0  0  0  0  0  0  0  0  0
   36.1170   24.9180   36.4270 N   0  0  0  0  0  0  0  0  0  0  0  0
   36.2660   26.2570   36.4710 C   0  0  0  0  0  0  0  0  0  0  0  0
   36.3120   26.8900   37.6620 N   0  0  0  0  0  0  0  0  0  0  0  0
   37.5080   26.7250   40.6530 C   0  0  0  0  0  0  0  0  0  0  0  0
   38.3800   25.9640   40.1100 O   0  0  0  0  0  0  0  0  0  0  0  0
   36.2630   26.8990   40.0150 N   0  0  0  0  0  0  0  0  0  0  0  0
   37.8620   27.3490   41.8740 N   0  0  0  0  0  0  0  0  0  0  0  0
   39.0350   26.8610   42.6230 C   0  0  0  0  0  0  0  0  0  0  0  0
   38.6470   27.1420   44.0420 C   0  0  0  0  0  0  0  0  0  0  0  0
   37.3320   27.8630   43.9800 C   0  0  0  0  0  0  0  0  0  0  0  0
   37.2980   28.4550   42.5910 C   0  0  1  0  0  0  0  0  0  0  0  0
   35.9780   24.2910   39.7550 H   0  0  0  0  0  0  0  0  0  0  0  0
   36.3490   26.8350   35.5570 H   0  0  0  0  0  0  0  0  0  0  0  0
   35.5370   27.4980   40.4810 H   0  0  0  0  0  0  0  0  0  0  0  0
   39.9420   27.4620   42.3930 H   0  0  0  0  0  0  0  0  0  0  0  0
   39.1780   25.7780   42.5070 H   0  0  0  0  0  0  0  0  0  0  0  0
   38.6050   26.2360   44.6780 H   0  0  0  0  0  0  0  0  0  0  0  0
   39.3590   27.8510   44.5530 H   0  0  0  0  0  0  0  0  0  0  0  0
   36.6050   26.9860   43.8380 H   0  0  0  0  0  0  0  0  0  0  0  0
   36.9440   28.3370   44.8200 H   0  0  0  0  0  0  0  0  0  0  0  0
   36.2450   28.7090   42.4350 H   0  0  0  0  0  0  0  0  0  0  0  0
   38.1110   30.4830   41.2300 C   0  0  0  0  0  0  0  0  0  0  0  0
   37.1490   30.1760   40.4930 O   0  0  0  0  0  0  0  0  0  0  0  0
   38.1310   29.6360   42.4040 N   0  0  0  0  0  0  0  0  0  0  0  0
   38.7960   29.8740   43.2020 H   0  0  0  0  0  0  0  0  0  0  0  0
   40.4620   31.3890   41.2100 C   0  0  0  0  0  3  0  0  0  0  0  0
   39.0830   31.5100   41.0020 C   0  0  0  0  0  0  0  0  0  0  0  0
   38.5620   32.7070   40.5340 C   0  0  0  0  0  0  0  0  0  0  0  0
   37.5050   32.8640   40.3530 H   0  0  0  0  0  0  0  0  0  0  0  0
   39.3690   33.8090   40.2600 C   0  0  0  0  0  0  0  0  0  0  0  0
   39.1450   35.0660   39.8080 N   0  0  0  0  0  0  0  0  0  0  0  0
   40.3660   35.6610   39.7560 C   0  0  0  0  0  0  0  0  0  0  0  0
   40.5670   36.6800   39.4350 H   0  0  0  0  0  0  0  0  0  0  0  0
   41.3280   34.8060   40.1600 N   0  0  0  0  0  0  0  0  0  0  0  0
   40.7230   33.6660   40.4730 C   0  0  0  0  0  0  0  0  0  0  0  0
   41.2650   32.4890   40.9360 C   0  0  0  0  0  3  0  0  0  0  0  0
   38.2120   35.4610   39.5610 H   0  0  0  0  0  0  0  0  0  0  0  0
   35.8440   22.6930   37.5600 C   0  0  0  0  0  0  0  0  0  0  0  0
   35.1250   22.3570   38.7050 F   0  0  0  0  0  0  0  0  0  0  0  0
   37.1250   22.1520   37.7550 F   0  0  0  0  0  0  0  0  0  0  0  0
   35.2100   22.1720   36.4730 F   0  0  0  0  0  0  0  0  0  0  0  0
  1  2  1  0  0  0  0
  1  9  1  0  0  0  0
  2 15  1  0  0  0  0
  3 41  1  0  0  0  0
  3  2  2  0  0  0  0
  4  5  2  0  0  0  0
  4  3  1  0  0  0  0
  5  6  1  0  0  0  0
  6  1  2  0  0  0  0
  7 10  1  0  0  0  0
  8  7  2  0  0  0  0
  9 17  1  0  0  0  0
  9  7  1  0  0  0  0
 10 14  1  0  0  0  0
 10 11  1  0  0  0  0
 11 12  1  0  0  0  0
 12 21  1  0  0  0  0
 12 20  1  0  0  0  0
 13 12  1  0  0  0  0
 13 23  1  0  0  0  0
 14 24  1  6  0  0  0
 14 13  1  0  0  0  0
 16  5  1  0  0  0  0
 18 11  1  0  0  0  0
 19 11  1  0  0  0  0
 22 13  1  0  0  0  0
 25 27  1  0  0  0  0
 26 25  2  0  0  0  0
 27 14  1  0  0  0  0
 27 28  1  0  0  0  0
 30 29  1  0  0  0  0
 30 25  1  0  0  0  0
 31 30  2  0  0  0  0
 32 31  1  0  0  0  0
 33 38  2  0  0  0  0
 33 31  1  0  0  0  0
 34 33  1  0  0  0  0
 35 34  1  0  0  0  0
 35 37  2  0  0  0  0
 36 35  1  0  0  0  0
 37 38  1  0  0  0  0
 38 39  1  0  0  0  0
 39 29  2  0  0  0  0
 40 34  1  0  0  0  0
 41 43  1  0  0  0  0
 41 42  1  0  0  0  0
 44 41  1  0  0  0  0
M  END
>  <minimizedAffinity>
-6.23437548

$$$$
