
 OpenBabel03252509043D

 51 54  0  0  1  0  0  0  0  0999 V2000
   47.1500   34.1630   43.0770 N   0  0  0  0  0  0  0  0  0  0  0  0
   46.6530   35.3350   42.4640 C   0  0  0  0  0  0  0  0  0  0  0  0
   45.1590   35.5430   42.6320 C   0  0  0  0  0  0  0  0  0  0  0  0
   44.6300   35.0920   43.9660 C   0  0  0  0  0  0  0  0  0  0  0  0
   45.7280   34.5610   44.8580 C   0  0  0  0  0  0  0  0  0  0  0  0
   46.4120   33.4410   43.9810 C   0  0  2  0  0  0  0  0  0  0  0  0
   46.8580   35.4530   41.3960 H   0  0  0  0  0  0  0  0  0  0  0  0
   47.1400   36.2250   42.9530 H   0  0  0  0  0  0  0  0  0  0  0  0
   44.5850   35.0220   41.8240 H   0  0  0  0  0  0  0  0  0  0  0  0
   44.9210   36.6220   42.5050 H   0  0  0  0  0  0  0  0  0  0  0  0
   44.1400   35.9390   44.5290 H   0  0  0  0  0  0  0  0  0  0  0  0
   43.8490   34.3090   43.8840 H   0  0  0  0  0  0  0  0  0  0  0  0
   46.4690   35.3230   45.1300 H   0  0  0  0  0  0  0  0  0  0  0  0
   45.2820   34.0160   45.7040 H   0  0  0  0  0  0  0  0  0  0  0  0
   45.5850   32.8150   43.5980 H   0  0  0  0  0  0  0  0  0  0  0  0
   48.1720   33.4860   42.3150 C   0  0  0  0  0  0  0  0  0  0  0  0
   48.7290   34.2790   41.7720 H   0  0  0  0  0  0  0  0  0  0  0  0
   48.9420   32.9810   42.9460 H   0  0  0  0  0  0  0  0  0  0  0  0
   47.4910   32.5840   41.3370 C   0  0  0  0  0  0  0  0  0  0  0  0
   47.6000   31.5380   41.6210 H   0  0  0  0  0  0  0  0  0  0  0  0
   46.3920   32.7950   41.2690 H   0  0  0  0  0  0  0  0  0  0  0  0
   49.4160   32.0800   38.1510 C   0  0  0  0  0  0  0  0  0  0  0  0
   48.8780   31.8690   39.4350 C   0  0  0  0  0  0  0  0  0  0  0  0
   48.0510   32.8200   39.9810 C   0  0  0  0  0  0  0  0  0  0  0  0
   47.7970   33.9110   39.2550 N   0  0  0  0  0  0  0  0  0  0  0  0
   48.3090   34.1080   38.0330 C   0  0  0  0  0  0  0  0  0  0  0  0
   49.1180   33.2110   37.4640 N   0  0  0  0  0  0  0  0  0  0  0  0
   50.0690   31.3400   37.7070 H   0  0  0  0  0  0  0  0  0  0  0  0
   49.1440   30.9530   39.9470 H   0  0  0  0  0  0  0  0  0  0  0  0
   48.0000   35.0460   37.5850 H   0  0  0  0  0  0  0  0  0  0  0  0
   47.1880   32.8000   44.9290 O   0  0  0  0  0  0  0  0  0  0  0  0
   46.0430   30.5740   44.0140 O   0  0  0  0  0  0  0  0  0  0  0  0
   46.6480   31.2340   45.2500 P   0  0  2  0  0  0  0  0  0  0  0  0
   45.3300   31.4180   46.3340 O   0  0  0  0  0  0  0  0  0  0  0  0
   44.6270   30.7700   46.1540 H   0  0  0  0  0  0  0  0  0  0  0  0
   47.7780   30.2790   45.9960 O   0  0  0  0  0  0  0  0  0  0  0  0
   47.6950   28.9930   45.4860 C   0  0  0  0  0  0  0  0  0  0  0  0
   46.6920   28.6070   45.7250 H   0  0  0  0  0  0  0  0  0  0  0  0
   47.9050   28.9230   44.4160 H   0  0  0  0  0  0  0  0  0  0  0  0
   49.3690   27.1030   45.6310 C   0  0  0  0  0  3  0  0  0  0  0  0
   48.7320   28.1810   46.2150 C   0  0  0  0  0  0  0  0  0  0  0  0
   49.0280   28.5670   47.5220 C   0  0  0  0  0  0  0  0  0  0  0  0
   48.5190   29.4240   47.9810 H   0  0  0  0  0  0  0  0  0  0  0  0
   49.9670   27.8650   48.2400 C   0  0  0  0  0  0  0  0  0  0  0  0
   50.3910   28.0750   49.5040 N   0  0  0  0  0  0  0  0  0  0  0  0
   51.3190   27.1310   49.7690 C   0  0  0  0  0  0  0  0  0  0  0  0
   51.8610   27.0110   50.6930 H   0  0  0  0  0  0  0  0  0  0  0  0
   51.4530   26.3490   48.6590 N   0  0  0  0  0  0  0  0  0  0  0  0
   50.6260   26.7800   47.6930 C   0  0  0  0  0  0  0  0  0  0  0  0
   50.3180   26.4120   46.3910 C   0  0  0  0  0  3  0  0  0  0  0  0
   50.1170   28.7980   50.2180 H   0  0  0  0  0  0  0  0  0  0  0  0
  1  6  1  0  0  0  0
  2  3  1  0  0  0  0
  2  8  1  0  0  0  0
  2  1  1  0  0  0  0
  3  4  1  0  0  0  0
  4 11  1  0  0  0  0
  4  5  1  0  0  0  0
  5 13  1  0  0  0  0
  5 14  1  0  0  0  0
  6 15  1  6  0  0  0
  6  5  1  0  0  0  0
  6 31  1  0  0  0  0
  7  2  1  0  0  0  0
  9  3  1  0  0  0  0
 10  3  1  0  0  0  0
 12  4  1  0  0  0  0
 16 18  1  0  0  0  0
 16  1  1  0  0  0  0
 17 16  1  0  0  0  0
 19 20  1  0  0  0  0
 19 16  1  0  0  0  0
 21 19  1  0  0  0  0
 22 23  1  0  0  0  0
 23 29  1  0  0  0  0
 23 24  2  0  0  0  0
 24 19  1  0  0  0  0
 25 24  1  0  0  0  0
 26 25  2  0  0  0  0
 27 26  1  0  0  0  0
 27 22  2  0  0  0  0
 28 22  1  0  0  0  0
 30 26  1  0  0  0  0
 31 33  1  0  0  0  0
 33 32  2  6  0  0  0
 33 36  1  0  0  0  0
 33 34  1  0  0  0  0
 35 34  1  0  0  0  0
 37 38  1  0  0  0  0
 37 36  1  0  0  0  0
 37 41  1  0  0  0  0
 39 37  1  0  0  0  0
 40 41  2  0  0  0  0
 40 50  1  0  0  0  0
 41 42  1  0  0  0  0
 42 43  1  0  0  0  0
 42 44  2  0  0  0  0
 44 45  1  0  0  0  0
 45 46  1  0  0  0  0
 45 51  1  0  0  0  0
 46 47  1  0  0  0  0
 48 46  2  0  0  0  0
 49 44  1  0  0  0  0
 49 48  1  0  0  0  0
 50 49  2  0  0  0  0
M  END
>  <minimizedAffinity>
-3.94624019

>  <minimizedRMSD>
0.339145303

$$$$
