
 OpenBabel03252507323D

 52 56  0  0  1  0  0  0  0  0999 V2000
   47.0280   32.6060   45.3890 C   0  0  0  0  0  0  0  0  0  0  0  0
   45.9700   33.3000   45.9570 C   0  0  0  0  0  0  0  0  0  0  0  0
   45.3080   34.3010   45.2070 C   0  0  0  0  0  0  0  0  0  0  0  0
   45.7830   34.5230   43.9170 N   0  0  0  0  0  0  0  0  0  0  0  0
   46.8100   33.8200   43.4320 C   0  0  0  0  0  0  0  0  0  0  0  0
   47.4220   32.8790   44.1520 N   0  0  0  0  0  0  0  0  0  0  0  0
   45.4790   33.3190   46.9070 H   0  0  0  0  0  0  0  0  0  0  0  0
   44.4840   34.9210   45.4840 H   0  0  0  0  0  0  0  0  0  0  0  0
   47.6570   31.5760   46.1910 C   0  0  2  0  0  0  0  0  0  0  0  0
   47.3460   30.1520   45.6350 C   0  0  0  0  0  0  0  0  0  0  0  0
   48.1460   29.1450   46.3900 C   0  0  0  0  0  0  0  0  0  0  0  0
   48.1770   29.3110   47.8720 C   0  0  0  0  0  0  0  0  0  0  0  0
   48.2340   30.6810   48.3180 C   0  0  0  0  0  0  0  0  0  0  0  0
   47.2520   31.6170   47.5810 C   0  0  2  0  0  0  0  0  0  0  0  0
   48.7640   31.6330   46.0440 H   0  0  0  0  0  0  0  0  0  0  0  0
   46.2650   29.9710   45.6080 H   0  0  0  0  0  0  0  0  0  0  0  0
   47.6850   30.2060   44.5810 H   0  0  0  0  0  0  0  0  0  0  0  0
   49.1250   29.0820   45.8770 H   0  0  0  0  0  0  0  0  0  0  0  0
   47.6630   28.1410   46.2010 H   0  0  0  0  0  0  0  0  0  0  0  0
   47.7920   28.5010   48.4920 H   0  0  0  0  0  0  0  0  0  0  0  0
   49.2860   29.0100   48.0620 H   0  0  0  0  0  0  0  0  0  0  0  0
   49.2100   31.2250   48.2630 H   0  0  0  0  0  0  0  0  0  0  0  0
   47.9420   30.7400   49.3990 H   0  0  0  0  0  0  0  0  0  0  0  0
   47.4160   32.5550   48.1150 H   0  0  0  0  0  0  0  0  0  0  0  0
   45.8980   31.0790   47.7240 N   0  0  0  0  0  0  0  0  0  0  0  0
   45.1800   30.6500   48.8530 C   0  0  0  0  0  0  0  0  0  0  0  0
   44.6400   31.4610   49.6890 O   0  0  0  0  0  0  0  0  0  0  0  0
   45.0880   29.2330   48.9990 N   0  0  0  0  0  0  0  0  0  0  0  0
   45.2670   30.8770   46.8590 H   0  0  0  0  0  0  0  0  0  0  0  0
   44.7890   28.5080   48.3420 H   0  0  0  0  0  0  0  0  0  0  0  0
   45.3600   28.8000   49.9090 H   0  0  0  0  0  0  0  0  0  0  0  0
   47.2760   34.1180   42.0730 C   0  0  0  0  0  0  0  0  0  0  0  0
   48.1990   35.1130   41.8400 C   0  0  0  0  0  0  0  0  0  0  0  0
   48.6830   35.4490   40.5950 C   0  0  0  0  0  0  0  0  0  0  0  0
   48.1710   34.7050   39.5550 C   0  0  0  0  0  0  0  0  0  0  0  0
   47.2500   33.7090   39.7690 C   0  0  0  0  0  0  0  0  0  0  0  0
   46.8020   33.4160   41.0300 N   0  0  0  0  0  0  0  0  0  0  0  0
   48.5540   35.6540   42.7120 H   0  0  0  0  0  0  0  0  0  0  0  0
   49.3980   36.2240   40.4490 H   0  0  0  0  0  0  0  0  0  0  0  0
   48.5190   34.9290   38.5570 H   0  0  0  0  0  0  0  0  0  0  0  0
   46.4500   31.5620   38.8970 C   0  0  0  0  0  3  0  0  0  0  0  0
   46.6900   32.9040   38.6910 C   0  0  0  0  0  0  0  0  0  0  0  0
   46.3690   33.3830   37.4500 C   0  0  0  0  0  0  0  0  0  0  0  0
   46.5300   34.4140   37.2260 H   0  0  0  0  0  0  0  0  0  0  0  0
   45.8380   32.6190   36.4320 C   0  0  0  0  0  0  0  0  0  0  0  0
   45.4660   32.9150   35.1600 N   0  0  0  0  0  0  0  0  0  0  0  0
   45.0100   31.7970   34.5930 C   0  0  0  0  0  0  0  0  0  0  0  0
   44.6530   31.7940   33.5650 H   0  0  0  0  0  0  0  0  0  0  0  0
   45.0910   30.7840   35.5020 N   0  0  0  0  0  0  0  0  0  0  0  0
   45.6030   31.2670   36.6560 C   0  0  0  0  0  0  0  0  0  0  0  0
   45.9140   30.7510   37.8940 C   0  0  0  0  0  3  0  0  0  0  0  0
   45.5360   33.8640   34.7300 H   0  0  0  0  0  0  0  0  0  0  0  0
  1  2  1  0  0  0  0
  1  9  1  0  0  0  0
  2  7  1  0  0  0  0
  3  8  1  0  0  0  0
  3  2  2  0  0  0  0
  4  3  1  0  0  0  0
  5  4  2  0  0  0  0
  5  6  1  0  0  0  0
  6  1  2  0  0  0  0
  9 15  1  6  0  0  0
  9 14  1  0  0  0  0
 10  9  1  0  0  0  0
 10 11  1  0  0  0  0
 11 12  1  0  0  0  0
 12 21  1  0  0  0  0
 12 13  1  0  0  0  0
 12 20  1  0  0  0  0
 13 23  1  0  0  0  0
 14 25  1  0  0  0  0
 14 24  1  1  0  0  0
 14 13  1  0  0  0  0
 16 10  1  0  0  0  0
 17 10  1  0  0  0  0
 18 11  1  0  0  0  0
 19 11  1  0  0  0  0
 22 13  1  0  0  0  0
 25 26  1  0  0  0  0
 26 28  1  0  0  0  0
 26 27  2  0  0  0  0
 28 31  1  0  0  0  0
 29 25  1  0  0  0  0
 30 28  1  0  0  0  0
 32  5  1  0  0  0  0
 33 32  1  0  0  0  0
 33 38  1  0  0  0  0
 34 33  2  0  0  0  0
 35 36  2  0  0  0  0
 35 34  1  0  0  0  0
 36 37  1  0  0  0  0
 37 32  2  0  0  0  0
 39 34  1  0  0  0  0
 40 35  1  0  0  0  0
 42 41  1  0  0  0  0
 42 36  1  0  0  0  0
 43 42  2  0  0  0  0
 44 43  1  0  0  0  0
 45 50  2  0  0  0  0
 45 43  1  0  0  0  0
 46 45  1  0  0  0  0
 47 46  1  0  0  0  0
 47 49  2  0  0  0  0
 48 47  1  0  0  0  0
 49 50  1  0  0  0  0
 50 51  1  0  0  0  0
 51 41  2  0  0  0  0
 52 46  1  0  0  0  0
M  END
>  <minimizedAffinity>
-7.04745436

>  <minimizedRMSD>
0.413858742

$$$$
