REMARK  Name = 
REMARK  3 active torsions:
REMARK  status: ('A' for Active; 'I' for Inactive)
REMARK    1  A    between atoms: C_1  and  C_11
REMARK    2  A    between atoms: C_5  and  C_7
REMARK    3  A    between atoms: C_13  and  C_21
REMARK                            x       y       z     vdW  Elec       q    Type
REMARK                         _______ _______ _______ _____ _____    ______ ____
ROOT
ATOM      1  C   UNL     1      44.564  35.159  43.887  0.00  0.00    +0.000 C 
ATOM      2  C   UNL     1      44.890  36.608  44.320  0.00  0.00    +0.000 C 
ATOM      3  C   UNL     1      44.972  36.157  42.898  0.00  0.00    +0.000 C 
ATOM      4  H   UNL     1      43.503  34.923  44.166  0.00  0.00    +0.000 HD
ATOM      5  H   UNL     1      44.056  37.284  44.553  0.00  0.00    +0.000 HD
ATOM      6  H   UNL     1      45.819  36.757  44.876  0.00  0.00    +0.000 HD
ATOM      7  H   UNL     1      45.976  36.095  42.477  0.00  0.00    +0.000 HD
ENDROOT
BRANCH   3   9
ATOM      8  C   UNL     1      42.693  36.967  42.396  0.00  0.00    +0.000 A 
ATOM      9  C   UNL     1      43.914  36.560  41.934  0.00  0.00    +0.000 A 
ATOM     10  C   UNL     1      44.097  36.545  40.570  0.00  0.00    +0.000 A 
ATOM     11  H   UNL     1      45.053  36.227  40.175  0.00  0.00    +0.000 HD
ATOM     12  C   UNL     1      43.120  36.917  39.677  0.00  0.00    +0.000 A 
ATOM     13  N   UNL     1      43.029  36.998  38.318  0.00  0.00    +0.000 N 
ATOM     14  C   UNL     1      41.813  37.433  37.964  0.00  0.00    +0.000 A 
ATOM     15  H   UNL     1      41.425  37.605  36.951  0.00  0.00    +0.000 HD
ATOM     16  N   UNL     1      41.123  37.632  39.101  0.00  0.00    +0.000 NA
ATOM     17  C   UNL     1      41.886  37.328  40.174  0.00  0.00    +0.000 A 
ATOM     18  C   UNL     1      41.667  37.354  41.554  0.00  0.00    +0.000 A 
ATOM     19  H   UNL     1      43.804  36.753  37.652  0.00  0.00    +0.000 HD
ENDBRANCH   3   9
BRANCH   1  20
ATOM     20  C   UNL     1      45.529  34.146  44.414  0.00  0.00    +0.000 A 
ATOM     21  C   UNL     1      46.504  33.604  43.537  0.00  0.00    +0.000 A 
ATOM     22  C   UNL     1      47.397  32.674  44.061  0.00  0.00    +0.000 A 
ATOM     23  N   UNL     1      47.285  32.341  45.372  0.00  0.00    +0.000 NA
ATOM     24  C   UNL     1      46.337  32.884  46.174  0.00  0.00    +0.000 A 
ATOM     25  N   UNL     1      45.457  33.792  45.682  0.00  0.00    +0.000 NA
ATOM     26  H   UNL     1      46.559  33.899  42.498  0.00  0.00    +0.000 HD
ATOM     27  H   UNL     1      48.166  32.216  43.463  0.00  0.00    +0.000 HD
BRANCH  24  28
ATOM     28  C   UNL     1      46.395  32.389  47.589  0.00  0.00    +0.000 C 
ATOM     29  F   UNL     1      45.384  32.914  48.355  0.00  0.00    +0.000 F 
ATOM     30  F   UNL     1      47.617  32.749  48.163  0.00  0.00    +0.000 F 
ATOM     31  F   UNL     1      46.386  30.999  47.576  0.00  0.00    +0.000 F 
ENDBRANCH  24  28
ENDBRANCH   1  20
TORSDOF 3
