
 OpenBabel03242513523D

 42 45  0  0  1  0  0  0  0  0999 V2000
   46.5300   34.4030   43.8360 C   0  0  2  0  0  0  0  0  0  0  0  0
   46.0590   33.1770   44.5540 C   0  0  0  0  0  0  0  0  0  0  0  0
   45.4720   33.8090   45.7900 C   0  0  0  0  0  0  0  0  0  0  0  0
   44.8380   35.0400   45.3160 C   0  0  0  0  0  0  0  0  0  0  0  0
   45.2640   35.2190   43.7770 C   0  0  2  0  0  0  0  0  0  0  0  0
   47.2430   34.9630   44.4800 H   0  0  0  0  0  0  0  0  0  0  0  0
   45.2500   32.6910   43.9730 H   0  0  0  0  0  0  0  0  0  0  0  0
   46.8900   32.4780   44.7820 H   0  0  0  0  0  0  0  0  0  0  0  0
   46.3370   34.0660   46.4670 H   0  0  0  0  0  0  0  0  0  0  0  0
   44.8300   33.1110   46.3580 H   0  0  0  0  0  0  0  0  0  0  0  0
   45.1570   35.9740   45.8440 H   0  0  0  0  0  0  0  0  0  0  0  0
   43.7490   34.9360   45.3360 H   0  0  0  0  0  0  0  0  0  0  0  0
   45.4210   36.3000   43.6290 H   0  0  0  0  0  0  0  0  0  0  0  0
   48.1940   34.7360   40.4910 C   0  0  0  0  0  0  0  0  0  0  0  0
   47.7130   35.1270   41.7580 C   0  0  0  0  0  0  0  0  0  0  0  0
   47.0770   34.1770   42.4820 C   0  0  0  0  0  0  0  0  0  0  0  0
   46.9380   32.8940   41.9450 N   0  0  0  0  0  0  0  0  0  0  0  0
   47.4050   32.5540   40.7410 C   0  0  0  0  0  0  0  0  0  0  0  0
   48.0330   33.4760   40.0130 N   0  0  0  0  0  0  0  0  0  0  0  0
   48.7100   35.4690   39.8760 H   0  0  0  0  0  0  0  0  0  0  0  0
   47.8380   36.1240   42.1400 H   0  0  0  0  0  0  0  0  0  0  0  0
   47.2150   31.5230   40.4750 H   0  0  0  0  0  0  0  0  0  0  0  0
   44.2590   34.6290   43.0330 O   0  0  0  0  0  0  0  0  0  0  0  0
   43.5360   35.2100   42.0290 C   0  0  0  0  0  0  0  0  0  0  0  0
   44.1960   36.2590   41.6530 O   0  0  0  0  0  0  0  0  0  0  0  0
   42.3680   35.2510   41.1410 C   0  0  0  0  0  0  0  0  0  0  0  0
   41.1940   35.8750   41.2960 C   0  0  0  0  0  0  0  0  0  0  0  0
   39.9800   35.9790   40.4540 C   0  0  0  0  0  0  0  0  0  0  0  0
   40.2360   36.6530   39.5970 H   0  0  0  0  0  0  0  0  0  0  0  0
   39.1900   36.4550   41.0340 H   0  0  0  0  0  0  0  0  0  0  0  0
   39.4470   34.3820   38.5690 C   0  0  0  0  0  0  0  0  0  0  0  0
   39.5140   34.6820   39.9140 C   0  0  0  0  0  0  0  0  0  0  0  0
   39.1180   33.6950   40.8240 C   0  0  0  0  0  0  0  0  0  0  0  0
   39.1460   33.8680   41.8950 H   0  0  0  0  0  0  0  0  0  0  0  0
   38.6750   32.4660   40.3460 C   0  0  0  0  0  0  0  0  0  0  0  0
   38.2390   31.3480   40.9600 N   0  0  0  0  0  0  0  0  0  0  0  0
   37.9180   30.4070   40.0490 C   0  0  0  0  0  0  0  0  0  0  0  0
   37.5380   29.4050   40.2600 H   0  0  0  0  0  0  0  0  0  0  0  0
   38.1680   30.9730   38.8380 N   0  0  0  0  0  0  0  0  0  0  0  0
   38.6290   32.2260   39.0060 C   0  0  0  0  0  0  0  0  0  0  0  0
   39.0140   33.1750   38.0600 C   0  0  0  0  0  0  0  0  0  0  0  0
   38.1480   31.1970   42.0020 H   0  0  0  0  0  0  0  0  0  0  0  0
  1  6  1  1  0  0  0
  1  2  1  0  0  0  0
  2  8  1  0  0  0  0
  2  3  1  0  0  0  0
  3 10  1  0  0  0  0
  3  9  1  0  0  0  0
  4 12  1  0  0  0  0
  4  3  1  0  0  0  0
  4 11  1  0  0  0  0
  5 13  1  6  0  0  0
  5  1  1  0  0  0  0
  5  4  1  0  0  0  0
  7  2  1  0  0  0  0
 14 15  1  0  0  0  0
 15 21  1  0  0  0  0
 15 16  2  0  0  0  0
 16  1  1  0  0  0  0
 17 16  1  0  0  0  0
 18 17  2  0  0  0  0
 19 14  2  0  0  0  0
 19 18  1  0  0  0  0
 20 14  1  0  0  0  0
 22 18  1  0  0  0  0
 23  5  1  0  0  0  0
 24 23  1  0  0  0  0
 25 24  2  0  0  0  0
 26 27  2  0  0  0  0
 26 24  1  0  0  0  0
 28 30  1  0  0  0  0
 28 27  1  0  0  0  0
 29 28  1  0  0  0  0
 31 32  1  0  0  0  0
 32 28  1  0  0  0  0
 32 33  2  0  0  0  0
 33 34  1  0  0  0  0
 35 33  1  0  0  0  0
 35 36  1  0  0  0  0
 36 42  1  0  0  0  0
 37 38  1  0  0  0  0
 37 36  1  0  0  0  0
 39 40  1  0  0  0  0
 39 37  2  0  0  0  0
 40 35  2  0  0  0  0
 41 31  2  0  0  0  0
 41 40  1  0  0  0  0
M  END
>  <minimizedAffinity>
-6.56583118

>  <minimizedRMSD>
0.808985174

$$$$
