
 OpenBabel03242518173D

 26 28  0  0  0  0  0  0  0  0999 V2000
   45.5830   32.6940   47.4050 C   0  0  0  0  0  0  0  0  0  0  0  0
   44.6570   32.0550   47.3030 H   0  0  0  0  0  0  0  0  0  0  0  0
   45.4700   33.4440   48.1900 H   0  0  0  0  0  0  0  0  0  0  0  0
   47.7930   32.3140   48.4960 C   0  0  0  0  0  0  0  0  0  0  0  0
   46.6990   31.7740   47.8130 C   0  0  0  0  0  0  0  0  0  0  0  0
   46.6510   30.4230   47.5240 C   0  0  0  0  0  0  0  0  0  0  0  0
   45.8080   30.0070   46.9960 H   0  0  0  0  0  0  0  0  0  0  0  0
   47.6930   29.6150   47.9150 C   0  0  0  0  0  0  0  0  0  0  0  0
   47.9330   28.2960   47.7820 N   0  0  0  0  0  0  0  0  0  0  0  0
   49.1400   28.0440   48.3710 C   0  0  0  0  0  0  0  0  0  0  0  0
   49.6130   27.0570   48.4270 H   0  0  0  0  0  0  0  0  0  0  0  0
   49.6620   29.1840   48.8690 N   0  0  0  0  0  0  0  0  0  0  0  0
   48.7770   30.1660   48.5950 C   0  0  0  0  0  0  0  0  0  0  0  0
   48.8470   31.5060   48.8940 C   0  0  0  0  0  0  0  0  0  0  0  0
   47.3160   27.5890   47.3190 H   0  0  0  0  0  0  0  0  0  0  0  0
   45.1930   34.9690   44.5900 C   0  0  0  0  0  0  0  0  0  0  0  0
   46.1820   34.5780   43.6780 C   0  0  0  0  0  0  0  0  0  0  0  0
   46.9920   33.5130   44.0450 C   0  0  0  0  0  0  0  0  0  0  0  0
   46.7990   32.9120   45.2380 N   0  0  0  0  0  0  0  0  0  0  0  0
   45.8410   33.3150   46.0850 C   0  0  0  0  0  0  0  0  0  0  0  0
   45.0220   34.3550   45.7690 N   0  0  0  0  0  0  0  0  0  0  0  0
   44.5350   35.7950   44.3490 H   0  0  0  0  0  0  0  0  0  0  0  0
   47.7460   33.2260   43.3340 H   0  0  0  0  0  0  0  0  0  0  0  0
   46.2510   35.3130   42.4730 N   0  0  0  0  0  0  0  0  0  0  0  0
   46.4760   36.3020   42.2470 H   0  0  0  0  0  0  0  0  0  0  0  0
   46.0190   34.6930   41.6610 H   0  0  0  0  0  0  0  0  0  0  0  0
  1  5  1  0  0  0  0
  1  3  1  0  0  0  0
  2  1  1  0  0  0  0
  4 14  1  0  0  0  0
  5  4  2  0  0  0  0
  6  5  1  0  0  0  0
  6  8  2  0  0  0  0
  7  6  1  0  0  0  0
  8 13  1  0  0  0  0
  9  8  1  0  0  0  0
  9 10  1  0  0  0  0
 10 11  1  0  0  0  0
 10 12  2  0  0  0  0
 13 12  1  0  0  0  0
 13 14  2  0  0  0  0
 15  9  1  0  0  0  0
 16 21  1  0  0  0  0
 17 18  1  0  0  0  0
 17 16  2  0  0  0  0
 18 19  2  0  0  0  0
 19 20  1  0  0  0  0
 20  1  1  0  0  0  0
 21 20  2  0  0  0  0
 22 16  1  0  0  0  0
 23 18  1  0  0  0  0
 24 17  1  0  0  0  0
 25 24  1  0  0  0  0
 26 24  1  0  0  0  0
M  END
>  <minimizedAffinity>
-4.65022898

>  <minimizedRMSD>
3.18823886

$$$$
