REMARK  Name = 
REMARK  4 active torsions:
REMARK  status: ('A' for Active; 'I' for Inactive)
REMARK    1  A    between atoms: C_1  and  C_8
REMARK    2  A    between atoms: C_2  and  S_7
REMARK    3  A    between atoms: C_8  and  C_9
REMARK    4  A    between atoms: C_9  and  C_18
REMARK                            x       y       z     vdW  Elec       q    Type
REMARK                         _______ _______ _______ _____ _____    ______ ____
ROOT
ATOM      1  C   UNL     1      48.182  34.713  39.654  0.00  0.00    +0.000 C 
ATOM      2  H   UNL     1      47.098  34.909  39.425  0.00  0.00    +0.000 HD
ATOM      3  H   UNL     1      48.320  33.617  39.762  0.00  0.00    +0.000 HD
ENDROOT
BRANCH   1   5
ATOM      4  C   UNL     1      48.690  34.662  37.247  0.00  0.00    +0.000 A 
ATOM      5  C   UNL     1      48.967  35.194  38.512  0.00  0.00    +0.000 A 
ATOM      6  C   UNL     1      49.980  36.151  38.580  0.00  0.00    +0.000 A 
ATOM      7  H   UNL     1      50.177  36.546  39.550  0.00  0.00    +0.000 HD
ATOM      8  C   UNL     1      50.684  36.565  37.467  0.00  0.00    +0.000 A 
ATOM      9  N   UNL     1      51.680  37.459  37.316  0.00  0.00    +0.000 N 
ATOM     10  C   UNL     1      52.028  37.497  36.001  0.00  0.00    +0.000 A 
ATOM     11  H   UNL     1      52.791  38.098  35.498  0.00  0.00    +0.000 HD
ATOM     12  N   UNL     1      51.239  36.617  35.329  0.00  0.00    +0.000 NA
ATOM     13  C   UNL     1      50.395  36.025  36.216  0.00  0.00    +0.000 A 
ATOM     14  C   UNL     1      49.390  35.072  36.136  0.00  0.00    +0.000 A 
ATOM     15  H   UNL     1      52.130  38.039  38.060  0.00  0.00    +0.000 HD
ENDBRANCH   1   5
BRANCH   1  16
ATOM     16  C   UNL     1      48.552  35.340  40.961  0.00  0.00    +0.000 C 
ATOM     17  H   UNL     1      48.417  36.444  40.971  0.00  0.00    +0.000 HD
ATOM     18  H   UNL     1      49.628  35.172  41.137  0.00  0.00    +0.000 HD
BRANCH  16  19
ATOM     19  C   UNL     1      47.749  34.839  42.095  0.00  0.00    +0.000 A 
ATOM     20  C   UNL     1      48.303  33.805  42.839  0.00  0.00    +0.000 A 
ATOM     21  C   UNL     1      47.602  33.291  43.913  0.00  0.00    +0.000 A 
ATOM     22  N   UNL     1      46.365  33.828  44.213  0.00  0.00    +0.000 NA
ATOM     23  C   UNL     1      45.863  34.836  43.459  0.00  0.00    +0.000 A 
ATOM     24  N   UNL     1      46.531  35.334  42.427  0.00  0.00    +0.000 NA
ATOM     25  H   UNL     1      47.986  32.499  44.513  0.00  0.00    +0.000 HD
ATOM     26  H   UNL     1      44.898  35.176  43.780  0.00  0.00    +0.000 HD
BRANCH  20  27
ATOM     27  S   UNL     1      49.916  33.142  42.408  0.00  0.00    +0.000 S 
ATOM     28  H   UNL     1      50.829  33.841  43.254  0.00  0.00    +0.000 HD
ENDBRANCH  20  27
ENDBRANCH  16  19
ENDBRANCH   1  16
TORSDOF 4
