
 OpenBabel03242522483D

 44 48  0  0  0  0  0  0  0  0999 V2000
   37.0850   31.3700   40.9730 C   0  0  0  0  0  0  0  0  0  0  0  0
   38.0660   30.4110   41.2620 C   0  0  0  0  0  0  0  0  0  0  0  0
   39.4310   30.7790   41.1570 C   0  0  0  0  0  0  0  0  0  0  0  0
   39.6830   32.0610   40.7750 N   0  0  0  0  0  0  0  0  0  0  0  0
   38.7270   32.9570   40.5050 C   0  0  0  0  0  0  0  0  0  0  0  0
   37.4500   32.6010   40.6080 N   0  0  0  0  0  0  0  0  0  0  0  0
   35.7270   30.9990   41.0800 N   0  0  0  0  0  0  0  0  0  0  0  0
   40.2070   30.0630   41.3710 H   0  0  0  0  0  0  0  0  0  0  0  0
   35.2360   30.3760   40.3970 H   0  0  0  0  0  0  0  0  0  0  0  0
   35.2050   31.3840   41.9050 H   0  0  0  0  0  0  0  0  0  0  0  0
   37.7580   29.0470   41.6700 C   0  0  0  0  0  0  0  0  0  0  0  0
   37.6360   28.5370   42.9360 C   0  0  0  0  0  0  0  0  0  0  0  0
   37.3340   27.2020   43.1310 C   0  0  0  0  0  0  0  0  0  0  0  0
   37.1430   26.3300   42.0710 C   0  0  0  0  0  0  0  0  0  0  0  0
   36.8550   25.0590   42.3470 N   0  0  0  0  0  0  0  0  0  0  0  0
   36.6620   24.1830   41.3160 C   0  0  0  0  0  0  0  0  0  0  0  0
   36.7810   24.6800   40.0240 C   0  0  0  0  0  0  0  0  0  0  0  0
   37.0760   25.9890   39.7180 C   0  0  0  0  0  0  0  0  0  0  0  0
   37.2660   26.8490   40.7910 C   0  0  0  0  0  0  0  0  0  0  0  0
   37.5690   28.1890   40.5770 C   0  0  0  0  0  0  0  0  0  0  0  0
   37.7940   29.2530   43.7180 H   0  0  0  0  0  0  0  0  0  0  0  0
   37.2600   26.8920   44.1600 H   0  0  0  0  0  0  0  0  0  0  0  0
   36.4290   23.1510   41.5280 H   0  0  0  0  0  0  0  0  0  0  0  0
   36.6210   23.9540   39.2370 H   0  0  0  0  0  0  0  0  0  0  0  0
   37.1600   26.3330   38.6950 H   0  0  0  0  0  0  0  0  0  0  0  0
   37.6430   28.4910   39.5300 H   0  0  0  0  0  0  0  0  0  0  0  0
   39.1540   34.3220   40.1060 C   0  0  0  0  0  0  0  0  0  0  0  0
   38.4890   34.8260   39.4080 H   0  0  0  0  0  0  0  0  0  0  0  0
   39.2210   34.9070   41.0690 H   0  0  0  0  0  0  0  0  0  0  0  0
   40.6000   34.2820   39.5690 C   0  0  0  0  0  0  0  0  0  0  0  0
   40.6590   34.8630   38.6260 H   0  0  0  0  0  0  0  0  0  0  0  0
   40.9570   33.2560   39.4890 H   0  0  0  0  0  0  0  0  0  0  0  0
   41.0340   36.1850   41.0620 C   0  0  0  0  0  3  0  0  0  0  0  0
   41.4300   34.9480   40.6330 C   0  0  0  0  0  0  0  0  0  0  0  0
   42.5500   34.3600   41.1710 C   0  0  0  0  0  0  0  0  0  0  0  0
   42.8660   33.3820   40.8330 H   0  0  0  0  0  0  0  0  0  0  0  0
   43.2720   35.0390   42.1550 C   0  0  0  0  0  0  0  0  0  0  0  0
   44.3960   34.7210   42.8580 N   0  0  0  0  0  0  0  0  0  0  0  0
   44.6560   35.7500   43.6840 C   0  0  0  0  0  0  0  0  0  0  0  0
   45.4900   35.8190   44.3920 H   0  0  0  0  0  0  0  0  0  0  0  0
   43.7150   36.7010   43.5080 N   0  0  0  0  0  0  0  0  0  0  0  0
   42.8350   36.2970   42.5640 C   0  0  0  0  0  0  0  0  0  0  0  0
   41.7050   36.9030   42.0290 C   0  0  0  0  0  3  0  0  0  0  0  0
   44.9210   33.8250   42.7370 H   0  0  0  0  0  0  0  0  0  0  0  0
  1  7  1  0  0  0  0
  1  2  1  0  0  0  0
  2 11  1  0  0  0  0
  3  2  2  0  0  0  0
  3  8  1  0  0  0  0
  4  3  1  0  0  0  0
  5  6  1  0  0  0  0
  5  4  2  0  0  0  0
  6  1  2  0  0  0  0
  7 10  1  0  0  0  0
  9  7  1  0  0  0  0
 11 12  1  0  0  0  0
 12 13  2  0  0  0  0
 12 21  1  0  0  0  0
 13 22  1  0  0  0  0
 14 15  1  0  0  0  0
 14 13  1  0  0  0  0
 16 23  1  0  0  0  0
 16 15  2  0  0  0  0
 17 16  1  0  0  0  0
 18 17  2  0  0  0  0
 18 19  1  0  0  0  0
 19 14  2  0  0  0  0
 20 19  1  0  0  0  0
 20 11  2  0  0  0  0
 24 17  1  0  0  0  0
 25 18  1  0  0  0  0
 26 20  1  0  0  0  0
 27  5  1  0  0  0  0
 27 29  1  0  0  0  0
 28 27  1  0  0  0  0
 30 27  1  0  0  0  0
 30 34  1  0  0  0  0
 31 30  1  0  0  0  0
 32 30  1  0  0  0  0
 33 43  1  0  0  0  0
 34 33  2  0  0  0  0
 34 35  1  0  0  0  0
 35 37  2  0  0  0  0
 36 35  1  0  0  0  0
 37 42  1  0  0  0  0
 37 38  1  0  0  0  0
 38 39  1  0  0  0  0
 39 40  1  0  0  0  0
 41 39  2  0  0  0  0
 42 41  1  0  0  0  0
 43 42  2  0  0  0  0
 44 38  1  0  0  0  0
M  END
>  <minimizedAffinity>
-8.08620548

$$$$

 OpenBabel03242522483D

 44 48  0  0  0  0  0  0  0  0999 V2000
   36.9860   31.3310   40.5750 C   0  0  0  0  0  0  0  0  0  0  0  0
   37.7520   30.3460   39.9360 C   0  0  0  0  0  0  0  0  0  0  0  0
   39.0010   30.7110   39.3740 C   0  0  0  0  0  0  0  0  0  0  0  0
   39.3620   32.0170   39.5020 N   0  0  0  0  0  0  0  0  0  0  0  0
   38.6100   32.9380   40.1170 C   0  0  0  0  0  0  0  0  0  0  0  0
   37.4420   32.5830   40.6410 N   0  0  0  0  0  0  0  0  0  0  0  0
   35.7430   30.9610   41.1330 N   0  0  0  0  0  0  0  0  0  0  0  0
   39.6110   29.9760   38.8760 H   0  0  0  0  0  0  0  0  0  0  0  0
   34.8890   30.7460   40.5670 H   0  0  0  0  0  0  0  0  0  0  0  0
   35.7040   30.9050   42.1810 H   0  0  0  0  0  0  0  0  0  0  0  0
   37.3340   28.9550   39.8190 C   0  0  0  0  0  0  0  0  0  0  0  0
   36.7340   28.3260   38.7600 C   0  0  0  0  0  0  0  0  0  0  0  0
   36.4070   26.9840   38.8320 C   0  0  0  0  0  0  0  0  0  0  0  0
   36.6660   26.2240   39.9610 C   0  0  0  0  0  0  0  0  0  0  0  0
   36.3180   24.9390   39.9480 N   0  0  0  0  0  0  0  0  0  0  0  0
   36.5650   24.1720   41.0520 C   0  0  0  0  0  0  0  0  0  0  0  0
   37.1730   24.7910   42.1370 C   0  0  0  0  0  0  0  0  0  0  0  0
   37.5400   26.1170   42.1710 C   0  0  0  0  0  0  0  0  0  0  0  0
   37.2730   26.8640   41.0320 C   0  0  0  0  0  0  0  0  0  0  0  0
   37.6090   28.2120   40.9760 C   0  0  0  0  0  0  0  0  0  0  0  0
   36.5560   28.9580   37.9130 H   0  0  0  0  0  0  0  0  0  0  0  0
   35.9370   26.5760   37.9520 H   0  0  0  0  0  0  0  0  0  0  0  0
   36.2870   23.1290   41.0510 H   0  0  0  0  0  0  0  0  0  0  0  0
   37.3500   24.1490   42.9900 H   0  0  0  0  0  0  0  0  0  0  0  0
   38.0120   26.5580   43.0390 H   0  0  0  0  0  0  0  0  0  0  0  0
   38.0820   28.6140   41.8740 H   0  0  0  0  0  0  0  0  0  0  0  0
   39.1380   34.3240   40.1860 C   0  0  0  0  0  0  0  0  0  0  0  0
   38.4870   35.0860   39.7600 H   0  0  0  0  0  0  0  0  0  0  0  0
   39.3060   34.5260   41.2820 H   0  0  0  0  0  0  0  0  0  0  0  0
   40.5460   34.3800   39.5560 C   0  0  0  0  0  0  0  0  0  0  0  0
   40.5280   35.0490   38.6710 H   0  0  0  0  0  0  0  0  0  0  0  0
   40.9230   33.3780   39.3550 H   0  0  0  0  0  0  0  0  0  0  0  0
   41.0960   36.2050   41.1070 C   0  0  0  0  0  3  0  0  0  0  0  0
   41.4280   34.9690   40.6240 C   0  0  0  0  0  0  0  0  0  0  0  0
   42.5320   34.3120   41.1140 C   0  0  0  0  0  0  0  0  0  0  0  0
   42.7960   33.3350   40.7330 H   0  0  0  0  0  0  0  0  0  0  0  0
   43.3040   34.9220   42.1040 C   0  0  0  0  0  0  0  0  0  0  0  0
   44.4280   34.5290   42.7690 N   0  0  0  0  0  0  0  0  0  0  0  0
   44.7510   35.5130   43.6260 C   0  0  0  0  0  0  0  0  0  0  0  0
   45.6030   35.5190   44.3160 H   0  0  0  0  0  0  0  0  0  0  0  0
   43.8500   36.5110   43.5070 N   0  0  0  0  0  0  0  0  0  0  0  0
   42.9330   36.1820   42.5700 C   0  0  0  0  0  0  0  0  0  0  0  0
   41.8200   36.8560   42.0840 C   0  0  0  0  0  3  0  0  0  0  0  0
   44.9090   33.6160   42.6030 H   0  0  0  0  0  0  0  0  0  0  0  0
  1  6  1  0  0  0  0
  1  7  1  0  0  0  0
  2  1  2  0  0  0  0
  3  4  2  0  0  0  0
  3  2  1  0  0  0  0
  4  5  1  0  0  0  0
  5 27  1  0  0  0  0
  5  6  2  0  0  0  0
  7 10  1  0  0  0  0
  8  3  1  0  0  0  0
  9  7  1  0  0  0  0
 11  2  1  0  0  0  0
 11 20  1  0  0  0  0
 12 13  1  0  0  0  0
 12 11  2  0  0  0  0
 13 14  2  0  0  0  0
 14 19  1  0  0  0  0
 15 14  1  0  0  0  0
 15 16  2  0  0  0  0
 16 17  1  0  0  0  0
 17 18  2  0  0  0  0
 17 24  1  0  0  0  0
 18 25  1  0  0  0  0
 19 18  1  0  0  0  0
 20 19  2  0  0  0  0
 20 26  1  0  0  0  0
 21 12  1  0  0  0  0
 22 13  1  0  0  0  0
 23 16  1  0  0  0  0
 27 29  1  0  0  0  0
 28 27  1  0  0  0  0
 30 27  1  0  0  0  0
 30 34  1  0  0  0  0
 31 30  1  0  0  0  0
 32 30  1  0  0  0  0
 33 43  1  0  0  0  0
 34 33  2  0  0  0  0
 34 35  1  0  0  0  0
 35 37  2  0  0  0  0
 36 35  1  0  0  0  0
 37 42  1  0  0  0  0
 37 38  1  0  0  0  0
 38 39  1  0  0  0  0
 39 40  1  0  0  0  0
 41 39  2  0  0  0  0
 42 41  1  0  0  0  0
 43 42  2  0  0  0  0
 44 38  1  0  0  0  0
M  END
>  <minimizedAffinity>
-7.82788658

$$$$

 OpenBabel03242522483D

 44 48  0  0  0  0  0  0  0  0999 V2000
   36.7680   29.9880   40.7830 C   0  0  0  0  0  0  0  0  0  0  0  0
   37.8680   30.5680   40.1330 C   0  0  0  0  0  0  0  0  0  0  0  0
   38.8280   29.7200   39.5270 C   0  0  0  0  0  0  0  0  0  0  0  0
   38.6000   28.3810   39.6270 N   0  0  0  0  0  0  0  0  0  0  0  0
   37.5420   27.8530   40.2540 C   0  0  0  0  0  0  0  0  0  0  0  0
   36.6480   28.6590   40.8180 N   0  0  0  0  0  0  0  0  0  0  0  0
   35.8150   30.8380   41.3850 N   0  0  0  0  0  0  0  0  0  0  0  0
   39.6820   30.1370   39.0220 H   0  0  0  0  0  0  0  0  0  0  0  0
   35.9830   31.3690   42.2710 H   0  0  0  0  0  0  0  0  0  0  0  0
   34.8930   30.9220   40.8910 H   0  0  0  0  0  0  0  0  0  0  0  0
   38.0770   32.0070   40.0450 C   0  0  0  0  0  0  0  0  0  0  0  0
   37.1880   32.9830   39.6760 C   0  0  0  0  0  0  0  0  0  0  0  0
   37.5710   34.3110   39.6520 C   0  0  0  0  0  0  0  0  0  0  0  0
   38.8520   34.7130   39.9950 C   0  0  0  0  0  0  0  0  0  0  0  0
   39.1380   36.0120   39.9450 N   0  0  0  0  0  0  0  0  0  0  0  0
   40.3950   36.4300   40.2810 C   0  0  0  0  0  0  0  0  0  0  0  0
   41.3120   35.4560   40.6580 C   0  0  0  0  0  0  0  0  0  0  0  0
   41.0360   34.1090   40.7170 C   0  0  0  0  0  0  0  0  0  0  0  0
   39.7500   33.7240   40.3690 C   0  0  0  0  0  0  0  0  0  0  0  0
   39.3810   32.3840   40.3990 C   0  0  0  0  0  0  0  0  0  0  0  0
   36.2130   32.6180   39.4200 H   0  0  0  0  0  0  0  0  0  0  0  0
   36.8050   35.0060   39.3480 H   0  0  0  0  0  0  0  0  0  0  0  0
   40.6370   37.4810   40.2430 H   0  0  0  0  0  0  0  0  0  0  0  0
   42.2960   35.8280   40.9150 H   0  0  0  0  0  0  0  0  0  0  0  0
   41.7830   33.3850   41.0170 H   0  0  0  0  0  0  0  0  0  0  0  0
   40.1660   31.6890   40.7060 H   0  0  0  0  0  0  0  0  0  0  0  0
   37.4220   26.3730   40.2760 C   0  0  0  0  0  0  0  0  0  0  0  0
   36.6790   25.9630   39.5940 H   0  0  0  0  0  0  0  0  0  0  0  0
   38.4480   25.9870   40.0100 H   0  0  0  0  0  0  0  0  0  0  0  0
   37.1810   25.8900   41.7210 C   0  0  0  0  0  0  0  0  0  0  0  0
   36.8520   24.8310   41.7050 H   0  0  0  0  0  0  0  0  0  0  0  0
   36.5080   26.5630   42.2500 H   0  0  0  0  0  0  0  0  0  0  0  0
   38.6450   26.9040   43.4130 C   0  0  0  0  0  3  0  0  0  0  0  0
   38.5210   25.9980   42.3970 C   0  0  0  0  0  0  0  0  0  0  0  0
   39.5980   25.2280   42.0270 C   0  0  0  0  0  0  0  0  0  0  0  0
   39.5030   24.5100   41.2220 H   0  0  0  0  0  0  0  0  0  0  0  0
   40.8120   25.3840   42.6990 C   0  0  0  0  0  0  0  0  0  0  0  0
   42.0260   24.7800   42.5620 N   0  0  0  0  0  0  0  0  0  0  0  0
   42.8490   25.3190   43.4790 C   0  0  0  0  0  0  0  0  0  0  0  0
   43.9010   25.0580   43.6410 H   0  0  0  0  0  0  0  0  0  0  0  0
   42.1680   26.2480   44.1840 N   0  0  0  0  0  0  0  0  0  0  0  0
   40.8970   26.3190   43.7290 C   0  0  0  0  0  0  0  0  0  0  0  0
   39.8170   27.1030   44.1130 C   0  0  0  0  0  3  0  0  0  0  0  0
   42.2260   24.0360   41.8550 H   0  0  0  0  0  0  0  0  0  0  0  0
  1  6  1  0  0  0  0
  1  7  1  0  0  0  0
  2  1  2  0  0  0  0
  3  4  2  0  0  0  0
  3  2  1  0  0  0  0
  4  5  1  0  0  0  0
  5 27  1  0  0  0  0
  5  6  2  0  0  0  0
  7  9  1  0  0  0  0
  8  3  1  0  0  0  0
 10  7  1  0  0  0  0
 11  2  1  0  0  0  0
 11 20  1  0  0  0  0
 12 11  2  0  0  0  0
 13 12  1  0  0  0  0
 13 14  2  0  0  0  0
 14 19  1  0  0  0  0
 15 14  1  0  0  0  0
 15 16  2  0  0  0  0
 16 17  1  0  0  0  0
 17 18  2  0  0  0  0
 17 24  1  0  0  0  0
 18 25  1  0  0  0  0
 19 20  2  0  0  0  0
 19 18  1  0  0  0  0
 20 26  1  0  0  0  0
 21 12  1  0  0  0  0
 22 13  1  0  0  0  0
 23 16  1  0  0  0  0
 27 30  1  0  0  0  0
 28 27  1  0  0  0  0
 29 27  1  0  0  0  0
 30 32  1  0  0  0  0
 30 34  1  0  0  0  0
 31 30  1  0  0  0  0
 33 43  1  0  0  0  0
 34 33  2  0  0  0  0
 35 34  1  0  0  0  0
 35 37  2  0  0  0  0
 36 35  1  0  0  0  0
 37 42  1  0  0  0  0
 38 37  1  0  0  0  0
 38 39  1  0  0  0  0
 39 40  1  0  0  0  0
 39 41  2  0  0  0  0
 42 43  2  0  0  0  0
 42 41  1  0  0  0  0
 44 38  1  0  0  0  0
M  END
>  <minimizedAffinity>
-7.5544486

$$$$

 OpenBabel03242522483D

 44 48  0  0  0  0  0  0  0  0999 V2000
   35.9320   30.2370   40.0740 C   0  0  0  0  0  0  0  0  0  0  0  0
   36.9400   30.6760   39.2030 C   0  0  0  0  0  0  0  0  0  0  0  0
   36.8670   30.3080   37.8360 C   0  0  0  0  0  0  0  0  0  0  0  0
   35.8030   29.5410   37.4720 N   0  0  0  0  0  0  0  0  0  0  0  0
   34.8550   29.1360   38.3250 C   0  0  0  0  0  0  0  0  0  0  0  0
   34.9330   29.4880   39.6040 N   0  0  0  0  0  0  0  0  0  0  0  0
   36.0090   30.6070   41.4340 N   0  0  0  0  0  0  0  0  0  0  0  0
   37.6270   30.6300   37.1440 H   0  0  0  0  0  0  0  0  0  0  0  0
   36.6930   30.1980   42.1130 H   0  0  0  0  0  0  0  0  0  0  0  0
   35.3280   31.3390   41.7550 H   0  0  0  0  0  0  0  0  0  0  0  0
   38.0650   31.4980   39.6280 C   0  0  0  0  0  0  0  0  0  0  0  0
   39.3090   31.1000   40.0440 C   0  0  0  0  0  0  0  0  0  0  0  0
   40.2600   32.0350   40.4120 C   0  0  0  0  0  0  0  0  0  0  0  0
   40.0030   33.3960   40.3790 C   0  0  0  0  0  0  0  0  0  0  0  0
   40.9740   34.2280   40.7510 N   0  0  0  0  0  0  0  0  0  0  0  0
   40.7420   35.5740   40.7250 C   0  0  0  0  0  0  0  0  0  0  0  0
   39.4870   35.9980   40.3060 C   0  0  0  0  0  0  0  0  0  0  0  0
   38.4700   35.1550   39.9180 C   0  0  0  0  0  0  0  0  0  0  0  0
   38.7430   33.7950   39.9580 C   0  0  0  0  0  0  0  0  0  0  0  0
   37.7760   32.8690   39.5840 C   0  0  0  0  0  0  0  0  0  0  0  0
   39.4540   30.0390   40.0510 H   0  0  0  0  0  0  0  0  0  0  0  0
   41.2070   31.6290   40.7260 H   0  0  0  0  0  0  0  0  0  0  0  0
   41.5220   36.2580   41.0240 H   0  0  0  0  0  0  0  0  0  0  0  0
   39.3440   37.0720   40.3000 H   0  0  0  0  0  0  0  0  0  0  0  0
   37.5060   35.5300   39.5980 H   0  0  0  0  0  0  0  0  0  0  0  0
   36.8190   33.2920   39.2690 H   0  0  0  0  0  0  0  0  0  0  0  0
   33.7480   28.3080   37.7810 C   0  0  0  0  0  0  0  0  0  0  0  0
   33.9380   27.2370   37.7700 H   0  0  0  0  0  0  0  0  0  0  0  0
   32.8570   28.5360   38.4340 H   0  0  0  0  0  0  0  0  0  0  0  0
   33.3510   28.8200   36.3810 C   0  0  0  0  0  0  0  0  0  0  0  0
   33.1100   27.9560   35.7280 H   0  0  0  0  0  0  0  0  0  0  0  0
   34.1130   29.4880   35.9800 H   0  0  0  0  0  0  0  0  0  0  0  0
   31.6530   30.3890   35.5500 C   0  0  0  0  0  3  0  0  0  0  0  0
   32.1180   29.6520   36.6040 C   0  0  0  0  0  0  0  0  0  0  0  0
   31.4630   29.6920   37.8130 C   0  0  0  0  0  0  0  0  0  0  0  0
   31.8300   29.1100   38.6480 H   0  0  0  0  0  0  0  0  0  0  0  0
   30.3250   30.4890   37.9470 C   0  0  0  0  0  0  0  0  0  0  0  0
   29.4840   30.7260   38.9930 N   0  0  0  0  0  0  0  0  0  0  0  0
   28.5430   31.5860   38.5640 C   0  0  0  0  0  0  0  0  0  0  0  0
   27.7100   31.9850   39.1550 H   0  0  0  0  0  0  0  0  0  0  0  0
   28.7830   31.8870   37.2700 N   0  0  0  0  0  0  0  0  0  0  0  0
   29.8830   31.2240   36.8490 C   0  0  0  0  0  0  0  0  0  0  0  0
   30.5350   31.1940   35.6220 C   0  0  0  0  0  3  0  0  0  0  0  0
   29.5970   30.2920   39.9370 H   0  0  0  0  0  0  0  0  0  0  0  0
  1  7  1  0  0  0  0
  2 11  1  0  0  0  0
  2  1  2  0  0  0  0
  3  2  1  0  0  0  0
  4  3  2  0  0  0  0
  4  5  1  0  0  0  0
  5  6  2  0  0  0  0
  6  1  1  0  0  0  0
  7 10  1  0  0  0  0
  7  9  1  0  0  0  0
  8  3  1  0  0  0  0
 11 12  1  0  0  0  0
 12 21  1  0  0  0  0
 12 13  2  0  0  0  0
 13 22  1  0  0  0  0
 14 13  1  0  0  0  0
 14 15  1  0  0  0  0
 16 15  2  0  0  0  0
 16 23  1  0  0  0  0
 17 16  1  0  0  0  0
 18 19  1  0  0  0  0
 18 17  2  0  0  0  0
 19 14  2  0  0  0  0
 20 11  2  0  0  0  0
 20 19  1  0  0  0  0
 24 17  1  0  0  0  0
 25 18  1  0  0  0  0
 26 20  1  0  0  0  0
 27  5  1  0  0  0  0
 27 29  1  0  0  0  0
 28 27  1  0  0  0  0
 30 34  1  0  0  0  0
 30 27  1  0  0  0  0
 31 30  1  0  0  0  0
 32 30  1  0  0  0  0
 33 43  2  0  0  0  0
 33 34  1  0  0  0  0
 34 35  2  0  0  0  0
 35 37  1  0  0  0  0
 35 36  1  0  0  0  0
 37 38  1  0  0  0  0
 38 44  1  0  0  0  0
 39 38  1  0  0  0  0
 39 40  1  0  0  0  0
 41 39  2  0  0  0  0
 42 41  1  0  0  0  0
 42 37  2  0  0  0  0
 43 42  1  0  0  0  0
M  END
>  <minimizedAffinity>
-7.33631182

$$$$

 OpenBabel03242522483D

 44 48  0  0  0  0  0  0  0  0999 V2000
   37.7760   32.5100   39.4680 C   0  0  0  0  0  0  0  0  0  0  0  0
   39.1490   32.2940   39.2810 C   0  0  0  0  0  0  0  0  0  0  0  0
   39.5650   31.1750   38.5170 C   0  0  0  0  0  0  0  0  0  0  0  0
   38.5770   30.3840   38.0160 N   0  0  0  0  0  0  0  0  0  0  0  0
   37.2730   30.6130   38.2100 C   0  0  0  0  0  0  0  0  0  0  0  0
   36.8940   31.6660   38.9280 N   0  0  0  0  0  0  0  0  0  0  0  0
   37.3670   33.6270   40.2300 N   0  0  0  0  0  0  0  0  0  0  0  0
   40.6130   30.9830   38.3570 H   0  0  0  0  0  0  0  0  0  0  0  0
   37.4590   33.6890   41.2710 H   0  0  0  0  0  0  0  0  0  0  0  0
   36.9510   34.4270   39.6930 H   0  0  0  0  0  0  0  0  0  0  0  0
   40.1790   33.1640   39.8320 C   0  0  0  0  0  0  0  0  0  0  0  0
   40.3710   34.5050   39.6220 C   0  0  0  0  0  0  0  0  0  0  0  0
   41.4150   35.1710   40.2380 C   0  0  0  0  0  0  0  0  0  0  0  0
   42.3010   34.5250   41.0840 C   0  0  0  0  0  0  0  0  0  0  0  0
   43.2790   35.2410   41.6370 N   0  0  0  0  0  0  0  0  0  0  0  0
   44.1640   34.6220   42.4740 C   0  0  0  0  0  0  0  0  0  0  0  0
   43.9860   33.2630   42.7010 C   0  0  0  0  0  0  0  0  0  0  0  0
   42.9830   32.5060   42.1400 C   0  0  0  0  0  0  0  0  0  0  0  0
   42.1050   33.1680   41.2950 C   0  0  0  0  0  0  0  0  0  0  0  0
   41.0600   32.4830   40.6840 C   0  0  0  0  0  0  0  0  0  0  0  0
   39.6590   34.9550   38.9600 H   0  0  0  0  0  0  0  0  0  0  0  0
   41.4870   36.2230   40.0130 H   0  0  0  0  0  0  0  0  0  0  0  0
   44.9600   35.1930   42.9270 H   0  0  0  0  0  0  0  0  0  0  0  0
   44.7080   32.8120   43.3690 H   0  0  0  0  0  0  0  0  0  0  0  0
   42.8830   31.4470   42.3450 H   0  0  0  0  0  0  0  0  0  0  0  0
   40.9980   31.4180   40.9180 H   0  0  0  0  0  0  0  0  0  0  0  0
   36.3080   29.6660   37.5960 C   0  0  0  0  0  0  0  0  0  0  0  0
   35.9080   29.9790   36.6330 H   0  0  0  0  0  0  0  0  0  0  0  0
   36.8720   28.6950   37.4850 H   0  0  0  0  0  0  0  0  0  0  0  0
   35.1750   29.3520   38.5950 C   0  0  0  0  0  0  0  0  0  0  0  0
   34.4440   28.6670   38.1190 H   0  0  0  0  0  0  0  0  0  0  0  0
   34.7400   30.2690   38.9910 H   0  0  0  0  0  0  0  0  0  0  0  0
   36.3840   27.4210   39.5150 C   0  0  0  0  0  3  0  0  0  0  0  0
   35.8510   28.6590   39.7460 C   0  0  0  0  0  0  0  0  0  0  0  0
   35.9450   29.2250   40.9960 C   0  0  0  0  0  0  0  0  0  0  0  0
   35.5240   30.2050   41.1810 H   0  0  0  0  0  0  0  0  0  0  0  0
   36.5870   28.5220   42.0170 C   0  0  0  0  0  0  0  0  0  0  0  0
   36.8300   28.8150   43.3260 N   0  0  0  0  0  0  0  0  0  0  0  0
   37.4920   27.7700   43.8550 C   0  0  0  0  0  0  0  0  0  0  0  0
   37.8410   27.6800   44.8900 H   0  0  0  0  0  0  0  0  0  0  0  0
   37.6650   26.8330   42.8990 N   0  0  0  0  0  0  0  0  0  0  0  0
   37.1150   27.2630   41.7400 C   0  0  0  0  0  0  0  0  0  0  0  0
   37.0280   26.6790   40.4820 C   0  0  0  0  0  3  0  0  0  0  0  0
   36.5330   29.7060   43.7850 H   0  0  0  0  0  0  0  0  0  0  0  0
  1  7  1  0  0  0  0
  2  1  1  0  0  0  0
  2 11  1  0  0  0  0
  3  2  2  0  0  0  0
  4  5  2  0  0  0  0
  4  3  1  0  0  0  0
  5  6  1  0  0  0  0
  6  1  2  0  0  0  0
  7  9  1  0  0  0  0
  8  3  1  0  0  0  0
 10  7  1  0  0  0  0
 11 20  1  0  0  0  0
 12 11  2  0  0  0  0
 12 13  1  0  0  0  0
 13 14  2  0  0  0  0
 14 19  1  0  0  0  0
 14 15  1  0  0  0  0
 15 16  2  0  0  0  0
 16 17  1  0  0  0  0
 16 23  1  0  0  0  0
 17 24  1  0  0  0  0
 18 25  1  0  0  0  0
 18 17  2  0  0  0  0
 19 18  1  0  0  0  0
 20 26  1  0  0  0  0
 20 19  2  0  0  0  0
 21 12  1  0  0  0  0
 22 13  1  0  0  0  0
 27  5  1  0  0  0  0
 27 30  1  0  0  0  0
 28 27  1  0  0  0  0
 29 27  1  0  0  0  0
 30 32  1  0  0  0  0
 30 34  1  0  0  0  0
 31 30  1  0  0  0  0
 33 34  2  0  0  0  0
 33 43  1  0  0  0  0
 34 35  1  0  0  0  0
 35 36  1  0  0  0  0
 35 37  2  0  0  0  0
 37 38  1  0  0  0  0
 38 44  1  0  0  0  0
 38 39  1  0  0  0  0
 39 40  1  0  0  0  0
 41 39  2  0  0  0  0
 42 37  1  0  0  0  0
 42 41  1  0  0  0  0
 43 42  2  0  0  0  0
M  END
>  <minimizedAffinity>
-7.24949932

$$$$

 OpenBabel03242522483D

 44 48  0  0  0  0  0  0  0  0999 V2000
   37.0660   31.2790   40.8700 C   0  0  0  0  0  0  0  0  0  0  0  0
   38.0340   30.2690   40.9590 C   0  0  0  0  0  0  0  0  0  0  0  0
   39.3680   30.5670   40.5830 C   0  0  0  0  0  0  0  0  0  0  0  0
   39.6050   31.8370   40.1560 N   0  0  0  0  0  0  0  0  0  0  0  0
   38.6620   32.7830   40.0790 C   0  0  0  0  0  0  0  0  0  0  0  0
   37.4150   32.4920   40.4360 N   0  0  0  0  0  0  0  0  0  0  0  0
   35.7390   30.9770   41.2460 N   0  0  0  0  0  0  0  0  0  0  0  0
   40.1330   29.8100   40.6400 H   0  0  0  0  0  0  0  0  0  0  0  0
   35.0900   30.3860   40.6760 H   0  0  0  0  0  0  0  0  0  0  0  0
   35.4130   31.3820   42.1580 H   0  0  0  0  0  0  0  0  0  0  0  0
   37.7430   28.9190   41.4240 C   0  0  0  0  0  0  0  0  0  0  0  0
   37.7010   28.4450   42.7090 C   0  0  0  0  0  0  0  0  0  0  0  0
   37.4010   27.1180   42.9600 C   0  0  0  0  0  0  0  0  0  0  0  0
   37.1350   26.2200   41.9390 C   0  0  0  0  0  0  0  0  0  0  0  0
   36.8560   24.9590   42.2680 N   0  0  0  0  0  0  0  0  0  0  0  0
   36.5890   24.0570   41.2760 C   0  0  0  0  0  0  0  0  0  0  0  0
   36.6270   24.5180   39.9660 C   0  0  0  0  0  0  0  0  0  0  0  0
   36.9120   25.8160   39.6060 C   0  0  0  0  0  0  0  0  0  0  0  0
   37.1780   26.7020   40.6400 C   0  0  0  0  0  0  0  0  0  0  0  0
   37.4760   28.0330   40.3700 C   0  0  0  0  0  0  0  0  0  0  0  0
   37.9140   29.1800   43.4580 H   0  0  0  0  0  0  0  0  0  0  0  0
   37.3930   26.8360   44.0000 H   0  0  0  0  0  0  0  0  0  0  0  0
   36.3630   23.0340   41.5320 H   0  0  0  0  0  0  0  0  0  0  0  0
   36.4110   23.7730   39.2120 H   0  0  0  0  0  0  0  0  0  0  0  0
   36.9310   26.1310   38.5700 H   0  0  0  0  0  0  0  0  0  0  0  0
   37.4840   28.3060   39.3120 H   0  0  0  0  0  0  0  0  0  0  0  0
   39.0720   34.1280   39.6000 C   0  0  0  0  0  0  0  0  0  0  0  0
   39.5040   34.1470   38.6020 H   0  0  0  0  0  0  0  0  0  0  0  0
   38.1340   34.7530   39.6290 H   0  0  0  0  0  0  0  0  0  0  0  0
   40.0150   34.7840   40.6300 C   0  0  0  0  0  0  0  0  0  0  0  0
   39.8540   34.3220   41.6250 H   0  0  0  0  0  0  0  0  0  0  0  0
   39.9140   35.8690   40.6150 H   0  0  0  0  0  0  0  0  0  0  0  0
   42.3640   34.2200   41.0810 C   0  0  0  0  0  3  0  0  0  0  0  0
   41.4040   34.4720   40.1410 C   0  0  0  0  0  0  0  0  0  0  0  0
   41.7240   34.4350   38.8040 C   0  0  0  0  0  0  0  0  0  0  0  0
   40.9660   34.6350   38.0580 H   0  0  0  0  0  0  0  0  0  0  0  0
   43.0350   34.1390   38.4250 C   0  0  0  0  0  0  0  0  0  0  0  0
   43.6400   34.0330   37.2080 N   0  0  0  0  0  0  0  0  0  0  0  0
   44.9310   33.7240   37.4280 C   0  0  0  0  0  0  0  0  0  0  0  0
   45.6990   33.5650   36.6630 H   0  0  0  0  0  0  0  0  0  0  0  0
   45.1390   33.6370   38.7590 N   0  0  0  0  0  0  0  0  0  0  0  0
   43.9830   33.8890   39.4140 C   0  0  0  0  0  0  0  0  0  0  0  0
   43.6730   33.9230   40.7680 C   0  0  0  0  0  3  0  0  0  0  0  0
   43.1430   34.1750   36.2990 H   0  0  0  0  0  0  0  0  0  0  0  0
  1  2  1  0  0  0  0
  1  7  1  0  0  0  0
  2 11  1  0  0  0  0
  3  8  1  0  0  0  0
  3  2  2  0  0  0  0
  4  3  1  0  0  0  0
  5  4  2  0  0  0  0
  5  6  1  0  0  0  0
  6  1  2  0  0  0  0
  7 10  1  0  0  0  0
  9  7  1  0  0  0  0
 11 12  1  0  0  0  0
 12 13  2  0  0  0  0
 12 21  1  0  0  0  0
 13 22  1  0  0  0  0
 14 15  1  0  0  0  0
 14 13  1  0  0  0  0
 16 23  1  0  0  0  0
 16 15  2  0  0  0  0
 17 16  1  0  0  0  0
 18 17  2  0  0  0  0
 18 19  1  0  0  0  0
 19 14  2  0  0  0  0
 20 19  1  0  0  0  0
 20 11  2  0  0  0  0
 24 17  1  0  0  0  0
 25 18  1  0  0  0  0
 26 20  1  0  0  0  0
 27 29  1  0  0  0  0
 27  5  1  0  0  0  0
 27 30  1  0  0  0  0
 28 27  1  0  0  0  0
 30 31  1  0  0  0  0
 32 30  1  0  0  0  0
 34 30  1  0  0  0  0
 34 33  2  0  0  0  0
 35 34  1  0  0  0  0
 36 35  1  0  0  0  0
 37 35  2  0  0  0  0
 37 42  1  0  0  0  0
 38 39  1  0  0  0  0
 38 37  1  0  0  0  0
 39 41  2  0  0  0  0
 40 39  1  0  0  0  0
 41 42  1  0  0  0  0
 42 43  2  0  0  0  0
 43 33  1  0  0  0  0
 44 38  1  0  0  0  0
M  END
>  <minimizedAffinity>
-7.22557878

$$$$

 OpenBabel03242522483D

 44 48  0  0  0  0  0  0  0  0999 V2000
   38.1340   29.6550   39.4050 C   0  0  0  0  0  0  0  0  0  0  0  0
   37.8300   30.6090   40.3870 C   0  0  0  0  0  0  0  0  0  0  0  0
   37.2470   30.1740   41.6040 C   0  0  0  0  0  0  0  0  0  0  0  0
   37.0250   28.8360   41.7220 N   0  0  0  0  0  0  0  0  0  0  0  0
   37.3240   27.9470   40.7690 C   0  0  0  0  0  0  0  0  0  0  0  0
   37.8710   28.3660   39.6320 N   0  0  0  0  0  0  0  0  0  0  0  0
   38.7150   30.0940   38.1950 N   0  0  0  0  0  0  0  0  0  0  0  0
   37.0030   30.8850   42.3750 H   0  0  0  0  0  0  0  0  0  0  0  0
   38.1910   30.6090   37.4490 H   0  0  0  0  0  0  0  0  0  0  0  0
   39.7330   29.8770   38.0650 H   0  0  0  0  0  0  0  0  0  0  0  0
   38.0850   32.0340   40.2240 C   0  0  0  0  0  0  0  0  0  0  0  0
   37.2230   33.0190   39.8170 C   0  0  0  0  0  0  0  0  0  0  0  0
   37.6480   34.3320   39.7230 C   0  0  0  0  0  0  0  0  0  0  0  0
   38.9450   34.7070   40.0320 C   0  0  0  0  0  0  0  0  0  0  0  0
   39.2720   35.9930   39.9140 N   0  0  0  0  0  0  0  0  0  0  0  0
   40.5470   36.3850   40.2140 C   0  0  0  0  0  0  0  0  0  0  0  0
   41.4360   35.4020   40.6290 C   0  0  0  0  0  0  0  0  0  0  0  0
   41.1180   34.0690   40.7580 C   0  0  0  0  0  0  0  0  0  0  0  0
   39.8160   33.7090   40.4440 C   0  0  0  0  0  0  0  0  0  0  0  0
   39.4040   32.3850   40.5450 C   0  0  0  0  0  0  0  0  0  0  0  0
   36.2340   32.6740   39.5900 H   0  0  0  0  0  0  0  0  0  0  0  0
   36.9010   35.0350   39.3930 H   0  0  0  0  0  0  0  0  0  0  0  0
   40.8220   37.4240   40.1220 H   0  0  0  0  0  0  0  0  0  0  0  0
   42.4350   35.7530   40.8570 H   0  0  0  0  0  0  0  0  0  0  0  0
   41.8450   33.3360   41.0860 H   0  0  0  0  0  0  0  0  0  0  0  0
   40.1700   31.6810   40.8780 H   0  0  0  0  0  0  0  0  0  0  0  0
   37.0300   26.5170   41.0440 C   0  0  0  0  0  0  0  0  0  0  0  0
   36.0770   26.1610   40.6550 H   0  0  0  0  0  0  0  0  0  0  0  0
   37.8790   25.9420   40.5750 H   0  0  0  0  0  0  0  0  0  0  0  0
   37.1530   26.2390   42.5560 C   0  0  0  0  0  0  0  0  0  0  0  0
   36.5870   25.3200   42.8090 H   0  0  0  0  0  0  0  0  0  0  0  0
   36.8710   27.1160   43.1380 H   0  0  0  0  0  0  0  0  0  0  0  0
   39.2570   25.0930   42.0080 C   0  0  0  0  0  3  0  0  0  0  0  0
   38.6230   26.0170   42.7930 C   0  0  0  0  0  0  0  0  0  0  0  0
   39.3270   26.7000   43.7560 C   0  0  0  0  0  0  0  0  0  0  0  0
   38.8270   27.4300   44.3780 H   0  0  0  0  0  0  0  0  0  0  0  0
   40.6890   26.4400   43.9190 C   0  0  0  0  0  0  0  0  0  0  0  0
   41.6280   26.9450   44.7670 N   0  0  0  0  0  0  0  0  0  0  0  0
   42.7930   26.3320   44.4870 C   0  0  0  0  0  0  0  0  0  0  0  0
   43.7540   26.5060   44.9850 H   0  0  0  0  0  0  0  0  0  0  0  0
   42.5940   25.4550   43.4810 N   0  0  0  0  0  0  0  0  0  0  0  0
   41.2970   25.4920   43.0990 C   0  0  0  0  0  0  0  0  0  0  0  0
   40.5980   24.7940   42.1220 C   0  0  0  0  0  3  0  0  0  0  0  0
   41.4260   27.6770   45.4860 H   0  0  0  0  0  0  0  0  0  0  0  0
  1  6  2  0  0  0  0
  1  2  1  0  0  0  0
  2  3  2  0  0  0  0
  3  4  1  0  0  0  0
  3  8  1  0  0  0  0
  5 27  1  0  0  0  0
  5  4  2  0  0  0  0
  6  5  1  0  0  0  0
  7  1  1  0  0  0  0
  9  7  1  0  0  0  0
 10  7  1  0  0  0  0
 11  2  1  0  0  0  0
 11 20  1  0  0  0  0
 12 11  2  0  0  0  0
 13 12  1  0  0  0  0
 13 14  2  0  0  0  0
 14 19  1  0  0  0  0
 15 14  1  0  0  0  0
 15 16  2  0  0  0  0
 16 17  1  0  0  0  0
 17 18  2  0  0  0  0
 17 24  1  0  0  0  0
 18 25  1  0  0  0  0
 19 20  2  0  0  0  0
 19 18  1  0  0  0  0
 20 26  1  0  0  0  0
 21 12  1  0  0  0  0
 22 13  1  0  0  0  0
 23 16  1  0  0  0  0
 27 30  1  0  0  0  0
 28 27  1  0  0  0  0
 29 27  1  0  0  0  0
 30 34  1  0  0  0  0
 30 31  1  0  0  0  0
 30 32  1  0  0  0  0
 33 43  2  0  0  0  0
 33 34  1  0  0  0  0
 34 35  2  0  0  0  0
 35 37  1  0  0  0  0
 35 36  1  0  0  0  0
 37 38  1  0  0  0  0
 38 44  1  0  0  0  0
 39 38  1  0  0  0  0
 39 40  1  0  0  0  0
 41 39  2  0  0  0  0
 42 41  1  0  0  0  0
 42 37  2  0  0  0  0
 43 42  1  0  0  0  0
M  END
>  <minimizedAffinity>
-7.09193945

$$$$

 OpenBabel03242522483D

 44 48  0  0  0  0  0  0  0  0999 V2000
   38.4960   31.7880   40.7500 C   0  0  0  0  0  0  0  0  0  0  0  0
   37.3920   31.9400   39.8990 C   0  0  0  0  0  0  0  0  0  0  0  0
   37.0670   33.2370   39.4280 C   0  0  0  0  0  0  0  0  0  0  0  0
   37.8720   34.2510   39.8490 N   0  0  0  0  0  0  0  0  0  0  0  0
   38.9200   34.0780   40.6620 C   0  0  0  0  0  0  0  0  0  0  0  0
   39.2160   32.8570   41.0970 N   0  0  0  0  0  0  0  0  0  0  0  0
   38.8150   30.4940   41.2160 N   0  0  0  0  0  0  0  0  0  0  0  0
   36.2240   33.3840   38.7740 H   0  0  0  0  0  0  0  0  0  0  0  0
   38.2600   29.9810   41.9410 H   0  0  0  0  0  0  0  0  0  0  0  0
   39.6630   30.0440   40.7910 H   0  0  0  0  0  0  0  0  0  0  0  0
   36.5540   30.8290   39.4680 C   0  0  0  0  0  0  0  0  0  0  0  0
   35.6650   30.0890   40.2030 C   0  0  0  0  0  0  0  0  0  0  0  0
   34.9490   29.0620   39.6150 C   0  0  0  0  0  0  0  0  0  0  0  0
   35.0950   28.7370   38.2770 C   0  0  0  0  0  0  0  0  0  0  0  0
   34.3680   27.7330   37.7900 N   0  0  0  0  0  0  0  0  0  0  0  0
   34.4970   27.3960   36.4720 C   0  0  0  0  0  0  0  0  0  0  0  0
   35.3930   28.1340   35.7090 C   0  0  0  0  0  0  0  0  0  0  0  0
   36.1530   29.1750   36.1920 C   0  0  0  0  0  0  0  0  0  0  0  0
   35.9960   29.4870   37.5350 C   0  0  0  0  0  0  0  0  0  0  0  0
   36.7220   30.5240   38.1100 C   0  0  0  0  0  0  0  0  0  0  0  0
   35.5910   30.3820   41.2310 H   0  0  0  0  0  0  0  0  0  0  0  0
   34.2750   28.5360   40.2720 H   0  0  0  0  0  0  0  0  0  0  0  0
   33.9120   26.5840   36.0680 H   0  0  0  0  0  0  0  0  0  0  0  0
   35.4650   27.8360   34.6710 H   0  0  0  0  0  0  0  0  0  0  0  0
   36.8400   29.7240   35.5600 H   0  0  0  0  0  0  0  0  0  0  0  0
   37.4030   31.0480   37.4350 H   0  0  0  0  0  0  0  0  0  0  0  0
   39.7110   35.2800   41.0310 C   0  0  0  0  0  0  0  0  0  0  0  0
   39.1790   36.0120   41.6360 H   0  0  0  0  0  0  0  0  0  0  0  0
   40.6060   34.8860   41.5950 H   0  0  0  0  0  0  0  0  0  0  0  0
   40.3010   35.9280   39.7610 C   0  0  0  0  0  0  0  0  0  0  0  0
   40.5130   36.9980   39.9590 H   0  0  0  0  0  0  0  0  0  0  0  0
   39.6600   35.7480   38.8990 H   0  0  0  0  0  0  0  0  0  0  0  0
   42.3210   34.8050   40.5960 C   0  0  0  0  0  3  0  0  0  0  0  0
   41.5870   35.1900   39.5070 C   0  0  0  0  0  0  0  0  0  0  0  0
   42.0340   34.9000   38.2400 C   0  0  0  0  0  0  0  0  0  0  0  0
   41.4550   35.2030   37.3770 H   0  0  0  0  0  0  0  0  0  0  0  0
   43.2390   34.2120   38.0820 C   0  0  0  0  0  0  0  0  0  0  0  0
   43.9220   33.7930   36.9790 N   0  0  0  0  0  0  0  0  0  0  0  0
   45.0360   33.1740   37.4100 C   0  0  0  0  0  0  0  0  0  0  0  0
   45.8090   32.7160   36.7810 H   0  0  0  0  0  0  0  0  0  0  0  0
   45.0570   33.2000   38.7590 N   0  0  0  0  0  0  0  0  0  0  0  0
   43.9560   33.8380   39.2160 C   0  0  0  0  0  0  0  0  0  0  0  0
   43.5160   34.1250   40.5020 C   0  0  0  0  0  3  0  0  0  0  0  0
   43.5940   33.9500   35.9990 H   0  0  0  0  0  0  0  0  0  0  0  0
  1  6  1  0  0  0  0
  1  7  1  0  0  0  0
  2  1  2  0  0  0  0
  3  4  2  0  0  0  0
  3  2  1  0  0  0  0
  4  5  1  0  0  0  0
  5 27  1  0  0  0  0
  5  6  2  0  0  0  0
  7  9  1  0  0  0  0
  8  3  1  0  0  0  0
 10  7  1  0  0  0  0
 11  2  1  0  0  0  0
 11 12  1  0  0  0  0
 12 21  1  0  0  0  0
 13 12  2  0  0  0  0
 13 22  1  0  0  0  0
 14 13  1  0  0  0  0
 15 14  1  0  0  0  0
 16 15  2  0  0  0  0
 17 18  2  0  0  0  0
 17 16  1  0  0  0  0
 18 19  1  0  0  0  0
 19 20  1  0  0  0  0
 19 14  2  0  0  0  0
 20 11  2  0  0  0  0
 23 16  1  0  0  0  0
 24 17  1  0  0  0  0
 25 18  1  0  0  0  0
 26 20  1  0  0  0  0
 27 29  1  0  0  0  0
 27 28  1  0  0  0  0
 30 31  1  0  0  0  0
 30 27  1  0  0  0  0
 32 30  1  0  0  0  0
 34 30  1  0  0  0  0
 34 33  2  0  0  0  0
 35 34  1  0  0  0  0
 36 35  1  0  0  0  0
 37 35  2  0  0  0  0
 37 42  1  0  0  0  0
 38 39  1  0  0  0  0
 38 37  1  0  0  0  0
 39 41  2  0  0  0  0
 40 39  1  0  0  0  0
 41 42  1  0  0  0  0
 42 43  2  0  0  0  0
 43 33  1  0  0  0  0
 44 38  1  0  0  0  0
M  END
>  <minimizedAffinity>
-6.95066214

$$$$

 OpenBabel03242522483D

 44 48  0  0  0  0  0  0  0  0999 V2000
   38.2370   33.6190   39.8480 C   0  0  0  0  0  0  0  0  0  0  0  0
   38.4080   32.2290   39.9300 C   0  0  0  0  0  0  0  0  0  0  0  0
   39.6960   31.7160   40.2250 C   0  0  0  0  0  0  0  0  0  0  0  0
   40.6840   32.6340   40.4080 N   0  0  0  0  0  0  0  0  0  0  0  0
   40.4940   33.9560   40.3240 C   0  0  0  0  0  0  0  0  0  0  0  0
   39.2810   34.4250   40.0480 N   0  0  0  0  0  0  0  0  0  0  0  0
   36.9520   34.1240   39.5550 N   0  0  0  0  0  0  0  0  0  0  0  0
   39.8560   30.6530   40.2940 H   0  0  0  0  0  0  0  0  0  0  0  0
   36.5060   34.0720   38.6090 H   0  0  0  0  0  0  0  0  0  0  0  0
   36.4360   34.5710   40.3520 H   0  0  0  0  0  0  0  0  0  0  0  0
   37.3240   31.2760   39.7300 C   0  0  0  0  0  0  0  0  0  0  0  0
   36.4260   30.7930   40.6460 C   0  0  0  0  0  0  0  0  0  0  0  0
   35.4540   29.8840   40.2670 C   0  0  0  0  0  0  0  0  0  0  0  0
   35.3460   29.4260   38.9640 C   0  0  0  0  0  0  0  0  0  0  0  0
   34.3820   28.5510   38.6840 N   0  0  0  0  0  0  0  0  0  0  0  0
   34.2570   28.0860   37.4050 C   0  0  0  0  0  0  0  0  0  0  0  0
   35.1580   28.5630   36.4610 C   0  0  0  0  0  0  0  0  0  0  0  0
   36.1600   29.4680   36.7300 C   0  0  0  0  0  0  0  0  0  0  0  0
   36.2560   29.9160   38.0390 C   0  0  0  0  0  0  0  0  0  0  0  0
   37.2380   30.8310   38.4030 C   0  0  0  0  0  0  0  0  0  0  0  0
   36.5540   31.1800   41.6370 H   0  0  0  0  0  0  0  0  0  0  0  0
   34.7940   29.5610   41.0550 H   0  0  0  0  0  0  0  0  0  0  0  0
   33.4800   27.3760   37.1670 H   0  0  0  0  0  0  0  0  0  0  0  0
   35.0250   28.1700   35.4610 H   0  0  0  0  0  0  0  0  0  0  0  0
   36.8410   29.8130   35.9620 H   0  0  0  0  0  0  0  0  0  0  0  0
   37.9020   31.1500   37.5970 H   0  0  0  0  0  0  0  0  0  0  0  0
   41.6670   34.8370   40.5550 C   0  0  0  0  0  0  0  0  0  0  0  0
   41.6590   35.7700   39.9950 H   0  0  0  0  0  0  0  0  0  0  0  0
   41.6660   35.0500   41.6630 H   0  0  0  0  0  0  0  0  0  0  0  0
   42.9700   34.0490   40.3070 C   0  0  0  0  0  0  0  0  0  0  0  0
   43.5400   34.5280   39.4850 H   0  0  0  0  0  0  0  0  0  0  0  0
   42.7620   32.9910   40.1530 H   0  0  0  0  0  0  0  0  0  0  0  0
   44.4600   35.3000   41.8080 C   0  0  0  0  0  3  0  0  0  0  0  0
   43.7420   34.1550   41.5940 C   0  0  0  0  0  0  0  0  0  0  0  0
   43.7440   33.1560   42.5380 C   0  0  0  0  0  0  0  0  0  0  0  0
   43.1770   32.2500   42.3710 H   0  0  0  0  0  0  0  0  0  0  0  0
   44.4850   33.3250   43.7100 C   0  0  0  0  0  0  0  0  0  0  0  0
   44.6770   32.5310   44.8010 N   0  0  0  0  0  0  0  0  0  0  0  0
   45.4930   33.1940   45.6410 C   0  0  0  0  0  0  0  0  0  0  0  0
   45.8480   32.8390   46.6150 H   0  0  0  0  0  0  0  0  0  0  0  0
   45.8100   34.3850   45.0910 N   0  0  0  0  0  0  0  0  0  0  0  0
   45.2030   34.5050   43.8890 C   0  0  0  0  0  0  0  0  0  0  0  0
   45.2100   35.5230   42.9440 C   0  0  0  0  0  3  0  0  0  0  0  0
   44.2440   31.5860   44.9130 H   0  0  0  0  0  0  0  0  0  0  0  0
  1  2  2  0  0  0  0
  1  6  1  0  0  0  0
  2  3  1  0  0  0  0
  3  8  1  0  0  0  0
  3  4  2  0  0  0  0
  5  4  1  0  0  0  0
  5 27  1  0  0  0  0
  6  5  2  0  0  0  0
  7  1  1  0  0  0  0
  7 10  1  0  0  0  0
  9  7  1  0  0  0  0
 11  2  1  0  0  0  0
 11 12  1  0  0  0  0
 12 21  1  0  0  0  0
 13 12  2  0  0  0  0
 13 22  1  0  0  0  0
 14 13  1  0  0  0  0
 15 14  1  0  0  0  0
 16 15  2  0  0  0  0
 17 18  2  0  0  0  0
 17 16  1  0  0  0  0
 18 19  1  0  0  0  0
 19 20  1  0  0  0  0
 19 14  2  0  0  0  0
 20 11  2  0  0  0  0
 23 16  1  0  0  0  0
 24 17  1  0  0  0  0
 25 18  1  0  0  0  0
 26 20  1  0  0  0  0
 27 29  1  0  0  0  0
 28 27  1  0  0  0  0
 30 27  1  0  0  0  0
 30 34  1  0  0  0  0
 31 30  1  0  0  0  0
 32 30  1  0  0  0  0
 33 43  1  0  0  0  0
 34 33  2  0  0  0  0
 34 35  1  0  0  0  0
 35 37  2  0  0  0  0
 36 35  1  0  0  0  0
 37 42  1  0  0  0  0
 37 38  1  0  0  0  0
 38 44  1  0  0  0  0
 38 39  1  0  0  0  0
 39 40  1  0  0  0  0
 41 39  2  0  0  0  0
 42 41  1  0  0  0  0
 43 42  2  0  0  0  0
M  END
>  <minimizedAffinity>
-6.88372946

$$$$
