
 OpenBabel03242519473D

 41 44  0  0  1  0  0  0  0  0999 V2000
   46.6280   32.8620   46.6510 C   0  0  2  0  0  0  0  0  0  0  0  0
   47.0860   32.7980   45.2490 C   0  0  1  0  0  0  0  0  0  0  0  0
   46.6670   31.4660   44.7990 O   0  0  0  0  0  0  0  0  0  0  0  0
   47.3120   30.7600   45.8420 C   0  0  0  0  0  0  0  0  0  0  0  0
   46.5960   31.3980   47.0620 C   0  0  2  0  0  0  0  0  0  0  0  0
   47.2680   33.4570   47.3250 H   0  0  0  0  0  0  0  0  0  0  0  0
   48.1720   32.7600   45.1130 H   0  0  0  0  0  0  0  0  0  0  0  0
   47.2630   29.7010   45.7940 H   0  0  0  0  0  0  0  0  0  0  0  0
   48.3770   31.1080   45.8350 H   0  0  0  0  0  0  0  0  0  0  0  0
   47.2320   31.1440   47.9390 H   0  0  0  0  0  0  0  0  0  0  0  0
   44.7250   35.2650   43.9600 C   0  0  0  0  0  0  0  0  0  0  0  0
   45.3500   35.7640   42.8180 C   0  0  0  0  0  0  0  0  0  0  0  0
   46.6140   35.2480   42.4650 C   0  0  0  0  0  0  0  0  0  0  0  0
   47.1780   34.2750   43.2570 N   0  0  0  0  0  0  0  0  0  0  0  0
   46.5380   33.8190   44.3550 C   0  0  0  0  0  0  0  0  0  0  0  0
   45.3200   34.3000   44.7160 N   0  0  0  0  0  0  0  0  0  0  0  0
   44.8780   36.5200   42.2300 H   0  0  0  0  0  0  0  0  0  0  0  0
   47.1290   35.6120   41.5850 H   0  0  0  0  0  0  0  0  0  0  0  0
   43.4690   35.7350   44.3630 O   0  0  0  0  0  0  0  0  0  0  0  0
   42.8870   36.0860   43.6040 H   0  0  0  0  0  0  0  0  0  0  0  0
   45.2790   33.3590   46.6880 O   0  0  0  0  0  0  0  0  0  0  0  0
   45.0360   33.3060   47.6460 H   0  0  0  0  0  0  0  0  0  0  0  0
   45.3260   30.9080   47.0850 O   0  0  0  0  0  0  0  0  0  0  0  0
   45.0290   29.9710   48.0410 C   0  0  0  0  0  0  0  0  0  0  0  0
   45.3840   30.2750   49.0200 H   0  0  0  0  0  0  0  0  0  0  0  0
   43.8600   30.1710   48.2160 H   0  0  0  0  0  0  0  0  0  0  0  0
   45.1580   28.5550   47.6550 C   0  0  0  0  0  0  0  0  0  0  0  0
   46.2000   28.1930   47.5460 H   0  0  0  0  0  0  0  0  0  0  0  0
   44.5850   27.9240   48.3790 H   0  0  0  0  0  0  0  0  0  0  0  0
   45.0880   28.0180   45.1000 C   0  0  0  0  0  3  0  0  0  0  0  0
   44.5440   28.3450   46.3180 C   0  0  0  0  0  0  0  0  0  0  0  0
   43.1500   28.5110   46.2540 C   0  0  0  0  0  0  0  0  0  0  0  0
   42.6010   28.7710   47.1540 H   0  0  0  0  0  0  0  0  0  0  0  0
   42.3730   28.3750   45.1250 C   0  0  0  0  0  0  0  0  0  0  0  0
   41.0560   28.4970   44.8930 N   0  0  0  0  0  0  0  0  0  0  0  0
   40.8410   28.2520   43.5930 C   0  0  0  0  0  0  0  0  0  0  0  0
   39.8950   28.2620   43.0620 H   0  0  0  0  0  0  0  0  0  0  0  0
   42.0400   27.9730   43.0070 N   0  0  0  0  0  0  0  0  0  0  0  0
   42.9960   28.0470   43.9480 C   0  0  0  0  0  0  0  0  0  0  0  0
   44.3630   27.8690   43.9420 C   0  0  0  0  0  3  0  0  0  0  0  0
   40.3390   28.7370   45.5950 H   0  0  0  0  0  0  0  0  0  0  0  0
  1 21  1  0  0  0  0
  1  5  1  0  0  0  0
  1  6  1  1  0  0  0
  2  7  1  6  0  0  0
  2  1  1  0  0  0  0
  3  2  1  0  0  0  0
  3  4  1  0  0  0  0
  4  5  1  0  0  0  0
  5 23  1  0  0  0  0
  5 10  1  1  0  0  0
  8  4  1  0  0  0  0
  9  4  1  0  0  0  0
 11 19  1  0  0  0  0
 11 16  1  0  0  0  0
 12 11  2  0  0  0  0
 13 12  1  0  0  0  0
 13 14  2  0  0  0  0
 14 15  1  0  0  0  0
 15 16  2  0  0  0  0
 15  2  1  0  0  0  0
 17 12  1  0  0  0  0
 18 13  1  0  0  0  0
 20 19  1  0  0  0  0
 21 22  1  0  0  0  0
 23 24  1  0  0  0  0
 24 26  1  0  0  0  0
 24 25  1  0  0  0  0
 27 24  1  0  0  0  0
 27 29  1  0  0  0  0
 28 27  1  0  0  0  0
 30 31  1  0  0  0  0
 31 27  1  0  0  0  0
 32 31  2  0  0  0  0
 32 33  1  0  0  0  0
 34 32  1  0  0  0  0
 35 34  1  0  0  0  0
 35 41  1  0  0  0  0
 36 35  1  0  0  0  0
 37 36  1  0  0  0  0
 38 36  2  0  0  0  0
 38 39  1  0  0  0  0
 39 34  2  0  0  0  0
 40 39  1  0  0  0  0
 40 30  2  0  0  0  0
M  END
>  <minimizedAffinity>
-5.32487488

>  <minimizedRMSD>
0.923180819

$$$$
