
 OpenBabel03252504533D

 24 26  0  0  0  0  0  0  0  0999 V2000
   47.8190   35.2120   41.7950 C   0  0  0  0  0  0  0  0  0  0  0  0
   47.8480   36.2990   41.6360 H   0  0  0  0  0  0  0  0  0  0  0  0
   48.8560   34.9250   42.0760 H   0  0  0  0  0  0  0  0  0  0  0  0
   46.3550   33.7890   40.4280 C   0  0  0  0  0  3  0  0  0  0  0  0
   47.5240   34.5140   40.5140 C   0  0  0  0  0  0  0  0  0  0  0  0
   48.3850   34.5820   39.4360 C   0  0  0  0  0  0  0  0  0  0  0  0
   49.3140   35.1540   39.4920 H   0  0  0  0  0  0  0  0  0  0  0  0
   48.0910   33.9260   38.2550 C   0  0  0  0  0  0  0  0  0  0  0  0
   48.7290   33.8130   37.0580 N   0  0  0  0  0  0  0  0  0  0  0  0
   47.9300   33.0240   36.2820 C   0  0  0  0  0  0  0  0  0  0  0  0
   48.1740   32.7510   35.2630 H   0  0  0  0  0  0  0  0  0  0  0  0
   46.8270   32.6550   36.9740 N   0  0  0  0  0  0  0  0  0  0  0  0
   46.9290   33.2130   38.1920 C   0  0  0  0  0  0  0  0  0  0  0  0
   46.0330   33.1160   39.2510 C   0  0  0  0  0  3  0  0  0  0  0  0
   49.6440   34.2500   36.8030 H   0  0  0  0  0  0  0  0  0  0  0  0
   44.9050   35.2150   44.1050 C   0  0  0  0  0  0  0  0  0  0  0  0
   45.7720   35.5670   43.0470 C   0  0  0  0  0  0  0  0  0  0  0  0
   46.9350   34.8330   42.8940 C   0  0  0  0  0  0  0  0  0  0  0  0
   47.1930   33.8120   43.7630 N   0  0  0  0  0  0  0  0  0  0  0  0
   46.3380   33.5080   44.7620 C   0  0  0  0  0  0  0  0  0  0  0  0
   45.2080   34.1970   44.9350 N   0  0  0  0  0  0  0  0  0  0  0  0
   43.9840   35.7580   44.2680 H   0  0  0  0  0  0  0  0  0  0  0  0
   45.4750   36.3860   42.4230 H   0  0  0  0  0  0  0  0  0  0  0  0
   46.5980   32.6740   45.4310 H   0  0  0  0  0  0  0  0  0  0  0  0
  1  3  1  0  0  0  0
  1 18  1  0  0  0  0
  2  1  1  0  0  0  0
  4  5  1  0  0  0  0
  5  1  1  0  0  0  0
  6  7  1  0  0  0  0
  6  5  2  0  0  0  0
  8  6  1  0  0  0  0
  9  8  1  0  0  0  0
 10 12  2  0  0  0  0
 10  9  1  0  0  0  0
 11 10  1  0  0  0  0
 12 13  1  0  0  0  0
 13  8  2  0  0  0  0
 13 14  1  0  0  0  0
 14  4  2  0  0  0  0
 15  9  1  0  0  0  0
 16 22  1  0  0  0  0
 16 21  1  0  0  0  0
 17 16  2  0  0  0  0
 18 17  1  0  0  0  0
 18 19  2  0  0  0  0
 19 20  1  0  0  0  0
 20 21  2  0  0  0  0
 20 24  1  0  0  0  0
 23 17  1  0  0  0  0
M  END
>  <minimizedAffinity>
-4.74598646

>  <minimizedRMSD>
1.72183931

$$$$
