
     RDKit          3D

 27 29  0  0  0  0  0  0  0  0999 V2000
   44.5188   36.0166   44.5430 C   0  0  0  0  0  0  0  0  0  0  0  0
   45.2149   35.8864   43.3331 C   0  0  0  0  0  0  0  0  0  0  0  0
   46.1124   34.8175   43.1701 C   0  0  0  0  0  0  0  0  0  0  0  0
   46.2852   33.9288   44.1975 N   0  0  0  0  0  0  0  0  0  0  0  0
   45.5900   34.0926   45.3536 C   0  0  0  0  0  0  0  0  0  0  0  0
   44.7308   35.1170   45.5077 N   0  0  0  0  0  0  0  0  0  0  0  0
   45.8250   33.0971   46.4204 C   0  0  0  0  0  0  0  0  0  0  0  0
   46.5460   31.6240   45.6196 S   0  0  0  0  0  0  0  0  0  0  0  0
   43.8451   36.8314   44.6460 H   0  0  0  0  0  0  0  0  0  0  0  0
   45.1069   36.5660   42.4984 H   0  0  0  0  0  0  0  0  0  0  0  0
   46.6756   34.6739   42.2503 H   0  0  0  0  0  0  0  0  0  0  0  0
   46.5016   33.4844   47.2084 H   0  0  0  0  0  0  0  0  0  0  0  0
   44.8358   32.7878   46.8167 H   0  0  0  0  0  0  0  0  0  0  0  0
   46.3460   30.3636   48.1630 C   0  0  0  0  0  0  0  0  0  0  0  0
   46.8490   30.3855   46.8786 C   0  0  0  0  0  0  0  0  0  0  0  0
   47.6903   29.3692   46.4404 C   0  0  0  0  0  0  0  0  0  0  0  0
   48.1372   29.2999   45.4431 H   0  0  0  0  0  0  0  0  0  0  0  0
   48.0399   28.3235   47.2703 C   0  0  0  0  0  0  0  0  0  0  0  0
   48.8002   27.2168   47.1797 N   0  0  0  0  0  0  0  0  0  0  0  0
   48.7966   26.5175   48.3246 C   0  0  0  0  0  0  0  0  0  0  0  0
   49.3505   25.6000   48.4392 H   0  0  0  0  0  0  0  0  0  0  0  0
   47.9982   27.2206   49.1649 N   0  0  0  0  0  0  0  0  0  0  0  0
   47.5255   28.3220   48.5502 C   0  0  0  0  0  0  0  0  0  0  0  0
   46.6894   29.3233   49.0000 C   0  0  0  0  0  0  0  0  0  0  0  0
   45.7081   31.1932   48.3998 H   0  0  0  0  0  0  0  0  0  0  0  0
   49.3180   26.9716   46.2926 H   0  0  0  0  0  0  0  0  0  0  0  0
   46.2763   29.3365   50.0042 H   0  0  0  0  0  0  0  0  0  0  0  0
  1  6  2  0
  2  1  1  0
  3  2  2  0
  3  4  1  0
  4  5  2  0
  5  6  1  0
  5  7  1  0
  8  7  1  0
  1  9  1  0
  2 10  1  0
  3 11  1  0
  7 12  1  0
  7 13  1  0
 14 15  2  0
 15 16  1  0
 16 17  1  0
 16 18  2  0
 18 19  1  0
 19 20  1  0
 20 21  1  0
 20 22  2  0
 22 23  1  0
 23 24  2  0
 24 14  1  0
 23 18  1  0
 14 25  1  0
 19 26  1  0
 24 27  1  0
  8 15  1  0
M  ISO  7   9  14  10  14  11  14  12   8  13   8  17  15  21  14
M  END
>  <DihAtoms>  (1) 
6,7,14,13

>  <DihDeg>  (1) 
-89.99862617005616

$$$$
