
 OpenBabel03252500273D

 46 49  0  0  1  0  0  0  0  0999 V2000
   47.0600   33.2860   46.5620 O   0  0  0  0  0  0  0  0  0  0  0  0
   45.5980   33.0170   46.5090 P   0  0  1  0  0  0  0  0  0  0  0  0
   45.2850   31.8710   45.3010 O   0  0  0  0  0  0  0  0  0  0  0  0
   45.8410   32.0380   44.4950 H   0  0  0  0  0  0  0  0  0  0  0  0
   45.1600   32.4130   47.9790 O   0  0  0  0  0  0  0  0  0  0  0  0
   47.0750   30.9880   48.0230 C   0  0  2  0  0  0  0  0  0  0  0  0
   45.6020   31.1220   48.1150 C   0  0  2  0  0  0  0  0  0  0  0  0
   45.0500   30.2200   47.1270 C   0  0  0  0  0  0  0  0  0  0  0  0
   46.0000   29.2290   46.8400 O   0  0  0  0  0  0  0  0  0  0  0  0
   47.0340   29.4440   47.6870 C   0  0  0  0  0  0  0  0  0  0  0  0
   47.5670   31.2630   47.0760 H   0  0  0  0  0  0  0  0  0  0  0  0
   45.4010   30.8970   49.2020 H   0  0  0  0  0  0  0  0  0  0  0  0
   44.3420   30.4740   46.3690 H   0  0  0  0  0  0  0  0  0  0  0  0
   44.3510   29.5550   47.7510 H   0  0  0  0  0  0  0  0  0  0  0  0
   46.7500   29.0170   48.6880 H   0  0  0  0  0  0  0  0  0  0  0  0
   48.0220   29.0910   47.4030 H   0  0  0  0  0  0  0  0  0  0  0  0
   47.7810   31.1330   49.1560 O   0  0  0  0  0  0  0  0  0  0  0  0
   49.0550   31.3950   49.2390 C   0  0  0  0  0  0  0  0  0  0  0  0
   49.4080   32.3860   49.1860 H   0  0  0  0  0  0  0  0  0  0  0  0
   49.5360   30.9980   48.1870 H   0  0  0  0  0  0  0  0  0  0  0  0
   49.6740   30.4580   50.2640 C   0  0  0  0  0  0  0  0  0  0  0  0
   49.0880   29.5360   50.3650 H   0  0  0  0  0  0  0  0  0  0  0  0
   49.8030   30.9710   51.2470 H   0  0  0  0  0  0  0  0  0  0  0  0
   50.7020   30.1940   49.9350 H   0  0  0  0  0  0  0  0  0  0  0  0
   44.8570   34.5140   46.1610 O   0  0  0  0  0  0  0  0  0  0  0  0
   45.1970   36.9410   43.5380 C   0  0  0  0  0  0  0  0  0  0  0  0
   44.8510   36.2300   42.3660 C   0  0  0  0  0  0  0  0  0  0  0  0
   44.4970   34.8740   42.5390 C   0  0  0  0  0  0  0  0  0  0  0  0
   44.5090   34.3470   43.7790 N   0  0  0  0  0  0  0  0  0  0  0  0
   44.8440   35.0600   44.8660 C   0  0  0  0  0  0  0  0  0  0  0  0
   45.1830   36.3470   44.7300 N   0  0  0  0  0  0  0  0  0  0  0  0
   44.8550   36.6890   41.3900 H   0  0  0  0  0  0  0  0  0  0  0  0
   44.2330   34.3260   41.6570 H   0  0  0  0  0  0  0  0  0  0  0  0
   45.5490   38.2550   43.4250 O   0  0  0  0  0  0  0  0  0  0  0  0
   45.1800   38.9170   45.7180 C   0  0  0  0  0  3  0  0  0  0  0  0
   45.2390   39.2180   44.3680 C   0  0  0  0  0  0  0  0  0  0  0  0
   45.0000   40.4760   43.8310 C   0  0  0  0  0  0  0  0  0  0  0  0
   45.0480   40.6920   42.7880 H   0  0  0  0  0  0  0  0  0  0  0  0
   44.6800   41.4990   44.7160 C   0  0  0  0  0  0  0  0  0  0  0  0
   44.3990   42.8110   44.5090 N   0  0  0  0  0  0  0  0  0  0  0  0
   44.1600   43.3500   45.7240 C   0  0  0  0  0  0  0  0  0  0  0  0
   43.9050   44.3860   45.8990 H   0  0  0  0  0  0  0  0  0  0  0  0
   44.2860   42.4100   46.6730 N   0  0  0  0  0  0  0  0  0  0  0  0
   44.6100   41.2490   46.0710 C   0  0  0  0  0  0  0  0  0  0  0  0
   44.8560   39.9730   46.5700 C   0  0  0  0  0  3  0  0  0  0  0  0
   44.3900   43.2380   43.5660 H   0  0  0  0  0  0  0  0  0  0  0  0
  2  1  2  1  0  0  0
  2  5  1  0  0  0  0
  3  2  1  0  0  0  0
  4  3  1  0  0  0  0
  5  7  1  0  0  0  0
  6 11  1  6  0  0  0
  6  7  1  0  0  0  0
  6 17  1  0  0  0  0
  7 12  1  1  0  0  0
  8 14  1  0  0  0  0
  8  7  1  0  0  0  0
  9  8  1  0  0  0  0
  9 10  1  0  0  0  0
 10  6  1  0  0  0  0
 10 15  1  0  0  0  0
 13  8  1  0  0  0  0
 16 10  1  0  0  0  0
 17 18  1  0  0  0  0
 18 21  1  0  0  0  0
 19 18  1  0  0  0  0
 20 18  1  0  0  0  0
 21 22  1  0  0  0  0
 21 23  1  0  0  0  0
 24 21  1  0  0  0  0
 25  2  1  0  0  0  0
 26 31  1  0  0  0  0
 27 28  1  0  0  0  0
 27 26  2  0  0  0  0
 28 29  2  0  0  0  0
 29 30  1  0  0  0  0
 30 25  1  0  0  0  0
 31 30  2  0  0  0  0
 32 27  1  0  0  0  0
 33 28  1  0  0  0  0
 34 26  1  0  0  0  0
 34 36  1  0  0  0  0
 35 45  1  0  0  0  0
 36 35  2  0  0  0  0
 37 36  1  0  0  0  0
 37 39  2  0  0  0  0
 38 37  1  0  0  0  0
 39 44  1  0  0  0  0
 40 39  1  0  0  0  0
 40 41  1  0  0  0  0
 41 42  1  0  0  0  0
 41 43  2  0  0  0  0
 44 45  2  0  0  0  0
 44 43  1  0  0  0  0
 46 40  1  0  0  0  0
M  END
>  <minimizedAffinity>
-3.51145363

>  <minimizedRMSD>
0.600235701

$$$$
