
     RDKit          3D

 49 53  0  0  0  0  0  0  0  0999 V2000
   44.5003   35.5339   45.1213 C   0  0  0  0  0  0  0  0  0  0  0  0
   45.1645   35.5062   43.8766 C   0  0  0  0  0  0  0  0  0  0  0  0
   46.0846   34.5438   43.6407 C   0  0  0  0  0  0  0  0  0  0  0  0
   46.3145   33.6498   44.6344 N   0  0  0  0  0  0  0  0  0  0  0  0
   45.6887   33.6794   45.8015 C   0  0  0  0  0  0  0  0  0  0  0  0
   44.7761   34.6164   46.0638 N   0  0  0  0  0  0  0  0  0  0  0  0
   46.0154   32.6808   46.7841 N   0  0  0  0  0  0  0  0  0  0  0  0
   45.2696   32.4515   47.9673 C   0  0  0  0  0  0  0  0  0  0  0  0
   46.3360   32.1189   48.9934 C   0  0  0  0  0  0  0  0  0  0  0  0
   47.6237   32.0020   48.2326 C   0  0  0  0  0  0  0  0  0  0  0  0
   47.1321   31.7705   46.8053 C   0  0  1  0  0  0  0  0  0  0  0  0
   44.8089   36.5249   42.9264 N   0  0  0  0  0  0  0  0  0  0  0  0
   46.6179   30.0754   46.6417 S   0  0  0  0  0  0  0  0  0  0  0  0
   45.6215   30.5084   43.4904 O   0  0  0  0  0  0  0  0  0  0  0  0
   44.9850   29.9863   44.4188 C   0  0  0  0  0  0  0  0  0  0  0  0
   45.0726   29.7830   45.8854 C   0  0  1  0  0  0  0  0  0  0  0  0
   44.5282   28.3851   46.0420 C   0  0  0  0  0  0  0  0  0  0  0  0
   43.2196   28.5847   45.2681 C   0  0  0  0  0  0  0  0  0  0  0  0
   43.7368   29.3278   44.1263 N   0  0  0  0  0  0  0  0  0  0  0  0
   43.7689   36.3128   45.2867 H   0  0  0  0  0  0  0  0  0  0  0  0
   46.5974   34.5041   42.7093 H   0  0  0  0  0  0  0  0  0  0  0  0
   44.4689   31.7981   48.0734 H   0  0  0  0  0  0  0  0  0  0  0  0
   44.8936   33.4681   48.3087 H   0  0  0  0  0  0  0  0  0  0  0  0
   46.4443   32.8461   49.7964 H   0  0  0  0  0  0  0  0  0  0  0  0
   46.0886   31.1419   49.4953 H   0  0  0  0  0  0  0  0  0  0  0  0
   48.1965   31.1031   48.5607 H   0  0  0  0  0  0  0  0  0  0  0  0
   48.2138   32.9208   48.3346 H   0  0  0  0  0  0  0  0  0  0  0  0
   47.9725   32.0574   46.1488 H   0  0  0  0  0  0  0  0  0  0  0  0
   45.6020   36.8055   42.3176 H   0  0  0  0  0  0  0  0  0  0  0  0
   43.8710   36.9499   42.8374 H   0  0  0  0  0  0  0  0  0  0  0  0
   44.1893   30.3952   46.2185 H   0  0  0  0  0  0  0  0  0  0  0  0
   45.1063   27.6369   45.4670 H   0  0  0  0  0  0  0  0  0  0  0  0
   44.3158   28.1110   47.0810 H   0  0  0  0  0  0  0  0  0  0  0  0
   42.8689   27.5914   44.9570 H   0  0  0  0  0  0  0  0  0  0  0  0
   42.4830   29.1631   45.8479 H   0  0  0  0  0  0  0  0  0  0  0  0
   43.6457   29.7318   41.7999 C   0  0  0  0  0  0  0  0  0  0  0  0
   42.9490   29.2944   42.9152 C   0  0  0  0  0  0  0  0  0  0  0  0
   41.6490   28.8845   42.8177 C   0  0  0  0  0  0  0  0  0  0  0  0
   41.1779   28.5583   43.7342 H   0  0  0  0  0  0  0  0  0  0  0  0
   41.0109   28.9040   41.5871 C   0  0  0  0  0  0  0  0  0  0  0  0
   39.7586   28.5567   41.2382 N   0  0  0  0  0  0  0  0  0  0  0  0
   39.6628   28.7759   39.8943 C   0  0  0  0  0  0  0  0  0  0  0  0
   38.7823   28.6039   39.2617 H   0  0  0  0  0  0  0  0  0  0  0  0
   40.8144   29.2471   39.4014 N   0  0  0  0  0  0  0  0  0  0  0  0
   41.6703   29.3366   40.4320 C   0  0  0  0  0  0  0  0  0  0  0  0
   42.9981   29.7464   40.5789 C   0  0  0  0  0  0  0  0  0  0  0  0
   44.6857   30.0745   41.7997 H   0  0  0  0  0  0  0  0  0  0  0  0
   39.0054   28.1916   41.8652 H   0  0  0  0  0  0  0  0  0  0  0  0
   43.5084   30.0842   39.6694 H   0  0  0  0  0  0  0  0  0  0  0  0
  1  6  2  0
  2  1  1  0
  3  2  2  0
  3  4  1  0
  4  5  2  0
  5  6  1  0
  5  7  1  0
  7 11  1  0
  7  8  1  0
  8  9  1  0
 10  9  1  0
 11 10  1  0
 12  2  1  0
 13 11  1  0
 14 15  2  0
 15 16  1  0
 16 17  1  0
 16 13  1  0
 18 17  1  0
 19 15  1  0
 19 18  1  0
  1 20  1  0
  3 21  1  0
  8 22  1  0
  8 23  1  0
  9 24  1  0
  9 25  1  0
 10 26  1  0
 10 27  1  0
 11 28  1  6
 12 29  1  0
 12 30  1  0
 16 31  1  1
 17 32  1  0
 17 33  1  0
 18 34  1  0
 18 35  1  0
 36 37  2  0
 37 38  1  0
 38 39  1  0
 38 40  2  0
 40 41  1  0
 41 42  1  0
 42 43  1  0
 42 44  2  0
 44 45  1  0
 45 46  2  0
 46 36  1  0
 45 40  1  0
 36 47  1  0
 41 48  1  0
 46 49  1  0
 19 37  1  0
M  ISO  8  20  14  21  14  22  13  23  13  24  13  25  13  26  13  27  13
M  ISO  8  28  13  31  13  32  13  33  13  34  13  35  13  39  15  43  14
M  END
>  <DihAtoms>  (1) 
14,18,36,35

>  <DihDeg>  (1) 
-90.00013246864773

$$$$
