
 OpenBabel03252509043D

 51 54  0  0  1  0  0  0  0  0999 V2000
   47.1480   34.1650   43.0760 N   0  0  0  0  0  0  0  0  0  0  0  0
   46.6580   35.3360   42.4570 C   0  0  0  0  0  0  0  0  0  0  0  0
   45.1660   35.5540   42.6240 C   0  0  0  0  0  0  0  0  0  0  0  0
   44.6340   35.1140   43.9610 C   0  0  0  0  0  0  0  0  0  0  0  0
   45.7290   34.5820   44.8550 C   0  0  0  0  0  0  0  0  0  0  0  0
   46.4070   33.4520   43.9850 C   0  0  2  0  0  0  0  0  0  0  0  0
   46.8630   35.4470   41.3880 H   0  0  0  0  0  0  0  0  0  0  0  0
   47.1510   36.2260   42.9400 H   0  0  0  0  0  0  0  0  0  0  0  0
   44.5880   35.0320   41.8190 H   0  0  0  0  0  0  0  0  0  0  0  0
   44.9340   36.6330   42.4910 H   0  0  0  0  0  0  0  0  0  0  0  0
   44.1490   35.9670   44.5190 H   0  0  0  0  0  0  0  0  0  0  0  0
   43.8480   34.3360   43.8830 H   0  0  0  0  0  0  0  0  0  0  0  0
   46.4750   35.3410   45.1230 H   0  0  0  0  0  0  0  0  0  0  0  0
   45.2800   34.0440   45.7050 H   0  0  0  0  0  0  0  0  0  0  0  0
   45.5760   32.8290   43.6060 H   0  0  0  0  0  0  0  0  0  0  0  0
   48.1660   33.4770   42.3190 C   0  0  0  0  0  0  0  0  0  0  0  0
   48.7260   34.2640   41.7690 H   0  0  0  0  0  0  0  0  0  0  0  0
   48.9340   32.9730   42.9530 H   0  0  0  0  0  0  0  0  0  0  0  0
   47.4800   32.5710   41.3490 C   0  0  0  0  0  0  0  0  0  0  0  0
   47.5860   31.5260   41.6390 H   0  0  0  0  0  0  0  0  0  0  0  0
   46.3810   32.7850   41.2820 H   0  0  0  0  0  0  0  0  0  0  0  0
   49.3940   32.0390   38.1610 C   0  0  0  0  0  0  0  0  0  0  0  0
   48.8600   31.8380   39.4480 C   0  0  0  0  0  0  0  0  0  0  0  0
   48.0370   32.7950   39.9900 C   0  0  0  0  0  0  0  0  0  0  0  0
   47.7840   33.8820   39.2560 N   0  0  0  0  0  0  0  0  0  0  0  0
   48.2940   34.0690   38.0320 C   0  0  0  0  0  0  0  0  0  0  0  0
   49.0990   33.1650   37.4670 N   0  0  0  0  0  0  0  0  0  0  0  0
   50.0450   31.2930   37.7210 H   0  0  0  0  0  0  0  0  0  0  0  0
   49.1240   30.9240   39.9660 H   0  0  0  0  0  0  0  0  0  0  0  0
   47.9870   35.0050   37.5780 H   0  0  0  0  0  0  0  0  0  0  0  0
   47.1780   32.8130   44.9370 O   0  0  0  0  0  0  0  0  0  0  0  0
   46.0110   30.5910   44.0410 O   0  0  0  0  0  0  0  0  0  0  0  0
   46.6280   31.2530   45.2700 P   0  0  2  0  0  0  0  0  0  0  0  0
   45.3170   31.4540   46.3600 O   0  0  0  0  0  0  0  0  0  0  0  0
   44.6070   30.8110   46.1870 H   0  0  0  0  0  0  0  0  0  0  0  0
   47.7530   30.2930   46.0160 O   0  0  0  0  0  0  0  0  0  0  0  0
   47.6570   29.0050   45.5140 C   0  0  0  0  0  0  0  0  0  0  0  0
   46.6540   28.6270   45.7650 H   0  0  0  0  0  0  0  0  0  0  0  0
   47.8560   28.9280   44.4420 H   0  0  0  0  0  0  0  0  0  0  0  0
   48.3680   27.0880   47.0030 C   0  0  0  0  0  3  0  0  0  0  0  0
   48.6960   28.1910   46.2380 C   0  0  0  0  0  0  0  0  0  0  0  0
   50.0220   28.6000   46.1010 C   0  0  0  0  0  0  0  0  0  0  0  0
   50.2780   29.4760   45.4920 H   0  0  0  0  0  0  0  0  0  0  0  0
   51.0180   27.8960   46.7380 C   0  0  0  0  0  0  0  0  0  0  0  0
   52.3480   28.1270   46.7320 N   0  0  0  0  0  0  0  0  0  0  0  0
   52.9150   27.1720   47.5000 C   0  0  0  0  0  0  0  0  0  0  0  0
   53.9660   27.0630   47.7080 H   0  0  0  0  0  0  0  0  0  0  0  0
   51.9200   26.3640   47.9690 N   0  0  0  0  0  0  0  0  0  0  0  0
   50.7320   26.7890   47.5120 C   0  0  0  0  0  0  0  0  0  0  0  0
   49.4060   26.3970   47.6360 C   0  0  0  0  0  3  0  0  0  0  0  0
   52.9230   28.8720   46.2590 H   0  0  0  0  0  0  0  0  0  0  0  0
  1  6  1  0  0  0  0
  2  3  1  0  0  0  0
  2  8  1  0  0  0  0
  2  1  1  0  0  0  0
  3  4  1  0  0  0  0
  4 11  1  0  0  0  0
  4  5  1  0  0  0  0
  5 13  1  0  0  0  0
  5 14  1  0  0  0  0
  6 15  1  6  0  0  0
  6  5  1  0  0  0  0
  6 31  1  0  0  0  0
  7  2  1  0  0  0  0
  9  3  1  0  0  0  0
 10  3  1  0  0  0  0
 12  4  1  0  0  0  0
 16 18  1  0  0  0  0
 16  1  1  0  0  0  0
 17 16  1  0  0  0  0
 19 20  1  0  0  0  0
 19 16  1  0  0  0  0
 21 19  1  0  0  0  0
 22 23  1  0  0  0  0
 23 29  1  0  0  0  0
 23 24  2  0  0  0  0
 24 19  1  0  0  0  0
 25 24  1  0  0  0  0
 26 25  2  0  0  0  0
 27 26  1  0  0  0  0
 27 22  2  0  0  0  0
 28 22  1  0  0  0  0
 30 26  1  0  0  0  0
 31 33  1  0  0  0  0
 33 32  2  6  0  0  0
 33 36  1  0  0  0  0
 33 34  1  0  0  0  0
 35 34  1  0  0  0  0
 37 38  1  0  0  0  0
 37 36  1  0  0  0  0
 37 41  1  0  0  0  0
 39 37  1  0  0  0  0
 40 50  1  0  0  0  0
 41 40  2  0  0  0  0
 42 41  1  0  0  0  0
 42 44  2  0  0  0  0
 43 42  1  0  0  0  0
 44 49  1  0  0  0  0
 45 44  1  0  0  0  0
 45 46  1  0  0  0  0
 46 47  1  0  0  0  0
 46 48  2  0  0  0  0
 49 50  2  0  0  0  0
 49 48  1  0  0  0  0
 51 45  1  0  0  0  0
M  END
>  <minimizedAffinity>
-3.78804374

>  <minimizedRMSD>
0.351743281

$$$$
