
 OpenBabel03252505503D

 25 27  0  0  0  0  0  0  0  0999 V2000
   37.1540   32.0590   40.5680 O   0  0  0  0  0  0  0  0  0  0  0  0
   38.9400   33.5460   40.8740 C   0  0  0  0  0  3  0  0  0  0  0  0
   38.3380   32.6010   40.0620 C   0  0  0  0  0  0  0  0  0  0  0  0
   38.8780   32.2250   38.8390 C   0  0  0  0  0  0  0  0  0  0  0  0
   38.3720   31.4850   38.2440 H   0  0  0  0  0  0  0  0  0  0  0  0
   40.0400   32.8080   38.4230 C   0  0  0  0  0  0  0  0  0  0  0  0
   40.8180   32.6840   37.3260 N   0  0  0  0  0  0  0  0  0  0  0  0
   41.8810   33.5150   37.4230 C   0  0  0  0  0  0  0  0  0  0  0  0
   42.6850   33.6480   36.7050 H   0  0  0  0  0  0  0  0  0  0  0  0
   41.7400   34.1550   38.6060 N   0  0  0  0  0  0  0  0  0  0  0  0
   40.6260   33.7480   39.2460 C   0  0  0  0  0  0  0  0  0  0  0  0
   40.1150   34.1450   40.4710 C   0  0  0  0  0  3  0  0  0  0  0  0
   40.6240   32.0320   36.5090 H   0  0  0  0  0  0  0  0  0  0  0  0
   38.0240   29.1140   42.3890 C   0  0  0  0  0  0  0  0  0  0  0  0
   36.9650   28.2520   42.1300 C   0  0  0  0  0  0  0  0  0  0  0  0
   35.9320   28.7170   41.3010 C   0  0  0  0  0  0  0  0  0  0  0  0
   36.0200   29.9730   40.8010 N   0  0  0  0  0  0  0  0  0  0  0  0
   37.0780   30.7790   41.0850 C   0  0  0  0  0  0  0  0  0  0  0  0
   38.0760   30.3630   41.8700 N   0  0  0  0  0  0  0  0  0  0  0  0
   38.8760   28.8500   43.0210 H   0  0  0  0  0  0  0  0  0  0  0  0
   35.1310   28.0400   41.1140 H   0  0  0  0  0  0  0  0  0  0  0  0
   37.0120   26.8960   42.7550 C   0  0  0  0  0  0  0  0  0  0  0  0
   35.9950   26.8640   43.6780 F   0  0  0  0  0  0  0  0  0  0  0  0
   38.2450   26.7780   43.3820 F   0  0  0  0  0  0  0  0  0  0  0  0
   36.9010   25.9550   41.7580 F   0  0  0  0  0  0  0  0  0  0  0  0
  1 18  1  0  0  0  0
  3  1  1  0  0  0  0
  3  2  2  0  0  0  0
  4  3  1  0  0  0  0
  5  4  1  0  0  0  0
  6  4  2  0  0  0  0
  6 11  1  0  0  0  0
  7  8  1  0  0  0  0
  7  6  1  0  0  0  0
  8 10  2  0  0  0  0
  9  8  1  0  0  0  0
 10 11  1  0  0  0  0
 11 12  2  0  0  0  0
 12  2  1  0  0  0  0
 13  7  1  0  0  0  0
 14 20  1  0  0  0  0
 15 14  1  0  0  0  0
 15 22  1  0  0  0  0
 16 15  2  0  0  0  0
 17 18  2  0  0  0  0
 17 16  1  0  0  0  0
 18 19  1  0  0  0  0
 19 14  2  0  0  0  0
 21 16  1  0  0  0  0
 22 24  1  0  0  0  0
 22 23  1  0  0  0  0
 25 22  1  0  0  0  0
M  END
>  <minimizedAffinity>
-5.78778267

$$$$

 OpenBabel03252505503D

 25 27  0  0  0  0  0  0  0  0999 V2000
   37.6460   28.8620   43.1270 O   0  0  0  0  0  0  0  0  0  0  0  0
   39.0920   27.0330   43.3750 C   0  0  0  0  0  3  0  0  0  0  0  0
   37.9330   27.5330   42.8060 C   0  0  0  0  0  0  0  0  0  0  0  0
   37.1230   26.7630   41.9820 C   0  0  0  0  0  0  0  0  0  0  0  0
   36.2310   27.1980   41.5650 H   0  0  0  0  0  0  0  0  0  0  0  0
   37.4810   25.4720   41.7240 C   0  0  0  0  0  0  0  0  0  0  0  0
   36.9440   24.4720   40.9900 N   0  0  0  0  0  0  0  0  0  0  0  0
   37.7240   23.3700   41.0790 C   0  0  0  0  0  0  0  0  0  0  0  0
   37.5630   22.4060   40.6060 H   0  0  0  0  0  0  0  0  0  0  0  0
   38.7550   23.7140   41.8850 N   0  0  0  0  0  0  0  0  0  0  0  0
   38.6400   24.9910   42.2980 C   0  0  0  0  0  0  0  0  0  0  0  0
   39.4710   25.7310   43.1250 C   0  0  0  0  0  3  0  0  0  0  0  0
   36.0450   24.5410   40.4280 H   0  0  0  0  0  0  0  0  0  0  0  0
   38.7600   31.5040   40.9990 C   0  0  0  0  0  0  0  0  0  0  0  0
   37.6090   31.8720   40.3140 C   0  0  0  0  0  0  0  0  0  0  0  0
   36.4250   31.1780   40.6080 C   0  0  0  0  0  0  0  0  0  0  0  0
   36.4660   30.1920   41.5370 N   0  0  0  0  0  0  0  0  0  0  0  0
   37.6200   29.8700   42.1810 C   0  0  0  0  0  0  0  0  0  0  0  0
   38.7620   30.5140   41.9220 N   0  0  0  0  0  0  0  0  0  0  0  0
   39.7320   31.9800   40.8450 H   0  0  0  0  0  0  0  0  0  0  0  0
   35.5530   31.4760   40.0720 H   0  0  0  0  0  0  0  0  0  0  0  0
   37.7240   32.9790   39.3180 C   0  0  0  0  0  0  0  0  0  0  0  0
   37.1720   32.5050   38.1530 F   0  0  0  0  0  0  0  0  0  0  0  0
   39.0770   33.2360   39.1480 F   0  0  0  0  0  0  0  0  0  0  0  0
   37.0960   34.0900   39.8300 F   0  0  0  0  0  0  0  0  0  0  0  0
  3  1  1  0  0  0  0
  3  2  2  0  0  0  0
  4  3  1  0  0  0  0
  5  4  1  0  0  0  0
  6  4  2  0  0  0  0
  6 11  1  0  0  0  0
  7  8  1  0  0  0  0
  7  6  1  0  0  0  0
  8 10  2  0  0  0  0
  9  8  1  0  0  0  0
 10 11  1  0  0  0  0
 11 12  2  0  0  0  0
 12  2  1  0  0  0  0
 13  7  1  0  0  0  0
 14 19  1  0  0  0  0
 15 16  1  0  0  0  0
 15 14  2  0  0  0  0
 16 17  2  0  0  0  0
 17 18  1  0  0  0  0
 18  1  1  0  0  0  0
 19 18  2  0  0  0  0
 20 14  1  0  0  0  0
 21 16  1  0  0  0  0
 22 25  1  0  0  0  0
 22 15  1  0  0  0  0
 23 22  1  0  0  0  0
 24 22  1  0  0  0  0
M  END
>  <minimizedAffinity>
-5.5462184

$$$$

 OpenBabel03252505503D

 25 27  0  0  0  0  0  0  0  0999 V2000
   36.6460   28.3880   42.2150 O   0  0  0  0  0  0  0  0  0  0  0  0
   36.6090   27.1670   40.2140 C   0  0  0  0  0  3  0  0  0  0  0  0
   36.8700   27.1680   41.5730 C   0  0  0  0  0  0  0  0  0  0  0  0
   37.3230   26.0360   42.2390 C   0  0  0  0  0  0  0  0  0  0  0  0
   37.5120   26.0870   43.2970 H   0  0  0  0  0  0  0  0  0  0  0  0
   37.5150   24.8850   41.5300 C   0  0  0  0  0  0  0  0  0  0  0  0
   37.9320   23.6400   41.8470 N   0  0  0  0  0  0  0  0  0  0  0  0
   37.9400   22.8650   40.7380 C   0  0  0  0  0  0  0  0  0  0  0  0
   38.2250   21.8190   40.6640 H   0  0  0  0  0  0  0  0  0  0  0  0
   37.5180   23.6610   39.7300 N   0  0  0  0  0  0  0  0  0  0  0  0
   37.2490   24.9040   40.1760 C   0  0  0  0  0  0  0  0  0  0  0  0
   36.7970   26.0150   39.4810 C   0  0  0  0  0  3  0  0  0  0  0  0
   38.2110   23.3180   42.8210 H   0  0  0  0  0  0  0  0  0  0  0  0
   36.5590   31.5750   40.6090 C   0  0  0  0  0  0  0  0  0  0  0  0
   37.8830   31.9960   40.6580 C   0  0  0  0  0  0  0  0  0  0  0  0
   38.8170   31.1420   41.2650 C   0  0  0  0  0  0  0  0  0  0  0  0
   38.3820   29.9620   41.7690 N   0  0  0  0  0  0  0  0  0  0  0  0
   37.0740   29.5950   41.6960 C   0  0  0  0  0  0  0  0  0  0  0  0
   36.1630   30.3870   41.1230 N   0  0  0  0  0  0  0  0  0  0  0  0
   35.7550   32.1640   40.1600 H   0  0  0  0  0  0  0  0  0  0  0  0
   39.8260   31.4830   41.2910 H   0  0  0  0  0  0  0  0  0  0  0  0
   38.2060   33.3260   40.0580 C   0  0  0  0  0  0  0  0  0  0  0  0
   39.1810   33.0950   39.1180 F   0  0  0  0  0  0  0  0  0  0  0  0
   38.6930   34.1270   41.0820 F   0  0  0  0  0  0  0  0  0  0  0  0
   37.0470   33.8650   39.5510 F   0  0  0  0  0  0  0  0  0  0  0  0
  2  3  1  0  0  0  0
  3  1  1  0  0  0  0
  3  4  2  0  0  0  0
  4  5  1  0  0  0  0
  6  7  1  0  0  0  0
  6  4  1  0  0  0  0
  7 13  1  0  0  0  0
  8  7  1  0  0  0  0
  9  8  1  0  0  0  0
 10 11  1  0  0  0  0
 10  8  2  0  0  0  0
 11  6  2  0  0  0  0
 12 11  1  0  0  0  0
 12  2  2  0  0  0  0
 14 15  2  0  0  0  0
 14 19  1  0  0  0  0
 15 16  1  0  0  0  0
 16 21  1  0  0  0  0
 16 17  2  0  0  0  0
 18 17  1  0  0  0  0
 18  1  1  0  0  0  0
 19 18  2  0  0  0  0
 20 14  1  0  0  0  0
 22 15  1  0  0  0  0
 22 24  1  0  0  0  0
 23 22  1  0  0  0  0
 25 22  1  0  0  0  0
M  END
>  <minimizedAffinity>
-5.48794937

$$$$

 OpenBabel03252505503D

 25 27  0  0  0  0  0  0  0  0999 V2000
   36.4200   30.4720   41.2830 O   0  0  0  0  0  0  0  0  0  0  0  0
   36.9910   32.3500   40.0010 C   0  0  0  0  0  3  0  0  0  0  0  0
   37.4030   31.3930   40.9130 C   0  0  0  0  0  0  0  0  0  0  0  0
   38.6970   31.3600   41.4170 C   0  0  0  0  0  0  0  0  0  0  0  0
   38.9670   30.5960   42.1240 H   0  0  0  0  0  0  0  0  0  0  0  0
   39.5920   32.3020   40.9990 C   0  0  0  0  0  0  0  0  0  0  0  0
   40.8890   32.5580   41.2740 N   0  0  0  0  0  0  0  0  0  0  0  0
   41.3020   33.6370   40.5690 C   0  0  0  0  0  0  0  0  0  0  0  0
   42.2880   34.0910   40.5720 H   0  0  0  0  0  0  0  0  0  0  0  0
   40.2280   34.0400   39.8520 N   0  0  0  0  0  0  0  0  0  0  0  0
   39.1640   33.2470   40.0890 C   0  0  0  0  0  0  0  0  0  0  0  0
   37.8820   33.3090   39.5670 C   0  0  0  0  0  3  0  0  0  0  0  0
   41.4950   31.9970   41.9430 H   0  0  0  0  0  0  0  0  0  0  0  0
   36.9450   27.0320   40.4820 C   0  0  0  0  0  0  0  0  0  0  0  0
   37.1960   26.4490   41.7190 C   0  0  0  0  0  0  0  0  0  0  0  0
   37.1790   27.2820   42.8480 C   0  0  0  0  0  0  0  0  0  0  0  0
   36.9220   28.6010   42.6760 N   0  0  0  0  0  0  0  0  0  0  0  0
   36.6820   29.1240   41.4430 C   0  0  0  0  0  0  0  0  0  0  0  0
   36.6900   28.3550   40.3500 N   0  0  0  0  0  0  0  0  0  0  0  0
   36.9350   26.4730   39.5430 H   0  0  0  0  0  0  0  0  0  0  0  0
   37.3740   26.8150   43.7860 H   0  0  0  0  0  0  0  0  0  0  0  0
   37.4640   24.9800   41.7460 C   0  0  0  0  0  0  0  0  0  0  0  0
   37.4990   24.5720   40.4350 F   0  0  0  0  0  0  0  0  0  0  0  0
   36.4030   24.3840   42.4150 F   0  0  0  0  0  0  0  0  0  0  0  0
   38.6330   24.7650   42.4370 F   0  0  0  0  0  0  0  0  0  0  0  0
  1 18  1  0  0  0  0
  2  3  1  0  0  0  0
  3  1  1  0  0  0  0
  3  4  2  0  0  0  0
  4  5  1  0  0  0  0
  6  7  1  0  0  0  0
  6  4  1  0  0  0  0
  7 13  1  0  0  0  0
  8  9  1  0  0  0  0
  8  7  1  0  0  0  0
 10 11  1  0  0  0  0
 10  8  2  0  0  0  0
 11  6  2  0  0  0  0
 12  2  2  0  0  0  0
 12 11  1  0  0  0  0
 14 15  1  0  0  0  0
 15 22  1  0  0  0  0
 15 16  2  0  0  0  0
 16 21  1  0  0  0  0
 17 16  1  0  0  0  0
 18 17  2  0  0  0  0
 19 14  2  0  0  0  0
 19 18  1  0  0  0  0
 20 14  1  0  0  0  0
 22 24  1  0  0  0  0
 22 25  1  0  0  0  0
 23 22  1  0  0  0  0
M  END
>  <minimizedAffinity>
-5.40419054

$$$$

 OpenBabel03252505503D

 25 27  0  0  0  0  0  0  0  0999 V2000
   36.3680   28.6160   42.1340 O   0  0  0  0  0  0  0  0  0  0  0  0
   38.3990   29.7810   42.0190 C   0  0  0  0  0  3  0  0  0  0  0  0
   37.0490   29.7600   41.7120 C   0  0  0  0  0  0  0  0  0  0  0  0
   36.4290   30.8020   41.0330 C   0  0  0  0  0  0  0  0  0  0  0  0
   35.3770   30.7370   40.8180 H   0  0  0  0  0  0  0  0  0  0  0  0
   37.1740   31.8820   40.6580 C   0  0  0  0  0  0  0  0  0  0  0  0
   36.9050   33.0340   40.0070 N   0  0  0  0  0  0  0  0  0  0  0  0
   38.0340   33.7720   39.8970 C   0  0  0  0  0  0  0  0  0  0  0  0
   38.1450   34.7440   39.4260 H   0  0  0  0  0  0  0  0  0  0  0  0
   39.0060   33.0470   40.4960 N   0  0  0  0  0  0  0  0  0  0  0  0
   38.5180   31.8860   40.9740 C   0  0  0  0  0  0  0  0  0  0  0  0
   39.1680   30.8640   41.6480 C   0  0  0  0  0  3  0  0  0  0  0  0
   35.9500   33.3180   39.6360 H   0  0  0  0  0  0  0  0  0  0  0  0
   36.8410   25.8990   39.8670 C   0  0  0  0  0  0  0  0  0  0  0  0
   37.2530   24.8590   40.6930 C   0  0  0  0  0  0  0  0  0  0  0  0
   37.3630   25.1230   42.0670 C   0  0  0  0  0  0  0  0  0  0  0  0
   37.0670   26.3670   42.5140 N   0  0  0  0  0  0  0  0  0  0  0  0
   36.6670   27.3510   41.6640 C   0  0  0  0  0  0  0  0  0  0  0  0
   36.5530   27.1290   40.3510 N   0  0  0  0  0  0  0  0  0  0  0  0
   36.7240   25.7990   38.7850 H   0  0  0  0  0  0  0  0  0  0  0  0
   37.6800   24.3120   42.6830 H   0  0  0  0  0  0  0  0  0  0  0  0
   37.5440   23.5430   40.0500 C   0  0  0  0  0  0  0  0  0  0  0  0
   36.3250   22.9760   39.7690 F   0  0  0  0  0  0  0  0  0  0  0  0
   38.2360   22.7790   40.9810 F   0  0  0  0  0  0  0  0  0  0  0  0
   38.3330   23.7650   38.9460 F   0  0  0  0  0  0  0  0  0  0  0  0
  3  2  1  0  0  0  0
  3  1  1  0  0  0  0
  4  3  2  0  0  0  0
  5  4  1  0  0  0  0
  6 11  2  0  0  0  0
  6  4  1  0  0  0  0
  7  6  1  0  0  0  0
  8  7  1  0  0  0  0
  8 10  2  0  0  0  0
  9  8  1  0  0  0  0
 10 11  1  0  0  0  0
 11 12  1  0  0  0  0
 12  2  2  0  0  0  0
 13  7  1  0  0  0  0
 14 19  2  0  0  0  0
 14 15  1  0  0  0  0
 15 16  2  0  0  0  0
 16 17  1  0  0  0  0
 16 21  1  0  0  0  0
 18  1  1  0  0  0  0
 18 17  2  0  0  0  0
 19 18  1  0  0  0  0
 20 14  1  0  0  0  0
 22 15  1  0  0  0  0
 22 24  1  0  0  0  0
 23 22  1  0  0  0  0
 25 22  1  0  0  0  0
M  END
>  <minimizedAffinity>
-5.35219574

$$$$

 OpenBabel03252505503D

 25 27  0  0  0  0  0  0  0  0999 V2000
   38.4330   28.8470   42.7060 O   0  0  0  0  0  0  0  0  0  0  0  0
   37.0660   30.2380   41.4060 C   0  0  0  0  0  3  0  0  0  0  0  0
   38.2970   30.0500   42.0100 C   0  0  0  0  0  0  0  0  0  0  0  0
   39.3130   30.9930   41.9270 C   0  0  0  0  0  0  0  0  0  0  0  0
   40.2520   30.8010   42.4150 H   0  0  0  0  0  0  0  0  0  0  0  0
   39.0900   32.1430   41.2250 C   0  0  0  0  0  0  0  0  0  0  0  0
   39.8320   33.2370   40.9470 N   0  0  0  0  0  0  0  0  0  0  0  0
   39.1110   34.0990   40.1940 C   0  0  0  0  0  0  0  0  0  0  0  0
   39.4250   35.0650   39.8100 H   0  0  0  0  0  0  0  0  0  0  0  0
   37.9070   33.5090   40.0120 N   0  0  0  0  0  0  0  0  0  0  0  0
   37.8580   32.3120   40.6280 C   0  0  0  0  0  0  0  0  0  0  0  0
   36.8230   31.3920   40.6920 C   0  0  0  0  0  3  0  0  0  0  0  0
   40.8310   33.3970   41.2720 H   0  0  0  0  0  0  0  0  0  0  0  0
   36.9480   25.6280   42.2720 C   0  0  0  0  0  0  0  0  0  0  0  0
   37.4870   25.1850   41.0700 C   0  0  0  0  0  0  0  0  0  0  0  0
   38.3860   26.0340   40.4060 C   0  0  0  0  0  0  0  0  0  0  0  0
   38.6790   27.2320   40.9660 N   0  0  0  0  0  0  0  0  0  0  0  0
   38.1240   27.6200   42.1460 C   0  0  0  0  0  0  0  0  0  0  0  0
   37.2660   26.8330   42.8010 N   0  0  0  0  0  0  0  0  0  0  0  0
   36.2400   25.0460   42.8670 H   0  0  0  0  0  0  0  0  0  0  0  0
   38.7880   25.6750   39.4870 H   0  0  0  0  0  0  0  0  0  0  0  0
   37.0650   23.8380   40.5810 C   0  0  0  0  0  0  0  0  0  0  0  0
   37.8400   22.9260   41.2560 F   0  0  0  0  0  0  0  0  0  0  0  0
   37.3340   23.7960   39.2200 F   0  0  0  0  0  0  0  0  0  0  0  0
   35.7140   23.7020   40.7970 F   0  0  0  0  0  0  0  0  0  0  0  0
  2  3  1  0  0  0  0
  3  1  1  0  0  0  0
  4  3  2  0  0  0  0
  4  5  1  0  0  0  0
  6  4  1  0  0  0  0
  7  6  1  0  0  0  0
  7 13  1  0  0  0  0
  8  7  1  0  0  0  0
  9  8  1  0  0  0  0
 10  8  2  0  0  0  0
 10 11  1  0  0  0  0
 11 12  1  0  0  0  0
 11  6  2  0  0  0  0
 12  2  2  0  0  0  0
 14 19  1  0  0  0  0
 14 20  1  0  0  0  0
 15 14  2  0  0  0  0
 16 17  2  0  0  0  0
 16 15  1  0  0  0  0
 17 18  1  0  0  0  0
 18  1  1  0  0  0  0
 18 19  2  0  0  0  0
 21 16  1  0  0  0  0
 22 25  1  0  0  0  0
 22 15  1  0  0  0  0
 22 23  1  0  0  0  0
 24 22  1  0  0  0  0
M  END
>  <minimizedAffinity>
-5.19332504

$$$$

 OpenBabel03252505503D

 25 27  0  0  0  0  0  0  0  0999 V2000
   36.5710   28.4160   42.2090 O   0  0  0  0  0  0  0  0  0  0  0  0
   37.0520   26.1340   42.4410 C   0  0  0  0  0  3  0  0  0  0  0  0
   36.7930   27.1890   41.5820 C   0  0  0  0  0  0  0  0  0  0  0  0
   36.7580   27.0270   40.2030 C   0  0  0  0  0  0  0  0  0  0  0  0
   36.5520   27.8780   39.5780 H   0  0  0  0  0  0  0  0  0  0  0  0
   36.9870   25.7880   39.6770 C   0  0  0  0  0  0  0  0  0  0  0  0
   37.0290   25.2890   38.4230 N   0  0  0  0  0  0  0  0  0  0  0  0
   37.3030   23.9650   38.4670 C   0  0  0  0  0  0  0  0  0  0  0  0
   37.4020   23.2810   37.6290 H   0  0  0  0  0  0  0  0  0  0  0  0
   37.4300   23.6600   39.7790 N   0  0  0  0  0  0  0  0  0  0  0  0
   37.2440   24.7490   40.5480 C   0  0  0  0  0  0  0  0  0  0  0  0
   37.2860   24.8750   41.9280 C   0  0  0  0  0  3  0  0  0  0  0  0
   36.8690   25.8510   37.5350 H   0  0  0  0  0  0  0  0  0  0  0  0
   36.5470   31.5720   40.5390 C   0  0  0  0  0  0  0  0  0  0  0  0
   37.8660   31.9970   40.6360 C   0  0  0  0  0  0  0  0  0  0  0  0
   38.7750   31.1580   41.2980 C   0  0  0  0  0  0  0  0  0  0  0  0
   38.3220   29.9860   41.8070 N   0  0  0  0  0  0  0  0  0  0  0  0
   37.0190   29.6150   41.6850 C   0  0  0  0  0  0  0  0  0  0  0  0
   36.1320   30.3930   41.0590 N   0  0  0  0  0  0  0  0  0  0  0  0
   35.7620   32.1500   40.0450 H   0  0  0  0  0  0  0  0  0  0  0  0
   39.7820   31.5020   41.3610 H   0  0  0  0  0  0  0  0  0  0  0  0
   38.2120   33.3160   40.0250 C   0  0  0  0  0  0  0  0  0  0  0  0
   37.0620   33.7750   39.4290 F   0  0  0  0  0  0  0  0  0  0  0  0
   39.1950   33.0790   39.0730 F   0  0  0  0  0  0  0  0  0  0  0  0
   38.7030   34.1360   41.0130 F   0  0  0  0  0  0  0  0  0  0  0  0
  3  1  1  0  0  0  0
  3  2  2  0  0  0  0
  4  3  1  0  0  0  0
  5  4  1  0  0  0  0
  6  4  2  0  0  0  0
  6 11  1  0  0  0  0
  7  8  1  0  0  0  0
  7  6  1  0  0  0  0
  8 10  2  0  0  0  0
  9  8  1  0  0  0  0
 10 11  1  0  0  0  0
 11 12  2  0  0  0  0
 12  2  1  0  0  0  0
 13  7  1  0  0  0  0
 14 15  2  0  0  0  0
 14 19  1  0  0  0  0
 15 16  1  0  0  0  0
 16 21  1  0  0  0  0
 16 17  2  0  0  0  0
 18 17  1  0  0  0  0
 18  1  1  0  0  0  0
 19 18  2  0  0  0  0
 20 14  1  0  0  0  0
 22 15  1  0  0  0  0
 22 25  1  0  0  0  0
 23 22  1  0  0  0  0
 24 22  1  0  0  0  0
M  END
>  <minimizedAffinity>
-5.16017914

$$$$

 OpenBabel03252505503D

 25 27  0  0  0  0  0  0  0  0999 V2000
   36.8860   30.0120   41.6080 O   0  0  0  0  0  0  0  0  0  0  0  0
   39.1050   30.6000   42.0830 C   0  0  0  0  0  3  0  0  0  0  0  0
   37.9800   30.8260   41.3080 C   0  0  0  0  0  0  0  0  0  0  0  0
   37.9520   31.7920   40.3100 C   0  0  0  0  0  0  0  0  0  0  0  0
   37.0540   31.9280   39.7350 H   0  0  0  0  0  0  0  0  0  0  0  0
   39.0700   32.5430   40.0870 C   0  0  0  0  0  0  0  0  0  0  0  0
   39.3830   33.5360   39.2260 N   0  0  0  0  0  0  0  0  0  0  0  0
   40.6580   33.9380   39.4350 C   0  0  0  0  0  0  0  0  0  0  0  0
   41.2020   34.7150   38.9070 H   0  0  0  0  0  0  0  0  0  0  0  0
   41.1240   33.1680   40.4460 N   0  0  0  0  0  0  0  0  0  0  0  0
   40.1810   32.3040   40.8690 C   0  0  0  0  0  0  0  0  0  0  0  0
   40.2430   31.3490   41.8720 C   0  0  0  0  0  3  0  0  0  0  0  0
   38.7260   33.9410   38.4950 H   0  0  0  0  0  0  0  0  0  0  0  0
   37.1870   26.6490   40.4440 C   0  0  0  0  0  0  0  0  0  0  0  0
   37.1240   25.8980   41.6110 C   0  0  0  0  0  0  0  0  0  0  0  0
   36.9720   26.5890   42.8240 C   0  0  0  0  0  0  0  0  0  0  0  0
   36.8980   27.9410   42.7930 N   0  0  0  0  0  0  0  0  0  0  0  0
   36.9640   28.6310   41.6230 C   0  0  0  0  0  0  0  0  0  0  0  0
   37.1070   28.0010   40.4540 N   0  0  0  0  0  0  0  0  0  0  0  0
   37.3040   26.2100   39.4500 H   0  0  0  0  0  0  0  0  0  0  0  0
   36.9260   25.9940   43.7070 H   0  0  0  0  0  0  0  0  0  0  0  0
   37.2210   24.4130   41.4810 C   0  0  0  0  0  0  0  0  0  0  0  0
   37.8390   23.9690   42.6250 F   0  0  0  0  0  0  0  0  0  0  0  0
   38.0080   24.1520   40.3680 F   0  0  0  0  0  0  0  0  0  0  0  0
   35.9560   23.9110   41.2900 F   0  0  0  0  0  0  0  0  0  0  0  0
  1 18  1  0  0  0  0
  3  1  1  0  0  0  0
  3  2  2  0  0  0  0
  4  3  1  0  0  0  0
  5  4  1  0  0  0  0
  6  4  2  0  0  0  0
  6 11  1  0  0  0  0
  7  8  1  0  0  0  0
  7  6  1  0  0  0  0
  8 10  2  0  0  0  0
  9  8  1  0  0  0  0
 10 11  1  0  0  0  0
 11 12  2  0  0  0  0
 12  2  1  0  0  0  0
 13  7  1  0  0  0  0
 14 19  2  0  0  0  0
 14 15  1  0  0  0  0
 15 16  2  0  0  0  0
 16 21  1  0  0  0  0
 17 16  1  0  0  0  0
 18 17  2  0  0  0  0
 19 18  1  0  0  0  0
 20 14  1  0  0  0  0
 22 15  1  0  0  0  0
 22 23  1  0  0  0  0
 24 22  1  0  0  0  0
 25 22  1  0  0  0  0
M  END
>  <minimizedAffinity>
-5.15591431

$$$$

 OpenBabel03252505503D

 25 27  0  0  0  0  0  0  0  0999 V2000
   37.3680   28.7810   37.9880 O   0  0  0  0  0  0  0  0  0  0  0  0
   39.2230   30.1760   38.3180 C   0  0  0  0  0  3  0  0  0  0  0  0
   37.8540   30.0080   38.4440 C   0  0  0  0  0  0  0  0  0  0  0  0
   37.0360   30.9910   38.9840 C   0  0  0  0  0  0  0  0  0  0  0  0
   35.9770   30.8120   39.0600 H   0  0  0  0  0  0  0  0  0  0  0  0
   37.5980   32.1620   39.4050 C   0  0  0  0  0  0  0  0  0  0  0  0
   37.1160   33.2940   39.9600 N   0  0  0  0  0  0  0  0  0  0  0  0
   38.1300   34.1610   40.1850 C   0  0  0  0  0  0  0  0  0  0  0  0
   38.0680   35.1540   40.6200 H   0  0  0  0  0  0  0  0  0  0  0  0
   39.2500   33.5360   39.7550 N   0  0  0  0  0  0  0  0  0  0  0  0
   38.9640   32.3110   39.2720 C   0  0  0  0  0  0  0  0  0  0  0  0
   39.8090   31.3510   38.7370 C   0  0  0  0  0  3  0  0  0  0  0  0
   36.0940   33.4770   40.1870 H   0  0  0  0  0  0  0  0  0  0  0  0
   36.8990   25.4050   39.0520 C   0  0  0  0  0  0  0  0  0  0  0  0
   36.8280   25.5110   40.4360 C   0  0  0  0  0  0  0  0  0  0  0  0
   36.9460   26.7910   40.9990 C   0  0  0  0  0  0  0  0  0  0  0  0
   37.1240   27.8480   40.1700 N   0  0  0  0  0  0  0  0  0  0  0  0
   37.1870   27.6920   38.8210 C   0  0  0  0  0  0  0  0  0  0  0  0
   37.0770   26.4860   38.2570 N   0  0  0  0  0  0  0  0  0  0  0  0
   36.8190   24.4560   38.5150 H   0  0  0  0  0  0  0  0  0  0  0  0
   36.8880   26.8500   42.0610 H   0  0  0  0  0  0  0  0  0  0  0  0
   36.6300   24.2510   41.2140 C   0  0  0  0  0  0  0  0  0  0  0  0
   36.5280   24.6270   42.5310 F   0  0  0  0  0  0  0  0  0  0  0  0
   37.7580   23.4670   41.0150 F   0  0  0  0  0  0  0  0  0  0  0  0
   35.5190   23.6080   40.7220 F   0  0  0  0  0  0  0  0  0  0  0  0
  1  3  1  0  0  0  0
  1 18  1  0  0  0  0
  2  3  2  0  0  0  0
  2 12  1  0  0  0  0
  3  4  1  0  0  0  0
  4  5  1  0  0  0  0
  4  6  2  0  0  0  0
  6  7  1  0  0  0  0
  7  8  1  0  0  0  0
  7 13  1  0  0  0  0
  8  9  1  0  0  0  0
 10  8  2  0  0  0  0
 11  6  1  0  0  0  0
 11 10  1  0  0  0  0
 12 11  2  0  0  0  0
 14 15  1  0  0  0  0
 15 16  2  0  0  0  0
 15 22  1  0  0  0  0
 16 21  1  0  0  0  0
 17 16  1  0  0  0  0
 18 17  2  0  0  0  0
 19 18  1  0  0  0  0
 19 14  2  0  0  0  0
 20 14  1  0  0  0  0
 22 23  1  0  0  0  0
 24 22  1  0  0  0  0
 25 22  1  0  0  0  0
M  END
>  <minimizedAffinity>
-4.98506975

$$$$
