
 OpenBabel03252507043D

 50 54  0  0  0  0  0  0  0  0999 V2000
   41.0100   33.5840   40.1990 N   0  0  0  0  0  0  0  0  0  0  0  0
   40.3910   32.2950   40.2070 C   0  0  0  0  0  0  0  0  0  0  0  0
   39.0300   32.6910   40.7740 C   0  0  0  0  0  0  0  0  0  0  0  0
   38.3090   33.6590   39.9670 C   0  0  0  0  0  0  0  0  0  0  0  0
   39.0570   34.5320   39.0900 C   0  0  0  0  0  0  0  0  0  0  0  0
   40.5670   34.5610   39.1790 C   0  0  0  0  0  0  0  0  0  0  0  0
   40.3480   31.7270   39.2950 H   0  0  0  0  0  0  0  0  0  0  0  0
   40.8510   31.6550   40.9800 H   0  0  0  0  0  0  0  0  0  0  0  0
   39.1760   33.0060   41.8330 H   0  0  0  0  0  0  0  0  0  0  0  0
   38.4500   31.7280   40.8600 H   0  0  0  0  0  0  0  0  0  0  0  0
   37.5620   33.1130   39.3180 H   0  0  0  0  0  0  0  0  0  0  0  0
   37.6760   34.2960   40.6410 H   0  0  0  0  0  0  0  0  0  0  0  0
   38.6420   35.1850   38.3900 H   0  0  0  0  0  0  0  0  0  0  0  0
   41.9460   34.0340   41.0400 C   0  0  0  0  0  0  0  0  0  0  0  0
   41.6400   33.9710   42.1070 H   0  0  0  0  0  0  0  0  0  0  0  0
   42.1840   35.1450   40.9060 H   0  0  0  0  0  0  0  0  0  0  0  0
   43.2620   33.3610   40.8990 C   0  0  0  0  0  0  0  0  0  0  0  0
   43.2230   32.3580   41.3840 H   0  0  0  0  0  0  0  0  0  0  0  0
   43.5260   33.2440   39.8120 H   0  0  0  0  0  0  0  0  0  0  0  0
   44.2720   34.1620   41.6120 C   0  0  0  0  0  0  0  0  0  0  0  0
   43.9030   35.2980   42.2930 C   0  0  0  0  0  0  0  0  0  0  0  0
   44.8900   36.0310   42.9410 C   0  0  0  0  0  0  0  0  0  0  0  0
   46.1760   35.5800   42.8690 N   0  0  0  0  0  0  0  0  0  0  0  0
   46.4940   34.4720   42.2020 C   0  0  0  0  0  0  0  0  0  0  0  0
   45.5290   33.7840   41.5830 N   0  0  0  0  0  0  0  0  0  0  0  0
   42.9680   35.7990   42.4770 H   0  0  0  0  0  0  0  0  0  0  0  0
   44.7880   36.9500   43.5220 H   0  0  0  0  0  0  0  0  0  0  0  0
   47.8930   34.0480   42.2150 C   0  0  0  0  0  0  0  0  0  0  0  0
   48.2220   32.7120   41.9950 C   0  0  0  0  0  0  0  0  0  0  0  0
   49.5440   32.3160   42.0250 C   0  0  0  0  0  0  0  0  0  0  0  0
   50.4390   33.3270   42.2800 C   0  0  0  0  0  0  0  0  0  0  0  0
   50.1600   34.6690   42.5040 C   0  0  0  0  0  0  0  0  0  0  0  0
   48.8370   34.9760   42.4580 N   0  0  0  0  0  0  0  0  0  0  0  0
   47.4450   31.9960   41.8030 H   0  0  0  0  0  0  0  0  0  0  0  0
   49.8660   31.3170   41.8670 H   0  0  0  0  0  0  0  0  0  0  0  0
   51.4990   33.0620   42.3140 H   0  0  0  0  0  0  0  0  0  0  0  0
   50.9330   35.3930   42.6970 H   0  0  0  0  0  0  0  0  0  0  0  0
   41.5810   35.5730   38.2300 S   0  0  0  0  0  0  0  0  0  0  0  0
   40.9550   36.9480   36.2140 C   0  0  0  0  0  3  0  0  0  0  0  0
   40.9750   37.0600   37.6040 C   0  0  0  0  0  0  0  0  0  0  0  0
   40.5550   38.2650   38.0470 C   0  0  0  0  0  0  0  0  0  0  0  0
   40.5960   38.3630   39.1140 H   0  0  0  0  0  0  0  0  0  0  0  0
   40.1330   39.3310   37.3280 C   0  0  0  0  0  0  0  0  0  0  0  0
   39.7040   40.5480   37.6960 N   0  0  0  0  0  0  0  0  0  0  0  0
   39.4270   41.1610   36.5170 C   0  0  0  0  0  0  0  0  0  0  0  0
   39.0510   42.1890   36.5070 H   0  0  0  0  0  0  0  0  0  0  0  0
   39.6740   40.3610   35.4780 N   0  0  0  0  0  0  0  0  0  0  0  0
   40.1280   39.1800   35.9630 C   0  0  0  0  0  0  0  0  0  0  0  0
   40.5370   37.9900   35.3830 C   0  0  0  0  0  3  0  0  0  0  0  0
   39.6070   40.9320   38.6690 H   0  0  0  0  0  0  0  0  0  0  0  0
  1  2  1  0  0  0  0
  1 14  1  0  0  0  0
  2  3  1  0  0  0  0
  2  8  1  0  0  0  0
  3 10  1  0  0  0  0
  3  9  1  0  0  0  0
  4 12  1  0  0  0  0
  4  3  1  0  0  0  0
  5  6  2  0  0  0  0
  5  4  1  0  0  0  0
  6  1  1  0  0  0  0
  7  2  1  0  0  0  0
 11  4  1  0  0  0  0
 13  5  1  0  0  0  0
 14 15  1  0  0  0  0
 16 14  1  0  0  0  0
 17 14  1  0  0  0  0
 17 18  1  0  0  0  0
 17 20  1  0  0  0  0
 19 17  1  0  0  0  0
 20 21  1  0  0  0  0
 21 26  1  0  0  0  0
 21 22  2  0  0  0  0
 22 27  1  0  0  0  0
 23 22  1  0  0  0  0
 24 28  1  0  0  0  0
 24 23  2  0  0  0  0
 25 20  2  0  0  0  0
 25 24  1  0  0  0  0
 28 33  1  0  0  0  0
 29 30  1  0  0  0  0
 29 28  2  0  0  0  0
 30 31  2  0  0  0  0
 31 36  1  0  0  0  0
 31 32  1  0  0  0  0
 32 37  1  0  0  0  0
 33 32  2  0  0  0  0
 34 29  1  0  0  0  0
 35 30  1  0  0  0  0
 38  6  1  0  0  0  0
 39 40  1  0  0  0  0
 40 41  2  0  0  0  0
 40 38  1  0  0  0  0
 41 42  1  0  0  0  0
 43 44  1  0  0  0  0
 43 41  1  0  0  0  0
 44 50  1  0  0  0  0
 45 44  1  0  0  0  0
 46 45  1  0  0  0  0
 47 48  1  0  0  0  0
 47 45  2  0  0  0  0
 48 43  2  0  0  0  0
 49 48  1  0  0  0  0
 49 39  2  0  0  0  0
M  END
>  <minimizedAffinity>
-2.79032969

>  <minimizedRMSD>
0.804534256

$$$$
