
 OpenBabel03252500283D

 46 49  0  0  1  0  0  0  0  0999 V2000
   47.0540   33.2400   46.5380 O   0  0  0  0  0  0  0  0  0  0  0  0
   45.5940   32.9640   46.4640 P   0  0  1  0  0  0  0  0  0  0  0  0
   45.2990   31.8490   45.2240 O   0  0  0  0  0  0  0  0  0  0  0  0
   45.8620   32.0410   44.4270 H   0  0  0  0  0  0  0  0  0  0  0  0
   45.1470   32.3170   47.9140 O   0  0  0  0  0  0  0  0  0  0  0  0
   47.1130   30.9640   47.9830 C   0  0  2  0  0  0  0  0  0  0  0  0
   45.6340   31.0410   48.0380 C   0  0  2  0  0  0  0  0  0  0  0  0
   45.1430   30.1390   47.0180 C   0  0  0  0  0  0  0  0  0  0  0  0
   46.1380   29.1910   46.7380 O   0  0  0  0  0  0  0  0  0  0  0  0
   47.1400   29.4270   47.6170 C   0  0  0  0  0  0  0  0  0  0  0  0
   47.6190   31.2770   47.0550 H   0  0  0  0  0  0  0  0  0  0  0  0
   45.4130   30.7870   49.1140 H   0  0  0  0  0  0  0  0  0  0  0  0
   44.4470   30.3810   46.2460 H   0  0  0  0  0  0  0  0  0  0  0  0
   44.4530   29.4360   47.6100 H   0  0  0  0  0  0  0  0  0  0  0  0
   46.8450   28.9700   48.6010 H   0  0  0  0  0  0  0  0  0  0  0  0
   48.1480   29.1170   47.3540 H   0  0  0  0  0  0  0  0  0  0  0  0
   47.7830   31.1140   49.1370 O   0  0  0  0  0  0  0  0  0  0  0  0
   49.0510   31.3850   49.2590 C   0  0  0  0  0  0  0  0  0  0  0  0
   49.3950   32.3810   49.2570 H   0  0  0  0  0  0  0  0  0  0  0  0
   49.5590   31.0380   48.2020 H   0  0  0  0  0  0  0  0  0  0  0  0
   49.6590   30.4110   50.2570 C   0  0  0  0  0  0  0  0  0  0  0  0
   49.0810   29.4790   50.3060 H   0  0  0  0  0  0  0  0  0  0  0  0
   49.7600   30.8830   51.2630 H   0  0  0  0  0  0  0  0  0  0  0  0
   50.6970   30.1720   49.9400 H   0  0  0  0  0  0  0  0  0  0  0  0
   44.8460   34.4640   46.1500 O   0  0  0  0  0  0  0  0  0  0  0  0
   45.3340   36.7760   43.4480 C   0  0  0  0  0  0  0  0  0  0  0  0
   44.6860   36.1630   42.3500 C   0  0  0  0  0  0  0  0  0  0  0  0
   44.0770   34.9140   42.6030 C   0  0  0  0  0  0  0  0  0  0  0  0
   44.1460   34.3900   43.8430 N   0  0  0  0  0  0  0  0  0  0  0  0
   44.7720   35.0080   44.8560 C   0  0  0  0  0  0  0  0  0  0  0  0
   45.3580   36.1920   44.6450 N   0  0  0  0  0  0  0  0  0  0  0  0
   44.6540   36.6160   41.3720 H   0  0  0  0  0  0  0  0  0  0  0  0
   43.5830   34.4410   41.7780 H   0  0  0  0  0  0  0  0  0  0  0  0
   45.9400   37.9840   43.2560 O   0  0  0  0  0  0  0  0  0  0  0  0
   45.2630   40.2950   43.0640 C   0  0  0  0  0  3  0  0  0  0  0  0
   45.4990   39.1640   43.8270 C   0  0  0  0  0  0  0  0  0  0  0  0
   45.3230   39.0930   45.2030 C   0  0  0  0  0  0  0  0  0  0  0  0
   45.5090   38.2130   45.7780 H   0  0  0  0  0  0  0  0  0  0  0  0
   44.8800   40.2390   45.8520 C   0  0  0  0  0  0  0  0  0  0  0  0
   44.6170   40.4850   47.1610 N   0  0  0  0  0  0  0  0  0  0  0  0
   44.2150   41.7720   47.2370 C   0  0  0  0  0  0  0  0  0  0  0  0
   43.9300   42.2760   48.1510 H   0  0  0  0  0  0  0  0  0  0  0  0
   44.2210   42.3260   46.0150 N   0  0  0  0  0  0  0  0  0  0  0  0
   44.6320   41.3910   45.1350 C   0  0  0  0  0  0  0  0  0  0  0  0
   44.8210   41.4220   43.7550 C   0  0  0  0  0  3  0  0  0  0  0  0
   44.7300   39.7670   47.8980 H   0  0  0  0  0  0  0  0  0  0  0  0
  2  1  2  1  0  0  0
  2  5  1  0  0  0  0
  3  2  1  0  0  0  0
  4  3  1  0  0  0  0
  5  7  1  0  0  0  0
  6 11  1  6  0  0  0
  6  7  1  0  0  0  0
  6 17  1  0  0  0  0
  7 12  1  1  0  0  0
  8 14  1  0  0  0  0
  8  7  1  0  0  0  0
  9  8  1  0  0  0  0
  9 10  1  0  0  0  0
 10  6  1  0  0  0  0
 10 15  1  0  0  0  0
 13  8  1  0  0  0  0
 16 10  1  0  0  0  0
 17 18  1  0  0  0  0
 18 21  1  0  0  0  0
 19 18  1  0  0  0  0
 20 18  1  0  0  0  0
 21 22  1  0  0  0  0
 21 23  1  0  0  0  0
 24 21  1  0  0  0  0
 25  2  1  0  0  0  0
 26 31  1  0  0  0  0
 27 28  1  0  0  0  0
 27 26  2  0  0  0  0
 28 29  2  0  0  0  0
 29 30  1  0  0  0  0
 30 25  1  0  0  0  0
 31 30  2  0  0  0  0
 32 27  1  0  0  0  0
 33 28  1  0  0  0  0
 34 26  1  0  0  0  0
 34 36  1  0  0  0  0
 35 45  2  0  0  0  0
 35 36  1  0  0  0  0
 36 37  2  0  0  0  0
 37 38  1  0  0  0  0
 37 39  1  0  0  0  0
 39 40  1  0  0  0  0
 40 41  1  0  0  0  0
 40 46  1  0  0  0  0
 41 42  1  0  0  0  0
 43 41  2  0  0  0  0
 44 39  2  0  0  0  0
 44 43  1  0  0  0  0
 45 44  1  0  0  0  0
M  END
>  <minimizedAffinity>
-2.24458385

>  <minimizedRMSD>
1.18404102

$$$$
