
 OpenBabel03242519473D

 41 44  0  0  1  0  0  0  0  0999 V2000
   46.6420   32.8930   46.7500 C   0  0  2  0  0  0  0  0  0  0  0  0
   47.0750   32.7730   45.3440 C   0  0  1  0  0  0  0  0  0  0  0  0
   46.6360   31.4300   44.9510 O   0  0  0  0  0  0  0  0  0  0  0  0
   47.2930   30.7560   46.0080 C   0  0  0  0  0  0  0  0  0  0  0  0
   46.6040   31.4450   47.2150 C   0  0  2  0  0  0  0  0  0  0  0  0
   47.3000   33.5050   47.3910 H   0  0  0  0  0  0  0  0  0  0  0  0
   48.1580   32.7190   45.1910 H   0  0  0  0  0  0  0  0  0  0  0  0
   47.2330   29.6970   45.9990 H   0  0  0  0  0  0  0  0  0  0  0  0
   48.3610   31.0930   45.9700 H   0  0  0  0  0  0  0  0  0  0  0  0
   47.2530   31.2170   48.0900 H   0  0  0  0  0  0  0  0  0  0  0  0
   44.7220   35.2250   44.0130 C   0  0  0  0  0  0  0  0  0  0  0  0
   45.3270   35.6670   42.8370 C   0  0  0  0  0  0  0  0  0  0  0  0
   46.5730   35.1160   42.4750 C   0  0  0  0  0  0  0  0  0  0  0  0
   47.1410   34.1670   43.2910 N   0  0  0  0  0  0  0  0  0  0  0  0
   46.5220   33.7670   44.4220 C   0  0  0  0  0  0  0  0  0  0  0  0
   45.3210   34.2820   44.7940 N   0  0  0  0  0  0  0  0  0  0  0  0
   44.8520   36.4070   42.2310 H   0  0  0  0  0  0  0  0  0  0  0  0
   47.0710   35.4360   41.5680 H   0  0  0  0  0  0  0  0  0  0  0  0
   43.4850   35.7330   44.4270 O   0  0  0  0  0  0  0  0  0  0  0  0
   42.8890   36.0630   43.6690 H   0  0  0  0  0  0  0  0  0  0  0  0
   45.2990   33.4040   46.7920 O   0  0  0  0  0  0  0  0  0  0  0  0
   45.0720   33.3880   47.7550 H   0  0  0  0  0  0  0  0  0  0  0  0
   45.3310   30.9690   47.2780 O   0  0  0  0  0  0  0  0  0  0  0  0
   45.0960   29.9010   48.1050 C   0  0  0  0  0  0  0  0  0  0  0  0
   45.3160   30.1440   49.1400 H   0  0  0  0  0  0  0  0  0  0  0  0
   43.9000   29.9150   48.1800 H   0  0  0  0  0  0  0  0  0  0  0  0
   45.4690   28.5680   47.6030 C   0  0  0  0  0  0  0  0  0  0  0  0
   46.2970   28.5610   46.8650 H   0  0  0  0  0  0  0  0  0  0  0  0
   45.6960   27.8990   48.4700 H   0  0  0  0  0  0  0  0  0  0  0  0
   43.7450   26.7180   46.9480 C   0  0  0  0  0  3  0  0  0  0  0  0
   44.3160   27.9660   46.8820 C   0  0  0  0  0  0  0  0  0  0  0  0
   43.6780   28.8000   45.9500 C   0  0  0  0  0  0  0  0  0  0  0  0
   44.0350   29.8140   45.8040 H   0  0  0  0  0  0  0  0  0  0  0  0
   42.5980   28.4540   45.1660 C   0  0  0  0  0  0  0  0  0  0  0  0
   41.8810   29.1170   44.2430 N   0  0  0  0  0  0  0  0  0  0  0  0
   40.9290   28.2880   43.7880 C   0  0  0  0  0  0  0  0  0  0  0  0
   40.1730   28.4930   43.0380 H   0  0  0  0  0  0  0  0  0  0  0  0
   41.0560   27.0950   44.4370 N   0  0  0  0  0  0  0  0  0  0  0  0
   42.0880   27.1880   45.2930 C   0  0  0  0  0  0  0  0  0  0  0  0
   42.6690   26.3200   46.1900 C   0  0  0  0  0  3  0  0  0  0  0  0
   42.0380   30.0900   43.9410 H   0  0  0  0  0  0  0  0  0  0  0  0
  1 21  1  0  0  0  0
  1  5  1  0  0  0  0
  1  6  1  1  0  0  0
  2  7  1  6  0  0  0
  2  1  1  0  0  0  0
  3  2  1  0  0  0  0
  3  4  1  0  0  0  0
  4  5  1  0  0  0  0
  5 23  1  0  0  0  0
  5 10  1  1  0  0  0
  8  4  1  0  0  0  0
  9  4  1  0  0  0  0
 11 19  1  0  0  0  0
 11 16  1  0  0  0  0
 12 11  2  0  0  0  0
 13 12  1  0  0  0  0
 13 14  2  0  0  0  0
 14 15  1  0  0  0  0
 15 16  2  0  0  0  0
 15  2  1  0  0  0  0
 17 12  1  0  0  0  0
 18 13  1  0  0  0  0
 20 19  1  0  0  0  0
 21 22  1  0  0  0  0
 23 24  1  0  0  0  0
 24 26  1  0  0  0  0
 24 25  1  0  0  0  0
 27 24  1  0  0  0  0
 27 29  1  0  0  0  0
 28 27  1  0  0  0  0
 31 30  1  0  0  0  0
 31 27  1  0  0  0  0
 32 31  2  0  0  0  0
 33 32  1  0  0  0  0
 34 39  2  0  0  0  0
 34 32  1  0  0  0  0
 35 34  1  0  0  0  0
 36 35  1  0  0  0  0
 36 38  2  0  0  0  0
 37 36  1  0  0  0  0
 38 39  1  0  0  0  0
 39 40  1  0  0  0  0
 40 30  2  0  0  0  0
 41 35  1  0  0  0  0
M  END
>  <minimizedAffinity>
-6.04499626

>  <minimizedRMSD>
0.64785558

$$$$
