
 OpenBabel03252507323D

 52 56  0  0  1  0  0  0  0  0999 V2000
   46.9740   32.7410   45.5120 C   0  0  0  0  0  0  0  0  0  0  0  0
   45.8720   33.3920   46.0430 C   0  0  0  0  0  0  0  0  0  0  0  0
   45.1940   34.3640   45.2690 C   0  0  0  0  0  0  0  0  0  0  0  0
   45.7020   34.6030   43.9940 N   0  0  0  0  0  0  0  0  0  0  0  0
   46.7700   33.9410   43.5440 C   0  0  0  0  0  0  0  0  0  0  0  0
   47.3960   33.0260   44.2870 N   0  0  0  0  0  0  0  0  0  0  0  0
   45.3500   33.3940   46.9770 H   0  0  0  0  0  0  0  0  0  0  0  0
   44.3380   34.9520   45.5170 H   0  0  0  0  0  0  0  0  0  0  0  0
   47.6190   31.7390   46.3360 C   0  0  2  0  0  0  0  0  0  0  0  0
   47.3590   30.3000   45.7920 C   0  0  0  0  0  0  0  0  0  0  0  0
   48.1730   29.3250   46.5730 C   0  0  0  0  0  0  0  0  0  0  0  0
   48.1740   29.5090   48.0540 C   0  0  0  0  0  0  0  0  0  0  0  0
   48.1830   30.8860   48.4840 C   0  0  0  0  0  0  0  0  0  0  0  0
   47.1870   31.7840   47.7190 C   0  0  2  0  0  0  0  0  0  0  0  0
   48.7260   31.8260   46.2080 H   0  0  0  0  0  0  0  0  0  0  0  0
   46.2840   30.0880   45.7490 H   0  0  0  0  0  0  0  0  0  0  0  0
   47.7150   30.3520   44.7440 H   0  0  0  0  0  0  0  0  0  0  0  0
   49.1630   29.2840   46.0780 H   0  0  0  0  0  0  0  0  0  0  0  0
   47.7230   28.3060   46.3880 H   0  0  0  0  0  0  0  0  0  0  0  0
   47.8010   28.6950   48.6760 H   0  0  0  0  0  0  0  0  0  0  0  0
   49.2870   29.2420   48.2660 H   0  0  0  0  0  0  0  0  0  0  0  0
   49.1430   31.4570   48.4400 H   0  0  0  0  0  0  0  0  0  0  0  0
   47.8700   30.9480   49.5590 H   0  0  0  0  0  0  0  0  0  0  0  0
   47.3140   32.7320   48.2430 H   0  0  0  0  0  0  0  0  0  0  0  0
   45.8470   31.2080   47.8440 N   0  0  0  0  0  0  0  0  0  0  0  0
   45.1610   30.6780   48.9490 C   0  0  0  0  0  0  0  0  0  0  0  0
   44.6220   31.4100   49.8560 O   0  0  0  0  0  0  0  0  0  0  0  0
   45.0990   29.2520   48.9850 N   0  0  0  0  0  0  0  0  0  0  0  0
   45.2030   31.0610   46.9780 H   0  0  0  0  0  0  0  0  0  0  0  0
   44.8010   28.5750   48.2790 H   0  0  0  0  0  0  0  0  0  0  0  0
   45.3970   28.7560   49.8530 H   0  0  0  0  0  0  0  0  0  0  0  0
   47.2670   34.2540   42.1990 C   0  0  0  0  0  0  0  0  0  0  0  0
   48.3040   35.1400   42.0130 C   0  0  0  0  0  0  0  0  0  0  0  0
   48.8230   35.4830   40.7840 C   0  0  0  0  0  0  0  0  0  0  0  0
   48.2240   34.8650   39.7090 C   0  0  0  0  0  0  0  0  0  0  0  0
   47.1890   33.9780   39.8770 C   0  0  0  0  0  0  0  0  0  0  0  0
   46.7100   33.6720   41.1240 N   0  0  0  0  0  0  0  0  0  0  0  0
   48.7240   35.5860   42.9100 H   0  0  0  0  0  0  0  0  0  0  0  0
   49.6270   36.1730   40.6750 H   0  0  0  0  0  0  0  0  0  0  0  0
   48.5950   35.0990   38.7230 H   0  0  0  0  0  0  0  0  0  0  0  0
   47.1400   33.2880   37.5250 C   0  0  0  0  0  3  0  0  0  0  0  0
   46.5330   33.3070   38.7620 C   0  0  0  0  0  0  0  0  0  0  0  0
   45.3230   32.6730   38.8410 C   0  0  0  0  0  0  0  0  0  0  0  0
   44.8000   32.6500   39.7710 H   0  0  0  0  0  0  0  0  0  0  0  0
   44.7050   32.0380   37.7840 C   0  0  0  0  0  0  0  0  0  0  0  0
   43.5270   31.3690   37.6770 N   0  0  0  0  0  0  0  0  0  0  0  0
   43.4070   30.9480   36.4160 C   0  0  0  0  0  0  0  0  0  0  0  0
   42.5340   30.3830   36.0950 H   0  0  0  0  0  0  0  0  0  0  0  0
   44.5060   31.3480   35.7160 N   0  0  0  0  0  0  0  0  0  0  0  0
   45.3300   32.0280   36.5430 C   0  0  0  0  0  0  0  0  0  0  0  0
   46.5500   32.6570   36.4270 C   0  0  0  0  0  3  0  0  0  0  0  0
   42.8560   31.2250   38.4630 H   0  0  0  0  0  0  0  0  0  0  0  0
  1  2  1  0  0  0  0
  1  9  1  0  0  0  0
  2  7  1  0  0  0  0
  3  8  1  0  0  0  0
  3  2  2  0  0  0  0
  4  3  1  0  0  0  0
  5  4  2  0  0  0  0
  5  6  1  0  0  0  0
  6  1  2  0  0  0  0
  9 15  1  6  0  0  0
  9 14  1  0  0  0  0
 10  9  1  0  0  0  0
 10 11  1  0  0  0  0
 11 12  1  0  0  0  0
 12 21  1  0  0  0  0
 12 13  1  0  0  0  0
 12 20  1  0  0  0  0
 13 23  1  0  0  0  0
 14 25  1  0  0  0  0
 14 24  1  1  0  0  0
 14 13  1  0  0  0  0
 16 10  1  0  0  0  0
 17 10  1  0  0  0  0
 18 11  1  0  0  0  0
 19 11  1  0  0  0  0
 22 13  1  0  0  0  0
 25 26  1  0  0  0  0
 26 28  1  0  0  0  0
 26 27  2  0  0  0  0
 28 31  1  0  0  0  0
 29 25  1  0  0  0  0
 30 28  1  0  0  0  0
 32  5  1  0  0  0  0
 33 32  1  0  0  0  0
 33 38  1  0  0  0  0
 34 33  2  0  0  0  0
 35 36  2  0  0  0  0
 35 34  1  0  0  0  0
 36 37  1  0  0  0  0
 37 32  2  0  0  0  0
 39 34  1  0  0  0  0
 40 35  1  0  0  0  0
 41 42  1  0  0  0  0
 42 43  2  0  0  0  0
 42 36  1  0  0  0  0
 43 44  1  0  0  0  0
 45 43  1  0  0  0  0
 46 45  1  0  0  0  0
 46 52  1  0  0  0  0
 47 46  1  0  0  0  0
 48 47  1  0  0  0  0
 49 47  2  0  0  0  0
 49 50  1  0  0  0  0
 50 45  2  0  0  0  0
 51 50  1  0  0  0  0
 51 41  2  0  0  0  0
M  END
>  <minimizedAffinity>
-6.79833412

>  <minimizedRMSD>
0.456258714

$$$$
