REMARK  Name = 
REMARK  10 active torsions:
REMARK  status: ('A' for Active; 'I' for Inactive)
REMARK    1  A    between atoms: C_1  and  O_12
REMARK    2  A    between atoms: C_2  and  C_3
REMARK    3  A    between atoms: C_3  and  O_4
REMARK    4  A    between atoms: O_4  and  P_6
REMARK    5  A    between atoms: P_6  and  O_7
REMARK    6  A    between atoms: P_6  and  O_8
REMARK    7  A    between atoms: O_8  and  C_9
REMARK    8  A    between atoms: O_12  and  C_13
REMARK    9  A    between atoms: C_13  and  C_15
REMARK   10  A    between atoms: C_18  and  C_35
REMARK                            x       y       z     vdW  Elec       q    Type
REMARK                         _______ _______ _______ _____ _____    ______ ____
ROOT
ATOM      1  C   UNL     1      41.439  35.662  41.217  0.00  0.00    +0.000 C 
ATOM      2  H   UNL     1      41.067  36.629  40.715  0.00  0.00    +0.000 HD
ATOM      3  H   UNL     1      41.379  35.838  42.282  0.00  0.00    +0.000 HD
ENDROOT
BRANCH   1   5
ATOM      4  C   UNL     1      40.287  33.540  41.584  0.00  0.00    +0.000 A 
ATOM      5  C   UNL     1      40.315  34.723  40.859  0.00  0.00    +0.000 A 
ATOM      6  C   UNL     1      39.347  34.940  39.925  0.00  0.00    +0.000 A 
ATOM      7  N   UNL     1      38.435  33.979  39.782  0.00  0.00    +0.000 NA
ATOM      8  C   UNL     1      38.393  32.852  40.461  0.00  0.00    +0.000 A 
ATOM      9  N   UNL     1      39.366  32.593  41.425  0.00  0.00    +0.000 NA
ATOM     10  H   UNL     1      41.011  33.277  42.345  0.00  0.00    +0.000 HD
ATOM     11  H   UNL     1      39.413  35.870  39.391  0.00  0.00    +0.000 HD
BRANCH   8  13
ATOM     12  C   UNL     1      36.176  31.882  40.958  0.00  0.00    +0.000 A 
ATOM     13  C   UNL     1      37.355  31.849  40.242  0.00  0.00    +0.000 A 
ATOM     14  C   UNL     1      37.628  30.886  39.291  0.00  0.00    +0.000 A 
ATOM     15  H   UNL     1      38.556  30.871  38.737  0.00  0.00    +0.000 HD
ATOM     16  C   UNL     1      36.679  29.915  39.047  0.00  0.00    +0.000 A 
ATOM     17  N   UNL     1      36.664  28.865  38.192  0.00  0.00    +0.000 N 
ATOM     18  C   UNL     1      35.480  28.225  38.357  0.00  0.00    +0.000 A 
ATOM     19  H   UNL     1      35.090  27.344  37.860  0.00  0.00    +0.000 HD
ATOM     20  N   UNL     1      34.764  28.863  39.300  0.00  0.00    +0.000 NA
ATOM     21  C   UNL     1      35.481  29.930  39.758  0.00  0.00    +0.000 A 
ATOM     22  C   UNL     1      35.233  30.907  40.706  0.00  0.00    +0.000 A 
ATOM     23  H   UNL     1      37.405  28.565  37.513  0.00  0.00    +0.000 HD
ENDBRANCH   8  13
ENDBRANCH   1   5
BRANCH   1  24
ATOM     24  O   UNL     1      42.620  35.363  40.621  0.00  0.00    +0.000 OA
BRANCH  24  25
ATOM     25  C   UNL     1      43.876  35.209  41.184  0.00  0.00    +0.000 C 
ATOM     26  C   UNL     1      43.964  35.587  42.472  0.00  0.00    +0.000 C 
BRANCH  26  27
ATOM     27  C   UNL     1      45.223  35.523  43.304  0.00  0.00    +0.000 C 
ATOM     28  H   UNL     1      45.550  36.532  43.605  0.00  0.00    +0.000 HD
ATOM     29  H   UNL     1      46.009  35.126  42.639  0.00  0.00    +0.000 HD
BRANCH  27  30
ATOM     30  O   UNL     1      45.006  34.656  44.346  0.00  0.00    +0.000 OA
BRANCH  30  32
ATOM     31  O   UNL     1      45.705  32.497  42.952  0.00  0.00    +0.000 OA
ATOM     32  P   UNL     1      46.001  33.301  44.197  0.00  0.00    +0.000 P 
BRANCH  32  33
ATOM     33  O   UNL     1      47.632  33.792  44.100  0.00  0.00    +0.000 OA
ATOM     34  H   UNL     1      47.736  34.600  44.672  0.00  0.00    +0.000 HD
ENDBRANCH  32  33
BRANCH  32  35
ATOM     35  O   UNL     1      45.861  32.327  45.564  0.00  0.00    +0.000 OA
BRANCH  35  36
ATOM     36  C   UNL     1      46.198  32.990  46.725  0.00  0.00    +0.000 C 
ATOM     37  C   UNL     1      47.054  32.297  47.740  0.00  0.00    +0.000 C 
ATOM     38  C   UNL     1      45.565  32.456  47.986  0.00  0.00    +0.000 C 
ATOM     39  H   UNL     1      46.272  34.087  46.636  0.00  0.00    +0.000 HD
ATOM     40  H   UNL     1      47.743  32.964  48.296  0.00  0.00    +0.000 HD
ATOM     41  H   UNL     1      47.398  31.294  47.492  0.00  0.00    +0.000 HD
ATOM     42  H   UNL     1      44.964  31.532  47.943  0.00  0.00    +0.000 HD
ATOM     43  H   UNL     1      45.286  33.151  48.800  0.00  0.00    +0.000 HD
ENDBRANCH  35  36
ENDBRANCH  32  35
ENDBRANCH  30  32
ENDBRANCH  27  30
ENDBRANCH  26  27
ENDBRANCH  24  25
ENDBRANCH   1  24
TORSDOF 10
