REMARK  Name = 
REMARK  8 active torsions:
REMARK  status: ('A' for Active; 'I' for Inactive)
REMARK    1  A    between atoms: N_1  and  C_7
REMARK    2  A    between atoms: C_6  and  O_15
REMARK    3  A    between atoms: C_7  and  C_8
REMARK    4  A    between atoms: C_8  and  C_11
REMARK    5  A    between atoms: O_15  and  P_17
REMARK    6  A    between atoms: P_17  and  O_18
REMARK    7  A    between atoms: P_17  and  O_19
REMARK    8  A    between atoms: O_19  and  C_38
REMARK                            x       y       z     vdW  Elec       q    Type
REMARK                         _______ _______ _______ _____ _____    ______ ____
ROOT
ATOM      1  N   UNL     1      47.173  34.156  43.085  0.00  0.00    +0.000 NA
ATOM      2  C   UNL     1      46.660  35.354  42.526  0.00  0.00    +0.000 C 
ATOM      3  C   UNL     1      45.188  35.594  42.743  0.00  0.00    +0.000 C 
ATOM      4  C   UNL     1      44.651  35.049  44.040  0.00  0.00    +0.000 C 
ATOM      5  C   UNL     1      45.749  34.467  44.898  0.00  0.00    +0.000 C 
ATOM      6  C   UNL     1      46.409  33.394  43.956  0.00  0.00    +0.000 C 
ATOM      7  H   UNL     1      46.867  35.521  41.467  0.00  0.00    +0.000 HD
ATOM      8  H   UNL     1      47.183  36.197  43.069  0.00  0.00    +0.000 HD
ATOM      9  H   UNL     1      45.012  36.706  42.675  0.00  0.00    +0.000 HD
ATOM     10  H   UNL     1      44.627  35.150  41.887  0.00  0.00    +0.000 HD
ATOM     11  H   UNL     1      44.182  35.868  44.626  0.00  0.00    +0.000 HD
ATOM     12  H   UNL     1      43.903  34.268  43.855  0.00  0.00    +0.000 HD
ATOM     13  H   UNL     1      45.312  33.924  45.742  0.00  0.00    +0.000 HD
ATOM     14  H   UNL     1      46.521  35.190  45.166  0.00  0.00    +0.000 HD
ATOM     15  H   UNL     1      45.573  32.789  43.531  0.00  0.00    +0.000 HD
ENDROOT
BRANCH   1  16
ATOM     16  C   UNL     1      48.151  33.499  42.269  0.00  0.00    +0.000 C 
ATOM     17  H   UNL     1      48.744  32.795  42.907  0.00  0.00    +0.000 HD
ATOM     18  H   UNL     1      48.841  34.231  41.844  0.00  0.00    +0.000 HD
BRANCH  16  19
ATOM     19  C   UNL     1      47.444  32.651  41.255  0.00  0.00    +0.000 C 
ATOM     20  H   UNL     1      46.365  32.916  41.209  0.00  0.00    +0.000 HD
ATOM     21  H   UNL     1      47.498  31.564  41.449  0.00  0.00    +0.000 HD
BRANCH  19  24
ATOM     22  C   UNL     1      49.329  32.279  38.028  0.00  0.00    +0.000 A 
ATOM     23  C   UNL     1      48.803  32.017  39.306  0.00  0.00    +0.000 A 
ATOM     24  C   UNL     1      47.990  32.946  39.905  0.00  0.00    +0.000 A 
ATOM     25  N   UNL     1      47.734  34.074  39.231  0.00  0.00    +0.000 NA
ATOM     26  C   UNL     1      48.235  34.327  38.011  0.00  0.00    +0.000 A 
ATOM     27  N   UNL     1      49.033  33.439  37.398  0.00  0.00    +0.000 NA
ATOM     28  H   UNL     1      49.973  31.583  37.512  0.00  0.00    +0.000 HD
ATOM     29  H   UNL     1      49.049  31.098  39.784  0.00  0.00    +0.000 HD
ATOM     30  H   UNL     1      47.958  35.275  37.564  0.00  0.00    +0.000 HD
ENDBRANCH  19  24
ENDBRANCH  16  19
ENDBRANCH   1  16
BRANCH   6  31
ATOM     31  O   UNL     1      47.202  32.691  44.855  0.00  0.00    +0.000 OA
BRANCH  31  33
ATOM     32  O   UNL     1      46.002  30.541  43.870  0.00  0.00    +0.000 OA
ATOM     33  P   UNL     1      46.654  31.118  45.111  0.00  0.00    +0.000 P 
BRANCH  33  34
ATOM     34  O   UNL     1      45.394  31.240  46.265  0.00  0.00    +0.000 OA
ATOM     35  H   UNL     1      45.755  31.040  47.164  0.00  0.00    +0.000 HD
ENDBRANCH  33  34
BRANCH  33  36
ATOM     36  O   UNL     1      47.853  30.151  45.746  0.00  0.00    +0.000 OA
BRANCH  36  38
ATOM     37  C   UNL     1      48.981  28.199  46.446  0.00  0.00    +0.000 A 
ATOM     38  C   UNL     1      47.861  28.788  45.850  0.00  0.00    +0.000 A 
ATOM     39  C   UNL     1      46.846  27.961  45.409  0.00  0.00    +0.000 A 
ATOM     40  H   UNL     1      45.968  28.413  44.942  0.00  0.00    +0.000 HD
ATOM     41  C   UNL     1      46.964  26.577  45.568  0.00  0.00    +0.000 A 
ATOM     42  N   UNL     1      46.110  25.578  45.219  0.00  0.00    +0.000 N 
ATOM     43  C   UNL     1      46.636  24.385  45.566  0.00  0.00    +0.000 A 
ATOM     44  H   UNL     1      46.154  23.431  45.398  0.00  0.00    +0.000 HD
ATOM     45  N   UNL     1      47.832  24.647  46.138  0.00  0.00    +0.000 NA
ATOM     46  C   UNL     1      48.063  25.984  46.154  0.00  0.00    +0.000 A 
ATOM     47  C   UNL     1      49.070  26.820  46.591  0.00  0.00    +0.000 A 
ATOM     48  H   UNL     1      45.193  25.753  44.754  0.00  0.00    +0.000 HD
ENDBRANCH  36  38
ENDBRANCH  33  36
ENDBRANCH  31  33
ENDBRANCH   6  31
TORSDOF 8
