
     RDKit          3D

 52 56  0  0  0  0  0  0  0  0999 V2000
   43.2053   33.2266   41.1452 C   0  0  0  0  0  0  0  0  0  0  0  0
   44.2341   34.0727   41.7746 C   0  0  0  0  0  0  0  0  0  0  0  0
   43.8809   35.2453   42.4017 C   0  0  0  0  0  0  0  0  0  0  0  0
   44.8841   36.0191   42.9718 C   0  0  0  0  0  0  0  0  0  0  0  0
   46.1705   35.5706   42.8801 N   0  0  0  0  0  0  0  0  0  0  0  0
   46.4731   34.4285   42.2668 C   0  0  0  0  0  0  0  0  0  0  0  0
   45.4920   33.7006   41.7232 N   0  0  0  0  0  0  0  0  0  0  0  0
   47.8741   34.0130   42.2535 C   0  0  0  0  0  0  0  0  0  0  0  0
   48.2081   32.6820   42.0167 C   0  0  0  0  0  0  0  0  0  0  0  0
   49.5326   32.2945   42.0229 C   0  0  0  0  0  0  0  0  0  0  0  0
   50.4255   33.3084   42.2733 C   0  0  0  0  0  0  0  0  0  0  0  0
   50.1415   34.6459   42.5141 C   0  0  0  0  0  0  0  0  0  0  0  0
   48.8155   34.9450   42.4907 N   0  0  0  0  0  0  0  0  0  0  0  0
   41.9068   33.9459   41.2043 C   0  0  0  0  0  0  0  0  0  0  0  0
   41.0007   33.5095   40.3242 N   0  0  0  0  0  0  0  0  0  0  0  0
   40.3227   32.2513   40.3366 C   0  0  0  0  0  0  0  0  0  0  0  0
   38.9519   32.7262   40.8106 C   0  0  0  0  0  0  0  0  0  0  0  0
   38.3243   33.6968   39.9319 C   0  0  0  0  0  0  0  0  0  0  0  0
   39.1609   34.5049   39.0728 C   0  0  0  0  0  0  0  0  0  0  0  0
   40.6626   34.4704   39.2497 C   0  0  0  0  0  0  0  0  0  0  0  0
   41.7746   35.4016   38.3304 S   0  0  0  0  0  0  0  0  0  0  0  0
   43.1374   32.2844   41.7348 H   0  0  0  0  0  0  0  0  0  0  0  0
   43.4703   32.9870   40.0794 H   0  0  0  0  0  0  0  0  0  0  0  0
   42.9491   35.7499   42.5914 H   0  0  0  0  0  0  0  0  0  0  0  0
   44.7959   36.9694   43.5032 H   0  0  0  0  0  0  0  0  0  0  0  0
   47.4327   31.9623   41.8302 H   0  0  0  0  0  0  0  0  0  0  0  0
   49.8588   31.2981   41.8504 H   0  0  0  0  0  0  0  0  0  0  0  0
   51.4877   33.0488   42.2882 H   0  0  0  0  0  0  0  0  0  0  0  0
   50.9133   35.3729   42.7016 H   0  0  0  0  0  0  0  0  0  0  0  0
   41.5447   33.9163   42.2548 H   0  0  0  0  0  0  0  0  0  0  0  0
   42.1904   35.0458   41.0614 H   0  0  0  0  0  0  0  0  0  0  0  0
   40.3060   31.6545   39.4426 H   0  0  0  0  0  0  0  0  0  0  0  0
   40.7078   31.6178   41.1563 H   0  0  0  0  0  0  0  0  0  0  0  0
   39.0522   33.0714   41.8660 H   0  0  0  0  0  0  0  0  0  0  0  0
   38.3241   31.7926   40.8926 H   0  0  0  0  0  0  0  0  0  0  0  0
   37.5911   33.1622   39.2584 H   0  0  0  0  0  0  0  0  0  0  0  0
   37.6837   34.3838   40.5470 H   0  0  0  0  0  0  0  0  0  0  0  0
   38.8169   35.1512   38.3301 H   0  0  0  0  0  0  0  0  0  0  0  0
   41.9088   36.7859   36.2281 C   0  0  0  0  0  0  0  0  0  0  0  0
   41.2266   36.7755   37.4450 C   0  0  0  0  0  0  0  0  0  0  0  0
   40.3819   37.8194   37.5891 C   0  0  0  0  0  0  0  0  0  0  0  0
   39.8763   37.8295   38.5348 H   0  0  0  0  0  0  0  0  0  0  0  0
   40.1296   38.8308   36.7262 C   0  0  0  0  0  0  0  0  0  0  0  0
   39.3111   39.8915   36.7998 N   0  0  0  0  0  0  0  0  0  0  0  0
   39.5085   40.5336   35.6204 C   0  0  0  0  0  0  0  0  0  0  0  0
   38.9607   41.4536   35.3979 H   0  0  0  0  0  0  0  0  0  0  0  0
   40.4033   39.8988   34.8613 N   0  0  0  0  0  0  0  0  0  0  0  0
   40.8219   38.8026   35.5400 C   0  0  0  0  0  0  0  0  0  0  0  0
   41.7206   37.7847   35.2696 C   0  0  0  0  0  0  0  0  0  0  0  0
   42.6564   36.1010   35.7939 H   0  0  0  0  0  0  0  0  0  0  0  0
   38.6698   40.1574   37.5885 H   0  0  0  0  0  0  0  0  0  0  0  0
   42.1931   37.8958   34.2922 H   0  0  0  0  0  0  0  0  0  0  0  0
  1 14  1  0
  1  2  1  0
  2  3  2  0
  3  4  1  0
  5  4  2  0
  6  5  1  0
  7  2  1  0
  7  6  2  0
  8  6  1  0
  8 13  1  0
  9  8  2  0
 10  9  1  0
 10 11  2  0
 11 12  1  0
 13 12  2  0
 15 14  1  0
 16 15  1  0
 16 17  1  0
 18 17  1  0
 19 20  2  0
 19 18  1  0
 20 15  1  0
 21 20  1  0
  1 22  1  0
  1 23  1  0
  3 24  1  0
  4 25  1  0
  9 26  1  0
 10 27  1  0
 11 28  1  0
 12 29  1  0
 14 30  1  0
 14 31  1  0
 16 32  1  0
 16 33  1  0
 17 34  1  0
 17 35  1  0
 18 36  1  0
 18 37  1  0
 19 38  1  0
 39 40  2  0
 40 41  1  0
 41 42  1  0
 41 43  2  0
 43 44  1  0
 44 45  1  0
 45 46  1  0
 45 47  2  0
 47 48  1  0
 48 49  2  0
 49 39  1  0
 48 43  1  0
 39 50  1  0
 44 51  1  0
 49 52  1  0
 21 40  1  0
M  ISO  8  22   8  23   8  24  14  25  14  26  14  27  14  28  14  29  14
M  ISO  8  30   8  31   8  32  13  33  13  34  13  35  13  36  13  37  13
M  ISO  3  38  13  42  15  46  14
M  END
>  <DihAtoms>  (1) 
19,20,39,38

>  <DihDeg>  (1) 
-170.58721661025078

$$$$
