
 OpenBabel03252504163D

 38 41  0  0  0  0  0  0  0  0999 V2000
   39.0590   27.5270   40.5250 F   0  0  0  0  0  0  0  0  0  0  0  0
   38.3670   27.7430   41.6950 C   0  0  0  0  0  0  0  0  0  0  0  0
   38.5460   28.9320   42.3780 C   0  0  0  0  0  0  0  0  0  0  0  0
   37.8140   29.0830   43.5550 C   0  0  0  0  0  0  0  0  0  0  0  0
   36.9680   28.0930   43.9940 C   0  0  0  0  0  0  0  0  0  0  0  0
   36.8330   26.9250   43.2620 C   0  0  0  0  0  0  0  0  0  0  0  0
   37.5330   26.7180   42.0890 C   0  0  0  0  0  0  0  0  0  0  0  0
   37.9120   29.9960   44.1370 H   0  0  0  0  0  0  0  0  0  0  0  0
   36.4040   28.2320   44.9160 H   0  0  0  0  0  0  0  0  0  0  0  0
   36.1660   26.1430   43.6080 H   0  0  0  0  0  0  0  0  0  0  0  0
   36.6520   25.6240   40.1540 C   0  0  0  0  0  3  0  0  0  0  0  0
   37.4070   25.4950   41.3010 C   0  0  0  0  0  0  0  0  0  0  0  0
   37.9590   24.2650   41.5950 C   0  0  0  0  0  0  0  0  0  0  0  0
   38.5410   24.2210   42.5060 H   0  0  0  0  0  0  0  0  0  0  0  0
   37.7640   23.1820   40.7630 C   0  0  0  0  0  0  0  0  0  0  0  0
   38.1900   21.9060   40.8330 N   0  0  0  0  0  0  0  0  0  0  0  0
   37.7180   21.2520   39.7650 C   0  0  0  0  0  0  0  0  0  0  0  0
   37.8880   20.2210   39.5430 H   0  0  0  0  0  0  0  0  0  0  0  0
   36.9830   22.0760   38.9820 N   0  0  0  0  0  0  0  0  0  0  0  0
   37.0040   23.2780   39.5910 C   0  0  0  0  0  0  0  0  0  0  0  0
   36.4600   24.5320   39.3230 C   0  0  0  0  0  3  0  0  0  0  0  0
   38.7840   21.5360   41.6080 H   0  0  0  0  0  0  0  0  0  0  0  0
   39.7260   31.8800   40.6060 C   0  0  0  0  0  0  0  0  0  0  0  0
   41.0750   31.9630   40.9390 C   0  0  0  0  0  0  0  0  0  0  0  0
   41.5860   30.9720   41.7990 C   0  0  0  0  0  0  0  0  0  0  0  0
   40.7570   30.0030   42.2520 N   0  0  0  0  0  0  0  0  0  0  0  0
   39.4500   29.9710   41.8950 C   0  0  0  0  0  0  0  0  0  0  0  0
   38.9530   30.9090   41.0770 N   0  0  0  0  0  0  0  0  0  0  0  0
   42.6420   31.0090   42.0800 H   0  0  0  0  0  0  0  0  0  0  0  0
   41.9140   33.0520   40.4020 C   0  0  0  0  0  0  0  0  0  0  0  0
   41.6360   34.2320   41.0600 F   0  0  0  0  0  0  0  0  0  0  0  0
   43.2440   32.7410   40.6940 F   0  0  0  0  0  0  0  0  0  0  0  0
   41.8030   33.2680   39.0680 F   0  0  0  0  0  0  0  0  0  0  0  0
   39.2480   32.8400   39.7770 O   0  0  0  0  0  0  0  0  0  0  0  0
   38.5200   33.9940   40.1520 C   0  0  0  0  0  0  0  0  0  0  0  0
   39.1820   35.0970   39.6100 F   0  0  0  0  0  0  0  0  0  0  0  0
   37.2220   33.8920   39.7200 F   0  0  0  0  0  0  0  0  0  0  0  0
   38.6120   34.1740   41.5170 F   0  0  0  0  0  0  0  0  0  0  0  0
  1  2  1  0  0  0  0
  2  7  2  0  0  0  0
  2  3  1  0  0  0  0
  3  4  2  0  0  0  0
  4  5  1  0  0  0  0
  4  8  1  0  0  0  0
  5  9  1  0  0  0  0
  6 10  1  0  0  0  0
  6  5  2  0  0  0  0
  7  6  1  0  0  0  0
 11 12  1  0  0  0  0
 12 13  2  0  0  0  0
 12  7  1  0  0  0  0
 13 14  1  0  0  0  0
 15 16  1  0  0  0  0
 15 13  1  0  0  0  0
 16 22  1  0  0  0  0
 17 16  1  0  0  0  0
 18 17  1  0  0  0  0
 19 20  1  0  0  0  0
 19 17  2  0  0  0  0
 20 15  2  0  0  0  0
 21 20  1  0  0  0  0
 21 11  2  0  0  0  0
 23 24  2  0  0  0  0
 23 28  1  0  0  0  0
 24 25  1  0  0  0  0
 25 29  1  0  0  0  0
 25 26  2  0  0  0  0
 27 26  1  0  0  0  0
 27  3  1  0  0  0  0
 28 27  2  0  0  0  0
 30 32  1  0  0  0  0
 30 24  1  0  0  0  0
 30 31  1  0  0  0  0
 33 30  1  0  0  0  0
 34 35  1  0  0  0  0
 34 23  1  0  0  0  0
 35 38  1  0  0  0  0
 36 35  1  0  0  0  0
 37 35  1  0  0  0  0
M  END
>  <minimizedAffinity>
-6.89473629

$$$$

 OpenBabel03252504163D

 38 41  0  0  0  0  0  0  0  0999 V2000
   38.3760   27.5370   40.2460 F   0  0  0  0  0  0  0  0  0  0  0  0
   37.8890   27.6400   41.5300 C   0  0  0  0  0  0  0  0  0  0  0  0
   37.9890   28.8460   42.1980 C   0  0  0  0  0  0  0  0  0  0  0  0
   37.4750   28.8770   43.4940 C   0  0  0  0  0  0  0  0  0  0  0  0
   36.9060   27.7600   44.0560 C   0  0  0  0  0  0  0  0  0  0  0  0
   36.8370   26.5820   43.3330 C   0  0  0  0  0  0  0  0  0  0  0  0
   37.3290   26.4900   42.0450 C   0  0  0  0  0  0  0  0  0  0  0  0
   37.5240   29.7970   44.0710 H   0  0  0  0  0  0  0  0  0  0  0  0
   36.5100   27.8060   45.0710 H   0  0  0  0  0  0  0  0  0  0  0  0
   36.3880   25.6990   43.7760 H   0  0  0  0  0  0  0  0  0  0  0  0
   36.4740   25.3300   40.1360 C   0  0  0  0  0  3  0  0  0  0  0  0
   37.2680   25.2580   41.2630 C   0  0  0  0  0  0  0  0  0  0  0  0
   37.9110   24.0710   41.5430 C   0  0  0  0  0  0  0  0  0  0  0  0
   38.5190   24.0700   42.4380 H   0  0  0  0  0  0  0  0  0  0  0  0
   37.7690   22.9740   40.7200 C   0  0  0  0  0  0  0  0  0  0  0  0
   38.2840   21.7300   40.7800 N   0  0  0  0  0  0  0  0  0  0  0  0
   37.8300   21.0420   39.7260 C   0  0  0  0  0  0  0  0  0  0  0  0
   38.0650   20.0240   39.5010 H   0  0  0  0  0  0  0  0  0  0  0  0
   37.0180   21.8100   38.9620 N   0  0  0  0  0  0  0  0  0  0  0  0
   36.9720   23.0120   39.5680 C   0  0  0  0  0  0  0  0  0  0  0  0
   36.3360   24.2250   39.3130 C   0  0  0  0  0  3  0  0  0  0  0  0
   38.9230   21.4050   41.5380 H   0  0  0  0  0  0  0  0  0  0  0  0
   38.5380   31.5840   39.8700 C   0  0  0  0  0  0  0  0  0  0  0  0
   39.6710   32.2280   40.3590 C   0  0  0  0  0  0  0  0  0  0  0  0
   40.2580   31.6980   41.5250 C   0  0  0  0  0  0  0  0  0  0  0  0
   39.7030   30.6090   42.1030 N   0  0  0  0  0  0  0  0  0  0  0  0
   38.5970   30.0220   41.5830 C   0  0  0  0  0  0  0  0  0  0  0  0
   38.0310   30.5170   40.4740 N   0  0  0  0  0  0  0  0  0  0  0  0
   41.1490   32.1810   41.9340 H   0  0  0  0  0  0  0  0  0  0  0  0
   40.2170   33.4130   39.6690 C   0  0  0  0  0  0  0  0  0  0  0  0
   40.4750   33.1150   38.3470 F   0  0  0  0  0  0  0  0  0  0  0  0
   39.2220   34.3940   39.6660 F   0  0  0  0  0  0  0  0  0  0  0  0
   41.3410   33.9390   40.2160 F   0  0  0  0  0  0  0  0  0  0  0  0
   37.9850   32.1060   38.7470 O   0  0  0  0  0  0  0  0  0  0  0  0
   37.6660   31.4070   37.5590 C   0  0  0  0  0  0  0  0  0  0  0  0
   38.7430   30.5650   37.2710 F   0  0  0  0  0  0  0  0  0  0  0  0
   36.4880   30.7230   37.7170 F   0  0  0  0  0  0  0  0  0  0  0  0
   37.6290   32.2910   36.5000 F   0  0  0  0  0  0  0  0  0  0  0  0
  1  2  1  0  0  0  0
  2  7  2  0  0  0  0
  2  3  1  0  0  0  0
  3  4  2  0  0  0  0
  4  5  1  0  0  0  0
  4  8  1  0  0  0  0
  5  9  1  0  0  0  0
  6 10  1  0  0  0  0
  6  5  2  0  0  0  0
  7  6  1  0  0  0  0
 11 12  1  0  0  0  0
 12 13  2  0  0  0  0
 12  7  1  0  0  0  0
 13 14  1  0  0  0  0
 15 16  1  0  0  0  0
 15 13  1  0  0  0  0
 16 22  1  0  0  0  0
 17 16  1  0  0  0  0
 18 17  1  0  0  0  0
 19 20  1  0  0  0  0
 19 17  2  0  0  0  0
 20 15  2  0  0  0  0
 21 20  1  0  0  0  0
 21 11  2  0  0  0  0
 23 24  2  0  0  0  0
 23 28  1  0  0  0  0
 24 25  1  0  0  0  0
 25 29  1  0  0  0  0
 25 26  2  0  0  0  0
 27 26  1  0  0  0  0
 27  3  1  0  0  0  0
 28 27  2  0  0  0  0
 30 33  1  0  0  0  0
 30 24  1  0  0  0  0
 31 30  1  0  0  0  0
 32 30  1  0  0  0  0
 34 23  1  0  0  0  0
 35 37  1  0  0  0  0
 35 34  1  0  0  0  0
 36 35  1  0  0  0  0
 38 35  1  0  0  0  0
M  END
>  <minimizedAffinity>
-6.87139511

$$$$

 OpenBabel03252504163D

 38 41  0  0  0  0  0  0  0  0999 V2000
   40.1470   29.8260   39.9210 F   0  0  0  0  0  0  0  0  0  0  0  0
   39.0740   30.6880   39.9180 C   0  0  0  0  0  0  0  0  0  0  0  0
   37.8070   30.1940   40.1700 C   0  0  0  0  0  0  0  0  0  0  0  0
   36.7680   31.1240   40.1510 C   0  0  0  0  0  0  0  0  0  0  0  0
   37.0120   32.4520   39.8950 C   0  0  0  0  0  0  0  0  0  0  0  0
   38.3050   32.8820   39.6510 C   0  0  0  0  0  0  0  0  0  0  0  0
   39.3750   32.0080   39.6560 C   0  0  0  0  0  0  0  0  0  0  0  0
   35.7490   30.7980   40.3410 H   0  0  0  0  0  0  0  0  0  0  0  0
   36.1850   33.1620   39.8850 H   0  0  0  0  0  0  0  0  0  0  0  0
   38.4980   33.9300   39.4480 H   0  0  0  0  0  0  0  0  0  0  0  0
   41.4110   32.9300   40.5060 C   0  0  0  0  0  3  0  0  0  0  0  0
   40.7470   32.4390   39.4010 C   0  0  0  0  0  0  0  0  0  0  0  0
   41.4130   32.3980   38.1940 C   0  0  0  0  0  0  0  0  0  0  0  0
   40.8450   32.0040   37.3610 H   0  0  0  0  0  0  0  0  0  0  0  0
   42.7150   32.8390   38.0860 C   0  0  0  0  0  0  0  0  0  0  0  0
   43.5610   32.8990   37.0380 N   0  0  0  0  0  0  0  0  0  0  0  0
   44.7190   33.4120   37.4700 C   0  0  0  0  0  0  0  0  0  0  0  0
   45.5850   33.5820   36.8680 H   0  0  0  0  0  0  0  0  0  0  0  0
   44.6580   33.6940   38.7930 N   0  0  0  0  0  0  0  0  0  0  0  0
   43.4190   33.3420   39.1870 C   0  0  0  0  0  0  0  0  0  0  0  0
   42.7190   33.3700   40.3910 C   0  0  0  0  0  3  0  0  0  0  0  0
   43.3100   32.5880   36.0740 H   0  0  0  0  0  0  0  0  0  0  0  0
   37.8420   26.9930   41.8940 C   0  0  0  0  0  0  0  0  0  0  0  0
   37.1680   26.1330   41.0320 C   0  0  0  0  0  0  0  0  0  0  0  0
   36.6910   26.6770   39.8240 C   0  0  0  0  0  0  0  0  0  0  0  0
   36.9060   27.9870   39.5630 N   0  0  0  0  0  0  0  0  0  0  0  0
   37.5690   28.7800   40.4400 C   0  0  0  0  0  0  0  0  0  0  0  0
   38.0280   28.2720   41.5920 N   0  0  0  0  0  0  0  0  0  0  0  0
   36.1580   26.0270   39.1250 H   0  0  0  0  0  0  0  0  0  0  0  0
   36.9740   24.7140   41.3890 C   0  0  0  0  0  0  0  0  0  0  0  0
   36.3930   24.6150   42.6370 F   0  0  0  0  0  0  0  0  0  0  0  0
   36.0580   24.1730   40.4840 F   0  0  0  0  0  0  0  0  0  0  0  0
   38.0950   23.9520   41.3770 F   0  0  0  0  0  0  0  0  0  0  0  0
   38.2950   26.4540   43.0520 O   0  0  0  0  0  0  0  0  0  0  0  0
   39.6310   26.0980   43.3520 C   0  0  0  0  0  0  0  0  0  0  0  0
   40.3480   26.1300   42.1540 F   0  0  0  0  0  0  0  0  0  0  0  0
   40.1440   26.9480   44.2980 F   0  0  0  0  0  0  0  0  0  0  0  0
   39.6780   24.7760   43.7450 F   0  0  0  0  0  0  0  0  0  0  0  0
  2  1  1  0  0  0  0
  2  3  1  0  0  0  0
  3 27  1  0  0  0  0
  4  3  2  0  0  0  0
  4  8  1  0  0  0  0
  5  4  1  0  0  0  0
  6  7  1  0  0  0  0
  6  5  2  0  0  0  0
  7  2  2  0  0  0  0
  9  5  1  0  0  0  0
 10  6  1  0  0  0  0
 12  7  1  0  0  0  0
 12 11  2  0  0  0  0
 13 12  1  0  0  0  0
 14 13  1  0  0  0  0
 15 13  2  0  0  0  0
 15 20  1  0  0  0  0
 16 17  1  0  0  0  0
 16 15  1  0  0  0  0
 17 19  2  0  0  0  0
 18 17  1  0  0  0  0
 19 20  1  0  0  0  0
 20 21  2  0  0  0  0
 21 11  1  0  0  0  0
 22 16  1  0  0  0  0
 23 34  1  0  0  0  0
 24 30  1  0  0  0  0
 24 23  2  0  0  0  0
 25 24  1  0  0  0  0
 26 25  2  0  0  0  0
 26 27  1  0  0  0  0
 27 28  2  0  0  0  0
 28 23  1  0  0  0  0
 29 25  1  0  0  0  0
 30 31  1  0  0  0  0
 32 30  1  0  0  0  0
 33 30  1  0  0  0  0
 34 35  1  0  0  0  0
 35 38  1  0  0  0  0
 35 37  1  0  0  0  0
 36 35  1  0  0  0  0
M  END
>  <minimizedAffinity>
-6.63674307

$$$$

 OpenBabel03252504163D

 38 41  0  0  0  0  0  0  0  0999 V2000
   40.0610   29.9100   39.6290 F   0  0  0  0  0  0  0  0  0  0  0  0
   39.0070   30.7890   39.7460 C   0  0  0  0  0  0  0  0  0  0  0  0
   37.7650   30.3120   40.1210 C   0  0  0  0  0  0  0  0  0  0  0  0
   36.7450   31.2580   40.2190 C   0  0  0  0  0  0  0  0  0  0  0  0
   36.9830   32.5850   39.9530 C   0  0  0  0  0  0  0  0  0  0  0  0
   38.2510   32.9980   39.5810 C   0  0  0  0  0  0  0  0  0  0  0  0
   39.3020   32.1070   39.4670 C   0  0  0  0  0  0  0  0  0  0  0  0
   35.7460   30.9450   40.5100 H   0  0  0  0  0  0  0  0  0  0  0  0
   36.1720   33.3080   40.0360 H   0  0  0  0  0  0  0  0  0  0  0  0
   38.4400   34.0450   39.3710 H   0  0  0  0  0  0  0  0  0  0  0  0
   40.8870   32.4910   37.7190 C   0  0  0  0  0  3  0  0  0  0  0  0
   40.6480   32.5190   39.0770 C   0  0  0  0  0  0  0  0  0  0  0  0
   41.6630   32.9210   39.9200 C   0  0  0  0  0  0  0  0  0  0  0  0
   41.4200   32.9240   40.9740 H   0  0  0  0  0  0  0  0  0  0  0  0
   42.8960   33.2870   39.4220 C   0  0  0  0  0  0  0  0  0  0  0  0
   44.0230   33.7070   40.0290 N   0  0  0  0  0  0  0  0  0  0  0  0
   44.9430   33.9350   39.0840 C   0  0  0  0  0  0  0  0  0  0  0  0
   45.9390   34.2770   39.2580 H   0  0  0  0  0  0  0  0  0  0  0  0
   44.4440   33.6740   37.8530 N   0  0  0  0  0  0  0  0  0  0  0  0
   43.1730   33.2710   38.0490 C   0  0  0  0  0  0  0  0  0  0  0  0
   42.1270   32.8610   37.2250 C   0  0  0  0  0  3  0  0  0  0  0  0
   44.1160   33.8190   41.0630 H   0  0  0  0  0  0  0  0  0  0  0  0
   37.8220   27.1190   41.8590 C   0  0  0  0  0  0  0  0  0  0  0  0
   37.1430   26.2530   41.0070 C   0  0  0  0  0  0  0  0  0  0  0  0
   36.6540   26.7900   39.8010 C   0  0  0  0  0  0  0  0  0  0  0  0
   36.8640   28.1000   39.5320 N   0  0  0  0  0  0  0  0  0  0  0  0
   37.5330   28.8980   40.3990 C   0  0  0  0  0  0  0  0  0  0  0  0
   38.0030   28.3960   41.5500 N   0  0  0  0  0  0  0  0  0  0  0  0
   36.1160   26.1370   39.1100 H   0  0  0  0  0  0  0  0  0  0  0  0
   36.9550   24.8350   41.3720 C   0  0  0  0  0  0  0  0  0  0  0  0
   36.0660   24.2360   40.5040 F   0  0  0  0  0  0  0  0  0  0  0  0
   38.1790   24.1880   41.1920 F   0  0  0  0  0  0  0  0  0  0  0  0
   36.5300   24.6120   42.6410 F   0  0  0  0  0  0  0  0  0  0  0  0
   38.2870   26.5860   43.0160 O   0  0  0  0  0  0  0  0  0  0  0  0
   39.6230   26.2200   43.3000 C   0  0  0  0  0  0  0  0  0  0  0  0
   39.6110   24.8820   43.7010 F   0  0  0  0  0  0  0  0  0  0  0  0
   40.4150   26.4350   42.2010 F   0  0  0  0  0  0  0  0  0  0  0  0
   40.0620   26.9070   44.4130 F   0  0  0  0  0  0  0  0  0  0  0  0
  1  2  1  0  0  0  0
  2  3  1  0  0  0  0
  3  4  2  0  0  0  0
  3 27  1  0  0  0  0
  4  8  1  0  0  0  0
  5  9  1  0  0  0  0
  5  4  1  0  0  0  0
  6  5  2  0  0  0  0
  7  6  1  0  0  0  0
  7  2  2  0  0  0  0
 10  6  1  0  0  0  0
 11 12  1  0  0  0  0
 12  7  1  0  0  0  0
 12 13  2  0  0  0  0
 13 14  1  0  0  0  0
 15 13  1  0  0  0  0
 15 16  1  0  0  0  0
 16 22  1  0  0  0  0
 17 18  1  0  0  0  0
 17 16  1  0  0  0  0
 19 20  1  0  0  0  0
 19 17  2  0  0  0  0
 20 15  2  0  0  0  0
 21 11  2  0  0  0  0
 21 20  1  0  0  0  0
 23 34  1  0  0  0  0
 24 30  1  0  0  0  0
 24 23  2  0  0  0  0
 25 24  1  0  0  0  0
 26 25  2  0  0  0  0
 26 27  1  0  0  0  0
 27 28  2  0  0  0  0
 28 23  1  0  0  0  0
 29 25  1  0  0  0  0
 30 33  1  0  0  0  0
 31 30  1  0  0  0  0
 32 30  1  0  0  0  0
 34 35  1  0  0  0  0
 35 36  1  0  0  0  0
 35 38  1  0  0  0  0
 37 35  1  0  0  0  0
M  END
>  <minimizedAffinity>
-6.61254072

$$$$

 OpenBabel03252504163D

 38 41  0  0  0  0  0  0  0  0999 V2000
   38.1040   27.9430   40.2200 F   0  0  0  0  0  0  0  0  0  0  0  0
   37.7410   27.9410   41.5480 C   0  0  0  0  0  0  0  0  0  0  0  0
   37.8230   29.1150   42.2740 C   0  0  0  0  0  0  0  0  0  0  0  0
   37.4390   29.0400   43.6120 C   0  0  0  0  0  0  0  0  0  0  0  0
   37.0070   27.8550   44.1590 C   0  0  0  0  0  0  0  0  0  0  0  0
   36.9480   26.7150   43.3760 C   0  0  0  0  0  0  0  0  0  0  0  0
   37.3150   26.7280   42.0440 C   0  0  0  0  0  0  0  0  0  0  0  0
   37.4820   29.9290   44.2360 H   0  0  0  0  0  0  0  0  0  0  0  0
   36.7120   27.8190   45.2070 H   0  0  0  0  0  0  0  0  0  0  0  0
   36.6070   25.7790   43.8070 H   0  0  0  0  0  0  0  0  0  0  0  0
   36.5790   25.7040   40.0120 C   0  0  0  0  0  3  0  0  0  0  0  0
   37.2610   25.5370   41.1990 C   0  0  0  0  0  0  0  0  0  0  0  0
   37.8140   24.3040   41.4770 C   0  0  0  0  0  0  0  0  0  0  0  0
   38.3370   24.2300   42.4210 H   0  0  0  0  0  0  0  0  0  0  0  0
   37.6910   23.2550   40.5900 C   0  0  0  0  0  0  0  0  0  0  0  0
   38.1330   21.9830   40.6340 N   0  0  0  0  0  0  0  0  0  0  0  0
   37.7420   21.3690   39.5110 C   0  0  0  0  0  0  0  0  0  0  0  0
   37.9440   20.3510   39.2580 H   0  0  0  0  0  0  0  0  0  0  0  0
   37.0440   22.2150   38.7170 N   0  0  0  0  0  0  0  0  0  0  0  0
   37.0060   23.3900   39.3760 C   0  0  0  0  0  0  0  0  0  0  0  0
   36.4590   24.6470   39.1260 C   0  0  0  0  0  3  0  0  0  0  0  0
   38.6830   21.5890   41.4290 H   0  0  0  0  0  0  0  0  0  0  0  0
   40.0650   31.7900   41.2530 C   0  0  0  0  0  0  0  0  0  0  0  0
   39.2420   32.6880   40.5790 C   0  0  0  0  0  0  0  0  0  0  0  0
   37.8770   32.3570   40.4770 C   0  0  0  0  0  0  0  0  0  0  0  0
   37.4380   31.2020   41.0290 N   0  0  0  0  0  0  0  0  0  0  0  0
   38.2850   30.3630   41.6750 C   0  0  0  0  0  0  0  0  0  0  0  0
   39.5860   30.6690   41.7780 N   0  0  0  0  0  0  0  0  0  0  0  0
   37.2050   33.0410   39.9550 H   0  0  0  0  0  0  0  0  0  0  0  0
   39.7980   33.9280   40.0050 C   0  0  0  0  0  0  0  0  0  0  0  0
   40.4570   33.6500   38.8240 F   0  0  0  0  0  0  0  0  0  0  0  0
   38.7240   34.7560   39.6710 F   0  0  0  0  0  0  0  0  0  0  0  0
   40.6420   34.6170   40.8130 F   0  0  0  0  0  0  0  0  0  0  0  0
   41.3760   32.1230   41.3430 O   0  0  0  0  0  0  0  0  0  0  0  0
   42.4390   31.5850   40.5790 C   0  0  0  0  0  0  0  0  0  0  0  0
   41.8720   30.9280   39.4850 F   0  0  0  0  0  0  0  0  0  0  0  0
   43.3030   32.5830   40.2080 F   0  0  0  0  0  0  0  0  0  0  0  0
   43.0610   30.5840   41.2960 F   0  0  0  0  0  0  0  0  0  0  0  0
  1  2  1  0  0  0  0
  2  7  2  0  0  0  0
  2  3  1  0  0  0  0
  3  4  2  0  0  0  0
  4  5  1  0  0  0  0
  4  8  1  0  0  0  0
  5  9  1  0  0  0  0
  6 10  1  0  0  0  0
  6  5  2  0  0  0  0
  7  6  1  0  0  0  0
 11 12  1  0  0  0  0
 12 13  2  0  0  0  0
 12  7  1  0  0  0  0
 13 14  1  0  0  0  0
 15 16  1  0  0  0  0
 15 13  1  0  0  0  0
 16 22  1  0  0  0  0
 17 16  1  0  0  0  0
 18 17  1  0  0  0  0
 19 20  1  0  0  0  0
 19 17  2  0  0  0  0
 20 15  2  0  0  0  0
 21 20  1  0  0  0  0
 21 11  2  0  0  0  0
 23 34  1  0  0  0  0
 23 28  1  0  0  0  0
 24 23  2  0  0  0  0
 25 24  1  0  0  0  0
 25 26  2  0  0  0  0
 26 27  1  0  0  0  0
 27 28  2  0  0  0  0
 27  3  1  0  0  0  0
 29 25  1  0  0  0  0
 30 24  1  0  0  0  0
 30 33  1  0  0  0  0
 31 30  1  0  0  0  0
 32 30  1  0  0  0  0
 35 38  1  0  0  0  0
 35 34  1  0  0  0  0
 36 35  1  0  0  0  0
 37 35  1  0  0  0  0
M  END
>  <minimizedAffinity>
-6.53900385

$$$$

 OpenBabel03252504163D

 38 41  0  0  0  0  0  0  0  0999 V2000
   38.3830   27.5380   40.2640 F   0  0  0  0  0  0  0  0  0  0  0  0
   37.8750   27.6280   41.5410 C   0  0  0  0  0  0  0  0  0  0  0  0
   37.9370   28.8360   42.2110 C   0  0  0  0  0  0  0  0  0  0  0  0
   37.4050   28.8550   43.5000 C   0  0  0  0  0  0  0  0  0  0  0  0
   36.8540   27.7240   44.0540 C   0  0  0  0  0  0  0  0  0  0  0  0
   36.8220   26.5450   43.3290 C   0  0  0  0  0  0  0  0  0  0  0  0
   37.3350   26.4650   42.0480 C   0  0  0  0  0  0  0  0  0  0  0  0
   37.4240   29.7750   44.0780 H   0  0  0  0  0  0  0  0  0  0  0  0
   36.4430   27.7610   45.0620 H   0  0  0  0  0  0  0  0  0  0  0  0
   36.3880   25.6520   43.7650 H   0  0  0  0  0  0  0  0  0  0  0  0
   38.2710   24.3060   41.6220 C   0  0  0  0  0  3  0  0  0  0  0  0
   37.3130   25.2330   41.2650 C   0  0  0  0  0  0  0  0  0  0  0  0
   36.4480   24.9260   40.2350 C   0  0  0  0  0  0  0  0  0  0  0  0
   35.7180   25.6880   39.9970 H   0  0  0  0  0  0  0  0  0  0  0  0
   36.5330   23.7200   39.5710 C   0  0  0  0  0  0  0  0  0  0  0  0
   35.8180   23.2000   38.5550 N   0  0  0  0  0  0  0  0  0  0  0  0
   36.3090   21.9850   38.2810 C   0  0  0  0  0  0  0  0  0  0  0  0
   35.9470   21.3260   37.5230 H   0  0  0  0  0  0  0  0  0  0  0  0
   37.3430   21.6880   39.1030 N   0  0  0  0  0  0  0  0  0  0  0  0
   37.4920   22.7570   39.9080 C   0  0  0  0  0  0  0  0  0  0  0  0
   38.3500   23.0970   40.9520 C   0  0  0  0  0  3  0  0  0  0  0  0
   35.0250   23.6970   38.0920 H   0  0  0  0  0  0  0  0  0  0  0  0
   38.4510   31.5930   39.8960 C   0  0  0  0  0  0  0  0  0  0  0  0
   39.5660   32.2580   40.3980 C   0  0  0  0  0  0  0  0  0  0  0  0
   40.1540   31.7370   41.5660 C   0  0  0  0  0  0  0  0  0  0  0  0
   39.6160   30.6340   42.1370 N   0  0  0  0  0  0  0  0  0  0  0  0
   38.5270   30.0260   41.6050 C   0  0  0  0  0  0  0  0  0  0  0  0
   37.9610   30.5140   40.4930 N   0  0  0  0  0  0  0  0  0  0  0  0
   41.0310   32.2350   41.9850 H   0  0  0  0  0  0  0  0  0  0  0  0
   40.0940   33.4560   39.7160 C   0  0  0  0  0  0  0  0  0  0  0  0
   41.2340   33.9010   40.3550 F   0  0  0  0  0  0  0  0  0  0  0  0
   40.4850   33.0720   38.4320 F   0  0  0  0  0  0  0  0  0  0  0  0
   39.2290   34.4950   39.6130 F   0  0  0  0  0  0  0  0  0  0  0  0
   37.8970   32.1070   38.7710 O   0  0  0  0  0  0  0  0  0  0  0  0
   37.6600   31.4210   37.5570 C   0  0  0  0  0  0  0  0  0  0  0  0
   38.7860   30.6370   37.2960 F   0  0  0  0  0  0  0  0  0  0  0  0
   36.5100   30.6800   37.6520 F   0  0  0  0  0  0  0  0  0  0  0  0
   37.6240   32.3260   36.5150 F   0  0  0  0  0  0  0  0  0  0  0  0
  1  2  1  0  0  0  0
  2  7  2  0  0  0  0
  2  3  1  0  0  0  0
  3  4  2  0  0  0  0
  4  5  1  0  0  0  0
  4  8  1  0  0  0  0
  5  9  1  0  0  0  0
  6 10  1  0  0  0  0
  6  5  2  0  0  0  0
  7  6  1  0  0  0  0
 12 11  1  0  0  0  0
 12  7  1  0  0  0  0
 13 12  2  0  0  0  0
 14 13  1  0  0  0  0
 15 20  2  0  0  0  0
 15 13  1  0  0  0  0
 16 15  1  0  0  0  0
 17 16  1  0  0  0  0
 17 19  2  0  0  0  0
 18 17  1  0  0  0  0
 19 20  1  0  0  0  0
 20 21  1  0  0  0  0
 21 11  2  0  0  0  0
 22 16  1  0  0  0  0
 23 24  2  0  0  0  0
 23 28  1  0  0  0  0
 24 25  1  0  0  0  0
 25 29  1  0  0  0  0
 25 26  2  0  0  0  0
 27 26  1  0  0  0  0
 27  3  1  0  0  0  0
 28 27  2  0  0  0  0
 30 31  1  0  0  0  0
 30 24  1  0  0  0  0
 32 30  1  0  0  0  0
 33 30  1  0  0  0  0
 34 23  1  0  0  0  0
 35 37  1  0  0  0  0
 35 34  1  0  0  0  0
 36 35  1  0  0  0  0
 38 35  1  0  0  0  0
M  END
>  <minimizedAffinity>
-6.45499611

$$$$

 OpenBabel03252504163D

 38 41  0  0  0  0  0  0  0  0999 V2000
   38.6470   29.6090   40.4650 F   0  0  0  0  0  0  0  0  0  0  0  0
   38.1030   28.9050   41.5160 C   0  0  0  0  0  0  0  0  0  0  0  0
   36.8410   28.3590   41.3840 C   0  0  0  0  0  0  0  0  0  0  0  0
   36.3530   27.6600   42.4880 C   0  0  0  0  0  0  0  0  0  0  0  0
   37.1020   27.5340   43.6330 C   0  0  0  0  0  0  0  0  0  0  0  0
   38.3610   28.1060   43.7000 C   0  0  0  0  0  0  0  0  0  0  0  0
   38.8970   28.8100   42.6390 C   0  0  0  0  0  0  0  0  0  0  0  0
   35.3660   27.2070   42.4460 H   0  0  0  0  0  0  0  0  0  0  0  0
   36.7020   26.9830   44.4840 H   0  0  0  0  0  0  0  0  0  0  0  0
   38.9530   28.0070   44.6040 H   0  0  0  0  0  0  0  0  0  0  0  0
   41.2670   28.5260   42.7910 C   0  0  0  0  0  3  0  0  0  0  0  0
   40.2230   29.4220   42.6880 C   0  0  0  0  0  0  0  0  0  0  0  0
   40.5100   30.7700   42.6410 C   0  0  0  0  0  0  0  0  0  0  0  0
   39.6540   31.4270   42.5600 H   0  0  0  0  0  0  0  0  0  0  0  0
   41.8120   31.2210   42.6960 C   0  0  0  0  0  0  0  0  0  0  0  0
   42.3370   32.4620   42.6680 N   0  0  0  0  0  0  0  0  0  0  0  0
   43.6680   32.3510   42.7510 C   0  0  0  0  0  0  0  0  0  0  0  0
   44.3600   33.1650   42.7530 H   0  0  0  0  0  0  0  0  0  0  0  0
   44.0390   31.0510   42.8340 N   0  0  0  0  0  0  0  0  0  0  0  0
   42.8960   30.3400   42.8000 C   0  0  0  0  0  0  0  0  0  0  0  0
   42.5730   28.9850   42.8450 C   0  0  0  0  0  3  0  0  0  0  0  0
   41.7640   33.3310   42.5940 H   0  0  0  0  0  0  0  0  0  0  0  0
   35.9480   28.1910   37.8630 C   0  0  0  0  0  0  0  0  0  0  0  0
   34.6680   28.7360   37.8080 C   0  0  0  0  0  0  0  0  0  0  0  0
   34.1020   29.1720   39.0220 C   0  0  0  0  0  0  0  0  0  0  0  0
   34.8170   29.0430   40.1640 N   0  0  0  0  0  0  0  0  0  0  0  0
   36.0600   28.5030   40.1590 C   0  0  0  0  0  0  0  0  0  0  0  0
   36.6080   28.0860   39.0090 N   0  0  0  0  0  0  0  0  0  0  0  0
   33.0990   29.6050   39.0120 H   0  0  0  0  0  0  0  0  0  0  0  0
   33.9530   28.8430   36.5210 C   0  0  0  0  0  0  0  0  0  0  0  0
   33.7030   27.5850   36.0120 F   0  0  0  0  0  0  0  0  0  0  0  0
   32.7070   29.4190   36.7780 F   0  0  0  0  0  0  0  0  0  0  0  0
   34.5800   29.5740   35.5660 F   0  0  0  0  0  0  0  0  0  0  0  0
   36.4780   27.7760   36.6870 O   0  0  0  0  0  0  0  0  0  0  0  0
   37.5730   28.3550   36.0030 C   0  0  0  0  0  0  0  0  0  0  0  0
   37.1750   28.5580   34.6790 F   0  0  0  0  0  0  0  0  0  0  0  0
   37.9550   29.5160   36.6240 F   0  0  0  0  0  0  0  0  0  0  0  0
   38.5990   27.4370   35.9160 F   0  0  0  0  0  0  0  0  0  0  0  0
  1  2  1  0  0  0  0
  2  7  1  0  0  0  0
  3  2  2  0  0  0  0
  3  4  1  0  0  0  0
  4  5  2  0  0  0  0
  5  6  1  0  0  0  0
  5  9  1  0  0  0  0
  6 10  1  0  0  0  0
  7 12  1  0  0  0  0
  7  6  2  0  0  0  0
  8  4  1  0  0  0  0
 11 21  1  0  0  0  0
 12 11  2  0  0  0  0
 13 12  1  0  0  0  0
 13 15  2  0  0  0  0
 14 13  1  0  0  0  0
 15 20  1  0  0  0  0
 16 15  1  0  0  0  0
 16 17  1  0  0  0  0
 17 18  1  0  0  0  0
 17 19  2  0  0  0  0
 20 19  1  0  0  0  0
 20 21  2  0  0  0  0
 22 16  1  0  0  0  0
 23 28  1  0  0  0  0
 24 23  2  0  0  0  0
 24 25  1  0  0  0  0
 25 26  2  0  0  0  0
 27 26  1  0  0  0  0
 27  3  1  0  0  0  0
 28 27  2  0  0  0  0
 29 25  1  0  0  0  0
 30 32  1  0  0  0  0
 30 24  1  0  0  0  0
 31 30  1  0  0  0  0
 33 30  1  0  0  0  0
 34 23  1  0  0  0  0
 35 37  1  0  0  0  0
 35 34  1  0  0  0  0
 36 35  1  0  0  0  0
 38 35  1  0  0  0  0
M  END
>  <minimizedAffinity>
-6.25887823

$$$$

 OpenBabel03252504163D

 38 41  0  0  0  0  0  0  0  0999 V2000
   38.6290   28.2890   40.0840 F   0  0  0  0  0  0  0  0  0  0  0  0
   38.2200   28.0910   41.3830 C   0  0  0  0  0  0  0  0  0  0  0  0
   38.0470   26.8010   41.8500 C   0  0  0  0  0  0  0  0  0  0  0  0
   37.6320   26.6740   43.1750 C   0  0  0  0  0  0  0  0  0  0  0  0
   37.4110   27.7830   43.9560 C   0  0  0  0  0  0  0  0  0  0  0  0
   37.6030   29.0490   43.4280 C   0  0  0  0  0  0  0  0  0  0  0  0
   38.0130   29.2370   42.1210 C   0  0  0  0  0  0  0  0  0  0  0  0
   37.4790   25.6860   43.6000 H   0  0  0  0  0  0  0  0  0  0  0  0
   37.0870   27.6620   44.9890 H   0  0  0  0  0  0  0  0  0  0  0  0
   37.4290   29.9250   44.0430 H   0  0  0  0  0  0  0  0  0  0  0  0
   37.1380   31.0650   40.8520 C   0  0  0  0  0  3  0  0  0  0  0  0
   38.2210   30.5620   41.5430 C   0  0  0  0  0  0  0  0  0  0  0  0
   39.3670   31.3260   41.6240 C   0  0  0  0  0  0  0  0  0  0  0  0
   40.1840   30.8820   42.1770 H   0  0  0  0  0  0  0  0  0  0  0  0
   39.4350   32.5680   41.0300 C   0  0  0  0  0  0  0  0  0  0  0  0
   40.4220   33.4840   40.9710 N   0  0  0  0  0  0  0  0  0  0  0  0
   39.9740   34.5300   40.2660 C   0  0  0  0  0  0  0  0  0  0  0  0
   40.5310   35.4160   40.0490 H   0  0  0  0  0  0  0  0  0  0  0  0
   38.7010   34.3250   39.8540 N   0  0  0  0  0  0  0  0  0  0  0  0
   38.3550   33.1100   40.3220 C   0  0  0  0  0  0  0  0  0  0  0  0
   37.2130   32.3140   40.2580 C   0  0  0  0  0  3  0  0  0  0  0  0
   41.3580   33.3560   41.4140 H   0  0  0  0  0  0  0  0  0  0  0  0
   37.4380   23.6890   40.0700 C   0  0  0  0  0  0  0  0  0  0  0  0
   38.6450   23.4170   39.4320 C   0  0  0  0  0  0  0  0  0  0  0  0
   39.6950   24.3360   39.6240 C   0  0  0  0  0  0  0  0  0  0  0  0
   39.4840   25.4200   40.4060 N   0  0  0  0  0  0  0  0  0  0  0  0
   38.2870   25.6350   41.0040 C   0  0  0  0  0  0  0  0  0  0  0  0
   37.2810   24.7660   40.8280 N   0  0  0  0  0  0  0  0  0  0  0  0
   40.6550   24.1520   39.1370 H   0  0  0  0  0  0  0  0  0  0  0  0
   38.7960   22.2110   38.5940 C   0  0  0  0  0  0  0  0  0  0  0  0
   38.0660   22.3490   37.4310 F   0  0  0  0  0  0  0  0  0  0  0  0
   40.1370   22.1300   38.2110 F   0  0  0  0  0  0  0  0  0  0  0  0
   38.4420   21.0440   39.1860 F   0  0  0  0  0  0  0  0  0  0  0  0
   36.4380   22.7940   39.8750 O   0  0  0  0  0  0  0  0  0  0  0  0
   35.2440   23.0080   39.1480 C   0  0  0  0  0  0  0  0  0  0  0  0
   35.1630   22.0040   38.1800 F   0  0  0  0  0  0  0  0  0  0  0  0
   34.1680   23.0100   39.9980 F   0  0  0  0  0  0  0  0  0  0  0  0
   35.3490   24.1760   38.4220 F   0  0  0  0  0  0  0  0  0  0  0  0
  1  2  1  0  0  0  0
  2  3  2  0  0  0  0
  2  7  1  0  0  0  0
  3  4  1  0  0  0  0
  4  8  1  0  0  0  0
  4  5  2  0  0  0  0
  5  9  1  0  0  0  0
  6  5  1  0  0  0  0
  6 10  1  0  0  0  0
  7  6  2  0  0  0  0
 11 12  1  0  0  0  0
 12 13  2  0  0  0  0
 12  7  1  0  0  0  0
 13 14  1  0  0  0  0
 15 13  1  0  0  0  0
 16 15  1  0  0  0  0
 16 22  1  0  0  0  0
 17 16  1  0  0  0  0
 18 17  1  0  0  0  0
 19 17  2  0  0  0  0
 19 20  1  0  0  0  0
 20 15  2  0  0  0  0
 21 20  1  0  0  0  0
 21 11  2  0  0  0  0
 23 28  1  0  0  0  0
 24 25  1  0  0  0  0
 24 23  2  0  0  0  0
 25 26  2  0  0  0  0
 26 27  1  0  0  0  0
 27  3  1  0  0  0  0
 28 27  2  0  0  0  0
 29 25  1  0  0  0  0
 30 33  1  0  0  0  0
 30 24  1  0  0  0  0
 31 30  1  0  0  0  0
 32 30  1  0  0  0  0
 34 23  1  0  0  0  0
 35 34  1  0  0  0  0
 35 37  1  0  0  0  0
 36 35  1  0  0  0  0
 38 35  1  0  0  0  0
M  END
>  <minimizedAffinity>
-6.24928093

$$$$

 OpenBabel03252504163D

 38 41  0  0  0  0  0  0  0  0999 V2000
   39.5270   26.1320   40.9100 F   0  0  0  0  0  0  0  0  0  0  0  0
   38.7130   26.6550   41.8890 C   0  0  0  0  0  0  0  0  0  0  0  0
   37.3530   26.7530   41.6580 C   0  0  0  0  0  0  0  0  0  0  0  0
   36.5890   27.2910   42.6930 C   0  0  0  0  0  0  0  0  0  0  0  0
   37.1760   27.6960   43.8680 C   0  0  0  0  0  0  0  0  0  0  0  0
   38.5440   27.5700   44.0360 C   0  0  0  0  0  0  0  0  0  0  0  0
   39.3530   27.0440   43.0460 C   0  0  0  0  0  0  0  0  0  0  0  0
   35.5150   27.3950   42.5720 H   0  0  0  0  0  0  0  0  0  0  0  0
   36.5600   28.1140   44.6650 H   0  0  0  0  0  0  0  0  0  0  0  0
   39.0080   27.8890   44.9640 H   0  0  0  0  0  0  0  0  0  0  0  0
   41.4980   28.0900   43.1890 C   0  0  0  0  0  3  0  0  0  0  0  0
   40.7980   26.9010   43.2010 C   0  0  0  0  0  0  0  0  0  0  0  0
   41.4980   25.7230   43.3530 C   0  0  0  0  0  0  0  0  0  0  0  0
   40.9000   24.8220   43.3550 H   0  0  0  0  0  0  0  0  0  0  0  0
   42.8710   25.7250   43.4900 C   0  0  0  0  0  0  0  0  0  0  0  0
   43.7610   24.7260   43.6480 N   0  0  0  0  0  0  0  0  0  0  0  0
   44.9820   25.2670   43.7330 C   0  0  0  0  0  0  0  0  0  0  0  0
   45.8930   24.7260   43.8620 H   0  0  0  0  0  0  0  0  0  0  0  0
   44.9180   26.6160   43.6340 N   0  0  0  0  0  0  0  0  0  0  0  0
   43.6130   26.9120   43.4830 C   0  0  0  0  0  0  0  0  0  0  0  0
   42.8760   28.0850   43.3280 C   0  0  0  0  0  3  0  0  0  0  0  0
   43.4960   23.7170   43.6920 H   0  0  0  0  0  0  0  0  0  0  0  0
   35.8730   26.9220   38.3410 C   0  0  0  0  0  0  0  0  0  0  0  0
   35.6110   25.5940   38.0150 C   0  0  0  0  0  0  0  0  0  0  0  0
   35.9570   24.6180   38.9690 C   0  0  0  0  0  0  0  0  0  0  0  0
   36.5170   25.0100   40.1370 N   0  0  0  0  0  0  0  0  0  0  0  0
   36.7500   26.3180   40.4020 C   0  0  0  0  0  0  0  0  0  0  0  0
   36.4240   27.2550   39.5010 N   0  0  0  0  0  0  0  0  0  0  0  0
   35.7650   23.5660   38.7440 H   0  0  0  0  0  0  0  0  0  0  0  0
   34.9970   25.2470   36.7190 C   0  0  0  0  0  0  0  0  0  0  0  0
   34.8600   23.8780   36.6100 F   0  0  0  0  0  0  0  0  0  0  0  0
   33.7040   25.7750   36.7110 F   0  0  0  0  0  0  0  0  0  0  0  0
   35.6550   25.6990   35.6230 F   0  0  0  0  0  0  0  0  0  0  0  0
   35.5340   27.8490   37.4130 O   0  0  0  0  0  0  0  0  0  0  0  0
   34.7340   28.9980   37.6180 C   0  0  0  0  0  0  0  0  0  0  0  0
   33.7170   28.6410   38.5080 F   0  0  0  0  0  0  0  0  0  0  0  0
   35.5050   30.0310   38.0840 F   0  0  0  0  0  0  0  0  0  0  0  0
   34.0720   29.3140   36.4500 F   0  0  0  0  0  0  0  0  0  0  0  0
  1  2  1  0  0  0  0
  2  7  1  0  0  0  0
  3  2  2  0  0  0  0
  3  4  1  0  0  0  0
  4  5  2  0  0  0  0
  5  6  1  0  0  0  0
  5  9  1  0  0  0  0
  6 10  1  0  0  0  0
  7 12  1  0  0  0  0
  7  6  2  0  0  0  0
  8  4  1  0  0  0  0
 11 12  2  0  0  0  0
 11 21  1  0  0  0  0
 12 13  1  0  0  0  0
 13 14  1  0  0  0  0
 13 15  2  0  0  0  0
 15 16  1  0  0  0  0
 16 22  1  0  0  0  0
 16 17  1  0  0  0  0
 17 18  1  0  0  0  0
 19 17  2  0  0  0  0
 20 15  1  0  0  0  0
 20 19  1  0  0  0  0
 21 20  2  0  0  0  0
 23 28  1  0  0  0  0
 24 23  2  0  0  0  0
 24 25  1  0  0  0  0
 25 26  2  0  0  0  0
 26 27  1  0  0  0  0
 27  3  1  0  0  0  0
 28 27  2  0  0  0  0
 29 25  1  0  0  0  0
 30 24  1  0  0  0  0
 31 30  1  0  0  0  0
 32 30  1  0  0  0  0
 33 30  1  0  0  0  0
 34 35  1  0  0  0  0
 34 23  1  0  0  0  0
 35 37  1  0  0  0  0
 35 36  1  0  0  0  0
 38 35  1  0  0  0  0
M  END
>  <minimizedAffinity>
-6.24629593

$$$$
