
 OpenBabel03252507413D

 28 30  0  0  0  0  0  0  0  0999 V2000
   46.2900   34.1850   40.7310 C   0  0  0  0  0  0  0  0  0  0  0  0
   45.6590   34.9890   40.2610 H   0  0  0  0  0  0  0  0  0  0  0  0
   45.6130   33.3970   41.1210 H   0  0  0  0  0  0  0  0  0  0  0  0
   48.2860   32.9130   40.0570 C   0  0  0  0  0  3  0  0  0  0  0  0
   47.1400   33.6200   39.6760 C   0  0  0  0  0  0  0  0  0  0  0  0
   46.8980   33.7280   38.3060 C   0  0  0  0  0  0  0  0  0  0  0  0
   46.0200   34.2690   38.0340 H   0  0  0  0  0  0  0  0  0  0  0  0
   47.7350   33.1730   37.3600 C   0  0  0  0  0  0  0  0  0  0  0  0
   47.6860   33.1600   36.0140 N   0  0  0  0  0  0  0  0  0  0  0  0
   48.7630   32.4700   35.5510 C   0  0  0  0  0  0  0  0  0  0  0  0
   49.0610   32.2510   34.5220 H   0  0  0  0  0  0  0  0  0  0  0  0
   49.4890   32.0500   36.6210 N   0  0  0  0  0  0  0  0  0  0  0  0
   48.8720   32.4720   37.7570 C   0  0  0  0  0  0  0  0  0  0  0  0
   49.1230   32.3590   39.1170 C   0  0  0  0  0  3  0  0  0  0  0  0
   46.9590   33.5960   35.4020 H   0  0  0  0  0  0  0  0  0  0  0  0
   47.0470   34.7410   41.8960 C   0  0  0  0  0  0  0  0  0  0  0  0
   47.4820   35.7450   41.6960 H   0  0  0  0  0  0  0  0  0  0  0  0
   47.9060   34.0820   42.1010 H   0  0  0  0  0  0  0  0  0  0  0  0
   46.2130   34.9110   43.1030 C   0  0  0  0  0  0  0  0  0  0  0  0
   46.3480   33.9440   44.0910 C   0  0  0  0  0  0  0  0  0  0  0  0
   45.5960   34.0440   45.2460 C   0  0  0  0  0  0  0  0  0  0  0  0
   44.7290   35.1120   45.3800 N   0  0  0  0  0  0  0  0  0  0  0  0
   44.6290   36.0310   44.3890 C   0  0  0  0  0  0  0  0  0  0  0  0
   45.3490   35.9410   43.2790 N   0  0  0  0  0  0  0  0  0  0  0  0
   45.6660   33.3280   46.0310 H   0  0  0  0  0  0  0  0  0  0  0  0
   43.9280   36.8160   44.5970 H   0  0  0  0  0  0  0  0  0  0  0  0
   47.4900   32.5750   43.8700 S   0  0  0  0  0  0  0  0  0  0  0  0
   48.6840   32.9920   44.5320 H   0  0  0  0  0  0  0  0  0  0  0  0
  1  3  1  0  0  0  0
  1 16  1  0  0  0  0
  2  1  1  0  0  0  0
  5  4  1  0  0  0  0
  5  1  1  0  0  0  0
  6  5  2  0  0  0  0
  7  6  1  0  0  0  0
  8 13  2  0  0  0  0
  8  6  1  0  0  0  0
  9  8  1  0  0  0  0
 10  9  1  0  0  0  0
 10 12  2  0  0  0  0
 11 10  1  0  0  0  0
 12 13  1  0  0  0  0
 13 14  1  0  0  0  0
 14  4  2  0  0  0  0
 15  9  1  0  0  0  0
 16 18  1  0  0  0  0
 16 19  1  0  0  0  0
 17 16  1  0  0  0  0
 19 24  2  0  0  0  0
 19 20  1  0  0  0  0
 20 21  2  0  0  0  0
 21 22  1  0  0  0  0
 21 25  1  0  0  0  0
 23 26  1  0  0  0  0
 23 22  2  0  0  0  0
 24 23  1  0  0  0  0
 27 20  1  0  0  0  0
 27 28  1  0  0  0  0
M  END
>  <minimizedAffinity>
-4.76653719

>  <minimizedRMSD>
3.57020974

$$$$
