
 OpenBabel03252509003D

 48 51  0  0  1  0  0  0  0  0999 V2000
   46.7430   34.4670   43.5260 N   0  0  0  0  0  0  0  0  0  0  0  0
   46.2870   35.5730   42.7640 C   0  0  0  0  0  0  0  0  0  0  0  0
   44.7980   35.8080   42.7880 C   0  0  0  0  0  0  0  0  0  0  0  0
   44.1250   35.4230   44.0790 C   0  0  0  0  0  0  0  0  0  0  0  0
   45.1260   34.9780   45.1190 C   0  0  0  0  0  0  0  0  0  0  0  0
   45.8930   33.8070   44.4000 C   0  0  2  0  0  0  0  0  0  0  0  0
   46.6080   35.6080   41.7210 H   0  0  0  0  0  0  0  0  0  0  0  0
   46.7410   36.4890   43.2470 H   0  0  0  0  0  0  0  0  0  0  0  0
   44.6230   36.8990   42.5580 H   0  0  0  0  0  0  0  0  0  0  0  0
   44.3380   35.2470   41.9410 H   0  0  0  0  0  0  0  0  0  0  0  0
   43.5890   36.3000   44.5000 H   0  0  0  0  0  0  0  0  0  0  0  0
   43.4070   34.6090   43.9170 H   0  0  0  0  0  0  0  0  0  0  0  0
   44.6030   34.5380   45.9740 H   0  0  0  0  0  0  0  0  0  0  0  0
   45.8590   35.7450   45.3730 H   0  0  0  0  0  0  0  0  0  0  0  0
   45.1130   33.1360   43.9690 H   0  0  0  0  0  0  0  0  0  0  0  0
   47.8090   33.7320   42.9120 C   0  0  0  0  0  0  0  0  0  0  0  0
   48.3580   33.1590   43.7030 H   0  0  0  0  0  0  0  0  0  0  0  0
   48.5170   34.4160   42.4400 H   0  0  0  0  0  0  0  0  0  0  0  0
   47.2210   32.7100   41.9860 C   0  0  0  0  0  0  0  0  0  0  0  0
   46.1250   32.8640   41.8800 H   0  0  0  0  0  0  0  0  0  0  0  0
   47.3670   31.6620   42.3080 H   0  0  0  0  0  0  0  0  0  0  0  0
   49.1240   32.0690   38.8120 C   0  0  0  0  0  0  0  0  0  0  0  0
   48.5780   31.9080   40.0980 C   0  0  0  0  0  0  0  0  0  0  0  0
   47.7890   32.8990   40.6260 C   0  0  0  0  0  0  0  0  0  0  0  0
   47.5750   33.9880   39.8770 N   0  0  0  0  0  0  0  0  0  0  0  0
   48.0960   34.1450   38.6490 C   0  0  0  0  0  0  0  0  0  0  0  0
   48.8710   33.1940   38.1050 N   0  0  0  0  0  0  0  0  0  0  0  0
   49.7500   31.3210   38.3500 H   0  0  0  0  0  0  0  0  0  0  0  0
   48.7900   31.0150   40.6380 H   0  0  0  0  0  0  0  0  0  0  0  0
   47.8530   35.0690   38.1380 H   0  0  0  0  0  0  0  0  0  0  0  0
   46.5870   33.2420   45.4630 O   0  0  0  0  0  0  0  0  0  0  0  0
   45.4530   31.0510   44.4890 O   0  0  0  0  0  0  0  0  0  0  0  0
   46.2630   31.5980   45.6480 P   0  0  2  0  0  0  0  0  0  0  0  0
   45.2370   31.4700   47.0130 O   0  0  0  0  0  0  0  0  0  0  0  0
   45.7790   31.2420   47.8080 H   0  0  0  0  0  0  0  0  0  0  0  0
   47.6540   30.7340   45.9570 O   0  0  0  0  0  0  0  0  0  0  0  0
   46.9020   28.4980   46.0380 C   0  0  0  0  0  3  0  0  0  0  0  0
   47.7600   29.4930   46.5200 C   0  0  0  0  0  0  0  0  0  0  0  0
   48.6480   29.1590   47.5230 C   0  0  0  0  0  0  0  0  0  0  0  0
   49.3220   29.9300   47.9050 H   0  0  0  0  0  0  0  0  0  0  0  0
   48.6670   27.8530   48.0220 C   0  0  0  0  0  0  0  0  0  0  0  0
   49.4390   27.2970   48.9940 N   0  0  0  0  0  0  0  0  0  0  0  0
   49.1120   25.9970   49.1490 C   0  0  0  0  0  0  0  0  0  0  0  0
   49.5800   25.3290   49.8590 H   0  0  0  0  0  0  0  0  0  0  0  0
   48.1240   25.7440   48.2630 N   0  0  0  0  0  0  0  0  0  0  0  0
   47.8270   26.8630   47.5560 C   0  0  0  0  0  0  0  0  0  0  0  0
   46.9440   27.2080   46.5540 C   0  0  0  0  0  3  0  0  0  0  0  0
   50.1660   27.8320   49.5150 H   0  0  0  0  0  0  0  0  0  0  0  0
  1  6  1  0  0  0  0
  2  3  1  0  0  0  0
  2  8  1  0  0  0  0
  2  1  1  0  0  0  0
  3  4  1  0  0  0  0
  4 11  1  0  0  0  0
  4  5  1  0  0  0  0
  5 14  1  0  0  0  0
  5 13  1  0  0  0  0
  6 15  1  6  0  0  0
  6  5  1  0  0  0  0
  6 31  1  0  0  0  0
  7  2  1  0  0  0  0
  9  3  1  0  0  0  0
 10  3  1  0  0  0  0
 12  4  1  0  0  0  0
 16  1  1  0  0  0  0
 16 17  1  0  0  0  0
 18 16  1  0  0  0  0
 19 21  1  0  0  0  0
 19 16  1  0  0  0  0
 20 19  1  0  0  0  0
 22 23  1  0  0  0  0
 23 24  2  0  0  0  0
 23 29  1  0  0  0  0
 24 19  1  0  0  0  0
 25 24  1  0  0  0  0
 26 25  2  0  0  0  0
 27 26  1  0  0  0  0
 27 22  2  0  0  0  0
 28 22  1  0  0  0  0
 30 26  1  0  0  0  0
 31 33  1  0  0  0  0
 33 32  2  6  0  0  0
 33 36  1  0  0  0  0
 33 34  1  0  0  0  0
 34 35  1  0  0  0  0
 36 38  1  0  0  0  0
 37 38  2  0  0  0  0
 37 47  1  0  0  0  0
 38 39  1  0  0  0  0
 39 40  1  0  0  0  0
 39 41  2  0  0  0  0
 41 42  1  0  0  0  0
 42 43  1  0  0  0  0
 42 48  1  0  0  0  0
 43 44  1  0  0  0  0
 45 43  2  0  0  0  0
 46 41  1  0  0  0  0
 46 45  1  0  0  0  0
 47 46  2  0  0  0  0
M  END
>  <minimizedAffinity>
-4.68461323

>  <minimizedRMSD>
1.25342584

$$$$
