
     RDKit          3D

 30 32  0  0  0  0  0  0  0  0999 V2000
   45.4306   35.1992   43.0949 C   0  0  0  0  0  0  0  0  0  0  0  0
   46.4543   35.5597   42.2137 C   0  0  0  0  0  0  0  0  0  0  0  0
   47.6857   34.8792   42.3797 C   0  0  0  0  0  0  0  0  0  0  0  0
   47.7679   33.9463   43.3672 N   0  0  0  0  0  0  0  0  0  0  0  0
   46.7399   33.6476   44.1824 C   0  0  0  0  0  0  0  0  0  0  0  0
   45.5643   34.2727   44.0510 N   0  0  0  0  0  0  0  0  0  0  0  0
   43.4015   35.3512   41.8893 C   0  0  0  0  0  0  0  0  0  0  0  0
   43.9554   34.4615   41.1575 O   0  0  0  0  0  0  0  0  0  0  0  0
   44.1533   35.8408   42.9935 N   0  0  0  0  0  0  0  0  0  0  0  0
   48.7347   35.2736   41.4493 C   0  0  0  0  0  0  0  0  0  0  0  0
   49.8510   34.4519   41.6660 F   0  0  0  0  0  0  0  0  0  0  0  0
   49.1452   36.5480   41.8093 F   0  0  0  0  0  0  0  0  0  0  0  0
   48.3883   35.1402   40.1422 F   0  0  0  0  0  0  0  0  0  0  0  0
   46.2272   36.3185   41.4863 H   0  0  0  0  0  0  0  0  0  0  0  0
   46.9302   32.8860   44.9302 H   0  0  0  0  0  0  0  0  0  0  0  0
   43.8000   36.5623   43.6206 H   0  0  0  0  0  0  0  0  0  0  0  0
   40.8847   35.1534   41.8612 C   0  0  0  0  0  0  0  0  0  0  0  0
   42.0546   35.8482   41.6095 C   0  0  0  0  0  0  0  0  0  0  0  0
   41.9335   37.0944   41.0567 C   0  0  0  0  0  0  0  0  0  0  0  0
   42.8091   37.6679   40.8447 H   0  0  0  0  0  0  0  0  0  0  0  0
   40.6883   37.6507   40.7556 C   0  0  0  0  0  0  0  0  0  0  0  0
   40.2986   38.8350   40.2176 N   0  0  0  0  0  0  0  0  0  0  0  0
   38.9389   38.8511   40.1484 C   0  0  0  0  0  0  0  0  0  0  0  0
   38.2931   39.6467   39.7694 H   0  0  0  0  0  0  0  0  0  0  0  0
   38.4716   37.6909   40.6366 N   0  0  0  0  0  0  0  0  0  0  0  0
   39.5245   36.9446   41.0124 C   0  0  0  0  0  0  0  0  0  0  0  0
   39.6464   35.6873   41.5702 C   0  0  0  0  0  0  0  0  0  0  0  0
   40.9766   34.1682   42.2982 H   0  0  0  0  0  0  0  0  0  0  0  0
   40.9310   39.6127   39.9049 H   0  0  0  0  0  0  0  0  0  0  0  0
   38.7704   35.0864   41.7941 H   0  0  0  0  0  0  0  0  0  0  0  0
  1  6  2  0
  2  3  2  0
  2  1  1  0
  3  4  1  0
  4  5  2  0
  6  5  1  0
  7  9  1  0
  8  7  2  0
  9  1  1  0
 10 11  1  0
 10 12  1  0
 10  3  1  0
 13 10  1  0
  2 14  1  0
  5 15  1  0
  9 16  1  0
 17 18  2  0
 18 19  1  0
 19 20  1  0
 19 21  2  0
 21 22  1  0
 22 23  1  0
 23 24  1  0
 23 25  2  0
 25 26  1  0
 26 27  2  0
 27 17  1  0
 26 21  1  0
 17 28  1  0
 22 29  1  0
 27 30  1  0
  7 18  1  0
M  ISO  4  14  14  15  14  20  15  24  14
M  END
>  <DihAtoms>  (1) 
8,6,17,16

>  <DihDeg>  (1) 
-0.0003889786565267465

$$$$
