
 OpenBabel03252501513D

 48 52  0  0  1  0  0  0  0  0999 V2000
   48.2750   34.9760   41.9310 C   0  0  0  0  0  0  0  0  0  0  0  0
   48.1210   34.7350   43.0050 H   0  0  0  0  0  0  0  0  0  0  0  0
   48.5900   36.0450   41.8290 H   0  0  0  0  0  0  0  0  0  0  0  0
   49.3160   34.1240   41.4330 N   0  0  0  0  0  0  0  0  0  0  0  0
   50.2660   33.8180   42.4520 C   0  0  0  0  0  0  0  0  0  0  0  0
   50.7720   32.4210   42.2060 C   0  0  0  0  0  0  0  0  0  0  0  0
   49.6310   31.7860   41.4790 C   0  0  0  0  0  0  0  0  0  0  0  0
   48.8070   32.9120   40.8860 C   0  0  2  0  0  0  0  0  0  0  0  0
   51.0580   34.5740   42.5730 H   0  0  0  0  0  0  0  0  0  0  0  0
   49.7240   33.7710   43.4410 H   0  0  0  0  0  0  0  0  0  0  0  0
   51.0190   31.8830   43.1440 H   0  0  0  0  0  0  0  0  0  0  0  0
   51.6650   32.5110   41.5510 H   0  0  0  0  0  0  0  0  0  0  0  0
   50.0130   31.1730   40.6200 H   0  0  0  0  0  0  0  0  0  0  0  0
   49.0450   31.0950   42.1080 H   0  0  0  0  0  0  0  0  0  0  0  0
   47.7680   32.7660   41.2370 H   0  0  0  0  0  0  0  0  0  0  0  0
   47.8110   33.7280   38.9180 C   0  0  0  0  0  0  0  0  0  0  0  0
   48.7930   32.8570   39.4050 C   0  0  0  0  0  0  0  0  0  0  0  0
   49.5400   32.1400   38.4950 C   0  0  0  0  0  0  0  0  0  0  0  0
   50.2580   31.5110   39.0160 H   0  0  0  0  0  0  0  0  0  0  0  0
   49.3220   32.2810   37.1520 C   0  0  0  0  0  0  0  0  0  0  0  0
   49.9750   31.6470   36.1530 N   0  0  0  0  0  0  0  0  0  0  0  0
   49.4110   32.1110   35.0130 C   0  0  0  0  0  0  0  0  0  0  0  0
   49.7530   31.7600   34.0330 H   0  0  0  0  0  0  0  0  0  0  0  0
   48.4440   33.0020   35.3260 N   0  0  0  0  0  0  0  0  0  0  0  0
   48.3570   33.1370   36.6660 C   0  0  0  0  0  0  0  0  0  0  0  0
   47.5900   33.8700   37.5450 C   0  0  0  0  0  0  0  0  0  0  0  0
   50.7500   30.9470   36.2330 H   0  0  0  0  0  0  0  0  0  0  0  0
   45.8220   34.9460   41.9550 C   0  0  0  0  0  0  0  0  0  0  0  0
   46.9530   34.7290   41.2660 C   0  0  0  0  0  0  0  0  0  0  0  0
   44.1870   33.5600   40.5550 C   0  0  0  0  0  0  0  0  0  0  0  0
   44.4980   34.7130   41.3360 C   0  0  0  0  0  0  0  0  0  0  0  0
   43.5040   35.6850   41.5360 C   0  0  0  0  0  0  0  0  0  0  0  0
   42.2820   35.4760   40.9690 N   0  0  0  0  0  0  0  0  0  0  0  0
   42.0310   34.3730   40.2390 C   0  0  0  0  0  0  0  0  0  0  0  0
   42.9800   33.4540   40.0530 N   0  0  0  0  0  0  0  0  0  0  0  0
   44.9970   32.8450   40.4360 H   0  0  0  0  0  0  0  0  0  0  0  0
   43.7420   36.5440   42.1200 H   0  0  0  0  0  0  0  0  0  0  0  0
   39.8480   33.6100   41.7650 F   0  0  0  0  0  0  0  0  0  0  0  0
   39.6310   33.8170   40.4440 C   0  0  0  0  0  0  0  0  0  0  0  0
   40.7070   34.2010   39.6560 C   0  0  0  0  0  0  0  0  0  0  0  0
   40.5780   34.4370   38.2870 C   0  0  0  0  0  0  0  0  0  0  0  0
   39.3060   34.2680   37.7450 C   0  0  0  0  0  0  0  0  0  0  0  0
   38.2010   33.8800   38.5280 C   0  0  0  0  0  0  0  0  0  0  0  0
   38.3770   33.6560   39.8820 C   0  0  0  0  0  0  0  0  0  0  0  0
   41.4060   34.7360   37.6580 H   0  0  0  0  0  0  0  0  0  0  0  0
   39.2320   34.4580   36.6770 H   0  0  0  0  0  0  0  0  0  0  0  0
   37.2460   33.7690   38.0390 H   0  0  0  0  0  0  0  0  0  0  0  0
   37.5330   33.3620   40.4680 H   0  0  0  0  0  0  0  0  0  0  0  0
  1  2  1  0  0  0  0
  3  1  1  0  0  0  0
  4  1  1  0  0  0  0
  4  5  1  0  0  0  0
  5  9  1  0  0  0  0
  5 10  1  0  0  0  0
  6  5  1  0  0  0  0
  6 11  1  0  0  0  0
  7 14  1  0  0  0  0
  7  6  1  0  0  0  0
  8 15  1  1  0  0  0
  8  4  1  0  0  0  0
  8  7  1  0  0  0  0
 12  6  1  0  0  0  0
 13  7  1  0  0  0  0
 16 17  1  0  0  0  0
 17  8  1  0  0  0  0
 18 19  1  0  0  0  0
 18 17  2  0  0  0  0
 20 18  1  0  0  0  0
 21 27  1  0  0  0  0
 21 20  1  0  0  0  0
 22 24  2  0  0  0  0
 22 21  1  0  0  0  0
 23 22  1  0  0  0  0
 24 25  1  0  0  0  0
 25 20  2  0  0  0  0
 25 26  1  0  0  0  0
 26 16  2  0  0  0  0
 29  1  1  0  0  0  0
 29 28  2  0  0  0  0
 30 31  1  0  0  0  0
 31 32  2  0  0  0  0
 31 28  1  0  0  0  0
 32 37  1  0  0  0  0
 33 32  1  0  0  0  0
 34 33  2  0  0  0  0
 35 34  1  0  0  0  0
 35 30  2  0  0  0  0
 36 30  1  0  0  0  0
 39 38  1  0  0  0  0
 40 34  1  0  0  0  0
 40 39  2  0  0  0  0
 41 40  1  0  0  0  0
 42 41  2  0  0  0  0
 42 43  1  0  0  0  0
 43 44  2  0  0  0  0
 44 39  1  0  0  0  0
 44 48  1  0  0  0  0
 45 41  1  0  0  0  0
 46 42  1  0  0  0  0
 47 43  1  0  0  0  0
M  END
>  <minimizedAffinity>
-7.23828554

>  <minimizedRMSD>
0.49556163

$$$$
