
 OpenBabel03252500283D

 46 49  0  0  1  0  0  0  0  0999 V2000
   47.0580   33.2360   46.5230 O   0  0  0  0  0  0  0  0  0  0  0  0
   45.5980   32.9600   46.4590 P   0  0  1  0  0  0  0  0  0  0  0  0
   45.2960   31.8440   45.2210 O   0  0  0  0  0  0  0  0  0  0  0  0
   45.8540   32.0340   44.4210 H   0  0  0  0  0  0  0  0  0  0  0  0
   45.1590   32.3160   47.9120 O   0  0  0  0  0  0  0  0  0  0  0  0
   47.1190   30.9550   47.9780 C   0  0  2  0  0  0  0  0  0  0  0  0
   45.6410   31.0370   48.0320 C   0  0  2  0  0  0  0  0  0  0  0  0
   45.1470   30.1400   47.0090 C   0  0  0  0  0  0  0  0  0  0  0  0
   46.1380   29.1890   46.7270 O   0  0  0  0  0  0  0  0  0  0  0  0
   47.1410   29.4190   47.6070 C   0  0  0  0  0  0  0  0  0  0  0  0
   47.6280   31.2680   47.0520 H   0  0  0  0  0  0  0  0  0  0  0  0
   45.4180   30.7810   49.1070 H   0  0  0  0  0  0  0  0  0  0  0  0
   44.4520   30.3880   46.2370 H   0  0  0  0  0  0  0  0  0  0  0  0
   44.4540   29.4380   47.5980 H   0  0  0  0  0  0  0  0  0  0  0  0
   46.8440   28.9600   48.5900 H   0  0  0  0  0  0  0  0  0  0  0  0
   48.1480   29.1060   47.3440 H   0  0  0  0  0  0  0  0  0  0  0  0
   47.7900   31.0980   49.1330 O   0  0  0  0  0  0  0  0  0  0  0  0
   49.0530   31.3920   49.2570 C   0  0  0  0  0  0  0  0  0  0  0  0
   49.3790   32.3940   49.2460 H   0  0  0  0  0  0  0  0  0  0  0  0
   49.5700   31.0440   48.2050 H   0  0  0  0  0  0  0  0  0  0  0  0
   49.6730   30.4380   50.2660 C   0  0  0  0  0  0  0  0  0  0  0  0
   49.1110   29.4970   50.3210 H   0  0  0  0  0  0  0  0  0  0  0  0
   49.7630   30.9210   51.2680 H   0  0  0  0  0  0  0  0  0  0  0  0
   50.7160   30.2140   49.9540 H   0  0  0  0  0  0  0  0  0  0  0  0
   44.8490   34.4610   46.1470 O   0  0  0  0  0  0  0  0  0  0  0  0
   45.3340   36.7750   43.4460 C   0  0  0  0  0  0  0  0  0  0  0  0
   44.6850   36.1630   42.3490 C   0  0  0  0  0  0  0  0  0  0  0  0
   44.0760   34.9140   42.6010 C   0  0  0  0  0  0  0  0  0  0  0  0
   44.1460   34.3890   43.8400 N   0  0  0  0  0  0  0  0  0  0  0  0
   44.7730   35.0050   44.8530 C   0  0  0  0  0  0  0  0  0  0  0  0
   45.3590   36.1900   44.6420 N   0  0  0  0  0  0  0  0  0  0  0  0
   44.6510   36.6170   41.3710 H   0  0  0  0  0  0  0  0  0  0  0  0
   43.5810   34.4420   41.7760 H   0  0  0  0  0  0  0  0  0  0  0  0
   45.9400   37.9830   43.2550 O   0  0  0  0  0  0  0  0  0  0  0  0
   45.2640   40.2940   43.0640 C   0  0  0  0  0  3  0  0  0  0  0  0
   45.4990   39.1630   43.8250 C   0  0  0  0  0  0  0  0  0  0  0  0
   45.3230   39.0900   45.2010 C   0  0  0  0  0  0  0  0  0  0  0  0
   45.5080   38.2120   45.7760 H   0  0  0  0  0  0  0  0  0  0  0  0
   44.8810   40.2370   45.8510 C   0  0  0  0  0  0  0  0  0  0  0  0
   44.6180   40.4840   47.1600 N   0  0  0  0  0  0  0  0  0  0  0  0
   44.2150   41.7710   47.2360 C   0  0  0  0  0  0  0  0  0  0  0  0
   43.9300   42.2740   48.1500 H   0  0  0  0  0  0  0  0  0  0  0  0
   44.2220   42.3230   46.0150 N   0  0  0  0  0  0  0  0  0  0  0  0
   44.6320   41.3900   45.1350 C   0  0  0  0  0  0  0  0  0  0  0  0
   44.8210   41.4210   43.7560 C   0  0  0  0  0  3  0  0  0  0  0  0
   44.7310   39.7650   47.8970 H   0  0  0  0  0  0  0  0  0  0  0  0
  2  1  2  1  0  0  0
  2  5  1  0  0  0  0
  3  2  1  0  0  0  0
  4  3  1  0  0  0  0
  5  7  1  0  0  0  0
  6 11  1  6  0  0  0
  6  7  1  0  0  0  0
  6 17  1  0  0  0  0
  7 12  1  1  0  0  0
  8 14  1  0  0  0  0
  8  7  1  0  0  0  0
  9  8  1  0  0  0  0
  9 10  1  0  0  0  0
 10  6  1  0  0  0  0
 10 15  1  0  0  0  0
 13  8  1  0  0  0  0
 16 10  1  0  0  0  0
 17 18  1  0  0  0  0
 18 21  1  0  0  0  0
 19 18  1  0  0  0  0
 20 18  1  0  0  0  0
 21 22  1  0  0  0  0
 21 23  1  0  0  0  0
 24 21  1  0  0  0  0
 25  2  1  0  0  0  0
 26 31  1  0  0  0  0
 27 28  1  0  0  0  0
 27 26  2  0  0  0  0
 28 29  2  0  0  0  0
 29 30  1  0  0  0  0
 30 25  1  0  0  0  0
 31 30  2  0  0  0  0
 32 27  1  0  0  0  0
 33 28  1  0  0  0  0
 34 26  1  0  0  0  0
 34 36  1  0  0  0  0
 35 45  2  0  0  0  0
 35 36  1  0  0  0  0
 36 37  2  0  0  0  0
 37 38  1  0  0  0  0
 37 39  1  0  0  0  0
 39 40  1  0  0  0  0
 40 41  1  0  0  0  0
 40 46  1  0  0  0  0
 41 42  1  0  0  0  0
 43 41  2  0  0  0  0
 44 39  2  0  0  0  0
 44 43  1  0  0  0  0
 45 44  1  0  0  0  0
M  END
>  <minimizedAffinity>
-2.24840212

>  <minimizedRMSD>
1.07055032

$$$$
