
 OpenBabel03252506373D

 47 51  0  0  1  0  0  0  0  0999 V2000
   46.6260   30.0400   46.5020 S   0  0  0  0  0  0  0  0  0  0  0  0
   44.5070   35.5380   45.1310 C   0  0  0  0  0  0  0  0  0  0  0  0
   45.1560   35.5370   43.8790 C   0  0  0  0  0  0  0  0  0  0  0  0
   46.0720   34.5790   43.6110 C   0  0  0  0  0  0  0  0  0  0  0  0
   46.3110   33.6610   44.5800 N   0  0  0  0  0  0  0  0  0  0  0  0
   45.6980   33.6650   45.7550 C   0  0  0  0  0  0  0  0  0  0  0  0
   44.7910   34.5980   46.0500 N   0  0  0  0  0  0  0  0  0  0  0  0
   46.0320   32.6440   46.7110 N   0  0  0  0  0  0  0  0  0  0  0  0
   45.3000   32.3900   47.8970 C   0  0  0  0  0  0  0  0  0  0  0  0
   46.3770   32.0300   48.9020 C   0  0  0  0  0  0  0  0  0  0  0  0
   47.6560   31.9280   48.1250 C   0  0  0  0  0  0  0  0  0  0  0  0
   47.1470   31.7300   46.6980 C   0  0  1  0  0  0  0  0  0  0  0  0
   43.7800   36.3150   45.3230 H   0  0  0  0  0  0  0  0  0  0  0  0
   46.5730   34.5590   42.6720 H   0  0  0  0  0  0  0  0  0  0  0  0
   44.4980   31.7350   47.9970 H   0  0  0  0  0  0  0  0  0  0  0  0
   44.9310   33.3980   48.2660 H   0  0  0  0  0  0  0  0  0  0  0  0
   46.4960   32.7380   49.7210 H   0  0  0  0  0  0  0  0  0  0  0  0
   46.1330   31.0430   49.3850 H   0  0  0  0  0  0  0  0  0  0  0  0
   48.2300   31.0200   48.4260 H   0  0  0  0  0  0  0  0  0  0  0  0
   48.2490   32.8420   48.2420 H   0  0  0  0  0  0  0  0  0  0  0  0
   47.9800   32.0300   46.0390 H   0  0  0  0  0  0  0  0  0  0  0  0
   44.7930   36.5790   42.9560 N   0  0  0  0  0  0  0  0  0  0  0  0
   45.5800   36.8720   42.3460 H   0  0  0  0  0  0  0  0  0  0  0  0
   43.8560   37.0080   42.8880 H   0  0  0  0  0  0  0  0  0  0  0  0
   45.6120   30.5730   43.3710 O   0  0  0  0  0  0  0  0  0  0  0  0
   44.9820   30.0190   44.2850 C   0  0  0  0  0  0  0  0  0  0  0  0
   45.0780   29.7690   45.7440 C   0  0  1  0  0  0  0  0  0  0  0  0
   44.5370   28.3660   45.8580 C   0  0  0  0  0  0  0  0  0  0  0  0
   43.2240   28.5880   45.0980 C   0  0  0  0  0  0  0  0  0  0  0  0
   43.7340   29.3680   43.9780 N   0  0  0  0  0  0  0  0  0  0  0  0
   44.1940   30.3680   46.1010 H   0  0  0  0  0  0  0  0  0  0  0  0
   45.1130   27.6380   45.2560 H   0  0  0  0  0  0  0  0  0  0  0  0
   44.3310   28.0580   46.8890 H   0  0  0  0  0  0  0  0  0  0  0  0
   42.8740   27.6030   44.7560 H   0  0  0  0  0  0  0  0  0  0  0  0
   42.4890   29.1450   45.7000 H   0  0  0  0  0  0  0  0  0  0  0  0
   42.1480   30.5020   42.6430 C   0  0  0  0  0  3  0  0  0  0  0  0
   42.9400   29.3720   42.7700 C   0  0  0  0  0  0  0  0  0  0  0  0
   42.9290   28.3930   41.8160 C   0  0  0  0  0  0  0  0  0  0  0  0
   43.5760   27.5450   41.9920 H   0  0  0  0  0  0  0  0  0  0  0  0
   42.1160   28.5260   40.7020 C   0  0  0  0  0  0  0  0  0  0  0  0
   41.9310   27.7150   39.6440 N   0  0  0  0  0  0  0  0  0  0  0  0
   41.0170   28.3360   38.8440 C   0  0  0  0  0  0  0  0  0  0  0  0
   40.6220   27.9670   37.8880 H   0  0  0  0  0  0  0  0  0  0  0  0
   40.6300   29.5030   39.3710 N   0  0  0  0  0  0  0  0  0  0  0  0
   41.2970   29.6460   40.5270 C   0  0  0  0  0  0  0  0  0  0  0  0
   41.3410   30.6220   41.5270 C   0  0  0  0  0  3  0  0  0  0  0  0
   42.3930   26.7930   39.4660 H   0  0  0  0  0  0  0  0  0  0  0  0
  1 12  1  0  0  0  0
  2 13  1  0  0  0  0
  2  7  1  0  0  0  0
  3  2  2  0  0  0  0
  4  3  1  0  0  0  0
  4  5  2  0  0  0  0
  5  6  1  0  0  0  0
  6  7  2  0  0  0  0
  6  8  1  0  0  0  0
  8  9  1  0  0  0  0
  9 15  1  0  0  0  0
  9 16  1  0  0  0  0
  9 10  1  0  0  0  0
 10 18  1  0  0  0  0
 10 17  1  0  0  0  0
 11 20  1  0  0  0  0
 11 19  1  0  0  0  0
 11 10  1  0  0  0  0
 12 21  1  6  0  0  0
 12  8  1  0  0  0  0
 12 11  1  0  0  0  0
 14  4  1  0  0  0  0
 22  3  1  0  0  0  0
 23 22  1  0  0  0  0
 24 22  1  0  0  0  0
 25 26  2  0  0  0  0
 26 27  1  0  0  0  0
 27 28  1  0  0  0  0
 27 31  1  1  0  0  0
 27  1  1  0  0  0  0
 28 33  1  0  0  0  0
 29 35  1  0  0  0  0
 29 28  1  0  0  0  0
 30 26  1  0  0  0  0
 30 29  1  0  0  0  0
 32 28  1  0  0  0  0
 34 29  1  0  0  0  0
 36 37  1  0  0  0  0
 37 30  1  0  0  0  0
 38 39  1  0  0  0  0
 38 37  2  0  0  0  0
 40 38  1  0  0  0  0
 41 40  1  0  0  0  0
 42 44  2  0  0  0  0
 42 41  1  0  0  0  0
 43 42  1  0  0  0  0
 44 45  1  0  0  0  0
 45 40  2  0  0  0  0
 45 46  1  0  0  0  0
 46 36  2  0  0  0  0
 47 41  1  0  0  0  0
M  END
>  <minimizedAffinity>
-5.46110868

>  <minimizedRMSD>
0.173478335

$$$$
