
 OpenBabel03252507323D

 52 56  0  0  1  0  0  0  0  0999 V2000
   46.9520   32.7820   45.4490 C   0  0  0  0  0  0  0  0  0  0  0  0
   45.8540   33.4580   45.9590 C   0  0  0  0  0  0  0  0  0  0  0  0
   45.1780   34.4020   45.1500 C   0  0  0  0  0  0  0  0  0  0  0  0
   45.6820   34.5890   43.8650 N   0  0  0  0  0  0  0  0  0  0  0  0
   46.7470   33.9060   43.4370 C   0  0  0  0  0  0  0  0  0  0  0  0
   47.3710   33.0180   44.2130 N   0  0  0  0  0  0  0  0  0  0  0  0
   45.3360   33.4970   46.8930 H   0  0  0  0  0  0  0  0  0  0  0  0
   44.3250   35.0020   45.3790 H   0  0  0  0  0  0  0  0  0  0  0  0
   47.5950   31.8090   46.3100 C   0  0  2  0  0  0  0  0  0  0  0  0
   47.3430   30.3520   45.8110 C   0  0  0  0  0  0  0  0  0  0  0  0
   48.1570   29.4060   46.6280 C   0  0  0  0  0  0  0  0  0  0  0  0
   48.1480   29.6380   48.1020 C   0  0  0  0  0  0  0  0  0  0  0  0
   48.1510   31.0280   48.4870 C   0  0  0  0  0  0  0  0  0  0  0  0
   47.1560   31.8980   47.6870 C   0  0  2  0  0  0  0  0  0  0  0  0
   48.7030   31.8960   46.1850 H   0  0  0  0  0  0  0  0  0  0  0  0
   46.2690   30.1350   45.7690 H   0  0  0  0  0  0  0  0  0  0  0  0
   47.7050   30.3710   44.7630 H   0  0  0  0  0  0  0  0  0  0  0  0
   49.1490   29.3530   46.1400 H   0  0  0  0  0  0  0  0  0  0  0  0
   47.7110   28.3800   46.4730 H   0  0  0  0  0  0  0  0  0  0  0  0
   47.7740   28.8440   48.7480 H   0  0  0  0  0  0  0  0  0  0  0  0
   49.2610   29.3830   48.3290 H   0  0  0  0  0  0  0  0  0  0  0  0
   49.1090   31.6010   48.4290 H   0  0  0  0  0  0  0  0  0  0  0  0
   47.8310   31.1250   49.5580 H   0  0  0  0  0  0  0  0  0  0  0  0
   47.2770   32.8630   48.1820 H   0  0  0  0  0  0  0  0  0  0  0  0
   45.8170   31.3220   47.8240 N   0  0  0  0  0  0  0  0  0  0  0  0
   45.1590   30.7460   48.9230 C   0  0  0  0  0  0  0  0  0  0  0  0
   44.6480   31.4390   49.8750 O   0  0  0  0  0  0  0  0  0  0  0  0
   45.0910   29.3200   48.8980 N   0  0  0  0  0  0  0  0  0  0  0  0
   45.1490   31.2150   46.9700 H   0  0  0  0  0  0  0  0  0  0  0  0
   44.7710   28.6750   48.1720 H   0  0  0  0  0  0  0  0  0  0  0  0
   45.4100   28.7850   49.7360 H   0  0  0  0  0  0  0  0  0  0  0  0
   47.2400   34.1650   42.0800 C   0  0  0  0  0  0  0  0  0  0  0  0
   48.1660   35.1550   41.8380 C   0  0  0  0  0  0  0  0  0  0  0  0
   48.6750   35.4560   40.5930 C   0  0  0  0  0  0  0  0  0  0  0  0
   48.1870   34.6810   39.5650 C   0  0  0  0  0  0  0  0  0  0  0  0
   47.2630   33.6890   39.7890 C   0  0  0  0  0  0  0  0  0  0  0  0
   46.7900   33.4310   41.0490 N   0  0  0  0  0  0  0  0  0  0  0  0
   48.5010   35.7230   42.7000 H   0  0  0  0  0  0  0  0  0  0  0  0
   49.3910   36.2290   40.4400 H   0  0  0  0  0  0  0  0  0  0  0  0
   48.5540   34.8770   38.5690 H   0  0  0  0  0  0  0  0  0  0  0  0
   45.8160   33.3790   37.8350 C   0  0  0  0  0  3  0  0  0  0  0  0
   46.7280   32.8520   38.7240 C   0  0  0  0  0  0  0  0  0  0  0  0
   47.0640   31.5390   38.5250 C   0  0  0  0  0  0  0  0  0  0  0  0
   47.7640   31.0700   39.1790 H   0  0  0  0  0  0  0  0  0  0  0  0
   46.5550   30.7490   37.5160 C   0  0  0  0  0  0  0  0  0  0  0  0
   46.7670   29.4520   37.1700 N   0  0  0  0  0  0  0  0  0  0  0  0
   46.0130   29.1820   36.1020 C   0  0  0  0  0  0  0  0  0  0  0  0
   46.0210   28.1950   35.6450 H   0  0  0  0  0  0  0  0  0  0  0  0
   45.3180   30.3050   35.7650 N   0  0  0  0  0  0  0  0  0  0  0  0
   45.6370   31.2950   36.6280 C   0  0  0  0  0  0  0  0  0  0  0  0
   45.2750   32.6140   36.7980 C   0  0  0  0  0  3  0  0  0  0  0  0
   47.4140   28.8060   37.6730 H   0  0  0  0  0  0  0  0  0  0  0  0
  1  2  1  0  0  0  0
  1  9  1  0  0  0  0
  2  7  1  0  0  0  0
  3  8  1  0  0  0  0
  3  2  2  0  0  0  0
  4  3  1  0  0  0  0
  5  4  2  0  0  0  0
  5  6  1  0  0  0  0
  6  1  2  0  0  0  0
  9 15  1  6  0  0  0
  9 14  1  0  0  0  0
 10  9  1  0  0  0  0
 10 11  1  0  0  0  0
 11 12  1  0  0  0  0
 12 21  1  0  0  0  0
 12 13  1  0  0  0  0
 12 20  1  0  0  0  0
 13 23  1  0  0  0  0
 14 25  1  0  0  0  0
 14 24  1  1  0  0  0
 14 13  1  0  0  0  0
 16 10  1  0  0  0  0
 17 10  1  0  0  0  0
 18 11  1  0  0  0  0
 19 11  1  0  0  0  0
 22 13  1  0  0  0  0
 25 26  1  0  0  0  0
 26 27  2  0  0  0  0
 28 26  1  0  0  0  0
 28 31  1  0  0  0  0
 29 25  1  0  0  0  0
 30 28  1  0  0  0  0
 32  5  1  0  0  0  0
 33 32  1  0  0  0  0
 33 38  1  0  0  0  0
 34 33  2  0  0  0  0
 35 36  2  0  0  0  0
 35 34  1  0  0  0  0
 36 37  1  0  0  0  0
 37 32  2  0  0  0  0
 39 34  1  0  0  0  0
 40 35  1  0  0  0  0
 41 42  1  0  0  0  0
 42 36  1  0  0  0  0
 43 42  2  0  0  0  0
 43 44  1  0  0  0  0
 45 43  1  0  0  0  0
 46 45  1  0  0  0  0
 46 52  1  0  0  0  0
 47 46  1  0  0  0  0
 48 47  1  0  0  0  0
 49 47  2  0  0  0  0
 49 50  1  0  0  0  0
 50 51  1  0  0  0  0
 50 45  2  0  0  0  0
 51 41  2  0  0  0  0
M  END
>  <minimizedAffinity>
-6.44329596

>  <minimizedRMSD>
0.222866461

$$$$
