
     RDKit          3D

 33 36  0  0  0  0  0  0  0  0999 V2000
   45.5286   34.1462   44.4136 C   0  0  0  0  0  0  0  0  0  0  0  0
   46.5044   33.6043   43.5371 C   0  0  0  0  0  0  0  0  0  0  0  0
   47.3974   32.6739   44.0612 C   0  0  0  0  0  0  0  0  0  0  0  0
   47.2848   32.3409   45.3724 N   0  0  0  0  0  0  0  0  0  0  0  0
   46.3369   32.8844   46.1738 C   0  0  0  0  0  0  0  0  0  0  0  0
   45.4566   33.7922   45.6824 N   0  0  0  0  0  0  0  0  0  0  0  0
   46.3949   32.3887   47.5892 C   0  0  0  0  0  0  0  0  0  0  0  0
   45.3844   32.9143   48.3549 F   0  0  0  0  0  0  0  0  0  0  0  0
   47.6172   32.7486   48.1626 F   0  0  0  0  0  0  0  0  0  0  0  0
   46.3865   30.9986   47.5757 F   0  0  0  0  0  0  0  0  0  0  0  0
   44.5641   35.1592   43.8873 C   0  0  1  0  0  0  0  0  0  0  0  0
   44.8902   36.6084   44.3200 C   0  0  0  0  0  0  0  0  0  0  0  0
   44.9719   36.1574   42.8977 C   0  0  2  0  0  0  0  0  0  0  0  0
   46.5587   33.8987   42.4979 H   0  0  0  0  0  0  0  0  0  0  0  0
   48.1657   32.2163   43.4630 H   0  0  0  0  0  0  0  0  0  0  0  0
   43.5026   34.9233   44.1658 H   0  0  0  0  0  0  0  0  0  0  0  0
   44.0564   37.2844   44.5528 H   0  0  0  0  0  0  0  0  0  0  0  0
   45.8186   36.7570   44.8757 H   0  0  0  0  0  0  0  0  0  0  0  0
   45.9761   36.0949   42.4772 H   0  0  0  0  0  0  0  0  0  0  0  0
   44.2432   36.8178   40.6323 C   0  0  0  0  0  0  0  0  0  0  0  0
   43.9136   36.5600   41.9335 C   0  0  0  0  0  0  0  0  0  0  0  0
   42.5895   36.6912   42.2849 C   0  0  0  0  0  0  0  0  0  0  0  0
   42.2993   36.4934   43.3087 H   0  0  0  0  0  0  0  0  0  0  0  0
   41.6099   37.0632   41.3949 C   0  0  0  0  0  0  0  0  0  0  0  0
   40.2621   37.2652   41.4661 N   0  0  0  0  0  0  0  0  0  0  0  0
   39.7884   37.6288   40.2678 C   0  0  0  0  0  0  0  0  0  0  0  0
   38.7517   37.8628   39.9938 H   0  0  0  0  0  0  0  0  0  0  0  0
   40.8375   37.6597   39.4261 N   0  0  0  0  0  0  0  0  0  0  0  0
   41.9724   37.3199   40.0756 C   0  0  0  0  0  0  0  0  0  0  0  0
   43.3084   37.1960   39.6863 C   0  0  0  0  0  0  0  0  0  0  0  0
   45.2719   36.7289   40.3054 H   0  0  0  0  0  0  0  0  0  0  0  0
   39.6867   37.1503   42.3372 H   0  0  0  0  0  0  0  0  0  0  0  0
   43.6032   37.3909   38.6711 H   0  0  0  0  0  0  0  0  0  0  0  0
  1  6  2  0
  2  3  2  0
  2  1  1  0
  3  4  1  0
  4  5  2  0
  5  7  1  0
  6  5  1  0
  7  9  1  0
  7  8  1  0
 10  7  1  0
 11 12  1  0
 11  1  1  0
 13 11  1  0
 13 12  1  0
  2 14  1  0
  3 15  1  0
 11 16  1  6
 12 17  1  0
 12 18  1  0
 13 19  1  6
 20 21  2  0
 21 22  1  0
 22 23  1  0
 22 24  2  0
 24 25  1  0
 25 26  1  0
 26 27  1  0
 26 28  2  0
 28 29  1  0
 29 30  2  0
 30 20  1  0
 29 24  1  0
 20 31  1  0
 25 32  1  0
 30 33  1  0
 13 21  1  0
M  ISO  8  14  14  15  14  16  13  17  13  18  13  19  13  23  15  27  14
M  END
>  <DihAtoms>  (1) 
10,12,20,19

>  <DihDeg>  (1) 
36.87259127366211

$$$$
