REMARK  Name = 
REMARK  4 active torsions:
REMARK  status: ('A' for Active; 'I' for Inactive)
REMARK    1  A    between atoms: C_1  and  C_6
REMARK    2  A    between atoms: C_3  and  C_14
REMARK    3  A    between atoms: C_4  and  C_10
REMARK    4  A    between atoms: C_17  and  C_28
REMARK                            x       y       z     vdW  Elec       q    Type
REMARK                         _______ _______ _______ _____ _____    ______ ____
ROOT
ATOM      1  C   UNL     1      46.633  32.525  44.075  0.00  0.00    +0.000 C 
ATOM      2  C   UNL     1      46.070  33.857  44.391  0.00  0.00    +0.000 C 
ATOM      3  C   UNL     1      47.565  33.642  43.937  0.00  0.00    +0.000 C 
ATOM      4  H   UNL     1      46.206  32.022  43.161  0.00  0.00    +0.000 HD
ATOM      5  H   UNL     1      45.990  34.225  45.425  0.00  0.00    +0.000 HD
ATOM      6  H   UNL     1      45.417  34.378  43.666  0.00  0.00    +0.000 HD
ATOM      7  H   UNL     1      48.302  33.828  44.717  0.00  0.00    +0.000 HD
ENDROOT
BRANCH   1  10
ATOM      8  C   UNL     1      46.149  30.799  47.376  0.00  0.00    +0.000 A 
ATOM      9  C   UNL     1      45.941  31.707  46.352  0.00  0.00    +0.000 A 
ATOM     10  C   UNL     1      46.762  31.594  45.236  0.00  0.00    +0.000 A 
ATOM     11  N   UNL     1      47.708  30.627  45.192  0.00  0.00    +0.000 NA
ATOM     12  C   UNL     1      47.874  29.756  46.225  0.00  0.00    +0.000 A 
ATOM     13  N   UNL     1      47.087  29.851  47.316  0.00  0.00    +0.000 NA
ATOM     14  H   UNL     1      45.198  32.482  46.365  0.00  0.00    +0.000 HD
ATOM     15  H   UNL     1      48.632  28.972  46.206  0.00  0.00    +0.000 HD
BRANCH   8  16
ATOM     16  C   UNL     1      45.269  30.895  48.586  0.00  0.00    +0.000 C 
ATOM     17  F   UNL     1      46.054  31.317  49.635  0.00  0.00    +0.000 F 
ATOM     18  F   UNL     1      44.826  29.621  48.871  0.00  0.00    +0.000 F 
ATOM     19  F   UNL     1      44.249  31.777  48.385  0.00  0.00    +0.000 F 
ENDBRANCH   8  16
ENDBRANCH   1  10
BRANCH   3  20
ATOM     20  C   UNL     1      47.804  34.130  42.551  0.00  0.00    +0.000 A 
ATOM     21  C   UNL     1      47.290  33.606  41.369  0.00  0.00    +0.000 A 
ATOM     22  C   UNL     1      47.828  34.440  40.410  0.00  0.00    +0.000 A 
ATOM     23  C   UNL     1      48.636  35.423  41.018  0.00  0.00    +0.000 A 
ATOM     24  O   UNL     1      48.558  35.154  42.291  0.00  0.00    +0.000 OA
ATOM     25  H   UNL     1      46.635  32.759  41.261  0.00  0.00    +0.000 HD
ATOM     26  H   UNL     1      47.637  34.327  39.335  0.00  0.00    +0.000 HD
BRANCH  23  28
ATOM     27  C   UNL     1      49.314  36.587  38.948  0.00  0.00    +0.000 A 
ATOM     28  C   UNL     1      49.368  36.478  40.322  0.00  0.00    +0.000 A 
ATOM     29  C   UNL     1      50.101  37.340  41.116  0.00  0.00    +0.000 A 
ATOM     30  H   UNL     1      50.145  37.255  42.207  0.00  0.00    +0.000 HD
ATOM     31  C   UNL     1      50.817  38.357  40.543  0.00  0.00    +0.000 A 
ATOM     32  N   UNL     1      51.600  39.323  41.037  0.00  0.00    +0.000 N 
ATOM     33  C   UNL     1      52.041  40.039  40.005  0.00  0.00    +0.000 A 
ATOM     34  H   UNL     1      52.703  40.909  40.011  0.00  0.00    +0.000 HD
ATOM     35  N   UNL     1      51.542  39.534  38.840  0.00  0.00    +0.000 NA
ATOM     36  C   UNL     1      50.765  38.468  39.171  0.00  0.00    +0.000 A 
ATOM     37  C   UNL     1      50.037  37.618  38.342  0.00  0.00    +0.000 A 
ATOM     38  H   UNL     1      51.829  39.492  42.057  0.00  0.00    +0.000 HD
ENDBRANCH  23  28
ENDBRANCH   3  20
TORSDOF 4
