REMARK  Name = 
REMARK  3 active torsions:
REMARK  status: ('A' for Active; 'I' for Inactive)
REMARK    1  A    between atoms: C_3  and  C_18
REMARK    2  A    between atoms: C_14  and  N_17
REMARK    3  A    between atoms: C_15  and  C_34
REMARK                            x       y       z     vdW  Elec       q    Type
REMARK                         _______ _______ _______ _____ _____    ______ ____
ROOT
ATOM      1  C   UNL     1      45.347  34.688  42.351  0.00  0.00    +0.000 A 
ATOM      2  C   UNL     1      46.471  35.213  41.651  0.00  0.00    +0.000 A 
ATOM      3  C   UNL     1      47.733  34.921  42.202  0.00  0.00    +0.000 A 
ATOM      4  N   UNL     1      47.779  34.184  43.322  0.00  0.00    +0.000 NA
ATOM      5  C   UNL     1      46.685  33.708  43.949  0.00  0.00    +0.000 A 
ATOM      6  N   UNL     1      45.458  33.968  43.451  0.00  0.00    +0.000 NA
ATOM      7  C   UNL     1      43.738  34.147  40.728  0.00  0.00    +0.000 C 
ATOM      8  O   UNL     1      44.647  33.372  40.271  0.00  0.00    +0.000 OA
ATOM      9  N   UNL     1      44.023  34.940  41.858  0.00  0.00    +0.000 N 
ATOM     10  N   UNL     1      42.492  34.151  40.057  0.00  0.00    +0.000 N 
ATOM     11  C   UNL     1      42.390  33.549  38.714  0.00  0.00    +0.000 C 
ATOM     12  C   UNL     1      41.317  34.376  38.075  0.00  0.00    +0.000 C 
ATOM     13  C   UNL     1      40.820  35.310  39.139  0.00  0.00    +0.000 C 
ATOM     14  C   UNL     1      41.194  34.630  40.434  0.00  0.00    +0.000 C 
ATOM     15  H   UNL     1      46.261  35.793  40.754  0.00  0.00    +0.000 HD
ATOM     16  H   UNL     1      46.778  33.117  44.854  0.00  0.00    +0.000 HD
ATOM     17  H   UNL     1      43.286  35.599  42.210  0.00  0.00    +0.000 HD
ATOM     18  H   UNL     1      42.026  32.500  38.765  0.00  0.00    +0.000 HD
ATOM     19  H   UNL     1      43.317  33.671  38.136  0.00  0.00    +0.000 HD
ATOM     20  H   UNL     1      41.652  34.909  37.163  0.00  0.00    +0.000 HD
ATOM     21  H   UNL     1      40.423  33.761  37.768  0.00  0.00    +0.000 HD
ATOM     22  H   UNL     1      41.624  36.129  39.107  0.00  0.00    +0.000 HD
ATOM     23  H   UNL     1      39.945  35.855  39.004  0.00  0.00    +0.000 HD
ATOM     24  H   UNL     1      41.118  35.424  41.184  0.00  0.00    +0.000 HD
ENDROOT
BRANCH  14  27
ATOM     25  C   UNL     1      38.901  33.497  40.727  0.00  0.00    +0.000 C 
ATOM     26  O   UNL     1      38.498  34.508  40.111  0.00  0.00    +0.000 OA
ATOM     27  N   UNL     1      40.346  33.506  40.808  0.00  0.00    +0.000 N 
ATOM     28  H   UNL     1      40.849  32.636  41.166  0.00  0.00    +0.000 HD
BRANCH  25  30
ATOM     29  C   UNL     1      36.704  32.381  41.250  0.00  0.00    +0.000 A 
ATOM     30  C   UNL     1      38.101  32.452  41.292  0.00  0.00    +0.000 A 
ATOM     31  C   UNL     1      38.821  31.449  41.922  0.00  0.00    +0.000 A 
ATOM     32  H   UNL     1      39.902  31.445  41.989  0.00  0.00    +0.000 HD
ATOM     33  C   UNL     1      38.199  30.358  42.525  0.00  0.00    +0.000 A 
ATOM     34  N   UNL     1      38.631  29.261  43.193  0.00  0.00    +0.000 N 
ATOM     35  C   UNL     1      37.510  28.570  43.531  0.00  0.00    +0.000 A 
ATOM     36  H   UNL     1      37.479  27.632  44.079  0.00  0.00    +0.000 HD
ATOM     37  N   UNL     1      36.408  29.210  43.091  0.00  0.00    +0.000 NA
ATOM     38  C   UNL     1      36.822  30.310  42.471  0.00  0.00    +0.000 A 
ATOM     39  C   UNL     1      36.085  31.293  41.851  0.00  0.00    +0.000 A 
ATOM     40  H   UNL     1      39.628  29.029  43.389  0.00  0.00    +0.000 HD
ENDBRANCH  25  30
ENDBRANCH  14  27
BRANCH   3  41
ATOM     41  C   UNL     1      48.866  35.474  41.461  0.00  0.00    +0.000 C 
ATOM     42  F   UNL     1      50.001  34.722  41.753  0.00  0.00    +0.000 F 
ATOM     43  F   UNL     1      49.115  36.746  42.002  0.00  0.00    +0.000 F 
ATOM     44  F   UNL     1      48.690  35.500  40.111  0.00  0.00    +0.000 F 
ENDBRANCH   3  41
TORSDOF 3
