
 OpenBabel03252506383D

 47 51  0  0  1  0  0  0  0  0999 V2000
   46.6390   30.0400   46.5130 S   0  0  0  0  0  0  0  0  0  0  0  0
   44.5050   35.5310   45.1340 C   0  0  0  0  0  0  0  0  0  0  0  0
   45.1590   35.5320   43.8840 C   0  0  0  0  0  0  0  0  0  0  0  0
   46.0780   34.5760   43.6190 C   0  0  0  0  0  0  0  0  0  0  0  0
   46.3170   33.6600   44.5890 N   0  0  0  0  0  0  0  0  0  0  0  0
   45.7010   33.6620   45.7620 C   0  0  0  0  0  0  0  0  0  0  0  0
   44.7900   34.5920   46.0540 N   0  0  0  0  0  0  0  0  0  0  0  0
   46.0360   32.6420   46.7190 N   0  0  0  0  0  0  0  0  0  0  0  0
   45.3010   32.3850   47.9030 C   0  0  0  0  0  0  0  0  0  0  0  0
   46.3760   32.0300   48.9120 C   0  0  0  0  0  0  0  0  0  0  0  0
   47.6570   31.9310   48.1390 C   0  0  0  0  0  0  0  0  0  0  0  0
   47.1530   31.7310   46.7100 C   0  0  1  0  0  0  0  0  0  0  0  0
   43.7760   36.3050   45.3240 H   0  0  0  0  0  0  0  0  0  0  0  0
   46.5830   34.5570   42.6820 H   0  0  0  0  0  0  0  0  0  0  0  0
   44.5010   31.7290   48.0010 H   0  0  0  0  0  0  0  0  0  0  0  0
   44.9270   33.3930   48.2710 H   0  0  0  0  0  0  0  0  0  0  0  0
   46.4900   32.7390   49.7300 H   0  0  0  0  0  0  0  0  0  0  0  0
   46.1330   31.0420   49.3940 H   0  0  0  0  0  0  0  0  0  0  0  0
   48.2330   31.0250   48.4410 H   0  0  0  0  0  0  0  0  0  0  0  0
   48.2480   32.8480   48.2570 H   0  0  0  0  0  0  0  0  0  0  0  0
   47.9880   32.0340   46.0540 H   0  0  0  0  0  0  0  0  0  0  0  0
   44.7950   36.5720   42.9600 N   0  0  0  0  0  0  0  0  0  0  0  0
   45.5830   36.8670   42.3520 H   0  0  0  0  0  0  0  0  0  0  0  0
   43.8570   36.9980   42.8880 H   0  0  0  0  0  0  0  0  0  0  0  0
   45.6230   30.6160   43.3900 O   0  0  0  0  0  0  0  0  0  0  0  0
   44.9990   30.0390   44.2930 C   0  0  0  0  0  0  0  0  0  0  0  0
   45.0950   29.7640   45.7470 C   0  0  1  0  0  0  0  0  0  0  0  0
   44.5710   28.3520   45.8360 C   0  0  0  0  0  0  0  0  0  0  0  0
   43.2570   28.5710   45.0770 C   0  0  0  0  0  0  0  0  0  0  0  0
   43.7590   29.3780   43.9720 N   0  0  0  0  0  0  0  0  0  0  0  0
   44.2040   30.3450   46.1130 H   0  0  0  0  0  0  0  0  0  0  0  0
   45.1570   27.6420   45.2220 H   0  0  0  0  0  0  0  0  0  0  0  0
   44.3670   28.0230   46.8600 H   0  0  0  0  0  0  0  0  0  0  0  0
   42.9190   27.5890   44.7170 H   0  0  0  0  0  0  0  0  0  0  0  0
   42.5140   29.1090   45.6870 H   0  0  0  0  0  0  0  0  0  0  0  0
   41.8310   30.1810   42.8650 C   0  0  0  0  0  3  0  0  0  0  0  0
   42.9670   29.3930   42.7630 C   0  0  0  0  0  0  0  0  0  0  0  0
   43.2580   28.7230   41.6080 C   0  0  0  0  0  0  0  0  0  0  0  0
   44.1610   28.1310   41.6110 H   0  0  0  0  0  0  0  0  0  0  0  0
   42.4070   28.8260   40.5190 C   0  0  0  0  0  0  0  0  0  0  0  0
   42.4720   28.2740   39.2940 N   0  0  0  0  0  0  0  0  0  0  0  0
   41.3710   28.7140   38.6180 C   0  0  0  0  0  0  0  0  0  0  0  0
   41.0910   28.4680   37.5850 H   0  0  0  0  0  0  0  0  0  0  0  0
   40.6270   29.5200   39.3850 N   0  0  0  0  0  0  0  0  0  0  0  0
   41.2480   29.6080   40.5720 C   0  0  0  0  0  0  0  0  0  0  0  0
   40.9910   30.2760   41.7730 C   0  0  0  0  0  3  0  0  0  0  0  0
   43.2130   27.6350   38.9270 H   0  0  0  0  0  0  0  0  0  0  0  0
  1 12  1  0  0  0  0
  2 13  1  0  0  0  0
  2  7  1  0  0  0  0
  3  2  2  0  0  0  0
  4  3  1  0  0  0  0
  4  5  2  0  0  0  0
  5  6  1  0  0  0  0
  6  7  2  0  0  0  0
  6  8  1  0  0  0  0
  8  9  1  0  0  0  0
  9 15  1  0  0  0  0
  9 16  1  0  0  0  0
  9 10  1  0  0  0  0
 10 18  1  0  0  0  0
 10 17  1  0  0  0  0
 11 20  1  0  0  0  0
 11 19  1  0  0  0  0
 11 10  1  0  0  0  0
 12 21  1  6  0  0  0
 12  8  1  0  0  0  0
 12 11  1  0  0  0  0
 14  4  1  0  0  0  0
 22  3  1  0  0  0  0
 23 22  1  0  0  0  0
 24 22  1  0  0  0  0
 25 26  2  0  0  0  0
 26 27  1  0  0  0  0
 27 28  1  0  0  0  0
 27 31  1  1  0  0  0
 27  1  1  0  0  0  0
 28 33  1  0  0  0  0
 29 35  1  0  0  0  0
 29 28  1  0  0  0  0
 30 26  1  0  0  0  0
 30 29  1  0  0  0  0
 32 28  1  0  0  0  0
 34 29  1  0  0  0  0
 37 36  1  0  0  0  0
 37 30  1  0  0  0  0
 38 39  1  0  0  0  0
 38 37  2  0  0  0  0
 40 45  2  0  0  0  0
 40 38  1  0  0  0  0
 41 40  1  0  0  0  0
 42 41  1  0  0  0  0
 42 44  2  0  0  0  0
 43 42  1  0  0  0  0
 44 45  1  0  0  0  0
 45 46  1  0  0  0  0
 46 36  2  0  0  0  0
 47 41  1  0  0  0  0
M  END
>  <minimizedAffinity>
-5.4697423

>  <minimizedRMSD>
0.319098473

$$$$
