
 OpenBabel03252509293D

 24 26  0  0  0  0  0  0  0  0999 V2000
   47.7090   34.0900   42.6650 C   0  0  0  0  0  0  0  0  0  0  0  0
   48.4800   34.8670   42.5560 H   0  0  0  0  0  0  0  0  0  0  0  0
   48.2130   33.2410   43.1750 H   0  0  0  0  0  0  0  0  0  0  0  0
   46.4960   32.4650   41.2780 C   0  0  0  0  0  3  0  0  0  0  0  0
   47.2910   33.5900   41.3280 C   0  0  0  0  0  0  0  0  0  0  0  0
   47.6800   34.2200   40.1630 C   0  0  0  0  0  0  0  0  0  0  0  0
   48.3110   35.1130   40.1900 H   0  0  0  0  0  0  0  0  0  0  0  0
   47.2810   33.7390   38.9310 C   0  0  0  0  0  0  0  0  0  0  0  0
   47.5000   34.1370   37.6480 N   0  0  0  0  0  0  0  0  0  0  0  0
   46.8340   33.2450   36.8600 C   0  0  0  0  0  0  0  0  0  0  0  0
   46.8220   33.3010   35.7780 H   0  0  0  0  0  0  0  0  0  0  0  0
   46.2160   32.3170   37.6270 N   0  0  0  0  0  0  0  0  0  0  0  0
   46.4940   32.6240   38.9060 C   0  0  0  0  0  0  0  0  0  0  0  0
   46.0770   31.9550   40.0500 C   0  0  0  0  0  3  0  0  0  0  0  0
   48.0690   34.9620   37.3480 H   0  0  0  0  0  0  0  0  0  0  0  0
   44.7790   36.0380   43.8720 C   0  0  0  0  0  0  0  0  0  0  0  0
   45.8560   35.6040   43.0680 C   0  0  0  0  0  0  0  0  0  0  0  0
   46.5990   34.5240   43.5100 C   0  0  0  0  0  0  0  0  0  0  0  0
   46.2630   33.9300   44.6920 N   0  0  0  0  0  0  0  0  0  0  0  0
   45.2250   34.3750   45.4320 C   0  0  0  0  0  0  0  0  0  0  0  0
   44.4900   35.4150   45.0310 N   0  0  0  0  0  0  0  0  0  0  0  0
   44.1680   36.8780   43.5710 H   0  0  0  0  0  0  0  0  0  0  0  0
   46.0350   36.1420   42.1580 H   0  0  0  0  0  0  0  0  0  0  0  0
   45.0010   33.8560   46.3760 H   0  0  0  0  0  0  0  0  0  0  0  0
  1  3  1  0  0  0  0
  1 18  1  0  0  0  0
  2  1  1  0  0  0  0
  4  5  1  0  0  0  0
  5  1  1  0  0  0  0
  6  7  1  0  0  0  0
  6  5  2  0  0  0  0
  8  6  1  0  0  0  0
  9  8  1  0  0  0  0
 10 12  2  0  0  0  0
 10  9  1  0  0  0  0
 11 10  1  0  0  0  0
 12 13  1  0  0  0  0
 13  8  2  0  0  0  0
 13 14  1  0  0  0  0
 14  4  2  0  0  0  0
 15  9  1  0  0  0  0
 16 21  1  0  0  0  0
 17 18  1  0  0  0  0
 17 16  2  0  0  0  0
 18 19  2  0  0  0  0
 19 20  1  0  0  0  0
 20 24  1  0  0  0  0
 21 20  2  0  0  0  0
 22 16  1  0  0  0  0
 23 17  1  0  0  0  0
M  END
>  <minimizedAffinity>
-4.33929396

>  <minimizedRMSD>
1.39664745

$$$$
