
     RDKit          3D

 26 28  0  0  0  0  0  0  0  0999 V2000
   44.5613   36.0110   44.4925 C   0  0  0  0  0  0  0  0  0  0  0  0
   45.3087   35.9165   43.2982 C   0  0  0  0  0  0  0  0  0  0  0  0
   46.1925   34.8592   43.1724 C   0  0  0  0  0  0  0  0  0  0  0  0
   46.3036   33.9626   44.1956 N   0  0  0  0  0  0  0  0  0  0  0  0
   45.5698   34.0896   45.3218 C   0  0  0  0  0  0  0  0  0  0  0  0
   44.7085   35.0992   45.4726 N   0  0  0  0  0  0  0  0  0  0  0  0
   46.9576   34.7769   41.9299 C   0  0  0  0  0  0  0  0  0  0  0  0
   43.8574   36.8185   44.6398 H   0  0  0  0  0  0  0  0  0  0  0  0
   45.1457   36.6734   42.5568 H   0  0  0  0  0  0  0  0  0  0  0  0
   45.7008   33.3365   46.1144 H   0  0  0  0  0  0  0  0  0  0  0  0
   47.2435   35.7679   41.5479 H   0  0  0  0  0  0  0  0  0  0  0  0
   47.9154   34.2576   42.1530 H   0  0  0  0  0  0  0  0  0  0  0  0
   46.7747   32.7233   40.5933 C   0  0  0  0  0  0  0  0  0  0  0  0
   46.2911   33.9868   40.8597 C   0  0  0  0  0  0  0  0  0  0  0  0
   45.2212   34.4885   40.1467 C   0  0  0  0  0  0  0  0  0  0  0  0
   44.8293   35.4893   40.3494 H   0  0  0  0  0  0  0  0  0  0  0  0
   44.6168   33.7377   39.1567 C   0  0  0  0  0  0  0  0  0  0  0  0
   43.5740   33.9604   38.3105 N   0  0  0  0  0  0  0  0  0  0  0  0
   43.4552   32.8286   37.5571 C   0  0  0  0  0  0  0  0  0  0  0  0
   42.7048   32.7040   36.7865 H   0  0  0  0  0  0  0  0  0  0  0  0
   44.3956   31.9263   37.9218 N   0  0  0  0  0  0  0  0  0  0  0  0
   45.1116   32.4901   38.9097 C   0  0  0  0  0  0  0  0  0  0  0  0
   46.1859   31.9429   39.6010 C   0  0  0  0  0  0  0  0  0  0  0  0
   47.6206   32.3116   41.1485 H   0  0  0  0  0  0  0  0  0  0  0  0
   42.9940   34.8292   38.2628 H   0  0  0  0  0  0  0  0  0  0  0  0
   46.5707   30.9492   39.3958 H   0  0  0  0  0  0  0  0  0  0  0  0
  1  6  2  0
  2  1  1  0
  3  2  2  0
  3  4  1  0
  4  5  2  0
  5  6  1  0
  7  3  1  0
  1  8  1  0
  2  9  1  0
  5 10  1  0
  7 11  1  0
  7 12  1  0
 13 14  2  0
 14 15  1  0
 15 16  1  0
 15 17  2  0
 17 18  1  0
 18 19  1  0
 19 20  1  0
 19 21  2  0
 21 22  1  0
 22 23  2  0
 23 13  1  0
 22 17  1  0
 13 24  1  0
 18 25  1  0
 23 26  1  0
  7 14  1  0
M  ISO  7   8  14   9  14  10  14  11   8  12   8  16  15  20  14
M  END
>  <DihAtoms>  (1) 
2,6,13,12

>  <DihDeg>  (1) 
90.0027615512253

$$$$
