
 OpenBabel03252509043D

 51 54  0  0  1  0  0  0  0  0999 V2000
   46.6900   34.4500   43.5800 N   0  0  0  0  0  0  0  0  0  0  0  0
   46.2410   35.2990   42.5440 C   0  0  0  0  0  0  0  0  0  0  0  0
   44.7310   35.3830   42.4150 C   0  0  0  0  0  0  0  0  0  0  0  0
   44.0060   35.3300   43.7320 C   0  0  0  0  0  0  0  0  0  0  0  0
   44.9610   35.2410   44.8980 C   0  0  0  0  0  0  0  0  0  0  0  0
   45.8500   33.9810   44.5580 C   0  0  2  0  0  0  0  0  0  0  0  0
   46.6200   35.0890   41.5390 H   0  0  0  0  0  0  0  0  0  0  0  0
   46.5850   36.3480   42.7690 H   0  0  0  0  0  0  0  0  0  0  0  0
   44.3360   34.5690   41.7550 H   0  0  0  0  0  0  0  0  0  0  0  0
   44.4580   36.3300   41.8990 H   0  0  0  0  0  0  0  0  0  0  0  0
   43.3790   36.2540   43.9000 H   0  0  0  0  0  0  0  0  0  0  0  0
   43.2960   34.4820   43.8060 H   0  0  0  0  0  0  0  0  0  0  0  0
   45.6000   36.1280   45.0020 H   0  0  0  0  0  0  0  0  0  0  0  0
   44.4080   34.9520   45.8050 H   0  0  0  0  0  0  0  0  0  0  0  0
   45.1390   33.1780   44.2930 H   0  0  0  0  0  0  0  0  0  0  0  0
   47.8660   33.6820   43.2460 C   0  0  0  0  0  0  0  0  0  0  0  0
   48.4750   34.3250   42.5750 H   0  0  0  0  0  0  0  0  0  0  0  0
   48.5290   33.4750   44.1190 H   0  0  0  0  0  0  0  0  0  0  0  0
   47.4190   32.4610   42.5100 C   0  0  0  0  0  0  0  0  0  0  0  0
   47.5630   31.5630   43.1090 H   0  0  0  0  0  0  0  0  0  0  0  0
   46.3310   32.5080   42.2410 H   0  0  0  0  0  0  0  0  0  0  0  0
   49.9850   31.4380   39.9640 C   0  0  0  0  0  0  0  0  0  0  0  0
   49.2680   31.5430   41.1710 C   0  0  0  0  0  0  0  0  0  0  0  0
   48.1670   32.3600   41.2290 C   0  0  0  0  0  0  0  0  0  0  0  0
   47.8280   33.0230   40.1210 N   0  0  0  0  0  0  0  0  0  0  0  0
   48.5110   32.9210   38.9740 C   0  0  0  0  0  0  0  0  0  0  0  0
   49.5890   32.1390   38.8720 N   0  0  0  0  0  0  0  0  0  0  0  0
   50.8560   30.7980   39.9030 H   0  0  0  0  0  0  0  0  0  0  0  0
   49.6210   30.9660   42.0170 H   0  0  0  0  0  0  0  0  0  0  0  0
   48.0990   33.5270   38.1740 H   0  0  0  0  0  0  0  0  0  0  0  0
   46.4850   33.7710   45.7670 O   0  0  0  0  0  0  0  0  0  0  0  0
   45.6610   31.2740   45.3310 O   0  0  0  0  0  0  0  0  0  0  0  0
   46.1770   32.2360   46.3970 P   0  0  2  0  0  0  0  0  0  0  0  0
   44.8570   32.4410   47.4750 O   0  0  0  0  0  0  0  0  0  0  0  0
   44.2520   31.6790   47.4460 H   0  0  0  0  0  0  0  0  0  0  0  0
   47.4380   31.6070   47.2680 O   0  0  0  0  0  0  0  0  0  0  0  0
   47.8220   30.4000   46.7060 C   0  0  0  0  0  0  0  0  0  0  0  0
   46.9060   29.8280   46.4940 H   0  0  0  0  0  0  0  0  0  0  0  0
   48.4450   30.5010   45.8140 H   0  0  0  0  0  0  0  0  0  0  0  0
   49.0340   28.3700   47.6040 C   0  0  0  0  0  3  0  0  0  0  0  0
   48.6290   29.6830   47.7550 C   0  0  0  0  0  0  0  0  0  0  0  0
   48.9570   30.4080   48.9010 C   0  0  0  0  0  0  0  0  0  0  0  0
   48.6330   31.4500   49.0150 H   0  0  0  0  0  0  0  0  0  0  0  0
   49.6930   29.8070   49.8940 C   0  0  0  0  0  0  0  0  0  0  0  0
   50.1090   30.3310   51.0670 N   0  0  0  0  0  0  0  0  0  0  0  0
   50.7970   29.3610   51.7080 C   0  0  0  0  0  0  0  0  0  0  0  0
   51.2670   29.4450   52.6730 H   0  0  0  0  0  0  0  0  0  0  0  0
   50.7940   28.2500   50.9150 N   0  0  0  0  0  0  0  0  0  0  0  0
   50.1170   28.4970   49.7830 C   0  0  0  0  0  0  0  0  0  0  0  0
   49.7800   27.7930   48.6350 C   0  0  0  0  0  3  0  0  0  0  0  0
   49.9760   31.2860   51.4890 H   0  0  0  0  0  0  0  0  0  0  0  0
  1  6  1  0  0  0  0
  2  8  1  0  0  0  0
  2  1  1  0  0  0  0
  3  2  1  0  0  0  0
  3  4  1  0  0  0  0
  4 12  1  0  0  0  0
  4 11  1  0  0  0  0
  4  5  1  0  0  0  0
  5 13  1  0  0  0  0
  5 14  1  0  0  0  0
  6 15  1  6  0  0  0
  6  5  1  0  0  0  0
  6 31  1  0  0  0  0
  7  2  1  0  0  0  0
  9  3  1  0  0  0  0
 10  3  1  0  0  0  0
 16  1  1  0  0  0  0
 16 18  1  0  0  0  0
 17 16  1  0  0  0  0
 19 20  1  0  0  0  0
 19 16  1  0  0  0  0
 21 19  1  0  0  0  0
 22 23  1  0  0  0  0
 23 24  2  0  0  0  0
 23 29  1  0  0  0  0
 24 19  1  0  0  0  0
 25 24  1  0  0  0  0
 26 25  2  0  0  0  0
 27 26  1  0  0  0  0
 27 22  2  0  0  0  0
 28 22  1  0  0  0  0
 30 26  1  0  0  0  0
 31 33  1  0  0  0  0
 33 32  2  6  0  0  0
 33 36  1  0  0  0  0
 33 34  1  0  0  0  0
 35 34  1  0  0  0  0
 37 36  1  0  0  0  0
 37 41  1  0  0  0  0
 38 37  1  0  0  0  0
 39 37  1  0  0  0  0
 40 41  2  0  0  0  0
 40 50  1  0  0  0  0
 41 42  1  0  0  0  0
 42 43  1  0  0  0  0
 42 44  2  0  0  0  0
 44 45  1  0  0  0  0
 45 51  1  0  0  0  0
 45 46  1  0  0  0  0
 46 47  1  0  0  0  0
 48 46  2  0  0  0  0
 49 44  1  0  0  0  0
 49 48  1  0  0  0  0
 50 49  2  0  0  0  0
M  END
>  <minimizedAffinity>
-5.25403404

>  <minimizedRMSD>
2.48805594

$$$$
