
     RDKit          3D

 33 36  0  0  0  0  0  0  0  0999 V2000
   45.5286   34.1462   44.4136 C   0  0  0  0  0  0  0  0  0  0  0  0
   46.5044   33.6043   43.5371 C   0  0  0  0  0  0  0  0  0  0  0  0
   47.3974   32.6739   44.0612 C   0  0  0  0  0  0  0  0  0  0  0  0
   47.2848   32.3409   45.3724 N   0  0  0  0  0  0  0  0  0  0  0  0
   46.3369   32.8844   46.1738 C   0  0  0  0  0  0  0  0  0  0  0  0
   45.4566   33.7922   45.6824 N   0  0  0  0  0  0  0  0  0  0  0  0
   46.3949   32.3887   47.5892 C   0  0  0  0  0  0  0  0  0  0  0  0
   45.3844   32.9143   48.3549 F   0  0  0  0  0  0  0  0  0  0  0  0
   47.6172   32.7486   48.1626 F   0  0  0  0  0  0  0  0  0  0  0  0
   46.3865   30.9986   47.5757 F   0  0  0  0  0  0  0  0  0  0  0  0
   44.5641   35.1592   43.8873 C   0  0  1  0  0  0  0  0  0  0  0  0
   44.8902   36.6084   44.3200 C   0  0  0  0  0  0  0  0  0  0  0  0
   44.9719   36.1574   42.8977 C   0  0  2  0  0  0  0  0  0  0  0  0
   46.5587   33.8987   42.4979 H   0  0  0  0  0  0  0  0  0  0  0  0
   48.1657   32.2163   43.4630 H   0  0  0  0  0  0  0  0  0  0  0  0
   43.5026   34.9233   44.1658 H   0  0  0  0  0  0  0  0  0  0  0  0
   44.0564   37.2844   44.5528 H   0  0  0  0  0  0  0  0  0  0  0  0
   45.8186   36.7570   44.8757 H   0  0  0  0  0  0  0  0  0  0  0  0
   45.9761   36.0949   42.4772 H   0  0  0  0  0  0  0  0  0  0  0  0
   43.1844   37.6937   42.1601 C   0  0  0  0  0  0  0  0  0  0  0  0
   43.9136   36.5600   41.9335 C   0  0  0  0  0  0  0  0  0  0  0  0
   43.6191   35.8389   40.7989 C   0  0  0  0  0  0  0  0  0  0  0  0
   44.1805   34.9366   40.5938 H   0  0  0  0  0  0  0  0  0  0  0  0
   42.6413   36.2096   39.9065 C   0  0  0  0  0  0  0  0  0  0  0  0
   42.1522   35.7009   38.7384 N   0  0  0  0  0  0  0  0  0  0  0  0
   41.1717   36.4840   38.2715 C   0  0  0  0  0  0  0  0  0  0  0  0
   40.5782   36.3512   37.3579 H   0  0  0  0  0  0  0  0  0  0  0  0
   41.0325   37.4981   39.1445 N   0  0  0  0  0  0  0  0  0  0  0  0
   41.9133   37.3687   40.1608 C   0  0  0  0  0  0  0  0  0  0  0  0
   42.1874   38.1235   41.3041 C   0  0  0  0  0  0  0  0  0  0  0  0
   43.3776   38.2962   43.0391 H   0  0  0  0  0  0  0  0  0  0  0  0
   42.4992   34.8228   38.2784 H   0  0  0  0  0  0  0  0  0  0  0  0
   41.6335   39.0207   41.5135 H   0  0  0  0  0  0  0  0  0  0  0  0
  1  6  2  0
  2  3  2  0
  2  1  1  0
  3  4  1  0
  4  5  2  0
  5  7  1  0
  6  5  1  0
  7  9  1  0
  7  8  1  0
 10  7  1  0
 11 12  1  0
 11  1  1  0
 13 11  1  0
 13 12  1  0
  2 14  1  0
  3 15  1  0
 11 16  1  6
 12 17  1  0
 12 18  1  0
 13 19  1  6
 20 21  2  0
 21 22  1  0
 22 23  1  0
 22 24  2  0
 24 25  1  0
 25 26  1  0
 26 27  1  0
 26 28  2  0
 28 29  1  0
 29 30  2  0
 30 20  1  0
 29 24  1  0
 20 31  1  0
 25 32  1  0
 30 33  1  0
 13 21  1  0
M  ISO  8  14  14  15  14  16  13  17  13  18  13  19  13  23  15  27  14
M  END
>  <DihAtoms>  (1) 
10,12,20,19

>  <DihDeg>  (1) 
36.87259127366211

$$$$
