REMARK  Name = 
REMARK  3 active torsions:
REMARK  status: ('A' for Active; 'I' for Inactive)
REMARK    1  A    between atoms: C_5  and  C_7
REMARK    2  A    between atoms: C_7  and  S_8
REMARK    3  A    between atoms: S_8  and  C_15
REMARK                            x       y       z     vdW  Elec       q    Type
REMARK                         _______ _______ _______ _____ _____    ______ ____
ROOT
ATOM      1  S   UNL     1      46.546  31.624  45.620  0.00  0.00    +0.000 S 
ENDROOT
BRANCH   1   3
ATOM      2  C   UNL     1      46.346  30.364  48.163  0.00  0.00    +0.000 A 
ATOM      3  C   UNL     1      46.849  30.386  46.879  0.00  0.00    +0.000 A 
ATOM      4  C   UNL     1      47.690  29.369  46.440  0.00  0.00    +0.000 A 
ATOM      5  H   UNL     1      48.137  29.300  45.443  0.00  0.00    +0.000 HD
ATOM      6  C   UNL     1      48.040  28.323  47.270  0.00  0.00    +0.000 A 
ATOM      7  N   UNL     1      48.800  27.217  47.180  0.00  0.00    +0.000 N 
ATOM      8  C   UNL     1      48.797  26.517  48.325  0.00  0.00    +0.000 A 
ATOM      9  H   UNL     1      49.350  25.600  48.439  0.00  0.00    +0.000 HD
ATOM     10  N   UNL     1      47.998  27.221  49.165  0.00  0.00    +0.000 NA
ATOM     11  C   UNL     1      47.526  28.322  48.550  0.00  0.00    +0.000 A 
ATOM     12  C   UNL     1      46.689  29.323  49.000  0.00  0.00    +0.000 A 
ATOM     13  H   UNL     1      49.318  26.972  46.293  0.00  0.00    +0.000 HD
ENDBRANCH   1   3
BRANCH   1  14
ATOM     14  C   UNL     1      45.825  33.097  46.420  0.00  0.00    +0.000 C 
ATOM     15  H   UNL     1      46.502  33.484  47.208  0.00  0.00    +0.000 HD
ATOM     16  H   UNL     1      44.836  32.788  46.817  0.00  0.00    +0.000 HD
BRANCH  14  21
ATOM     17  C   UNL     1      44.519  36.017  44.543  0.00  0.00    +0.000 A 
ATOM     18  C   UNL     1      45.215  35.886  43.333  0.00  0.00    +0.000 A 
ATOM     19  C   UNL     1      46.112  34.818  43.170  0.00  0.00    +0.000 A 
ATOM     20  N   UNL     1      46.285  33.929  44.197  0.00  0.00    +0.000 NA
ATOM     21  C   UNL     1      45.590  34.093  45.354  0.00  0.00    +0.000 A 
ATOM     22  N   UNL     1      44.731  35.117  45.508  0.00  0.00    +0.000 NA
ATOM     23  H   UNL     1      43.845  36.831  44.646  0.00  0.00    +0.000 HD
ATOM     24  H   UNL     1      45.107  36.566  42.498  0.00  0.00    +0.000 HD
ATOM     25  H   UNL     1      46.676  34.674  42.250  0.00  0.00    +0.000 HD
ENDBRANCH  14  21
ENDBRANCH   1  14
TORSDOF 3
