
 OpenBabel03252509083D

 44 48  0  0  0  0  0  0  0  0999 V2000
   46.9600   32.3840   39.6080 C   0  0  0  0  0  0  0  0  0  0  0  0
   46.0250   33.2380   40.1160 C   0  0  0  0  0  0  0  0  0  0  0  0
   46.4330   34.3960   40.7570 C   0  0  0  0  0  0  0  0  0  0  0  0
   47.7710   34.6910   40.8820 C   0  0  0  0  0  0  0  0  0  0  0  0
   48.7550   33.8470   40.3770 C   0  0  0  0  0  0  0  0  0  0  0  0
   48.3190   32.6830   39.7340 C   0  0  0  0  0  0  0  0  0  0  0  0
   45.7080   35.0910   41.1700 H   0  0  0  0  0  0  0  0  0  0  0  0
   48.1720   35.5600   41.3580 H   0  0  0  0  0  0  0  0  0  0  0  0
   49.8180   33.9940   40.4280 H   0  0  0  0  0  0  0  0  0  0  0  0
   49.0630   32.0000   39.3270 H   0  0  0  0  0  0  0  0  0  0  0  0
   41.6450   31.5300   42.2500 Cl  0  0  0  0  0  0  0  0  0  0  0  0
   42.5850   32.2440   40.9640 C   0  0  0  0  0  0  0  0  0  0  0  0
   43.9220   32.4420   41.1010 C   0  0  0  0  0  0  0  0  0  0  0  0
   44.5880   33.0240   40.0280 C   0  0  0  0  0  0  0  0  0  0  0  0
   43.9320   33.3900   38.8810 C   0  0  0  0  0  0  0  0  0  0  0  0
   42.5950   33.1860   38.7600 C   0  0  0  0  0  0  0  0  0  0  0  0
   41.9170   32.6060   39.8170 C   0  0  0  0  0  0  0  0  0  0  0  0
   44.5050   33.8430   38.0790 H   0  0  0  0  0  0  0  0  0  0  0  0
   42.1190   33.4860   37.8440 H   0  0  0  0  0  0  0  0  0  0  0  0
   40.8550   32.4590   39.6850 H   0  0  0  0  0  0  0  0  0  0  0  0
   45.5610   32.5690   44.5070 C   0  0  0  0  0  0  0  0  0  0  0  0
   44.9290   32.9570   43.3210 C   0  0  0  0  0  0  0  0  0  0  0  0
   44.5810   32.0520   42.3330 C   0  0  0  0  0  0  0  0  0  0  0  0
   44.9050   30.7880   42.6270 N   0  0  0  0  0  0  0  0  0  0  0  0
   45.5060   30.3980   43.7510 C   0  0  0  0  0  0  0  0  0  0  0  0
   45.8320   31.2780   44.6860 N   0  0  0  0  0  0  0  0  0  0  0  0
   45.8130   33.3110   45.2480 H   0  0  0  0  0  0  0  0  0  0  0  0
   44.7000   34.0160   43.1630 H   0  0  0  0  0  0  0  0  0  0  0  0
   45.6830   29.3220   43.7970 H   0  0  0  0  0  0  0  0  0  0  0  0
   46.5240   30.9450   38.8380 S   0  0  0  0  0  0  0  0  0  0  0  0
   47.7870   30.3180   38.1900 O   0  0  0  0  0  0  0  0  0  0  0  0
   46.1790   29.9570   39.9500 O   0  0  0  0  0  0  0  0  0  0  0  0
   45.6400   31.4870   36.2940 C   0  0  0  0  0  3  0  0  0  0  0  0
   45.4290   30.8180   37.5320 C   0  0  0  0  0  0  0  0  0  0  0  0
   44.2750   30.0550   37.4070 C   0  0  0  0  0  0  0  0  0  0  0  0
   44.0070   29.4640   38.2700 H   0  0  0  0  0  0  0  0  0  0  0  0
   43.4490   29.9230   36.3360 C   0  0  0  0  0  0  0  0  0  0  0  0
   42.3260   29.2280   36.1050 N   0  0  0  0  0  0  0  0  0  0  0  0
   41.9630   29.5110   34.8210 C   0  0  0  0  0  0  0  0  0  0  0  0
   41.0830   29.0880   34.3520 H   0  0  0  0  0  0  0  0  0  0  0  0
   42.8650   30.3760   34.2790 N   0  0  0  0  0  0  0  0  0  0  0  0
   43.7990   30.6410   35.2140 C   0  0  0  0  0  0  0  0  0  0  0  0
   44.9010   31.4550   35.1300 C   0  0  0  0  0  3  0  0  0  0  0  0
   41.8480   28.6060   36.7800 H   0  0  0  0  0  0  0  0  0  0  0  0
  1  6  2  0  0  0  0
  1  2  1  0  0  0  0
  2  3  2  0  0  0  0
  3  4  1  0  0  0  0
  3  7  1  0  0  0  0
  4  8  1  0  0  0  0
  5  9  1  0  0  0  0
  5  4  2  0  0  0  0
  6  5  1  0  0  0  0
 10  6  1  0  0  0  0
 12 13  1  0  0  0  0
 12 11  1  0  0  0  0
 13 23  1  0  0  0  0
 14  2  1  0  0  0  0
 14 13  2  0  0  0  0
 15 14  1  0  0  0  0
 16 15  2  0  0  0  0
 16 17  1  0  0  0  0
 17 12  2  0  0  0  0
 18 15  1  0  0  0  0
 19 16  1  0  0  0  0
 20 17  1  0  0  0  0
 21 26  1  0  0  0  0
 21 27  1  0  0  0  0
 22 21  2  0  0  0  0
 23 24  2  0  0  0  0
 23 22  1  0  0  0  0
 24 25  1  0  0  0  0
 25 29  1  0  0  0  0
 25 26  2  0  0  0  0
 28 22  1  0  0  0  0
 30  1  1  0  0  0  0
 30 32  2  0  0  0  0
 31 30  2  0  0  0  0
 33 34  1  0  0  0  0
 34 30  1  0  0  0  0
 35 34  2  0  0  0  0
 35 36  1  0  0  0  0
 37 35  1  0  0  0  0
 38 37  1  0  0  0  0
 38 44  1  0  0  0  0
 39 38  1  0  0  0  0
 40 39  1  0  0  0  0
 41 39  2  0  0  0  0
 41 42  1  0  0  0  0
 42 37  2  0  0  0  0
 43 42  1  0  0  0  0
 43 33  2  0  0  0  0
M  END
>  <minimizedAffinity>
-4.14315176

>  <minimizedRMSD>
4.78628969

$$$$
