
 OpenBabel03252506373D

 47 51  0  0  1  0  0  0  0  0999 V2000
   46.6540   30.0200   46.5560 S   0  0  0  0  0  0  0  0  0  0  0  0
   44.5160   35.4970   45.1320 C   0  0  0  0  0  0  0  0  0  0  0  0
   45.1710   35.4890   43.8830 C   0  0  0  0  0  0  0  0  0  0  0  0
   46.0930   34.5330   43.6270 C   0  0  0  0  0  0  0  0  0  0  0  0
   46.3310   33.6250   44.6050 N   0  0  0  0  0  0  0  0  0  0  0  0
   45.7130   33.6350   45.7760 C   0  0  0  0  0  0  0  0  0  0  0  0
   44.8000   34.5660   46.0590 N   0  0  0  0  0  0  0  0  0  0  0  0
   46.0470   32.6220   46.7420 N   0  0  0  0  0  0  0  0  0  0  0  0
   45.3100   32.3740   47.9260 C   0  0  0  0  0  0  0  0  0  0  0  0
   46.3840   32.0280   48.9400 C   0  0  0  0  0  0  0  0  0  0  0  0
   47.6670   31.9250   48.1700 C   0  0  0  0  0  0  0  0  0  0  0  0
   47.1660   31.7140   46.7410 C   0  0  1  0  0  0  0  0  0  0  0  0
   43.7840   36.2720   45.3140 H   0  0  0  0  0  0  0  0  0  0  0  0
   46.5990   34.5080   42.6910 H   0  0  0  0  0  0  0  0  0  0  0  0
   44.5110   31.7170   48.0270 H   0  0  0  0  0  0  0  0  0  0  0  0
   44.9350   33.3840   48.2860 H   0  0  0  0  0  0  0  0  0  0  0  0
   46.4960   32.7430   49.7530 H   0  0  0  0  0  0  0  0  0  0  0  0
   46.1420   31.0430   49.4280 H   0  0  0  0  0  0  0  0  0  0  0  0
   48.2440   31.0220   48.4800 H   0  0  0  0  0  0  0  0  0  0  0  0
   48.2560   32.8440   48.2820 H   0  0  0  0  0  0  0  0  0  0  0  0
   48.0010   32.0120   46.0840 H   0  0  0  0  0  0  0  0  0  0  0  0
   44.8080   36.5220   42.9500 N   0  0  0  0  0  0  0  0  0  0  0  0
   45.5970   36.8140   42.3410 H   0  0  0  0  0  0  0  0  0  0  0  0
   43.8690   36.9460   42.8740 H   0  0  0  0  0  0  0  0  0  0  0  0
   45.5610   30.4730   43.4390 O   0  0  0  0  0  0  0  0  0  0  0  0
   44.9520   29.9490   44.3850 C   0  0  0  0  0  0  0  0  0  0  0  0
   45.0850   29.7380   45.8460 C   0  0  1  0  0  0  0  0  0  0  0  0
   44.5400   28.3410   46.0130 C   0  0  0  0  0  0  0  0  0  0  0  0
   43.2090   28.5500   45.2820 C   0  0  0  0  0  0  0  0  0  0  0  0
   43.6930   29.2970   44.1280 N   0  0  0  0  0  0  0  0  0  0  0  0
   44.2150   30.3510   46.2100 H   0  0  0  0  0  0  0  0  0  0  0  0
   45.0970   27.5940   45.4170 H   0  0  0  0  0  0  0  0  0  0  0  0
   44.3600   28.0620   47.0570 H   0  0  0  0  0  0  0  0  0  0  0  0
   42.8450   27.5590   44.9770 H   0  0  0  0  0  0  0  0  0  0  0  0
   42.4930   29.1280   45.8870 H   0  0  0  0  0  0  0  0  0  0  0  0
   41.9040   30.2690   42.9290 C   0  0  0  0  0  3  0  0  0  0  0  0
   42.8680   29.2720   42.9420 C   0  0  0  0  0  0  0  0  0  0  0  0
   42.9780   28.3850   41.9090 C   0  0  0  0  0  0  0  0  0  0  0  0
   43.7550   27.6390   41.9970 H   0  0  0  0  0  0  0  0  0  0  0  0
   42.1160   28.4770   40.8260 C   0  0  0  0  0  0  0  0  0  0  0  0
   42.0250   27.7360   39.7070 N   0  0  0  0  0  0  0  0  0  0  0  0
   40.9980   28.2670   38.9810 C   0  0  0  0  0  0  0  0  0  0  0  0
   40.6340   27.9180   38.0060 H   0  0  0  0  0  0  0  0  0  0  0  0
   40.4510   29.3100   39.6150 N   0  0  0  0  0  0  0  0  0  0  0  0
   41.1270   29.4640   40.7660 C   0  0  0  0  0  0  0  0  0  0  0  0
   41.0510   30.3490   41.8450 C   0  0  0  0  0  3  0  0  0  0  0  0
   42.6180   26.9180   39.4400 H   0  0  0  0  0  0  0  0  0  0  0  0
  1 12  1  0  0  0  0
  2 13  1  0  0  0  0
  2  7  1  0  0  0  0
  3  2  2  0  0  0  0
  4  3  1  0  0  0  0
  4  5  2  0  0  0  0
  5  6  1  0  0  0  0
  6  7  2  0  0  0  0
  6  8  1  0  0  0  0
  8  9  1  0  0  0  0
  9 15  1  0  0  0  0
  9 16  1  0  0  0  0
  9 10  1  0  0  0  0
 10 18  1  0  0  0  0
 10 17  1  0  0  0  0
 11 20  1  0  0  0  0
 11 19  1  0  0  0  0
 11 10  1  0  0  0  0
 12 21  1  6  0  0  0
 12  8  1  0  0  0  0
 12 11  1  0  0  0  0
 14  4  1  0  0  0  0
 22  3  1  0  0  0  0
 23 22  1  0  0  0  0
 24 22  1  0  0  0  0
 25 26  2  0  0  0  0
 26 27  1  0  0  0  0
 27 28  1  0  0  0  0
 27 31  1  1  0  0  0
 27  1  1  0  0  0  0
 28 33  1  0  0  0  0
 29 35  1  0  0  0  0
 29 28  1  0  0  0  0
 30 26  1  0  0  0  0
 30 29  1  0  0  0  0
 32 28  1  0  0  0  0
 34 29  1  0  0  0  0
 36 37  1  0  0  0  0
 37 30  1  0  0  0  0
 38 39  1  0  0  0  0
 38 37  2  0  0  0  0
 40 38  1  0  0  0  0
 41 40  1  0  0  0  0
 42 44  2  0  0  0  0
 42 41  1  0  0  0  0
 43 42  1  0  0  0  0
 44 45  1  0  0  0  0
 45 40  2  0  0  0  0
 45 46  1  0  0  0  0
 46 36  2  0  0  0  0
 47 41  1  0  0  0  0
M  END
>  <minimizedAffinity>
-5.46476126

>  <minimizedRMSD>
0.107370257

$$$$
