
 OpenBabel03252509043D

 51 54  0  0  1  0  0  0  0  0999 V2000
   47.1190   34.2910   43.3120 N   0  0  0  0  0  0  0  0  0  0  0  0
   46.7450   34.9440   42.1170 C   0  0  0  0  0  0  0  0  0  0  0  0
   45.2750   34.8060   41.7640 C   0  0  0  0  0  0  0  0  0  0  0  0
   44.3610   34.8100   42.9580 C   0  0  0  0  0  0  0  0  0  0  0  0
   45.1230   34.9890   44.2500 C   0  0  0  0  0  0  0  0  0  0  0  0
   46.1950   33.8300   44.2150 C   0  0  2  0  0  0  0  0  0  0  0  0
   47.3010   34.6710   41.2150 H   0  0  0  0  0  0  0  0  0  0  0  0
   46.9240   36.0490   42.2430 H   0  0  0  0  0  0  0  0  0  0  0  0
   45.0870   33.8740   41.1720 H   0  0  0  0  0  0  0  0  0  0  0  0
   44.9790   35.6400   41.0900 H   0  0  0  0  0  0  0  0  0  0  0  0
   43.6120   35.6530   42.9070 H   0  0  0  0  0  0  0  0  0  0  0  0
   43.7520   33.8870   43.0450 H   0  0  0  0  0  0  0  0  0  0  0  0
   45.6290   35.9600   44.3220 H   0  0  0  0  0  0  0  0  0  0  0  0
   44.4700   34.7360   45.1000 H   0  0  0  0  0  0  0  0  0  0  0  0
   45.6330   32.9120   43.9640 H   0  0  0  0  0  0  0  0  0  0  0  0
   48.4140   33.6560   43.2580 C   0  0  0  0  0  0  0  0  0  0  0  0
   49.0330   34.2750   42.5740 H   0  0  0  0  0  0  0  0  0  0  0  0
   48.9630   33.6720   44.2300 H   0  0  0  0  0  0  0  0  0  0  0  0
   48.2290   32.2910   42.6800 C   0  0  0  0  0  0  0  0  0  0  0  0
   48.2720   31.5240   43.4530 H   0  0  0  0  0  0  0  0  0  0  0  0
   47.2380   32.1850   42.1650 H   0  0  0  0  0  0  0  0  0  0  0  0
   51.5870   31.8750   41.0470 C   0  0  0  0  0  0  0  0  0  0  0  0
   50.5910   32.1010   42.0170 C   0  0  0  0  0  0  0  0  0  0  0  0
   49.2700   32.0510   41.6470 C   0  0  0  0  0  0  0  0  0  0  0  0
   48.9950   31.7860   40.3670 N   0  0  0  0  0  0  0  0  0  0  0  0
   49.9440   31.5720   39.4470 C   0  0  0  0  0  0  0  0  0  0  0  0
   51.2410   31.6120   39.7620 N   0  0  0  0  0  0  0  0  0  0  0  0
   52.6330   31.9120   41.3240 H   0  0  0  0  0  0  0  0  0  0  0  0
   50.9130   32.3090   43.0290 H   0  0  0  0  0  0  0  0  0  0  0  0
   49.5450   31.3710   38.4580 H   0  0  0  0  0  0  0  0  0  0  0  0
   46.6490   33.8510   45.5200 O   0  0  0  0  0  0  0  0  0  0  0  0
   45.7850   31.3330   45.4160 O   0  0  0  0  0  0  0  0  0  0  0  0
   46.2840   32.4300   46.3530 P   0  0  2  0  0  0  0  0  0  0  0  0
   44.9290   32.8120   47.3360 O   0  0  0  0  0  0  0  0  0  0  0  0
   44.3080   32.0650   47.3930 H   0  0  0  0  0  0  0  0  0  0  0  0
   47.4970   31.9120   47.3540 O   0  0  0  0  0  0  0  0  0  0  0  0
   47.5840   30.5310   47.2880 C   0  0  0  0  0  0  0  0  0  0  0  0
   46.5950   30.1250   47.5530 H   0  0  0  0  0  0  0  0  0  0  0  0
   47.9260   30.1510   46.3220 H   0  0  0  0  0  0  0  0  0  0  0  0
   49.1280   28.8470   48.3730 C   0  0  0  0  0  3  0  0  0  0  0  0
   48.5900   30.1200   48.3300 C   0  0  0  0  0  0  0  0  0  0  0  0
   48.9620   31.0890   49.2610 C   0  0  0  0  0  0  0  0  0  0  0  0
   48.5320   32.0970   49.2230 H   0  0  0  0  0  0  0  0  0  0  0  0
   49.8770   30.7730   50.2380 C   0  0  0  0  0  0  0  0  0  0  0  0
   50.3630   31.5600   51.2220 N   0  0  0  0  0  0  0  0  0  0  0  0
   51.2340   30.8090   51.9290 C   0  0  0  0  0  0  0  0  0  0  0  0
   51.8020   31.1300   52.7870 H   0  0  0  0  0  0  0  0  0  0  0  0
   51.2710   29.5650   51.3690 N   0  0  0  0  0  0  0  0  0  0  0  0
   50.4390   29.5140   50.3160 C   0  0  0  0  0  0  0  0  0  0  0  0
   50.0570   28.5630   49.3800 C   0  0  0  0  0  3  0  0  0  0  0  0
   50.1680   32.5630   51.4690 H   0  0  0  0  0  0  0  0  0  0  0  0
  1  6  1  0  0  0  0
  2  8  1  0  0  0  0
  2  1  1  0  0  0  0
  3  2  1  0  0  0  0
  3  4  1  0  0  0  0
  4 12  1  0  0  0  0
  4  5  1  0  0  0  0
  5 13  1  0  0  0  0
  5 14  1  0  0  0  0
  6 15  1  6  0  0  0
  6  5  1  0  0  0  0
  6 31  1  0  0  0  0
  7  2  1  0  0  0  0
  9  3  1  0  0  0  0
 10  3  1  0  0  0  0
 11  4  1  0  0  0  0
 16  1  1  0  0  0  0
 16 18  1  0  0  0  0
 17 16  1  0  0  0  0
 19 16  1  0  0  0  0
 19 20  1  0  0  0  0
 21 19  1  0  0  0  0
 22 28  1  0  0  0  0
 22 23  1  0  0  0  0
 23 29  1  0  0  0  0
 24 23  2  0  0  0  0
 24 19  1  0  0  0  0
 25 24  1  0  0  0  0
 26 27  1  0  0  0  0
 26 25  2  0  0  0  0
 27 22  2  0  0  0  0
 30 26  1  0  0  0  0
 31 33  1  0  0  0  0
 33 32  2  6  0  0  0
 33 34  1  0  0  0  0
 33 36  1  0  0  0  0
 34 35  1  0  0  0  0
 37 36  1  0  0  0  0
 37 38  1  0  0  0  0
 37 41  1  0  0  0  0
 39 37  1  0  0  0  0
 40 50  1  0  0  0  0
 41 40  2  0  0  0  0
 41 42  1  0  0  0  0
 42 44  2  0  0  0  0
 43 42  1  0  0  0  0
 44 49  1  0  0  0  0
 44 45  1  0  0  0  0
 45 51  1  0  0  0  0
 45 46  1  0  0  0  0
 46 47  1  0  0  0  0
 48 46  2  0  0  0  0
 49 48  1  0  0  0  0
 50 49  2  0  0  0  0
M  END
>  <minimizedAffinity>
-5.5748868

>  <minimizedRMSD>
2.95206833

$$$$
