
 OpenBabel03252506383D

 47 51  0  0  1  0  0  0  0  0999 V2000
   46.6870   29.9440   46.4890 S   0  0  0  0  0  0  0  0  0  0  0  0
   44.5430   35.4490   45.1870 C   0  0  0  0  0  0  0  0  0  0  0  0
   45.1870   35.4640   43.9320 C   0  0  0  0  0  0  0  0  0  0  0  0
   46.1040   34.5110   43.6490 C   0  0  0  0  0  0  0  0  0  0  0  0
   46.3510   33.5840   44.6080 N   0  0  0  0  0  0  0  0  0  0  0  0
   45.7430   33.5730   45.7850 C   0  0  0  0  0  0  0  0  0  0  0  0
   44.8340   34.5000   46.0940 N   0  0  0  0  0  0  0  0  0  0  0  0
   46.0850   32.5430   46.7280 N   0  0  0  0  0  0  0  0  0  0  0  0
   45.3600   32.2740   47.9150 C   0  0  0  0  0  0  0  0  0  0  0  0
   46.4420   31.9070   48.9120 C   0  0  0  0  0  0  0  0  0  0  0  0
   47.7180   31.8170   48.1270 C   0  0  0  0  0  0  0  0  0  0  0  0
   47.2030   31.6330   46.7000 C   0  0  1  0  0  0  0  0  0  0  0  0
   43.8140   36.2220   45.3910 H   0  0  0  0  0  0  0  0  0  0  0  0
   46.6010   34.5030   42.7080 H   0  0  0  0  0  0  0  0  0  0  0  0
   44.5610   31.6160   48.0110 H   0  0  0  0  0  0  0  0  0  0  0  0
   44.9890   33.2770   48.2970 H   0  0  0  0  0  0  0  0  0  0  0  0
   46.5630   32.6070   49.7370 H   0  0  0  0  0  0  0  0  0  0  0  0
   46.2040   30.9130   49.3840 H   0  0  0  0  0  0  0  0  0  0  0  0
   48.2960   30.9080   48.4160 H   0  0  0  0  0  0  0  0  0  0  0  0
   48.3090   32.7320   48.2510 H   0  0  0  0  0  0  0  0  0  0  0  0
   48.0320   31.9430   46.0410 H   0  0  0  0  0  0  0  0  0  0  0  0
   44.8160   36.5140   43.0220 N   0  0  0  0  0  0  0  0  0  0  0  0
   45.5990   36.8160   42.4110 H   0  0  0  0  0  0  0  0  0  0  0  0
   43.8770   36.9410   42.9630 H   0  0  0  0  0  0  0  0  0  0  0  0
   45.3360   30.4630   43.4850 O   0  0  0  0  0  0  0  0  0  0  0  0
   44.8080   29.9190   44.4670 C   0  0  0  0  0  0  0  0  0  0  0  0
   45.0630   29.6770   45.9070 C   0  0  1  0  0  0  0  0  0  0  0  0
   44.5320   28.2760   46.0900 C   0  0  0  0  0  0  0  0  0  0  0  0
   43.1450   28.5010   45.4770 C   0  0  0  0  0  0  0  0  0  0  0  0
   43.5310   29.2720   44.3030 N   0  0  0  0  0  0  0  0  0  0  0  0
   44.2270   30.2820   46.3560 H   0  0  0  0  0  0  0  0  0  0  0  0
   45.0350   27.5420   45.4330 H   0  0  0  0  0  0  0  0  0  0  0  0
   44.4390   27.9760   47.1390 H   0  0  0  0  0  0  0  0  0  0  0  0
   42.7540   27.5160   45.1830 H   0  0  0  0  0  0  0  0  0  0  0  0
   42.4830   29.0650   46.1530 H   0  0  0  0  0  0  0  0  0  0  0  0
   42.5240   28.0460   42.5520 C   0  0  0  0  0  3  0  0  0  0  0  0
   42.6080   29.2730   43.1910 C   0  0  0  0  0  0  0  0  0  0  0  0
   41.8690   30.3400   42.7660 C   0  0  0  0  0  0  0  0  0  0  0  0
   41.9930   31.2610   43.3180 H   0  0  0  0  0  0  0  0  0  0  0  0
   41.0180   30.2010   41.6790 C   0  0  0  0  0  0  0  0  0  0  0  0
   40.2010   31.0870   41.0810 N   0  0  0  0  0  0  0  0  0  0  0  0
   39.5960   30.4160   40.0590 C   0  0  0  0  0  0  0  0  0  0  0  0
   38.8610   30.8220   39.3500 H   0  0  0  0  0  0  0  0  0  0  0  0
   40.0130   29.1450   40.0050 N   0  0  0  0  0  0  0  0  0  0  0  0
   40.8970   28.9840   41.0020 C   0  0  0  0  0  0  0  0  0  0  0  0
   41.6720   27.9200   41.4710 C   0  0  0  0  0  3  0  0  0  0  0  0
   40.0540   32.0890   41.3430 H   0  0  0  0  0  0  0  0  0  0  0  0
  1 12  1  0  0  0  0
  2 13  1  0  0  0  0
  2  7  1  0  0  0  0
  3  2  2  0  0  0  0
  4  3  1  0  0  0  0
  4  5  2  0  0  0  0
  5  6  1  0  0  0  0
  6  7  2  0  0  0  0
  6  8  1  0  0  0  0
  8  9  1  0  0  0  0
  9 15  1  0  0  0  0
  9 16  1  0  0  0  0
  9 10  1  0  0  0  0
 10 18  1  0  0  0  0
 10 17  1  0  0  0  0
 11 20  1  0  0  0  0
 11 19  1  0  0  0  0
 11 10  1  0  0  0  0
 12 21  1  6  0  0  0
 12  8  1  0  0  0  0
 12 11  1  0  0  0  0
 14  4  1  0  0  0  0
 22  3  1  0  0  0  0
 23 22  1  0  0  0  0
 24 22  1  0  0  0  0
 25 26  2  0  0  0  0
 26 27  1  0  0  0  0
 27 28  1  0  0  0  0
 27 31  1  1  0  0  0
 27  1  1  0  0  0  0
 28 33  1  0  0  0  0
 29 28  1  0  0  0  0
 29 35  1  0  0  0  0
 30 26  1  0  0  0  0
 30 29  1  0  0  0  0
 32 28  1  0  0  0  0
 34 29  1  0  0  0  0
 36 37  1  0  0  0  0
 37 30  1  0  0  0  0
 38 37  2  0  0  0  0
 38 39  1  0  0  0  0
 40 38  1  0  0  0  0
 41 47  1  0  0  0  0
 41 40  1  0  0  0  0
 42 41  1  0  0  0  0
 43 42  1  0  0  0  0
 44 42  2  0  0  0  0
 44 45  1  0  0  0  0
 45 46  1  0  0  0  0
 45 40  2  0  0  0  0
 46 36  2  0  0  0  0
M  END
>  <minimizedAffinity>
-5.69781494

>  <minimizedRMSD>
0.679533064

$$$$
