
 OpenBabel03252501063D

 43 47  0  0  1  0  0  0  0  0999 V2000
   46.8520   33.8920   37.0820 O   0  0  0  0  0  0  0  0  0  0  0  0
   45.8590   32.9440   37.0050 C   0  0  0  0  0  0  0  0  0  0  0  0
   45.8410   31.7770   36.2490 C   0  0  0  0  0  0  0  0  0  0  0  0
   44.7740   30.9380   36.2840 C   0  0  0  0  0  0  0  0  0  0  0  0
   43.6870   31.2250   37.0690 C   0  0  0  0  0  0  0  0  0  0  0  0
   43.7200   32.4040   37.8240 C   0  0  0  0  0  0  0  0  0  0  0  0
   44.7920   33.2340   37.7810 N   0  0  0  0  0  0  0  0  0  0  0  0
   46.7570   31.6760   35.6790 H   0  0  0  0  0  0  0  0  0  0  0  0
   44.9370   30.0810   35.6320 H   0  0  0  0  0  0  0  0  0  0  0  0
   42.9710   30.4490   36.9540 H   0  0  0  0  0  0  0  0  0  0  0  0
   41.2610   32.6430   38.0090 C   0  0  0  0  0  0  0  0  0  0  0  0
   42.4950   32.6230   38.5870 C   0  0  0  0  0  0  0  0  0  0  0  0
   42.4450   32.8570   39.9460 C   0  0  0  0  0  0  0  0  0  0  0  0
   43.3850   32.8630   40.4800 H   0  0  0  0  0  0  0  0  0  0  0  0
   41.3230   33.0840   40.6700 C   0  0  0  0  0  0  0  0  0  0  0  0
   40.9750   33.3330   41.9370 N   0  0  0  0  0  0  0  0  0  0  0  0
   39.6570   33.4860   42.1070 C   0  0  0  0  0  0  0  0  0  0  0  0
   39.0980   33.6910   43.0040 H   0  0  0  0  0  0  0  0  0  0  0  0
   39.0920   33.3360   40.8980 N   0  0  0  0  0  0  0  0  0  0  0  0
   40.0930   33.0910   40.0190 C   0  0  0  0  0  0  0  0  0  0  0  0
   40.0770   32.8660   38.6680 C   0  0  0  0  0  0  0  0  0  0  0  0
   41.6030   33.4090   42.7370 H   0  0  0  0  0  0  0  0  0  0  0  0
   48.6640   32.4040   38.0690 O   0  0  0  0  0  0  0  0  0  0  0  0
   48.1380   33.8380   38.1640 P   0  0  1  0  0  0  0  0  0  0  0  0
   49.3650   34.8220   37.5540 O   0  0  0  0  0  0  0  0  0  0  0  0
   49.0340   35.6710   37.1730 H   0  0  0  0  0  0  0  0  0  0  0  0
   47.6400   34.2110   39.6800 O   0  0  0  0  0  0  0  0  0  0  0  0
   48.0130   35.3020   41.8080 C   0  0  1  0  0  0  0  0  0  0  0  0
   49.1850   34.4370   41.6410 C   0  0  0  0  0  0  0  0  0  0  0  0
   48.4220   35.0090   40.4350 C   0  0  1  0  0  0  0  0  0  0  0  0
   48.0450   36.3690   42.1210 H   0  0  0  0  0  0  0  0  0  0  0  0
   49.1370   33.3510   41.7870 H   0  0  0  0  0  0  0  0  0  0  0  0
   50.1730   34.8670   41.9060 H   0  0  0  0  0  0  0  0  0  0  0  0
   49.0800   35.6970   39.8730 H   0  0  0  0  0  0  0  0  0  0  0  0
   45.6920   32.7410   43.3530 C   0  0  0  0  0  0  0  0  0  0  0  0
   46.8630   33.3560   42.9240 C   0  0  0  0  0  0  0  0  0  0  0  0
   46.7760   34.6050   42.2950 C   0  0  0  0  0  0  0  0  0  0  0  0
   45.5440   35.1650   42.1290 N   0  0  0  0  0  0  0  0  0  0  0  0
   44.4270   34.5360   42.5600 C   0  0  0  0  0  0  0  0  0  0  0  0
   44.5010   33.3280   43.1690 N   0  0  0  0  0  0  0  0  0  0  0  0
   45.6810   31.7800   43.8440 H   0  0  0  0  0  0  0  0  0  0  0  0
   47.8010   32.8600   43.0880 H   0  0  0  0  0  0  0  0  0  0  0  0
   43.6150   35.2140   42.2950 H   0  0  0  0  0  0  0  0  0  0  0  0
  1 24  1  0  0  0  0
  2  1  1  0  0  0  0
  2  7  1  0  0  0  0
  3  4  1  0  0  0  0
  3  2  2  0  0  0  0
  4  5  2  0  0  0  0
  5  6  1  0  0  0  0
  6 12  1  0  0  0  0
  7  6  2  0  0  0  0
  8  3  1  0  0  0  0
  9  4  1  0  0  0  0
 10  5  1  0  0  0  0
 11 12  2  0  0  0  0
 11 21  1  0  0  0  0
 12 13  1  0  0  0  0
 13 14  1  0  0  0  0
 13 15  2  0  0  0  0
 15 16  1  0  0  0  0
 16 17  1  0  0  0  0
 16 22  1  0  0  0  0
 17 18  1  0  0  0  0
 19 17  2  0  0  0  0
 20 15  1  0  0  0  0
 20 19  1  0  0  0  0
 21 20  2  0  0  0  0
 24 23  2  1  0  0  0
 24 27  1  0  0  0  0
 25 24  1  0  0  0  0
 26 25  1  0  0  0  0
 27 30  1  0  0  0  0
 28 31  1  1  0  0  0
 28 37  1  0  0  0  0
 29 32  1  0  0  0  0
 29 28  1  0  0  0  0
 29 33  1  0  0  0  0
 30 34  1  6  0  0  0
 30 29  1  0  0  0  0
 30 28  1  0  0  0  0
 35 41  1  0  0  0  0
 36 42  1  0  0  0  0
 36 35  2  0  0  0  0
 37 36  1  0  0  0  0
 38 37  2  0  0  0  0
 38 39  1  0  0  0  0
 39 40  2  0  0  0  0
 40 35  1  0  0  0  0
 43 39  1  0  0  0  0
M  END
>  <minimizedAffinity>
-5.76134539

>  <minimizedRMSD>
1.03871238

$$$$
