
 OpenBabel03242510573D

 39 42  0  0  0  0  0  0  0  0999 V2000
   45.6430   31.5840   47.1020 C   0  0  0  0  0  0  0  0  0  0  0  0
   45.5530   32.0430   48.4340 C   0  0  0  0  0  0  0  0  0  0  0  0
   45.3260   31.2000   49.5090 C   0  0  0  0  0  0  0  0  0  0  0  0
   45.1840   29.8630   49.2520 C   0  0  0  0  0  0  0  0  0  0  0  0
   45.2740   29.4110   47.9320 C   0  0  0  0  0  0  0  0  0  0  0  0
   45.4940   30.2720   46.9430 N   0  0  0  0  0  0  0  0  0  0  0  0
   45.6670   33.1030   48.6170 H   0  0  0  0  0  0  0  0  0  0  0  0
   45.2670   31.6180   50.5110 H   0  0  0  0  0  0  0  0  0  0  0  0
   45.0050   29.1650   50.0660 H   0  0  0  0  0  0  0  0  0  0  0  0
   44.7740   36.5900   43.8530 C   0  0  0  0  0  0  0  0  0  0  0  0
   45.6710   36.3230   42.8280 C   0  0  0  0  0  0  0  0  0  0  0  0
   46.3380   35.0870   42.8510 C   0  0  0  0  0  0  0  0  0  0  0  0
   46.0740   34.2130   43.8710 N   0  0  0  0  0  0  0  0  0  0  0  0
   45.1780   34.5340   44.8530 C   0  0  0  0  0  0  0  0  0  0  0  0
   44.5260   35.7290   44.8420 N   0  0  0  0  0  0  0  0  0  0  0  0
   45.8850   32.5500   46.0410 C   0  0  0  0  0  0  0  0  0  0  0  0
   46.9180   32.3980   45.3240 O   0  0  0  0  0  0  0  0  0  0  0  0
   44.9400   33.6010   45.8830 N   0  0  0  0  0  0  0  0  0  0  0  0
   44.2300   37.5430   43.8760 H   0  0  0  0  0  0  0  0  0  0  0  0
   45.8670   37.0210   42.0340 H   0  0  0  0  0  0  0  0  0  0  0  0
   47.0480   34.7980   42.0990 H   0  0  0  0  0  0  0  0  0  0  0  0
   44.1070   33.6710   46.5080 H   0  0  0  0  0  0  0  0  0  0  0  0
   45.1230   27.9930   47.6750 C   0  0  0  0  0  0  0  0  0  0  0  0
   44.5450   27.2060   48.5850 C   0  0  0  0  0  0  0  0  0  0  0  0
   44.3340   25.7350   48.4340 C   0  0  0  0  0  0  0  0  0  0  0  0
   43.3930   25.4490   48.9090 H   0  0  0  0  0  0  0  0  0  0  0  0
   44.2540   25.5010   47.3570 H   0  0  0  0  0  0  0  0  0  0  0  0
   46.5890   24.7430   48.3570 C   0  0  0  0  0  0  0  0  0  0  0  0
   45.4510   25.0200   49.1120 C   0  0  0  0  0  0  0  0  0  0  0  0
   45.4740   24.6020   50.4200 C   0  0  0  0  0  0  0  0  0  0  0  0
   44.6020   24.8130   51.0030 H   0  0  0  0  0  0  0  0  0  0  0  0
   46.5900   23.9430   50.9190 C   0  0  0  0  0  0  0  0  0  0  0  0
   46.8390   23.4490   52.1430 N   0  0  0  0  0  0  0  0  0  0  0  0
   48.0720   22.8890   52.1580 C   0  0  0  0  0  0  0  0  0  0  0  0
   48.6410   22.3940   52.9220 H   0  0  0  0  0  0  0  0  0  0  0  0
   48.5990   23.0400   50.9110 N   0  0  0  0  0  0  0  0  0  0  0  0
   47.7040   23.6790   50.1530 C   0  0  0  0  0  0  0  0  0  0  0  0
   47.7000   24.0920   48.8370 C   0  0  0  0  0  0  0  0  0  0  0  0
   46.2330   23.4600   52.9810 H   0  0  0  0  0  0  0  0  0  0  0  0
  1  2  1  0  0  0  0
  2  7  1  0  0  0  0
  2  3  2  0  0  0  0
  3  8  1  0  0  0  0
  4  3  1  0  0  0  0
  4  9  1  0  0  0  0
  5  4  2  0  0  0  0
  6  1  2  0  0  0  0
  6  5  1  0  0  0  0
 10 19  1  0  0  0  0
 10 15  1  0  0  0  0
 11 12  1  0  0  0  0
 11 10  2  0  0  0  0
 12 13  2  0  0  0  0
 13 14  1  0  0  0  0
 14 18  1  0  0  0  0
 15 14  2  0  0  0  0
 16  1  1  0  0  0  0
 17 16  2  0  0  0  0
 18 16  1  0  0  0  0
 18 22  1  0  0  0  0
 20 11  1  0  0  0  0
 21 12  1  0  0  0  0
 23  5  1  0  0  0  0
 23 24  2  0  0  0  0
 25 24  1  0  0  0  0
 25 26  1  0  0  0  0
 25 29  1  0  0  0  0
 27 25  1  0  0  0  0
 28 38  2  0  0  0  0
 28 29  1  0  0  0  0
 29 30  2  0  0  0  0
 30 32  1  0  0  0  0
 30 31  1  0  0  0  0
 32 33  1  0  0  0  0
 33 34  1  0  0  0  0
 33 39  1  0  0  0  0
 34 35  1  0  0  0  0
 36 34  2  0  0  0  0
 37 36  1  0  0  0  0
 37 32  2  0  0  0  0
 38 37  1  0  0  0  0
M  END
>  <minimizedAffinity>
-6.40417862

>  <minimizedRMSD>
3.29565287

$$$$
