REMARK  Name = 
REMARK  2 active torsions:
REMARK  status: ('A' for Active; 'I' for Inactive)
REMARK    1  A    between atoms: C_3  and  C_7
REMARK    2  A    between atoms: C_7  and  C_14
REMARK                            x       y       z     vdW  Elec       q    Type
REMARK                         _______ _______ _______ _____ _____    ______ ____
ROOT
ATOM      1  C   UNL     1      46.958  34.777  41.930  0.00  0.00    +0.000 C 
ATOM      2  H   UNL     1      47.243  35.768  41.548  0.00  0.00    +0.000 HD
ATOM      3  H   UNL     1      47.915  34.258  42.153  0.00  0.00    +0.000 HD
ENDROOT
BRANCH   1   5
ATOM      4  C   UNL     1      47.053  33.588  39.782  0.00  0.00    +0.000 A 
ATOM      5  C   UNL     1      46.291  33.987  40.860  0.00  0.00    +0.000 A 
ATOM      6  C   UNL     1      44.953  33.655  40.929  0.00  0.00    +0.000 A 
ATOM      7  H   UNL     1      44.339  33.966  41.779  0.00  0.00    +0.000 HD
ATOM      8  C   UNL     1      44.354  32.920  39.924  0.00  0.00    +0.000 A 
ATOM      9  N   UNL     1      43.090  32.456  39.722  0.00  0.00    +0.000 N 
ATOM     10  C   UNL     1      43.121  31.791  38.531  0.00  0.00    +0.000 A 
ATOM     11  H   UNL     1      42.255  31.306  38.098  0.00  0.00    +0.000 HD
ATOM     12  N   UNL     1      44.367  31.838  38.004  0.00  0.00    +0.000 NA
ATOM     13  C   UNL     1      45.126  32.536  38.866  0.00  0.00    +0.000 A 
ATOM     14  C   UNL     1      46.476  32.846  38.753  0.00  0.00    +0.000 A 
ATOM     15  H   UNL     1      42.275  32.592  40.362  0.00  0.00    +0.000 HD
ENDBRANCH   1   5
BRANCH   1  18
ATOM     16  C   UNL     1      44.561  36.011  44.492  0.00  0.00    +0.000 A 
ATOM     17  C   UNL     1      45.309  35.916  43.298  0.00  0.00    +0.000 A 
ATOM     18  C   UNL     1      46.193  34.859  43.172  0.00  0.00    +0.000 A 
ATOM     19  N   UNL     1      46.304  33.963  44.196  0.00  0.00    +0.000 NA
ATOM     20  C   UNL     1      45.570  34.090  45.322  0.00  0.00    +0.000 A 
ATOM     21  N   UNL     1      44.709  35.099  45.473  0.00  0.00    +0.000 NA
ATOM     22  H   UNL     1      43.857  36.819  44.640  0.00  0.00    +0.000 HD
ATOM     23  H   UNL     1      45.146  36.673  42.557  0.00  0.00    +0.000 HD
ATOM     24  H   UNL     1      45.701  33.337  46.114  0.00  0.00    +0.000 HD
ENDBRANCH   1  18
TORSDOF 2
