
 OpenBabel03252506593D

 27 29  0  0  0  0  0  0  0  0999 V2000
   36.8160   28.5640   42.0440 C   0  0  0  0  0  0  0  0  0  0  0  0
   35.7340   28.7530   42.1110 H   0  0  0  0  0  0  0  0  0  0  0  0
   37.0590   27.8170   41.2370 H   0  0  0  0  0  0  0  0  0  0  0  0
   38.8600   30.0930   42.0370 C   0  0  0  0  0  3  0  0  0  0  0  0
   37.5480   29.8180   41.7090 C   0  0  0  0  0  0  0  0  0  0  0  0
   36.8270   30.7790   41.0050 C   0  0  0  0  0  0  0  0  0  0  0  0
   35.7820   30.6020   40.7240 H   0  0  0  0  0  0  0  0  0  0  0  0
   37.3360   31.9980   40.6090 C   0  0  0  0  0  0  0  0  0  0  0  0
   36.8220   33.0430   39.9380 N   0  0  0  0  0  0  0  0  0  0  0  0
   37.7930   33.9520   39.8490 C   0  0  0  0  0  0  0  0  0  0  0  0
   37.6340   34.8860   39.3540 H   0  0  0  0  0  0  0  0  0  0  0  0
   38.9180   33.4810   40.4630 N   0  0  0  0  0  0  0  0  0  0  0  0
   38.6570   32.2390   40.9560 C   0  0  0  0  0  0  0  0  0  0  0  0
   39.4100   31.3040   41.6600 C   0  0  0  0  0  3  0  0  0  0  0  0
   35.8530   33.0930   39.5770 H   0  0  0  0  0  0  0  0  0  0  0  0
   37.3610   28.0810   43.3720 C   0  0  0  0  0  0  0  0  0  0  0  0
   36.5020   27.9660   44.0270 H   0  0  0  0  0  0  0  0  0  0  0  0
   38.0890   28.8520   43.7550 H   0  0  0  0  0  0  0  0  0  0  0  0
   38.0940   26.8360   43.1570 C   0  0  0  0  0  0  0  0  0  0  0  0
   39.3620   26.6230   43.6800 C   0  0  0  0  0  0  0  0  0  0  0  0
   39.9890   25.3840   43.4170 C   0  0  0  0  0  0  0  0  0  0  0  0
   39.3050   24.4690   42.6620 N   0  0  0  0  0  0  0  0  0  0  0  0
   38.0770   24.7220   42.1770 C   0  0  0  0  0  0  0  0  0  0  0  0
   37.5000   25.8930   42.4320 N   0  0  0  0  0  0  0  0  0  0  0  0
   39.8450   27.3800   44.2630 H   0  0  0  0  0  0  0  0  0  0  0  0
   40.9760   25.2140   43.8230 H   0  0  0  0  0  0  0  0  0  0  0  0
   37.6000   23.9480   41.5880 H   0  0  0  0  0  0  0  0  0  0  0  0
  1  2  1  0  0  0  0
  1 16  1  0  0  0  0
  3  1  1  0  0  0  0
  5  4  1  0  0  0  0
  5  1  1  0  0  0  0
  6  5  2  0  0  0  0
  7  6  1  0  0  0  0
  8 13  2  0  0  0  0
  8  6  1  0  0  0  0
  9  8  1  0  0  0  0
 10  9  1  0  0  0  0
 10 12  2  0  0  0  0
 11 10  1  0  0  0  0
 12 13  1  0  0  0  0
 13 14  1  0  0  0  0
 14  4  2  0  0  0  0
 15  9  1  0  0  0  0
 16 18  1  0  0  0  0
 16 17  1  0  0  0  0
 19 16  1  0  0  0  0
 19 20  1  0  0  0  0
 20 25  1  0  0  0  0
 21 20  2  0  0  0  0
 21 26  1  0  0  0  0
 22 21  1  0  0  0  0
 23 24  1  0  0  0  0
 23 22  2  0  0  0  0
 24 19  2  0  0  0  0
 27 23  1  0  0  0  0
M  END
>  <minimizedAffinity>
-5.36790752

$$$$

 OpenBabel03252506593D

 27 29  0  0  0  0  0  0  0  0999 V2000
   36.1540   28.0540   41.8240 C   0  0  0  0  0  0  0  0  0  0  0  0
   35.1740   28.2470   42.2870 H   0  0  0  0  0  0  0  0  0  0  0  0
   36.1910   27.0400   41.3360 H   0  0  0  0  0  0  0  0  0  0  0  0
   36.5570   28.7870   39.4140 C   0  0  0  0  0  3  0  0  0  0  0  0
   36.4380   29.0580   40.7610 C   0  0  0  0  0  0  0  0  0  0  0  0
   36.5920   30.3750   41.1860 C   0  0  0  0  0  0  0  0  0  0  0  0
   36.5050   30.6350   42.2480 H   0  0  0  0  0  0  0  0  0  0  0  0
   36.8590   31.4370   40.3490 C   0  0  0  0  0  0  0  0  0  0  0  0
   37.0400   32.7540   40.5500 N   0  0  0  0  0  0  0  0  0  0  0  0
   37.2680   33.2940   39.3530 C   0  0  0  0  0  0  0  0  0  0  0  0
   37.4450   34.3410   39.2430 H   0  0  0  0  0  0  0  0  0  0  0  0
   37.2310   32.3190   38.3980 N   0  0  0  0  0  0  0  0  0  0  0  0
   36.9720   31.1270   39.0020 C   0  0  0  0  0  0  0  0  0  0  0  0
   36.8250   29.8230   38.5380 C   0  0  0  0  0  3  0  0  0  0  0  0
   37.0020   33.2190   41.4750 H   0  0  0  0  0  0  0  0  0  0  0  0
   37.2640   28.1730   42.8470 C   0  0  0  0  0  0  0  0  0  0  0  0
   36.7820   28.4120   43.7910 H   0  0  0  0  0  0  0  0  0  0  0  0
   37.9670   28.9870   42.5090 H   0  0  0  0  0  0  0  0  0  0  0  0
   38.0110   26.9180   42.8820 C   0  0  0  0  0  0  0  0  0  0  0  0
   37.5790   25.7800   42.2170 C   0  0  0  0  0  0  0  0  0  0  0  0
   38.3730   24.6140   42.3100 C   0  0  0  0  0  0  0  0  0  0  0  0
   39.5220   24.6810   43.0520 N   0  0  0  0  0  0  0  0  0  0  0  0
   39.9000   25.8090   43.6780 C   0  0  0  0  0  0  0  0  0  0  0  0
   39.1420   26.8980   43.5820 N   0  0  0  0  0  0  0  0  0  0  0  0
   36.6680   25.7910   41.6530 H   0  0  0  0  0  0  0  0  0  0  0  0
   38.0400   23.7250   41.7930 H   0  0  0  0  0  0  0  0  0  0  0  0
   40.8220   25.7840   44.2460 H   0  0  0  0  0  0  0  0  0  0  0  0
  1  2  1  0  0  0  0
  1 16  1  0  0  0  0
  3  1  1  0  0  0  0
  4  5  1  0  0  0  0
  5  6  2  0  0  0  0
  5  1  1  0  0  0  0
  6  7  1  0  0  0  0
  8  9  1  0  0  0  0
  8  6  1  0  0  0  0
  9 15  1  0  0  0  0
 10  9  1  0  0  0  0
 11 10  1  0  0  0  0
 12 13  1  0  0  0  0
 12 10  2  0  0  0  0
 13  8  2  0  0  0  0
 14 13  1  0  0  0  0
 14  4  2  0  0  0  0
 16 19  1  0  0  0  0
 16 17  1  0  0  0  0
 18 16  1  0  0  0  0
 19 24  1  0  0  0  0
 20 21  1  0  0  0  0
 20 19  2  0  0  0  0
 21 22  2  0  0  0  0
 22 23  1  0  0  0  0
 23 27  1  0  0  0  0
 24 23  2  0  0  0  0
 25 20  1  0  0  0  0
 26 21  1  0  0  0  0
M  END
>  <minimizedAffinity>
-5.3406806

$$$$

 OpenBabel03252506593D

 27 29  0  0  0  0  0  0  0  0999 V2000
   37.6010   28.3940   43.3820 C   0  0  0  0  0  0  0  0  0  0  0  0
   37.2810   28.6970   44.3900 H   0  0  0  0  0  0  0  0  0  0  0  0
   36.7620   27.9130   42.8060 H   0  0  0  0  0  0  0  0  0  0  0  0
   39.2940   30.1630   42.6630 C   0  0  0  0  0  3  0  0  0  0  0  0
   38.0460   29.5780   42.5950 C   0  0  0  0  0  0  0  0  0  0  0  0
   37.1070   30.1220   41.7230 C   0  0  0  0  0  0  0  0  0  0  0  0
   36.1040   29.6880   41.6370 H   0  0  0  0  0  0  0  0  0  0  0  0
   37.3370   31.2160   40.9150 C   0  0  0  0  0  0  0  0  0  0  0  0
   36.5860   31.8840   40.0230 N   0  0  0  0  0  0  0  0  0  0  0  0
   37.3470   32.8670   39.5440 C   0  0  0  0  0  0  0  0  0  0  0  0
   36.9760   33.5490   38.8110 H   0  0  0  0  0  0  0  0  0  0  0  0
   38.5790   32.8190   40.1330 N   0  0  0  0  0  0  0  0  0  0  0  0
   38.6010   31.7770   41.0100 C   0  0  0  0  0  0  0  0  0  0  0  0
   39.5670   31.2630   41.8700 C   0  0  0  0  0  3  0  0  0  0  0  0
   35.6060   31.6480   39.7840 H   0  0  0  0  0  0  0  0  0  0  0  0
   38.7820   27.4490   43.4560 C   0  0  0  0  0  0  0  0  0  0  0  0
   39.0050   27.3240   44.5110 H   0  0  0  0  0  0  0  0  0  0  0  0
   39.6400   27.9140   42.8920 H   0  0  0  0  0  0  0  0  0  0  0  0
   38.4290   26.1990   42.7870 C   0  0  0  0  0  0  0  0  0  0  0  0
   37.1420   25.9350   42.3400 C   0  0  0  0  0  0  0  0  0  0  0  0
   36.9000   24.6960   41.7030 C   0  0  0  0  0  0  0  0  0  0  0  0
   37.9540   23.8320   41.5670 N   0  0  0  0  0  0  0  0  0  0  0  0
   39.1840   24.1330   42.0180 C   0  0  0  0  0  0  0  0  0  0  0  0
   39.3960   25.3020   42.6150 N   0  0  0  0  0  0  0  0  0  0  0  0
   36.3600   26.6540   42.4770 H   0  0  0  0  0  0  0  0  0  0  0  0
   35.9000   24.4880   41.3530 H   0  0  0  0  0  0  0  0  0  0  0  0
   39.9660   23.3970   41.8730 H   0  0  0  0  0  0  0  0  0  0  0  0
  1 16  1  0  0  0  0
  1  2  1  0  0  0  0
  3  1  1  0  0  0  0
  5  4  1  0  0  0  0
  5  1  1  0  0  0  0
  6  5  2  0  0  0  0
  7  6  1  0  0  0  0
  8 13  2  0  0  0  0
  8  6  1  0  0  0  0
  9  8  1  0  0  0  0
 10  9  1  0  0  0  0
 10 12  2  0  0  0  0
 11 10  1  0  0  0  0
 12 13  1  0  0  0  0
 13 14  1  0  0  0  0
 14  4  2  0  0  0  0
 15  9  1  0  0  0  0
 16 17  1  0  0  0  0
 18 16  1  0  0  0  0
 19 16  1  0  0  0  0
 20 25  1  0  0  0  0
 20 19  2  0  0  0  0
 21 20  1  0  0  0  0
 22 21  2  0  0  0  0
 22 23  1  0  0  0  0
 23 24  2  0  0  0  0
 24 19  1  0  0  0  0
 26 21  1  0  0  0  0
 27 23  1  0  0  0  0
M  END
>  <minimizedAffinity>
-5.14016914

$$$$

 OpenBabel03252506593D

 27 29  0  0  0  0  0  0  0  0999 V2000
   36.8090   28.1830   42.6410 C   0  0  0  0  0  0  0  0  0  0  0  0
   36.4790   28.2920   43.6850 H   0  0  0  0  0  0  0  0  0  0  0  0
   35.9370   28.0440   41.9410 H   0  0  0  0  0  0  0  0  0  0  0  0
   38.8570   29.6950   42.4660 C   0  0  0  0  0  3  0  0  0  0  0  0
   37.5370   29.4020   42.1910 C   0  0  0  0  0  0  0  0  0  0  0  0
   36.8040   30.3080   41.4290 C   0  0  0  0  0  0  0  0  0  0  0  0
   35.7520   30.1140   41.1860 H   0  0  0  0  0  0  0  0  0  0  0  0
   37.3080   31.4890   40.9250 C   0  0  0  0  0  0  0  0  0  0  0  0
   36.7830   32.4790   40.1840 N   0  0  0  0  0  0  0  0  0  0  0  0
   37.7540   33.3730   40.0010 C   0  0  0  0  0  0  0  0  0  0  0  0
   37.5870   34.2650   39.4370 H   0  0  0  0  0  0  0  0  0  0  0  0
   38.8910   32.9470   40.6260 N   0  0  0  0  0  0  0  0  0  0  0  0
   38.6370   31.7500   41.2220 C   0  0  0  0  0  0  0  0  0  0  0  0
   39.4030   30.8690   41.9810 C   0  0  0  0  0  3  0  0  0  0  0  0
   35.8050   32.5050   39.8420 H   0  0  0  0  0  0  0  0  0  0  0  0
   37.7710   27.0220   42.5000 C   0  0  0  0  0  0  0  0  0  0  0  0
   37.8840   26.6000   43.4950 H   0  0  0  0  0  0  0  0  0  0  0  0
   38.7440   27.4190   42.0930 H   0  0  0  0  0  0  0  0  0  0  0  0
   37.2290   26.0740   41.5290 C   0  0  0  0  0  0  0  0  0  0  0  0
   36.9900   24.7450   41.8450 C   0  0  0  0  0  0  0  0  0  0  0  0
   36.4620   23.9070   40.8360 C   0  0  0  0  0  0  0  0  0  0  0  0
   36.2190   24.4610   39.6080 N   0  0  0  0  0  0  0  0  0  0  0  0
   36.4680   25.7570   39.3500 C   0  0  0  0  0  0  0  0  0  0  0  0
   36.9650   26.5330   40.3090 N   0  0  0  0  0  0  0  0  0  0  0  0
   37.2020   24.3710   42.8260 H   0  0  0  0  0  0  0  0  0  0  0  0
   36.2730   22.8710   41.0780 H   0  0  0  0  0  0  0  0  0  0  0  0
   36.2500   26.1210   38.3530 H   0  0  0  0  0  0  0  0  0  0  0  0
  1  2  1  0  0  0  0
  3  1  1  0  0  0  0
  5  4  1  0  0  0  0
  5  1  1  0  0  0  0
  6  5  2  0  0  0  0
  7  6  1  0  0  0  0
  8 13  2  0  0  0  0
  8  6  1  0  0  0  0
  9  8  1  0  0  0  0
 10  9  1  0  0  0  0
 10 12  2  0  0  0  0
 11 10  1  0  0  0  0
 12 13  1  0  0  0  0
 13 14  1  0  0  0  0
 14  4  2  0  0  0  0
 15  9  1  0  0  0  0
 16  1  1  0  0  0  0
 16 17  1  0  0  0  0
 18 16  1  0  0  0  0
 19 20  1  0  0  0  0
 19 16  1  0  0  0  0
 20 25  1  0  0  0  0
 21 26  1  0  0  0  0
 21 20  2  0  0  0  0
 22 21  1  0  0  0  0
 23 22  2  0  0  0  0
 23 24  1  0  0  0  0
 24 19  2  0  0  0  0
 27 23  1  0  0  0  0
M  END
>  <minimizedAffinity>
-5.03158331

$$$$

 OpenBabel03252506593D

 27 29  0  0  0  0  0  0  0  0999 V2000
   37.6300   28.7110   43.3570 C   0  0  0  0  0  0  0  0  0  0  0  0
   38.5750   28.5020   43.8790 H   0  0  0  0  0  0  0  0  0  0  0  0
   36.8220   29.0330   44.0720 H   0  0  0  0  0  0  0  0  0  0  0  0
   36.8700   30.2250   41.4480 C   0  0  0  0  0  3  0  0  0  0  0  0
   37.8070   29.8170   42.3750 C   0  0  0  0  0  0  0  0  0  0  0  0
   39.0290   30.4840   42.4150 C   0  0  0  0  0  0  0  0  0  0  0  0
   39.8030   30.1930   43.1360 H   0  0  0  0  0  0  0  0  0  0  0  0
   39.3730   31.5310   41.5860 C   0  0  0  0  0  0  0  0  0  0  0  0
   40.4730   32.2930   41.4630 N   0  0  0  0  0  0  0  0  0  0  0  0
   40.2280   33.1580   40.4790 C   0  0  0  0  0  0  0  0  0  0  0  0
   40.9560   33.8820   40.1840 H   0  0  0  0  0  0  0  0  0  0  0  0
   38.9750   32.9420   39.9820 N   0  0  0  0  0  0  0  0  0  0  0  0
   38.4060   31.9120   40.6680 C   0  0  0  0  0  0  0  0  0  0  0  0
   37.1730   31.2710   40.5960 C   0  0  0  0  0  3  0  0  0  0  0  0
   41.3270   32.1940   42.0410 H   0  0  0  0  0  0  0  0  0  0  0  0
   37.1700   27.5000   42.5720 C   0  0  0  0  0  0  0  0  0  0  0  0
   37.0610   27.8290   41.5430 H   0  0  0  0  0  0  0  0  0  0  0  0
   36.1950   27.1460   43.0130 H   0  0  0  0  0  0  0  0  0  0  0  0
   38.1530   26.4310   42.7360 C   0  0  0  0  0  0  0  0  0  0  0  0
   39.2910   26.5820   43.5150 C   0  0  0  0  0  0  0  0  0  0  0  0
   40.1800   25.4880   43.6110 C   0  0  0  0  0  0  0  0  0  0  0  0
   39.8630   24.3440   42.9290 N   0  0  0  0  0  0  0  0  0  0  0  0
   38.7460   24.2450   42.1860 C   0  0  0  0  0  0  0  0  0  0  0  0
   37.9190   25.2830   42.1040 N   0  0  0  0  0  0  0  0  0  0  0  0
   39.4840   27.5040   44.0240 H   0  0  0  0  0  0  0  0  0  0  0  0
   41.0670   25.6020   44.2180 H   0  0  0  0  0  0  0  0  0  0  0  0
   38.5640   23.3080   41.6750 H   0  0  0  0  0  0  0  0  0  0  0  0
  1  2  1  0  0  0  0
  1  3  1  0  0  0  0
  4  5  1  0  0  0  0
  5  6  2  0  0  0  0
  5  1  1  0  0  0  0
  6  7  1  0  0  0  0
  8  6  1  0  0  0  0
  9  8  1  0  0  0  0
  9 15  1  0  0  0  0
 10  9  1  0  0  0  0
 11 10  1  0  0  0  0
 12 10  2  0  0  0  0
 12 13  1  0  0  0  0
 13  8  2  0  0  0  0
 14 13  1  0  0  0  0
 14  4  2  0  0  0  0
 16 19  1  0  0  0  0
 16 18  1  0  0  0  0
 16  1  1  0  0  0  0
 17 16  1  0  0  0  0
 19 20  1  0  0  0  0
 20 21  2  0  0  0  0
 20 25  1  0  0  0  0
 21 26  1  0  0  0  0
 22 21  1  0  0  0  0
 23 22  2  0  0  0  0
 24 23  1  0  0  0  0
 24 19  2  0  0  0  0
 27 23  1  0  0  0  0
M  END
>  <minimizedAffinity>
-5.00897598

$$$$

 OpenBabel03252506593D

 27 29  0  0  0  0  0  0  0  0999 V2000
   36.7520   28.2360   42.3440 C   0  0  0  0  0  0  0  0  0  0  0  0
   35.7660   28.2700   42.8290 H   0  0  0  0  0  0  0  0  0  0  0  0
   36.7900   27.4570   41.5320 H   0  0  0  0  0  0  0  0  0  0  0  0
   36.1770   30.3340   41.0100 C   0  0  0  0  0  3  0  0  0  0  0  0
   37.0690   29.5450   41.7070 C   0  0  0  0  0  0  0  0  0  0  0  0
   38.3820   29.9900   41.8380 C   0  0  0  0  0  0  0  0  0  0  0  0
   39.1230   29.3950   42.3850 H   0  0  0  0  0  0  0  0  0  0  0  0
   38.8580   31.1740   41.3160 C   0  0  0  0  0  0  0  0  0  0  0  0
   40.0600   31.7750   41.3290 N   0  0  0  0  0  0  0  0  0  0  0  0
   39.9220   32.9160   40.6530 C   0  0  0  0  0  0  0  0  0  0  0  0
   40.7450   33.5830   40.5190 H   0  0  0  0  0  0  0  0  0  0  0  0
   38.6340   33.0340   40.2150 N   0  0  0  0  0  0  0  0  0  0  0  0
   37.9340   31.9400   40.6230 C   0  0  0  0  0  0  0  0  0  0  0  0
   36.6120   31.5300   40.4690 C   0  0  0  0  0  3  0  0  0  0  0  0
   40.9070   31.3910   41.7860 H   0  0  0  0  0  0  0  0  0  0  0  0
   37.8420   27.9710   43.3620 C   0  0  0  0  0  0  0  0  0  0  0  0
   37.3720   28.0540   44.3370 H   0  0  0  0  0  0  0  0  0  0  0  0
   38.6560   28.7370   43.2130 H   0  0  0  0  0  0  0  0  0  0  0  0
   38.4140   26.6510   43.1070 C   0  0  0  0  0  0  0  0  0  0  0  0
   37.7840   25.7120   42.3030 C   0  0  0  0  0  0  0  0  0  0  0  0
   38.4200   24.4630   42.1170 C   0  0  0  0  0  0  0  0  0  0  0  0
   39.6200   24.2570   42.7430 N   0  0  0  0  0  0  0  0  0  0  0  0
   40.1920   25.1990   43.5130 C   0  0  0  0  0  0  0  0  0  0  0  0
   39.5820   26.3690   43.6800 N   0  0  0  0  0  0  0  0  0  0  0  0
   36.8440   25.9340   41.8410 H   0  0  0  0  0  0  0  0  0  0  0  0
   37.9320   23.7300   41.4900 H   0  0  0  0  0  0  0  0  0  0  0  0
   41.1420   24.9610   43.9750 H   0  0  0  0  0  0  0  0  0  0  0  0
  1  2  1  0  0  0  0
  1 16  1  0  0  0  0
  3  1  1  0  0  0  0
  4  5  1  0  0  0  0
  5  6  2  0  0  0  0
  5  1  1  0  0  0  0
  6  7  1  0  0  0  0
  8  9  1  0  0  0  0
  8  6  1  0  0  0  0
  9 15  1  0  0  0  0
 10  9  1  0  0  0  0
 11 10  1  0  0  0  0
 12 13  1  0  0  0  0
 12 10  2  0  0  0  0
 13  8  2  0  0  0  0
 14 13  1  0  0  0  0
 14  4  2  0  0  0  0
 16 17  1  0  0  0  0
 18 16  1  0  0  0  0
 19 16  1  0  0  0  0
 19 24  1  0  0  0  0
 20 19  2  0  0  0  0
 21 20  1  0  0  0  0
 21 22  2  0  0  0  0
 22 23  1  0  0  0  0
 23 24  2  0  0  0  0
 23 27  1  0  0  0  0
 25 20  1  0  0  0  0
 26 21  1  0  0  0  0
M  END
>  <minimizedAffinity>
-4.86657572

$$$$

 OpenBabel03252506593D

 27 29  0  0  0  0  0  0  0  0999 V2000
   36.4010   27.8410   41.5340 C   0  0  0  0  0  0  0  0  0  0  0  0
   35.3290   27.6770   41.7140 H   0  0  0  0  0  0  0  0  0  0  0  0
   36.8440   27.0280   40.8920 H   0  0  0  0  0  0  0  0  0  0  0  0
   36.4720   30.3860   41.3670 C   0  0  0  0  0  3  0  0  0  0  0  0
   36.6230   29.1280   40.8200 C   0  0  0  0  0  0  0  0  0  0  0  0
   37.0170   29.0310   39.4880 C   0  0  0  0  0  0  0  0  0  0  0  0
   37.1500   28.0520   39.0130 H   0  0  0  0  0  0  0  0  0  0  0  0
   37.2680   30.1120   38.6690 C   0  0  0  0  0  0  0  0  0  0  0  0
   37.6490   30.2340   37.3860 N   0  0  0  0  0  0  0  0  0  0  0  0
   37.7330   31.5400   37.1360 C   0  0  0  0  0  0  0  0  0  0  0  0
   38.0210   31.9040   36.1740 H   0  0  0  0  0  0  0  0  0  0  0  0
   37.4060   32.2420   38.2610 N   0  0  0  0  0  0  0  0  0  0  0  0
   37.1050   31.3590   39.2530 C   0  0  0  0  0  0  0  0  0  0  0  0
   36.7130   31.4980   40.5810 C   0  0  0  0  0  3  0  0  0  0  0  0
   37.8310   29.4390   36.7470 H   0  0  0  0  0  0  0  0  0  0  0  0
   37.1580   27.9310   42.8430 C   0  0  0  0  0  0  0  0  0  0  0  0
   36.4060   27.9430   43.6270 H   0  0  0  0  0  0  0  0  0  0  0  0
   37.7740   28.8750   42.8280 H   0  0  0  0  0  0  0  0  0  0  0  0
   38.0740   26.7960   42.9380 C   0  0  0  0  0  0  0  0  0  0  0  0
   39.2660   26.8630   43.6450 C   0  0  0  0  0  0  0  0  0  0  0  0
   40.0840   25.7110   43.6800 C   0  0  0  0  0  0  0  0  0  0  0  0
   39.6480   24.5980   43.0120 N   0  0  0  0  0  0  0  0  0  0  0  0
   38.4830   24.5820   42.3400 C   0  0  0  0  0  0  0  0  0  0  0  0
   37.7240   25.6740   42.3160 N   0  0  0  0  0  0  0  0  0  0  0  0
   39.5520   27.7650   44.1470 H   0  0  0  0  0  0  0  0  0  0  0  0
   41.0120   25.7590   44.2300 H   0  0  0  0  0  0  0  0  0  0  0  0
   38.2070   23.6630   41.8360 H   0  0  0  0  0  0  0  0  0  0  0  0
  1  2  1  0  0  0  0
  1 16  1  0  0  0  0
  3  1  1  0  0  0  0
  5  4  1  0  0  0  0
  5  1  1  0  0  0  0
  6  5  2  0  0  0  0
  7  6  1  0  0  0  0
  8 13  2  0  0  0  0
  8  6  1  0  0  0  0
  9  8  1  0  0  0  0
 10  9  1  0  0  0  0
 10 12  2  0  0  0  0
 11 10  1  0  0  0  0
 12 13  1  0  0  0  0
 13 14  1  0  0  0  0
 14  4  2  0  0  0  0
 15  9  1  0  0  0  0
 16 19  1  0  0  0  0
 16 17  1  0  0  0  0
 18 16  1  0  0  0  0
 19 20  1  0  0  0  0
 20 21  2  0  0  0  0
 20 25  1  0  0  0  0
 21 26  1  0  0  0  0
 22 21  1  0  0  0  0
 23 22  2  0  0  0  0
 24 23  1  0  0  0  0
 24 19  2  0  0  0  0
 27 23  1  0  0  0  0
M  END
>  <minimizedAffinity>
-4.78456926

$$$$

 OpenBabel03252506593D

 27 29  0  0  0  0  0  0  0  0999 V2000
   36.2070   29.3720   40.0440 C   0  0  0  0  0  0  0  0  0  0  0  0
   36.9630   29.5490   39.2650 H   0  0  0  0  0  0  0  0  0  0  0  0
   35.1790   29.2380   39.6030 H   0  0  0  0  0  0  0  0  0  0  0  0
   36.6190   28.0340   42.1770 C   0  0  0  0  0  3  0  0  0  0  0  0
   36.5180   28.1290   40.8040 C   0  0  0  0  0  0  0  0  0  0  0  0
   36.7180   26.9790   40.0450 C   0  0  0  0  0  0  0  0  0  0  0  0
   36.6460   27.0100   38.9520 H   0  0  0  0  0  0  0  0  0  0  0  0
   37.0150   25.7400   40.5730 C   0  0  0  0  0  0  0  0  0  0  0  0
   37.2400   24.5320   40.0300 N   0  0  0  0  0  0  0  0  0  0  0  0
   37.4790   23.6980   41.0420 C   0  0  0  0  0  0  0  0  0  0  0  0
   37.6890   22.6650   40.8710 H   0  0  0  0  0  0  0  0  0  0  0  0
   37.4030   24.3800   42.2230 N   0  0  0  0  0  0  0  0  0  0  0  0
   37.1090   25.6820   41.9550 C   0  0  0  0  0  0  0  0  0  0  0  0
   36.9150   26.8100   42.7490 C   0  0  0  0  0  3  0  0  0  0  0  0
   37.2240   24.3290   39.0140 H   0  0  0  0  0  0  0  0  0  0  0  0
   36.1930   30.5070   41.0470 C   0  0  0  0  0  0  0  0  0  0  0  0
   36.2370   30.0440   42.0280 H   0  0  0  0  0  0  0  0  0  0  0  0
   35.2440   31.0960   40.8960 H   0  0  0  0  0  0  0  0  0  0  0  0
   37.3220   31.3920   40.7730 C   0  0  0  0  0  0  0  0  0  0  0  0
   37.2070   32.5120   39.9630 C   0  0  0  0  0  0  0  0  0  0  0  0
   38.3570   33.3080   39.7610 C   0  0  0  0  0  0  0  0  0  0  0  0
   39.5170   32.9230   40.3790 N   0  0  0  0  0  0  0  0  0  0  0  0
   39.5790   31.8280   41.1570 C   0  0  0  0  0  0  0  0  0  0  0  0
   38.4880   31.0890   41.3370 N   0  0  0  0  0  0  0  0  0  0  0  0
   36.2700   32.7600   39.5060 H   0  0  0  0  0  0  0  0  0  0  0  0
   38.2710   34.1810   39.1300 H   0  0  0  0  0  0  0  0  0  0  0  0
   40.5320   31.5890   41.6120 H   0  0  0  0  0  0  0  0  0  0  0  0
  1  5  1  0  0  0  0
  1 16  1  0  0  0  0
  2  1  1  0  0  0  0
  3  1  1  0  0  0  0
  4 14  1  0  0  0  0
  5  4  2  0  0  0  0
  6  8  2  0  0  0  0
  6  5  1  0  0  0  0
  7  6  1  0  0  0  0
  8 13  1  0  0  0  0
  9  8  1  0  0  0  0
  9 10  1  0  0  0  0
 10 12  2  0  0  0  0
 11 10  1  0  0  0  0
 13 12  1  0  0  0  0
 13 14  2  0  0  0  0
 15  9  1  0  0  0  0
 16 17  1  0  0  0  0
 18 16  1  0  0  0  0
 19 16  1  0  0  0  0
 19 24  1  0  0  0  0
 20 19  2  0  0  0  0
 21 20  1  0  0  0  0
 21 22  2  0  0  0  0
 22 23  1  0  0  0  0
 23 24  2  0  0  0  0
 23 27  1  0  0  0  0
 25 20  1  0  0  0  0
 26 21  1  0  0  0  0
M  END
>  <minimizedAffinity>
-4.77201939

$$$$

 OpenBabel03252506593D

 27 29  0  0  0  0  0  0  0  0999 V2000
   36.9440   30.7510   39.6390 C   0  0  0  0  0  0  0  0  0  0  0  0
   37.9850   30.4210   39.7690 H   0  0  0  0  0  0  0  0  0  0  0  0
   36.8790   31.8610   39.4590 H   0  0  0  0  0  0  0  0  0  0  0  0
   35.1730   29.3240   38.4810 C   0  0  0  0  0  3  0  0  0  0  0  0
   36.3250   30.0840   38.4600 C   0  0  0  0  0  0  0  0  0  0  0  0
   36.9800   30.2570   37.2430 C   0  0  0  0  0  0  0  0  0  0  0  0
   37.8980   30.8530   37.1800 H   0  0  0  0  0  0  0  0  0  0  0  0
   36.5560   29.7160   36.0470 C   0  0  0  0  0  0  0  0  0  0  0  0
   37.0310   29.7600   34.7900 N   0  0  0  0  0  0  0  0  0  0  0  0
   36.1940   29.0410   34.0430 C   0  0  0  0  0  0  0  0  0  0  0  0
   36.3530   28.9200   32.9940 H   0  0  0  0  0  0  0  0  0  0  0  0
   35.1920   28.5450   34.8270 N   0  0  0  0  0  0  0  0  0  0  0  0
   35.3960   28.9590   36.1080 C   0  0  0  0  0  0  0  0  0  0  0  0
   34.7130   28.7630   37.3050 C   0  0  0  0  0  3  0  0  0  0  0  0
   37.8870   30.2650   34.5010 H   0  0  0  0  0  0  0  0  0  0  0  0
   36.1070   30.3760   40.8440 C   0  0  0  0  0  0  0  0  0  0  0  0
   35.1890   29.9470   40.4530 H   0  0  0  0  0  0  0  0  0  0  0  0
   35.9190   31.3100   41.4460 H   0  0  0  0  0  0  0  0  0  0  0  0
   36.8680   29.4480   41.6770 C   0  0  0  0  0  0  0  0  0  0  0  0
   36.4590   28.1400   41.8950 C   0  0  0  0  0  0  0  0  0  0  0  0
   37.2650   27.3190   42.7160 C   0  0  0  0  0  0  0  0  0  0  0  0
   38.4030   27.8670   43.2450 N   0  0  0  0  0  0  0  0  0  0  0  0
   38.7590   29.1410   43.0040 C   0  0  0  0  0  0  0  0  0  0  0  0
   37.9900   29.9010   42.2300 N   0  0  0  0  0  0  0  0  0  0  0  0
   35.5560   27.7710   41.4520 H   0  0  0  0  0  0  0  0  0  0  0  0
   36.9500   26.3000   42.8870 H   0  0  0  0  0  0  0  0  0  0  0  0
   39.6730   29.5010   43.4590 H   0  0  0  0  0  0  0  0  0  0  0  0
  1  2  1  0  0  0  0
  1 16  1  0  0  0  0
  3  1  1  0  0  0  0
  5  4  1  0  0  0  0
  5  1  1  0  0  0  0
  6  5  2  0  0  0  0
  7  6  1  0  0  0  0
  8 13  2  0  0  0  0
  8  6  1  0  0  0  0
  9  8  1  0  0  0  0
 10  9  1  0  0  0  0
 10 12  2  0  0  0  0
 11 10  1  0  0  0  0
 12 13  1  0  0  0  0
 13 14  1  0  0  0  0
 14  4  2  0  0  0  0
 15  9  1  0  0  0  0
 16 18  1  0  0  0  0
 16 19  1  0  0  0  0
 17 16  1  0  0  0  0
 19 20  2  0  0  0  0
 19 24  1  0  0  0  0
 20 21  1  0  0  0  0
 21 26  1  0  0  0  0
 21 22  2  0  0  0  0
 23 22  1  0  0  0  0
 23 27  1  0  0  0  0
 24 23  2  0  0  0  0
 25 20  1  0  0  0  0
M  END
>  <minimizedAffinity>
-4.70227194

$$$$
