REMARK  Name = 
REMARK  4 active torsions:
REMARK  status: ('A' for Active; 'I' for Inactive)
REMARK    1  A    between atoms: C_1  and  C_7
REMARK    2  A    between atoms: C_6  and  N_19
REMARK    3  A    between atoms: C_11  and  C_13
REMARK    4  A    between atoms: C_17  and  C_42
REMARK                            x       y       z     vdW  Elec       q    Type
REMARK                         _______ _______ _______ _____ _____    ______ ____
ROOT
ATOM      1  C   UNL     1      46.909  32.913  45.526  0.00  0.00    +0.000 A 
ATOM      2  C   UNL     1      45.801  33.588  46.015  0.00  0.00    +0.000 A 
ATOM      3  C   UNL     1      45.121  34.509  45.183  0.00  0.00    +0.000 A 
ATOM      4  N   UNL     1      45.632  34.676  43.898  0.00  0.00    +0.000 NA
ATOM      5  C   UNL     1      46.706  33.995  43.491  0.00  0.00    +0.000 A 
ATOM      6  N   UNL     1      47.334  33.129  44.288  0.00  0.00    +0.000 NA
ATOM      7  H   UNL     1      45.276  33.641  46.945  0.00  0.00    +0.000 HD
ATOM      8  H   UNL     1      44.261  35.105  45.394  0.00  0.00    +0.000 HD
ENDROOT
BRANCH   1   9
ATOM      9  C   UNL     1      47.556  31.964  46.410  0.00  0.00    +0.000 C 
ATOM     10  C   UNL     1      47.294  30.494  45.958  0.00  0.00    +0.000 C 
ATOM     11  C   UNL     1      48.111  29.570  46.796  0.00  0.00    +0.000 C 
ATOM     12  C   UNL     1      48.116  29.846  48.262  0.00  0.00    +0.000 C 
ATOM     13  C   UNL     1      48.127  31.247  48.605  0.00  0.00    +0.000 C 
ATOM     14  C   UNL     1      47.129  32.096  47.788  0.00  0.00    +0.000 C 
ATOM     15  H   UNL     1      48.663  32.043  46.273  0.00  0.00    +0.000 HD
ATOM     16  H   UNL     1      46.219  30.280  45.931  0.00  0.00    +0.000 HD
ATOM     17  H   UNL     1      47.647  30.480  44.907  0.00  0.00    +0.000 HD
ATOM     18  H   UNL     1      49.099  29.498  46.301  0.00  0.00    +0.000 HD
ATOM     19  H   UNL     1      47.660  28.541  46.676  0.00  0.00    +0.000 HD
ATOM     20  H   UNL     1      47.745  29.073  48.935  0.00  0.00    +0.000 HD
ATOM     21  H   UNL     1      49.230  29.593  48.487  0.00  0.00    +0.000 HD
ATOM     22  H   UNL     1      49.087  31.814  48.522  0.00  0.00    +0.000 HD
ATOM     23  H   UNL     1      47.817  31.377  49.675  0.00  0.00    +0.000 HD
ATOM     24  H   UNL     1      47.258  33.075  48.252  0.00  0.00    +0.000 HD
BRANCH  14  25
ATOM     25  N   UNL     1      45.789  31.530  47.953  0.00  0.00    +0.000 N 
ATOM     26  C   UNL     1      45.191  30.850  49.028  0.00  0.00    +0.000 C 
ATOM     27  O   UNL     1      44.760  31.446  50.080  0.00  0.00    +0.000 OA
ATOM     28  N   UNL     1      45.090  29.436  48.857  0.00  0.00    +0.000 N 
ATOM     29  H   UNL     1      45.064  31.525  47.140  0.00  0.00    +0.000 HD
ATOM     30  H   UNL     1      44.708  28.878  48.090  0.00  0.00    +0.000 HD
ATOM     31  H   UNL     1      45.451  28.810  49.610  0.00  0.00    +0.000 HD
ENDBRANCH  14  25
ENDBRANCH   1   9
BRANCH   5  32
ATOM     32  C   UNL     1      47.206  34.232  42.132  0.00  0.00    +0.000 A 
ATOM     33  C   UNL     1      48.191  35.163  41.890  0.00  0.00    +0.000 A 
ATOM     34  C   UNL     1      48.710  35.440  40.644  0.00  0.00    +0.000 A 
ATOM     35  C   UNL     1      48.167  34.705  39.614  0.00  0.00    +0.000 A 
ATOM     36  C   UNL     1      47.184  33.772  39.838  0.00  0.00    +0.000 A 
ATOM     37  N   UNL     1      46.703  33.536  41.099  0.00  0.00    +0.000 NA
ATOM     38  H   UNL     1      48.568  35.702  42.754  0.00  0.00    +0.000 HD
ATOM     39  H   UNL     1      49.473  36.167  40.491  0.00  0.00    +0.000 HD
ATOM     40  H   UNL     1      48.540  34.884  38.617  0.00  0.00    +0.000 HD
BRANCH  36  42
ATOM     41  C   UNL     1      47.300  31.933  38.221  0.00  0.00    +0.000 A 
ATOM     42  C   UNL     1      46.589  32.978  38.771  0.00  0.00    +0.000 A 
ATOM     43  C   UNL     1      45.340  33.188  38.251  0.00  0.00    +0.000 A 
ATOM     44  H   UNL     1      44.737  33.981  38.634  0.00  0.00    +0.000 HD
ATOM     45  C   UNL     1      44.779  32.434  37.241  0.00  0.00    +0.000 A 
ATOM     46  N   UNL     1      43.577  32.494  36.611  0.00  0.00    +0.000 N 
ATOM     47  C   UNL     1      43.542  31.520  35.699  0.00  0.00    +0.000 A 
ATOM     48  H   UNL     1      42.668  31.374  35.067  0.00  0.00    +0.000 HD
ATOM     49  N   UNL     1      44.721  30.837  35.746  0.00  0.00    +0.000 NA
ATOM     50  C   UNL     1      45.510  31.385  36.697  0.00  0.00    +0.000 A 
ATOM     51  C   UNL     1      46.770  31.144  37.196  0.00  0.00    +0.000 A 
ATOM     52  H   UNL     1      42.832  33.192  36.826  0.00  0.00    +0.000 HD
ENDBRANCH  36  42
ENDBRANCH   5  32
TORSDOF 4
