
     RDKit          3D

 50 53  0  0  0  0  0  0  0  0999 V2000
   47.1728   34.1558   43.0854 N   0  0  0  0  0  0  0  0  0  0  0  0
   46.6602   35.3540   42.5263 C   0  0  0  0  0  0  0  0  0  0  0  0
   45.1881   35.5945   42.7426 C   0  0  0  0  0  0  0  0  0  0  0  0
   44.6514   35.0493   44.0396 C   0  0  0  0  0  0  0  0  0  0  0  0
   45.7491   34.4672   44.8976 C   0  0  0  0  0  0  0  0  0  0  0  0
   46.4087   33.3939   43.9556 C   0  0  2  0  0  0  0  0  0  0  0  0
   48.1505   33.4988   42.2690 C   0  0  0  0  0  0  0  0  0  0  0  0
   47.4435   32.6514   41.2553 C   0  0  0  0  0  0  0  0  0  0  0  0
   49.3291   32.2795   38.0275 C   0  0  0  0  0  0  0  0  0  0  0  0
   48.8033   32.0165   39.3058 C   0  0  0  0  0  0  0  0  0  0  0  0
   47.9899   32.9462   39.9052 C   0  0  0  0  0  0  0  0  0  0  0  0
   47.7345   34.0740   39.2314 N   0  0  0  0  0  0  0  0  0  0  0  0
   48.2353   34.3273   38.0110 C   0  0  0  0  0  0  0  0  0  0  0  0
   49.0335   33.4387   37.3985 N   0  0  0  0  0  0  0  0  0  0  0  0
   47.2024   32.6905   44.8545 O   0  0  0  0  0  0  0  0  0  0  0  0
   46.0022   30.5411   43.8695 O   0  0  0  0  0  0  0  0  0  0  0  0
   46.6545   31.1184   45.1114 P   0  0  2  0  0  0  0  0  0  0  0  0
   45.3941   31.2404   46.2646 O   0  0  0  0  0  0  0  0  0  0  0  0
   47.8529   30.1506   45.7462 O   0  0  0  0  0  0  0  0  0  0  0  0
   46.8672   35.5208   41.4669 H   0  0  0  0  0  0  0  0  0  0  0  0
   47.1834   36.1969   43.0689 H   0  0  0  0  0  0  0  0  0  0  0  0
   45.0117   36.7056   42.6748 H   0  0  0  0  0  0  0  0  0  0  0  0
   44.6274   35.1504   41.8874 H   0  0  0  0  0  0  0  0  0  0  0  0
   44.1820   35.8683   44.6257 H   0  0  0  0  0  0  0  0  0  0  0  0
   43.9026   34.2681   43.8547 H   0  0  0  0  0  0  0  0  0  0  0  0
   45.3123   33.9237   45.7423 H   0  0  0  0  0  0  0  0  0  0  0  0
   46.5212   35.1902   45.1665 H   0  0  0  0  0  0  0  0  0  0  0  0
   45.5734   32.7893   43.5311 H   0  0  0  0  0  0  0  0  0  0  0  0
   48.7444   32.7950   42.9072 H   0  0  0  0  0  0  0  0  0  0  0  0
   48.8413   34.2313   41.8442 H   0  0  0  0  0  0  0  0  0  0  0  0
   46.3651   32.9155   41.2090 H   0  0  0  0  0  0  0  0  0  0  0  0
   47.4977   31.5637   41.4494 H   0  0  0  0  0  0  0  0  0  0  0  0
   49.9734   31.5827   37.5121 H   0  0  0  0  0  0  0  0  0  0  0  0
   49.0486   31.0976   39.7836 H   0  0  0  0  0  0  0  0  0  0  0  0
   47.9584   35.2748   37.5644 H   0  0  0  0  0  0  0  0  0  0  0  0
   45.7553   31.0400   47.1642 H   0  0  0  0  0  0  0  0  0  0  0  0
   47.7819   28.0571   44.6586 C   0  0  0  0  0  0  0  0  0  0  0  0
   47.8605   28.7877   45.8496 C   0  0  0  0  0  0  0  0  0  0  0  0
   47.9395   28.0912   47.0395 C   0  0  0  0  0  0  0  0  0  0  0  0
   48.0011   28.6538   47.9732 H   0  0  0  0  0  0  0  0  0  0  0  0
   47.9391   26.6925   47.0218 C   0  0  0  0  0  0  0  0  0  0  0  0
   48.0075   25.8035   48.0488 N   0  0  0  0  0  0  0  0  0  0  0  0
   47.9761   24.5444   47.5647 C   0  0  0  0  0  0  0  0  0  0  0  0
   48.0170   23.6522   48.1764 H   0  0  0  0  0  0  0  0  0  0  0  0
   47.8871   24.6537   46.2206 N   0  0  0  0  0  0  0  0  0  0  0  0
   47.8622   25.9604   45.8556 C   0  0  0  0  0  0  0  0  0  0  0  0
   47.7837   26.6673   44.6736 C   0  0  0  0  0  0  0  0  0  0  0  0
   47.7153   28.4940   43.6562 H   0  0  0  0  0  0  0  0  0  0  0  0
   48.0734   26.0951   49.0474 H   0  0  0  0  0  0  0  0  0  0  0  0
   47.7248   26.0596   43.7784 H   0  0  0  0  0  0  0  0  0  0  0  0
  1  6  1  0
  2  3  1  0
  2  1  1  0
  3  4  1  0
  4  5  1  0
  6 15  1  0
  6  5  1  0
  7  1  1  0
  8  7  1  0
  9 10  2  0
 10 11  1  0
 11  8  1  0
 12 11  2  0
 13 12  1  0
 14 13  2  0
 14  9  1  0
 17 15  1  6
 16 17  2  0
 17 19  1  0
 17 18  1  0
  2 20  1  0
  2 21  1  0
  3 22  1  0
  3 23  1  0
  4 24  1  0
  4 25  1  0
  5 26  1  0
  5 27  1  0
  6 28  1  6
  7 29  1  0
  7 30  1  0
  8 31  1  0
  8 32  1  0
  9 33  1  0
 10 34  1  0
 13 35  1  0
 18 36  1  0
 37 38  2  0
 38 39  1  0
 39 40  1  0
 39 41  2  0
 41 42  1  0
 42 43  1  0
 43 44  1  0
 43 45  2  0
 45 46  1  0
 46 47  2  0
 47 37  1  0
 46 41  1  0
 37 48  1  0
 42 49  1  0
 47 50  1  0
 19 38  1  0
M  ISO  8  20  13  21  13  22  13  23  13  24  13  25  13  26  13  27  13
M  ISO  8  28  13  29   8  30   8  31   8  32   8  33  14  34  14  35  14
M  ISO  3  36   3  40  15  44  14
M  END
>  <DihAtoms>  (1) 
16,18,37,36

>  <DihDeg>  (1) 
-43.9204051321471

$$$$
