
 OpenBabel03252503343D

 25 27  0  0  0  0  0  0  0  0999 V2000
   46.2980   33.7330   41.0100 C   0  0  0  0  0  0  0  0  0  0  0  0
   45.0710   33.4690   41.1360 O   0  0  0  0  0  0  0  0  0  0  0  0
   46.8400   34.4520   42.1060 N   0  0  0  0  0  0  0  0  0  0  0  0
   47.8250   34.7950   42.0990 H   0  0  0  0  0  0  0  0  0  0  0  0
   46.7190   33.4410   38.5430 C   0  0  0  0  0  3  0  0  0  0  0  0
   47.1130   33.3510   39.8620 C   0  0  0  0  0  0  0  0  0  0  0  0
   48.3850   32.8590   40.1080 C   0  0  0  0  0  0  0  0  0  0  0  0
   48.8330   32.7310   41.0860 H   0  0  0  0  0  0  0  0  0  0  0  0
   49.2320   32.4700   39.0700 C   0  0  0  0  0  0  0  0  0  0  0  0
   50.4700   31.9720   38.9480 N   0  0  0  0  0  0  0  0  0  0  0  0
   50.7710   31.7870   37.6510 C   0  0  0  0  0  0  0  0  0  0  0  0
   51.6860   31.4020   37.2060 H   0  0  0  0  0  0  0  0  0  0  0  0
   49.7240   32.1630   36.8770 N   0  0  0  0  0  0  0  0  0  0  0  0
   48.7980   32.5760   37.7620 C   0  0  0  0  0  0  0  0  0  0  0  0
   47.5360   33.0640   37.5050 C   0  0  0  0  0  3  0  0  0  0  0  0
   51.1000   31.7640   39.7610 H   0  0  0  0  0  0  0  0  0  0  0  0
   44.5710   36.1780   44.4880 C   0  0  0  0  0  0  0  0  0  0  0  0
   45.3110   35.9130   43.3150 C   0  0  0  0  0  0  0  0  0  0  0  0
   46.0840   34.7490   43.2700 C   0  0  0  0  0  0  0  0  0  0  0  0
   46.1040   33.9230   44.3350 N   0  0  0  0  0  0  0  0  0  0  0  0
   45.3740   34.2090   45.4600 C   0  0  0  0  0  0  0  0  0  0  0  0
   44.6270   35.3240   45.5140 N   0  0  0  0  0  0  0  0  0  0  0  0
   43.9630   37.0680   44.5560 H   0  0  0  0  0  0  0  0  0  0  0  0
   45.2570   36.6150   42.4880 H   0  0  0  0  0  0  0  0  0  0  0  0
   45.4640   33.4780   46.2510 H   0  0  0  0  0  0  0  0  0  0  0  0
  1  2  2  0  0  0  0
  1  3  1  0  0  0  0
  3 19  1  0  0  0  0
  4  3  1  0  0  0  0
  5  6  1  0  0  0  0
  6  7  2  0  0  0  0
  6  1  1  0  0  0  0
  7  8  1  0  0  0  0
  9  7  1  0  0  0  0
 10  9  1  0  0  0  0
 10 16  1  0  0  0  0
 11 10  1  0  0  0  0
 12 11  1  0  0  0  0
 13 11  2  0  0  0  0
 13 14  1  0  0  0  0
 14  9  2  0  0  0  0
 15 14  1  0  0  0  0
 15  5  2  0  0  0  0
 17 23  1  0  0  0  0
 17 22  1  0  0  0  0
 18 17  2  0  0  0  0
 19 18  1  0  0  0  0
 19 20  2  0  0  0  0
 20 21  1  0  0  0  0
 21 22  2  0  0  0  0
 21 25  1  0  0  0  0
 24 18  1  0  0  0  0
M  END
>  <minimizedAffinity>
-4.67439556

>  <minimizedRMSD>
0.836725533

$$$$
