
 OpenBabel03242519473D

 41 44  0  0  1  0  0  0  0  0999 V2000
   46.5860   32.9010   46.7500 C   0  0  2  0  0  0  0  0  0  0  0  0
   47.0710   32.8080   45.3590 C   0  0  1  0  0  0  0  0  0  0  0  0
   46.6760   31.4610   44.9350 O   0  0  0  0  0  0  0  0  0  0  0  0
   47.3100   30.7890   46.0060 C   0  0  0  0  0  0  0  0  0  0  0  0
   46.5640   31.4480   47.1970 C   0  0  2  0  0  0  0  0  0  0  0  0
   47.2060   33.5200   47.4210 H   0  0  0  0  0  0  0  0  0  0  0  0
   48.1590   32.7800   45.2440 H   0  0  0  0  0  0  0  0  0  0  0  0
   47.2750   29.7280   45.9840 H   0  0  0  0  0  0  0  0  0  0  0  0
   48.3710   31.1490   46.0110 H   0  0  0  0  0  0  0  0  0  0  0  0
   47.1870   31.2220   48.0910 H   0  0  0  0  0  0  0  0  0  0  0  0
   44.7260   35.2470   43.9900 C   0  0  0  0  0  0  0  0  0  0  0  0
   45.3500   35.6970   42.8270 C   0  0  0  0  0  0  0  0  0  0  0  0
   46.6070   35.1560   42.4870 C   0  0  0  0  0  0  0  0  0  0  0  0
   47.1660   34.2090   43.3120 N   0  0  0  0  0  0  0  0  0  0  0  0
   46.5280   33.8010   44.4300 C   0  0  0  0  0  0  0  0  0  0  0  0
   45.3160   34.3060   44.7790 N   0  0  0  0  0  0  0  0  0  0  0  0
   44.8820   36.4350   42.2140 H   0  0  0  0  0  0  0  0  0  0  0  0
   47.1200   35.4830   41.5920 H   0  0  0  0  0  0  0  0  0  0  0  0
   43.4770   35.7450   44.3810 O   0  0  0  0  0  0  0  0  0  0  0  0
   42.8940   36.0720   43.6130 H   0  0  0  0  0  0  0  0  0  0  0  0
   45.2310   33.3820   46.7500 O   0  0  0  0  0  0  0  0  0  0  0  0
   44.9700   33.3490   47.7040 H   0  0  0  0  0  0  0  0  0  0  0  0
   45.3000   30.9430   47.2080 O   0  0  0  0  0  0  0  0  0  0  0  0
   45.0080   29.9930   48.1540 C   0  0  0  0  0  0  0  0  0  0  0  0
   45.3830   30.2770   49.1310 H   0  0  0  0  0  0  0  0  0  0  0  0
   43.8450   30.2030   48.3520 H   0  0  0  0  0  0  0  0  0  0  0  0
   45.1160   28.5830   47.7430 C   0  0  0  0  0  0  0  0  0  0  0  0
   46.1510   28.2210   47.5780 H   0  0  0  0  0  0  0  0  0  0  0  0
   44.5780   27.9420   48.4860 H   0  0  0  0  0  0  0  0  0  0  0  0
   43.1290   28.5610   46.0480 C   0  0  0  0  0  3  0  0  0  0  0  0
   44.4360   28.3900   46.4350 C   0  0  0  0  0  0  0  0  0  0  0  0
   45.2540   27.9450   45.3820 C   0  0  0  0  0  0  0  0  0  0  0  0
   46.3100   27.7730   45.5610 H   0  0  0  0  0  0  0  0  0  0  0  0
   44.8400   27.6940   44.0920 C   0  0  0  0  0  0  0  0  0  0  0  0
   45.4770   27.2720   42.9870 N   0  0  0  0  0  0  0  0  0  0  0  0
   44.5770   27.2000   41.9960 C   0  0  0  0  0  0  0  0  0  0  0  0
   44.7450   26.8960   40.9680 H   0  0  0  0  0  0  0  0  0  0  0  0
   43.3660   27.5810   42.4900 N   0  0  0  0  0  0  0  0  0  0  0  0
   43.5170   27.8890   43.7890 C   0  0  0  0  0  0  0  0  0  0  0  0
   42.6620   28.3250   44.7760 C   0  0  0  0  0  3  0  0  0  0  0  0
   46.4810   27.0460   42.9190 H   0  0  0  0  0  0  0  0  0  0  0  0
  1 21  1  0  0  0  0
  1  5  1  0  0  0  0
  1  6  1  1  0  0  0
  2  7  1  6  0  0  0
  2  1  1  0  0  0  0
  3  2  1  0  0  0  0
  3  4  1  0  0  0  0
  4  9  1  0  0  0  0
  4  5  1  0  0  0  0
  5 23  1  0  0  0  0
  5 10  1  1  0  0  0
  8  4  1  0  0  0  0
 11 19  1  0  0  0  0
 11 16  1  0  0  0  0
 12 11  2  0  0  0  0
 13 12  1  0  0  0  0
 13 14  2  0  0  0  0
 14 15  1  0  0  0  0
 15 16  2  0  0  0  0
 15  2  1  0  0  0  0
 17 12  1  0  0  0  0
 18 13  1  0  0  0  0
 20 19  1  0  0  0  0
 21 22  1  0  0  0  0
 23 24  1  0  0  0  0
 24 26  1  0  0  0  0
 24 25  1  0  0  0  0
 27 24  1  0  0  0  0
 27 29  1  0  0  0  0
 28 27  1  0  0  0  0
 30 31  1  0  0  0  0
 31 27  1  0  0  0  0
 32 33  1  0  0  0  0
 32 31  2  0  0  0  0
 34 32  1  0  0  0  0
 35 34  1  0  0  0  0
 36 38  2  0  0  0  0
 36 35  1  0  0  0  0
 37 36  1  0  0  0  0
 38 39  1  0  0  0  0
 39 34  2  0  0  0  0
 39 40  1  0  0  0  0
 40 30  2  0  0  0  0
 41 35  1  0  0  0  0
M  END
>  <minimizedAffinity>
-5.20409584

>  <minimizedRMSD>
0.776161849

$$$$
