
 OpenBabel03252505003D

 40 43  0  0  1  0  0  0  0  0999 V2000
   38.2740   30.7420   38.6440 N   0  0  0  0  0  0  0  0  0  0  0  0
   38.9110   29.9480   37.6730 C   0  0  0  0  0  0  0  0  0  0  0  0
   39.6420   28.9530   38.4810 C   0  0  0  0  0  0  0  0  0  0  0  0
   39.3300   29.2110   39.9520 C   0  0  0  0  0  0  0  0  0  0  0  0
   38.0460   30.0470   39.8450 C   0  0  2  0  0  0  0  0  0  0  0  0
   39.0150   29.8580   36.6330 H   0  0  0  0  0  0  0  0  0  0  0  0
   40.2820   28.1300   38.2040 H   0  0  0  0  0  0  0  0  0  0  0  0
   39.1020   28.2240   40.4030 H   0  0  0  0  0  0  0  0  0  0  0  0
   40.1400   29.7700   40.4330 H   0  0  0  0  0  0  0  0  0  0  0  0
   37.8890   30.6750   40.7180 H   0  0  0  0  0  0  0  0  0  0  0  0
   37.9780   32.0560   38.3750 C   0  0  0  0  0  0  0  0  0  0  0  0
   36.8730   32.1880   38.5090 H   0  0  0  0  0  0  0  0  0  0  0  0
   38.1110   32.3520   37.3090 H   0  0  0  0  0  0  0  0  0  0  0  0
   38.9690   34.8400   40.7400 C   0  0  0  0  0  0  0  0  0  0  0  0
   38.1210   33.9570   40.0090 C   0  0  0  0  0  0  0  0  0  0  0  0
   38.7120   33.0310   39.1510 C   0  0  0  0  0  0  0  0  0  0  0  0
   40.0590   33.0350   39.0690 N   0  0  0  0  0  0  0  0  0  0  0  0
   40.8670   33.8940   39.7810 C   0  0  0  0  0  0  0  0  0  0  0  0
   40.3240   34.7870   40.6080 N   0  0  0  0  0  0  0  0  0  0  0  0
   38.4080   35.5170   41.3750 H   0  0  0  0  0  0  0  0  0  0  0  0
   37.0640   33.9860   40.1000 H   0  0  0  0  0  0  0  0  0  0  0  0
   41.9380   33.8200   39.6480 H   0  0  0  0  0  0  0  0  0  0  0  0
   37.0090   29.1380   39.5860 O   0  0  0  0  0  0  0  0  0  0  0  0
   34.3680   29.1480   39.8460 O   0  0  0  0  0  0  0  0  0  0  0  0
   35.6870   29.3000   40.5670 P   0  0  2  0  0  0  0  0  0  0  0  0
   35.7080   30.8580   41.2370 O   0  0  0  0  0  0  0  0  0  0  0  0
   35.9770   30.8710   42.1840 H   0  0  0  0  0  0  0  0  0  0  0  0
   35.7450   28.2150   41.8900 O   0  0  0  0  0  0  0  0  0  0  0  0
   37.8400   28.3170   43.2530 C   0  0  0  0  0  3  0  0  0  0  0  0
   36.9030   27.7330   42.4270 C   0  0  0  0  0  0  0  0  0  0  0  0
   37.1230   26.4090   42.0300 C   0  0  0  0  0  0  0  0  0  0  0  0
   36.4820   25.7960   41.3790 H   0  0  0  0  0  0  0  0  0  0  0  0
   38.2490   25.6930   42.4530 C   0  0  0  0  0  0  0  0  0  0  0  0
   38.7320   24.4620   42.2600 N   0  0  0  0  0  0  0  0  0  0  0  0
   39.8940   24.3200   42.9360 C   0  0  0  0  0  0  0  0  0  0  0  0
   40.5590   23.4750   43.0150 H   0  0  0  0  0  0  0  0  0  0  0  0
   40.1850   25.4810   43.5880 N   0  0  0  0  0  0  0  0  0  0  0  0
   39.1650   26.3090   43.2790 C   0  0  0  0  0  0  0  0  0  0  0  0
   38.9520   27.6140   43.6710 C   0  0  0  0  0  3  0  0  0  0  0  0
   38.2810   23.7240   41.6770 H   0  0  0  0  0  0  0  0  0  0  0  0
  1  5  1  0  0  0  0
  2  3  2  0  0  0  0
  2  1  1  0  0  0  0
  3  4  1  0  0  0  0
  4  8  1  0  0  0  0
  4  9  1  0  0  0  0
  5  4  1  0  0  0  0
  5 10  1  1  0  0  0
  6  2  1  0  0  0  0
  7  3  1  0  0  0  0
 11 12  1  0  0  0  0
 11  1  1  0  0  0  0
 11 16  1  0  0  0  0
 13 11  1  0  0  0  0
 14 20  1  0  0  0  0
 15 21  1  0  0  0  0
 15 14  2  0  0  0  0
 16 15  1  0  0  0  0
 17 16  2  0  0  0  0
 17 18  1  0  0  0  0
 18 19  2  0  0  0  0
 19 14  1  0  0  0  0
 22 18  1  0  0  0  0
 23  5  1  0  0  0  0
 23 25  1  0  0  0  0
 25 24  2  6  0  0  0
 25 26  1  0  0  0  0
 25 28  1  0  0  0  0
 26 27  1  0  0  0  0
 28 30  1  0  0  0  0
 29 39  1  0  0  0  0
 30 29  2  0  0  0  0
 31 30  1  0  0  0  0
 31 33  2  0  0  0  0
 32 31  1  0  0  0  0
 33 38  1  0  0  0  0
 34 33  1  0  0  0  0
 34 35  1  0  0  0  0
 35 36  1  0  0  0  0
 35 37  2  0  0  0  0
 38 37  1  0  0  0  0
 38 39  2  0  0  0  0
 40 34  1  0  0  0  0
M  END
>  <minimizedAffinity>
-6.14928341

$$$$

 OpenBabel03252505003D

 40 43  0  0  1  0  0  0  0  0999 V2000
   36.6350   27.9660   39.1340 N   0  0  0  0  0  0  0  0  0  0  0  0
   37.2350   27.7210   37.8850 C   0  0  0  0  0  0  0  0  0  0  0  0
   36.5320   28.6560   36.9860 C   0  0  0  0  0  0  0  0  0  0  0  0
   35.5460   29.4690   37.8200 C   0  0  0  0  0  0  0  0  0  0  0  0
   36.1100   29.2670   39.2340 C   0  0  2  0  0  0  0  0  0  0  0  0
   37.9710   27.1220   37.4390 H   0  0  0  0  0  0  0  0  0  0  0  0
   36.6290   28.8480   35.9290 H   0  0  0  0  0  0  0  0  0  0  0  0
   35.6710   30.5270   37.5100 H   0  0  0  0  0  0  0  0  0  0  0  0
   34.5310   29.0700   37.7260 H   0  0  0  0  0  0  0  0  0  0  0  0
   35.3530   29.4020   40.0020 H   0  0  0  0  0  0  0  0  0  0  0  0
   36.5780   26.9720   40.0810 C   0  0  0  0  0  0  0  0  0  0  0  0
   36.9940   26.0410   39.6180 H   0  0  0  0  0  0  0  0  0  0  0  0
   35.5460   26.6480   40.3500 H   0  0  0  0  0  0  0  0  0  0  0  0
   37.3540   27.8350   43.6830 C   0  0  0  0  0  0  0  0  0  0  0  0
   36.5760   27.6010   42.5110 C   0  0  0  0  0  0  0  0  0  0  0  0
   37.2400   27.2670   41.3320 C   0  0  0  0  0  0  0  0  0  0  0  0
   38.5860   27.1890   41.3810 N   0  0  0  0  0  0  0  0  0  0  0  0
   39.3260   27.4180   42.5210 C   0  0  0  0  0  0  0  0  0  0  0  0
   38.7120   27.7380   43.6600 N   0  0  0  0  0  0  0  0  0  0  0  0
   36.7400   28.0860   44.5420 H   0  0  0  0  0  0  0  0  0  0  0  0
   35.5170   27.6730   42.5140 H   0  0  0  0  0  0  0  0  0  0  0  0
   40.4030   27.3310   42.4600 H   0  0  0  0  0  0  0  0  0  0  0  0
   37.2100   30.1310   39.3420 O   0  0  0  0  0  0  0  0  0  0  0  0
   38.2340   30.7200   41.7190 O   0  0  0  0  0  0  0  0  0  0  0  0
   37.2000   31.0980   40.6850 P   0  0  2  0  0  0  0  0  0  0  0  0
   35.6830   30.9620   41.4290 O   0  0  0  0  0  0  0  0  0  0  0  0
   35.1070   31.7470   41.2860 H   0  0  0  0  0  0  0  0  0  0  0  0
   37.3790   32.7510   40.2730 O   0  0  0  0  0  0  0  0  0  0  0  0
   39.2490   34.3680   40.6510 C   0  0  0  0  0  3  0  0  0  0  0  0
   38.5790   33.3440   40.0150 C   0  0  0  0  0  0  0  0  0  0  0  0
   39.1890   32.7680   38.8940 C   0  0  0  0  0  0  0  0  0  0  0  0
   38.7970   31.9480   38.2730 H   0  0  0  0  0  0  0  0  0  0  0  0
   40.4330   33.2070   38.4290 C   0  0  0  0  0  0  0  0  0  0  0  0
   41.2540   32.8790   37.4250 N   0  0  0  0  0  0  0  0  0  0  0  0
   42.3530   33.6660   37.4620 C   0  0  0  0  0  0  0  0  0  0  0  0
   43.2180   33.6900   36.8200 H   0  0  0  0  0  0  0  0  0  0  0  0
   42.2570   34.5310   38.5110 N   0  0  0  0  0  0  0  0  0  0  0  0
   41.0740   34.2340   39.0900 C   0  0  0  0  0  0  0  0  0  0  0  0
   40.4750   34.8040   40.1940 C   0  0  0  0  0  3  0  0  0  0  0  0
   41.0730   32.1310   36.7220 H   0  0  0  0  0  0  0  0  0  0  0  0
  1  5  1  0  0  0  0
  1 11  1  0  0  0  0
  2  1  1  0  0  0  0
  3  4  1  0  0  0  0
  3  2  2  0  0  0  0
  4  5  1  0  0  0  0
  5 23  1  0  0  0  0
  5 10  1  1  0  0  0
  6  2  1  0  0  0  0
  7  3  1  0  0  0  0
  8  4  1  0  0  0  0
  9  4  1  0  0  0  0
 11 13  1  0  0  0  0
 11 16  1  0  0  0  0
 12 11  1  0  0  0  0
 14 20  1  0  0  0  0
 15 21  1  0  0  0  0
 15 14  2  0  0  0  0
 16 17  2  0  0  0  0
 16 15  1  0  0  0  0
 17 18  1  0  0  0  0
 18 19  2  0  0  0  0
 19 14  1  0  0  0  0
 22 18  1  0  0  0  0
 23 25  1  0  0  0  0
 25 26  1  0  0  0  0
 25 24  2  1  0  0  0
 27 26  1  0  0  0  0
 28 25  1  0  0  0  0
 30 28  1  0  0  0  0
 30 29  2  0  0  0  0
 31 30  1  0  0  0  0
 32 31  1  0  0  0  0
 33 31  2  0  0  0  0
 33 38  1  0  0  0  0
 34 35  1  0  0  0  0
 34 33  1  0  0  0  0
 35 37  2  0  0  0  0
 36 35  1  0  0  0  0
 37 38  1  0  0  0  0
 38 39  2  0  0  0  0
 39 29  1  0  0  0  0
 40 34  1  0  0  0  0
M  END
>  <minimizedAffinity>
-6.05263805

$$$$

 OpenBabel03252505003D

 40 43  0  0  1  0  0  0  0  0999 V2000
   39.3820   32.8470   39.6760 N   0  0  0  0  0  0  0  0  0  0  0  0
   38.8150   34.0930   40.0010 C   0  0  0  0  0  0  0  0  0  0  0  0
   37.4030   33.9310   39.6070 C   0  0  0  0  0  0  0  0  0  0  0  0
   37.2110   32.5060   39.0940 C   0  0  0  0  0  0  0  0  0  0  0  0
   38.4390   31.8040   39.6910 C   0  0  2  0  0  0  0  0  0  0  0  0
   39.0730   35.0250   40.4050 H   0  0  0  0  0  0  0  0  0  0  0  0
   36.5610   34.6030   39.6530 H   0  0  0  0  0  0  0  0  0  0  0  0
   36.2860   32.1220   39.5720 H   0  0  0  0  0  0  0  0  0  0  0  0
   37.2180   32.4790   38.0000 H   0  0  0  0  0  0  0  0  0  0  0  0
   38.7220   30.9180   39.1270 H   0  0  0  0  0  0  0  0  0  0  0  0
   40.7150   32.7580   39.3530 C   0  0  0  0  0  0  0  0  0  0  0  0
   40.9240   33.5240   38.5630 H   0  0  0  0  0  0  0  0  0  0  0  0
   41.0030   31.8150   38.8330 H   0  0  0  0  0  0  0  0  0  0  0  0
   42.7900   32.1800   42.4660 C   0  0  0  0  0  0  0  0  0  0  0  0
   41.8260   31.9270   41.4460 C   0  0  0  0  0  0  0  0  0  0  0  0
   41.6340   32.8950   40.4610 C   0  0  0  0  0  0  0  0  0  0  0  0
   42.3790   34.0160   40.5430 N   0  0  0  0  0  0  0  0  0  0  0  0
   43.3090   34.2480   41.5350 C   0  0  0  0  0  0  0  0  0  0  0  0
   43.5090   33.3360   42.4850 N   0  0  0  0  0  0  0  0  0  0  0  0
   42.8590   31.3640   43.1780 H   0  0  0  0  0  0  0  0  0  0  0  0
   41.2570   31.0300   41.4170 H   0  0  0  0  0  0  0  0  0  0  0  0
   43.8590   35.1800   41.5140 H   0  0  0  0  0  0  0  0  0  0  0  0
   38.1360   31.5640   41.0390 O   0  0  0  0  0  0  0  0  0  0  0  0
   37.2830   29.1810   40.2420 O   0  0  0  0  0  0  0  0  0  0  0  0
   37.1720   30.2460   41.3070 P   0  0  2  0  0  0  0  0  0  0  0  0
   35.5570   30.7610   41.3260 O   0  0  0  0  0  0  0  0  0  0  0  0
   35.1680   30.7940   42.2290 H   0  0  0  0  0  0  0  0  0  0  0  0
   37.4650   29.5520   42.8450 O   0  0  0  0  0  0  0  0  0  0  0  0
   38.3520   27.3220   43.5490 C   0  0  0  0  0  3  0  0  0  0  0  0
   38.4290   28.6190   43.0860 C   0  0  0  0  0  0  0  0  0  0  0  0
   39.7000   29.1280   42.7930 C   0  0  0  0  0  0  0  0  0  0  0  0
   39.9420   30.1340   42.4170 H   0  0  0  0  0  0  0  0  0  0  0  0
   40.8560   28.3570   42.9600 C   0  0  0  0  0  0  0  0  0  0  0  0
   42.1680   28.5410   42.7770 N   0  0  0  0  0  0  0  0  0  0  0  0
   42.8350   27.4140   43.1130 C   0  0  0  0  0  0  0  0  0  0  0  0
   43.8900   27.1940   43.0960 H   0  0  0  0  0  0  0  0  0  0  0  0
   41.9470   26.4670   43.5270 N   0  0  0  0  0  0  0  0  0  0  0  0
   40.7400   27.0640   43.4250 C   0  0  0  0  0  0  0  0  0  0  0  0
   39.4890   26.5590   43.7150 C   0  0  0  0  0  3  0  0  0  0  0  0
   42.6080   29.4190   42.4280 H   0  0  0  0  0  0  0  0  0  0  0  0
  1  5  1  0  0  0  0
  1  2  1  0  0  0  0
  2  6  1  0  0  0  0
  3  7  1  0  0  0  0
  3  2  2  0  0  0  0
  4  8  1  0  0  0  0
  4  3  1  0  0  0  0
  4  5  1  0  0  0  0
  5 10  1  6  0  0  0
  5 23  1  0  0  0  0
  9  4  1  0  0  0  0
 11  1  1  0  0  0  0
 11 16  1  0  0  0  0
 12 11  1  0  0  0  0
 13 11  1  0  0  0  0
 14 19  1  0  0  0  0
 14 20  1  0  0  0  0
 15 14  2  0  0  0  0
 16 17  2  0  0  0  0
 16 15  1  0  0  0  0
 17 18  1  0  0  0  0
 18 19  2  0  0  0  0
 21 15  1  0  0  0  0
 22 18  1  0  0  0  0
 23 25  1  0  0  0  0
 25 24  2  6  0  0  0
 25 26  1  0  0  0  0
 25 28  1  0  0  0  0
 26 27  1  0  0  0  0
 28 30  1  0  0  0  0
 29 39  1  0  0  0  0
 30 29  2  0  0  0  0
 31 33  2  0  0  0  0
 31 30  1  0  0  0  0
 32 31  1  0  0  0  0
 33 38  1  0  0  0  0
 34 33  1  0  0  0  0
 34 35  1  0  0  0  0
 35 37  2  0  0  0  0
 36 35  1  0  0  0  0
 38 37  1  0  0  0  0
 38 39  2  0  0  0  0
 40 34  1  0  0  0  0
M  END
>  <minimizedAffinity>
-6.02811384

$$$$

 OpenBabel03252505003D

 40 43  0  0  1  0  0  0  0  0999 V2000
   38.5900   26.1950   42.8470 N   0  0  0  0  0  0  0  0  0  0  0  0
   39.1650   25.2030   42.0320 C   0  0  0  0  0  0  0  0  0  0  0  0
   38.0060   24.3770   41.6420 C   0  0  0  0  0  0  0  0  0  0  0  0
   36.7510   25.0010   42.2460 C   0  0  0  0  0  0  0  0  0  0  0  0
   37.2370   26.4270   42.5430 C   0  0  2  0  0  0  0  0  0  0  0  0
   40.0920   24.8990   41.6500 H   0  0  0  0  0  0  0  0  0  0  0  0
   37.9240   23.4960   41.0250 H   0  0  0  0  0  0  0  0  0  0  0  0
   35.9900   25.0210   41.4390 H   0  0  0  0  0  0  0  0  0  0  0  0
   36.4520   24.4750   43.1580 H   0  0  0  0  0  0  0  0  0  0  0  0
   36.6610   26.9020   43.3330 H   0  0  0  0  0  0  0  0  0  0  0  0
   39.3340   26.7930   43.8350 C   0  0  0  0  0  0  0  0  0  0  0  0
   39.5180   26.0260   44.6300 H   0  0  0  0  0  0  0  0  0  0  0  0
   38.7940   27.5840   44.4070 H   0  0  0  0  0  0  0  0  0  0  0  0
   42.9760   27.7050   43.3570 C   0  0  0  0  0  0  0  0  0  0  0  0
   41.8300   27.0520   43.8990 C   0  0  0  0  0  0  0  0  0  0  0  0
   40.5740   27.3960   43.4020 C   0  0  0  0  0  0  0  0  0  0  0  0
   40.5290   28.3350   42.4340 N   0  0  0  0  0  0  0  0  0  0  0  0
   41.6450   28.9590   41.9180 C   0  0  0  0  0  0  0  0  0  0  0  0
   42.8550   28.6440   42.3780 N   0  0  0  0  0  0  0  0  0  0  0  0
   43.8990   27.3630   43.8130 H   0  0  0  0  0  0  0  0  0  0  0  0
   41.9080   26.3180   44.6630 H   0  0  0  0  0  0  0  0  0  0  0  0
   41.5050   29.7000   41.1420 H   0  0  0  0  0  0  0  0  0  0  0  0
   37.2180   27.1090   41.3160 O   0  0  0  0  0  0  0  0  0  0  0  0
   37.2510   29.2930   42.8240 O   0  0  0  0  0  0  0  0  0  0  0  0
   37.0030   28.7450   41.4380 P   0  0  2  0  0  0  0  0  0  0  0  0
   35.3920   29.1010   41.0460 O   0  0  0  0  0  0  0  0  0  0  0  0
   35.2880   29.5050   40.1550 H   0  0  0  0  0  0  0  0  0  0  0  0
   37.9650   29.5940   40.3040 O   0  0  0  0  0  0  0  0  0  0  0  0
   36.9810   31.7350   39.4650 C   0  0  0  0  0  3  0  0  0  0  0  0
   37.9040   30.9430   40.1160 C   0  0  0  0  0  0  0  0  0  0  0  0
   38.9990   31.5800   40.7100 C   0  0  0  0  0  0  0  0  0  0  0  0
   39.8230   31.1040   41.2650 H   0  0  0  0  0  0  0  0  0  0  0  0
   39.1620   32.9680   40.6540 C   0  0  0  0  0  0  0  0  0  0  0  0
   40.0620   33.8500   41.1020 N   0  0  0  0  0  0  0  0  0  0  0  0
   39.6950   35.0980   40.7380 C   0  0  0  0  0  0  0  0  0  0  0  0
   40.1690   36.0490   40.9200 H   0  0  0  0  0  0  0  0  0  0  0  0
   38.5280   35.0420   40.0340 N   0  0  0  0  0  0  0  0  0  0  0  0
   38.2190   33.7280   39.9940 C   0  0  0  0  0  0  0  0  0  0  0  0
   37.1380   33.1040   39.4070 C   0  0  0  0  0  3  0  0  0  0  0  0
   40.9170   33.6090   41.6490 H   0  0  0  0  0  0  0  0  0  0  0  0
  1 11  1  0  0  0  0
  2  1  1  0  0  0  0
  3  2  2  0  0  0  0
  3  4  1  0  0  0  0
  4  5  1  0  0  0  0
  4  9  1  0  0  0  0
  5  1  1  0  0  0  0
  5 10  1  1  0  0  0
  6  2  1  0  0  0  0
  7  3  1  0  0  0  0
  8  4  1  0  0  0  0
 11 13  1  0  0  0  0
 11 12  1  0  0  0  0
 14 20  1  0  0  0  0
 14 15  1  0  0  0  0
 15 21  1  0  0  0  0
 16 11  1  0  0  0  0
 16 15  2  0  0  0  0
 17 16  1  0  0  0  0
 18 19  1  0  0  0  0
 18 17  2  0  0  0  0
 19 14  2  0  0  0  0
 22 18  1  0  0  0  0
 23 25  1  0  0  0  0
 23  5  1  0  0  0  0
 25 24  2  1  0  0  0
 26 25  1  0  0  0  0
 27 26  1  0  0  0  0
 28 25  1  0  0  0  0
 29 30  1  0  0  0  0
 30 28  1  0  0  0  0
 30 31  2  0  0  0  0
 31 32  1  0  0  0  0
 33 31  1  0  0  0  0
 33 34  1  0  0  0  0
 34 40  1  0  0  0  0
 35 36  1  0  0  0  0
 35 34  1  0  0  0  0
 37 35  2  0  0  0  0
 38 37  1  0  0  0  0
 38 33  2  0  0  0  0
 39 29  2  0  0  0  0
 39 38  1  0  0  0  0
M  END
>  <minimizedAffinity>
-5.97078657

$$$$

 OpenBabel03252505003D

 40 43  0  0  1  0  0  0  0  0999 V2000
   39.1030   32.8920   40.3030 N   0  0  0  0  0  0  0  0  0  0  0  0
   38.3600   34.0850   40.3800 C   0  0  0  0  0  0  0  0  0  0  0  0
   37.2330   33.8370   39.4610 C   0  0  0  0  0  0  0  0  0  0  0  0
   37.3680   32.4200   38.9110 C   0  0  0  0  0  0  0  0  0  0  0  0
   38.3130   31.7860   39.9430 C   0  0  2  0  0  0  0  0  0  0  0  0
   38.3660   35.0190   40.8550 H   0  0  0  0  0  0  0  0  0  0  0  0
   36.3920   34.4470   39.1720 H   0  0  0  0  0  0  0  0  0  0  0  0
   36.3620   31.9570   38.9860 H   0  0  0  0  0  0  0  0  0  0  0  0
   37.8070   32.4280   37.9090 H   0  0  0  0  0  0  0  0  0  0  0  0
   38.8610   30.9410   39.5350 H   0  0  0  0  0  0  0  0  0  0  0  0
   40.4580   32.9060   40.5320 C   0  0  0  0  0  0  0  0  0  0  0  0
   40.7060   32.0020   41.1450 H   0  0  0  0  0  0  0  0  0  0  0  0
   40.8060   33.7310   41.1960 H   0  0  0  0  0  0  0  0  0  0  0  0
   42.4720   34.0770   37.5500 C   0  0  0  0  0  0  0  0  0  0  0  0
   41.6160   34.1540   38.6870 C   0  0  0  0  0  0  0  0  0  0  0  0
   41.2880   32.9730   39.3500 C   0  0  0  0  0  0  0  0  0  0  0  0
   41.8080   31.8270   38.8640 N   0  0  0  0  0  0  0  0  0  0  0  0
   42.6350   31.7660   37.7640 C   0  0  0  0  0  0  0  0  0  0  0  0
   42.9630   32.8830   37.1150 N   0  0  0  0  0  0  0  0  0  0  0  0
   42.6630   35.0510   37.1110 H   0  0  0  0  0  0  0  0  0  0  0  0
   41.2250   35.0780   39.0370 H   0  0  0  0  0  0  0  0  0  0  0  0
   43.0030   30.7980   37.4510 H   0  0  0  0  0  0  0  0  0  0  0  0
   37.5230   31.4830   41.0620 O   0  0  0  0  0  0  0  0  0  0  0  0
   37.2580   29.1290   39.8640 O   0  0  0  0  0  0  0  0  0  0  0  0
   36.8090   29.9910   41.0210 P   0  0  2  0  0  0  0  0  0  0  0  0
   35.1350   30.2060   40.8560 O   0  0  0  0  0  0  0  0  0  0  0  0
   34.6370   30.0360   41.6880 H   0  0  0  0  0  0  0  0  0  0  0  0
   37.0350   29.1420   42.4910 O   0  0  0  0  0  0  0  0  0  0  0  0
   37.4520   26.6830   42.3070 C   0  0  0  0  0  3  0  0  0  0  0  0
   37.7620   27.9940   42.6010 C   0  0  0  0  0  0  0  0  0  0  0  0
   39.0400   28.2600   43.1080 C   0  0  0  0  0  0  0  0  0  0  0  0
   39.4500   29.2410   43.3920 H   0  0  0  0  0  0  0  0  0  0  0  0
   39.9760   27.2400   43.3120 C   0  0  0  0  0  0  0  0  0  0  0  0
   41.2320   27.1660   43.7630 N   0  0  0  0  0  0  0  0  0  0  0  0
   41.6470   25.8800   43.7400 C   0  0  0  0  0  0  0  0  0  0  0  0
   42.5890   25.4430   44.0270 H   0  0  0  0  0  0  0  0  0  0  0  0
   40.6450   25.0880   43.2640 N   0  0  0  0  0  0  0  0  0  0  0  0
   39.6300   25.9410   43.0070 C   0  0  0  0  0  0  0  0  0  0  0  0
   38.3720   25.6750   42.5080 C   0  0  0  0  0  3  0  0  0  0  0  0
   41.8040   27.9770   44.0850 H   0  0  0  0  0  0  0  0  0  0  0  0
  1  2  1  0  0  0  0
  1 11  1  0  0  0  0
  2  6  1  0  0  0  0
  3  2  2  0  0  0  0
  4  8  1  0  0  0  0
  4  3  1  0  0  0  0
  4  5  1  0  0  0  0
  5 10  1  6  0  0  0
  5  1  1  0  0  0  0
  5 23  1  0  0  0  0
  7  3  1  0  0  0  0
  9  4  1  0  0  0  0
 11 12  1  0  0  0  0
 11 13  1  0  0  0  0
 14 15  1  0  0  0  0
 15 21  1  0  0  0  0
 15 16  2  0  0  0  0
 16 11  1  0  0  0  0
 17 16  1  0  0  0  0
 18 17  2  0  0  0  0
 19 14  2  0  0  0  0
 19 18  1  0  0  0  0
 20 14  1  0  0  0  0
 22 18  1  0  0  0  0
 25 24  2  6  0  0  0
 25 23  1  0  0  0  0
 25 28  1  0  0  0  0
 26 25  1  0  0  0  0
 26 27  1  0  0  0  0
 28 30  1  0  0  0  0
 29 39  2  0  0  0  0
 29 30  1  0  0  0  0
 30 31  2  0  0  0  0
 31 33  1  0  0  0  0
 31 32  1  0  0  0  0
 33 34  1  0  0  0  0
 34 40  1  0  0  0  0
 35 34  1  0  0  0  0
 35 36  1  0  0  0  0
 37 35  2  0  0  0  0
 38 37  1  0  0  0  0
 38 33  2  0  0  0  0
 39 38  1  0  0  0  0
M  END
>  <minimizedAffinity>
-5.95725584

$$$$

 OpenBabel03252505003D

 40 43  0  0  1  0  0  0  0  0999 V2000
   39.6310   32.8170   39.8520 N   0  0  0  0  0  0  0  0  0  0  0  0
   39.2210   34.1010   40.2560 C   0  0  0  0  0  0  0  0  0  0  0  0
   37.8190   34.1640   39.8000 C   0  0  0  0  0  0  0  0  0  0  0  0
   37.4630   32.8210   39.1680 C   0  0  0  0  0  0  0  0  0  0  0  0
   38.5580   31.9150   39.7500 C   0  0  2  0  0  0  0  0  0  0  0  0
   39.5830   34.9560   40.7430 H   0  0  0  0  0  0  0  0  0  0  0  0
   37.0740   34.9390   39.8700 H   0  0  0  0  0  0  0  0  0  0  0  0
   36.4740   32.5330   39.5810 H   0  0  0  0  0  0  0  0  0  0  0  0
   37.5170   32.8750   38.0760 H   0  0  0  0  0  0  0  0  0  0  0  0
   38.7450   31.0430   39.1280 H   0  0  0  0  0  0  0  0  0  0  0  0
   40.9530   32.5700   39.5720 C   0  0  0  0  0  0  0  0  0  0  0  0
   41.2900   33.3380   38.8290 H   0  0  0  0  0  0  0  0  0  0  0  0
   41.1400   31.6230   39.0150 H   0  0  0  0  0  0  0  0  0  0  0  0
   43.6450   33.3150   42.1260 C   0  0  0  0  0  0  0  0  0  0  0  0
   42.8700   33.4460   40.9360 C   0  0  0  0  0  0  0  0  0  0  0  0
   41.8370   32.5370   40.7160 C   0  0  0  0  0  0  0  0  0  0  0  0
   41.6400   31.5860   41.6520 N   0  0  0  0  0  0  0  0  0  0  0  0
   42.3960   31.4700   42.7990 C   0  0  0  0  0  0  0  0  0  0  0  0
   43.3890   32.3290   43.0300 N   0  0  0  0  0  0  0  0  0  0  0  0
   44.4200   34.0710   42.1980 H   0  0  0  0  0  0  0  0  0  0  0  0
   43.0580   34.2090   40.2220 H   0  0  0  0  0  0  0  0  0  0  0  0
   42.1600   30.6730   43.4910 H   0  0  0  0  0  0  0  0  0  0  0  0
   38.1620   31.6190   41.0630 O   0  0  0  0  0  0  0  0  0  0  0  0
   37.0950   29.4330   40.0010 O   0  0  0  0  0  0  0  0  0  0  0  0
   37.1040   30.3540   41.1990 P   0  0  2  0  0  0  0  0  0  0  0  0
   35.5370   30.9840   41.3500 O   0  0  0  0  0  0  0  0  0  0  0  0
   35.1810   30.9260   42.2660 H   0  0  0  0  0  0  0  0  0  0  0  0
   37.3870   29.4430   42.6210 O   0  0  0  0  0  0  0  0  0  0  0  0
   39.7610   28.7390   42.9730 C   0  0  0  0  0  3  0  0  0  0  0  0
   38.4110   28.5540   42.7620 C   0  0  0  0  0  0  0  0  0  0  0  0
   37.9450   27.2370   42.6630 C   0  0  0  0  0  0  0  0  0  0  0  0
   36.9070   26.9120   42.4970 H   0  0  0  0  0  0  0  0  0  0  0  0
   38.8080   26.1420   42.7750 C   0  0  0  0  0  0  0  0  0  0  0  0
   38.6840   24.8120   42.7290 N   0  0  0  0  0  0  0  0  0  0  0  0
   39.8940   24.2360   42.9040 C   0  0  0  0  0  0  0  0  0  0  0  0
   40.1780   23.1970   42.9280 H   0  0  0  0  0  0  0  0  0  0  0  0
   40.8380   25.2050   43.0690 N   0  0  0  0  0  0  0  0  0  0  0  0
   40.1530   26.3660   42.9860 C   0  0  0  0  0  0  0  0  0  0  0  0
   40.6160   27.6610   43.0840 C   0  0  0  0  0  3  0  0  0  0  0  0
   37.7890   24.2970   42.5810 H   0  0  0  0  0  0  0  0  0  0  0  0
  1  2  1  0  0  0  0
  2  6  1  0  0  0  0
  3  7  1  0  0  0  0
  3  2  2  0  0  0  0
  4  8  1  0  0  0  0
  4  5  1  0  0  0  0
  4  3  1  0  0  0  0
  5 10  1  6  0  0  0
  5  1  1  0  0  0  0
  5 23  1  0  0  0  0
  9  4  1  0  0  0  0
 11  1  1  0  0  0  0
 11 16  1  0  0  0  0
 12 11  1  0  0  0  0
 13 11  1  0  0  0  0
 14 20  1  0  0  0  0
 14 19  1  0  0  0  0
 15 14  2  0  0  0  0
 16 15  1  0  0  0  0
 16 17  2  0  0  0  0
 17 18  1  0  0  0  0
 18 19  2  0  0  0  0
 18 22  1  0  0  0  0
 21 15  1  0  0  0  0
 23 25  1  0  0  0  0
 25 24  2  6  0  0  0
 25 26  1  0  0  0  0
 25 28  1  0  0  0  0
 26 27  1  0  0  0  0
 28 30  1  0  0  0  0
 29 39  1  0  0  0  0
 30 29  2  0  0  0  0
 31 30  1  0  0  0  0
 31 33  2  0  0  0  0
 32 31  1  0  0  0  0
 33 38  1  0  0  0  0
 34 33  1  0  0  0  0
 34 35  1  0  0  0  0
 35 36  1  0  0  0  0
 35 37  2  0  0  0  0
 38 37  1  0  0  0  0
 38 39  2  0  0  0  0
 40 34  1  0  0  0  0
M  END
>  <minimizedAffinity>
-5.94902277

$$$$

 OpenBabel03252505003D

 40 43  0  0  1  0  0  0  0  0999 V2000
   37.4270   28.0070   41.4860 N   0  0  0  0  0  0  0  0  0  0  0  0
   36.5730   27.6970   42.5600 C   0  0  0  0  0  0  0  0  0  0  0  0
   37.3050   28.2170   43.7300 C   0  0  0  0  0  0  0  0  0  0  0  0
   38.5890   28.8780   43.2360 C   0  0  0  0  0  0  0  0  0  0  0  0
   38.2550   29.1110   41.7550 C   0  0  2  0  0  0  0  0  0  0  0  0
   35.6490   27.2450   42.7610 H   0  0  0  0  0  0  0  0  0  0  0  0
   37.0700   28.2210   44.7830 H   0  0  0  0  0  0  0  0  0  0  0  0
   38.6650   29.8500   43.7640 H   0  0  0  0  0  0  0  0  0  0  0  0
   39.4470   28.2090   43.3590 H   0  0  0  0  0  0  0  0  0  0  0  0
   39.1470   29.1810   41.1380 H   0  0  0  0  0  0  0  0  0  0  0  0
   37.4150   27.2360   40.3480 C   0  0  0  0  0  0  0  0  0  0  0  0
   38.1860   27.6510   39.6500 H   0  0  0  0  0  0  0  0  0  0  0  0
   36.4870   27.3260   39.7380 H   0  0  0  0  0  0  0  0  0  0  0  0
   38.8160   23.8490   41.2920 C   0  0  0  0  0  0  0  0  0  0  0  0
   38.7650   25.2630   41.1150 C   0  0  0  0  0  0  0  0  0  0  0  0
   37.6160   25.8190   40.5550 C   0  0  0  0  0  0  0  0  0  0  0  0
   36.6230   24.9720   40.2140 N   0  0  0  0  0  0  0  0  0  0  0  0
   36.6850   23.6060   40.3900 C   0  0  0  0  0  0  0  0  0  0  0  0
   37.7730   23.0530   40.9250 N   0  0  0  0  0  0  0  0  0  0  0  0
   39.7520   23.5230   41.7350 H   0  0  0  0  0  0  0  0  0  0  0  0
   39.5700   25.8960   41.3960 H   0  0  0  0  0  0  0  0  0  0  0  0
   35.8350   23.0110   40.0850 H   0  0  0  0  0  0  0  0  0  0  0  0
   37.4280   30.2440   41.7150 O   0  0  0  0  0  0  0  0  0  0  0  0
   39.0790   32.2190   41.0670 O   0  0  0  0  0  0  0  0  0  0  0  0
   37.8900   31.3990   40.6240 P   0  0  2  0  0  0  0  0  0  0  0  0
   36.5990   32.4770   40.4100 O   0  0  0  0  0  0  0  0  0  0  0  0
   36.1270   32.3540   39.5550 H   0  0  0  0  0  0  0  0  0  0  0  0
   38.2020   30.7220   39.0830 O   0  0  0  0  0  0  0  0  0  0  0  0
   35.9170   29.8750   38.5230 C   0  0  0  0  0  3  0  0  0  0  0  0
   37.2420   30.1730   38.2850 C   0  0  0  0  0  0  0  0  0  0  0  0
   37.7540   29.8840   37.0150 C   0  0  0  0  0  0  0  0  0  0  0  0
   38.7810   30.0560   36.6580 H   0  0  0  0  0  0  0  0  0  0  0  0
   36.9580   29.3130   36.0150 C   0  0  0  0  0  0  0  0  0  0  0  0
   37.1370   28.9290   34.7470 N   0  0  0  0  0  0  0  0  0  0  0  0
   35.9820   28.4290   34.2570 C   0  0  0  0  0  0  0  0  0  0  0  0
   35.7490   28.0280   33.2840 H   0  0  0  0  0  0  0  0  0  0  0  0
   35.0180   28.4830   35.2200 N   0  0  0  0  0  0  0  0  0  0  0  0
   35.6370   29.0270   36.2900 C   0  0  0  0  0  0  0  0  0  0  0  0
   35.1290   29.3120   37.5400 C   0  0  0  0  0  3  0  0  0  0  0  0
   38.0330   29.0040   34.2180 H   0  0  0  0  0  0  0  0  0  0  0  0
  1  5  1  0  0  0  0
  1  2  1  0  0  0  0
  2  6  1  0  0  0  0
  2  3  2  0  0  0  0
  3  7  1  0  0  0  0
  4  9  1  0  0  0  0
  4  3  1  0  0  0  0
  4  8  1  0  0  0  0
  5 10  1  6  0  0  0
  5  4  1  0  0  0  0
 11 16  1  0  0  0  0
 11  1  1  0  0  0  0
 12 11  1  0  0  0  0
 13 11  1  0  0  0  0
 14 20  1  0  0  0  0
 15 14  1  0  0  0  0
 15 21  1  0  0  0  0
 16 15  2  0  0  0  0
 17 18  2  0  0  0  0
 17 16  1  0  0  0  0
 18 19  1  0  0  0  0
 19 14  2  0  0  0  0
 22 18  1  0  0  0  0
 23  5  1  0  0  0  0
 25 24  2  1  0  0  0
 25 23  1  0  0  0  0
 26 25  1  0  0  0  0
 27 26  1  0  0  0  0
 28 25  1  0  0  0  0
 30 29  1  0  0  0  0
 30 28  1  0  0  0  0
 31 30  2  0  0  0  0
 32 31  1  0  0  0  0
 33 38  2  0  0  0  0
 33 31  1  0  0  0  0
 34 33  1  0  0  0  0
 35 34  1  0  0  0  0
 35 37  2  0  0  0  0
 36 35  1  0  0  0  0
 37 38  1  0  0  0  0
 38 39  1  0  0  0  0
 39 29  2  0  0  0  0
 40 34  1  0  0  0  0
M  END
>  <minimizedAffinity>
-5.85103989

$$$$

 OpenBabel03252505003D

 40 43  0  0  1  0  0  0  0  0999 V2000
   39.6800   32.5630   39.6370 N   0  0  0  0  0  0  0  0  0  0  0  0
   40.0750   33.6950   40.3730 C   0  0  0  0  0  0  0  0  0  0  0  0
   38.8280   34.4770   40.4780 C   0  0  0  0  0  0  0  0  0  0  0  0
   37.7110   33.6870   39.8020 C   0  0  0  0  0  0  0  0  0  0  0  0
   38.3120   32.2740   39.7820 C   0  0  2  0  0  0  0  0  0  0  0  0
   40.9190   34.1150   40.8320 H   0  0  0  0  0  0  0  0  0  0  0  0
   38.6100   35.4240   40.9450 H   0  0  0  0  0  0  0  0  0  0  0  0
   36.8420   33.7190   40.4920 H   0  0  0  0  0  0  0  0  0  0  0  0
   37.5210   34.0630   38.7910 H   0  0  0  0  0  0  0  0  0  0  0  0
   37.8840   31.6560   38.9970 H   0  0  0  0  0  0  0  0  0  0  0  0
   40.5920   31.8940   38.8560 C   0  0  0  0  0  0  0  0  0  0  0  0
   41.6140   32.1530   39.2340 H   0  0  0  0  0  0  0  0  0  0  0  0
   40.6460   32.2490   37.8010 H   0  0  0  0  0  0  0  0  0  0  0  0
   40.4820   28.1880   39.6170 C   0  0  0  0  0  0  0  0  0  0  0  0
   40.7380   29.5770   39.8120 C   0  0  0  0  0  0  0  0  0  0  0  0
   40.4160   30.4610   38.7830 C   0  0  0  0  0  0  0  0  0  0  0  0
   39.8810   29.9350   37.6620 N   0  0  0  0  0  0  0  0  0  0  0  0
   39.6380   28.5900   37.4860 C   0  0  0  0  0  0  0  0  0  0  0  0
   39.9370   27.7270   38.4570 N   0  0  0  0  0  0  0  0  0  0  0  0
   40.7680   27.5920   40.4770 H   0  0  0  0  0  0  0  0  0  0  0  0
   41.1620   29.9520   40.7100 H   0  0  0  0  0  0  0  0  0  0  0  0
   39.2040   28.2650   36.5490 H   0  0  0  0  0  0  0  0  0  0  0  0
   38.1500   31.7630   41.0790 O   0  0  0  0  0  0  0  0  0  0  0  0
   37.1800   29.5370   40.0080 O   0  0  0  0  0  0  0  0  0  0  0  0
   37.1180   30.4740   41.1910 P   0  0  2  0  0  0  0  0  0  0  0  0
   35.5320   31.0670   41.2690 O   0  0  0  0  0  0  0  0  0  0  0  0
   35.1400   31.0130   42.1710 H   0  0  0  0  0  0  0  0  0  0  0  0
   37.3660   29.5910   42.6370 O   0  0  0  0  0  0  0  0  0  0  0  0
   39.2880   28.0560   43.0870 C   0  0  0  0  0  3  0  0  0  0  0  0
   38.0100   28.3900   42.6920 C   0  0  0  0  0  0  0  0  0  0  0  0
   37.1740   27.3550   42.2590 C   0  0  0  0  0  0  0  0  0  0  0  0
   36.1330   27.4440   41.9120 H   0  0  0  0  0  0  0  0  0  0  0  0
   37.6080   26.0250   42.2250 C   0  0  0  0  0  0  0  0  0  0  0  0
   37.0760   24.8490   41.8770 N   0  0  0  0  0  0  0  0  0  0  0  0
   37.9880   23.8680   42.0550 C   0  0  0  0  0  0  0  0  0  0  0  0
   37.9160   22.8060   41.8830 H   0  0  0  0  0  0  0  0  0  0  0  0
   39.1470   24.4060   42.5300 N   0  0  0  0  0  0  0  0  0  0  0  0
   38.8940   25.7280   42.6270 C   0  0  0  0  0  0  0  0  0  0  0  0
   39.7210   26.7460   43.0540 C   0  0  0  0  0  3  0  0  0  0  0  0
   36.1040   24.7110   41.5230 H   0  0  0  0  0  0  0  0  0  0  0  0
  1  5  1  0  0  0  0
  1  2  1  0  0  0  0
  2  3  2  0  0  0  0
  2  6  1  0  0  0  0
  3  7  1  0  0  0  0
  4  3  1  0  0  0  0
  4  8  1  0  0  0  0
  5 10  1  6  0  0  0
  5  4  1  0  0  0  0
  5 23  1  0  0  0  0
  9  4  1  0  0  0  0
 11 12  1  0  0  0  0
 11  1  1  0  0  0  0
 13 11  1  0  0  0  0
 14 15  1  0  0  0  0
 14 20  1  0  0  0  0
 15 21  1  0  0  0  0
 16 11  1  0  0  0  0
 16 15  2  0  0  0  0
 17 16  1  0  0  0  0
 18 17  2  0  0  0  0
 18 19  1  0  0  0  0
 19 14  2  0  0  0  0
 22 18  1  0  0  0  0
 23 25  1  0  0  0  0
 25 24  2  6  0  0  0
 25 26  1  0  0  0  0
 25 28  1  0  0  0  0
 26 27  1  0  0  0  0
 28 30  1  0  0  0  0
 30 29  2  0  0  0  0
 31 30  1  0  0  0  0
 32 31  1  0  0  0  0
 33 31  2  0  0  0  0
 33 38  1  0  0  0  0
 34 35  1  0  0  0  0
 34 33  1  0  0  0  0
 35 37  2  0  0  0  0
 36 35  1  0  0  0  0
 37 38  1  0  0  0  0
 38 39  2  0  0  0  0
 39 29  1  0  0  0  0
 40 34  1  0  0  0  0
M  END
>  <minimizedAffinity>
-5.79556942

$$$$

 OpenBabel03252505003D

 40 43  0  0  1  0  0  0  0  0999 V2000
   38.6080   31.1540   40.0350 N   0  0  0  0  0  0  0  0  0  0  0  0
   38.7070   32.3480   40.7710 C   0  0  0  0  0  0  0  0  0  0  0  0
   37.7600   33.2460   40.0830 C   0  0  0  0  0  0  0  0  0  0  0  0
   37.0930   32.4620   38.9570 C   0  0  0  0  0  0  0  0  0  0  0  0
   37.3630   31.0160   39.3960 C   0  0  2  0  0  0  0  0  0  0  0  0
   39.2110   32.7580   41.5940 H   0  0  0  0  0  0  0  0  0  0  0  0
   37.4780   34.2710   40.2650 H   0  0  0  0  0  0  0  0  0  0  0  0
   36.0070   32.6810   39.0220 H   0  0  0  0  0  0  0  0  0  0  0  0
   37.5590   32.6890   37.9920 H   0  0  0  0  0  0  0  0  0  0  0  0
   37.3480   30.3220   38.5590 H   0  0  0  0  0  0  0  0  0  0  0  0
   39.6750   30.2910   39.9700 C   0  0  0  0  0  0  0  0  0  0  0  0
   39.2880   29.3000   39.6190 H   0  0  0  0  0  0  0  0  0  0  0  0
   40.1150   30.0230   40.9580 H   0  0  0  0  0  0  0  0  0  0  0  0
   41.8620   31.4400   37.1020 C   0  0  0  0  0  0  0  0  0  0  0  0
   40.6970   30.9760   37.7810 C   0  0  0  0  0  0  0  0  0  0  0  0
   40.7820   30.7320   39.1510 C   0  0  0  0  0  0  0  0  0  0  0  0
   41.9740   30.9520   39.7450 N   0  0  0  0  0  0  0  0  0  0  0  0
   43.0930   31.4010   39.0770 C   0  0  0  0  0  0  0  0  0  0  0  0
   43.0330   31.6410   37.7670 N   0  0  0  0  0  0  0  0  0  0  0  0
   41.6860   31.5980   36.0430 H   0  0  0  0  0  0  0  0  0  0  0  0
   39.7770   30.8140   37.2760 H   0  0  0  0  0  0  0  0  0  0  0  0
   44.0030   31.5470   39.6420 H   0  0  0  0  0  0  0  0  0  0  0  0
   36.4290   30.7330   40.4040 O   0  0  0  0  0  0  0  0  0  0  0  0
   36.3260   28.3610   39.2180 O   0  0  0  0  0  0  0  0  0  0  0  0
   35.7670   29.2180   40.3290 P   0  0  2  0  0  0  0  0  0  0  0  0
   34.1040   29.3780   40.0400 O   0  0  0  0  0  0  0  0  0  0  0  0
   33.5520   29.2010   40.8360 H   0  0  0  0  0  0  0  0  0  0  0  0
   35.9110   28.3910   41.8210 O   0  0  0  0  0  0  0  0  0  0  0  0
   38.1590   28.5070   42.9120 C   0  0  0  0  0  3  0  0  0  0  0  0
   37.0850   27.8920   42.3020 C   0  0  0  0  0  0  0  0  0  0  0  0
   37.1540   26.5070   42.1130 C   0  0  0  0  0  0  0  0  0  0  0  0
   36.3920   25.8630   41.6470 H   0  0  0  0  0  0  0  0  0  0  0  0
   38.2650   25.7630   42.5250 C   0  0  0  0  0  0  0  0  0  0  0  0
   38.6260   24.4760   42.4910 N   0  0  0  0  0  0  0  0  0  0  0  0
   39.8470   24.3320   43.0510 C   0  0  0  0  0  0  0  0  0  0  0  0
   40.4510   23.4520   43.1990 H   0  0  0  0  0  0  0  0  0  0  0  0
   40.3040   25.5490   43.4640 N   0  0  0  0  0  0  0  0  0  0  0  0
   39.3200   26.4120   43.1320 C   0  0  0  0  0  0  0  0  0  0  0  0
   39.2560   27.7770   43.3200 C   0  0  0  0  0  3  0  0  0  0  0  0
   38.0510   23.7020   42.0930 H   0  0  0  0  0  0  0  0  0  0  0  0
  1  2  1  0  0  0  0
  2  6  1  0  0  0  0
  3  7  1  0  0  0  0
  3  2  2  0  0  0  0
  4  8  1  0  0  0  0
  4  5  1  0  0  0  0
  4  3  1  0  0  0  0
  5 10  1  6  0  0  0
  5  1  1  0  0  0  0
  5 23  1  0  0  0  0
  9  4  1  0  0  0  0
 11  1  1  0  0  0  0
 11 13  1  0  0  0  0
 12 11  1  0  0  0  0
 14 19  2  0  0  0  0
 14 15  1  0  0  0  0
 15 16  2  0  0  0  0
 16 17  1  0  0  0  0
 16 11  1  0  0  0  0
 18 22  1  0  0  0  0
 18 17  2  0  0  0  0
 19 18  1  0  0  0  0
 20 14  1  0  0  0  0
 21 15  1  0  0  0  0
 25 24  2  6  0  0  0
 25 23  1  0  0  0  0
 25 28  1  0  0  0  0
 26 25  1  0  0  0  0
 26 27  1  0  0  0  0
 28 30  1  0  0  0  0
 29 39  1  0  0  0  0
 30 29  2  0  0  0  0
 31 30  1  0  0  0  0
 31 33  2  0  0  0  0
 32 31  1  0  0  0  0
 33 38  1  0  0  0  0
 34 33  1  0  0  0  0
 34 35  1  0  0  0  0
 35 36  1  0  0  0  0
 35 37  2  0  0  0  0
 38 39  2  0  0  0  0
 38 37  1  0  0  0  0
 40 34  1  0  0  0  0
M  END
>  <minimizedAffinity>
-5.71478701

$$$$
