
 OpenBabel03242519093D

 50 54  0  0  1  0  0  0  0  0999 V2000
   49.1460   32.0640   36.9880 C   0  0  0  0  0  0  0  0  0  0  0  0
   48.2950   32.8880   37.7550 C   0  0  0  0  0  0  0  0  0  0  0  0
   47.0560   33.0460   37.2040 C   0  0  0  0  0  0  0  0  0  0  0  0
   46.6070   32.5000   36.0380 C   0  0  0  0  0  0  0  0  0  0  0  0
   47.4680   31.7020   35.3190 C   0  0  0  0  0  0  0  0  0  0  0  0
   48.7320   31.4990   35.8160 C   0  0  0  0  0  0  0  0  0  0  0  0
   46.3490   33.6740   37.7510 H   0  0  0  0  0  0  0  0  0  0  0  0
   45.6060   32.6640   35.6530 H   0  0  0  0  0  0  0  0  0  0  0  0
   47.1530   31.2460   34.3850 H   0  0  0  0  0  0  0  0  0  0  0  0
   50.1580   31.1650   33.8460 C   0  0  0  0  0  0  0  0  0  0  0  0
   49.8680   32.3320   33.4520 O   0  0  0  0  0  0  0  0  0  0  0  0
   49.6000   30.6660   35.0440 N   0  0  0  0  0  0  0  0  0  0  0  0
   49.8140   29.7100   35.3630 H   0  0  0  0  0  0  0  0  0  0  0  0
   50.6430   29.1850   32.5150 C   0  0  0  0  0  0  0  0  0  0  0  0
   51.0730   30.3990   33.0080 C   0  0  0  0  0  0  0  0  0  0  0  0
   52.3400   30.8390   32.6890 C   0  0  0  0  0  0  0  0  0  0  0  0
   52.6970   31.7890   33.0630 H   0  0  0  0  0  0  0  0  0  0  0  0
   53.1570   30.0480   31.8790 C   0  0  0  0  0  0  0  0  0  0  0  0
   54.4150   30.3020   31.4610 N   0  0  0  0  0  0  0  0  0  0  0  0
   54.7520   29.2240   30.7030 C   0  0  0  0  0  0  0  0  0  0  0  0
   55.7040   29.1030   30.2110 H   0  0  0  0  0  0  0  0  0  0  0  0
   53.7160   28.3540   30.6770 N   0  0  0  0  0  0  0  0  0  0  0  0
   52.6990   28.8370   31.4030 C   0  0  0  0  0  0  0  0  0  0  0  0
   51.4370   28.3680   31.7030 C   0  0  0  0  0  0  0  0  0  0  0  0
   54.9990   31.1400   31.6710 H   0  0  0  0  0  0  0  0  0  0  0  0
   48.6760   33.4920   38.9690 N   0  0  0  0  0  0  0  0  0  0  0  0
   49.5130   34.0910   38.7820 H   0  0  0  0  0  0  0  0  0  0  0  0
   47.5960   34.4050   42.2340 N   0  0  0  0  0  0  0  0  0  0  0  0
   47.6720   34.7510   40.8150 C   0  0  0  0  0  0  0  0  0  0  0  0
   48.1480   33.4210   40.2900 C   0  0  2  0  0  0  0  0  0  0  0  0
   49.2960   33.1230   41.2310 C   0  0  0  0  0  0  0  0  0  0  0  0
   48.7990   33.6660   42.5400 C   0  0  0  0  0  0  0  0  0  0  0  0
   46.6930   35.0610   40.4020 H   0  0  0  0  0  0  0  0  0  0  0  0
   48.4520   35.5220   40.6190 H   0  0  0  0  0  0  0  0  0  0  0  0
   47.3530   32.6570   40.4100 H   0  0  0  0  0  0  0  0  0  0  0  0
   49.3750   32.0150   41.3590 H   0  0  0  0  0  0  0  0  0  0  0  0
   50.2410   33.5680   40.9050 H   0  0  0  0  0  0  0  0  0  0  0  0
   48.6460   32.8920   43.3040 H   0  0  0  0  0  0  0  0  0  0  0  0
   49.6030   34.3570   42.9240 H   0  0  0  0  0  0  0  0  0  0  0  0
   44.7370   35.9100   44.0880 C   0  0  0  0  0  0  0  0  0  0  0  0
   45.6750   35.7280   43.0860 C   0  0  0  0  0  0  0  0  0  0  0  0
   46.5980   34.6930   43.1810 C   0  0  0  0  0  0  0  0  0  0  0  0
   46.5180   33.8980   44.2900 N   0  0  0  0  0  0  0  0  0  0  0  0
   45.6110   34.0720   45.2590 C   0  0  0  0  0  0  0  0  0  0  0  0
   44.7180   35.0790   45.1590 N   0  0  0  0  0  0  0  0  0  0  0  0
   44.0190   36.7160   44.0120 H   0  0  0  0  0  0  0  0  0  0  0  0
   45.7330   36.3650   42.2080 H   0  0  0  0  0  0  0  0  0  0  0  0
   45.6620   33.3680   46.0790 H   0  0  0  0  0  0  0  0  0  0  0  0
   51.5540   31.6570   37.9150 N   0  0  0  0  0  0  0  0  0  0  0  0
   50.4930   31.8440   37.5090 C   0  0  0  0  0  0  0  0  0  0  0  0
  1 50  1  0  0  0  0
  1  2  1  0  0  0  0
  2 26  1  0  0  0  0
  3  7  1  0  0  0  0
  3  2  2  0  0  0  0
  4  3  1  0  0  0  0
  5  6  1  0  0  0  0
  5  4  2  0  0  0  0
  6  1  2  0  0  0  0
  8  4  1  0  0  0  0
  9  5  1  0  0  0  0
 10 12  1  0  0  0  0
 11 10  2  0  0  0  0
 12 13  1  0  0  0  0
 12  6  1  0  0  0  0
 14 15  1  0  0  0  0
 15 10  1  0  0  0  0
 16 15  2  0  0  0  0
 16 17  1  0  0  0  0
 18 16  1  0  0  0  0
 19 25  1  0  0  0  0
 19 18  1  0  0  0  0
 20 19  1  0  0  0  0
 21 20  1  0  0  0  0
 22 20  2  0  0  0  0
 22 23  1  0  0  0  0
 23 24  1  0  0  0  0
 23 18  2  0  0  0  0
 24 14  2  0  0  0  0
 26 30  1  0  0  0  0
 27 26  1  0  0  0  0
 28 32  1  0  0  0  0
 28 42  1  0  0  0  0
 29 28  1  0  0  0  0
 30 35  1  1  0  0  0
 30 29  1  0  0  0  0
 30 31  1  0  0  0  0
 31 36  1  0  0  0  0
 31 32  1  0  0  0  0
 32 39  1  0  0  0  0
 32 38  1  0  0  0  0
 33 29  1  0  0  0  0
 34 29  1  0  0  0  0
 37 31  1  0  0  0  0
 40 45  1  0  0  0  0
 41 42  1  0  0  0  0
 41 40  2  0  0  0  0
 42 43  2  0  0  0  0
 43 44  1  0  0  0  0
 44 48  1  0  0  0  0
 45 44  2  0  0  0  0
 46 40  1  0  0  0  0
 47 41  1  0  0  0  0
 50 49  3  0  0  0  0
M  END
>  <minimizedAffinity>
-6.18477154

>  <minimizedRMSD>
1.23127604

$$$$
