
 OpenBabel03252502203D

 36 39  0  0  1  0  0  0  0  0999 V2000
   46.4930   34.4180   42.3340 N   0  0  0  0  0  0  0  0  0  0  0  0
   47.8990   34.0150   42.3490 C   0  0  0  0  0  0  0  0  0  0  0  0
   48.5290   34.7160   41.1470 C   0  0  0  0  0  0  0  0  0  0  0  0
   47.9420   34.1410   39.8840 C   0  0  0  0  0  0  0  0  0  0  0  0
   46.4830   33.9120   39.9240 C   0  0  0  0  0  0  0  0  0  0  0  0
   45.7630   34.4830   41.1050 C   0  0  1  0  0  0  0  0  0  0  0  0
   47.9880   32.9010   42.2340 H   0  0  0  0  0  0  0  0  0  0  0  0
   48.3810   34.3610   43.2860 H   0  0  0  0  0  0  0  0  0  0  0  0
   49.6140   34.6490   41.1390 H   0  0  0  0  0  0  0  0  0  0  0  0
   48.1750   35.7720   41.2220 H   0  0  0  0  0  0  0  0  0  0  0  0
   48.2800   34.7520   39.0150 H   0  0  0  0  0  0  0  0  0  0  0  0
   48.4530   33.1440   39.7350 H   0  0  0  0  0  0  0  0  0  0  0  0
   46.0520   34.3980   39.0060 H   0  0  0  0  0  0  0  0  0  0  0  0
   46.2160   32.8280   39.7840 H   0  0  0  0  0  0  0  0  0  0  0  0
   45.5970   35.5720   40.8910 H   0  0  0  0  0  0  0  0  0  0  0  0
   43.4280   34.3840   40.4520 C   0  0  0  0  0  0  0  0  0  0  0  0
   44.4290   33.8060   41.2060 C   0  0  0  0  0  0  0  0  0  0  0  0
   44.2120   32.6880   41.9930 C   0  0  0  0  0  0  0  0  0  0  0  0
   45.0840   32.3370   42.5320 H   0  0  0  0  0  0  0  0  0  0  0  0
   42.9390   32.1460   42.0090 C   0  0  0  0  0  0  0  0  0  0  0  0
   42.5270   31.0630   42.7080 N   0  0  0  0  0  0  0  0  0  0  0  0
   41.2070   30.9330   42.3960 C   0  0  0  0  0  0  0  0  0  0  0  0
   40.5780   30.1400   42.8050 H   0  0  0  0  0  0  0  0  0  0  0  0
   40.8720   31.9100   41.5450 N   0  0  0  0  0  0  0  0  0  0  0  0
   41.9170   32.6990   41.2680 C   0  0  0  0  0  0  0  0  0  0  0  0
   42.1670   33.8200   40.4900 C   0  0  0  0  0  0  0  0  0  0  0  0
   43.0860   30.4580   43.3440 H   0  0  0  0  0  0  0  0  0  0  0  0
   44.4470   36.1920   44.8990 C   0  0  0  0  0  0  0  0  0  0  0  0
   45.0720   35.9590   43.6520 C   0  0  0  0  0  0  0  0  0  0  0  0
   45.8200   34.7560   43.5410 C   0  0  0  0  0  0  0  0  0  0  0  0
   45.8910   33.9190   44.6150 N   0  0  0  0  0  0  0  0  0  0  0  0
   45.2700   34.1940   45.7910 C   0  0  0  0  0  0  0  0  0  0  0  0
   44.5570   35.3240   45.9200 N   0  0  0  0  0  0  0  0  0  0  0  0
   43.8990   37.1310   44.8890 H   0  0  0  0  0  0  0  0  0  0  0  0
   45.0050   36.6290   42.8160 H   0  0  0  0  0  0  0  0  0  0  0  0
   45.3310   33.5320   46.6290 H   0  0  0  0  0  0  0  0  0  0  0  0
  1  2  1  0  0  0  0
  1 30  1  0  0  0  0
  2  8  1  0  0  0  0
  3 10  1  0  0  0  0
  3  2  1  0  0  0  0
  4  5  1  0  0  0  0
  4  3  1  0  0  0  0
  5  6  1  0  0  0  0
  6 15  1  6  0  0  0
  6 17  1  0  0  0  0
  6  1  1  0  0  0  0
  7  2  1  0  0  0  0
  9  3  1  0  0  0  0
 11  4  1  0  0  0  0
 12  4  1  0  0  0  0
 13  5  1  0  0  0  0
 14  5  1  0  0  0  0
 16 26  2  0  0  0  0
 16 17  1  0  0  0  0
 17 18  2  0  0  0  0
 18 20  1  0  0  0  0
 18 19  1  0  0  0  0
 20 21  1  0  0  0  0
 21 27  1  0  0  0  0
 22 21  1  0  0  0  0
 22 23  1  0  0  0  0
 24 22  2  0  0  0  0
 25 24  1  0  0  0  0
 25 20  2  0  0  0  0
 26 25  1  0  0  0  0
 28 33  1  0  0  0  0
 29 28  2  0  0  0  0
 30 29  1  0  0  0  0
 30 31  2  0  0  0  0
 31 32  1  0  0  0  0
 32 33  2  0  0  0  0
 32 36  1  0  0  0  0
 34 28  1  0  0  0  0
 35 29  1  0  0  0  0
M  END
>  <minimizedAffinity>
-5.95499611

>  <minimizedRMSD>
1.21996629

$$$$
