
 OpenBabel03252502373D

 27 29  0  0  1  0  0  0  0  0999 V2000
   38.0540   28.0940   43.6410 C   0  0  2  0  0  0  0  0  0  0  0  0
   38.4120   28.3310   44.6510 H   0  0  0  0  0  0  0  0  0  0  0  0
   39.4620   29.8800   42.5730 C   0  0  0  0  0  3  0  0  0  0  0  0
   38.2420   29.2630   42.7450 C   0  0  0  0  0  0  0  0  0  0  0  0
   37.1780   29.8080   42.0170 C   0  0  0  0  0  0  0  0  0  0  0  0
   36.2100   29.3620   42.1190 H   0  0  0  0  0  0  0  0  0  0  0  0
   37.3480   30.8880   41.1880 C   0  0  0  0  0  0  0  0  0  0  0  0
   36.4680   31.5680   40.4000 N   0  0  0  0  0  0  0  0  0  0  0  0
   37.1560   32.5580   39.7830 C   0  0  0  0  0  0  0  0  0  0  0  0
   36.7050   33.2560   39.0950 H   0  0  0  0  0  0  0  0  0  0  0  0
   38.4570   32.4950   40.1830 N   0  0  0  0  0  0  0  0  0  0  0  0
   38.6040   31.4610   41.0600 C   0  0  0  0  0  0  0  0  0  0  0  0
   39.6980   30.9650   41.7570 C   0  0  0  0  0  3  0  0  0  0  0  0
   35.4380   31.3330   40.3130 H   0  0  0  0  0  0  0  0  0  0  0  0
   38.3000   26.3660   41.9150 C   0  0  0  0  0  0  0  0  0  0  0  0
   38.7930   26.9530   43.1050 C   0  0  0  0  0  0  0  0  0  0  0  0
   39.9470   26.4050   43.6780 C   0  0  0  0  0  0  0  0  0  0  0  0
   40.5190   25.3450   43.0560 N   0  0  0  0  0  0  0  0  0  0  0  0
   40.0220   24.8200   41.9330 C   0  0  0  0  0  0  0  0  0  0  0  0
   38.9210   25.3230   41.3640 N   0  0  0  0  0  0  0  0  0  0  0  0
   37.4240   26.6860   41.3690 H   0  0  0  0  0  0  0  0  0  0  0  0
   40.3110   26.8660   44.5880 H   0  0  0  0  0  0  0  0  0  0  0  0
   40.5340   23.9610   41.4790 H   0  0  0  0  0  0  0  0  0  0  0  0
   36.5850   27.6820   43.6790 C   0  0  0  0  0  0  0  0  0  0  0  0
   36.4970   26.9200   44.4900 H   0  0  0  0  0  0  0  0  0  0  0  0
   35.9070   28.5400   43.8030 H   0  0  0  0  0  0  0  0  0  0  0  0
   36.4090   27.1240   42.7300 H   0  0  0  0  0  0  0  0  0  0  0  0
  1 24  1  0  0  0  0
  1  2  1  1  0  0  0
  3  4  1  0  0  0  0
  4  1  1  0  0  0  0
  5  6  1  0  0  0  0
  5  4  2  0  0  0  0
  7  5  1  0  0  0  0
  8  7  1  0  0  0  0
  9 11  2  0  0  0  0
  9  8  1  0  0  0  0
 10  9  1  0  0  0  0
 11 12  1  0  0  0  0
 12  7  2  0  0  0  0
 12 13  1  0  0  0  0
 13  3  2  0  0  0  0
 14  8  1  0  0  0  0
 15 16  1  0  0  0  0
 16  1  1  0  0  0  0
 16 17  2  0  0  0  0
 17 22  1  0  0  0  0
 18 17  1  0  0  0  0
 19 18  2  0  0  0  0
 20 15  2  0  0  0  0
 20 19  1  0  0  0  0
 21 15  1  0  0  0  0
 23 19  1  0  0  0  0
 24 26  1  0  0  0  0
 24 25  1  0  0  0  0
 27 24  1  0  0  0  0
M  END
>  <minimizedAffinity>
-5.2676549

$$$$

 OpenBabel03252502373D

 27 29  0  0  1  0  0  0  0  0999 V2000
   37.9560   28.0070   43.4930 C   0  0  2  0  0  0  0  0  0  0  0  0
   38.2790   28.2560   44.5120 H   0  0  0  0  0  0  0  0  0  0  0  0
   36.9430   29.5950   41.8300 C   0  0  0  0  0  3  0  0  0  0  0  0
   37.9960   29.2170   42.6350 C   0  0  0  0  0  0  0  0  0  0  0  0
   39.1190   30.0520   42.5960 C   0  0  0  0  0  0  0  0  0  0  0  0
   39.9630   29.8000   43.2030 H   0  0  0  0  0  0  0  0  0  0  0  0
   39.1590   31.1730   41.8040 C   0  0  0  0  0  0  0  0  0  0  0  0
   40.1300   32.1090   41.6160 N   0  0  0  0  0  0  0  0  0  0  0  0
   39.6570   33.0120   40.7240 C   0  0  0  0  0  0  0  0  0  0  0  0
   40.2220   33.8680   40.3880 H   0  0  0  0  0  0  0  0  0  0  0  0
   38.3980   32.6400   40.3590 N   0  0  0  0  0  0  0  0  0  0  0  0
   38.0630   31.4960   41.0190 C   0  0  0  0  0  0  0  0  0  0  0  0
   36.9200   30.7050   41.0150 C   0  0  0  0  0  3  0  0  0  0  0  0
   41.0740   32.0980   42.1000 H   0  0  0  0  0  0  0  0  0  0  0  0
   39.9830   26.6330   43.6800 C   0  0  0  0  0  0  0  0  0  0  0  0
   38.8370   26.9870   42.9270 C   0  0  0  0  0  0  0  0  0  0  0  0
   38.6290   26.3370   41.7040 C   0  0  0  0  0  0  0  0  0  0  0  0
   39.5390   25.4090   41.3190 N   0  0  0  0  0  0  0  0  0  0  0  0
   40.6080   25.1040   42.0590 C   0  0  0  0  0  0  0  0  0  0  0  0
   40.8320   25.7090   43.2310 N   0  0  0  0  0  0  0  0  0  0  0  0
   40.2640   27.0530   44.6340 H   0  0  0  0  0  0  0  0  0  0  0  0
   37.7470   26.6190   41.1410 H   0  0  0  0  0  0  0  0  0  0  0  0
   41.3070   24.3430   41.6890 H   0  0  0  0  0  0  0  0  0  0  0  0
   36.5520   27.4090   43.5090 C   0  0  0  0  0  0  0  0  0  0  0  0
   36.5600   26.6180   44.2950 H   0  0  0  0  0  0  0  0  0  0  0  0
   35.7700   28.1690   43.6550 H   0  0  0  0  0  0  0  0  0  0  0  0
   36.4520   26.8630   42.5430 H   0  0  0  0  0  0  0  0  0  0  0  0
  1 24  1  0  0  0  0
  1  2  1  1  0  0  0
  3  4  1  0  0  0  0
  4  1  1  0  0  0  0
  5  4  2  0  0  0  0
  5  6  1  0  0  0  0
  7  5  1  0  0  0  0
  8  7  1  0  0  0  0
  8 14  1  0  0  0  0
  9  8  1  0  0  0  0
 10  9  1  0  0  0  0
 11  9  2  0  0  0  0
 11 12  1  0  0  0  0
 12  7  2  0  0  0  0
 13 12  1  0  0  0  0
 13  3  2  0  0  0  0
 15 21  1  0  0  0  0
 16  1  1  0  0  0  0
 16 15  2  0  0  0  0
 17 16  1  0  0  0  0
 18 17  2  0  0  0  0
 18 19  1  0  0  0  0
 19 20  2  0  0  0  0
 20 15  1  0  0  0  0
 22 17  1  0  0  0  0
 23 19  1  0  0  0  0
 24 26  1  0  0  0  0
 24 25  1  0  0  0  0
 27 24  1  0  0  0  0
M  END
>  <minimizedAffinity>
-5.13537359

$$$$

 OpenBabel03252502373D

 27 29  0  0  1  0  0  0  0  0999 V2000
   35.5260   29.4140   40.1610 C   0  0  2  0  0  0  0  0  0  0  0  0
   34.8340   29.8420   40.8980 H   0  0  0  0  0  0  0  0  0  0  0  0
   37.3980   30.2710   38.7220 C   0  0  0  0  0  3  0  0  0  0  0  0
   36.5900   30.3950   39.8310 C   0  0  0  0  0  0  0  0  0  0  0  0
   36.8320   31.5140   40.6370 C   0  0  0  0  0  0  0  0  0  0  0  0
   36.2290   31.6530   41.5100 H   0  0  0  0  0  0  0  0  0  0  0  0
   37.8150   32.4240   40.3340 C   0  0  0  0  0  0  0  0  0  0  0  0
   38.2150   33.5620   40.9660 N   0  0  0  0  0  0  0  0  0  0  0  0
   39.2330   34.0910   40.2450 C   0  0  0  0  0  0  0  0  0  0  0  0
   39.7440   35.0010   40.5170 H   0  0  0  0  0  0  0  0  0  0  0  0
   39.4640   33.2860   39.1690 N   0  0  0  0  0  0  0  0  0  0  0  0
   38.5920   32.2390   39.2010 C   0  0  0  0  0  0  0  0  0  0  0  0
   38.3990   31.1480   38.3630 C   0  0  0  0  0  3  0  0  0  0  0  0
   37.7830   33.9340   41.8600 H   0  0  0  0  0  0  0  0  0  0  0  0
   36.4410   28.1910   42.0830 C   0  0  0  0  0  0  0  0  0  0  0  0
   36.1390   28.2020   40.7000 C   0  0  0  0  0  0  0  0  0  0  0  0
   36.4450   27.0590   39.9520 C   0  0  0  0  0  0  0  0  0  0  0  0
   37.0110   26.0120   40.6020 N   0  0  0  0  0  0  0  0  0  0  0  0
   37.2800   26.0410   41.9100 C   0  0  0  0  0  0  0  0  0  0  0  0
   36.9990   27.1200   42.6480 N   0  0  0  0  0  0  0  0  0  0  0  0
   36.2590   29.0010   42.7750 H   0  0  0  0  0  0  0  0  0  0  0  0
   36.2070   27.0830   38.8950 H   0  0  0  0  0  0  0  0  0  0  0  0
   37.7390   25.1600   42.3750 H   0  0  0  0  0  0  0  0  0  0  0  0
   34.7720   28.9980   38.9010 C   0  0  0  0  0  0  0  0  0  0  0  0
   33.8940   28.4030   39.2460 H   0  0  0  0  0  0  0  0  0  0  0  0
   34.5020   29.8550   38.2660 H   0  0  0  0  0  0  0  0  0  0  0  0
   35.4390   28.2690   38.3860 H   0  0  0  0  0  0  0  0  0  0  0  0
  1 16  1  0  0  0  0
  1  2  1  1  0  0  0
  3  4  1  0  0  0  0
  4  1  1  0  0  0  0
  4  5  2  0  0  0  0
  5  6  1  0  0  0  0
  7  5  1  0  0  0  0
  7  8  1  0  0  0  0
  8 14  1  0  0  0  0
  9 10  1  0  0  0  0
  9  8  1  0  0  0  0
 11 12  1  0  0  0  0
 11  9  2  0  0  0  0
 12  7  2  0  0  0  0
 13  3  2  0  0  0  0
 13 12  1  0  0  0  0
 15 20  1  0  0  0  0
 15 21  1  0  0  0  0
 16 15  2  0  0  0  0
 17 18  2  0  0  0  0
 17 16  1  0  0  0  0
 18 19  1  0  0  0  0
 19 23  1  0  0  0  0
 19 20  2  0  0  0  0
 22 17  1  0  0  0  0
 24 25  1  0  0  0  0
 24  1  1  0  0  0  0
 26 24  1  0  0  0  0
 27 24  1  0  0  0  0
M  END
>  <minimizedAffinity>
-4.99779463

$$$$

 OpenBabel03252502373D

 27 29  0  0  1  0  0  0  0  0999 V2000
   37.9090   26.6920   43.4330 C   0  0  2  0  0  0  0  0  0  0  0  0
   37.6320   26.0980   44.3140 H   0  0  0  0  0  0  0  0  0  0  0  0
   40.0190   28.0240   43.1390 C   0  0  0  0  0  3  0  0  0  0  0  0
   39.3850   26.8180   43.3460 C   0  0  0  0  0  0  0  0  0  0  0  0
   40.2250   25.7040   43.4710 C   0  0  0  0  0  0  0  0  0  0  0  0
   39.7780   24.7450   43.6330 H   0  0  0  0  0  0  0  0  0  0  0  0
   41.5910   25.8160   43.3920 C   0  0  0  0  0  0  0  0  0  0  0  0
   42.5790   24.8840   43.4850 N   0  0  0  0  0  0  0  0  0  0  0  0
   43.7610   25.5270   43.3360 C   0  0  0  0  0  0  0  0  0  0  0  0
   44.7180   25.0290   43.3650 H   0  0  0  0  0  0  0  0  0  0  0  0
   43.5100   26.8540   43.1520 N   0  0  0  0  0  0  0  0  0  0  0  0
   42.1640   27.0620   43.1840 C   0  0  0  0  0  0  0  0  0  0  0  0
   41.3820   28.2020   43.0500 C   0  0  0  0  0  3  0  0  0  0  0  0
   42.4110   23.8490   43.6450 H   0  0  0  0  0  0  0  0  0  0  0  0
   37.2730   26.8570   41.0680 C   0  0  0  0  0  0  0  0  0  0  0  0
   37.4080   26.0470   42.2210 C   0  0  0  0  0  0  0  0  0  0  0  0
   37.0570   24.6960   42.1180 C   0  0  0  0  0  0  0  0  0  0  0  0
   36.6110   24.2480   40.9190 N   0  0  0  0  0  0  0  0  0  0  0  0
   36.4980   25.0460   39.8540 C   0  0  0  0  0  0  0  0  0  0  0  0
   36.8250   26.3410   39.9230 N   0  0  0  0  0  0  0  0  0  0  0  0
   37.5060   27.9100   41.0060 H   0  0  0  0  0  0  0  0  0  0  0  0
   37.1670   24.0890   43.0100 H   0  0  0  0  0  0  0  0  0  0  0  0
   36.1290   24.6210   38.9120 H   0  0  0  0  0  0  0  0  0  0  0  0
   37.2580   28.0710   43.4940 C   0  0  0  0  0  0  0  0  0  0  0  0
   36.1810   27.8960   43.7270 H   0  0  0  0  0  0  0  0  0  0  0  0
   37.7590   28.7460   44.2040 H   0  0  0  0  0  0  0  0  0  0  0  0
   37.2750   28.4520   42.4470 H   0  0  0  0  0  0  0  0  0  0  0  0
  1 24  1  0  0  0  0
  1  2  1  1  0  0  0
  3  4  1  0  0  0  0
  4  1  1  0  0  0  0
  4  5  2  0  0  0  0
  5  6  1  0  0  0  0
  7  5  1  0  0  0  0
  7  8  1  0  0  0  0
  8 14  1  0  0  0  0
  9 10  1  0  0  0  0
  9  8  1  0  0  0  0
 11 12  1  0  0  0  0
 11  9  2  0  0  0  0
 12  7  2  0  0  0  0
 13  3  2  0  0  0  0
 13 12  1  0  0  0  0
 15 16  1  0  0  0  0
 16  1  1  0  0  0  0
 17 16  2  0  0  0  0
 17 22  1  0  0  0  0
 18 17  1  0  0  0  0
 19 20  1  0  0  0  0
 19 18  2  0  0  0  0
 20 15  2  0  0  0  0
 21 15  1  0  0  0  0
 23 19  1  0  0  0  0
 24 25  1  0  0  0  0
 24 26  1  0  0  0  0
 27 24  1  0  0  0  0
M  END
>  <minimizedAffinity>
-4.97705364

$$$$

 OpenBabel03252502373D

 27 29  0  0  1  0  0  0  0  0999 V2000
   36.5740   28.1400   42.3820 C   0  0  2  0  0  0  0  0  0  0  0  0
   35.5010   28.2190   42.5960 H   0  0  0  0  0  0  0  0  0  0  0  0
   36.5850   26.9330   40.1780 C   0  0  0  0  0  3  0  0  0  0  0  0
   36.8390   26.9520   41.5320 C   0  0  0  0  0  0  0  0  0  0  0  0
   37.3680   25.7710   42.0660 C   0  0  0  0  0  0  0  0  0  0  0  0
   37.5820   25.7370   43.1140 H   0  0  0  0  0  0  0  0  0  0  0  0
   37.6150   24.6700   41.2840 C   0  0  0  0  0  0  0  0  0  0  0  0
   38.1170   23.4420   41.5880 N   0  0  0  0  0  0  0  0  0  0  0  0
   38.1560   22.7220   40.4410 C   0  0  0  0  0  0  0  0  0  0  0  0
   38.5130   21.7050   40.3890 H   0  0  0  0  0  0  0  0  0  0  0  0
   37.6810   23.5000   39.4280 N   0  0  0  0  0  0  0  0  0  0  0  0
   37.3370   24.7200   39.9260 C   0  0  0  0  0  0  0  0  0  0  0  0
   36.8100   25.8640   39.3390 C   0  0  0  0  0  3  0  0  0  0  0  0
   38.4130   23.1410   42.5610 H   0  0  0  0  0  0  0  0  0  0  0  0
   38.4280   29.5760   41.6560 C   0  0  0  0  0  0  0  0  0  0  0  0
   37.0330   29.3410   41.6870 C   0  0  0  0  0  0  0  0  0  0  0  0
   36.1970   30.2670   41.0510 C   0  0  0  0  0  0  0  0  0  0  0  0
   36.7780   31.3310   40.4450 N   0  0  0  0  0  0  0  0  0  0  0  0
   38.1010   31.5180   40.4390 C   0  0  0  0  0  0  0  0  0  0  0  0
   38.9230   30.6500   41.0390 N   0  0  0  0  0  0  0  0  0  0  0  0
   39.1840   28.9470   42.1040 H   0  0  0  0  0  0  0  0  0  0  0  0
   35.1310   30.0710   41.0830 H   0  0  0  0  0  0  0  0  0  0  0  0
   38.5080   32.4010   39.9310 H   0  0  0  0  0  0  0  0  0  0  0  0
   37.3730   28.0560   43.6800 C   0  0  0  0  0  0  0  0  0  0  0  0
   36.9980   28.8830   44.3290 H   0  0  0  0  0  0  0  0  0  0  0  0
   37.3150   27.0630   44.1500 H   0  0  0  0  0  0  0  0  0  0  0  0
   38.4140   28.3460   43.4050 H   0  0  0  0  0  0  0  0  0  0  0  0
  1  2  1  1  0  0  0
  1 24  1  0  0  0  0
  3  4  1  0  0  0  0
  4  5  2  0  0  0  0
  4  1  1  0  0  0  0
  5  6  1  0  0  0  0
  7  8  1  0  0  0  0
  7  5  1  0  0  0  0
  8 14  1  0  0  0  0
  9  8  1  0  0  0  0
 10  9  1  0  0  0  0
 11 12  1  0  0  0  0
 11  9  2  0  0  0  0
 12  7  2  0  0  0  0
 13 12  1  0  0  0  0
 13  3  2  0  0  0  0
 15 16  1  0  0  0  0
 15 21  1  0  0  0  0
 16  1  1  0  0  0  0
 17 22  1  0  0  0  0
 17 16  2  0  0  0  0
 18 17  1  0  0  0  0
 19 18  2  0  0  0  0
 19 20  1  0  0  0  0
 20 15  2  0  0  0  0
 23 19  1  0  0  0  0
 24 26  1  0  0  0  0
 24 25  1  0  0  0  0
 27 24  1  0  0  0  0
M  END
>  <minimizedAffinity>
-4.91354752

$$$$

 OpenBabel03252502373D

 27 29  0  0  1  0  0  0  0  0999 V2000
   37.7580   25.1450   42.2530 C   0  0  2  0  0  0  0  0  0  0  0  0
   37.3080   25.0280   43.2470 H   0  0  0  0  0  0  0  0  0  0  0  0
   36.7540   26.3970   40.3190 C   0  0  0  0  0  3  0  0  0  0  0  0
   37.2500   26.3800   41.6050 C   0  0  0  0  0  0  0  0  0  0  0  0
   37.2450   27.6110   42.2740 C   0  0  0  0  0  0  0  0  0  0  0  0
   37.6210   27.6470   43.2750 H   0  0  0  0  0  0  0  0  0  0  0  0
   36.7750   28.7550   41.6790 C   0  0  0  0  0  0  0  0  0  0  0  0
   36.6790   30.0340   42.1350 N   0  0  0  0  0  0  0  0  0  0  0  0
   36.1400   30.7810   41.1420 C   0  0  0  0  0  0  0  0  0  0  0  0
   35.9500   31.8400   41.2300 H   0  0  0  0  0  0  0  0  0  0  0  0
   35.9020   29.9700   40.0720 N   0  0  0  0  0  0  0  0  0  0  0  0
   36.2890   28.7010   40.3810 C   0  0  0  0  0  0  0  0  0  0  0  0
   36.2690   27.5090   39.6670 C   0  0  0  0  0  3  0  0  0  0  0  0
   36.9820   30.3490   43.1010 H   0  0  0  0  0  0  0  0  0  0  0  0
   39.9670   25.0420   41.1870 C   0  0  0  0  0  0  0  0  0  0  0  0
   39.2120   25.2270   42.3710 C   0  0  0  0  0  0  0  0  0  0  0  0
   39.9070   25.4770   43.5600 C   0  0  0  0  0  0  0  0  0  0  0  0
   41.2610   25.5250   43.5030 N   0  0  0  0  0  0  0  0  0  0  0  0
   41.9370   25.3450   42.3650 C   0  0  0  0  0  0  0  0  0  0  0  0
   41.2990   25.1040   41.2140 N   0  0  0  0  0  0  0  0  0  0  0  0
   39.5630   24.8430   40.2060 H   0  0  0  0  0  0  0  0  0  0  0  0
   39.3140   25.6170   44.4570 H   0  0  0  0  0  0  0  0  0  0  0  0
   43.0320   25.3960   42.3870 H   0  0  0  0  0  0  0  0  0  0  0  0
   37.4590   23.9250   41.3860 C   0  0  0  0  0  0  0  0  0  0  0  0
   37.7130   23.0330   42.0060 H   0  0  0  0  0  0  0  0  0  0  0  0
   36.4270   23.9190   41.0040 H   0  0  0  0  0  0  0  0  0  0  0  0
   38.2220   23.9470   40.5730 H   0  0  0  0  0  0  0  0  0  0  0  0
  1 16  1  0  0  0  0
  1  2  1  1  0  0  0
  3  4  1  0  0  0  0
  4  1  1  0  0  0  0
  4  5  2  0  0  0  0
  5  6  1  0  0  0  0
  7  8  1  0  0  0  0
  7  5  1  0  0  0  0
  8 14  1  0  0  0  0
  9 10  1  0  0  0  0
  9  8  1  0  0  0  0
 11 12  1  0  0  0  0
 11  9  2  0  0  0  0
 12  7  2  0  0  0  0
 13  3  2  0  0  0  0
 13 12  1  0  0  0  0
 15 20  2  0  0  0  0
 15 16  1  0  0  0  0
 16 17  2  0  0  0  0
 17 22  1  0  0  0  0
 18 17  1  0  0  0  0
 19 23  1  0  0  0  0
 19 18  2  0  0  0  0
 20 19  1  0  0  0  0
 21 15  1  0  0  0  0
 24 25  1  0  0  0  0
 24  1  1  0  0  0  0
 26 24  1  0  0  0  0
 27 24  1  0  0  0  0
M  END
>  <minimizedAffinity>
-4.90373993

$$$$

 OpenBabel03252502373D

 27 29  0  0  1  0  0  0  0  0999 V2000
   36.2370   29.7130   41.3170 C   0  0  2  0  0  0  0  0  0  0  0  0
   35.6750   30.0770   42.1860 H   0  0  0  0  0  0  0  0  0  0  0  0
   36.7890   31.5540   39.6980 C   0  0  0  0  0  3  0  0  0  0  0  0
   37.1190   30.7860   40.7940 C   0  0  0  0  0  0  0  0  0  0  0  0
   38.3500   31.0810   41.3930 C   0  0  0  0  0  0  0  0  0  0  0  0
   38.6500   30.5110   42.2480 H   0  0  0  0  0  0  0  0  0  0  0  0
   39.1680   32.0740   40.9130 C   0  0  0  0  0  0  0  0  0  0  0  0
   40.3830   32.5220   41.3330 N   0  0  0  0  0  0  0  0  0  0  0  0
   40.7560   33.5260   40.5040 C   0  0  0  0  0  0  0  0  0  0  0  0
   41.6840   34.0670   40.6050 H   0  0  0  0  0  0  0  0  0  0  0  0
   39.7760   33.7030   39.5730 N   0  0  0  0  0  0  0  0  0  0  0  0
   38.7740   32.8100   39.8060 C   0  0  0  0  0  0  0  0  0  0  0  0
   37.5650   32.5620   39.1680 C   0  0  0  0  0  3  0  0  0  0  0  0
   40.9120   32.1290   42.1650 H   0  0  0  0  0  0  0  0  0  0  0  0
   37.5260   27.7310   40.6550 C   0  0  0  0  0  0  0  0  0  0  0  0
   37.0540   28.5630   41.6990 C   0  0  0  0  0  0  0  0  0  0  0  0
   37.4020   28.2280   43.0130 C   0  0  0  0  0  0  0  0  0  0  0  0
   38.1710   27.1280   43.2020 N   0  0  0  0  0  0  0  0  0  0  0  0
   38.5960   26.3680   42.1900 C   0  0  0  0  0  0  0  0  0  0  0  0
   38.2780   26.6630   40.9240 N   0  0  0  0  0  0  0  0  0  0  0  0
   37.3330   27.8700   39.6010 H   0  0  0  0  0  0  0  0  0  0  0  0
   37.0330   28.8760   43.8000 H   0  0  0  0  0  0  0  0  0  0  0  0
   39.2150   25.4900   42.4110 H   0  0  0  0  0  0  0  0  0  0  0  0
   35.2830   29.2280   40.2280 C   0  0  0  0  0  0  0  0  0  0  0  0
   34.5510   28.5550   40.7340 H   0  0  0  0  0  0  0  0  0  0  0  0
   34.8140   30.0560   39.6760 H   0  0  0  0  0  0  0  0  0  0  0  0
   35.8940   28.5610   39.5760 H   0  0  0  0  0  0  0  0  0  0  0  0
  1 16  1  0  0  0  0
  1  2  1  1  0  0  0
  3  4  1  0  0  0  0
  4  1  1  0  0  0  0
  4  5  2  0  0  0  0
  5  6  1  0  0  0  0
  7  8  1  0  0  0  0
  7  5  1  0  0  0  0
  8 14  1  0  0  0  0
  9 10  1  0  0  0  0
  9  8  1  0  0  0  0
 11 12  1  0  0  0  0
 11  9  2  0  0  0  0
 12  7  2  0  0  0  0
 13  3  2  0  0  0  0
 13 12  1  0  0  0  0
 15 20  2  0  0  0  0
 15 16  1  0  0  0  0
 16 17  2  0  0  0  0
 17 18  1  0  0  0  0
 17 22  1  0  0  0  0
 19 23  1  0  0  0  0
 19 18  2  0  0  0  0
 20 19  1  0  0  0  0
 21 15  1  0  0  0  0
 24 25  1  0  0  0  0
 24  1  1  0  0  0  0
 26 24  1  0  0  0  0
 27 24  1  0  0  0  0
M  END
>  <minimizedAffinity>
-4.79069948

$$$$

 OpenBabel03252502373D

 27 29  0  0  1  0  0  0  0  0999 V2000
   35.6360   29.4980   40.3440 C   0  0  2  0  0  0  0  0  0  0  0  0
   34.5430   29.4960   40.4470 H   0  0  0  0  0  0  0  0  0  0  0  0
   36.5110   28.1100   42.2480 C   0  0  0  0  0  3  0  0  0  0  0  0
   36.2030   28.2490   40.9120 C   0  0  0  0  0  0  0  0  0  0  0  0
   36.4600   27.1290   40.1110 C   0  0  0  0  0  0  0  0  0  0  0  0
   36.2370   27.1890   39.0660 H   0  0  0  0  0  0  0  0  0  0  0  0
   36.9840   25.9730   40.6320 C   0  0  0  0  0  0  0  0  0  0  0  0
   37.3060   24.7860   40.0480 N   0  0  0  0  0  0  0  0  0  0  0  0
   37.7900   23.9730   41.0170 C   0  0  0  0  0  0  0  0  0  0  0  0
   38.1250   22.9640   40.8350 H   0  0  0  0  0  0  0  0  0  0  0  0
   37.7680   24.6510   42.1990 N   0  0  0  0  0  0  0  0  0  0  0  0
   37.2690   25.9010   41.9870 C   0  0  0  0  0  0  0  0  0  0  0  0
   37.0370   26.9790   42.8320 C   0  0  0  0  0  3  0  0  0  0  0  0
   37.1850   24.5750   39.0150 H   0  0  0  0  0  0  0  0  0  0  0  0
   37.2780   30.1350   38.6350 C   0  0  0  0  0  0  0  0  0  0  0  0
   36.0030   29.5960   38.9340 C   0  0  0  0  0  0  0  0  0  0  0  0
   35.1930   29.1950   37.8640 C   0  0  0  0  0  0  0  0  0  0  0  0
   35.6820   29.3490   36.6090 N   0  0  0  0  0  0  0  0  0  0  0  0
   36.8910   29.8630   36.3690 C   0  0  0  0  0  0  0  0  0  0  0  0
   37.6860   30.2540   37.3710 N   0  0  0  0  0  0  0  0  0  0  0  0
   38.0010   30.4820   39.3580 H   0  0  0  0  0  0  0  0  0  0  0  0
   34.2210   28.7850   38.1100 H   0  0  0  0  0  0  0  0  0  0  0  0
   37.2270   29.9610   35.3290 H   0  0  0  0  0  0  0  0  0  0  0  0
   36.2340   30.7190   41.0370 C   0  0  0  0  0  0  0  0  0  0  0  0
   35.6440   31.5970   40.6820 H   0  0  0  0  0  0  0  0  0  0  0  0
   36.2580   30.6160   42.1320 H   0  0  0  0  0  0  0  0  0  0  0  0
   37.2470   30.8450   40.5900 H   0  0  0  0  0  0  0  0  0  0  0  0
  1  2  1  1  0  0  0
  1  4  1  0  0  0  0
  1 24  1  0  0  0  0
  3 13  1  0  0  0  0
  4  3  2  0  0  0  0
  5  7  2  0  0  0  0
  5  4  1  0  0  0  0
  6  5  1  0  0  0  0
  7 12  1  0  0  0  0
  8  7  1  0  0  0  0
  8  9  1  0  0  0  0
  9 11  2  0  0  0  0
 10  9  1  0  0  0  0
 12 11  1  0  0  0  0
 12 13  2  0  0  0  0
 14  8  1  0  0  0  0
 15 16  1  0  0  0  0
 15 21  1  0  0  0  0
 16  1  1  0  0  0  0
 17 22  1  0  0  0  0
 17 16  2  0  0  0  0
 18 17  1  0  0  0  0
 19 18  2  0  0  0  0
 19 20  1  0  0  0  0
 20 15  2  0  0  0  0
 23 19  1  0  0  0  0
 24 26  1  0  0  0  0
 25 24  1  0  0  0  0
 27 24  1  0  0  0  0
M  END
>  <minimizedAffinity>
-4.78279877

$$$$

 OpenBabel03252502373D

 27 29  0  0  1  0  0  0  0  0999 V2000
   36.1090   28.9070   39.7010 C   0  0  2  0  0  0  0  0  0  0  0  0
   36.1730   28.2770   38.8040 H   0  0  0  0  0  0  0  0  0  0  0  0
   36.3560   27.9930   42.0290 C   0  0  0  0  0  3  0  0  0  0  0  0
   36.9020   28.3070   40.8030 C   0  0  0  0  0  0  0  0  0  0  0  0
   38.2650   28.0240   40.6560 C   0  0  0  0  0  0  0  0  0  0  0  0
   38.7340   28.2510   39.7210 H   0  0  0  0  0  0  0  0  0  0  0  0
   39.0020   27.4690   41.6720 C   0  0  0  0  0  0  0  0  0  0  0  0
   40.3160   27.1170   41.7450 N   0  0  0  0  0  0  0  0  0  0  0  0
   40.5330   26.6100   42.9820 C   0  0  0  0  0  0  0  0  0  0  0  0
   41.4940   26.2500   43.3170 H   0  0  0  0  0  0  0  0  0  0  0  0
   39.3600   26.6460   43.6760 N   0  0  0  0  0  0  0  0  0  0  0  0
   38.3890   27.1770   42.8810 C   0  0  0  0  0  0  0  0  0  0  0  0
   37.0400   27.4360   43.0870 C   0  0  0  0  0  3  0  0  0  0  0  0
   41.0120   27.2350   40.9540 H   0  0  0  0  0  0  0  0  0  0  0  0
   36.6450   31.1730   40.4770 C   0  0  0  0  0  0  0  0  0  0  0  0
   36.6230   30.2430   39.4100 C   0  0  0  0  0  0  0  0  0  0  0  0
   37.0940   30.6660   38.1610 C   0  0  0  0  0  0  0  0  0  0  0  0
   37.5420   31.9410   38.0530 N   0  0  0  0  0  0  0  0  0  0  0  0
   37.5460   32.7880   39.0850 C   0  0  0  0  0  0  0  0  0  0  0  0
   37.1020   32.4120   40.2890 N   0  0  0  0  0  0  0  0  0  0  0  0
   36.3130   30.9820   41.4870 H   0  0  0  0  0  0  0  0  0  0  0  0
   37.0700   29.9420   37.3550 H   0  0  0  0  0  0  0  0  0  0  0  0
   37.9230   33.8070   38.9310 H   0  0  0  0  0  0  0  0  0  0  0  0
   34.6530   29.0830   40.1250 C   0  0  0  0  0  0  0  0  0  0  0  0
   34.0940   29.3730   39.2040 H   0  0  0  0  0  0  0  0  0  0  0  0
   34.2470   28.1910   40.6260 H   0  0  0  0  0  0  0  0  0  0  0  0
   34.6420   29.9880   40.7750 H   0  0  0  0  0  0  0  0  0  0  0  0
  1  2  1  6  0  0  0
  1 24  1  0  0  0  0
  1  4  1  0  0  0  0
  3 13  1  0  0  0  0
  4  3  2  0  0  0  0
  5  4  1  0  0  0  0
  5  7  2  0  0  0  0
  6  5  1  0  0  0  0
  7  8  1  0  0  0  0
  7 12  1  0  0  0  0
  8  9  1  0  0  0  0
  9 10  1  0  0  0  0
  9 11  2  0  0  0  0
 12 13  2  0  0  0  0
 12 11  1  0  0  0  0
 14  8  1  0  0  0  0
 15 21  1  0  0  0  0
 16  1  1  0  0  0  0
 16 15  2  0  0  0  0
 17 16  1  0  0  0  0
 18 17  2  0  0  0  0
 18 19  1  0  0  0  0
 19 20  2  0  0  0  0
 20 15  1  0  0  0  0
 22 17  1  0  0  0  0
 23 19  1  0  0  0  0
 24 26  1  0  0  0  0
 24 27  1  0  0  0  0
 25 24  1  0  0  0  0
M  END
>  <minimizedAffinity>
-4.75690842

$$$$
