REMARK  Name = 
REMARK  2 active torsions:
REMARK  status: ('A' for Active; 'I' for Inactive)
REMARK    1  A    between atoms: C_3  and  N_9
REMARK    2  A    between atoms: C_7  and  C_15
REMARK                            x       y       z     vdW  Elec       q    Type
REMARK                         _______ _______ _______ _____ _____    ______ ____
ROOT
ATOM      1  C   UNL     1      46.395  34.185  40.795  0.00  0.00    +0.000 C 
ATOM      2  O   UNL     1      45.223  33.738  40.930  0.00  0.00    +0.000 OA
ATOM      3  N   UNL     1      46.878  34.867  41.941  0.00  0.00    +0.000 N 
ATOM      4  H   UNL     1      47.804  35.346  41.940  0.00  0.00    +0.000 HD
ENDROOT
BRANCH   1   6
ATOM      5  C   UNL     1      48.486  34.518  39.431  0.00  0.00    +0.000 A 
ATOM      6  C   UNL     1      47.205  34.034  39.591  0.00  0.00    +0.000 A 
ATOM      7  C   UNL     1      46.649  33.352  38.520  0.00  0.00    +0.000 A 
ATOM      8  H   UNL     1      45.657  32.916  38.496  0.00  0.00    +0.000 HD
ATOM      9  C   UNL     1      47.353  33.161  37.331  0.00  0.00    +0.000 A 
ATOM     10  N   UNL     1      47.134  32.576  36.144  0.00  0.00    +0.000 N 
ATOM     11  C   UNL     1      48.213  32.712  35.355  0.00  0.00    +0.000 A 
ATOM     12  H   UNL     1      48.368  32.358  34.337  0.00  0.00    +0.000 HD
ATOM     13  N   UNL     1      49.180  33.399  36.009  0.00  0.00    +0.000 NA
ATOM     14  C   UNL     1      48.634  33.662  37.211  0.00  0.00    +0.000 A 
ATOM     15  C   UNL     1      49.198  34.342  38.267  0.00  0.00    +0.000 A 
ATOM     16  H   UNL     1      46.242  32.087  35.889  0.00  0.00    +0.000 HD
ENDBRANCH   1   6
BRANCH   3  19
ATOM     17  C   UNL     1      44.533  36.046  44.570  0.00  0.00    +0.000 A 
ATOM     18  C   UNL     1      45.252  36.003  43.356  0.00  0.00    +0.000 A 
ATOM     19  C   UNL     1      46.139  34.942  43.151  0.00  0.00    +0.000 A 
ATOM     20  N   UNL     1      46.282  34.002  44.106  0.00  0.00    +0.000 NA
ATOM     21  C   UNL     1      45.569  34.072  45.275  0.00  0.00    +0.000 A 
ATOM     22  N   UNL     1      44.714  35.087  45.482  0.00  0.00    +0.000 NA
ATOM     23  H   UNL     1      43.839  36.852  44.761  0.00  0.00    +0.000 HD
ATOM     24  H   UNL     1      45.096  36.789  42.622  0.00  0.00    +0.000 HD
ATOM     25  H   UNL     1      45.762  33.266  45.968  0.00  0.00    +0.000 HD
ENDBRANCH   3  19
TORSDOF 2
