
     RDKit          3D

 46 50  0  0  0  0  0  0  0  0999 V2000
   45.2777   35.2835   43.1332 Cl  0  0  0  0  0  0  0  0  0  0  0  0
   45.1561   34.5291   41.5638 C   0  0  0  0  0  0  0  0  0  0  0  0
   46.2671   34.1445   40.8828 C   0  0  0  0  0  0  0  0  0  0  0  0
   46.0739   33.5595   39.6373 C   0  0  0  0  0  0  0  0  0  0  0  0
   44.8219   33.3767   39.1093 C   0  0  0  0  0  0  0  0  0  0  0  0
   43.7215   33.7658   39.8022 C   0  0  0  0  0  0  0  0  0  0  0  0
   43.8950   34.3483   41.0443 C   0  0  0  0  0  0  0  0  0  0  0  0
   49.5409   35.7485   41.8913 C   0  0  0  0  0  0  0  0  0  0  0  0
   48.2812   35.5457   41.3195 C   0  0  0  0  0  0  0  0  0  0  0  0
   47.5758   34.3645   41.4685 C   0  0  0  0  0  0  0  0  0  0  0  0
   48.2157   33.4497   42.2060 N   0  0  0  0  0  0  0  0  0  0  0  0
   49.4150   33.6218   42.7598 C   0  0  0  0  0  0  0  0  0  0  0  0
   50.0761   34.7598   42.6067 N   0  0  0  0  0  0  0  0  0  0  0  0
   47.7880   31.8708   38.9855 C   0  0  0  0  0  0  0  0  0  0  0  0
   47.2323   33.1116   38.8760 C   0  0  0  0  0  0  0  0  0  0  0  0
   47.7711   34.0278   37.9878 C   0  0  0  0  0  0  0  0  0  0  0  0
   48.8609   33.6949   37.2169 C   0  0  0  0  0  0  0  0  0  0  0  0
   49.4568   32.4400   37.2991 C   0  0  0  0  0  0  0  0  0  0  0  0
   48.8947   31.5322   38.2032 C   0  0  0  0  0  0  0  0  0  0  0  0
   47.1901   30.7213   40.0677 S   0  0  0  0  0  0  0  0  0  0  0  0
   46.8098   29.4385   39.2816 O   0  0  0  0  0  0  0  0  0  0  0  0
   48.3815   30.2695   40.9095 O   0  0  0  0  0  0  0  0  0  0  0  0
   44.7351   32.9159   38.1297 H   0  0  0  0  0  0  0  0  0  0  0  0
   42.7577   33.6031   39.3527 H   0  0  0  0  0  0  0  0  0  0  0  0
   42.9968   34.6448   41.5673 H   0  0  0  0  0  0  0  0  0  0  0  0
   50.0522   36.6866   41.7472 H   0  0  0  0  0  0  0  0  0  0  0  0
   47.8307   36.3510   40.7293 H   0  0  0  0  0  0  0  0  0  0  0  0
   49.7614   32.7541   43.3229 H   0  0  0  0  0  0  0  0  0  0  0  0
   47.3460   35.0214   37.8833 H   0  0  0  0  0  0  0  0  0  0  0  0
   49.3384   34.3370   36.5092 H   0  0  0  0  0  0  0  0  0  0  0  0
   50.3059   32.0929   36.7398 H   0  0  0  0  0  0  0  0  0  0  0  0
   49.3373   30.5408   38.2919 H   0  0  0  0  0  0  0  0  0  0  0  0
   45.0454   32.1205   41.0649 C   0  0  0  0  0  0  0  0  0  0  0  0
   45.7871   30.9060   41.0273 C   0  0  0  0  0  0  0  0  0  0  0  0
   45.1182   29.9797   41.8176 C   0  0  0  0  0  0  0  0  0  0  0  0
   45.5557   28.9942   41.8569 H   0  0  0  0  0  0  0  0  0  0  0  0
   43.9683   30.1323   42.5258 C   0  0  0  0  0  0  0  0  0  0  0  0
   43.2441   29.3231   43.3115 N   0  0  0  0  0  0  0  0  0  0  0  0
   42.1824   30.0635   43.7416 C   0  0  0  0  0  0  0  0  0  0  0  0
   41.4178   29.6683   44.3991 H   0  0  0  0  0  0  0  0  0  0  0  0
   42.2670   31.3170   43.2155 N   0  0  0  0  0  0  0  0  0  0  0  0
   43.3778   31.3738   42.4539 C   0  0  0  0  0  0  0  0  0  0  0  0
   43.8762   32.4267   41.7276 C   0  0  0  0  0  0  0  0  0  0  0  0
   45.4940   32.9338   40.4614 H   0  0  0  0  0  0  0  0  0  0  0  0
   43.4648   28.3370   43.5341 H   0  0  0  0  0  0  0  0  0  0  0  0
   43.4664   33.4083   41.6321 H   0  0  0  0  0  0  0  0  0  0  0  0
  2  1  1  0
  3 10  1  0
  3  2  2  0
  4  3  1  0
  5  4  2  0
  5  6  1  0
  6  7  2  0
  7  2  1  0
  8 13  2  0
  9 10  2  0
  9  8  1  0
 10 11  1  0
 11 12  2  0
 13 12  1  0
 14 20  1  0
 15 14  1  0
 15  4  1  0
 16 15  2  0
 17 18  2  0
 17 16  1  0
 18 19  1  0
 19 14  2  0
 20 22  2  0
 21 20  2  0
  5 23  1  0
  6 24  1  0
  7 25  1  0
  8 26  1  0
  9 27  1  0
 12 28  1  0
 16 29  1  0
 17 30  1  0
 18 31  1  0
 19 32  1  0
 33 34  2  0
 34 35  1  0
 35 36  1  0
 35 37  2  0
 37 38  1  0
 38 39  1  0
 39 40  1  0
 39 41  2  0
 41 42  1  0
 42 43  2  0
 43 33  1  0
 42 37  1  0
 33 44  1  0
 38 45  1  0
 43 46  1  0
 20 34  1  0
M  ISO  8  23  14  24  14  25  14  26  14  27  14  28  14  29  14  30  14
M  ISO  4  31  14  32  14  36  15  40  14
M  END
>  <DihAtoms>  (1) 
13,19,33,32

>  <DihDeg>  (1) 
85.03190888636583

$$$$
