
 OpenBabel03252507043D

 50 54  0  0  0  0  0  0  0  0999 V2000
   41.0100   33.5920   40.2030 N   0  0  0  0  0  0  0  0  0  0  0  0
   40.3950   32.3010   40.2160 C   0  0  0  0  0  0  0  0  0  0  0  0
   39.0320   32.6950   40.7780 C   0  0  0  0  0  0  0  0  0  0  0  0
   38.3100   33.6570   39.9630 C   0  0  0  0  0  0  0  0  0  0  0  0
   39.0580   34.5280   39.0840 C   0  0  0  0  0  0  0  0  0  0  0  0
   40.5670   34.5630   39.1780 C   0  0  0  0  0  0  0  0  0  0  0  0
   40.3570   31.7290   39.3070 H   0  0  0  0  0  0  0  0  0  0  0  0
   40.8550   31.6660   40.9940 H   0  0  0  0  0  0  0  0  0  0  0  0
   39.1740   33.0160   41.8350 H   0  0  0  0  0  0  0  0  0  0  0  0
   38.4550   31.7300   40.8660 H   0  0  0  0  0  0  0  0  0  0  0  0
   37.5670   33.1050   39.3150 H   0  0  0  0  0  0  0  0  0  0  0  0
   37.6730   34.2950   40.6320 H   0  0  0  0  0  0  0  0  0  0  0  0
   38.6420   35.1760   38.3810 H   0  0  0  0  0  0  0  0  0  0  0  0
   41.9420   34.0490   41.0450 C   0  0  0  0  0  0  0  0  0  0  0  0
   41.6220   34.0170   42.1100 H   0  0  0  0  0  0  0  0  0  0  0  0
   42.1990   35.1530   40.8870 H   0  0  0  0  0  0  0  0  0  0  0  0
   43.2500   33.3540   40.9380 C   0  0  0  0  0  0  0  0  0  0  0  0
   43.1910   32.3650   41.4490 H   0  0  0  0  0  0  0  0  0  0  0  0
   43.5250   33.2040   39.8580 H   0  0  0  0  0  0  0  0  0  0  0  0
   44.2640   34.1590   41.6410 C   0  0  0  0  0  0  0  0  0  0  0  0
   43.8980   35.2990   42.3180 C   0  0  0  0  0  0  0  0  0  0  0  0
   44.8870   36.0350   42.9580 C   0  0  0  0  0  0  0  0  0  0  0  0
   46.1730   35.5840   42.8800 N   0  0  0  0  0  0  0  0  0  0  0  0
   46.4890   34.4730   42.2180 C   0  0  0  0  0  0  0  0  0  0  0  0
   45.5210   33.7820   41.6070 N   0  0  0  0  0  0  0  0  0  0  0  0
   42.9630   35.7990   42.5060 H   0  0  0  0  0  0  0  0  0  0  0  0
   44.7880   36.9570   43.5350 H   0  0  0  0  0  0  0  0  0  0  0  0
   47.8870   34.0500   42.2240 C   0  0  0  0  0  0  0  0  0  0  0  0
   48.2160   32.7140   42.0080 C   0  0  0  0  0  0  0  0  0  0  0  0
   49.5390   32.3190   42.0320 C   0  0  0  0  0  0  0  0  0  0  0  0
   50.4340   33.3310   42.2790 C   0  0  0  0  0  0  0  0  0  0  0  0
   50.1560   34.6740   42.5000 C   0  0  0  0  0  0  0  0  0  0  0  0
   48.8320   34.9800   42.4600 N   0  0  0  0  0  0  0  0  0  0  0  0
   47.4390   31.9960   41.8220 H   0  0  0  0  0  0  0  0  0  0  0  0
   49.8610   31.3190   41.8750 H   0  0  0  0  0  0  0  0  0  0  0  0
   51.4950   33.0670   42.3080 H   0  0  0  0  0  0  0  0  0  0  0  0
   50.9290   35.3990   42.6870 H   0  0  0  0  0  0  0  0  0  0  0  0
   41.5800   35.5730   38.2270 S   0  0  0  0  0  0  0  0  0  0  0  0
   40.9540   36.9510   36.2120 C   0  0  0  0  0  3  0  0  0  0  0  0
   40.9750   37.0620   37.6020 C   0  0  0  0  0  0  0  0  0  0  0  0
   40.5550   38.2660   38.0460 C   0  0  0  0  0  0  0  0  0  0  0  0
   40.5940   38.3630   39.1130 H   0  0  0  0  0  0  0  0  0  0  0  0
   40.1330   39.3330   37.3280 C   0  0  0  0  0  0  0  0  0  0  0  0
   39.7040   40.5500   37.6960 N   0  0  0  0  0  0  0  0  0  0  0  0
   39.4280   41.1640   36.5170 C   0  0  0  0  0  0  0  0  0  0  0  0
   39.0520   42.1910   36.5090 H   0  0  0  0  0  0  0  0  0  0  0  0
   39.6750   40.3640   35.4790 N   0  0  0  0  0  0  0  0  0  0  0  0
   40.1290   39.1830   35.9630 C   0  0  0  0  0  0  0  0  0  0  0  0
   40.5370   37.9940   35.3810 C   0  0  0  0  0  3  0  0  0  0  0  0
   39.6070   40.9320   38.6700 H   0  0  0  0  0  0  0  0  0  0  0  0
  1  2  1  0  0  0  0
  1 14  1  0  0  0  0
  2  3  1  0  0  0  0
  2  8  1  0  0  0  0
  3 10  1  0  0  0  0
  3  9  1  0  0  0  0
  4 12  1  0  0  0  0
  4  3  1  0  0  0  0
  5  6  2  0  0  0  0
  5  4  1  0  0  0  0
  6  1  1  0  0  0  0
  7  2  1  0  0  0  0
 11  4  1  0  0  0  0
 13  5  1  0  0  0  0
 14 15  1  0  0  0  0
 16 14  1  0  0  0  0
 17 14  1  0  0  0  0
 17 18  1  0  0  0  0
 17 20  1  0  0  0  0
 19 17  1  0  0  0  0
 20 21  1  0  0  0  0
 21 26  1  0  0  0  0
 21 22  2  0  0  0  0
 22 27  1  0  0  0  0
 23 22  1  0  0  0  0
 24 28  1  0  0  0  0
 24 23  2  0  0  0  0
 25 20  2  0  0  0  0
 25 24  1  0  0  0  0
 28 33  1  0  0  0  0
 29 30  1  0  0  0  0
 29 28  2  0  0  0  0
 30 31  2  0  0  0  0
 31 36  1  0  0  0  0
 31 32  1  0  0  0  0
 32 37  1  0  0  0  0
 33 32  2  0  0  0  0
 34 29  1  0  0  0  0
 35 30  1  0  0  0  0
 38  6  1  0  0  0  0
 39 40  1  0  0  0  0
 40 41  2  0  0  0  0
 40 38  1  0  0  0  0
 41 42  1  0  0  0  0
 43 44  1  0  0  0  0
 43 41  1  0  0  0  0
 44 50  1  0  0  0  0
 45 44  1  0  0  0  0
 46 45  1  0  0  0  0
 47 48  1  0  0  0  0
 47 45  2  0  0  0  0
 48 43  2  0  0  0  0
 49 48  1  0  0  0  0
 49 39  2  0  0  0  0
M  END
>  <minimizedAffinity>
-2.79222417

>  <minimizedRMSD>
0.47280556

$$$$
