
 OpenBabel03242523093D

 48 53  0  0  1  0  0  0  0  0999 V2000
   40.7860   34.8070   40.2940 C   0  0  0  0  0  0  0  0  0  0  0  0
   41.6510   33.7790   40.7260 C   0  0  0  0  0  0  0  0  0  0  0  0
   40.9420   32.6120   40.9490 C   0  0  0  0  0  0  0  0  0  0  0  0
   39.6010   32.4390   40.7910 C   0  0  0  0  0  0  0  0  0  0  0  0
   38.8310   33.5050   40.3690 C   0  0  0  0  0  0  0  0  0  0  0  0
   39.4210   34.7070   40.1140 C   0  0  0  0  0  0  0  0  0  0  0  0
   37.5390   33.0190   40.3210 O   0  0  0  0  0  0  0  0  0  0  0  0
   37.5100   31.6630   40.7110 C   0  0  2  0  0  0  0  0  0  0  0  0
   38.8600   31.2860   40.9980 O   0  0  0  0  0  0  0  0  0  0  0  0
   41.0210   35.8580   40.0150 H   0  0  0  0  0  0  0  0  0  0  0  0
   41.5730   31.8470   41.2710 H   0  0  0  0  0  0  0  0  0  0  0  0
   38.7450   35.4530   39.7950 H   0  0  0  0  0  0  0  0  0  0  0  0
   36.9250   31.4810   41.6140 H   0  0  0  0  0  0  0  0  0  0  0  0
   35.9450   30.0230   39.8510 C   0  0  0  0  0  3  0  0  0  0  0  0
   36.9630   30.9170   39.5410 C   0  0  0  0  0  0  0  0  0  0  0  0
   37.4190   31.0850   38.2380 C   0  0  0  0  0  0  0  0  0  0  0  0
   38.2230   31.8080   38.0820 H   0  0  0  0  0  0  0  0  0  0  0  0
   36.8520   30.3470   37.2070 C   0  0  0  0  0  0  0  0  0  0  0  0
   37.1240   30.3410   35.8970 N   0  0  0  0  0  0  0  0  0  0  0  0
   36.2880   29.4460   35.3430 C   0  0  0  0  0  0  0  0  0  0  0  0
   36.2750   29.2210   34.2780 H   0  0  0  0  0  0  0  0  0  0  0  0
   35.5150   28.9170   36.3320 N   0  0  0  0  0  0  0  0  0  0  0  0
   35.8530   29.4700   37.5160 C   0  0  0  0  0  0  0  0  0  0  0  0
   35.3840   29.2880   38.8050 C   0  0  0  0  0  3  0  0  0  0  0  0
   37.8360   30.9020   35.3620 H   0  0  0  0  0  0  0  0  0  0  0  0
   45.2830   34.6390   40.5450 C   0  0  0  0  0  0  0  0  0  0  0  0
   44.0820   34.1210   40.0740 C   0  0  0  0  0  0  0  0  0  0  0  0
   42.9830   34.2010   40.8870 C   0  0  0  0  0  0  0  0  0  0  0  0
   43.1110   34.7830   42.1200 N   0  0  0  0  0  0  0  0  0  0  0  0
   44.2880   35.2770   42.5520 C   0  0  0  0  0  0  0  0  0  0  0  0
   45.3550   35.2050   41.7720 N   0  0  0  0  0  0  0  0  0  0  0  0
   46.1660   34.5890   39.9220 H   0  0  0  0  0  0  0  0  0  0  0  0
   44.4690   35.7480   43.5080 H   0  0  0  0  0  0  0  0  0  0  0  0
   44.0730   33.5310   38.8110 N   0  0  0  0  0  0  0  0  0  0  0  0
   44.8280   32.3770   38.5030 C   0  0  0  0  0  0  0  0  0  0  0  0
   44.5690   31.7930   37.1380 C   0  0  0  0  0  0  0  0  0  0  0  0
   43.2350   31.7960   36.7130 N   0  0  0  0  0  0  0  0  0  0  0  0
   42.4960   32.9360   37.0190 C   0  0  0  0  0  0  0  0  0  0  0  0
   43.3280   34.0050   37.6970 C   0  0  0  0  0  0  0  0  0  0  0  0
   45.9080   32.6420   38.5380 H   0  0  0  0  0  0  0  0  0  0  0  0
   44.7360   31.5640   39.2700 H   0  0  0  0  0  0  0  0  0  0  0  0
   45.2080   32.3200   36.3750 H   0  0  0  0  0  0  0  0  0  0  0  0
   44.9420   30.7460   37.1420 H   0  0  0  0  0  0  0  0  0  0  0  0
   43.1810   31.4150   35.7640 H   0  0  0  0  0  0  0  0  0  0  0  0
   42.1670   33.4140   36.0480 H   0  0  0  0  0  0  0  0  0  0  0  0
   41.5450   32.7910   37.5780 H   0  0  0  0  0  0  0  0  0  0  0  0
   42.7090   34.8830   37.9590 H   0  0  0  0  0  0  0  0  0  0  0  0
   44.0530   34.3530   36.9210 H   0  0  0  0  0  0  0  0  0  0  0  0
  1  2  1  0  0  0  0
  2 28  1  0  0  0  0
  2  3  2  0  0  0  0
  3 11  1  0  0  0  0
  4  3  1  0  0  0  0
  4  9  1  0  0  0  0
  5  4  2  0  0  0  0
  6  1  2  0  0  0  0
  6  5  1  0  0  0  0
  7  5  1  0  0  0  0
  7  8  1  0  0  0  0
  8  9  1  0  0  0  0
  8 13  1  1  0  0  0
 10  1  1  0  0  0  0
 12  6  1  0  0  0  0
 15 14  1  0  0  0  0
 15  8  1  0  0  0  0
 16 15  2  0  0  0  0
 17 16  1  0  0  0  0
 18 23  2  0  0  0  0
 18 16  1  0  0  0  0
 19 18  1  0  0  0  0
 20 19  1  0  0  0  0
 20 22  2  0  0  0  0
 21 20  1  0  0  0  0
 22 23  1  0  0  0  0
 23 24  1  0  0  0  0
 24 14  2  0  0  0  0
 25 19  1  0  0  0  0
 26 31  1  0  0  0  0
 27 26  2  0  0  0  0
 27 28  1  0  0  0  0
 28 29  2  0  0  0  0
 29 30  1  0  0  0  0
 30 33  1  0  0  0  0
 31 30  2  0  0  0  0
 32 26  1  0  0  0  0
 34 27  1  0  0  0  0
 35 40  1  0  0  0  0
 35 34  1  0  0  0  0
 35 41  1  0  0  0  0
 36 43  1  0  0  0  0
 36 35  1  0  0  0  0
 37 38  1  0  0  0  0
 37 36  1  0  0  0  0
 38 46  1  0  0  0  0
 38 39  1  0  0  0  0
 39 47  1  0  0  0  0
 39 34  1  0  0  0  0
 42 36  1  0  0  0  0
 44 37  1  0  0  0  0
 45 38  1  0  0  0  0
 48 39  1  0  0  0  0
M  END
>  <minimizedAffinity>
-7.30408812

$$$$

 OpenBabel03242523093D

 48 53  0  0  1  0  0  0  0  0999 V2000
   36.9410   26.9550   42.0220 C   0  0  0  0  0  0  0  0  0  0  0  0
   37.2040   26.5410   40.6980 C   0  0  0  0  0  0  0  0  0  0  0  0
   37.1810   27.6240   39.8380 C   0  0  0  0  0  0  0  0  0  0  0  0
   36.9400   28.9200   40.1780 C   0  0  0  0  0  0  0  0  0  0  0  0
   36.6870   29.2330   41.4990 C   0  0  0  0  0  0  0  0  0  0  0  0
   36.6860   28.2470   42.4400 C   0  0  0  0  0  0  0  0  0  0  0  0
   36.4740   30.5970   41.5110 O   0  0  0  0  0  0  0  0  0  0  0  0
   36.5950   31.1250   40.2090 C   0  0  2  0  0  0  0  0  0  0  0  0
   36.9160   30.0290   39.3470 O   0  0  0  0  0  0  0  0  0  0  0  0
   36.8980   26.3530   42.9560 H   0  0  0  0  0  0  0  0  0  0  0  0
   37.3720   27.3270   38.8570 H   0  0  0  0  0  0  0  0  0  0  0  0
   36.4850   28.5910   43.4170 H   0  0  0  0  0  0  0  0  0  0  0  0
   35.6730   31.5720   39.8310 H   0  0  0  0  0  0  0  0  0  0  0  0
   37.3590   33.3960   39.8390 C   0  0  0  0  0  3  0  0  0  0  0  0
   37.7030   32.1220   40.2750 C   0  0  0  0  0  0  0  0  0  0  0  0
   38.9810   31.8230   40.7320 C   0  0  0  0  0  0  0  0  0  0  0  0
   39.1670   30.7960   41.0560 H   0  0  0  0  0  0  0  0  0  0  0  0
   39.9540   32.8140   40.7600 C   0  0  0  0  0  0  0  0  0  0  0  0
   41.2320   32.7600   41.1520 N   0  0  0  0  0  0  0  0  0  0  0  0
   41.7320   33.9960   40.9760 C   0  0  0  0  0  0  0  0  0  0  0  0
   42.7620   34.2610   41.2110 H   0  0  0  0  0  0  0  0  0  0  0  0
   40.7440   34.7870   40.4760 N   0  0  0  0  0  0  0  0  0  0  0  0
   39.6130   34.0640   40.3310 C   0  0  0  0  0  0  0  0  0  0  0  0
   38.3470   34.3830   39.8730 C   0  0  0  0  0  3  0  0  0  0  0  0
   41.7790   31.9430   41.5280 H   0  0  0  0  0  0  0  0  0  0  0  0
   38.1750   22.9330   40.6840 C   0  0  0  0  0  0  0  0  0  0  0  0
   38.3280   24.2810   40.9860 C   0  0  0  0  0  0  0  0  0  0  0  0
   37.3520   25.1480   40.5690 C   0  0  0  0  0  0  0  0  0  0  0  0
   36.2780   24.6560   39.8780 N   0  0  0  0  0  0  0  0  0  0  0  0
   36.1550   23.3430   39.5990 C   0  0  0  0  0  0  0  0  0  0  0  0
   37.0920   22.4980   39.9990 N   0  0  0  0  0  0  0  0  0  0  0  0
   38.9300   22.2270   41.0020 H   0  0  0  0  0  0  0  0  0  0  0  0
   35.3410   22.8800   39.0600 H   0  0  0  0  0  0  0  0  0  0  0  0
   39.4740   24.6730   41.6750 N   0  0  0  0  0  0  0  0  0  0  0  0
   40.5920   25.2460   41.0300 C   0  0  0  0  0  0  0  0  0  0  0  0
   41.6700   25.7510   41.9540 C   0  0  0  0  0  0  0  0  0  0  0  0
   41.2280   26.3900   43.1190 N   0  0  0  0  0  0  0  0  0  0  0  0
   40.1260   25.8210   43.7520 C   0  0  0  0  0  0  0  0  0  0  0  0
   39.6630   24.5450   43.0780 C   0  0  0  0  0  0  0  0  0  0  0  0
   41.0620   24.4720   40.3840 H   0  0  0  0  0  0  0  0  0  0  0  0
   40.3240   26.0590   40.3060 H   0  0  0  0  0  0  0  0  0  0  0  0
   42.3590   24.9040   42.2290 H   0  0  0  0  0  0  0  0  0  0  0  0
   42.3070   26.4570   41.3780 H   0  0  0  0  0  0  0  0  0  0  0  0
   42.0370   26.6550   43.6880 H   0  0  0  0  0  0  0  0  0  0  0  0
   40.4430   25.4900   44.7850 H   0  0  0  0  0  0  0  0  0  0  0  0
   39.2510   26.4820   43.9420 H   0  0  0  0  0  0  0  0  0  0  0  0
   38.7670   24.1330   43.5790 H   0  0  0  0  0  0  0  0  0  0  0  0
   40.4840   23.8060   43.2480 H   0  0  0  0  0  0  0  0  0  0  0  0
  1  6  1  0  0  0  0
  1 10  1  0  0  0  0
  2  1  2  0  0  0  0
  3  4  2  0  0  0  0
  3  2  1  0  0  0  0
  4  5  1  0  0  0  0
  5  7  1  0  0  0  0
  5  6  2  0  0  0  0
  6 12  1  0  0  0  0
  8 13  1  6  0  0  0
  8 15  1  0  0  0  0
  8  7  1  0  0  0  0
  9  4  1  0  0  0  0
  9  8  1  0  0  0  0
 11  3  1  0  0  0  0
 14 24  2  0  0  0  0
 14 15  1  0  0  0  0
 15 16  2  0  0  0  0
 16 18  1  0  0  0  0
 16 17  1  0  0  0  0
 18 19  1  0  0  0  0
 19 25  1  0  0  0  0
 20 19  1  0  0  0  0
 20 21  1  0  0  0  0
 22 20  2  0  0  0  0
 23 22  1  0  0  0  0
 23 18  2  0  0  0  0
 24 23  1  0  0  0  0
 26 27  1  0  0  0  0
 26 32  1  0  0  0  0
 27 34  1  0  0  0  0
 28  2  1  0  0  0  0
 28 27  2  0  0  0  0
 29 28  1  0  0  0  0
 30 29  2  0  0  0  0
 30 31  1  0  0  0  0
 31 26  2  0  0  0  0
 33 30  1  0  0  0  0
 34 39  1  0  0  0  0
 35 34  1  0  0  0  0
 35 36  1  0  0  0  0
 36 42  1  0  0  0  0
 36 37  1  0  0  0  0
 37 44  1  0  0  0  0
 37 38  1  0  0  0  0
 38 46  1  0  0  0  0
 38 45  1  0  0  0  0
 39 48  1  0  0  0  0
 39 47  1  0  0  0  0
 39 38  1  0  0  0  0
 40 35  1  0  0  0  0
 41 35  1  0  0  0  0
 43 36  1  0  0  0  0
M  END
>  <minimizedAffinity>
-7.20529032

$$$$

 OpenBabel03242523093D

 48 53  0  0  1  0  0  0  0  0999 V2000
   37.5640   31.6030   40.6600 C   0  0  0  0  0  0  0  0  0  0  0  0
   38.9430   31.7220   40.9330 C   0  0  0  0  0  0  0  0  0  0  0  0
   39.3780   30.6570   41.7020 C   0  0  0  0  0  0  0  0  0  0  0  0
   38.6160   29.6240   42.1550 C   0  0  0  0  0  0  0  0  0  0  0  0
   37.2710   29.5930   41.8420 C   0  0  0  0  0  0  0  0  0  0  0  0
   36.7290   30.5880   41.0850 C   0  0  0  0  0  0  0  0  0  0  0  0
   36.7870   28.4500   42.4470 O   0  0  0  0  0  0  0  0  0  0  0  0
   37.8240   27.7790   43.1290 C   0  0  2  0  0  0  0  0  0  0  0  0
   39.0170   28.5400   42.9200 O   0  0  0  0  0  0  0  0  0  0  0  0
   36.9010   32.2680   40.0640 H   0  0  0  0  0  0  0  0  0  0  0  0
   40.3960   30.7380   41.9120 H   0  0  0  0  0  0  0  0  0  0  0  0
   35.6970   30.4680   40.9010 H   0  0  0  0  0  0  0  0  0  0  0  0
   37.6680   27.7150   44.2080 H   0  0  0  0  0  0  0  0  0  0  0  0
   39.0190   25.6820   42.8950 C   0  0  0  0  0  3  0  0  0  0  0  0
   37.9120   26.4270   42.5050 C   0  0  0  0  0  0  0  0  0  0  0  0
   36.9760   25.9310   41.6040 C   0  0  0  0  0  0  0  0  0  0  0  0
   36.1360   26.5830   41.3520 H   0  0  0  0  0  0  0  0  0  0  0  0
   37.1360   24.6590   41.0710 C   0  0  0  0  0  0  0  0  0  0  0  0
   36.3760   23.9840   40.2010 N   0  0  0  0  0  0  0  0  0  0  0  0
   36.9780   22.7960   40.0170 C   0  0  0  0  0  0  0  0  0  0  0  0
   36.5870   22.0260   39.3550 H   0  0  0  0  0  0  0  0  0  0  0  0
   38.1040   22.7670   40.7830 N   0  0  0  0  0  0  0  0  0  0  0  0
   38.2240   23.9310   41.4560 C   0  0  0  0  0  0  0  0  0  0  0  0
   39.1680   24.4040   42.3510 C   0  0  0  0  0  3  0  0  0  0  0  0
   35.4820   24.2780   39.7300 H   0  0  0  0  0  0  0  0  0  0  0  0
   40.8710   34.4520   39.2620 C   0  0  0  0  0  0  0  0  0  0  0  0
   40.5450   33.1330   39.5560 C   0  0  0  0  0  0  0  0  0  0  0  0
   39.5130   32.9050   40.4270 C   0  0  0  0  0  0  0  0  0  0  0  0
   38.8510   33.9750   40.9680 N   0  0  0  0  0  0  0  0  0  0  0  0
   39.1890   35.2430   40.6650 C   0  0  0  0  0  0  0  0  0  0  0  0
   40.1840   35.4730   39.8240 N   0  0  0  0  0  0  0  0  0  0  0  0
   41.6810   34.6600   38.5760 H   0  0  0  0  0  0  0  0  0  0  0  0
   38.7180   36.1370   41.0490 H   0  0  0  0  0  0  0  0  0  0  0  0
   41.3010   32.1230   38.9650 N   0  0  0  0  0  0  0  0  0  0  0  0
   40.9210   31.4930   37.7580 C   0  0  0  0  0  0  0  0  0  0  0  0
   41.9400   30.5390   37.1900 C   0  0  0  0  0  0  0  0  0  0  0  0
   43.2780   30.9410   37.2880 N   0  0  0  0  0  0  0  0  0  0  0  0
   43.6470   31.5600   38.4800 C   0  0  0  0  0  0  0  0  0  0  0  0
   42.5160   31.6040   39.4880 C   0  0  0  0  0  0  0  0  0  0  0  0
   39.9980   30.9020   37.9440 H   0  0  0  0  0  0  0  0  0  0  0  0
   40.6100   32.2130   36.9560 H   0  0  0  0  0  0  0  0  0  0  0  0
   41.8160   29.5270   37.6670 H   0  0  0  0  0  0  0  0  0  0  0  0
   41.6930   30.3780   36.1190 H   0  0  0  0  0  0  0  0  0  0  0  0
   43.8810   30.2060   36.9100 H   0  0  0  0  0  0  0  0  0  0  0  0
   44.4390   30.9250   38.9780 H   0  0  0  0  0  0  0  0  0  0  0  0
   44.1210   32.5640   38.4070 H   0  0  0  0  0  0  0  0  0  0  0  0
   42.8260   32.1300   40.4100 H   0  0  0  0  0  0  0  0  0  0  0  0
   42.3380   30.5390   39.7800 H   0  0  0  0  0  0  0  0  0  0  0  0
  1  2  2  0  0  0  0
  1  6  1  0  0  0  0
  2  3  1  0  0  0  0
  3 11  1  0  0  0  0
  3  4  2  0  0  0  0
  4  9  1  0  0  0  0
  5  4  1  0  0  0  0
  5  7  1  0  0  0  0
  6  5  2  0  0  0  0
  7  8  1  0  0  0  0
  8 13  1  1  0  0  0
  9  8  1  0  0  0  0
 10  1  1  0  0  0  0
 12  6  1  0  0  0  0
 15 14  1  0  0  0  0
 15  8  1  0  0  0  0
 16 15  2  0  0  0  0
 17 16  1  0  0  0  0
 18 23  2  0  0  0  0
 18 16  1  0  0  0  0
 19 18  1  0  0  0  0
 20 19  1  0  0  0  0
 20 22  2  0  0  0  0
 21 20  1  0  0  0  0
 22 23  1  0  0  0  0
 23 24  1  0  0  0  0
 24 14  2  0  0  0  0
 25 19  1  0  0  0  0
 26 27  2  0  0  0  0
 26 31  1  0  0  0  0
 27 28  1  0  0  0  0
 28  2  1  0  0  0  0
 28 29  2  0  0  0  0
 30 29  1  0  0  0  0
 30 33  1  0  0  0  0
 31 30  2  0  0  0  0
 32 26  1  0  0  0  0
 34 39  1  0  0  0  0
 34 27  1  0  0  0  0
 35 40  1  0  0  0  0
 35 34  1  0  0  0  0
 36 37  1  0  0  0  0
 36 42  1  0  0  0  0
 36 35  1  0  0  0  0
 37 38  1  0  0  0  0
 38 45  1  0  0  0  0
 38 39  1  0  0  0  0
 39 48  1  0  0  0  0
 39 47  1  0  0  0  0
 41 35  1  0  0  0  0
 43 36  1  0  0  0  0
 44 37  1  0  0  0  0
 46 38  1  0  0  0  0
M  END
>  <minimizedAffinity>
-7.19793129

$$$$

 OpenBabel03242523093D

 48 53  0  0  1  0  0  0  0  0999 V2000
   37.3420   31.7850   40.4780 C   0  0  0  0  0  0  0  0  0  0  0  0
   38.6820   31.7290   40.9180 C   0  0  0  0  0  0  0  0  0  0  0  0
   38.9370   30.5220   41.5440 C   0  0  0  0  0  0  0  0  0  0  0  0
   38.0490   29.5080   41.7340 C   0  0  0  0  0  0  0  0  0  0  0  0
   36.7540   29.6530   41.2740 C   0  0  0  0  0  0  0  0  0  0  0  0
   36.3870   30.8000   40.6370 C   0  0  0  0  0  0  0  0  0  0  0  0
   36.1150   28.4800   41.6260 O   0  0  0  0  0  0  0  0  0  0  0  0
   37.0060   27.6170   42.2980 C   0  0  2  0  0  0  0  0  0  0  0  0
   38.2700   28.2860   42.3490 O   0  0  0  0  0  0  0  0  0  0  0  0
   36.8100   32.5940   39.9310 H   0  0  0  0  0  0  0  0  0  0  0  0
   39.9250   30.4730   41.8740 H   0  0  0  0  0  0  0  0  0  0  0  0
   35.3790   30.8080   40.3230 H   0  0  0  0  0  0  0  0  0  0  0  0
   36.7140   27.4020   43.3270 H   0  0  0  0  0  0  0  0  0  0  0  0
   36.5640   26.5130   40.1850 C   0  0  0  0  0  3  0  0  0  0  0  0
   37.0680   26.3760   41.4730 C   0  0  0  0  0  0  0  0  0  0  0  0
   37.5840   25.1700   41.9340 C   0  0  0  0  0  0  0  0  0  0  0  0
   37.9600   25.1490   42.9600 H   0  0  0  0  0  0  0  0  0  0  0  0
   37.6030   24.0620   41.0960 C   0  0  0  0  0  0  0  0  0  0  0  0
   38.0440   22.8180   41.3180 N   0  0  0  0  0  0  0  0  0  0  0  0
   37.8310   22.1350   40.1800 C   0  0  0  0  0  0  0  0  0  0  0  0
   38.0910   21.0850   40.0580 H   0  0  0  0  0  0  0  0  0  0  0  0
   37.2600   22.9790   39.2770 N   0  0  0  0  0  0  0  0  0  0  0  0
   37.1070   24.2000   39.8330 C   0  0  0  0  0  0  0  0  0  0  0  0
   36.5900   25.3910   39.3540 C   0  0  0  0  0  3  0  0  0  0  0  0
   38.4750   22.4100   42.1870 H   0  0  0  0  0  0  0  0  0  0  0  0
   41.1250   34.5030   40.3710 C   0  0  0  0  0  0  0  0  0  0  0  0
   40.7380   33.1930   40.6260 C   0  0  0  0  0  0  0  0  0  0  0  0
   39.3970   32.9170   40.6790 C   0  0  0  0  0  0  0  0  0  0  0  0
   38.5020   33.9340   40.4810 N   0  0  0  0  0  0  0  0  0  0  0  0
   38.9050   35.1960   40.2350 C   0  0  0  0  0  0  0  0  0  0  0  0
   40.1990   35.4710   40.1810 N   0  0  0  0  0  0  0  0  0  0  0  0
   42.1780   34.7470   40.3220 H   0  0  0  0  0  0  0  0  0  0  0  0
   38.2640   36.0490   40.0700 H   0  0  0  0  0  0  0  0  0  0  0  0
   41.7360   32.2430   40.8340 N   0  0  0  0  0  0  0  0  0  0  0  0
   42.2360   31.4230   39.7980 C   0  0  0  0  0  0  0  0  0  0  0  0
   43.4190   30.5700   40.1760 C   0  0  0  0  0  0  0  0  0  0  0  0
   44.3710   31.1750   41.0060 N   0  0  0  0  0  0  0  0  0  0  0  0
   43.8730   31.9810   42.0260 C   0  0  0  0  0  0  0  0  0  0  0  0
   42.3590   31.9770   42.0840 C   0  0  0  0  0  0  0  0  0  0  0  0
   41.4290   30.7280   39.4780 H   0  0  0  0  0  0  0  0  0  0  0  0
   42.4790   31.9860   38.8590 H   0  0  0  0  0  0  0  0  0  0  0  0
   43.0590   29.6150   40.6530 H   0  0  0  0  0  0  0  0  0  0  0  0
   43.9170   30.2460   39.2370 H   0  0  0  0  0  0  0  0  0  0  0  0
   45.1050   30.4980   41.2300 H   0  0  0  0  0  0  0  0  0  0  0  0
   44.1900   31.5360   43.0150 H   0  0  0  0  0  0  0  0  0  0  0  0
   44.2460   33.0290   42.0760 H   0  0  0  0  0  0  0  0  0  0  0  0
   41.9900   32.6510   42.8800 H   0  0  0  0  0  0  0  0  0  0  0  0
   42.0770   30.9410   42.3950 H   0  0  0  0  0  0  0  0  0  0  0  0
  1  6  2  0  0  0  0
  1  2  1  0  0  0  0
  2  3  2  0  0  0  0
  3  4  1  0  0  0  0
  3 11  1  0  0  0  0
  4  9  1  0  0  0  0
  5  7  1  0  0  0  0
  5  4  2  0  0  0  0
  6  5  1  0  0  0  0
  7  8  1  0  0  0  0
  8  9  1  0  0  0  0
  8 13  1  1  0  0  0
 10  1  1  0  0  0  0
 12  6  1  0  0  0  0
 14 15  1  0  0  0  0
 15 16  2  0  0  0  0
 15  8  1  0  0  0  0
 16 17  1  0  0  0  0
 18 19  1  0  0  0  0
 18 16  1  0  0  0  0
 19 25  1  0  0  0  0
 20 19  1  0  0  0  0
 21 20  1  0  0  0  0
 22 23  1  0  0  0  0
 22 20  2  0  0  0  0
 23 18  2  0  0  0  0
 24 23  1  0  0  0  0
 24 14  2  0  0  0  0
 26 27  1  0  0  0  0
 27 28  2  0  0  0  0
 27 34  1  0  0  0  0
 28  2  1  0  0  0  0
 29 28  1  0  0  0  0
 30 29  2  0  0  0  0
 31 30  1  0  0  0  0
 31 26  2  0  0  0  0
 32 26  1  0  0  0  0
 33 30  1  0  0  0  0
 34 39  1  0  0  0  0
 35 36  1  0  0  0  0
 35 34  1  0  0  0  0
 36 42  1  0  0  0  0
 36 37  1  0  0  0  0
 37 44  1  0  0  0  0
 37 38  1  0  0  0  0
 38 46  1  0  0  0  0
 38 39  1  0  0  0  0
 38 45  1  0  0  0  0
 39 48  1  0  0  0  0
 39 47  1  0  0  0  0
 40 35  1  0  0  0  0
 41 35  1  0  0  0  0
 43 36  1  0  0  0  0
M  END
>  <minimizedAffinity>
-7.16129684

$$$$

 OpenBabel03242523093D

 48 53  0  0  1  0  0  0  0  0999 V2000
   37.3740   31.8810   40.0840 C   0  0  0  0  0  0  0  0  0  0  0  0
   37.9300   30.9290   39.2030 C   0  0  0  0  0  0  0  0  0  0  0  0
   39.1330   31.3850   38.6940 C   0  0  0  0  0  0  0  0  0  0  0  0
   39.7290   32.5760   38.9750 C   0  0  0  0  0  0  0  0  0  0  0  0
   39.1080   33.4500   39.8460 C   0  0  0  0  0  0  0  0  0  0  0  0
   37.9180   33.1070   40.4140 C   0  0  0  0  0  0  0  0  0  0  0  0
   39.9430   34.5480   39.9090 O   0  0  0  0  0  0  0  0  0  0  0  0
   41.0700   34.3570   39.0830 C   0  0  2  0  0  0  0  0  0  0  0  0
   40.9330   33.0620   38.4900 O   0  0  0  0  0  0  0  0  0  0  0  0
   36.4320   31.8340   40.6730 H   0  0  0  0  0  0  0  0  0  0  0  0
   39.5500   30.6890   38.0390 H   0  0  0  0  0  0  0  0  0  0  0  0
   37.5310   33.8410   41.0670 H   0  0  0  0  0  0  0  0  0  0  0  0
   41.1410   35.0790   38.2670 H   0  0  0  0  0  0  0  0  0  0  0  0
   43.4230   33.9030   39.4520 C   0  0  0  0  0  3  0  0  0  0  0  0
   42.2540   34.4310   39.9870 C   0  0  0  0  0  0  0  0  0  0  0  0
   42.2140   34.9770   41.2650 C   0  0  0  0  0  0  0  0  0  0  0  0
   41.2540   35.3700   41.6090 H   0  0  0  0  0  0  0  0  0  0  0  0
   43.3660   35.0050   42.0400 C   0  0  0  0  0  0  0  0  0  0  0  0
   43.5640   35.4740   43.2780 N   0  0  0  0  0  0  0  0  0  0  0  0
   44.8600   35.2570   43.5600 C   0  0  0  0  0  0  0  0  0  0  0  0
   45.3190   35.5350   44.5070 H   0  0  0  0  0  0  0  0  0  0  0  0
   45.4350   34.6550   42.4820 N   0  0  0  0  0  0  0  0  0  0  0  0
   44.5120   34.4860   41.5110 C   0  0  0  0  0  0  0  0  0  0  0  0
   44.5730   33.9380   40.2430 C   0  0  0  0  0  3  0  0  0  0  0  0
   42.8780   35.9270   43.9360 H   0  0  0  0  0  0  0  0  0  0  0  0
   36.0570   27.6960   39.2230 C   0  0  0  0  0  0  0  0  0  0  0  0
   36.9760   28.6270   39.6940 C   0  0  0  0  0  0  0  0  0  0  0  0
   37.1080   29.8040   39.0060 C   0  0  0  0  0  0  0  0  0  0  0  0
   36.3390   30.0130   37.8930 N   0  0  0  0  0  0  0  0  0  0  0  0
   35.4570   29.0920   37.4580 C   0  0  0  0  0  0  0  0  0  0  0  0
   35.3210   27.9530   38.1180 N   0  0  0  0  0  0  0  0  0  0  0  0
   35.9320   26.7590   39.7490 H   0  0  0  0  0  0  0  0  0  0  0  0
   34.8170   29.1820   36.5920 H   0  0  0  0  0  0  0  0  0  0  0  0
   37.7210   28.2990   40.8250 N   0  0  0  0  0  0  0  0  0  0  0  0
   38.9970   27.6970   40.7480 C   0  0  0  0  0  0  0  0  0  0  0  0
   39.7180   27.5620   42.0650 C   0  0  0  0  0  0  0  0  0  0  0  0
   39.5910   28.6430   42.9460 N   0  0  0  0  0  0  0  0  0  0  0  0
   38.3310   29.2320   43.0180 C   0  0  0  0  0  0  0  0  0  0  0  0
   37.3040   28.5150   42.1660 C   0  0  0  0  0  0  0  0  0  0  0  0
   38.8790   26.6690   40.3410 H   0  0  0  0  0  0  0  0  0  0  0  0
   39.6810   28.1900   40.0080 H   0  0  0  0  0  0  0  0  0  0  0  0
   39.3880   26.6170   42.5800 H   0  0  0  0  0  0  0  0  0  0  0  0
   40.7960   27.4030   41.8460 H   0  0  0  0  0  0  0  0  0  0  0  0
   40.0840   28.4290   43.8180 H   0  0  0  0  0  0  0  0  0  0  0  0
   37.9470   29.1140   44.0750 H   0  0  0  0  0  0  0  0  0  0  0  0
   38.2700   30.3280   42.8350 H   0  0  0  0  0  0  0  0  0  0  0  0
   36.3230   29.0230   42.2150 H   0  0  0  0  0  0  0  0  0  0  0  0
   37.1640   27.5160   42.6480 H   0  0  0  0  0  0  0  0  0  0  0  0
  1  6  1  0  0  0  0
  1 10  1  0  0  0  0
  2  1  2  0  0  0  0
  3  4  2  0  0  0  0
  3  2  1  0  0  0  0
  4  5  1  0  0  0  0
  5  7  1  0  0  0  0
  5  6  2  0  0  0  0
  6 12  1  0  0  0  0
  8 13  1  6  0  0  0
  8  7  1  0  0  0  0
  8 15  1  0  0  0  0
  9  4  1  0  0  0  0
  9  8  1  0  0  0  0
 11  3  1  0  0  0  0
 14 15  2  0  0  0  0
 14 24  1  0  0  0  0
 15 16  1  0  0  0  0
 16 17  1  0  0  0  0
 16 18  2  0  0  0  0
 18 19  1  0  0  0  0
 19 20  1  0  0  0  0
 19 25  1  0  0  0  0
 20 21  1  0  0  0  0
 22 20  2  0  0  0  0
 23 18  1  0  0  0  0
 23 22  1  0  0  0  0
 24 23  2  0  0  0  0
 26 27  1  0  0  0  0
 26 32  1  0  0  0  0
 27 34  1  0  0  0  0
 28  2  1  0  0  0  0
 28 27  2  0  0  0  0
 29 28  1  0  0  0  0
 30 29  2  0  0  0  0
 30 31  1  0  0  0  0
 31 26  2  0  0  0  0
 33 30  1  0  0  0  0
 34 39  1  0  0  0  0
 35 34  1  0  0  0  0
 35 36  1  0  0  0  0
 36 42  1  0  0  0  0
 36 37  1  0  0  0  0
 37 38  1  0  0  0  0
 37 44  1  0  0  0  0
 38 45  1  0  0  0  0
 39 47  1  0  0  0  0
 39 48  1  0  0  0  0
 39 38  1  0  0  0  0
 40 35  1  0  0  0  0
 41 35  1  0  0  0  0
 43 36  1  0  0  0  0
 46 38  1  0  0  0  0
M  END
>  <minimizedAffinity>
-6.88747883

$$$$

 OpenBabel03242523093D

 48 53  0  0  1  0  0  0  0  0999 V2000
   39.3050   30.5010   42.6340 C   0  0  0  0  0  0  0  0  0  0  0  0
   40.5700   30.3400   42.0300 C   0  0  0  0  0  0  0  0  0  0  0  0
   40.9170   29.0020   41.9830 C   0  0  0  0  0  0  0  0  0  0  0  0
   40.1740   27.9580   42.4450 C   0  0  0  0  0  0  0  0  0  0  0  0
   38.9480   28.2110   43.0270 C   0  0  0  0  0  0  0  0  0  0  0  0
   38.4980   29.4940   43.1260 C   0  0  0  0  0  0  0  0  0  0  0  0
   38.4620   26.9720   43.3950 O   0  0  0  0  0  0  0  0  0  0  0  0
   39.3800   25.9610   43.0430 C   0  0  2  0  0  0  0  0  0  0  0  0
   40.4860   26.6080   42.4080 O   0  0  0  0  0  0  0  0  0  0  0  0
   38.7220   31.4310   42.8180 H   0  0  0  0  0  0  0  0  0  0  0  0
   41.8520   28.8730   41.5400 H   0  0  0  0  0  0  0  0  0  0  0  0
   37.5500   29.5780   43.5840 H   0  0  0  0  0  0  0  0  0  0  0  0
   39.7760   25.4130   43.9000 H   0  0  0  0  0  0  0  0  0  0  0  0
   37.2680   25.0900   42.2320 C   0  0  0  0  0  3  0  0  0  0  0  0
   38.6510   25.0600   42.1040 C   0  0  0  0  0  0  0  0  0  0  0  0
   39.2830   24.2470   41.1690 C   0  0  0  0  0  0  0  0  0  0  0  0
   40.3750   24.2840   41.1360 H   0  0  0  0  0  0  0  0  0  0  0  0
   38.5250   23.4380   40.3330 C   0  0  0  0  0  0  0  0  0  0  0  0
   38.9080   22.5870   39.3730 N   0  0  0  0  0  0  0  0  0  0  0  0
   37.7800   22.0570   38.8690 C   0  0  0  0  0  0  0  0  0  0  0  0
   37.7750   21.3240   38.0640 H   0  0  0  0  0  0  0  0  0  0  0  0
   36.7220   22.5970   39.5330 N   0  0  0  0  0  0  0  0  0  0  0  0
   37.1670   23.4710   40.4610 C   0  0  0  0  0  0  0  0  0  0  0  0
   36.5180   24.2720   41.3840 C   0  0  0  0  0  3  0  0  0  0  0  0
   39.8790   22.3470   39.0450 H   0  0  0  0  0  0  0  0  0  0  0  0
   41.7010   33.6470   40.7070 C   0  0  0  0  0  0  0  0  0  0  0  0
   40.8550   32.5490   40.8080 C   0  0  0  0  0  0  0  0  0  0  0  0
   41.1870   31.5590   41.6950 C   0  0  0  0  0  0  0  0  0  0  0  0
   42.3300   31.6900   42.4380 N   0  0  0  0  0  0  0  0  0  0  0  0
   43.1330   32.7650   42.3200 C   0  0  0  0  0  0  0  0  0  0  0  0
   42.8190   33.7270   41.4670 N   0  0  0  0  0  0  0  0  0  0  0  0
   41.4610   34.4430   40.0160 H   0  0  0  0  0  0  0  0  0  0  0  0
   44.0470   32.9410   42.8680 H   0  0  0  0  0  0  0  0  0  0  0  0
   39.7300   32.5100   39.9860 N   0  0  0  0  0  0  0  0  0  0  0  0
   39.7050   31.8080   38.7600 C   0  0  0  0  0  0  0  0  0  0  0  0
   38.3580   31.7470   38.0880 C   0  0  0  0  0  0  0  0  0  0  0  0
   37.2590   31.5600   38.9350 N   0  0  0  0  0  0  0  0  0  0  0  0
   37.2870   32.2550   40.1420 C   0  0  0  0  0  0  0  0  0  0  0  0
   38.4970   33.1600   40.2630 C   0  0  0  0  0  0  0  0  0  0  0  0
   40.3950   32.3140   38.0500 H   0  0  0  0  0  0  0  0  0  0  0  0
   40.1240   30.7700   38.8300 H   0  0  0  0  0  0  0  0  0  0  0  0
   38.2020   32.6760   37.4710 H   0  0  0  0  0  0  0  0  0  0  0  0
   38.3850   30.9180   37.3490 H   0  0  0  0  0  0  0  0  0  0  0  0
   36.3980   31.5740   38.3810 H   0  0  0  0  0  0  0  0  0  0  0  0
   36.4070   32.9640   40.1620 H   0  0  0  0  0  0  0  0  0  0  0  0
   37.1700   31.6610   41.0750 H   0  0  0  0  0  0  0  0  0  0  0  0
   38.5120   33.6730   41.2430 H   0  0  0  0  0  0  0  0  0  0  0  0
   38.3480   33.9580   39.4950 H   0  0  0  0  0  0  0  0  0  0  0  0
  1 10  1  0  0  0  0
  1  6  1  0  0  0  0
  2  1  2  0  0  0  0
  3  2  1  0  0  0  0
  3  4  2  0  0  0  0
  4  5  1  0  0  0  0
  5  6  2  0  0  0  0
  5  7  1  0  0  0  0
  6 12  1  0  0  0  0
  8  7  1  0  0  0  0
  8 13  1  1  0  0  0
  9  4  1  0  0  0  0
  9  8  1  0  0  0  0
 11  3  1  0  0  0  0
 15 14  1  0  0  0  0
 15  8  1  0  0  0  0
 16 15  2  0  0  0  0
 17 16  1  0  0  0  0
 18 23  2  0  0  0  0
 18 16  1  0  0  0  0
 19 18  1  0  0  0  0
 20 19  1  0  0  0  0
 20 22  2  0  0  0  0
 21 20  1  0  0  0  0
 22 23  1  0  0  0  0
 23 24  1  0  0  0  0
 24 14  2  0  0  0  0
 25 19  1  0  0  0  0
 26 27  2  0  0  0  0
 26 31  1  0  0  0  0
 27 28  1  0  0  0  0
 28  2  1  0  0  0  0
 28 29  2  0  0  0  0
 30 29  1  0  0  0  0
 30 33  1  0  0  0  0
 31 30  2  0  0  0  0
 32 26  1  0  0  0  0
 34 39  1  0  0  0  0
 34 27  1  0  0  0  0
 35 41  1  0  0  0  0
 35 34  1  0  0  0  0
 36 35  1  0  0  0  0
 36 37  1  0  0  0  0
 37 38  1  0  0  0  0
 38 45  1  0  0  0  0
 38 39  1  0  0  0  0
 38 46  1  0  0  0  0
 39 47  1  0  0  0  0
 40 35  1  0  0  0  0
 42 36  1  0  0  0  0
 43 36  1  0  0  0  0
 44 37  1  0  0  0  0
 48 39  1  0  0  0  0
M  END
>  <minimizedAffinity>
-6.72113848

$$$$

 OpenBabel03242523093D

 48 53  0  0  1  0  0  0  0  0999 V2000
   35.9050   28.8670   40.4080 C   0  0  0  0  0  0  0  0  0  0  0  0
   36.2430   28.5750   39.0700 C   0  0  0  0  0  0  0  0  0  0  0  0
   36.7410   29.7010   38.4390 C   0  0  0  0  0  0  0  0  0  0  0  0
   36.8960   30.9350   38.9930 C   0  0  0  0  0  0  0  0  0  0  0  0
   36.5330   31.1300   40.3120 C   0  0  0  0  0  0  0  0  0  0  0  0
   36.0320   30.0910   41.0370 C   0  0  0  0  0  0  0  0  0  0  0  0
   36.7960   32.4620   40.5630 O   0  0  0  0  0  0  0  0  0  0  0  0
   37.3160   33.0860   39.4100 C   0  0  2  0  0  0  0  0  0  0  0  0
   37.3960   32.0810   38.3960 O   0  0  0  0  0  0  0  0  0  0  0  0
   35.4960   28.1980   41.1970 H   0  0  0  0  0  0  0  0  0  0  0  0
   36.9900   29.4950   37.4480 H   0  0  0  0  0  0  0  0  0  0  0  0
   35.7900   30.3440   42.0320 H   0  0  0  0  0  0  0  0  0  0  0  0
   36.6830   33.8860   39.0220 H   0  0  0  0  0  0  0  0  0  0  0  0
   38.6940   34.9290   40.1770 C   0  0  0  0  0  3  0  0  0  0  0  0
   38.6660   33.5920   39.7970 C   0  0  0  0  0  0  0  0  0  0  0  0
   39.8140   32.8090   39.7850 C   0  0  0  0  0  0  0  0  0  0  0  0
   39.7030   31.7680   39.4730 H   0  0  0  0  0  0  0  0  0  0  0  0
   41.0310   33.3630   40.1610 C   0  0  0  0  0  0  0  0  0  0  0  0
   42.2490   32.8110   40.2270 N   0  0  0  0  0  0  0  0  0  0  0  0
   43.0790   33.7800   40.6500 C   0  0  0  0  0  0  0  0  0  0  0  0
   44.1460   33.6270   40.8000 H   0  0  0  0  0  0  0  0  0  0  0  0
   42.3490   34.9140   40.8360 N   0  0  0  0  0  0  0  0  0  0  0  0
   41.0550   34.6750   40.5340 C   0  0  0  0  0  0  0  0  0  0  0  0
   39.9240   35.4720   40.5530 C   0  0  0  0  0  3  0  0  0  0  0  0
   42.5460   31.8260   40.0040 H   0  0  0  0  0  0  0  0  0  0  0  0
   35.9020   24.8990   38.4920 C   0  0  0  0  0  0  0  0  0  0  0  0
   36.4340   26.0420   39.0780 C   0  0  0  0  0  0  0  0  0  0  0  0
   35.9320   27.2560   38.6910 C   0  0  0  0  0  0  0  0  0  0  0  0
   34.9360   27.2940   37.7520 N   0  0  0  0  0  0  0  0  0  0  0  0
   34.4390   26.1700   37.2000 C   0  0  0  0  0  0  0  0  0  0  0  0
   34.9170   24.9920   37.5690 N   0  0  0  0  0  0  0  0  0  0  0  0
   36.2800   23.9270   38.7810 H   0  0  0  0  0  0  0  0  0  0  0  0
   33.6570   26.1170   36.4560 H   0  0  0  0  0  0  0  0  0  0  0  0
   37.4610   25.8860   40.0060 N   0  0  0  0  0  0  0  0  0  0  0  0
   37.2230   25.5450   41.3560 C   0  0  0  0  0  0  0  0  0  0  0  0
   38.4600   25.2650   42.1700 C   0  0  0  0  0  0  0  0  0  0  0  0
   39.4750   24.5530   41.5180 N   0  0  0  0  0  0  0  0  0  0  0  0
   39.7060   24.8940   40.1870 C   0  0  0  0  0  0  0  0  0  0  0  0
   38.8450   26.0520   39.7250 C   0  0  0  0  0  0  0  0  0  0  0  0
   36.7020   26.3950   41.8480 H   0  0  0  0  0  0  0  0  0  0  0  0
   36.5040   24.6940   41.4830 H   0  0  0  0  0  0  0  0  0  0  0  0
   38.8770   26.2320   42.5680 H   0  0  0  0  0  0  0  0  0  0  0  0
   38.1500   24.6980   43.0740 H   0  0  0  0  0  0  0  0  0  0  0  0
   40.2770   24.4540   42.1460 H   0  0  0  0  0  0  0  0  0  0  0  0
   40.7640   25.2820   40.1010 H   0  0  0  0  0  0  0  0  0  0  0  0
   39.6640   24.0730   39.4370 H   0  0  0  0  0  0  0  0  0  0  0  0
   39.0240   26.2780   38.6570 H   0  0  0  0  0  0  0  0  0  0  0  0
   39.2080   26.9390   40.2990 H   0  0  0  0  0  0  0  0  0  0  0  0
  1  6  1  0  0  0  0
  1 10  1  0  0  0  0
  2  1  2  0  0  0  0
  3  4  2  0  0  0  0
  3  2  1  0  0  0  0
  4  5  1  0  0  0  0
  5  7  1  0  0  0  0
  5  6  2  0  0  0  0
  6 12  1  0  0  0  0
  8 13  1  6  0  0  0
  8 15  1  0  0  0  0
  8  7  1  0  0  0  0
  9  4  1  0  0  0  0
  9  8  1  0  0  0  0
 11  3  1  0  0  0  0
 14 24  1  0  0  0  0
 15 14  2  0  0  0  0
 16 15  1  0  0  0  0
 16 18  2  0  0  0  0
 17 16  1  0  0  0  0
 18 19  1  0  0  0  0
 18 23  1  0  0  0  0
 19 20  1  0  0  0  0
 20 21  1  0  0  0  0
 20 22  2  0  0  0  0
 23 24  2  0  0  0  0
 23 22  1  0  0  0  0
 25 19  1  0  0  0  0
 26 32  1  0  0  0  0
 26 27  1  0  0  0  0
 27 34  1  0  0  0  0
 28  2  1  0  0  0  0
 28 27  2  0  0  0  0
 29 28  1  0  0  0  0
 30 31  1  0  0  0  0
 30 29  2  0  0  0  0
 31 26  2  0  0  0  0
 33 30  1  0  0  0  0
 34 35  1  0  0  0  0
 35 41  1  0  0  0  0
 35 40  1  0  0  0  0
 35 36  1  0  0  0  0
 36 42  1  0  0  0  0
 36 43  1  0  0  0  0
 37 44  1  0  0  0  0
 37 36  1  0  0  0  0
 38 37  1  0  0  0  0
 39 34  1  0  0  0  0
 39 38  1  0  0  0  0
 39 48  1  0  0  0  0
 45 38  1  0  0  0  0
 46 38  1  0  0  0  0
 47 39  1  0  0  0  0
M  END
>  <minimizedAffinity>
-6.69362307

$$$$

 OpenBabel03242523093D

 48 53  0  0  1  0  0  0  0  0999 V2000
   36.7950   27.5570   41.5130 C   0  0  0  0  0  0  0  0  0  0  0  0
   37.5460   27.0300   40.4410 C   0  0  0  0  0  0  0  0  0  0  0  0
   37.8640   28.0260   39.5360 C   0  0  0  0  0  0  0  0  0  0  0  0
   37.5170   29.3400   39.6270 C   0  0  0  0  0  0  0  0  0  0  0  0
   36.7740   29.7660   40.7110 C   0  0  0  0  0  0  0  0  0  0  0  0
   36.4050   28.8730   41.6710 C   0  0  0  0  0  0  0  0  0  0  0  0
   36.5810   31.1180   40.5050 O   0  0  0  0  0  0  0  0  0  0  0  0
   37.1980   31.5250   39.3040 C   0  0  2  0  0  0  0  0  0  0  0  0
   37.8220   30.3650   38.7450 O   0  0  0  0  0  0  0  0  0  0  0  0
   36.3900   27.0440   42.4130 H   0  0  0  0  0  0  0  0  0  0  0  0
   38.4170   27.6450   38.7390 H   0  0  0  0  0  0  0  0  0  0  0  0
   35.8440   29.3000   42.4570 H   0  0  0  0  0  0  0  0  0  0  0  0
   36.4970   31.9040   38.5580 H   0  0  0  0  0  0  0  0  0  0  0  0
   37.6780   33.8380   39.8480 C   0  0  0  0  0  3  0  0  0  0  0  0
   38.2000   32.5600   39.6920 C   0  0  0  0  0  0  0  0  0  0  0  0
   39.5500   32.2910   39.8880 C   0  0  0  0  0  0  0  0  0  0  0  0
   39.8770   31.2580   39.7450 H   0  0  0  0  0  0  0  0  0  0  0  0
   40.4130   33.3160   40.2500 C   0  0  0  0  0  0  0  0  0  0  0  0
   41.7300   33.2940   40.4890 N   0  0  0  0  0  0  0  0  0  0  0  0
   42.0770   34.5550   40.8010 C   0  0  0  0  0  0  0  0  0  0  0  0
   43.0960   34.8500   41.0470 H   0  0  0  0  0  0  0  0  0  0  0  0
   40.9580   35.3300   40.7470 N   0  0  0  0  0  0  0  0  0  0  0  0
   39.8970   34.5700   40.4020 C   0  0  0  0  0  0  0  0  0  0  0  0
   38.5580   34.8600   40.2120 C   0  0  0  0  0  3  0  0  0  0  0  0
   42.4000   32.4830   40.4520 H   0  0  0  0  0  0  0  0  0  0  0  0
   38.6660   23.4780   40.7510 C   0  0  0  0  0  0  0  0  0  0  0  0
   38.8290   24.8590   40.7480 C   0  0  0  0  0  0  0  0  0  0  0  0
   37.7250   25.6360   40.5180 C   0  0  0  0  0  0  0  0  0  0  0  0
   36.5180   25.0280   40.3020 N   0  0  0  0  0  0  0  0  0  0  0  0
   36.3890   23.6870   40.3100 C   0  0  0  0  0  0  0  0  0  0  0  0
   37.4500   22.9280   40.5330 N   0  0  0  0  0  0  0  0  0  0  0  0
   39.5220   22.8420   40.9320 H   0  0  0  0  0  0  0  0  0  0  0  0
   35.4750   23.1330   40.1480 H   0  0  0  0  0  0  0  0  0  0  0  0
   40.1090   25.3690   40.9570 N   0  0  0  0  0  0  0  0  0  0  0  0
   40.6060   25.6780   42.2430 C   0  0  0  0  0  0  0  0  0  0  0  0
   42.0610   26.0670   42.2870 C   0  0  0  0  0  0  0  0  0  0  0  0
   42.9150   25.3410   41.4480 N   0  0  0  0  0  0  0  0  0  0  0  0
   42.4210   25.0390   40.1810 C   0  0  0  0  0  0  0  0  0  0  0  0
   41.0540   25.6430   39.9310 C   0  0  0  0  0  0  0  0  0  0  0  0
   40.0320   26.5410   42.6450 H   0  0  0  0  0  0  0  0  0  0  0  0
   40.4220   24.8710   43.0000 H   0  0  0  0  0  0  0  0  0  0  0  0
   42.1640   27.1660   42.0670 H   0  0  0  0  0  0  0  0  0  0  0  0
   42.4100   25.9550   43.3360 H   0  0  0  0  0  0  0  0  0  0  0  0
   43.8660   25.7120   41.5280 H   0  0  0  0  0  0  0  0  0  0  0  0
   43.0880   25.5350   39.4140 H   0  0  0  0  0  0  0  0  0  0  0  0
   42.4190   23.9690   39.8760 H   0  0  0  0  0  0  0  0  0  0  0  0
   40.6710   25.3600   38.9320 H   0  0  0  0  0  0  0  0  0  0  0  0
   41.2180   26.7480   39.9010 H   0  0  0  0  0  0  0  0  0  0  0  0
  1  6  1  0  0  0  0
  1 10  1  0  0  0  0
  2 28  1  0  0  0  0
  2  1  2  0  0  0  0
  3  4  2  0  0  0  0
  3  2  1  0  0  0  0
  4  5  1  0  0  0  0
  5  6  2  0  0  0  0
  6 12  1  0  0  0  0
  7  5  1  0  0  0  0
  8 13  1  6  0  0  0
  8 15  1  0  0  0  0
  8  7  1  0  0  0  0
  9  8  1  0  0  0  0
  9  4  1  0  0  0  0
 11  3  1  0  0  0  0
 14 24  1  0  0  0  0
 15 14  2  0  0  0  0
 15 16  1  0  0  0  0
 16 18  2  0  0  0  0
 17 16  1  0  0  0  0
 18 23  1  0  0  0  0
 18 19  1  0  0  0  0
 19 20  1  0  0  0  0
 20 21  1  0  0  0  0
 22 20  2  0  0  0  0
 23 22  1  0  0  0  0
 24 23  2  0  0  0  0
 25 19  1  0  0  0  0
 26 32  1  0  0  0  0
 27 26  1  0  0  0  0
 27 34  1  0  0  0  0
 28 27  2  0  0  0  0
 29 30  2  0  0  0  0
 29 28  1  0  0  0  0
 30 31  1  0  0  0  0
 31 26  2  0  0  0  0
 33 30  1  0  0  0  0
 34 35  1  0  0  0  0
 35 36  1  0  0  0  0
 35 40  1  0  0  0  0
 35 41  1  0  0  0  0
 36 43  1  0  0  0  0
 37 44  1  0  0  0  0
 37 36  1  0  0  0  0
 38 37  1  0  0  0  0
 39 38  1  0  0  0  0
 39 34  1  0  0  0  0
 42 36  1  0  0  0  0
 45 38  1  0  0  0  0
 46 38  1  0  0  0  0
 47 39  1  0  0  0  0
 48 39  1  0  0  0  0
M  END
>  <minimizedAffinity>
-6.56754541

$$$$

 OpenBabel03242523093D

 48 53  0  0  1  0  0  0  0  0999 V2000
   40.2470   32.1890   41.1380 C   0  0  0  0  0  0  0  0  0  0  0  0
   41.5160   31.6730   41.4740 C   0  0  0  0  0  0  0  0  0  0  0  0
   41.3890   30.4500   42.1090 C   0  0  0  0  0  0  0  0  0  0  0  0
   40.2240   29.8050   42.3930 C   0  0  0  0  0  0  0  0  0  0  0  0
   39.0260   30.3900   42.0310 C   0  0  0  0  0  0  0  0  0  0  0  0
   39.0260   31.5950   41.3950 C   0  0  0  0  0  0  0  0  0  0  0  0
   38.0520   29.5110   42.4610 O   0  0  0  0  0  0  0  0  0  0  0  0
   38.6420   28.3910   43.0830 C   0  0  2  0  0  0  0  0  0  0  0  0
   40.0590   28.5800   43.0200 O   0  0  0  0  0  0  0  0  0  0  0  0
   39.9840   33.1340   40.6130 H   0  0  0  0  0  0  0  0  0  0  0  0
   42.3220   30.0620   42.3640 H   0  0  0  0  0  0  0  0  0  0  0  0
   38.0610   31.9530   41.1600 H   0  0  0  0  0  0  0  0  0  0  0  0
   38.3780   28.2870   44.1380 H   0  0  0  0  0  0  0  0  0  0  0  0
   37.2980   27.4950   41.2750 C   0  0  0  0  0  3  0  0  0  0  0  0
   38.2050   27.2070   42.2880 C   0  0  0  0  0  0  0  0  0  0  0  0
   38.6540   25.9120   42.5230 C   0  0  0  0  0  0  0  0  0  0  0  0
   39.3660   25.7730   43.3400 H   0  0  0  0  0  0  0  0  0  0  0  0
   38.1940   24.8670   41.7330 C   0  0  0  0  0  0  0  0  0  0  0  0
   38.4820   23.5610   41.7730 N   0  0  0  0  0  0  0  0  0  0  0  0
   37.7680   22.9880   40.7890 C   0  0  0  0  0  0  0  0  0  0  0  0
   37.7960   21.9200   40.5760 H   0  0  0  0  0  0  0  0  0  0  0  0
   37.0510   23.9600   40.1610 N   0  0  0  0  0  0  0  0  0  0  0  0
   37.3040   25.1540   40.7390 C   0  0  0  0  0  0  0  0  0  0  0  0
   36.8450   26.4340   40.4870 C   0  0  0  0  0  3  0  0  0  0  0  0
   39.1270   23.0410   42.4220 H   0  0  0  0  0  0  0  0  0  0  0  0
   44.1900   33.8130   39.9810 C   0  0  0  0  0  0  0  0  0  0  0  0
   43.1190   32.9270   39.9540 C   0  0  0  0  0  0  0  0  0  0  0  0
   42.5750   32.5410   41.1510 C   0  0  0  0  0  0  0  0  0  0  0  0
   43.1040   33.0370   42.3120 N   0  0  0  0  0  0  0  0  0  0  0  0
   44.1430   33.8950   42.3080 C   0  0  0  0  0  0  0  0  0  0  0  0
   44.6740   34.2750   41.1570 N   0  0  0  0  0  0  0  0  0  0  0  0
   44.6370   34.1360   39.0500 H   0  0  0  0  0  0  0  0  0  0  0  0
   44.6150   34.3290   43.1780 H   0  0  0  0  0  0  0  0  0  0  0  0
   42.6770   32.4690   38.7150 N   0  0  0  0  0  0  0  0  0  0  0  0
   43.1320   31.2600   38.1430 C   0  0  0  0  0  0  0  0  0  0  0  0
   42.4260   30.8500   36.8760 C   0  0  0  0  0  0  0  0  0  0  0  0
   41.0440   31.0710   36.8460 N   0  0  0  0  0  0  0  0  0  0  0  0
   40.6000   32.2640   37.4110 C   0  0  0  0  0  0  0  0  0  0  0  0
   41.7400   33.1430   37.8850 C   0  0  0  0  0  0  0  0  0  0  0  0
   44.2080   31.3740   37.8870 H   0  0  0  0  0  0  0  0  0  0  0  0
   43.1270   30.3960   38.8580 H   0  0  0  0  0  0  0  0  0  0  0  0
   42.9070   31.3590   35.9940 H   0  0  0  0  0  0  0  0  0  0  0  0
   42.6190   29.7670   36.7160 H   0  0  0  0  0  0  0  0  0  0  0  0
   40.6760   30.7940   35.9310 H   0  0  0  0  0  0  0  0  0  0  0  0
   40.0990   32.8730   36.6010 H   0  0  0  0  0  0  0  0  0  0  0  0
   39.8260   32.1940   38.2070 H   0  0  0  0  0  0  0  0  0  0  0  0
   41.3590   34.0660   38.3590 H   0  0  0  0  0  0  0  0  0  0  0  0
   42.2730   33.4640   36.9570 H   0  0  0  0  0  0  0  0  0  0  0  0
  1  6  2  0  0  0  0
  1  2  1  0  0  0  0
  2  3  2  0  0  0  0
  3 11  1  0  0  0  0
  3  4  1  0  0  0  0
  4  9  1  0  0  0  0
  5  4  2  0  0  0  0
  5  7  1  0  0  0  0
  6  5  1  0  0  0  0
  7  8  1  0  0  0  0
  8 13  1  1  0  0  0
  9  8  1  0  0  0  0
 10  1  1  0  0  0  0
 12  6  1  0  0  0  0
 14 15  1  0  0  0  0
 15 16  2  0  0  0  0
 15  8  1  0  0  0  0
 16 17  1  0  0  0  0
 18 19  1  0  0  0  0
 18 16  1  0  0  0  0
 19 25  1  0  0  0  0
 20 19  1  0  0  0  0
 21 20  1  0  0  0  0
 22 23  1  0  0  0  0
 22 20  2  0  0  0  0
 23 18  2  0  0  0  0
 24 23  1  0  0  0  0
 24 14  2  0  0  0  0
 26 31  1  0  0  0  0
 27 26  2  0  0  0  0
 27 28  1  0  0  0  0
 28  2  1  0  0  0  0
 28 29  2  0  0  0  0
 30 29  1  0  0  0  0
 30 33  1  0  0  0  0
 31 30  2  0  0  0  0
 32 26  1  0  0  0  0
 34 27  1  0  0  0  0
 35 34  1  0  0  0  0
 35 41  1  0  0  0  0
 36 35  1  0  0  0  0
 37 36  1  0  0  0  0
 37 38  1  0  0  0  0
 38 39  1  0  0  0  0
 38 46  1  0  0  0  0
 39 47  1  0  0  0  0
 39 34  1  0  0  0  0
 40 35  1  0  0  0  0
 42 36  1  0  0  0  0
 43 36  1  0  0  0  0
 44 37  1  0  0  0  0
 45 38  1  0  0  0  0
 48 39  1  0  0  0  0
M  END
>  <minimizedAffinity>
-6.56469536

$$$$
