
 OpenBabel03252505193D

 37 41  0  0  0  0  0  0  0  0999 V2000
   46.0750   32.7030   47.1000 C   0  0  0  0  0  0  0  0  0  0  0  0
   44.9600   32.3420   47.8280 C   0  0  0  0  0  0  0  0  0  0  0  0
   45.1020   31.5220   48.9380 C   0  0  0  0  0  0  0  0  0  0  0  0
   46.3880   31.0990   49.2660 C   0  0  0  0  0  0  0  0  0  0  0  0
   47.4690   31.4950   48.4960 C   0  0  0  0  0  0  0  0  0  0  0  0
   47.3230   32.2950   47.4140 N   0  0  0  0  0  0  0  0  0  0  0  0
   43.9710   32.6910   47.5440 H   0  0  0  0  0  0  0  0  0  0  0  0
   44.2600   31.2100   49.5420 H   0  0  0  0  0  0  0  0  0  0  0  0
   46.4910   30.4690   50.1180 H   0  0  0  0  0  0  0  0  0  0  0  0
   49.2410   29.8160   48.4050 C   0  0  0  0  0  0  0  0  0  0  0  0
   48.8210   31.0680   48.8150 C   0  0  0  0  0  0  0  0  0  0  0  0
   49.7430   31.8090   49.5030 C   0  0  0  0  0  0  0  0  0  0  0  0
   49.4710   32.7820   49.8430 H   0  0  0  0  0  0  0  0  0  0  0  0
   51.0130   31.3440   49.7750 C   0  0  0  0  0  0  0  0  0  0  0  0
   52.0680   31.8680   50.4140 N   0  0  0  0  0  0  0  0  0  0  0  0
   53.0900   30.9870   50.4010 C   0  0  0  0  0  0  0  0  0  0  0  0
   54.0310   31.2340   50.8710 H   0  0  0  0  0  0  0  0  0  0  0  0
   52.6730   29.8930   49.7450 N   0  0  0  0  0  0  0  0  0  0  0  0
   51.4000   30.1000   49.3540 C   0  0  0  0  0  0  0  0  0  0  0  0
   50.5100   29.2940   48.6500 C   0  0  0  0  0  0  0  0  0  0  0  0
   52.0360   32.8310   50.8400 H   0  0  0  0  0  0  0  0  0  0  0  0
   44.7820   35.2750   44.7930 C   0  0  0  0  0  0  0  0  0  0  0  0
   45.6080   35.1580   43.6610 C   0  0  0  0  0  0  0  0  0  0  0  0
   46.5870   34.1950   43.7380 C   0  0  0  0  0  0  0  0  0  0  0  0
   46.7200   33.4150   44.8600 N   0  0  0  0  0  0  0  0  0  0  0  0
   45.8920   33.5650   45.9360 C   0  0  0  0  0  0  0  0  0  0  0  0
   44.9330   34.4950   45.8870 N   0  0  0  0  0  0  0  0  0  0  0  0
   43.9940   36.0160   44.7910 H   0  0  0  0  0  0  0  0  0  0  0  0
   45.4770   35.7860   42.7960 H   0  0  0  0  0  0  0  0  0  0  0  0
   47.5120   33.9600   42.5780 C   0  0  0  0  0  0  0  0  0  0  0  0
   47.9720   35.2590   41.9120 C   0  0  0  0  0  0  0  0  0  0  0  0
   48.9070   34.2910   42.7050 C   0  0  0  0  0  0  0  0  0  0  0  0
   47.0430   33.2980   41.8050 H   0  0  0  0  0  0  0  0  0  0  0  0
   48.1360   35.3030   40.8350 H   0  0  0  0  0  0  0  0  0  0  0  0
   47.8110   36.2150   42.4310 H   0  0  0  0  0  0  0  0  0  0  0  0
   49.2890   34.6220   43.6690 H   0  0  0  0  0  0  0  0  0  0  0  0
   49.6390   33.7380   42.0590 H   0  0  0  0  0  0  0  0  0  0  0  0
  1  6  2  0  0  0  0
  1  2  1  0  0  0  0
  2  3  2  0  0  0  0
  3  4  1  0  0  0  0
  3  8  1  0  0  0  0
  4  9  1  0  0  0  0
  5 11  1  0  0  0  0
  5  4  2  0  0  0  0
  6  5  1  0  0  0  0
  7  2  1  0  0  0  0
 10 20  2  0  0  0  0
 10 11  1  0  0  0  0
 11 12  2  0  0  0  0
 12 14  1  0  0  0  0
 12 13  1  0  0  0  0
 14 15  1  0  0  0  0
 15 21  1  0  0  0  0
 16 15  1  0  0  0  0
 16 17  1  0  0  0  0
 18 16  2  0  0  0  0
 19 18  1  0  0  0  0
 19 14  2  0  0  0  0
 20 19  1  0  0  0  0
 22 27  1  0  0  0  0
 23 24  1  0  0  0  0
 23 22  2  0  0  0  0
 24 25  2  0  0  0  0
 25 26  1  0  0  0  0
 26  1  1  0  0  0  0
 27 26  2  0  0  0  0
 28 22  1  0  0  0  0
 29 23  1  0  0  0  0
 30 32  1  0  0  0  0
 30 24  1  0  0  0  0
 31 35  1  0  0  0  0
 31 30  1  0  0  0  0
 31 32  1  0  0  0  0
 32 36  1  0  0  0  0
 33 30  1  0  0  0  0
 34 31  1  0  0  0  0
 37 32  1  0  0  0  0
M  END
>  <minimizedAffinity>
-6.72388124

>  <minimizedRMSD>
2.28511739

$$$$
