
 OpenBabel03252508333D

 35 38  0  0  1  0  0  0  0  0999 V2000
   44.2720   34.3920   41.8230 N   0  0  0  0  0  0  0  0  0  0  0  0
   44.3390   33.2690   40.9450 C   0  0  2  0  0  0  0  0  0  0  0  0
   43.9000   33.6190   39.5420 C   0  0  0  0  0  0  0  0  0  0  0  0
   42.6270   34.2700   39.5290 N   0  0  0  0  0  0  0  0  0  0  0  0
   42.4920   35.3290   40.4520 C   0  0  0  0  0  0  0  0  0  0  0  0
   43.7560   35.6120   41.2350 C   0  0  0  0  0  0  0  0  0  0  0  0
   45.4130   32.9660   40.8770 H   0  0  0  0  0  0  0  0  0  0  0  0
   44.6530   34.3230   39.1310 H   0  0  0  0  0  0  0  0  0  0  0  0
   43.8690   32.7370   38.9040 H   0  0  0  0  0  0  0  0  0  0  0  0
   41.8880   33.5480   39.7200 H   0  0  0  0  0  0  0  0  0  0  0  0
   41.6670   35.2430   41.1860 H   0  0  0  0  0  0  0  0  0  0  0  0
   42.2950   36.2620   39.8590 H   0  0  0  0  0  0  0  0  0  0  0  0
   44.5180   35.9020   40.4560 H   0  0  0  0  0  0  0  0  0  0  0  0
   43.5280   36.4140   41.9190 H   0  0  0  0  0  0  0  0  0  0  0  0
   44.0540   30.7860   41.2310 C   0  0  0  0  0  3  0  0  0  0  0  0
   43.5800   32.0800   41.3400 C   0  0  0  0  0  0  0  0  0  0  0  0
   42.2920   32.1020   41.8950 C   0  0  0  0  0  0  0  0  0  0  0  0
   41.8210   33.0870   42.0270 H   0  0  0  0  0  0  0  0  0  0  0  0
   41.5700   31.0090   42.2880 C   0  0  0  0  0  0  0  0  0  0  0  0
   40.3420   30.8990   42.8270 N   0  0  0  0  0  0  0  0  0  0  0  0
   40.1170   29.5880   43.0220 C   0  0  0  0  0  0  0  0  0  0  0  0
   39.1650   29.2550   43.4590 H   0  0  0  0  0  0  0  0  0  0  0  0
   41.1960   28.9080   42.6050 N   0  0  0  0  0  0  0  0  0  0  0  0
   42.1190   29.7600   42.1430 C   0  0  0  0  0  0  0  0  0  0  0  0
   43.3850   29.6420   41.6050 C   0  0  0  0  0  3  0  0  0  0  0  0
   39.6910   31.6990   43.0500 H   0  0  0  0  0  0  0  0  0  0  0  0
   44.3880   35.2580   44.0730 C   0  0  0  0  0  0  0  0  0  0  0  0
   44.7020   34.2520   43.1710 C   0  0  0  0  0  0  0  0  0  0  0  0
   45.4090   33.1700   43.6500 C   0  0  0  0  0  0  0  0  0  0  0  0
   45.7610   33.1300   44.9530 N   0  0  0  0  0  0  0  0  0  0  0  0
   45.4430   34.1190   45.8090 C   0  0  0  0  0  0  0  0  0  0  0  0
   44.7630   35.1670   45.3630 N   0  0  0  0  0  0  0  0  0  0  0  0
   43.8450   36.1660   43.8730 H   0  0  0  0  0  0  0  0  0  0  0  0
   45.6830   32.3720   42.9940 H   0  0  0  0  0  0  0  0  0  0  0  0
   45.7950   33.9430   46.8220 H   0  0  0  0  0  0  0  0  0  0  0  0
  1 28  1  0  0  0  0
  2  7  1  6  0  0  0
  2 16  1  0  0  0  0
  2  1  1  0  0  0  0
  3  2  1  0  0  0  0
  4  3  1  0  0  0  0
  4 10  1  0  0  0  0
  4  5  1  0  0  0  0
  5 11  1  0  0  0  0
  5  6  1  0  0  0  0
  6  1  1  0  0  0  0
  6 14  1  0  0  0  0
  8  3  1  0  0  0  0
  9  3  1  0  0  0  0
 12  5  1  0  0  0  0
 13  6  1  0  0  0  0
 15 16  2  0  0  0  0
 15 25  1  0  0  0  0
 16 17  1  0  0  0  0
 17 18  1  0  0  0  0
 17 19  2  0  0  0  0
 19 20  1  0  0  0  0
 20 21  1  0  0  0  0
 20 26  1  0  0  0  0
 21 22  1  0  0  0  0
 23 21  2  0  0  0  0
 24 19  1  0  0  0  0
 24 23  1  0  0  0  0
 25 24  2  0  0  0  0
 27 32  1  0  0  0  0
 28 29  1  0  0  0  0
 28 27  2  0  0  0  0
 29 30  2  0  0  0  0
 30 31  1  0  0  0  0
 31 35  1  0  0  0  0
 32 31  2  0  0  0  0
 33 27  1  0  0  0  0
 34 29  1  0  0  0  0
M  END
>  <minimizedAffinity>
-4.24626112

>  <minimizedRMSD>
0.431097239

$$$$
