
 OpenBabel03252506563D

 41 46  0  0  0  0  0  0  0  0999 V2000
   46.7670   31.2500   45.1230 C   0  0  0  0  0  0  0  0  0  0  0  0
   46.6280   32.6290   45.2450 C   0  0  0  0  0  0  0  0  0  0  0  0
   46.2160   33.2330   46.4100 C   0  0  0  0  0  0  0  0  0  0  0  0
   45.9170   32.4730   47.5330 C   0  0  0  0  0  0  0  0  0  0  0  0
   45.4950   32.7200   48.8100 N   0  0  0  0  0  0  0  0  0  0  0  0
   45.3780   31.5300   49.4550 C   0  0  0  0  0  0  0  0  0  0  0  0
   45.7250   30.5710   48.5750 N   0  0  0  0  0  0  0  0  0  0  0  0
   46.0580   31.1140   47.3980 C   0  0  0  0  0  0  0  0  0  0  0  0
   46.4640   30.4820   46.2600 C   0  0  0  0  0  0  0  0  0  0  0  0
   47.0910   30.7670   44.2110 H   0  0  0  0  0  0  0  0  0  0  0  0
   46.1070   34.3050   46.5090 H   0  0  0  0  0  0  0  0  0  0  0  0
   45.3180   33.7000   49.1430 H   0  0  0  0  0  0  0  0  0  0  0  0
   45.0580   31.4450   50.4860 H   0  0  0  0  0  0  0  0  0  0  0  0
   46.3410   35.2060   42.6410 C   0  0  0  0  0  0  0  0  0  0  0  0
   47.5370   35.0420   41.9240 C   0  0  0  0  0  0  0  0  0  0  0  0
   48.4230   34.0550   42.3370 C   0  0  0  0  0  0  0  0  0  0  0  0
   48.0980   33.2820   43.4270 N   0  0  0  0  0  0  0  0  0  0  0  0
   46.9310   33.4750   44.0930 C   0  0  0  0  0  0  0  0  0  0  0  0
   46.0560   34.4220   43.7150 N   0  0  0  0  0  0  0  0  0  0  0  0
   45.6380   35.9680   42.3360 H   0  0  0  0  0  0  0  0  0  0  0  0
   47.7510   35.6690   41.0760 H   0  0  0  0  0  0  0  0  0  0  0  0
   49.3410   33.9170   41.8000 H   0  0  0  0  0  0  0  0  0  0  0  0
   46.5870   29.0110   46.2090 C   0  0  0  0  0  0  0  0  0  0  0  0
   47.7910   28.3260   46.3420 C   0  0  0  0  0  0  0  0  0  0  0  0
   47.4070   26.9830   46.2270 C   0  0  0  0  0  0  0  0  0  0  0  0
   46.0340   26.9320   46.0360 C   0  0  0  0  0  0  0  0  0  0  0  0
   45.6000   28.1810   46.0340 O   0  0  0  0  0  0  0  0  0  0  0  0
   48.7430   28.8140   46.4960 H   0  0  0  0  0  0  0  0  0  0  0  0
   48.1360   26.1810   46.2900 H   0  0  0  0  0  0  0  0  0  0  0  0
   44.0740   25.6370   45.2250 C   0  0  0  0  0  3  0  0  0  0  0  0
   45.2890   25.6880   45.8750 C   0  0  0  0  0  0  0  0  0  0  0  0
   45.8180   24.5030   46.3920 C   0  0  0  0  0  0  0  0  0  0  0  0
   46.7740   24.4720   46.9170 H   0  0  0  0  0  0  0  0  0  0  0  0
   45.0850   23.3450   46.2210 C   0  0  0  0  0  0  0  0  0  0  0  0
   45.2800   22.0440   46.5800 N   0  0  0  0  0  0  0  0  0  0  0  0
   44.2550   21.2720   46.1750 C   0  0  0  0  0  0  0  0  0  0  0  0
   44.2690   20.2160   46.3880 H   0  0  0  0  0  0  0  0  0  0  0  0
   43.3710   22.0760   45.5380 N   0  0  0  0  0  0  0  0  0  0  0  0
   43.8640   23.3180   45.5640 C   0  0  0  0  0  0  0  0  0  0  0  0
   43.3530   24.4910   45.0570 C   0  0  0  0  0  3  0  0  0  0  0  0
   46.1450   21.7660   47.1030 H   0  0  0  0  0  0  0  0  0  0  0  0
  1  2  2  0  0  0  0
  1  9  1  0  0  0  0
  2  3  1  0  0  0  0
  3 11  1  0  0  0  0
  3  4  2  0  0  0  0
  4  5  1  0  0  0  0
  5 12  1  0  0  0  0
  5  6  1  0  0  0  0
  6 13  1  0  0  0  0
  7  6  2  0  0  0  0
  8  4  1  0  0  0  0
  8  7  1  0  0  0  0
  9  8  2  0  0  0  0
 10  1  1  0  0  0  0
 14 19  1  0  0  0  0
 15 16  1  0  0  0  0
 15 14  2  0  0  0  0
 16 17  2  0  0  0  0
 17 18  1  0  0  0  0
 18  2  1  0  0  0  0
 19 18  2  0  0  0  0
 20 14  1  0  0  0  0
 21 15  1  0  0  0  0
 22 16  1  0  0  0  0
 23  9  1  0  0  0  0
 23 24  2  0  0  0  0
 24 28  1  0  0  0  0
 25 29  1  0  0  0  0
 25 24  1  0  0  0  0
 26 25  2  0  0  0  0
 27 26  1  0  0  0  0
 27 23  1  0  0  0  0
 30 31  1  0  0  0  0
 31 26  1  0  0  0  0
 31 32  2  0  0  0  0
 32 33  1  0  0  0  0
 34 32  1  0  0  0  0
 34 35  1  0  0  0  0
 35 41  1  0  0  0  0
 36 37  1  0  0  0  0
 36 35  1  0  0  0  0
 38 39  1  0  0  0  0
 38 36  2  0  0  0  0
 39 34  2  0  0  0  0
 40 30  2  0  0  0  0
 40 39  1  0  0  0  0
M  END
>  <minimizedAffinity>
-5.74689054

>  <minimizedRMSD>
1.24831975

$$$$
