
 OpenBabel03242521343D

 34 38  0  0  0  0  0  0  0  0999 V2000
   44.3980   35.9810   44.7170 C   0  0  0  0  0  0  0  0  0  0  0  0
   45.0080   35.8970   43.4500 C   0  0  0  0  0  0  0  0  0  0  0  0
   45.9290   34.9000   43.1970 C   0  0  0  0  0  0  0  0  0  0  0  0
   46.2240   34.0210   44.1850 N   0  0  0  0  0  0  0  0  0  0  0  0
   45.6250   34.1150   45.4070 C   0  0  0  0  0  0  0  0  0  0  0  0
   44.7270   35.0910   45.6460 N   0  0  0  0  0  0  0  0  0  0  0  0
   43.6900   36.7910   44.8280 H   0  0  0  0  0  0  0  0  0  0  0  0
   44.8300   36.5520   42.6150 H   0  0  0  0  0  0  0  0  0  0  0  0
   47.8920   35.2300   41.8160 C   0  0  0  0  0  0  0  0  0  0  0  0
   46.6150   34.7240   41.9260 C   0  0  0  0  0  0  0  0  0  0  0  0
   46.0720   34.0880   40.8350 C   0  0  0  0  0  0  0  0  0  0  0  0
   46.7420   33.9330   39.6360 C   0  0  0  0  0  0  0  0  0  0  0  0
   46.4080   33.3550   38.4610 N   0  0  0  0  0  0  0  0  0  0  0  0
   47.4720   33.5000   37.6170 C   0  0  0  0  0  0  0  0  0  0  0  0
   48.4520   34.1660   38.2860 N   0  0  0  0  0  0  0  0  0  0  0  0
   48.0300   34.4450   39.5280 C   0  0  0  0  0  0  0  0  0  0  0  0
   48.5850   35.0810   40.6090 C   0  0  0  0  0  0  0  0  0  0  0  0
   48.3670   35.7360   42.6340 H   0  0  0  0  0  0  0  0  0  0  0  0
   45.0670   33.6960   40.9390 H   0  0  0  0  0  0  0  0  0  0  0  0
   45.5010   32.8790   38.2250 H   0  0  0  0  0  0  0  0  0  0  0  0
   47.4340   33.1070   36.5970 H   0  0  0  0  0  0  0  0  0  0  0  0
   49.5930   35.4780   40.5130 H   0  0  0  0  0  0  0  0  0  0  0  0
   45.2250   33.1200   47.6150 C   0  0  0  0  0  0  0  0  0  0  0  0
   45.9610   33.1550   46.4540 C   0  0  0  0  0  0  0  0  0  0  0  0
   47.0190   32.2860   46.2700 C   0  0  0  0  0  0  0  0  0  0  0  0
   47.5620   32.3560   45.3440 H   0  0  0  0  0  0  0  0  0  0  0  0
   47.3250   31.3840   47.2690 C   0  0  0  0  0  0  0  0  0  0  0  0
   48.3260   30.4780   47.2300 N   0  0  0  0  0  0  0  0  0  0  0  0
   48.2400   29.8200   48.4230 C   0  0  0  0  0  0  0  0  0  0  0  0
   48.9340   29.0220   48.6730 H   0  0  0  0  0  0  0  0  0  0  0  0
   47.2060   30.3300   49.1490 N   0  0  0  0  0  0  0  0  0  0  0  0
   46.6150   31.3140   48.4470 C   0  0  0  0  0  0  0  0  0  0  0  0
   45.5670   32.2010   48.5850 C   0  0  0  0  0  0  0  0  0  0  0  0
   49.0220   30.3000   46.4750 H   0  0  0  0  0  0  0  0  0  0  0  0
  1  7  1  0  0  0  0
  1  6  1  0  0  0  0
  2  1  2  0  0  0  0
  3  2  1  0  0  0  0
  3  4  2  0  0  0  0
  4  5  1  0  0  0  0
  5  6  2  0  0  0  0
  5 24  1  0  0  0  0
  8  2  1  0  0  0  0
  9 10  1  0  0  0  0
  9 18  1  0  0  0  0
 10  3  1  0  0  0  0
 11 19  1  0  0  0  0
 11 10  2  0  0  0  0
 12 11  1  0  0  0  0
 13 12  1  0  0  0  0
 14 15  2  0  0  0  0
 14 13  1  0  0  0  0
 15 16  1  0  0  0  0
 16 12  2  0  0  0  0
 16 17  1  0  0  0  0
 17  9  2  0  0  0  0
 20 13  1  0  0  0  0
 21 14  1  0  0  0  0
 22 17  1  0  0  0  0
 23 33  1  0  0  0  0
 24 23  2  0  0  0  0
 25 24  1  0  0  0  0
 25 27  2  0  0  0  0
 26 25  1  0  0  0  0
 27 32  1  0  0  0  0
 28 27  1  0  0  0  0
 28 29  1  0  0  0  0
 29 30  1  0  0  0  0
 29 31  2  0  0  0  0
 32 33  2  0  0  0  0
 32 31  1  0  0  0  0
 34 28  1  0  0  0  0
M  END
>  <minimizedAffinity>
-7.23513937

>  <minimizedRMSD>
0.276468754

$$$$
