
 OpenBabel03252507213D

 47 51  0  0  1  0  0  0  0  0999 V2000
   38.8720   29.2710   39.6680 C   0  0  0  0  0  0  0  0  0  0  0  0
   38.3040   28.3880   38.9690 O   0  0  0  0  0  0  0  0  0  0  0  0
   38.3500   30.5910   39.8910 N   0  0  0  0  0  0  0  0  0  0  0  0
   38.2490   31.3800   41.1050 C   0  0  0  0  0  0  0  0  0  0  0  0
   38.8680   32.7670   40.8480 C   0  0  0  0  0  0  0  0  0  0  0  0
   38.0650   33.4890   39.7920 C   0  0  0  0  0  0  0  0  0  0  0  0
   37.1290   32.5260   39.1130 C   0  0  0  0  0  0  0  0  0  0  0  0
   37.8420   31.2580   38.7100 C   0  0  2  0  0  0  0  0  0  0  0  0
   38.9500   30.9310   41.8670 H   0  0  0  0  0  0  0  0  0  0  0  0
   37.2450   31.4630   41.5180 H   0  0  0  0  0  0  0  0  0  0  0  0
   38.8540   33.3000   41.8230 H   0  0  0  0  0  0  0  0  0  0  0  0
   39.9050   32.5600   40.4900 H   0  0  0  0  0  0  0  0  0  0  0  0
   38.7660   33.8430   38.9890 H   0  0  0  0  0  0  0  0  0  0  0  0
   37.4680   34.3310   40.1900 H   0  0  0  0  0  0  0  0  0  0  0  0
   36.2800   32.3070   39.7920 H   0  0  0  0  0  0  0  0  0  0  0  0
   36.7270   32.9590   38.1770 H   0  0  0  0  0  0  0  0  0  0  0  0
   38.7260   31.5630   38.1170 H   0  0  0  0  0  0  0  0  0  0  0  0
   35.7930   29.8120   38.2310 C   0  0  0  0  0  3  0  0  0  0  0  0
   36.9810   30.4040   37.8630 C   0  0  0  0  0  0  0  0  0  0  0  0
   37.3550   30.1310   36.5420 C   0  0  0  0  0  0  0  0  0  0  0  0
   38.2980   30.5870   36.2120 H   0  0  0  0  0  0  0  0  0  0  0  0
   36.6500   29.3560   35.6490 C   0  0  0  0  0  0  0  0  0  0  0  0
   36.9050   29.0260   34.3720 N   0  0  0  0  0  0  0  0  0  0  0  0
   35.8810   28.2470   33.9830 C   0  0  0  0  0  0  0  0  0  0  0  0
   35.8080   27.8230   32.9880 H   0  0  0  0  0  0  0  0  0  0  0  0
   35.0030   28.0990   35.0160 N   0  0  0  0  0  0  0  0  0  0  0  0
   35.4700   28.7930   36.0790 C   0  0  0  0  0  0  0  0  0  0  0  0
   35.0530   29.0290   37.3730 C   0  0  0  0  0  3  0  0  0  0  0  0
   37.7550   29.3450   33.8320 H   0  0  0  0  0  0  0  0  0  0  0  0
   41.3210   29.3340   39.6420 C   0  0  0  0  0  0  0  0  0  0  0  0
   40.1310   28.9250   40.2860 C   0  0  0  0  0  0  0  0  0  0  0  0
   40.2100   28.2160   41.4690 C   0  0  0  0  0  0  0  0  0  0  0  0
   41.4300   27.9380   41.9710 N   0  0  0  0  0  0  0  0  0  0  0  0
   42.5810   28.3260   41.3610 C   0  0  0  0  0  0  0  0  0  0  0  0
   42.5030   29.0190   40.2050 N   0  0  0  0  0  0  0  0  0  0  0  0
   41.2950   29.8900   38.7130 H   0  0  0  0  0  0  0  0  0  0  0  0
   43.5500   28.0990   41.7710 H   0  0  0  0  0  0  0  0  0  0  0  0
   38.9780   27.8020   42.1100 C   0  0  0  0  0  0  0  0  0  0  0  0
   38.4180   28.5810   43.0800 C   0  0  0  0  0  0  0  0  0  0  0  0
   37.2450   28.1720   43.6800 C   0  0  0  0  0  0  0  0  0  0  0  0
   36.6000   26.9910   43.3400 C   0  0  0  0  0  0  0  0  0  0  0  0
   37.2180   26.2380   42.3460 C   0  0  0  0  0  0  0  0  0  0  0  0
   38.3600   26.6650   41.7820 N   0  0  0  0  0  0  0  0  0  0  0  0
   38.7980   29.5170   43.4530 H   0  0  0  0  0  0  0  0  0  0  0  0
   36.7540   28.7470   44.4530 H   0  0  0  0  0  0  0  0  0  0  0  0
   35.6860   26.6330   43.7810 H   0  0  0  0  0  0  0  0  0  0  0  0
   36.8180   25.2860   41.9830 H   0  0  0  0  0  0  0  0  0  0  0  0
  1  3  1  0  0  0  0
  1 31  1  0  0  0  0
  2  1  2  0  0  0  0
  3  4  1  0  0  0  0
  4 10  1  0  0  0  0
  4  9  1  0  0  0  0
  5  4  1  0  0  0  0
  5 11  1  0  0  0  0
  6 14  1  0  0  0  0
  6  5  1  0  0  0  0
  7 15  1  0  0  0  0
  7  6  1  0  0  0  0
  8 17  1  6  0  0  0
  8  7  1  0  0  0  0
  8  3  1  0  0  0  0
 12  5  1  0  0  0  0
 13  6  1  0  0  0  0
 16  7  1  0  0  0  0
 19 18  1  0  0  0  0
 19  8  1  0  0  0  0
 20 19  2  0  0  0  0
 21 20  1  0  0  0  0
 22 27  2  0  0  0  0
 22 20  1  0  0  0  0
 23 22  1  0  0  0  0
 24 23  1  0  0  0  0
 24 26  2  0  0  0  0
 25 24  1  0  0  0  0
 26 27  1  0  0  0  0
 27 28  1  0  0  0  0
 28 18  2  0  0  0  0
 29 23  1  0  0  0  0
 30 35  2  0  0  0  0
 30 31  1  0  0  0  0
 31 32  2  0  0  0  0
 32 33  1  0  0  0  0
 32 38  1  0  0  0  0
 34 37  1  0  0  0  0
 34 33  2  0  0  0  0
 35 34  1  0  0  0  0
 36 30  1  0  0  0  0
 38 39  1  0  0  0  0
 39 44  1  0  0  0  0
 39 40  2  0  0  0  0
 40 45  1  0  0  0  0
 41 40  1  0  0  0  0
 41 46  1  0  0  0  0
 42 41  2  0  0  0  0
 43 38  2  0  0  0  0
 43 42  1  0  0  0  0
 47 42  1  0  0  0  0
M  END
>  <minimizedAffinity>
-6.69325304

$$$$

 OpenBabel03252507213D

 47 51  0  0  1  0  0  0  0  0999 V2000
   38.9420   27.4590   38.9490 C   0  0  0  0  0  0  0  0  0  0  0  0
   40.0320   28.0830   39.0630 O   0  0  0  0  0  0  0  0  0  0  0  0
   37.6960   28.0630   38.5640 N   0  0  0  0  0  0  0  0  0  0  0  0
   36.6790   27.6250   37.6260 C   0  0  0  0  0  0  0  0  0  0  0  0
   35.3090   27.6520   38.3290 C   0  0  0  0  0  0  0  0  0  0  0  0
   34.9670   29.0730   38.7120 C   0  0  0  0  0  0  0  0  0  0  0  0
   36.1830   29.9470   38.5740 C   0  0  0  0  0  0  0  0  0  0  0  0
   37.3920   29.3160   39.2220 C   0  0  2  0  0  0  0  0  0  0  0  0
   36.8380   26.5250   37.4320 H   0  0  0  0  0  0  0  0  0  0  0  0
   36.6530   28.1740   36.6850 H   0  0  0  0  0  0  0  0  0  0  0  0
   34.5800   27.2240   37.6090 H   0  0  0  0  0  0  0  0  0  0  0  0
   35.4370   27.0140   39.2370 H   0  0  0  0  0  0  0  0  0  0  0  0
   34.7030   29.0970   39.8040 H   0  0  0  0  0  0  0  0  0  0  0  0
   34.1540   29.5100   38.1030 H   0  0  0  0  0  0  0  0  0  0  0  0
   36.3670   30.1440   37.4970 H   0  0  0  0  0  0  0  0  0  0  0  0
   36.0340   30.9170   39.0870 H   0  0  0  0  0  0  0  0  0  0  0  0
   37.1010   29.0630   40.2610 H   0  0  0  0  0  0  0  0  0  0  0  0
   39.2500   30.6220   40.3890 C   0  0  0  0  0  3  0  0  0  0  0  0
   38.5300   30.2590   39.2710 C   0  0  0  0  0  0  0  0  0  0  0  0
   38.9690   30.8820   38.0980 C   0  0  0  0  0  0  0  0  0  0  0  0
   38.4180   30.6170   37.1850 H   0  0  0  0  0  0  0  0  0  0  0  0
   40.0110   31.7770   38.0020 C   0  0  0  0  0  0  0  0  0  0  0  0
   40.5190   32.4320   36.9450 N   0  0  0  0  0  0  0  0  0  0  0  0
   41.5300   33.1750   37.4250 C   0  0  0  0  0  0  0  0  0  0  0  0
   42.1380   33.8200   36.8000 H   0  0  0  0  0  0  0  0  0  0  0  0
   41.6420   32.9780   38.7700 N   0  0  0  0  0  0  0  0  0  0  0  0
   40.6910   32.0970   39.1550 C   0  0  0  0  0  0  0  0  0  0  0  0
   40.3000   31.5120   40.3420 C   0  0  0  0  0  3  0  0  0  0  0  0
   40.1560   32.3410   35.9560 H   0  0  0  0  0  0  0  0  0  0  0  0
   39.2880   25.1620   38.1700 C   0  0  0  0  0  0  0  0  0  0  0  0
   38.9530   26.0400   39.2250 C   0  0  0  0  0  0  0  0  0  0  0  0
   38.6500   25.5210   40.4690 C   0  0  0  0  0  0  0  0  0  0  0  0
   38.6850   24.1830   40.6320 N   0  0  0  0  0  0  0  0  0  0  0  0
   39.0060   23.3290   39.6250 C   0  0  0  0  0  0  0  0  0  0  0  0
   39.3020   23.8360   38.4100 N   0  0  0  0  0  0  0  0  0  0  0  0
   39.5300   25.5360   37.1830 H   0  0  0  0  0  0  0  0  0  0  0  0
   39.0310   22.2620   39.7670 H   0  0  0  0  0  0  0  0  0  0  0  0
   38.3040   26.4400   41.5350 C   0  0  0  0  0  0  0  0  0  0  0  0
   36.9940   26.6950   41.8180 C   0  0  0  0  0  0  0  0  0  0  0  0
   36.6820   27.5710   42.8350 C   0  0  0  0  0  0  0  0  0  0  0  0
   37.6490   28.2150   43.5960 C   0  0  0  0  0  0  0  0  0  0  0  0
   38.9670   27.9160   43.2620 C   0  0  0  0  0  0  0  0  0  0  0  0
   39.2360   27.0570   42.2640 N   0  0  0  0  0  0  0  0  0  0  0  0
   36.1350   26.2790   41.3190 H   0  0  0  0  0  0  0  0  0  0  0  0
   35.6630   27.8130   43.1070 H   0  0  0  0  0  0  0  0  0  0  0  0
   37.4530   28.9060   44.3970 H   0  0  0  0  0  0  0  0  0  0  0  0
   39.8270   28.3520   43.7780 H   0  0  0  0  0  0  0  0  0  0  0  0
  1  2  2  0  0  0  0
  1 31  1  0  0  0  0
  3  1  1  0  0  0  0
  3  8  1  0  0  0  0
  4  5  1  0  0  0  0
  4  3  1  0  0  0  0
  5  6  1  0  0  0  0
  5 12  1  0  0  0  0
  6 13  1  0  0  0  0
  7  6  1  0  0  0  0
  7 16  1  0  0  0  0
  7  8  1  0  0  0  0
  8 19  1  0  0  0  0
  8 17  1  1  0  0  0
  9  4  1  0  0  0  0
 10  4  1  0  0  0  0
 11  5  1  0  0  0  0
 14  6  1  0  0  0  0
 15  7  1  0  0  0  0
 19 18  2  0  0  0  0
 20 19  1  0  0  0  0
 21 20  1  0  0  0  0
 22 20  2  0  0  0  0
 22 27  1  0  0  0  0
 23 24  1  0  0  0  0
 23 22  1  0  0  0  0
 24 26  2  0  0  0  0
 25 24  1  0  0  0  0
 26 27  1  0  0  0  0
 27 28  2  0  0  0  0
 28 18  1  0  0  0  0
 29 23  1  0  0  0  0
 30 35  2  0  0  0  0
 30 31  1  0  0  0  0
 31 32  2  0  0  0  0
 32 33  1  0  0  0  0
 32 38  1  0  0  0  0
 34 37  1  0  0  0  0
 34 33  2  0  0  0  0
 35 34  1  0  0  0  0
 36 30  1  0  0  0  0
 38 39  2  0  0  0  0
 38 43  1  0  0  0  0
 39 40  1  0  0  0  0
 40 45  1  0  0  0  0
 40 41  2  0  0  0  0
 41 46  1  0  0  0  0
 42 41  1  0  0  0  0
 42 47  1  0  0  0  0
 43 42  2  0  0  0  0
 44 39  1  0  0  0  0
M  END
>  <minimizedAffinity>
-6.3038578

$$$$

 OpenBabel03252507213D

 47 51  0  0  1  0  0  0  0  0999 V2000
   38.0360   30.2020   39.7790 C   0  0  0  0  0  0  0  0  0  0  0  0
   37.5510   29.9870   38.6340 O   0  0  0  0  0  0  0  0  0  0  0  0
   37.9000   29.3120   40.8990 N   0  0  0  0  0  0  0  0  0  0  0  0
   38.8750   28.8540   41.8720 C   0  0  0  0  0  0  0  0  0  0  0  0
   38.3130   29.0890   43.2860 C   0  0  0  0  0  0  0  0  0  0  0  0
   37.0730   28.2490   43.4820 C   0  0  0  0  0  0  0  0  0  0  0  0
   36.6100   27.7030   42.1590 C   0  0  0  0  0  0  0  0  0  0  0  0
   36.5680   28.7820   41.1040 C   0  0  2  0  0  0  0  0  0  0  0  0
   39.7560   29.5570   41.8330 H   0  0  0  0  0  0  0  0  0  0  0  0
   39.2060   27.8250   41.7420 H   0  0  0  0  0  0  0  0  0  0  0  0
   39.1230   28.8140   43.9940 H   0  0  0  0  0  0  0  0  0  0  0  0
   38.0660   30.1780   43.3230 H   0  0  0  0  0  0  0  0  0  0  0  0
   36.2420   28.9130   43.8410 H   0  0  0  0  0  0  0  0  0  0  0  0
   37.2210   27.3990   44.1750 H   0  0  0  0  0  0  0  0  0  0  0  0
   37.2810   26.8740   41.8540 H   0  0  0  0  0  0  0  0  0  0  0  0
   35.5780   27.3090   42.2330 H   0  0  0  0  0  0  0  0  0  0  0  0
   35.9610   29.6100   41.5180 H   0  0  0  0  0  0  0  0  0  0  0  0
   36.3380   27.2540   39.0700 C   0  0  0  0  0  3  0  0  0  0  0  0
   35.9180   28.2980   39.8670 C   0  0  0  0  0  0  0  0  0  0  0  0
   34.7540   28.9200   39.4020 C   0  0  0  0  0  0  0  0  0  0  0  0
   34.3880   29.7570   40.0110 H   0  0  0  0  0  0  0  0  0  0  0  0
   34.0520   28.5720   38.2700 C   0  0  0  0  0  0  0  0  0  0  0  0
   32.9350   29.0880   37.7290 N   0  0  0  0  0  0  0  0  0  0  0  0
   32.6930   28.3600   36.6250 C   0  0  0  0  0  0  0  0  0  0  0  0
   31.8470   28.5440   35.9720 H   0  0  0  0  0  0  0  0  0  0  0  0
   33.6540   27.4040   36.4890 N   0  0  0  0  0  0  0  0  0  0  0  0
   34.5240   27.5190   37.5180 C   0  0  0  0  0  0  0  0  0  0  0  0
   35.6690   26.8700   37.9310 C   0  0  0  0  0  3  0  0  0  0  0  0
   32.3970   29.9020   38.1350 H   0  0  0  0  0  0  0  0  0  0  0  0
   38.1140   32.5200   40.5680 C   0  0  0  0  0  0  0  0  0  0  0  0
   38.7790   31.4260   39.9700 C   0  0  0  0  0  0  0  0  0  0  0  0
   40.1010   31.5600   39.5920 C   0  0  0  0  0  0  0  0  0  0  0  0
   40.7140   32.7420   39.8100 N   0  0  0  0  0  0  0  0  0  0  0  0
   40.0840   33.8010   40.3830 C   0  0  0  0  0  0  0  0  0  0  0  0
   38.7930   33.6690   40.7520 N   0  0  0  0  0  0  0  0  0  0  0  0
   37.0780   32.4480   40.8750 H   0  0  0  0  0  0  0  0  0  0  0  0
   40.5840   34.7390   40.5520 H   0  0  0  0  0  0  0  0  0  0  0  0
   40.7630   30.4270   38.9760 C   0  0  0  0  0  0  0  0  0  0  0  0
   40.7830   30.3050   37.6180 C   0  0  0  0  0  0  0  0  0  0  0  0
   41.4160   29.2210   37.0480 C   0  0  0  0  0  0  0  0  0  0  0  0
   42.0430   28.2360   37.7990 C   0  0  0  0  0  0  0  0  0  0  0  0
   41.9890   28.4140   39.1790 C   0  0  0  0  0  0  0  0  0  0  0  0
   41.3640   29.4820   39.7020 N   0  0  0  0  0  0  0  0  0  0  0  0
   40.3420   30.9800   36.9040 H   0  0  0  0  0  0  0  0  0  0  0  0
   41.4660   29.0700   35.9780 H   0  0  0  0  0  0  0  0  0  0  0  0
   42.5470   27.3740   37.3990 H   0  0  0  0  0  0  0  0  0  0  0  0
   42.4400   27.7140   39.8890 H   0  0  0  0  0  0  0  0  0  0  0  0
  1 31  1  0  0  0  0
  1  3  1  0  0  0  0
  2  1  2  0  0  0  0
  3  8  1  0  0  0  0
  3  4  1  0  0  0  0
  4  5  1  0  0  0  0
  5 12  1  0  0  0  0
  5  6  1  0  0  0  0
  5 11  1  0  0  0  0
  6 13  1  0  0  0  0
  6 14  1  0  0  0  0
  7 16  1  0  0  0  0
  7  6  1  0  0  0  0
  8 17  1  1  0  0  0
  8  7  1  0  0  0  0
  9  4  1  0  0  0  0
 10  4  1  0  0  0  0
 15  7  1  0  0  0  0
 18 19  1  0  0  0  0
 19  8  1  0  0  0  0
 20 19  2  0  0  0  0
 20 21  1  0  0  0  0
 22 20  1  0  0  0  0
 23 29  1  0  0  0  0
 23 22  1  0  0  0  0
 24 23  1  0  0  0  0
 25 24  1  0  0  0  0
 26 24  2  0  0  0  0
 26 27  1  0  0  0  0
 27 28  1  0  0  0  0
 27 22  2  0  0  0  0
 28 18  2  0  0  0  0
 30 35  1  0  0  0  0
 30 36  1  0  0  0  0
 31 30  2  0  0  0  0
 32 33  2  0  0  0  0
 32 31  1  0  0  0  0
 33 34  1  0  0  0  0
 34 37  1  0  0  0  0
 34 35  2  0  0  0  0
 38 32  1  0  0  0  0
 38 43  1  0  0  0  0
 39 38  2  0  0  0  0
 40 39  1  0  0  0  0
 40 41  2  0  0  0  0
 41 42  1  0  0  0  0
 42 43  2  0  0  0  0
 42 47  1  0  0  0  0
 44 39  1  0  0  0  0
 45 40  1  0  0  0  0
 46 41  1  0  0  0  0
M  END
>  <minimizedAffinity>
-6.25442886

$$$$

 OpenBabel03252507213D

 47 51  0  0  1  0  0  0  0  0999 V2000
   38.9570   29.1430   40.4100 C   0  0  0  0  0  0  0  0  0  0  0  0
   39.4980   28.6590   39.3790 O   0  0  0  0  0  0  0  0  0  0  0  0
   38.4900   28.3650   41.5250 N   0  0  0  0  0  0  0  0  0  0  0  0
   38.6440   28.5640   42.9540 C   0  0  0  0  0  0  0  0  0  0  0  0
   37.2570   28.4840   43.6190 C   0  0  0  0  0  0  0  0  0  0  0  0
   36.6880   27.0980   43.4310 C   0  0  0  0  0  0  0  0  0  0  0  0
   37.4950   26.3470   42.4070 C   0  0  0  0  0  0  0  0  0  0  0  0
   37.7310   27.1830   41.1730 C   0  0  2  0  0  0  0  0  0  0  0  0
   38.9390   29.6410   43.1210 H   0  0  0  0  0  0  0  0  0  0  0  0
   39.3560   27.8980   43.4380 H   0  0  0  0  0  0  0  0  0  0  0  0
   37.4100   28.7340   44.6900 H   0  0  0  0  0  0  0  0  0  0  0  0
   36.6370   29.2450   43.0870 H   0  0  0  0  0  0  0  0  0  0  0  0
   35.6580   27.1880   42.9940 H   0  0  0  0  0  0  0  0  0  0  0  0
   36.6660   26.5000   44.3620 H   0  0  0  0  0  0  0  0  0  0  0  0
   38.4560   26.0320   42.8640 H   0  0  0  0  0  0  0  0  0  0  0  0
   36.9570   25.4420   42.0640 H   0  0  0  0  0  0  0  0  0  0  0  0
   36.7380   27.5370   40.8330 H   0  0  0  0  0  0  0  0  0  0  0  0
   39.5260   25.6820   40.1490 C   0  0  0  0  0  3  0  0  0  0  0  0
   38.3390   26.3800   40.0890 C   0  0  0  0  0  0  0  0  0  0  0  0
   37.6940   26.2790   38.8510 C   0  0  0  0  0  0  0  0  0  0  0  0
   36.7440   26.8230   38.7660 H   0  0  0  0  0  0  0  0  0  0  0  0
   38.1470   25.5690   37.7620 C   0  0  0  0  0  0  0  0  0  0  0  0
   37.6230   25.3990   36.5370 N   0  0  0  0  0  0  0  0  0  0  0  0
   38.4850   24.6090   35.8750 C   0  0  0  0  0  0  0  0  0  0  0  0
   38.3290   24.2960   34.8490 H   0  0  0  0  0  0  0  0  0  0  0  0
   39.5330   24.2960   36.6890 N   0  0  0  0  0  0  0  0  0  0  0  0
   39.3400   24.8920   37.8870 C   0  0  0  0  0  0  0  0  0  0  0  0
   40.0180   24.9580   39.0860 C   0  0  0  0  0  3  0  0  0  0  0  0
   36.7110   25.8260   36.2150 H   0  0  0  0  0  0  0  0  0  0  0  0
   39.8780   31.3410   40.9800 C   0  0  0  0  0  0  0  0  0  0  0  0
   38.8020   30.5780   40.4710 C   0  0  0  0  0  0  0  0  0  0  0  0
   37.6520   31.2200   40.0550 C   0  0  0  0  0  0  0  0  0  0  0  0
   37.5970   32.5640   40.1510 N   0  0  0  0  0  0  0  0  0  0  0  0
   38.6250   33.3090   40.6380 C   0  0  0  0  0  0  0  0  0  0  0  0
   39.7480   32.6800   41.0440 N   0  0  0  0  0  0  0  0  0  0  0  0
   40.7930   30.8690   41.3140 H   0  0  0  0  0  0  0  0  0  0  0  0
   38.5700   34.3810   40.7090 H   0  0  0  0  0  0  0  0  0  0  0  0
   36.5590   30.4190   39.5420 C   0  0  0  0  0  0  0  0  0  0  0  0
   35.5980   29.9530   40.3910 C   0  0  0  0  0  0  0  0  0  0  0  0
   34.5650   29.1910   39.8860 C   0  0  0  0  0  0  0  0  0  0  0  0
   34.4560   28.8710   38.5400 C   0  0  0  0  0  0  0  0  0  0  0  0
   35.4650   29.3730   37.7230 C   0  0  0  0  0  0  0  0  0  0  0  0
   36.4570   30.1120   38.2470 N   0  0  0  0  0  0  0  0  0  0  0  0
   35.5450   30.1120   41.4540 H   0  0  0  0  0  0  0  0  0  0  0  0
   33.7730   28.7950   40.5080 H   0  0  0  0  0  0  0  0  0  0  0  0
   33.6690   28.2800   38.1020 H   0  0  0  0  0  0  0  0  0  0  0  0
   35.5030   29.1960   36.6440 H   0  0  0  0  0  0  0  0  0  0  0  0
  1 31  1  0  0  0  0
  1  3  1  0  0  0  0
  2  1  2  0  0  0  0
  3  4  1  0  0  0  0
  4  9  1  0  0  0  0
  4 10  1  0  0  0  0
  4  5  1  0  0  0  0
  5 11  1  0  0  0  0
  6  5  1  0  0  0  0
  6 14  1  0  0  0  0
  7 15  1  0  0  0  0
  7  6  1  0  0  0  0
  8 17  1  6  0  0  0
  8  3  1  0  0  0  0
  8  7  1  0  0  0  0
 12  5  1  0  0  0  0
 13  6  1  0  0  0  0
 16  7  1  0  0  0  0
 19 18  1  0  0  0  0
 19  8  1  0  0  0  0
 20 19  2  0  0  0  0
 21 20  1  0  0  0  0
 22 27  2  0  0  0  0
 22 20  1  0  0  0  0
 23 22  1  0  0  0  0
 24 23  1  0  0  0  0
 24 26  2  0  0  0  0
 25 24  1  0  0  0  0
 26 27  1  0  0  0  0
 27 28  1  0  0  0  0
 28 18  2  0  0  0  0
 29 23  1  0  0  0  0
 30 35  1  0  0  0  0
 30 36  1  0  0  0  0
 31 30  2  0  0  0  0
 32 33  2  0  0  0  0
 32 31  1  0  0  0  0
 33 34  1  0  0  0  0
 34 37  1  0  0  0  0
 34 35  2  0  0  0  0
 38 32  1  0  0  0  0
 38 39  1  0  0  0  0
 39 44  1  0  0  0  0
 40 39  2  0  0  0  0
 40 45  1  0  0  0  0
 41 40  1  0  0  0  0
 42 43  1  0  0  0  0
 42 41  2  0  0  0  0
 43 38  2  0  0  0  0
 46 41  1  0  0  0  0
 47 42  1  0  0  0  0
M  END
>  <minimizedAffinity>
-6.2286849

$$$$

 OpenBabel03252507213D

 47 51  0  0  1  0  0  0  0  0999 V2000
   39.3770   28.0190   40.2090 C   0  0  0  0  0  0  0  0  0  0  0  0
   40.6370   27.9720   40.2620 O   0  0  0  0  0  0  0  0  0  0  0  0
   38.5200   28.1650   41.3530 N   0  0  0  0  0  0  0  0  0  0  0  0
   37.3600   29.0110   41.5680 C   0  0  0  0  0  0  0  0  0  0  0  0
   36.1980   28.1390   42.0780 C   0  0  0  0  0  0  0  0  0  0  0  0
   36.5610   27.5470   43.4190 C   0  0  0  0  0  0  0  0  0  0  0  0
   38.0310   27.7350   43.6800 C   0  0  0  0  0  0  0  0  0  0  0  0
   38.8580   27.3280   42.4840 C   0  0  2  0  0  0  0  0  0  0  0  0
   36.9910   29.3540   40.5580 H   0  0  0  0  0  0  0  0  0  0  0  0
   37.5300   29.8670   42.2190 H   0  0  0  0  0  0  0  0  0  0  0  0
   35.3110   28.8050   42.1390 H   0  0  0  0  0  0  0  0  0  0  0  0
   36.0780   27.3380   41.3080 H   0  0  0  0  0  0  0  0  0  0  0  0
   36.4040   26.4360   43.3760 H   0  0  0  0  0  0  0  0  0  0  0  0
   36.0000   27.9900   44.2630 H   0  0  0  0  0  0  0  0  0  0  0  0
   38.2180   28.7950   43.9510 H   0  0  0  0  0  0  0  0  0  0  0  0
   38.3700   27.0940   44.5170 H   0  0  0  0  0  0  0  0  0  0  0  0
   38.5480   26.2990   42.2170 H   0  0  0  0  0  0  0  0  0  0  0  0
   41.1010   28.4090   43.0500 C   0  0  0  0  0  3  0  0  0  0  0  0
   40.3010   27.3130   42.8100 C   0  0  0  0  0  0  0  0  0  0  0  0
   40.9830   26.0950   42.8970 C   0  0  0  0  0  0  0  0  0  0  0  0
   40.3770   25.1970   42.7110 H   0  0  0  0  0  0  0  0  0  0  0  0
   42.3190   25.9380   43.1900 C   0  0  0  0  0  0  0  0  0  0  0  0
   43.0760   24.8340   43.3010 N   0  0  0  0  0  0  0  0  0  0  0  0
   44.3120   25.2660   43.6050 C   0  0  0  0  0  0  0  0  0  0  0  0
   45.1500   24.5950   43.7570 H   0  0  0  0  0  0  0  0  0  0  0  0
   44.3140   26.6270   43.6790 N   0  0  0  0  0  0  0  0  0  0  0  0
   43.0640   27.0730   43.4210 C   0  0  0  0  0  0  0  0  0  0  0  0
   42.4410   28.3020   43.3470 C   0  0  0  0  0  3  0  0  0  0  0  0
   42.7170   23.8490   43.1670 H   0  0  0  0  0  0  0  0  0  0  0  0
   38.8430   29.0370   38.0450 C   0  0  0  0  0  0  0  0  0  0  0  0
   38.7600   27.9190   38.9060 C   0  0  0  0  0  0  0  0  0  0  0  0
   38.1010   26.7820   38.4800 C   0  0  0  0  0  0  0  0  0  0  0  0
   37.5550   26.7820   37.2470 N   0  0  0  0  0  0  0  0  0  0  0  0
   37.6280   27.8500   36.4100 C   0  0  0  0  0  0  0  0  0  0  0  0
   38.2720   28.9600   36.8270 N   0  0  0  0  0  0  0  0  0  0  0  0
   39.3530   29.9430   38.3480 H   0  0  0  0  0  0  0  0  0  0  0  0
   37.1880   27.8380   35.4280 H   0  0  0  0  0  0  0  0  0  0  0  0
   38.0230   25.6490   39.3800 C   0  0  0  0  0  0  0  0  0  0  0  0
   36.8420   25.3410   39.9890 C   0  0  0  0  0  0  0  0  0  0  0  0
   36.7860   24.2600   40.8430 C   0  0  0  0  0  0  0  0  0  0  0  0
   37.8870   23.4610   41.1170 C   0  0  0  0  0  0  0  0  0  0  0  0
   39.0640   23.8240   40.4680 C   0  0  0  0  0  0  0  0  0  0  0  0
   39.0840   24.8830   39.6420 N   0  0  0  0  0  0  0  0  0  0  0  0
   35.9070   25.8640   39.8820 H   0  0  0  0  0  0  0  0  0  0  0  0
   35.8780   23.9660   41.3540 H   0  0  0  0  0  0  0  0  0  0  0  0
   37.8900   22.6100   41.7760 H   0  0  0  0  0  0  0  0  0  0  0  0
   40.0060   23.2820   40.5940 H   0  0  0  0  0  0  0  0  0  0  0  0
  1  2  2  0  0  0  0
  1  3  1  0  0  0  0
  3  4  1  0  0  0  0
  3  8  1  0  0  0  0
  4  5  1  0  0  0  0
  4 10  1  0  0  0  0
  5 11  1  0  0  0  0
  5  6  1  0  0  0  0
  6  7  1  0  0  0  0
  6 14  1  0  0  0  0
  7 15  1  0  0  0  0
  7 16  1  0  0  0  0
  8 17  1  6  0  0  0
  8 19  1  0  0  0  0
  8  7  1  0  0  0  0
  9  4  1  0  0  0  0
 12  5  1  0  0  0  0
 13  6  1  0  0  0  0
 18 28  1  0  0  0  0
 19 20  1  0  0  0  0
 19 18  2  0  0  0  0
 20 22  2  0  0  0  0
 21 20  1  0  0  0  0
 22 23  1  0  0  0  0
 22 27  1  0  0  0  0
 23 24  1  0  0  0  0
 24 26  2  0  0  0  0
 24 25  1  0  0  0  0
 27 26  1  0  0  0  0
 28 27  2  0  0  0  0
 29 23  1  0  0  0  0
 30 36  1  0  0  0  0
 30 31  1  0  0  0  0
 31  1  1  0  0  0  0
 32 31  2  0  0  0  0
 32 38  1  0  0  0  0
 33 32  1  0  0  0  0
 34 35  1  0  0  0  0
 34 33  2  0  0  0  0
 35 30  2  0  0  0  0
 37 34  1  0  0  0  0
 38 43  2  0  0  0  0
 38 39  1  0  0  0  0
 39 40  2  0  0  0  0
 40 41  1  0  0  0  0
 40 45  1  0  0  0  0
 41 46  1  0  0  0  0
 42 47  1  0  0  0  0
 42 41  2  0  0  0  0
 43 42  1  0  0  0  0
 44 39  1  0  0  0  0
M  END
>  <minimizedAffinity>
-6.19937468

$$$$

 OpenBabel03252507213D

 47 51  0  0  1  0  0  0  0  0999 V2000
   38.5040   28.3400   39.9370 C   0  0  0  0  0  0  0  0  0  0  0  0
   38.6580   27.5990   38.9280 O   0  0  0  0  0  0  0  0  0  0  0  0
   38.1550   27.8660   41.2480 N   0  0  0  0  0  0  0  0  0  0  0  0
   38.6890   28.2050   42.5540 C   0  0  0  0  0  0  0  0  0  0  0  0
   37.5210   28.5790   43.4860 C   0  0  0  0  0  0  0  0  0  0  0  0
   36.6260   27.3780   43.6790 C   0  0  0  0  0  0  0  0  0  0  0  0
   36.9730   26.3140   42.6740 C   0  0  0  0  0  0  0  0  0  0  0  0
   37.0870   26.8880   41.2830 C   0  0  2  0  0  0  0  0  0  0  0  0
   39.2500   29.1790   42.4550 H   0  0  0  0  0  0  0  0  0  0  0  0
   39.3270   27.4450   43.0030 H   0  0  0  0  0  0  0  0  0  0  0  0
   37.9780   28.9200   44.4390 H   0  0  0  0  0  0  0  0  0  0  0  0
   36.9790   29.3990   42.9560 H   0  0  0  0  0  0  0  0  0  0  0  0
   35.5680   27.6770   43.4480 H   0  0  0  0  0  0  0  0  0  0  0  0
   36.6940   26.9360   44.6910 H   0  0  0  0  0  0  0  0  0  0  0  0
   37.9190   25.8210   42.9800 H   0  0  0  0  0  0  0  0  0  0  0  0
   36.1780   25.5450   42.6210 H   0  0  0  0  0  0  0  0  0  0  0  0
   36.1480   27.4420   41.0880 H   0  0  0  0  0  0  0  0  0  0  0  0
   36.4160   25.6250   39.1670 C   0  0  0  0  0  3  0  0  0  0  0  0
   37.2200   25.8190   40.2700 C   0  0  0  0  0  0  0  0  0  0  0  0
   38.2460   24.8740   40.3840 C   0  0  0  0  0  0  0  0  0  0  0  0
   38.9080   24.9960   41.2520 H   0  0  0  0  0  0  0  0  0  0  0  0
   38.4820   23.8320   39.5160 C   0  0  0  0  0  0  0  0  0  0  0  0
   39.4230   22.8730   39.5220 N   0  0  0  0  0  0  0  0  0  0  0  0
   39.1840   22.1180   38.4360 C   0  0  0  0  0  0  0  0  0  0  0  0
   39.7870   21.2570   38.1720 H   0  0  0  0  0  0  0  0  0  0  0  0
   38.1020   22.6100   37.7680 N   0  0  0  0  0  0  0  0  0  0  0  0
   37.6430   23.6940   38.4340 C   0  0  0  0  0  0  0  0  0  0  0  0
   36.6130   24.5980   38.2720 C   0  0  0  0  0  3  0  0  0  0  0  0
   40.1760   22.7810   40.2570 H   0  0  0  0  0  0  0  0  0  0  0  0
   39.9580   30.3070   40.0850 C   0  0  0  0  0  0  0  0  0  0  0  0
   38.6960   29.7610   39.7580 C   0  0  0  0  0  0  0  0  0  0  0  0
   37.6990   30.5920   39.2840 C   0  0  0  0  0  0  0  0  0  0  0  0
   37.9700   31.9060   39.1500 N   0  0  0  0  0  0  0  0  0  0  0  0
   39.1790   32.4430   39.4610 C   0  0  0  0  0  0  0  0  0  0  0  0
   40.1520   31.6300   39.9230 N   0  0  0  0  0  0  0  0  0  0  0  0
   40.7600   29.6830   40.4580 H   0  0  0  0  0  0  0  0  0  0  0  0
   39.3830   33.4940   39.3490 H   0  0  0  0  0  0  0  0  0  0  0  0
   36.4110   30.0120   38.9600 C   0  0  0  0  0  0  0  0  0  0  0  0
   36.1190   29.6800   37.6700 C   0  0  0  0  0  0  0  0  0  0  0  0
   34.8880   29.1290   37.3780 C   0  0  0  0  0  0  0  0  0  0  0  0
   33.9210   28.8940   38.3460 C   0  0  0  0  0  0  0  0  0  0  0  0
   34.2760   29.2550   39.6440 C   0  0  0  0  0  0  0  0  0  0  0  0
   35.4840   29.7890   39.8930 N   0  0  0  0  0  0  0  0  0  0  0  0
   36.7570   29.8020   36.8120 H   0  0  0  0  0  0  0  0  0  0  0  0
   34.5990   28.8440   36.3760 H   0  0  0  0  0  0  0  0  0  0  0  0
   32.9500   28.4690   38.1660 H   0  0  0  0  0  0  0  0  0  0  0  0
   33.6100   29.1260   40.5020 H   0  0  0  0  0  0  0  0  0  0  0  0
  1  3  1  0  0  0  0
  2  1  2  0  0  0  0
  3  8  1  0  0  0  0
  3  4  1  0  0  0  0
  4 10  1  0  0  0  0
  4  5  1  0  0  0  0
  5  6  1  0  0  0  0
  5 11  1  0  0  0  0
  6 14  1  0  0  0  0
  7 15  1  0  0  0  0
  7  6  1  0  0  0  0
  8 17  1  6  0  0  0
  8  7  1  0  0  0  0
  9  4  1  0  0  0  0
 12  5  1  0  0  0  0
 13  6  1  0  0  0  0
 16  7  1  0  0  0  0
 18 19  1  0  0  0  0
 19 20  2  0  0  0  0
 19  8  1  0  0  0  0
 20 21  1  0  0  0  0
 22 23  1  0  0  0  0
 22 20  1  0  0  0  0
 23 29  1  0  0  0  0
 24 23  1  0  0  0  0
 25 24  1  0  0  0  0
 26 27  1  0  0  0  0
 26 24  2  0  0  0  0
 27 22  2  0  0  0  0
 28 27  1  0  0  0  0
 28 18  2  0  0  0  0
 30 36  1  0  0  0  0
 31  1  1  0  0  0  0
 31 30  2  0  0  0  0
 32 31  1  0  0  0  0
 33 32  2  0  0  0  0
 33 34  1  0  0  0  0
 34 35  2  0  0  0  0
 35 30  1  0  0  0  0
 37 34  1  0  0  0  0
 38 32  1  0  0  0  0
 38 43  1  0  0  0  0
 39 38  2  0  0  0  0
 40 39  1  0  0  0  0
 40 41  2  0  0  0  0
 41 42  1  0  0  0  0
 42 43  2  0  0  0  0
 42 47  1  0  0  0  0
 44 39  1  0  0  0  0
 45 40  1  0  0  0  0
 46 41  1  0  0  0  0
M  END
>  <minimizedAffinity>
-6.12638855

$$$$

 OpenBabel03252507213D

 47 51  0  0  1  0  0  0  0  0999 V2000
   39.2390   27.5370   39.9420 C   0  0  0  0  0  0  0  0  0  0  0  0
   39.2240   26.4500   39.3030 O   0  0  0  0  0  0  0  0  0  0  0  0
   38.8460   27.6760   41.3180 N   0  0  0  0  0  0  0  0  0  0  0  0
   39.4710   28.3910   42.4160 C   0  0  0  0  0  0  0  0  0  0  0  0
   38.4190   29.3000   43.0790 C   0  0  0  0  0  0  0  0  0  0  0  0
   37.3250   28.4490   43.6790 C   0  0  0  0  0  0  0  0  0  0  0  0
   37.4410   27.0360   43.1770 C   0  0  0  0  0  0  0  0  0  0  0  0
   37.6190   26.9980   41.6780 C   0  0  2  0  0  0  0  0  0  0  0  0
   40.1980   29.1320   41.9750 H   0  0  0  0  0  0  0  0  0  0  0  0
   39.9710   27.7610   43.1500 H   0  0  0  0  0  0  0  0  0  0  0  0
   38.9590   29.8930   43.8470 H   0  0  0  0  0  0  0  0  0  0  0  0
   38.0220   29.9350   42.2510 H   0  0  0  0  0  0  0  0  0  0  0  0
   36.3340   28.8200   43.3030 H   0  0  0  0  0  0  0  0  0  0  0  0
   37.3400   28.4260   44.7850 H   0  0  0  0  0  0  0  0  0  0  0  0
   38.2890   26.5370   43.6900 H   0  0  0  0  0  0  0  0  0  0  0  0
   36.5170   26.4630   43.3880 H   0  0  0  0  0  0  0  0  0  0  0  0
   36.7920   27.5930   41.2430 H   0  0  0  0  0  0  0  0  0  0  0  0
   38.2950   24.5390   41.5420 C   0  0  0  0  0  3  0  0  0  0  0  0
   37.5240   25.6150   41.1610 C   0  0  0  0  0  0  0  0  0  0  0  0
   36.5750   25.3010   40.1820 C   0  0  0  0  0  0  0  0  0  0  0  0
   35.9400   26.1350   39.8520 H   0  0  0  0  0  0  0  0  0  0  0  0
   36.3800   24.0610   39.6160 C   0  0  0  0  0  0  0  0  0  0  0  0
   35.5120   23.6430   38.6800 N   0  0  0  0  0  0  0  0  0  0  0  0
   35.7620   22.3340   38.5070 C   0  0  0  0  0  0  0  0  0  0  0  0
   35.2120   21.7170   37.8050 H   0  0  0  0  0  0  0  0  0  0  0  0
   36.7780   21.9510   39.3310 N   0  0  0  0  0  0  0  0  0  0  0  0
   37.1830   23.0280   40.0420 C   0  0  0  0  0  0  0  0  0  0  0  0
   38.1370   23.2810   41.0050 C   0  0  0  0  0  3  0  0  0  0  0  0
   34.7970   24.2640   38.2100 H   0  0  0  0  0  0  0  0  0  0  0  0
   41.0680   28.8690   39.0020 C   0  0  0  0  0  0  0  0  0  0  0  0
   39.6830   28.7190   39.2400 C   0  0  0  0  0  0  0  0  0  0  0  0
   38.8090   29.6940   38.7980 C   0  0  0  0  0  0  0  0  0  0  0  0
   39.3160   30.7630   38.1520 N   0  0  0  0  0  0  0  0  0  0  0  0
   40.6460   30.9190   37.9180 C   0  0  0  0  0  0  0  0  0  0  0  0
   41.4980   29.9660   38.3490 N   0  0  0  0  0  0  0  0  0  0  0  0
   41.7790   28.1230   39.3350 H   0  0  0  0  0  0  0  0  0  0  0  0
   41.0380   31.7770   37.4000 H   0  0  0  0  0  0  0  0  0  0  0  0
   37.3940   29.5230   39.0570 C   0  0  0  0  0  0  0  0  0  0  0  0
   36.7980   30.2110   40.0720 C   0  0  0  0  0  0  0  0  0  0  0  0
   35.4490   30.0360   40.3050 C   0  0  0  0  0  0  0  0  0  0  0  0
   34.6600   29.1830   39.5460 C   0  0  0  0  0  0  0  0  0  0  0  0
   35.3240   28.5070   38.5250 C   0  0  0  0  0  0  0  0  0  0  0  0
   36.6380   28.7010   38.3250 N   0  0  0  0  0  0  0  0  0  0  0  0
   37.2720   30.9030   40.7460 H   0  0  0  0  0  0  0  0  0  0  0  0
   34.9210   30.5550   41.0930 H   0  0  0  0  0  0  0  0  0  0  0  0
   33.6070   29.0140   39.6910 H   0  0  0  0  0  0  0  0  0  0  0  0
   34.8240   27.8040   37.8520 H   0  0  0  0  0  0  0  0  0  0  0  0
  1  3  1  0  0  0  0
  2  1  2  0  0  0  0
  3  8  1  0  0  0  0
  3  4  1  0  0  0  0
  4  5  1  0  0  0  0
  4 10  1  0  0  0  0
  5  6  1  0  0  0  0
  5 11  1  0  0  0  0
  6 14  1  0  0  0  0
  7 16  1  0  0  0  0
  7  6  1  0  0  0  0
  7 15  1  0  0  0  0
  8 17  1  6  0  0  0
  8  7  1  0  0  0  0
  9  4  1  0  0  0  0
 12  5  1  0  0  0  0
 13  6  1  0  0  0  0
 19 18  1  0  0  0  0
 19  8  1  0  0  0  0
 20 19  2  0  0  0  0
 21 20  1  0  0  0  0
 22 27  2  0  0  0  0
 22 20  1  0  0  0  0
 23 22  1  0  0  0  0
 24 23  1  0  0  0  0
 24 26  2  0  0  0  0
 25 24  1  0  0  0  0
 26 27  1  0  0  0  0
 27 28  1  0  0  0  0
 28 18  2  0  0  0  0
 29 23  1  0  0  0  0
 30 31  1  0  0  0  0
 30 36  1  0  0  0  0
 31  1  1  0  0  0  0
 32 38  1  0  0  0  0
 32 31  2  0  0  0  0
 33 32  1  0  0  0  0
 34 33  2  0  0  0  0
 34 35  1  0  0  0  0
 35 30  2  0  0  0  0
 37 34  1  0  0  0  0
 38 39  1  0  0  0  0
 39 40  2  0  0  0  0
 39 44  1  0  0  0  0
 40 45  1  0  0  0  0
 41 46  1  0  0  0  0
 41 40  1  0  0  0  0
 42 41  2  0  0  0  0
 43 42  1  0  0  0  0
 43 38  2  0  0  0  0
 47 42  1  0  0  0  0
M  END
>  <minimizedAffinity>
-6.0333643

$$$$

 OpenBabel03252507213D

 47 51  0  0  1  0  0  0  0  0999 V2000
   38.8760   28.0070   39.8360 C   0  0  0  0  0  0  0  0  0  0  0  0
   39.1430   29.0780   39.2270 O   0  0  0  0  0  0  0  0  0  0  0  0
   37.9640   27.9060   40.9430 N   0  0  0  0  0  0  0  0  0  0  0  0
   36.9200   26.9400   41.2270 C   0  0  0  0  0  0  0  0  0  0  0  0
   37.1200   26.3980   42.6550 C   0  0  0  0  0  0  0  0  0  0  0  0
   36.9550   27.5240   43.6480 C   0  0  0  0  0  0  0  0  0  0  0  0
   36.9610   28.8460   42.9300 C   0  0  0  0  0  0  0  0  0  0  0  0
   38.1080   28.9340   41.9520 C   0  0  2  0  0  0  0  0  0  0  0  0
   37.1080   26.0300   40.5870 H   0  0  0  0  0  0  0  0  0  0  0  0
   35.9040   27.3020   41.0790 H   0  0  0  0  0  0  0  0  0  0  0  0
   36.3610   25.6000   42.7960 H   0  0  0  0  0  0  0  0  0  0  0  0
   38.1640   26.0030   42.6710 H   0  0  0  0  0  0  0  0  0  0  0  0
   37.8530   27.5440   44.3220 H   0  0  0  0  0  0  0  0  0  0  0  0
   36.0230   27.4560   44.2420 H   0  0  0  0  0  0  0  0  0  0  0  0
   35.9880   28.9840   42.4160 H   0  0  0  0  0  0  0  0  0  0  0  0
   37.1040   29.6830   43.6410 H   0  0  0  0  0  0  0  0  0  0  0  0
   39.0290   28.6930   42.5170 H   0  0  0  0  0  0  0  0  0  0  0  0
   37.2620   31.0260   40.7560 C   0  0  0  0  0  3  0  0  0  0  0  0
   38.2400   30.3010   41.4010 C   0  0  0  0  0  0  0  0  0  0  0  0
   39.4560   30.9830   41.5140 C   0  0  0  0  0  0  0  0  0  0  0  0
   40.2610   30.4360   42.0230 H   0  0  0  0  0  0  0  0  0  0  0  0
   39.7150   32.2520   41.0480 C   0  0  0  0  0  0  0  0  0  0  0  0
   40.8290   33.0020   41.0960 N   0  0  0  0  0  0  0  0  0  0  0  0
   40.5180   34.1590   40.4890 C   0  0  0  0  0  0  0  0  0  0  0  0
   41.2260   34.9730   40.3730 H   0  0  0  0  0  0  0  0  0  0  0  0
   39.2220   34.1210   40.0690 N   0  0  0  0  0  0  0  0  0  0  0  0
   38.6950   32.9240   40.4130 C   0  0  0  0  0  0  0  0  0  0  0  0
   37.4730   32.2980   40.2730 C   0  0  0  0  0  3  0  0  0  0  0  0
   41.7370   32.6920   41.5380 H   0  0  0  0  0  0  0  0  0  0  0  0
   39.0430   26.1750   38.2170 C   0  0  0  0  0  0  0  0  0  0  0  0
   39.5330   26.8010   39.3860 C   0  0  0  0  0  0  0  0  0  0  0  0
   40.6100   26.2470   40.0510 C   0  0  0  0  0  0  0  0  0  0  0  0
   41.1580   25.1190   39.5570 N   0  0  0  0  0  0  0  0  0  0  0  0
   40.6960   24.5080   38.4340 C   0  0  0  0  0  0  0  0  0  0  0  0
   39.6450   25.0500   37.7840 N   0  0  0  0  0  0  0  0  0  0  0  0
   38.2010   26.5830   37.6720 H   0  0  0  0  0  0  0  0  0  0  0  0
   41.1430   23.6080   38.0480 H   0  0  0  0  0  0  0  0  0  0  0  0
   41.0930   26.9030   41.2500 C   0  0  0  0  0  0  0  0  0  0  0  0
   40.7650   26.4060   42.4780 C   0  0  0  0  0  0  0  0  0  0  0  0
   41.2330   27.0420   43.6090 C   0  0  0  0  0  0  0  0  0  0  0  0
   42.0300   28.1770   43.5570 C   0  0  0  0  0  0  0  0  0  0  0  0
   42.3310   28.6370   42.2780 C   0  0  0  0  0  0  0  0  0  0  0  0
   41.8590   27.9940   41.1970 N   0  0  0  0  0  0  0  0  0  0  0  0
   40.1570   25.5420   42.6820 H   0  0  0  0  0  0  0  0  0  0  0  0
   41.0080   26.6950   44.6090 H   0  0  0  0  0  0  0  0  0  0  0  0
   42.4160   28.7050   44.4120 H   0  0  0  0  0  0  0  0  0  0  0  0
   42.9480   29.5210   42.0930 H   0  0  0  0  0  0  0  0  0  0  0  0
  1  3  1  0  0  0  0
  2  1  2  0  0  0  0
  3  4  1  0  0  0  0
  3  8  1  0  0  0  0
  4  5  1  0  0  0  0
  5 12  1  0  0  0  0
  5 11  1  0  0  0  0
  5  6  1  0  0  0  0
  6 14  1  0  0  0  0
  6 13  1  0  0  0  0
  7 16  1  0  0  0  0
  7  6  1  0  0  0  0
  8 17  1  1  0  0  0
  8  7  1  0  0  0  0
  9  4  1  0  0  0  0
 10  4  1  0  0  0  0
 15  7  1  0  0  0  0
 18 19  1  0  0  0  0
 19 20  2  0  0  0  0
 19  8  1  0  0  0  0
 20 21  1  0  0  0  0
 22 23  1  0  0  0  0
 22 20  1  0  0  0  0
 23 29  1  0  0  0  0
 24 23  1  0  0  0  0
 25 24  1  0  0  0  0
 26 27  1  0  0  0  0
 26 24  2  0  0  0  0
 27 22  2  0  0  0  0
 28 27  1  0  0  0  0
 28 18  2  0  0  0  0
 30 31  1  0  0  0  0
 31  1  1  0  0  0  0
 31 32  2  0  0  0  0
 32 38  1  0  0  0  0
 33 32  1  0  0  0  0
 34 33  2  0  0  0  0
 35 30  2  0  0  0  0
 35 34  1  0  0  0  0
 36 30  1  0  0  0  0
 37 34  1  0  0  0  0
 38 39  1  0  0  0  0
 39 44  1  0  0  0  0
 39 40  2  0  0  0  0
 40 45  1  0  0  0  0
 41 40  1  0  0  0  0
 41 46  1  0  0  0  0
 42 41  2  0  0  0  0
 43 38  2  0  0  0  0
 43 42  1  0  0  0  0
 47 42  1  0  0  0  0
M  END
>  <minimizedAffinity>
-5.89726448

$$$$

 OpenBabel03252507213D

 47 51  0  0  1  0  0  0  0  0999 V2000
   38.5320   28.2470   38.7220 C   0  0  0  0  0  0  0  0  0  0  0  0
   39.7140   28.4880   38.3570 O   0  0  0  0  0  0  0  0  0  0  0  0
   37.6120   29.2390   39.2080 N   0  0  0  0  0  0  0  0  0  0  0  0
   36.2130   29.4690   38.9010 C   0  0  0  0  0  0  0  0  0  0  0  0
   35.4220   29.5530   40.2200 C   0  0  0  0  0  0  0  0  0  0  0  0
   35.8950   30.7460   41.0160 C   0  0  0  0  0  0  0  0  0  0  0  0
   37.1750   31.2770   40.4300 C   0  0  0  0  0  0  0  0  0  0  0  0
   38.1650   30.1670   40.1730 C   0  0  2  0  0  0  0  0  0  0  0  0
   35.8060   28.5300   38.4260 H   0  0  0  0  0  0  0  0  0  0  0  0
   36.0160   30.3300   38.2640 H   0  0  0  0  0  0  0  0  0  0  0  0
   34.3510   29.6340   39.9370 H   0  0  0  0  0  0  0  0  0  0  0  0
   35.6510   28.6000   40.7560 H   0  0  0  0  0  0  0  0  0  0  0  0
   36.1580   30.4050   42.0530 H   0  0  0  0  0  0  0  0  0  0  0  0
   35.1600   31.5720   41.0510 H   0  0  0  0  0  0  0  0  0  0  0  0
   36.9440   31.8290   39.4950 H   0  0  0  0  0  0  0  0  0  0  0  0
   37.6740   31.9720   41.1330 H   0  0  0  0  0  0  0  0  0  0  0  0
   38.2700   29.6070   41.1230 H   0  0  0  0  0  0  0  0  0  0  0  0
   40.6920   30.4380   40.4150 C   0  0  0  0  0  3  0  0  0  0  0  0
   39.4900   30.7050   39.7970 C   0  0  0  0  0  0  0  0  0  0  0  0
   39.6030   31.5820   38.7120 C   0  0  0  0  0  0  0  0  0  0  0  0
   38.6640   31.8190   38.1940 H   0  0  0  0  0  0  0  0  0  0  0  0
   40.7700   32.1540   38.2570 C   0  0  0  0  0  0  0  0  0  0  0  0
   41.0010   32.9990   37.2390 N   0  0  0  0  0  0  0  0  0  0  0  0
   42.3250   33.2320   37.2490 C   0  0  0  0  0  0  0  0  0  0  0  0
   42.8140   33.8850   36.5350 H   0  0  0  0  0  0  0  0  0  0  0  0
   42.9030   32.5340   38.2670 N   0  0  0  0  0  0  0  0  0  0  0  0
   41.9380   31.8450   38.9170 C   0  0  0  0  0  0  0  0  0  0  0  0
   41.8840   30.9860   39.9950 C   0  0  0  0  0  3  0  0  0  0  0  0
   40.2530   33.3720   36.5920 H   0  0  0  0  0  0  0  0  0  0  0  0
   37.8010   26.3440   37.3620 C   0  0  0  0  0  0  0  0  0  0  0  0
   38.0740   26.8790   38.6410 C   0  0  0  0  0  0  0  0  0  0  0  0
   37.8970   26.0860   39.7600 C   0  0  0  0  0  0  0  0  0  0  0  0
   37.4660   24.8200   39.5870 N   0  0  0  0  0  0  0  0  0  0  0  0
   37.2000   24.2950   38.3620 C   0  0  0  0  0  0  0  0  0  0  0  0
   37.3730   25.0700   37.2700 N   0  0  0  0  0  0  0  0  0  0  0  0
   37.9290   26.9380   36.4660 H   0  0  0  0  0  0  0  0  0  0  0  0
   36.8560   23.2830   38.2360 H   0  0  0  0  0  0  0  0  0  0  0  0
   38.1790   26.6560   41.0620 C   0  0  0  0  0  0  0  0  0  0  0  0
   37.1560   26.9330   41.9200 C   0  0  0  0  0  0  0  0  0  0  0  0
   37.4410   27.4750   43.1560 C   0  0  0  0  0  0  0  0  0  0  0  0
   38.7350   27.7560   43.5730 C   0  0  0  0  0  0  0  0  0  0  0  0
   39.7370   27.4520   42.6550 C   0  0  0  0  0  0  0  0  0  0  0  0
   39.4240   26.9240   41.4600 N   0  0  0  0  0  0  0  0  0  0  0  0
   36.1050   26.7770   41.7430 H   0  0  0  0  0  0  0  0  0  0  0  0
   36.6730   27.7160   43.8790 H   0  0  0  0  0  0  0  0  0  0  0  0
   39.0040   28.1780   44.5260 H   0  0  0  0  0  0  0  0  0  0  0  0
   40.7990   27.6220   42.8540 H   0  0  0  0  0  0  0  0  0  0  0  0
  1  3  1  0  0  0  0
  2  1  2  0  0  0  0
  3  8  1  0  0  0  0
  4  3  1  0  0  0  0
  4  5  1  0  0  0  0
  5 12  1  0  0  0  0
  5  6  1  0  0  0  0
  6 14  1  0  0  0  0
  6 13  1  0  0  0  0
  7  6  1  0  0  0  0
  7 16  1  0  0  0  0
  8  7  1  0  0  0  0
  8 17  1  1  0  0  0
  9  4  1  0  0  0  0
 10  4  1  0  0  0  0
 11  5  1  0  0  0  0
 15  7  1  0  0  0  0
 19  8  1  0  0  0  0
 19 18  2  0  0  0  0
 20 19  1  0  0  0  0
 21 20  1  0  0  0  0
 22 20  2  0  0  0  0
 22 27  1  0  0  0  0
 23 24  1  0  0  0  0
 23 22  1  0  0  0  0
 24 26  2  0  0  0  0
 25 24  1  0  0  0  0
 26 27  1  0  0  0  0
 27 28  2  0  0  0  0
 28 18  1  0  0  0  0
 29 23  1  0  0  0  0
 30 31  1  0  0  0  0
 31  1  1  0  0  0  0
 31 32  2  0  0  0  0
 32 38  1  0  0  0  0
 33 32  1  0  0  0  0
 34 33  2  0  0  0  0
 35 30  2  0  0  0  0
 35 34  1  0  0  0  0
 36 30  1  0  0  0  0
 37 34  1  0  0  0  0
 38 43  2  0  0  0  0
 38 39  1  0  0  0  0
 39 40  2  0  0  0  0
 40 41  1  0  0  0  0
 40 45  1  0  0  0  0
 41 46  1  0  0  0  0
 42 47  1  0  0  0  0
 42 41  2  0  0  0  0
 43 42  1  0  0  0  0
 44 39  1  0  0  0  0
M  END
>  <minimizedAffinity>
-5.89525843

$$$$
