
 OpenBabel03252508173D

 50 55  0  0  1  0  0  0  0  0999 V2000
   46.8250   31.6350   48.2550 C   0  0  1  0  0  0  0  0  0  0  0  0
   46.3450   30.5940   49.2080 C   0  0  0  0  0  0  0  0  0  0  0  0
   47.6160   31.2640   49.4450 C   0  0  1  0  0  0  0  0  0  0  0  0
   46.0880   32.4890   48.2410 H   0  0  0  0  0  0  0  0  0  0  0  0
   46.4180   29.5160   48.9090 H   0  0  0  0  0  0  0  0  0  0  0  0
   45.4970   30.7640   49.8990 H   0  0  0  0  0  0  0  0  0  0  0  0
   47.6250   32.0140   50.2640 H   0  0  0  0  0  0  0  0  0  0  0  0
   48.9340   30.5860   49.2320 C   0  0  2  0  0  0  0  0  0  0  0  0
   49.6290   30.1750   50.5550 C   0  0  0  0  0  0  0  0  0  0  0  0
   50.1760   31.2920   49.7660 C   0  0  1  0  0  0  0  0  0  0  0  0
   49.0630   29.7930   48.4840 H   0  0  0  0  0  0  0  0  0  0  0  0
   49.1260   30.4320   51.5080 H   0  0  0  0  0  0  0  0  0  0  0  0
   50.2100   29.2610   50.6100 H   0  0  0  0  0  0  0  0  0  0  0  0
   50.0070   32.3210   50.1520 H   0  0  0  0  0  0  0  0  0  0  0  0
   51.7070   30.0530   48.2380 C   0  0  0  0  0  3  0  0  0  0  0  0
   51.4710   31.0940   49.1080 C   0  0  0  0  0  0  0  0  0  0  0  0
   52.5490   31.9580   49.3320 C   0  0  0  0  0  0  0  0  0  0  0  0
   52.3440   32.7850   50.0310 H   0  0  0  0  0  0  0  0  0  0  0  0
   53.7890   31.8320   48.7510 C   0  0  0  0  0  0  0  0  0  0  0  0
   54.9050   32.5890   48.8780 N   0  0  0  0  0  0  0  0  0  0  0  0
   55.8060   32.0070   48.0900 C   0  0  0  0  0  0  0  0  0  0  0  0
   56.8050   32.3790   47.9750 H   0  0  0  0  0  0  0  0  0  0  0  0
   55.2790   30.9090   47.4750 N   0  0  0  0  0  0  0  0  0  0  0  0
   54.0030   30.7830   47.8820 C   0  0  0  0  0  0  0  0  0  0  0  0
   52.9510   29.9100   47.6420 C   0  0  0  0  0  3  0  0  0  0  0  0
   55.0410   33.4520   49.4700 H   0  0  0  0  0  0  0  0  0  0  0  0
   47.2100   31.1250   46.9130 C   0  0  0  0  0  0  0  0  0  0  0  0
   48.2060   30.7600   46.7570 H   0  0  0  0  0  0  0  0  0  0  0  0
   46.5000   30.2800   46.6760 H   0  0  0  0  0  0  0  0  0  0  0  0
   46.0970   33.0570   46.1550 C   0  0  0  0  0  3  0  0  0  0  0  0
   46.9330   32.1580   45.8470 C   0  0  0  0  0  3  0  0  0  0  0  0
   44.5500   35.9060   44.3980 C   0  0  0  0  0  0  0  0  0  0  0  0
   45.1750   35.8910   43.1650 C   0  0  0  0  0  0  0  0  0  0  0  0
   46.1040   34.9090   42.9650 C   0  0  0  0  0  0  0  0  0  0  0  0
   46.3650   34.0150   43.9610 N   0  0  0  0  0  0  0  0  0  0  0  0
   45.7380   34.0590   45.1470 C   0  0  0  0  0  0  0  0  0  0  0  0
   44.8390   35.0120   45.3370 N   0  0  0  0  0  0  0  0  0  0  0  0
   43.8110   36.6950   44.5450 H   0  0  0  0  0  0  0  0  0  0  0  0
   45.0030   36.5670   42.3640 H   0  0  0  0  0  0  0  0  0  0  0  0
   46.8440   34.7650   41.7190 C   0  0  0  0  0  0  0  0  0  0  0  0
   48.0480   35.3530   41.4630 C   0  0  0  0  0  0  0  0  0  0  0  0
   48.7400   35.2100   40.2750 C   0  0  0  0  0  0  0  0  0  0  0  0
   48.2130   34.4330   39.2710 C   0  0  0  0  0  0  0  0  0  0  0  0
   47.0060   33.8190   39.4740 C   0  0  0  0  0  0  0  0  0  0  0  0
   46.3660   34.0030   40.6790 C   0  0  0  0  0  0  0  0  0  0  0  0
   48.5060   35.9840   42.2410 H   0  0  0  0  0  0  0  0  0  0  0  0
   49.6930   35.6950   40.1170 H   0  0  0  0  0  0  0  0  0  0  0  0
   48.7110   34.2860   38.3220 H   0  0  0  0  0  0  0  0  0  0  0  0
   46.5780   33.2000   38.6830 H   0  0  0  0  0  0  0  0  0  0  0  0
   45.4040   33.4750   40.7610 H   0  0  0  0  0  0  0  0  0  0  0  0
  1  4  1  1  0  0  0
  1  2  1  0  0  0  0
  1  3  1  0  0  0  0
  2  3  1  0  0  0  0
  2  6  1  0  0  0  0
  3  7  1  1  0  0  0
  5  2  1  0  0  0  0
  8 11  1  6  0  0  0
  8  3  1  0  0  0  0
  8 10  1  0  0  0  0
  8  9  1  0  0  0  0
  9 13  1  0  0  0  0
  9 12  1  0  0  0  0
 10 14  1  1  0  0  0
 10  9  1  0  0  0  0
 15 16  1  0  0  0  0
 16 17  2  0  0  0  0
 16 10  1  0  0  0  0
 17 18  1  0  0  0  0
 19 20  1  0  0  0  0
 19 17  1  0  0  0  0
 20 26  1  0  0  0  0
 21 20  1  0  0  0  0
 22 21  1  0  0  0  0
 23 24  1  0  0  0  0
 23 21  2  0  0  0  0
 24 19  2  0  0  0  0
 25 24  1  0  0  0  0
 25 15  2  0  0  0  0
 27  1  1  0  0  0  0
 28 27  1  0  0  0  0
 29 27  1  0  0  0  0
 31 30  2  0  0  0  0
 31 27  1  0  0  0  0
 32 38  1  0  0  0  0
 32 37  1  0  0  0  0
 33 32  2  0  0  0  0
 34 33  1  0  0  0  0
 34 35  2  0  0  0  0
 35 36  1  0  0  0  0
 36 37  2  0  0  0  0
 36 30  1  0  0  0  0
 39 33  1  0  0  0  0
 40 34  1  0  0  0  0
 41 40  1  0  0  0  0
 41 46  1  0  0  0  0
 42 41  2  0  0  0  0
 43 44  2  0  0  0  0
 43 42  1  0  0  0  0
 44 45  1  0  0  0  0
 45 50  1  0  0  0  0
 45 40  2  0  0  0  0
 47 42  1  0  0  0  0
 48 43  1  0  0  0  0
 49 44  1  0  0  0  0
M  END
>  <minimizedAffinity>
-6.79105759

>  <minimizedRMSD>
0.904266715

$$$$
