
 OpenBabel03252508323D

 35 38  0  0  1  0  0  0  0  0999 V2000
   43.8930   34.1860   41.4560 N   0  0  0  0  0  0  0  0  0  0  0  0
   43.6150   32.8980   40.9100 C   0  0  2  0  0  0  0  0  0  0  0  0
   43.1860   32.9750   39.4640 C   0  0  0  0  0  0  0  0  0  0  0  0
   42.1220   33.9110   39.2730 N   0  0  0  0  0  0  0  0  0  0  0  0
   42.3220   35.1700   39.8790 C   0  0  0  0  0  0  0  0  0  0  0  0
   43.6660   35.3040   40.5620 C   0  0  0  0  0  0  0  0  0  0  0  0
   44.5690   32.3170   40.9290 H   0  0  0  0  0  0  0  0  0  0  0  0
   44.0640   33.3260   38.8820 H   0  0  0  0  0  0  0  0  0  0  0  0
   42.8890   31.9990   39.0840 H   0  0  0  0  0  0  0  0  0  0  0  0
   41.2380   33.4840   39.6470 H   0  0  0  0  0  0  0  0  0  0  0  0
   41.5530   35.4970   40.6060 H   0  0  0  0  0  0  0  0  0  0  0  0
   42.3290   35.9360   39.0570 H   0  0  0  0  0  0  0  0  0  0  0  0
   44.4230   35.1720   39.7370 H   0  0  0  0  0  0  0  0  0  0  0  0
   43.6950   36.2870   41.0070 H   0  0  0  0  0  0  0  0  0  0  0  0
   41.2620   32.4090   41.6530 C   0  0  0  0  0  3  0  0  0  0  0  0
   42.6060   32.0940   41.6060 C   0  0  0  0  0  0  0  0  0  0  0  0
   42.8720   30.8980   42.2900 C   0  0  0  0  0  0  0  0  0  0  0  0
   43.9170   30.5550   42.3120 H   0  0  0  0  0  0  0  0  0  0  0  0
   41.9460   30.1190   42.9310 C   0  0  0  0  0  0  0  0  0  0  0  0
   42.0720   28.9660   43.6130 N   0  0  0  0  0  0  0  0  0  0  0  0
   40.8420   28.6300   44.0380 C   0  0  0  0  0  0  0  0  0  0  0  0
   40.6970   27.7100   44.6260 H   0  0  0  0  0  0  0  0  0  0  0  0
   39.9780   29.5670   43.6190 N   0  0  0  0  0  0  0  0  0  0  0  0
   40.6300   30.5090   42.9280 C   0  0  0  0  0  0  0  0  0  0  0  0
   40.2760   31.6740   42.2780 C   0  0  0  0  0  3  0  0  0  0  0  0
   42.9710   28.4390   43.7750 H   0  0  0  0  0  0  0  0  0  0  0  0
   44.0820   35.4510   43.5040 C   0  0  0  0  0  0  0  0  0  0  0  0
   44.3630   34.2920   42.7950 C   0  0  0  0  0  0  0  0  0  0  0  0
   45.0760   33.3080   43.4450 C   0  0  0  0  0  0  0  0  0  0  0  0
   45.4670   33.5040   44.7220 N   0  0  0  0  0  0  0  0  0  0  0  0
   45.1820   34.6380   45.3900 C   0  0  0  0  0  0  0  0  0  0  0  0
   44.4960   35.5940   44.7770 N   0  0  0  0  0  0  0  0  0  0  0  0
   43.5400   36.3130   43.1550 H   0  0  0  0  0  0  0  0  0  0  0  0
   45.3250   32.3990   42.9400 H   0  0  0  0  0  0  0  0  0  0  0  0
   45.5630   34.6470   46.4070 H   0  0  0  0  0  0  0  0  0  0  0  0
  1 28  1  0  0  0  0
  2  7  1  1  0  0  0
  2  1  1  0  0  0  0
  2 16  1  0  0  0  0
  3  2  1  0  0  0  0
  4  3  1  0  0  0  0
  4 10  1  0  0  0  0
  4  5  1  0  0  0  0
  5  6  1  0  0  0  0
  5 11  1  0  0  0  0
  6 14  1  0  0  0  0
  6  1  1  0  0  0  0
  8  3  1  0  0  0  0
  9  3  1  0  0  0  0
 12  5  1  0  0  0  0
 13  6  1  0  0  0  0
 15 25  1  0  0  0  0
 16 15  2  0  0  0  0
 16 17  1  0  0  0  0
 17 18  1  0  0  0  0
 17 19  2  0  0  0  0
 19 20  1  0  0  0  0
 20 26  1  0  0  0  0
 20 21  1  0  0  0  0
 21 22  1  0  0  0  0
 23 21  2  0  0  0  0
 24 19  1  0  0  0  0
 24 23  1  0  0  0  0
 25 24  2  0  0  0  0
 27 32  1  0  0  0  0
 28 29  1  0  0  0  0
 28 27  2  0  0  0  0
 29 30  2  0  0  0  0
 30 31  1  0  0  0  0
 31 35  1  0  0  0  0
 32 31  2  0  0  0  0
 33 27  1  0  0  0  0
 34 29  1  0  0  0  0
M  END
>  <minimizedAffinity>
-4.63671684

>  <minimizedRMSD>
1.34589434

$$$$
