REMARK  Name = 
REMARK  2 active torsions:
REMARK  status: ('A' for Active; 'I' for Inactive)
REMARK    1  A    between atoms: C_5  and  C_9
REMARK    2  A    between atoms: C_13  and  C_21
REMARK                            x       y       z     vdW  Elec       q    Type
REMARK                         _______ _______ _______ _____ _____    ______ ____
ROOT
ATOM      1  F   UNL     1      44.300  33.945  47.667  0.00  0.00    +0.000 F 
ATOM      2  C   UNL     1      45.284  33.028  47.527  0.00  0.00    +0.000 A 
ATOM      3  C   UNL     1      46.020  33.028  46.368  0.00  0.00    +0.000 A 
ATOM      4  C   UNL     1      47.008  32.099  46.239  0.00  0.00    +0.000 A 
ATOM      5  C   UNL     1      47.265  31.186  47.236  0.00  0.00    +0.000 A 
ATOM      6  C   UNL     1      46.533  31.174  48.407  0.00  0.00    +0.000 A 
ATOM      7  C   UNL     1      45.516  32.133  48.535  0.00  0.00    +0.000 A 
ATOM      8  H   UNL     1      47.627  32.049  45.341  0.00  0.00    +0.000 HD
ATOM      9  H   UNL     1      48.060  30.440  47.131  0.00  0.00    +0.000 HD
ATOM     10  H   UNL     1      46.758  30.451  49.164  0.00  0.00    +0.000 HD
ENDROOT
BRANCH   7  12
ATOM     11  C   UNL     1      43.397  32.170  49.880  0.00  0.00    +0.000 A 
ATOM     12  C   UNL     1      44.777  32.087  49.770  0.00  0.00    +0.000 A 
ATOM     13  C   UNL     1      45.474  31.948  50.971  0.00  0.00    +0.000 A 
ATOM     14  H   UNL     1      46.571  31.875  50.983  0.00  0.00    +0.000 HD
ATOM     15  C   UNL     1      44.888  31.891  52.218  0.00  0.00    +0.000 A 
ATOM     16  N   UNL     1      45.359  31.764  53.461  0.00  0.00    +0.000 N 
ATOM     17  C   UNL     1      44.300  31.768  54.314  0.00  0.00    +0.000 A 
ATOM     18  H   UNL     1      44.465  31.675  55.380  0.00  0.00    +0.000 HD
ATOM     19  N   UNL     1      43.178  31.899  53.585  0.00  0.00    +0.000 NA
ATOM     20  C   UNL     1      43.501  31.979  52.263  0.00  0.00    +0.000 A 
ATOM     21  C   UNL     1      42.740  32.119  51.106  0.00  0.00    +0.000 A 
ATOM     22  H   UNL     1      46.385  31.675  53.723  0.00  0.00    +0.000 HD
ENDBRANCH   7  12
BRANCH   3  27
ATOM     23  C   UNL     1      44.551  35.869  44.586  0.00  0.00    +0.000 A 
ATOM     24  C   UNL     1      45.202  35.836  43.339  0.00  0.00    +0.000 A 
ATOM     25  C   UNL     1      46.151  34.813  43.142  0.00  0.00    +0.000 A 
ATOM     26  N   UNL     1      46.380  33.931  44.150  0.00  0.00    +0.000 NA
ATOM     27  C   UNL     1      45.733  34.001  45.325  0.00  0.00    +0.000 A 
ATOM     28  N   UNL     1      44.829  34.964  45.531  0.00  0.00    +0.000 NA
ATOM     29  H   UNL     1      43.833  36.663  44.700  0.00  0.00    +0.000 HD
ATOM     30  H   UNL     1      45.051  36.513  42.515  0.00  0.00    +0.000 HD
ATOM     31  H   UNL     1      46.732  34.657  42.241  0.00  0.00    +0.000 HD
ENDBRANCH   3  27
TORSDOF 2
