
 OpenBabel03252508323D

 35 38  0  0  1  0  0  0  0  0999 V2000
   44.2320   34.4790   41.3830 N   0  0  0  0  0  0  0  0  0  0  0  0
   43.8720   33.5820   40.3340 C   0  0  2  0  0  0  0  0  0  0  0  0
   42.8240   34.1700   39.4190 C   0  0  0  0  0  0  0  0  0  0  0  0
   41.6990   34.6660   40.1480 N   0  0  0  0  0  0  0  0  0  0  0  0
   42.0200   35.4850   41.2520 C   0  0  0  0  0  0  0  0  0  0  0  0
   43.5050   35.7320   41.4080 C   0  0  0  0  0  0  0  0  0  0  0  0
   44.7850   33.4190   39.7090 H   0  0  0  0  0  0  0  0  0  0  0  0
   43.2960   35.0240   38.8890 H   0  0  0  0  0  0  0  0  0  0  0  0
   42.4910   33.4460   38.6770 H   0  0  0  0  0  0  0  0  0  0  0  0
   41.1340   33.8440   40.4800 H   0  0  0  0  0  0  0  0  0  0  0  0
   41.6390   35.1560   42.2390 H   0  0  0  0  0  0  0  0  0  0  0  0
   41.5690   36.4950   41.0570 H   0  0  0  0  0  0  0  0  0  0  0  0
   43.8090   36.2620   40.4600 H   0  0  0  0  0  0  0  0  0  0  0  0
   43.6300   36.3420   42.2890 H   0  0  0  0  0  0  0  0  0  0  0  0
   42.6580   32.0200   41.8880 C   0  0  0  0  0  3  0  0  0  0  0  0
   43.3850   32.2600   40.7370 C   0  0  0  0  0  0  0  0  0  0  0  0
   43.5740   31.0810   40.0020 C   0  0  0  0  0  0  0  0  0  0  0  0
   44.1440   31.1620   39.0650 H   0  0  0  0  0  0  0  0  0  0  0  0
   43.1150   29.8380   40.3480 C   0  0  0  0  0  0  0  0  0  0  0  0
   43.2300   28.6450   39.7370 N   0  0  0  0  0  0  0  0  0  0  0  0
   42.5890   27.7500   40.5100 C   0  0  0  0  0  0  0  0  0  0  0  0
   42.5500   26.6930   40.2050 H   0  0  0  0  0  0  0  0  0  0  0  0
   42.0930   28.3910   41.5780 N   0  0  0  0  0  0  0  0  0  0  0  0
   42.4000   29.6920   41.5100 C   0  0  0  0  0  0  0  0  0  0  0  0
   42.1650   30.8000   42.2980 C   0  0  0  0  0  3  0  0  0  0  0  0
   43.7280   28.4630   38.8260 H   0  0  0  0  0  0  0  0  0  0  0  0
   44.9900   34.2340   43.6620 C   0  0  0  0  0  0  0  0  0  0  0  0
   45.2480   34.1050   42.3050 C   0  0  0  0  0  0  0  0  0  0  0  0
   46.4800   33.6080   41.9400 C   0  0  0  0  0  0  0  0  0  0  0  0
   47.3720   33.2720   42.8970 N   0  0  0  0  0  0  0  0  0  0  0  0
   47.0980   33.4060   44.2080 C   0  0  0  0  0  0  0  0  0  0  0  0
   45.9150   33.8830   44.5740 N   0  0  0  0  0  0  0  0  0  0  0  0
   44.0870   34.6010   44.1210 H   0  0  0  0  0  0  0  0  0  0  0  0
   46.7320   33.4960   40.9070 H   0  0  0  0  0  0  0  0  0  0  0  0
   47.9130   33.0950   44.8540 H   0  0  0  0  0  0  0  0  0  0  0  0
  1  6  1  0  0  0  0
  1 28  1  0  0  0  0
  2  7  1  6  0  0  0
  2 16  1  0  0  0  0
  2  1  1  0  0  0  0
  3  4  1  0  0  0  0
  3  2  1  0  0  0  0
  4 10  1  0  0  0  0
  4  5  1  0  0  0  0
  5  6  1  0  0  0  0
  5 11  1  0  0  0  0
  6 14  1  0  0  0  0
  8  3  1  0  0  0  0
  9  3  1  0  0  0  0
 12  5  1  0  0  0  0
 13  6  1  0  0  0  0
 15 25  1  0  0  0  0
 16 15  2  0  0  0  0
 17 19  2  0  0  0  0
 17 16  1  0  0  0  0
 18 17  1  0  0  0  0
 19 24  1  0  0  0  0
 20 19  1  0  0  0  0
 20 21  1  0  0  0  0
 21 23  2  0  0  0  0
 22 21  1  0  0  0  0
 24 23  1  0  0  0  0
 24 25  2  0  0  0  0
 26 20  1  0  0  0  0
 27 33  1  0  0  0  0
 27 32  1  0  0  0  0
 28 27  2  0  0  0  0
 29 28  1  0  0  0  0
 29 30  2  0  0  0  0
 30 31  1  0  0  0  0
 31 32  2  0  0  0  0
 31 35  1  0  0  0  0
 34 29  1  0  0  0  0
M  END
>  <minimizedAffinity>
-3.49682188

>  <minimizedRMSD>
1.18322897

$$$$
