
     RDKit          3D

 30 32  0  0  0  0  0  0  0  0999 V2000
   47.0881   34.3850   43.0934 C   0  0  0  0  0  0  0  0  0  0  0  0
   45.7752   34.6018   43.5020 C   0  0  0  0  0  0  0  0  0  0  0  0
   45.2612   33.7650   44.5035 C   0  0  0  0  0  0  0  0  0  0  0  0
   46.0578   32.8022   45.0146 N   0  0  0  0  0  0  0  0  0  0  0  0
   47.3267   32.6248   44.5903 C   0  0  0  0  0  0  0  0  0  0  0  0
   47.8471   33.4051   43.6374 N   0  0  0  0  0  0  0  0  0  0  0  0
   44.9830   35.6841   42.8799 C   0  0  0  0  0  0  0  0  0  0  0  0
   45.6213   36.8991   43.0653 F   0  0  0  0  0  0  0  0  0  0  0  0
   44.9521   35.4725   41.5092 F   0  0  0  0  0  0  0  0  0  0  0  0
   43.7195   35.8006   43.3418 F   0  0  0  0  0  0  0  0  0  0  0  0
   47.5768   35.1999   42.1235 O   0  0  0  0  0  0  0  0  0  0  0  0
   48.8745   35.1835   41.5792 C   0  0  0  0  0  0  0  0  0  0  0  0
   49.7647   35.4917   42.6099 F   0  0  0  0  0  0  0  0  0  0  0  0
   49.1312   33.9775   41.0095 F   0  0  0  0  0  0  0  0  0  0  0  0
   49.0099   36.2254   40.6694 F   0  0  0  0  0  0  0  0  0  0  0  0
   44.2468   33.9300   44.8216 H   0  0  0  0  0  0  0  0  0  0  0  0
   48.5976   30.4920   44.4765 C   0  0  0  0  0  0  0  0  0  0  0  0
   48.0844   31.5493   45.2222 C   0  0  0  0  0  0  0  0  0  0  0  0
   48.2965   31.5777   46.5752 C   0  0  0  0  0  0  0  0  0  0  0  0
   47.9106   32.3864   47.1847 H   0  0  0  0  0  0  0  0  0  0  0  0
   49.0154   30.5526   47.1583 C   0  0  0  0  0  0  0  0  0  0  0  0
   49.3320   30.3969   48.4706 N   0  0  0  0  0  0  0  0  0  0  0  0
   50.0408   29.2343   48.5032 C   0  0  0  0  0  0  0  0  0  0  0  0
   50.4136   28.8879   49.4667 H   0  0  0  0  0  0  0  0  0  0  0  0
   50.1493   28.7096   47.2704 N   0  0  0  0  0  0  0  0  0  0  0  0
   49.5149   29.5142   46.3985 C   0  0  0  0  0  0  0  0  0  0  0  0
   49.3257   29.4446   45.0340 C   0  0  0  0  0  0  0  0  0  0  0  0
   48.4389   30.4565   43.4134 H   0  0  0  0  0  0  0  0  0  0  0  0
   49.0807   31.0338   49.2613 H   0  0  0  0  0  0  0  0  0  0  0  0
   49.7211   28.6333   44.4707 H   0  0  0  0  0  0  0  0  0  0  0  0
  1  2  2  0
  1  6  1  0
  2  3  1  0
  3  4  2  0
  5  4  1  0
  6  5  2  0
  7  8  1  0
  7 10  1  0
  7  2  1  0
  9  7  1  0
 11  1  1  0
 12 11  1  0
 12 13  1  0
 14 12  1  0
 15 12  1  0
  3 16  1  0
 17 18  2  0
 18 19  1  0
 19 20  1  0
 19 21  2  0
 21 22  1  0
 22 23  1  0
 23 24  1  0
 23 25  2  0
 25 26  1  0
 26 27  2  0
 27 17  1  0
 26 21  1  0
 17 28  1  0
 22 29  1  0
 27 30  1  0
  5 18  1  0
M  ISO  3  16  14  20  15  24  14
M  END
>  <DihAtoms>  (1) 
3,4,17,16

>  <DihDeg>  (1) 
-179.99918822821093

$$$$
