
 OpenBabel03252502103D

 51 56  0  0  0  0  0  0  0  0999 V2000
   37.3650   30.4970   37.0980 C   0  0  0  0  0  0  0  0  0  0  0  0
   36.9410   30.8840   35.8900 N   0  0  0  0  0  0  0  0  0  0  0  0
   36.4340   30.0820   34.9580 C   0  0  0  0  0  0  0  0  0  0  0  0
   36.3180   28.7610   35.2070 N   0  0  0  0  0  0  0  0  0  0  0  0
   36.7050   28.2500   36.3760 C   0  0  0  0  0  0  0  0  0  0  0  0
   36.5860   26.8990   36.6330 C   0  0  0  0  0  0  0  0  0  0  0  0
   36.9760   26.3580   37.8230 C   0  0  0  0  0  0  0  0  0  0  0  0
   37.5030   27.2150   38.7830 C   0  0  0  0  0  0  0  0  0  0  0  0
   37.5990   28.5680   38.4700 C   0  0  0  0  0  0  0  0  0  0  0  0
   37.2220   29.1290   37.3020 C   0  0  0  0  0  0  0  0  0  0  0  0
   36.1340   30.5440   34.0250 H   0  0  0  0  0  0  0  0  0  0  0  0
   36.1680   26.3020   35.8350 H   0  0  0  0  0  0  0  0  0  0  0  0
   36.8670   25.2940   37.9850 H   0  0  0  0  0  0  0  0  0  0  0  0
   37.2050   32.7770   39.9020 C   0  0  0  0  0  0  0  0  0  0  0  0
   38.5120   33.2310   40.1070 C   0  0  0  0  0  0  0  0  0  0  0  0
   39.4810   32.7340   39.2750 C   0  0  0  0  0  0  0  0  0  0  0  0
   39.1510   31.8630   38.3240 N   0  0  0  0  0  0  0  0  0  0  0  0
   37.9290   31.4230   38.1090 C   0  0  0  0  0  0  0  0  0  0  0  0
   36.9560   31.8970   38.9210 N   0  0  0  0  0  0  0  0  0  0  0  0
   40.7880   33.1260   39.4420 N   0  0  0  0  0  0  0  0  0  0  0  0
   41.9360   32.5210   38.7090 C   0  0  0  0  0  0  0  0  0  0  0  0
   43.1100   33.4160   38.9760 C   0  0  0  0  0  0  0  0  0  0  0  0
   42.7720   34.0580   40.2780 C   0  0  0  0  0  0  0  0  0  0  0  0
   41.2870   34.1400   40.3120 C   0  0  0  0  0  0  0  0  0  0  0  0
   36.4020   33.1450   40.5440 H   0  0  0  0  0  0  0  0  0  0  0  0
   41.6640   32.6240   37.6330 H   0  0  0  0  0  0  0  0  0  0  0  0
   42.0760   31.4730   39.0240 H   0  0  0  0  0  0  0  0  0  0  0  0
   43.2290   34.1810   38.2020 H   0  0  0  0  0  0  0  0  0  0  0  0
   44.0150   32.7730   39.0890 H   0  0  0  0  0  0  0  0  0  0  0  0
   43.2230   35.0720   40.3140 H   0  0  0  0  0  0  0  0  0  0  0  0
   43.2290   33.4820   41.0970 H   0  0  0  0  0  0  0  0  0  0  0  0
   41.0520   33.9530   41.4040 H   0  0  0  0  0  0  0  0  0  0  0  0
   40.9940   35.1560   39.9850 H   0  0  0  0  0  0  0  0  0  0  0  0
   38.7160   34.1600   41.0960 N   0  0  0  0  0  0  0  0  0  0  0  0
   38.7590   33.8320   42.1030 H   0  0  0  0  0  0  0  0  0  0  0  0
   38.8490   35.1930   41.0600 H   0  0  0  0  0  0  0  0  0  0  0  0
   37.1110   26.1510   41.0460 C   0  0  0  0  0  3  0  0  0  0  0  0
   37.8980   26.5750   40.0140 C   0  0  0  0  0  0  0  0  0  0  0  0
   39.2540   26.3530   40.1780 C   0  0  0  0  0  0  0  0  0  0  0  0
   39.9870   26.6400   39.4370 H   0  0  0  0  0  0  0  0  0  0  0  0
   39.8080   25.7440   41.2960 C   0  0  0  0  0  0  0  0  0  0  0  0
   41.0400   25.4150   41.7040 N   0  0  0  0  0  0  0  0  0  0  0  0
   40.9790   24.8190   42.9290 C   0  0  0  0  0  0  0  0  0  0  0  0
   41.8230   24.4480   43.5050 H   0  0  0  0  0  0  0  0  0  0  0  0
   39.6820   24.7890   43.2690 N   0  0  0  0  0  0  0  0  0  0  0  0
   38.9410   25.3450   42.2970 C   0  0  0  0  0  0  0  0  0  0  0  0
   37.5940   25.5440   42.1770 C   0  0  0  0  0  3  0  0  0  0  0  0
   41.9190   25.5830   41.1730 H   0  0  0  0  0  0  0  0  0  0  0  0
   38.1540   29.2990   39.5710 N   0  0  0  0  0  0  0  0  0  0  0  0
   37.2940   29.5090   40.1630 H   0  0  0  0  0  0  0  0  0  0  0  0
   39.1070   29.6090   39.8470 H   0  0  0  0  0  0  0  0  0  0  0  0
  1 10  1  0  0  0  0
  1 18  1  0  0  0  0
  2  1  2  0  0  0  0
  3  4  2  0  0  0  0
  3  2  1  0  0  0  0
  4  5  1  0  0  0  0
  5  6  2  0  0  0  0
  5 10  1  0  0  0  0
  6  7  1  0  0  0  0
  7 13  1  0  0  0  0
  7  8  2  0  0  0  0
  8 38  1  0  0  0  0
  9  8  1  0  0  0  0
  9 49  1  0  0  0  0
 10  9  2  0  0  0  0
 11  3  1  0  0  0  0
 12  6  1  0  0  0  0
 14 15  1  0  0  0  0
 14 25  1  0  0  0  0
 15 34  1  0  0  0  0
 16 20  1  0  0  0  0
 16 15  2  0  0  0  0
 17 16  1  0  0  0  0
 18 17  2  0  0  0  0
 18 19  1  0  0  0  0
 19 14  2  0  0  0  0
 20 24  1  0  0  0  0
 21 22  1  0  0  0  0
 21 27  1  0  0  0  0
 21 20  1  0  0  0  0
 22 29  1  0  0  0  0
 22 23  1  0  0  0  0
 23 24  1  0  0  0  0
 23 30  1  0  0  0  0
 23 31  1  0  0  0  0
 24 32  1  0  0  0  0
 26 21  1  0  0  0  0
 28 22  1  0  0  0  0
 33 24  1  0  0  0  0
 34 35  1  0  0  0  0
 36 34  1  0  0  0  0
 37 47  1  0  0  0  0
 38 39  1  0  0  0  0
 38 37  2  0  0  0  0
 39 41  2  0  0  0  0
 40 39  1  0  0  0  0
 41 42  1  0  0  0  0
 41 46  1  0  0  0  0
 42 43  1  0  0  0  0
 43 45  2  0  0  0  0
 43 44  1  0  0  0  0
 46 45  1  0  0  0  0
 47 46  2  0  0  0  0
 48 42  1  0  0  0  0
 49 51  1  0  0  0  0
 49 50  1  0  0  0  0
M  END
>  <minimizedAffinity>
-6.73104906

$$$$

 OpenBabel03252502103D

 51 56  0  0  0  0  0  0  0  0999 V2000
   37.6610   27.0740   41.3490 C   0  0  0  0  0  0  0  0  0  0  0  0
   38.2030   26.5440   42.4510 N   0  0  0  0  0  0  0  0  0  0  0  0
   38.2020   25.2510   42.7650 C   0  0  0  0  0  0  0  0  0  0  0  0
   37.6160   24.3640   41.9330 N   0  0  0  0  0  0  0  0  0  0  0  0
   37.0400   24.7680   40.8010 C   0  0  0  0  0  0  0  0  0  0  0  0
   36.4420   23.8620   39.9490 C   0  0  0  0  0  0  0  0  0  0  0  0
   35.8470   24.2560   38.7850 C   0  0  0  0  0  0  0  0  0  0  0  0
   35.8610   25.6120   38.4760 C   0  0  0  0  0  0  0  0  0  0  0  0
   36.4790   26.4800   39.3720 C   0  0  0  0  0  0  0  0  0  0  0  0
   37.0730   26.1180   40.5290 C   0  0  0  0  0  0  0  0  0  0  0  0
   38.6830   24.9720   43.6950 H   0  0  0  0  0  0  0  0  0  0  0  0
   36.4720   22.8280   40.2610 H   0  0  0  0  0  0  0  0  0  0  0  0
   35.3880   23.5150   38.1450 H   0  0  0  0  0  0  0  0  0  0  0  0
   36.3210   30.4340   41.3050 C   0  0  0  0  0  0  0  0  0  0  0  0
   37.2590   31.2160   40.6260 C   0  0  0  0  0  0  0  0  0  0  0  0
   38.3910   30.5850   40.1810 C   0  0  0  0  0  0  0  0  0  0  0  0
   38.5500   29.2820   40.4030 N   0  0  0  0  0  0  0  0  0  0  0  0
   37.6810   28.5230   41.0370 C   0  0  0  0  0  0  0  0  0  0  0  0
   36.5570   29.1260   41.4890 N   0  0  0  0  0  0  0  0  0  0  0  0
   39.3610   31.3060   39.5250 N   0  0  0  0  0  0  0  0  0  0  0  0
   40.6950   30.7570   39.1560 C   0  0  0  0  0  0  0  0  0  0  0  0
   41.3110   31.7650   38.2300 C   0  0  0  0  0  0  0  0  0  0  0  0
   40.6450   33.0430   38.6120 C   0  0  0  0  0  0  0  0  0  0  0  0
   39.2900   32.6630   39.0920 C   0  0  0  0  0  0  0  0  0  0  0  0
   35.4050   30.8970   41.6790 H   0  0  0  0  0  0  0  0  0  0  0  0
   40.4650   29.8420   38.5620 H   0  0  0  0  0  0  0  0  0  0  0  0
   41.2850   30.5490   40.0640 H   0  0  0  0  0  0  0  0  0  0  0  0
   41.1050   31.5370   37.1780 H   0  0  0  0  0  0  0  0  0  0  0  0
   42.4030   31.8190   38.4540 H   0  0  0  0  0  0  0  0  0  0  0  0
   40.5770   33.7010   37.7200 H   0  0  0  0  0  0  0  0  0  0  0  0
   41.2720   33.5740   39.3460 H   0  0  0  0  0  0  0  0  0  0  0  0
   39.1090   33.3970   39.9350 H   0  0  0  0  0  0  0  0  0  0  0  0
   38.5810   32.7990   38.2540 H   0  0  0  0  0  0  0  0  0  0  0  0
   36.9600   32.5410   40.4270 N   0  0  0  0  0  0  0  0  0  0  0  0
   37.0950   33.2210   41.2280 H   0  0  0  0  0  0  0  0  0  0  0  0
   36.6040   33.0530   39.5910 H   0  0  0  0  0  0  0  0  0  0  0  0
   33.9610   26.4690   37.0410 C   0  0  0  0  0  3  0  0  0  0  0  0
   35.2120   25.9570   37.2350 C   0  0  0  0  0  0  0  0  0  0  0  0
   35.9490   25.7490   36.0830 C   0  0  0  0  0  0  0  0  0  0  0  0
   36.9530   25.3480   36.0950 H   0  0  0  0  0  0  0  0  0  0  0  0
   35.4820   26.0300   34.8060 C   0  0  0  0  0  0  0  0  0  0  0  0
   35.9630   25.9310   33.5600 N   0  0  0  0  0  0  0  0  0  0  0  0
   35.0310   26.3700   32.6670 C   0  0  0  0  0  0  0  0  0  0  0  0
   35.1430   26.4050   31.5870 H   0  0  0  0  0  0  0  0  0  0  0  0
   33.9630   26.7410   33.3900 N   0  0  0  0  0  0  0  0  0  0  0  0
   34.2050   26.5470   34.6960 C   0  0  0  0  0  0  0  0  0  0  0  0
   33.4410   26.7690   35.8080 C   0  0  0  0  0  3  0  0  0  0  0  0
   36.9060   25.5750   33.3010 H   0  0  0  0  0  0  0  0  0  0  0  0
   36.4070   27.8290   38.8940 N   0  0  0  0  0  0  0  0  0  0  0  0
   37.2600   27.8930   38.2610 H   0  0  0  0  0  0  0  0  0  0  0  0
   35.7600   28.6300   39.0380 H   0  0  0  0  0  0  0  0  0  0  0  0
  1  2  1  0  0  0  0
  2  3  2  0  0  0  0
  3 11  1  0  0  0  0
  4  3  1  0  0  0  0
  5  4  2  0  0  0  0
  6 12  1  0  0  0  0
  6  5  1  0  0  0  0
  7  6  2  0  0  0  0
  8  7  1  0  0  0  0
  8  9  2  0  0  0  0
  9 10  1  0  0  0  0
 10  5  1  0  0  0  0
 10  1  2  0  0  0  0
 13  7  1  0  0  0  0
 14 19  1  0  0  0  0
 14 25  1  0  0  0  0
 15 14  2  0  0  0  0
 16 17  2  0  0  0  0
 16 15  1  0  0  0  0
 17 18  1  0  0  0  0
 18  1  1  0  0  0  0
 18 19  2  0  0  0  0
 20 16  1  0  0  0  0
 21 20  1  0  0  0  0
 21 27  1  0  0  0  0
 22 29  1  0  0  0  0
 22 23  1  0  0  0  0
 22 21  1  0  0  0  0
 23 24  1  0  0  0  0
 23 31  1  0  0  0  0
 24 20  1  0  0  0  0
 24 32  1  0  0  0  0
 26 21  1  0  0  0  0
 28 22  1  0  0  0  0
 30 23  1  0  0  0  0
 33 24  1  0  0  0  0
 34 15  1  0  0  0  0
 34 35  1  0  0  0  0
 36 34  1  0  0  0  0
 37 38  1  0  0  0  0
 38  8  1  0  0  0  0
 39 40  1  0  0  0  0
 39 38  2  0  0  0  0
 41 39  1  0  0  0  0
 42 41  1  0  0  0  0
 43 45  2  0  0  0  0
 43 42  1  0  0  0  0
 44 43  1  0  0  0  0
 45 46  1  0  0  0  0
 46 41  2  0  0  0  0
 46 47  1  0  0  0  0
 47 37  2  0  0  0  0
 48 42  1  0  0  0  0
 49 51  1  0  0  0  0
 49  9  1  0  0  0  0
 50 49  1  0  0  0  0
M  END
>  <minimizedAffinity>
-6.7060256

$$$$

 OpenBabel03252502103D

 51 56  0  0  0  0  0  0  0  0999 V2000
   36.5690   29.3230   38.5340 C   0  0  0  0  0  0  0  0  0  0  0  0
   35.6010   29.3730   37.6120 N   0  0  0  0  0  0  0  0  0  0  0  0
   34.9360   28.3240   37.1340 C   0  0  0  0  0  0  0  0  0  0  0  0
   35.2290   27.0880   37.5890 N   0  0  0  0  0  0  0  0  0  0  0  0
   36.1750   26.9050   38.5100 C   0  0  0  0  0  0  0  0  0  0  0  0
   36.4740   25.6410   38.9770 C   0  0  0  0  0  0  0  0  0  0  0  0
   37.4390   25.4340   39.9200 C   0  0  0  0  0  0  0  0  0  0  0  0
   38.1200   26.5450   40.4050 C   0  0  0  0  0  0  0  0  0  0  0  0
   37.7760   27.7950   39.9000 C   0  0  0  0  0  0  0  0  0  0  0  0
   36.8280   28.0290   38.9670 C   0  0  0  0  0  0  0  0  0  0  0  0
   34.1770   28.5240   36.3880 H   0  0  0  0  0  0  0  0  0  0  0  0
   35.9010   24.8310   38.5480 H   0  0  0  0  0  0  0  0  0  0  0  0
   37.6440   24.4280   40.2590 H   0  0  0  0  0  0  0  0  0  0  0  0
   37.0440   32.2010   40.6740 C   0  0  0  0  0  0  0  0  0  0  0  0
   38.2300   32.8080   40.2490 C   0  0  0  0  0  0  0  0  0  0  0  0
   38.8980   32.2100   39.2120 C   0  0  0  0  0  0  0  0  0  0  0  0
   38.4040   31.1050   38.6590 N   0  0  0  0  0  0  0  0  0  0  0  0
   37.2880   30.5170   39.0380 C   0  0  0  0  0  0  0  0  0  0  0  0
   36.6140   31.0880   40.0620 N   0  0  0  0  0  0  0  0  0  0  0  0
   40.0820   32.7480   38.7650 N   0  0  0  0  0  0  0  0  0  0  0  0
   40.9690   32.0860   37.7670 C   0  0  0  0  0  0  0  0  0  0  0  0
   41.9790   33.1210   37.3660 C   0  0  0  0  0  0  0  0  0  0  0  0
   42.0320   34.0320   38.5450 C   0  0  0  0  0  0  0  0  0  0  0  0
   40.6760   33.9860   39.1520 C   0  0  0  0  0  0  0  0  0  0  0  0
   36.4800   32.6430   41.4980 H   0  0  0  0  0  0  0  0  0  0  0  0
   40.3070   31.8950   36.8910 H   0  0  0  0  0  0  0  0  0  0  0  0
   41.4010   31.1660   38.1950 H   0  0  0  0  0  0  0  0  0  0  0  0
   41.6650   33.6790   36.4770 H   0  0  0  0  0  0  0  0  0  0  0  0
   42.9610   32.6110   37.2300 H   0  0  0  0  0  0  0  0  0  0  0  0
   42.2760   35.0600   38.2020 H   0  0  0  0  0  0  0  0  0  0  0  0
   42.8540   33.7200   39.2080 H   0  0  0  0  0  0  0  0  0  0  0  0
   40.8950   34.0540   40.2610 H   0  0  0  0  0  0  0  0  0  0  0  0
   40.1050   34.8580   38.7800 H   0  0  0  0  0  0  0  0  0  0  0  0
   38.6140   33.9670   40.8760 N   0  0  0  0  0  0  0  0  0  0  0  0
   39.0810   33.9040   41.8250 H   0  0  0  0  0  0  0  0  0  0  0  0
   38.5360   34.9670   40.5920 H   0  0  0  0  0  0  0  0  0  0  0  0
   38.9710   26.0470   42.7360 C   0  0  0  0  0  3  0  0  0  0  0  0
   39.1280   26.2520   41.3960 C   0  0  0  0  0  0  0  0  0  0  0  0
   40.4280   26.1610   40.9330 C   0  0  0  0  0  0  0  0  0  0  0  0
   40.6910   26.3020   39.8940 H   0  0  0  0  0  0  0  0  0  0  0  0
   41.5190   25.8810   41.7450 C   0  0  0  0  0  0  0  0  0  0  0  0
   42.8390   25.7390   41.5710 N   0  0  0  0  0  0  0  0  0  0  0  0
   43.4360   25.4590   42.7640 C   0  0  0  0  0  0  0  0  0  0  0  0
   44.4980   25.2930   42.9280 H   0  0  0  0  0  0  0  0  0  0  0  0
   42.4560   25.4330   43.6790 N   0  0  0  0  0  0  0  0  0  0  0  0
   41.2750   25.6870   43.0920 C   0  0  0  0  0  0  0  0  0  0  0  0
   40.0060   25.7670   43.5930 C   0  0  0  0  0  3  0  0  0  0  0  0
   43.3450   25.8250   40.6650 H   0  0  0  0  0  0  0  0  0  0  0  0
   38.5680   28.8200   40.5130 N   0  0  0  0  0  0  0  0  0  0  0  0
   38.0160   29.0380   41.3970 H   0  0  0  0  0  0  0  0  0  0  0  0
   39.4560   29.3080   40.2780 H   0  0  0  0  0  0  0  0  0  0  0  0
  1 10  1  0  0  0  0
  1 18  1  0  0  0  0
  2  1  2  0  0  0  0
  3  4  2  0  0  0  0
  3  2  1  0  0  0  0
  4  5  1  0  0  0  0
  5 10  2  0  0  0  0
  5  6  1  0  0  0  0
  6  7  2  0  0  0  0
  7 13  1  0  0  0  0
  7  8  1  0  0  0  0
  8 38  1  0  0  0  0
  9  8  2  0  0  0  0
  9 49  1  0  0  0  0
 10  9  1  0  0  0  0
 11  3  1  0  0  0  0
 12  6  1  0  0  0  0
 14 25  1  0  0  0  0
 15 14  1  0  0  0  0
 15 34  1  0  0  0  0
 16 15  2  0  0  0  0
 17 18  2  0  0  0  0
 17 16  1  0  0  0  0
 18 19  1  0  0  0  0
 19 14  2  0  0  0  0
 20 24  1  0  0  0  0
 20 16  1  0  0  0  0
 21 27  1  0  0  0  0
 21 20  1  0  0  0  0
 22 21  1  0  0  0  0
 22 23  1  0  0  0  0
 23 24  1  0  0  0  0
 23 31  1  0  0  0  0
 24 32  1  0  0  0  0
 26 21  1  0  0  0  0
 28 22  1  0  0  0  0
 29 22  1  0  0  0  0
 30 23  1  0  0  0  0
 33 24  1  0  0  0  0
 34 35  1  0  0  0  0
 36 34  1  0  0  0  0
 37 47  1  0  0  0  0
 38 37  2  0  0  0  0
 39 38  1  0  0  0  0
 39 41  2  0  0  0  0
 40 39  1  0  0  0  0
 41 46  1  0  0  0  0
 42 41  1  0  0  0  0
 42 43  1  0  0  0  0
 43 44  1  0  0  0  0
 43 45  2  0  0  0  0
 46 47  2  0  0  0  0
 46 45  1  0  0  0  0
 48 42  1  0  0  0  0
 49 50  1  0  0  0  0
 51 49  1  0  0  0  0
M  END
>  <minimizedAffinity>
-6.67979908

$$$$

 OpenBabel03252502103D

 51 56  0  0  0  0  0  0  0  0999 V2000
   37.9650   27.1030   41.5760 C   0  0  0  0  0  0  0  0  0  0  0  0
   38.5760   27.3860   42.7320 N   0  0  0  0  0  0  0  0  0  0  0  0
   38.5730   28.5710   43.3360 C   0  0  0  0  0  0  0  0  0  0  0  0
   37.9110   29.6040   42.7730 N   0  0  0  0  0  0  0  0  0  0  0  0
   37.2610   29.4500   41.6200 C   0  0  0  0  0  0  0  0  0  0  0  0
   36.5820   30.5040   41.0430 C   0  0  0  0  0  0  0  0  0  0  0  0
   35.9100   30.3670   39.8630 C   0  0  0  0  0  0  0  0  0  0  0  0
   35.9270   29.1180   39.2500 C   0  0  0  0  0  0  0  0  0  0  0  0
   36.6260   28.0910   39.8760 C   0  0  0  0  0  0  0  0  0  0  0  0
   37.2990   28.1990   41.0410 C   0  0  0  0  0  0  0  0  0  0  0  0
   39.1150   28.6460   44.2710 H   0  0  0  0  0  0  0  0  0  0  0  0
   36.6200   31.4410   41.5810 H   0  0  0  0  0  0  0  0  0  0  0  0
   35.3920   31.2180   39.4430 H   0  0  0  0  0  0  0  0  0  0  0  0
   36.7600   23.7570   40.9160 C   0  0  0  0  0  0  0  0  0  0  0  0
   37.6800   23.1810   40.0340 C   0  0  0  0  0  0  0  0  0  0  0  0
   38.7360   23.9610   39.6390 C   0  0  0  0  0  0  0  0  0  0  0  0
   38.8460   25.2040   40.1010 N   0  0  0  0  0  0  0  0  0  0  0  0
   37.9960   25.7680   40.9340 C   0  0  0  0  0  0  0  0  0  0  0  0
   36.9440   25.0180   41.3340 N   0  0  0  0  0  0  0  0  0  0  0  0
   39.6620   23.4570   38.7570 N   0  0  0  0  0  0  0  0  0  0  0  0
   40.7440   24.2720   38.1350 C   0  0  0  0  0  0  0  0  0  0  0  0
   41.6700   23.2900   37.4790 C   0  0  0  0  0  0  0  0  0  0  0  0
   40.7960   22.1150   37.2030 C   0  0  0  0  0  0  0  0  0  0  0  0
   39.7660   22.1190   38.2750 C   0  0  0  0  0  0  0  0  0  0  0  0
   35.9030   23.1710   41.2540 H   0  0  0  0  0  0  0  0  0  0  0  0
   41.2810   24.7260   38.9990 H   0  0  0  0  0  0  0  0  0  0  0  0
   40.3090   25.0200   37.4500 H   0  0  0  0  0  0  0  0  0  0  0  0
   42.4930   22.9970   38.1400 H   0  0  0  0  0  0  0  0  0  0  0  0
   42.0260   23.7380   36.5210 H   0  0  0  0  0  0  0  0  0  0  0  0
   41.4060   21.1870   37.2450 H   0  0  0  0  0  0  0  0  0  0  0  0
   40.4050   22.1860   36.1760 H   0  0  0  0  0  0  0  0  0  0  0  0
   38.8390   21.7610   37.7330 H   0  0  0  0  0  0  0  0  0  0  0  0
   40.0920   21.4140   39.0640 H   0  0  0  0  0  0  0  0  0  0  0  0
   37.4760   21.8760   39.6620 N   0  0  0  0  0  0  0  0  0  0  0  0
   36.7530   21.6650   38.9160 H   0  0  0  0  0  0  0  0  0  0  0  0
   37.9160   20.9860   39.9820 H   0  0  0  0  0  0  0  0  0  0  0  0
   35.6760   29.1720   36.7320 C   0  0  0  0  0  3  0  0  0  0  0  0
   35.2010   29.0460   38.0050 C   0  0  0  0  0  0  0  0  0  0  0  0
   33.8410   28.8130   38.1050 C   0  0  0  0  0  0  0  0  0  0  0  0
   33.3360   28.6930   39.0540 H   0  0  0  0  0  0  0  0  0  0  0  0
   32.9920   28.7080   37.0120 C   0  0  0  0  0  0  0  0  0  0  0  0
   31.6840   28.4930   36.8240 N   0  0  0  0  0  0  0  0  0  0  0  0
   31.4010   28.4930   35.4900 C   0  0  0  0  0  0  0  0  0  0  0  0
   30.4230   28.3430   35.0400 H   0  0  0  0  0  0  0  0  0  0  0  0
   32.5640   28.7120   34.8590 N   0  0  0  0  0  0  0  0  0  0  0  0
   33.5530   28.8480   35.7560 C   0  0  0  0  0  0  0  0  0  0  0  0
   34.8930   29.0790   35.6100 C   0  0  0  0  0  3  0  0  0  0  0  0
   30.9790   28.3470   37.5750 H   0  0  0  0  0  0  0  0  0  0  0  0
   36.5310   26.8810   39.1140 N   0  0  0  0  0  0  0  0  0  0  0  0
   35.6190   26.4600   39.4660 H   0  0  0  0  0  0  0  0  0  0  0  0
   37.1110   26.4190   38.3850 H   0  0  0  0  0  0  0  0  0  0  0  0
  1  2  1  0  0  0  0
  2  3  2  0  0  0  0
  3 11  1  0  0  0  0
  4  3  1  0  0  0  0
  5  4  2  0  0  0  0
  6 12  1  0  0  0  0
  6  5  1  0  0  0  0
  7  6  2  0  0  0  0
  8  7  1  0  0  0  0
  8  9  2  0  0  0  0
  9 10  1  0  0  0  0
 10  1  2  0  0  0  0
 10  5  1  0  0  0  0
 13  7  1  0  0  0  0
 14 25  1  0  0  0  0
 14 19  1  0  0  0  0
 15 14  2  0  0  0  0
 16 15  1  0  0  0  0
 16 17  2  0  0  0  0
 17 18  1  0  0  0  0
 18 19  2  0  0  0  0
 18  1  1  0  0  0  0
 20 16  1  0  0  0  0
 21 20  1  0  0  0  0
 21 26  1  0  0  0  0
 22 21  1  0  0  0  0
 22 28  1  0  0  0  0
 23 30  1  0  0  0  0
 23 22  1  0  0  0  0
 23 24  1  0  0  0  0
 24 20  1  0  0  0  0
 24 33  1  0  0  0  0
 27 21  1  0  0  0  0
 29 22  1  0  0  0  0
 31 23  1  0  0  0  0
 32 24  1  0  0  0  0
 34 36  1  0  0  0  0
 34 15  1  0  0  0  0
 35 34  1  0  0  0  0
 37 38  1  0  0  0  0
 38 39  2  0  0  0  0
 38  8  1  0  0  0  0
 39 40  1  0  0  0  0
 41 39  1  0  0  0  0
 42 41  1  0  0  0  0
 42 48  1  0  0  0  0
 43 42  1  0  0  0  0
 44 43  1  0  0  0  0
 45 43  2  0  0  0  0
 45 46  1  0  0  0  0
 46 41  2  0  0  0  0
 47 46  1  0  0  0  0
 47 37  2  0  0  0  0
 49 50  1  0  0  0  0
 49  9  1  0  0  0  0
 51 49  1  0  0  0  0
M  END
>  <minimizedAffinity>
-6.61894894

$$$$

 OpenBabel03252502103D

 51 56  0  0  0  0  0  0  0  0999 V2000
   36.6000   25.5990   39.5910 C   0  0  0  0  0  0  0  0  0  0  0  0
   36.5220   24.3540   40.0760 N   0  0  0  0  0  0  0  0  0  0  0  0
   36.7820   23.9980   41.3300 C   0  0  0  0  0  0  0  0  0  0  0  0
   37.1610   24.9370   42.2240 N   0  0  0  0  0  0  0  0  0  0  0  0
   37.2760   26.2150   41.8640 C   0  0  0  0  0  0  0  0  0  0  0  0
   37.6620   27.1760   42.7770 C   0  0  0  0  0  0  0  0  0  0  0  0
   37.7840   28.4890   42.4270 C   0  0  0  0  0  0  0  0  0  0  0  0
   37.5060   28.8390   41.1110 C   0  0  0  0  0  0  0  0  0  0  0  0
   37.1210   27.8290   40.2330 C   0  0  0  0  0  0  0  0  0  0  0  0
   36.9920   26.5230   40.5510 C   0  0  0  0  0  0  0  0  0  0  0  0
   36.6750   22.9480   41.5740 H   0  0  0  0  0  0  0  0  0  0  0  0
   37.8610   26.8220   43.7780 H   0  0  0  0  0  0  0  0  0  0  0  0
   38.0900   29.2110   43.1720 H   0  0  0  0  0  0  0  0  0  0  0  0
   37.4110   26.1170   36.1040 C   0  0  0  0  0  0  0  0  0  0  0  0
   36.2350   26.5670   35.4950 C   0  0  0  0  0  0  0  0  0  0  0  0
   35.1260   26.6830   36.2930 C   0  0  0  0  0  0  0  0  0  0  0  0
   35.2090   26.3760   37.5850 N   0  0  0  0  0  0  0  0  0  0  0  0
   36.3040   25.9530   38.1820 C   0  0  0  0  0  0  0  0  0  0  0  0
   37.4100   25.8270   37.4130 N   0  0  0  0  0  0  0  0  0  0  0  0
   33.9350   27.1000   35.7470 N   0  0  0  0  0  0  0  0  0  0  0  0
   32.6390   27.0960   36.4830 C   0  0  0  0  0  0  0  0  0  0  0  0
   31.6810   27.8750   35.6300 C   0  0  0  0  0  0  0  0  0  0  0  0
   32.2380   27.7260   34.2550 C   0  0  0  0  0  0  0  0  0  0  0  0
   33.7080   27.5920   34.4280 C   0  0  0  0  0  0  0  0  0  0  0  0
   38.3170   26.0080   35.5050 H   0  0  0  0  0  0  0  0  0  0  0  0
   32.8410   27.6910   37.4030 H   0  0  0  0  0  0  0  0  0  0  0  0
   32.3270   26.0590   36.6940 H   0  0  0  0  0  0  0  0  0  0  0  0
   31.6510   28.9340   35.9080 H   0  0  0  0  0  0  0  0  0  0  0  0
   30.6820   27.3830   35.6950 H   0  0  0  0  0  0  0  0  0  0  0  0
   31.9920   28.6320   33.6610 H   0  0  0  0  0  0  0  0  0  0  0  0
   31.7440   26.8790   33.7530 H   0  0  0  0  0  0  0  0  0  0  0  0
   33.9890   26.8520   33.6170 H   0  0  0  0  0  0  0  0  0  0  0  0
   34.1640   28.5880   34.2680 H   0  0  0  0  0  0  0  0  0  0  0  0
   36.2890   26.8890   34.1630 N   0  0  0  0  0  0  0  0  0  0  0  0
   36.2640   26.1080   33.4470 H   0  0  0  0  0  0  0  0  0  0  0  0
   36.3540   27.8080   33.6730 H   0  0  0  0  0  0  0  0  0  0  0  0
   36.7330   31.1150   40.3210 C   0  0  0  0  0  3  0  0  0  0  0  0
   37.6600   30.2410   40.8110 C   0  0  0  0  0  0  0  0  0  0  0  0
   38.9100   30.7830   41.0530 C   0  0  0  0  0  0  0  0  0  0  0  0
   39.7350   30.2010   41.4410 H   0  0  0  0  0  0  0  0  0  0  0  0
   39.2320   32.1140   40.8280 C   0  0  0  0  0  0  0  0  0  0  0  0
   40.3220   32.8790   40.9680 N   0  0  0  0  0  0  0  0  0  0  0  0
   40.0460   34.1560   40.5770 C   0  0  0  0  0  0  0  0  0  0  0  0
   40.7390   34.9930   40.5810 H   0  0  0  0  0  0  0  0  0  0  0  0
   38.7610   34.1610   40.1900 N   0  0  0  0  0  0  0  0  0  0  0  0
   38.2360   32.9330   40.3300 C   0  0  0  0  0  0  0  0  0  0  0  0
   36.9860   32.4410   40.0760 C   0  0  0  0  0  3  0  0  0  0  0  0
   41.2470   32.5590   41.3230 H   0  0  0  0  0  0  0  0  0  0  0  0
   36.8680   28.3660   38.9290 N   0  0  0  0  0  0  0  0  0  0  0  0
   35.8520   28.6750   39.0020 H   0  0  0  0  0  0  0  0  0  0  0  0
   37.4250   28.4890   38.0600 H   0  0  0  0  0  0  0  0  0  0  0  0
  1  2  2  0  0  0  0
  1 10  1  0  0  0  0
  2  3  1  0  0  0  0
  3 11  1  0  0  0  0
  3  4  2  0  0  0  0
  5  4  1  0  0  0  0
  5  6  1  0  0  0  0
  6 12  1  0  0  0  0
  7  6  2  0  0  0  0
  7 13  1  0  0  0  0
  8  7  1  0  0  0  0
  9 10  1  0  0  0  0
  9  8  2  0  0  0  0
 10  5  2  0  0  0  0
 14 19  1  0  0  0  0
 15 14  2  0  0  0  0
 15 16  1  0  0  0  0
 16 17  2  0  0  0  0
 17 18  1  0  0  0  0
 18  1  1  0  0  0  0
 19 18  2  0  0  0  0
 20 16  1  0  0  0  0
 20 21  1  0  0  0  0
 21 27  1  0  0  0  0
 21 26  1  0  0  0  0
 22 29  1  0  0  0  0
 22 28  1  0  0  0  0
 22 21  1  0  0  0  0
 23 24  1  0  0  0  0
 23 22  1  0  0  0  0
 24 20  1  0  0  0  0
 25 14  1  0  0  0  0
 30 23  1  0  0  0  0
 31 23  1  0  0  0  0
 32 24  1  0  0  0  0
 33 24  1  0  0  0  0
 34 15  1  0  0  0  0
 35 34  1  0  0  0  0
 36 34  1  0  0  0  0
 37 38  1  0  0  0  0
 38 39  2  0  0  0  0
 38  8  1  0  0  0  0
 39 40  1  0  0  0  0
 41 42  1  0  0  0  0
 41 39  1  0  0  0  0
 42 48  1  0  0  0  0
 43 44  1  0  0  0  0
 43 42  1  0  0  0  0
 45 46  1  0  0  0  0
 45 43  2  0  0  0  0
 46 41  2  0  0  0  0
 47 37  2  0  0  0  0
 47 46  1  0  0  0  0
 49 50  1  0  0  0  0
 49  9  1  0  0  0  0
 51 49  1  0  0  0  0
M  END
>  <minimizedAffinity>
-6.61296463

$$$$

 OpenBabel03252502103D

 51 56  0  0  0  0  0  0  0  0999 V2000
   39.3210   28.9720   41.6730 C   0  0  0  0  0  0  0  0  0  0  0  0
   39.9270   28.5580   42.7920 N   0  0  0  0  0  0  0  0  0  0  0  0
   39.7220   27.3880   43.3920 C   0  0  0  0  0  0  0  0  0  0  0  0
   38.8390   26.5150   42.8630 N   0  0  0  0  0  0  0  0  0  0  0  0
   38.1710   26.8100   41.7480 C   0  0  0  0  0  0  0  0  0  0  0  0
   37.2680   25.9170   41.2060 C   0  0  0  0  0  0  0  0  0  0  0  0
   36.5750   26.2010   40.0660 C   0  0  0  0  0  0  0  0  0  0  0  0
   36.8060   27.4290   39.4550 C   0  0  0  0  0  0  0  0  0  0  0  0
   37.7270   28.2900   40.0450 C   0  0  0  0  0  0  0  0  0  0  0  0
   38.4250   28.0360   41.1720 C   0  0  0  0  0  0  0  0  0  0  0  0
   40.2880   27.1950   44.2940 H   0  0  0  0  0  0  0  0  0  0  0  0
   37.1450   24.9860   41.7410 H   0  0  0  0  0  0  0  0  0  0  0  0
   35.8760   25.4750   39.6730 H   0  0  0  0  0  0  0  0  0  0  0  0
   38.6850   32.4730   41.0230 C   0  0  0  0  0  0  0  0  0  0  0  0
   39.6330   32.8690   40.0750 C   0  0  0  0  0  0  0  0  0  0  0  0
   40.5270   31.9200   39.6540 C   0  0  0  0  0  0  0  0  0  0  0  0
   40.4600   30.6860   40.1470 N   0  0  0  0  0  0  0  0  0  0  0  0
   39.5750   30.2870   41.0380 C   0  0  0  0  0  0  0  0  0  0  0  0
   38.6850   31.2090   41.4710 N   0  0  0  0  0  0  0  0  0  0  0  0
   41.4970   32.2550   38.7380 N   0  0  0  0  0  0  0  0  0  0  0  0
   42.6150   31.3520   38.3470 C   0  0  0  0  0  0  0  0  0  0  0  0
   43.2550   31.9890   37.1470 C   0  0  0  0  0  0  0  0  0  0  0  0
   42.9290   33.4360   37.3040 C   0  0  0  0  0  0  0  0  0  0  0  0
   41.6250   33.4790   38.0180 C   0  0  0  0  0  0  0  0  0  0  0  0
   37.9550   33.1980   41.3880 H   0  0  0  0  0  0  0  0  0  0  0  0
   42.1120   30.4170   38.0100 H   0  0  0  0  0  0  0  0  0  0  0  0
   43.2950   31.1980   39.2010 H   0  0  0  0  0  0  0  0  0  0  0  0
   42.8350   31.6120   36.2090 H   0  0  0  0  0  0  0  0  0  0  0  0
   44.3570   31.8340   37.2200 H   0  0  0  0  0  0  0  0  0  0  0  0
   42.8450   33.9020   36.3000 H   0  0  0  0  0  0  0  0  0  0  0  0
   43.7620   33.9420   37.8160 H   0  0  0  0  0  0  0  0  0  0  0  0
   41.7360   34.3870   38.6860 H   0  0  0  0  0  0  0  0  0  0  0  0
   40.8270   33.6060   37.2620 H   0  0  0  0  0  0  0  0  0  0  0  0
   39.5730   34.1610   39.6150 N   0  0  0  0  0  0  0  0  0  0  0  0
   39.9720   34.9360   40.2170 H   0  0  0  0  0  0  0  0  0  0  0  0
   39.1920   34.5660   38.7330 H   0  0  0  0  0  0  0  0  0  0  0  0
   36.3980   27.4560   36.9580 C   0  0  0  0  0  3  0  0  0  0  0  0
   36.0360   27.6640   38.2580 C   0  0  0  0  0  0  0  0  0  0  0  0
   34.7590   28.1620   38.4410 C   0  0  0  0  0  0  0  0  0  0  0  0
   34.3470   28.3710   39.4190 H   0  0  0  0  0  0  0  0  0  0  0  0
   33.8810   28.4400   37.4020 C   0  0  0  0  0  0  0  0  0  0  0  0
   32.6320   28.9110   37.2960 N   0  0  0  0  0  0  0  0  0  0  0  0
   32.2720   28.9770   35.9820 C   0  0  0  0  0  0  0  0  0  0  0  0
   31.3170   29.3210   35.5940 H   0  0  0  0  0  0  0  0  0  0  0  0
   33.3280   28.5370   35.2800 N   0  0  0  0  0  0  0  0  0  0  0  0
   34.3250   28.2020   36.1150 C   0  0  0  0  0  0  0  0  0  0  0  0
   35.5790   27.7100   35.8860 C   0  0  0  0  0  3  0  0  0  0  0  0
   32.0180   29.1880   38.0890 H   0  0  0  0  0  0  0  0  0  0  0  0
   37.8440   29.4980   39.2840 N   0  0  0  0  0  0  0  0  0  0  0  0
   38.5720   29.2380   38.5530 H   0  0  0  0  0  0  0  0  0  0  0  0
   37.4030   30.4390   39.3190 H   0  0  0  0  0  0  0  0  0  0  0  0
  1  2  1  0  0  0  0
  2  3  2  0  0  0  0
  3 11  1  0  0  0  0
  4  3  1  0  0  0  0
  5  4  2  0  0  0  0
  6 12  1  0  0  0  0
  6  5  1  0  0  0  0
  7  6  2  0  0  0  0
  8  9  2  0  0  0  0
  8  7  1  0  0  0  0
  9 10  1  0  0  0  0
 10  1  2  0  0  0  0
 10  5  1  0  0  0  0
 13  7  1  0  0  0  0
 14 25  1  0  0  0  0
 14 19  1  0  0  0  0
 15 14  2  0  0  0  0
 16 15  1  0  0  0  0
 16 17  2  0  0  0  0
 17 18  1  0  0  0  0
 18 19  2  0  0  0  0
 18  1  1  0  0  0  0
 20 16  1  0  0  0  0
 21 20  1  0  0  0  0
 21 27  1  0  0  0  0
 22 29  1  0  0  0  0
 22 23  1  0  0  0  0
 22 21  1  0  0  0  0
 23 31  1  0  0  0  0
 23 24  1  0  0  0  0
 24 32  1  0  0  0  0
 24 20  1  0  0  0  0
 26 21  1  0  0  0  0
 28 22  1  0  0  0  0
 30 23  1  0  0  0  0
 33 24  1  0  0  0  0
 34 15  1  0  0  0  0
 34 35  1  0  0  0  0
 36 34  1  0  0  0  0
 37 38  1  0  0  0  0
 38 39  2  0  0  0  0
 38  8  1  0  0  0  0
 39 40  1  0  0  0  0
 41 39  1  0  0  0  0
 42 41  1  0  0  0  0
 42 48  1  0  0  0  0
 43 42  1  0  0  0  0
 44 43  1  0  0  0  0
 45 43  2  0  0  0  0
 45 46  1  0  0  0  0
 46 41  2  0  0  0  0
 47 46  1  0  0  0  0
 47 37  2  0  0  0  0
 49 51  1  0  0  0  0
 49  9  1  0  0  0  0
 50 49  1  0  0  0  0
M  END
>  <minimizedAffinity>
-6.6113658

$$$$

 OpenBabel03252502103D

 51 56  0  0  0  0  0  0  0  0999 V2000
   36.9640   26.2660   39.9800 C   0  0  0  0  0  0  0  0  0  0  0  0
   36.6740   25.0490   40.4560 N   0  0  0  0  0  0  0  0  0  0  0  0
   36.9490   24.6160   41.6830 C   0  0  0  0  0  0  0  0  0  0  0  0
   37.5730   25.4370   42.5550 N   0  0  0  0  0  0  0  0  0  0  0  0
   37.9160   26.6750   42.2010 C   0  0  0  0  0  0  0  0  0  0  0  0
   38.5530   27.5160   43.0910 C   0  0  0  0  0  0  0  0  0  0  0  0
   38.9110   28.7870   42.7480 C   0  0  0  0  0  0  0  0  0  0  0  0
   38.6120   29.2190   41.4600 C   0  0  0  0  0  0  0  0  0  0  0  0
   37.9680   28.3300   40.6050 C   0  0  0  0  0  0  0  0  0  0  0  0
   37.6040   27.0680   40.9170 C   0  0  0  0  0  0  0  0  0  0  0  0
   36.6510   23.6030   41.9240 H   0  0  0  0  0  0  0  0  0  0  0  0
   38.7500   27.1040   44.0710 H   0  0  0  0  0  0  0  0  0  0  0  0
   39.4090   29.4140   43.4740 H   0  0  0  0  0  0  0  0  0  0  0  0
   37.5890   26.6730   36.4410 C   0  0  0  0  0  0  0  0  0  0  0  0
   36.4970   27.3840   35.9340 C   0  0  0  0  0  0  0  0  0  0  0  0
   35.5080   27.7220   36.8210 C   0  0  0  0  0  0  0  0  0  0  0  0
   35.6230   27.3740   38.1010 N   0  0  0  0  0  0  0  0  0  0  0  0
   36.6420   26.7090   38.6030 C   0  0  0  0  0  0  0  0  0  0  0  0
   37.6280   26.3610   37.7440 N   0  0  0  0  0  0  0  0  0  0  0  0
   34.3990   28.4030   36.3780 N   0  0  0  0  0  0  0  0  0  0  0  0
   33.1970   28.6650   37.2180 C   0  0  0  0  0  0  0  0  0  0  0  0
   32.3690   29.6550   36.4500 C   0  0  0  0  0  0  0  0  0  0  0  0
   32.7680   29.4190   35.0330 C   0  0  0  0  0  0  0  0  0  0  0  0
   34.1820   28.9620   35.0840 C   0  0  0  0  0  0  0  0  0  0  0  0
   38.3990   26.3820   35.7680 H   0  0  0  0  0  0  0  0  0  0  0  0
   33.5970   29.1810   38.1210 H   0  0  0  0  0  0  0  0  0  0  0  0
   32.6810   27.7180   37.4490 H   0  0  0  0  0  0  0  0  0  0  0  0
   32.5950   30.6880   36.7350 H   0  0  0  0  0  0  0  0  0  0  0  0
   31.2950   29.3930   36.5960 H   0  0  0  0  0  0  0  0  0  0  0  0
   32.6820   30.3710   34.4660 H   0  0  0  0  0  0  0  0  0  0  0  0
   32.0620   28.7130   34.5700 H   0  0  0  0  0  0  0  0  0  0  0  0
   34.2270   28.1980   34.2480 H   0  0  0  0  0  0  0  0  0  0  0  0
   34.8310   29.8370   34.8910 H   0  0  0  0  0  0  0  0  0  0  0  0
   36.5150   27.7170   34.6030 N   0  0  0  0  0  0  0  0  0  0  0  0
   36.2610   26.9770   33.8880 H   0  0  0  0  0  0  0  0  0  0  0  0
   36.7410   28.6100   34.1140 H   0  0  0  0  0  0  0  0  0  0  0  0
   38.2500   31.6910   41.0540 C   0  0  0  0  0  3  0  0  0  0  0  0
   39.0220   30.5700   41.1640 C   0  0  0  0  0  0  0  0  0  0  0  0
   40.3770   30.7670   40.9690 C   0  0  0  0  0  0  0  0  0  0  0  0
   41.1000   29.9640   41.0270 H   0  0  0  0  0  0  0  0  0  0  0  0
   40.9460   32.0000   40.6820 C   0  0  0  0  0  0  0  0  0  0  0  0
   42.1820   32.4630   40.4530 N   0  0  0  0  0  0  0  0  0  0  0  0
   42.1380   33.8050   40.2190 C   0  0  0  0  0  0  0  0  0  0  0  0
   42.9880   34.4480   40.0030 H   0  0  0  0  0  0  0  0  0  0  0  0
   40.8480   34.1610   40.3070 N   0  0  0  0  0  0  0  0  0  0  0  0
   40.0950   33.0850   40.5870 C   0  0  0  0  0  0  0  0  0  0  0  0
   38.7480   32.9380   40.7730 C   0  0  0  0  0  3  0  0  0  0  0  0
   43.0520   31.8930   40.4530 H   0  0  0  0  0  0  0  0  0  0  0  0
   37.7330   28.9400   39.3300 N   0  0  0  0  0  0  0  0  0  0  0  0
   36.8080   29.4440   39.4840 H   0  0  0  0  0  0  0  0  0  0  0  0
   38.2370   28.9720   38.4210 H   0  0  0  0  0  0  0  0  0  0  0  0
  1  2  2  0  0  0  0
  1 10  1  0  0  0  0
  2  3  1  0  0  0  0
  3 11  1  0  0  0  0
  3  4  2  0  0  0  0
  5  4  1  0  0  0  0
  5  6  1  0  0  0  0
  6 12  1  0  0  0  0
  7  6  2  0  0  0  0
  7 13  1  0  0  0  0
  8  7  1  0  0  0  0
  9 10  1  0  0  0  0
  9  8  2  0  0  0  0
 10  5  2  0  0  0  0
 14 19  1  0  0  0  0
 15 14  2  0  0  0  0
 15 16  1  0  0  0  0
 16 17  2  0  0  0  0
 17 18  1  0  0  0  0
 18  1  1  0  0  0  0
 19 18  2  0  0  0  0
 20 16  1  0  0  0  0
 20 21  1  0  0  0  0
 21 27  1  0  0  0  0
 21 26  1  0  0  0  0
 22 29  1  0  0  0  0
 22 28  1  0  0  0  0
 22 21  1  0  0  0  0
 23 24  1  0  0  0  0
 23 22  1  0  0  0  0
 24 20  1  0  0  0  0
 25 14  1  0  0  0  0
 30 23  1  0  0  0  0
 31 23  1  0  0  0  0
 32 24  1  0  0  0  0
 33 24  1  0  0  0  0
 34 15  1  0  0  0  0
 35 34  1  0  0  0  0
 36 34  1  0  0  0  0
 37 38  1  0  0  0  0
 38  8  1  0  0  0  0
 39 40  1  0  0  0  0
 39 38  2  0  0  0  0
 41 39  1  0  0  0  0
 42 41  1  0  0  0  0
 43 45  2  0  0  0  0
 43 42  1  0  0  0  0
 44 43  1  0  0  0  0
 45 46  1  0  0  0  0
 46 41  2  0  0  0  0
 46 47  1  0  0  0  0
 47 37  2  0  0  0  0
 48 42  1  0  0  0  0
 49 50  1  0  0  0  0
 49  9  1  0  0  0  0
 51 49  1  0  0  0  0
M  END
>  <minimizedAffinity>
-6.61118031

$$$$

 OpenBabel03252502103D

 51 56  0  0  0  0  0  0  0  0999 V2000
   39.6270   27.5560   42.0230 C   0  0  0  0  0  0  0  0  0  0  0  0
   40.0380   26.7640   43.0190 N   0  0  0  0  0  0  0  0  0  0  0  0
   39.5580   25.5530   43.2890 C   0  0  0  0  0  0  0  0  0  0  0  0
   38.5740   25.0400   42.5200 N   0  0  0  0  0  0  0  0  0  0  0  0
   38.0780   25.7320   41.4950 C   0  0  0  0  0  0  0  0  0  0  0  0
   37.0720   25.2090   40.7070 C   0  0  0  0  0  0  0  0  0  0  0  0
   36.5520   25.9020   39.6530 C   0  0  0  0  0  0  0  0  0  0  0  0
   37.0700   27.1660   39.3890 C   0  0  0  0  0  0  0  0  0  0  0  0
   38.0830   27.6430   40.2150 C   0  0  0  0  0  0  0  0  0  0  0  0
   38.6150   26.9800   41.2640 C   0  0  0  0  0  0  0  0  0  0  0  0
   39.9940   25.0300   44.1320 H   0  0  0  0  0  0  0  0  0  0  0  0
   36.7250   24.2230   40.9800 H   0  0  0  0  0  0  0  0  0  0  0  0
   35.7640   25.4570   39.0610 H   0  0  0  0  0  0  0  0  0  0  0  0
   39.8450   31.1460   42.4080 C   0  0  0  0  0  0  0  0  0  0  0  0
   40.8570   31.5680   41.5410 C   0  0  0  0  0  0  0  0  0  0  0  0
   41.4970   30.5990   40.8140 C   0  0  0  0  0  0  0  0  0  0  0  0
   41.1380   29.3250   40.9520 N   0  0  0  0  0  0  0  0  0  0  0  0
   40.1870   28.9030   41.7580 C   0  0  0  0  0  0  0  0  0  0  0  0
   39.5440   29.8420   42.4900 N   0  0  0  0  0  0  0  0  0  0  0  0
   42.5170   30.9500   39.9600 N   0  0  0  0  0  0  0  0  0  0  0  0
   43.3860   29.9650   39.2570 C   0  0  0  0  0  0  0  0  0  0  0  0
   44.1560   30.7530   38.2380 C   0  0  0  0  0  0  0  0  0  0  0  0
   44.1860   32.1300   38.8090 C   0  0  0  0  0  0  0  0  0  0  0  0
   42.9320   32.2660   39.5970 C   0  0  0  0  0  0  0  0  0  0  0  0
   39.3100   31.8850   43.0090 H   0  0  0  0  0  0  0  0  0  0  0  0
   42.6730   29.3050   38.7120 H   0  0  0  0  0  0  0  0  0  0  0  0
   44.0120   29.4240   39.9860 H   0  0  0  0  0  0  0  0  0  0  0  0
   43.6560   30.7640   37.2630 H   0  0  0  0  0  0  0  0  0  0  0  0
   45.1890   30.3360   38.1870 H   0  0  0  0  0  0  0  0  0  0  0  0
   44.2130   32.8690   37.9810 H   0  0  0  0  0  0  0  0  0  0  0  0
   45.1170   32.2660   39.3810 H   0  0  0  0  0  0  0  0  0  0  0  0
   43.2590   32.8960   40.4800 H   0  0  0  0  0  0  0  0  0  0  0  0
   42.1850   32.7810   38.9640 H   0  0  0  0  0  0  0  0  0  0  0  0
   41.1070   32.9150   41.4600 N   0  0  0  0  0  0  0  0  0  0  0  0
   41.6810   33.3750   42.2230 H   0  0  0  0  0  0  0  0  0  0  0  0
   40.8310   33.6310   40.7530 H   0  0  0  0  0  0  0  0  0  0  0  0
   35.2570   28.4630   38.1910 C   0  0  0  0  0  3  0  0  0  0  0  0
   36.4710   27.8420   38.2640 C   0  0  0  0  0  0  0  0  0  0  0  0
   37.2210   27.8750   37.1030 C   0  0  0  0  0  0  0  0  0  0  0  0
   38.2000   27.4220   37.0250 H   0  0  0  0  0  0  0  0  0  0  0  0
   36.8020   28.4880   35.9300 C   0  0  0  0  0  0  0  0  0  0  0  0
   37.3060   28.6650   34.7020 N   0  0  0  0  0  0  0  0  0  0  0  0
   36.4230   29.3650   33.9350 C   0  0  0  0  0  0  0  0  0  0  0  0
   36.5620   29.6550   32.8970 H   0  0  0  0  0  0  0  0  0  0  0  0
   35.3610   29.6150   34.7160 N   0  0  0  0  0  0  0  0  0  0  0  0
   35.5600   29.0940   35.9380 C   0  0  0  0  0  0  0  0  0  0  0  0
   34.7840   29.0860   37.0630 C   0  0  0  0  0  3  0  0  0  0  0  0
   38.2330   28.3250   34.3710 H   0  0  0  0  0  0  0  0  0  0  0  0
   38.5000   28.9490   39.7960 N   0  0  0  0  0  0  0  0  0  0  0  0
   39.2260   28.7280   39.0500 H   0  0  0  0  0  0  0  0  0  0  0  0
   38.2470   29.9230   40.0550 H   0  0  0  0  0  0  0  0  0  0  0  0
  1  2  1  0  0  0  0
  2  3  2  0  0  0  0
  3 11  1  0  0  0  0
  4  3  1  0  0  0  0
  5  4  2  0  0  0  0
  6 12  1  0  0  0  0
  6  5  1  0  0  0  0
  7  6  2  0  0  0  0
  8  7  1  0  0  0  0
  8  9  2  0  0  0  0
  9 10  1  0  0  0  0
 10  5  1  0  0  0  0
 10  1  2  0  0  0  0
 13  7  1  0  0  0  0
 14 19  1  0  0  0  0
 14 25  1  0  0  0  0
 15 14  2  0  0  0  0
 16 17  2  0  0  0  0
 16 15  1  0  0  0  0
 17 18  1  0  0  0  0
 18  1  1  0  0  0  0
 18 19  2  0  0  0  0
 20 16  1  0  0  0  0
 21 20  1  0  0  0  0
 21 27  1  0  0  0  0
 22 23  1  0  0  0  0
 22 21  1  0  0  0  0
 23 31  1  0  0  0  0
 23 24  1  0  0  0  0
 24 20  1  0  0  0  0
 24 32  1  0  0  0  0
 26 21  1  0  0  0  0
 28 22  1  0  0  0  0
 29 22  1  0  0  0  0
 30 23  1  0  0  0  0
 33 24  1  0  0  0  0
 34 15  1  0  0  0  0
 34 35  1  0  0  0  0
 36 34  1  0  0  0  0
 37 38  1  0  0  0  0
 38  8  1  0  0  0  0
 39 38  2  0  0  0  0
 40 39  1  0  0  0  0
 41 46  2  0  0  0  0
 41 39  1  0  0  0  0
 42 41  1  0  0  0  0
 43 42  1  0  0  0  0
 43 45  2  0  0  0  0
 44 43  1  0  0  0  0
 45 46  1  0  0  0  0
 46 47  1  0  0  0  0
 47 37  2  0  0  0  0
 48 42  1  0  0  0  0
 49 51  1  0  0  0  0
 49  9  1  0  0  0  0
 50 49  1  0  0  0  0
M  END
>  <minimizedAffinity>
-6.55925751

$$$$

 OpenBabel03252502103D

 51 56  0  0  0  0  0  0  0  0999 V2000
   36.2370   25.2340   38.7940 C   0  0  0  0  0  0  0  0  0  0  0  0
   35.5740   24.2560   38.1650 N   0  0  0  0  0  0  0  0  0  0  0  0
   34.6310   24.4330   37.2440 C   0  0  0  0  0  0  0  0  0  0  0  0
   34.2790   25.6850   36.8830 N   0  0  0  0  0  0  0  0  0  0  0  0
   34.8670   26.7460   37.4370 C   0  0  0  0  0  0  0  0  0  0  0  0
   34.5090   28.0270   37.0670 C   0  0  0  0  0  0  0  0  0  0  0  0
   35.0990   29.1250   37.6230 C   0  0  0  0  0  0  0  0  0  0  0  0
   36.0830   28.9160   38.5830 C   0  0  0  0  0  0  0  0  0  0  0  0
   36.4040   27.6040   38.9160 C   0  0  0  0  0  0  0  0  0  0  0  0
   35.8370   26.5000   38.3840 C   0  0  0  0  0  0  0  0  0  0  0  0
   34.1830   23.5410   36.8240 H   0  0  0  0  0  0  0  0  0  0  0  0
   33.7360   28.1030   36.3170 H   0  0  0  0  0  0  0  0  0  0  0  0
   34.7900   30.1120   37.3060 H   0  0  0  0  0  0  0  0  0  0  0  0
   37.4670   24.2160   42.0400 C   0  0  0  0  0  0  0  0  0  0  0  0
   38.8460   24.4480   42.0210 C   0  0  0  0  0  0  0  0  0  0  0  0
   39.3770   24.9530   40.8630 C   0  0  0  0  0  0  0  0  0  0  0  0
   38.5800   25.2010   39.8260 N   0  0  0  0  0  0  0  0  0  0  0  0
   37.2800   24.9940   39.8190 C   0  0  0  0  0  0  0  0  0  0  0  0
   36.7350   24.4930   40.9510 N   0  0  0  0  0  0  0  0  0  0  0  0
   40.7300   25.1820   40.7770 N   0  0  0  0  0  0  0  0  0  0  0  0
   41.4280   25.5640   39.5170 C   0  0  0  0  0  0  0  0  0  0  0  0
   42.8110   25.9800   39.9250 C   0  0  0  0  0  0  0  0  0  0  0  0
   43.0360   25.2430   41.2010 C   0  0  0  0  0  0  0  0  0  0  0  0
   41.6940   25.0990   41.8250 C   0  0  0  0  0  0  0  0  0  0  0  0
   37.0030   23.8120   42.9420 H   0  0  0  0  0  0  0  0  0  0  0  0
   40.8870   26.4720   39.1640 H   0  0  0  0  0  0  0  0  0  0  0  0
   41.3950   24.7290   38.7970 H   0  0  0  0  0  0  0  0  0  0  0  0
   42.8800   27.0590   40.1000 H   0  0  0  0  0  0  0  0  0  0  0  0
   43.5230   25.6240   39.1450 H   0  0  0  0  0  0  0  0  0  0  0  0
   43.7120   25.8370   41.8520 H   0  0  0  0  0  0  0  0  0  0  0  0
   43.5580   24.2980   40.9870 H   0  0  0  0  0  0  0  0  0  0  0  0
   41.7510   24.0750   42.3060 H   0  0  0  0  0  0  0  0  0  0  0  0
   41.5750   25.9090   42.5690 H   0  0  0  0  0  0  0  0  0  0  0  0
   39.5520   24.1880   43.1690 N   0  0  0  0  0  0  0  0  0  0  0  0
   39.8070   23.1850   43.3960 H   0  0  0  0  0  0  0  0  0  0  0  0
   39.9160   24.8170   43.9170 H   0  0  0  0  0  0  0  0  0  0  0  0
   36.2650   30.8340   40.2250 C   0  0  0  0  0  3  0  0  0  0  0  0
   36.6600   30.1200   39.1300 C   0  0  0  0  0  0  0  0  0  0  0  0
   37.7640   30.6240   38.4650 C   0  0  0  0  0  0  0  0  0  0  0  0
   38.1800   30.1560   37.5840 H   0  0  0  0  0  0  0  0  0  0  0  0
   38.4460   31.7680   38.8570 C   0  0  0  0  0  0  0  0  0  0  0  0
   39.5070   32.4570   38.4160 N   0  0  0  0  0  0  0  0  0  0  0  0
   39.7270   33.5340   39.2220 C   0  0  0  0  0  0  0  0  0  0  0  0
   40.5180   34.2710   39.1070 H   0  0  0  0  0  0  0  0  0  0  0  0
   38.7790   33.4960   40.1700 N   0  0  0  0  0  0  0  0  0  0  0  0
   37.9820   32.4330   39.9770 C   0  0  0  0  0  0  0  0  0  0  0  0
   36.8950   31.9710   40.6650 C   0  0  0  0  0  3  0  0  0  0  0  0
   40.0840   32.2150   37.5840 H   0  0  0  0  0  0  0  0  0  0  0  0
   37.4370   27.5760   39.9100 N   0  0  0  0  0  0  0  0  0  0  0  0
   38.3220   27.6310   39.3210 H   0  0  0  0  0  0  0  0  0  0  0  0
   37.4620   27.5230   40.9480 H   0  0  0  0  0  0  0  0  0  0  0  0
  1 18  1  0  0  0  0
  2  1  2  0  0  0  0
  3  2  1  0  0  0  0
  4  3  2  0  0  0  0
  4  5  1  0  0  0  0
  5 10  1  0  0  0  0
  6  5  2  0  0  0  0
  6  7  1  0  0  0  0
  7  8  2  0  0  0  0
  8  9  1  0  0  0  0
  8 38  1  0  0  0  0
  9 49  1  0  0  0  0
 10  1  1  0  0  0  0
 10  9  2  0  0  0  0
 11  3  1  0  0  0  0
 12  6  1  0  0  0  0
 13  7  1  0  0  0  0
 14 25  1  0  0  0  0
 15 14  1  0  0  0  0
 15 34  1  0  0  0  0
 16 15  2  0  0  0  0
 17 16  1  0  0  0  0
 18 17  2  0  0  0  0
 18 19  1  0  0  0  0
 19 14  2  0  0  0  0
 20 16  1  0  0  0  0
 20 24  1  0  0  0  0
 21 22  1  0  0  0  0
 21 20  1  0  0  0  0
 22 28  1  0  0  0  0
 22 23  1  0  0  0  0
 23 24  1  0  0  0  0
 23 30  1  0  0  0  0
 24 32  1  0  0  0  0
 24 33  1  0  0  0  0
 26 21  1  0  0  0  0
 27 21  1  0  0  0  0
 29 22  1  0  0  0  0
 31 23  1  0  0  0  0
 34 35  1  0  0  0  0
 34 36  1  0  0  0  0
 37 47  1  0  0  0  0
 38 37  2  0  0  0  0
 39 41  2  0  0  0  0
 39 38  1  0  0  0  0
 40 39  1  0  0  0  0
 41 46  1  0  0  0  0
 42 41  1  0  0  0  0
 42 43  1  0  0  0  0
 43 45  2  0  0  0  0
 44 43  1  0  0  0  0
 46 45  1  0  0  0  0
 46 47  2  0  0  0  0
 48 42  1  0  0  0  0
 49 51  1  0  0  0  0
 50 49  1  0  0  0  0
M  END
>  <minimizedAffinity>
-6.50908947

$$$$
