
 OpenBabel03252508323D

 35 38  0  0  1  0  0  0  0  0999 V2000
   44.3040   34.3790   41.8110 N   0  0  0  0  0  0  0  0  0  0  0  0
   44.3800   33.2580   40.9320 C   0  0  2  0  0  0  0  0  0  0  0  0
   43.9230   33.6030   39.5340 C   0  0  0  0  0  0  0  0  0  0  0  0
   42.6410   34.2350   39.5330 N   0  0  0  0  0  0  0  0  0  0  0  0
   42.4990   35.2920   40.4570 C   0  0  0  0  0  0  0  0  0  0  0  0
   43.7650   35.5920   41.2290 C   0  0  0  0  0  0  0  0  0  0  0  0
   45.4570   32.9710   40.8540 H   0  0  0  0  0  0  0  0  0  0  0  0
   44.6620   34.3180   39.1160 H   0  0  0  0  0  0  0  0  0  0  0  0
   43.8990   32.7210   38.8950 H   0  0  0  0  0  0  0  0  0  0  0  0
   41.9140   33.5030   39.7300 H   0  0  0  0  0  0  0  0  0  0  0  0
   41.6810   35.1930   41.1990 H   0  0  0  0  0  0  0  0  0  0  0  0
   42.2820   36.2220   39.8670 H   0  0  0  0  0  0  0  0  0  0  0  0
   44.5160   35.8940   40.4440 H   0  0  0  0  0  0  0  0  0  0  0  0
   43.5320   36.3910   41.9170 H   0  0  0  0  0  0  0  0  0  0  0  0
   44.0210   30.7700   41.0080 C   0  0  0  0  0  3  0  0  0  0  0  0
   43.6410   32.0580   41.3320 C   0  0  0  0  0  0  0  0  0  0  0  0
   42.4730   32.0610   42.1090 C   0  0  0  0  0  0  0  0  0  0  0  0
   42.0830   33.0400   42.4240 H   0  0  0  0  0  0  0  0  0  0  0  0
   41.7760   30.9540   42.5120 C   0  0  0  0  0  0  0  0  0  0  0  0
   40.6570   30.8260   43.2490 N   0  0  0  0  0  0  0  0  0  0  0  0
   40.4040   29.5090   43.3450 C   0  0  0  0  0  0  0  0  0  0  0  0
   39.5260   29.1610   43.9090 H   0  0  0  0  0  0  0  0  0  0  0  0
   41.3560   28.8450   42.6730 N   0  0  0  0  0  0  0  0  0  0  0  0
   42.2270   29.7120   42.1430 C   0  0  0  0  0  0  0  0  0  0  0  0
   43.3700   29.6120   41.3770 C   0  0  0  0  0  3  0  0  0  0  0  0
   40.0980   31.6170   43.6650 H   0  0  0  0  0  0  0  0  0  0  0  0
   44.3910   35.2240   44.0710 C   0  0  0  0  0  0  0  0  0  0  0  0
   44.7480   34.2440   43.1560 C   0  0  0  0  0  0  0  0  0  0  0  0
   45.5080   33.1920   43.6180 C   0  0  0  0  0  0  0  0  0  0  0  0
   45.8700   33.1540   44.9190 N   0  0  0  0  0  0  0  0  0  0  0  0
   45.5100   34.1160   45.7880 C   0  0  0  0  0  0  0  0  0  0  0  0
   44.7780   35.1360   45.3580 N   0  0  0  0  0  0  0  0  0  0  0  0
   43.8050   36.1070   43.8840 H   0  0  0  0  0  0  0  0  0  0  0  0
   45.8170   32.4160   42.9510 H   0  0  0  0  0  0  0  0  0  0  0  0
   45.8760   33.9460   46.7970 H   0  0  0  0  0  0  0  0  0  0  0  0
  1 28  1  0  0  0  0
  2  7  1  6  0  0  0
  2 16  1  0  0  0  0
  2  1  1  0  0  0  0
  3  2  1  0  0  0  0
  4  3  1  0  0  0  0
  4 10  1  0  0  0  0
  4  5  1  0  0  0  0
  5 11  1  0  0  0  0
  5  6  1  0  0  0  0
  6  1  1  0  0  0  0
  6 14  1  0  0  0  0
  8  3  1  0  0  0  0
  9  3  1  0  0  0  0
 12  5  1  0  0  0  0
 13  6  1  0  0  0  0
 15 16  2  0  0  0  0
 15 25  1  0  0  0  0
 16 17  1  0  0  0  0
 17 18  1  0  0  0  0
 17 19  2  0  0  0  0
 19 20  1  0  0  0  0
 20 21  1  0  0  0  0
 20 26  1  0  0  0  0
 21 22  1  0  0  0  0
 23 21  2  0  0  0  0
 24 19  1  0  0  0  0
 24 23  1  0  0  0  0
 25 24  2  0  0  0  0
 27 32  1  0  0  0  0
 28 29  1  0  0  0  0
 28 27  2  0  0  0  0
 29 30  2  0  0  0  0
 30 31  1  0  0  0  0
 31 35  1  0  0  0  0
 32 31  2  0  0  0  0
 33 27  1  0  0  0  0
 34 29  1  0  0  0  0
M  END
>  <minimizedAffinity>
-4.25784588

>  <minimizedRMSD>
0.382571489

$$$$
