
 OpenBabel03252509173D

 28 31  0  0  0  0  0  0  0  0999 V2000
   37.4380   27.0070   40.7110 C   0  0  0  0  0  0  0  0  0  0  0  0
   36.7180   27.7410   41.6900 C   0  0  0  0  0  0  0  0  0  0  0  0
   36.8380   29.0910   41.6870 C   0  0  0  0  0  0  0  0  0  0  0  0
   37.6680   29.7150   40.7160 C   0  0  0  0  0  0  0  0  0  0  0  0
   38.3130   28.2810   39.7540 S   0  0  0  0  0  0  0  0  0  0  0  0
   36.1000   27.2260   42.4100 H   0  0  0  0  0  0  0  0  0  0  0  0
   36.3570   29.7460   42.3600 H   0  0  0  0  0  0  0  0  0  0  0  0
   37.0310   31.9090   39.9100 C   0  0  0  0  0  3  0  0  0  0  0  0
   37.9650   31.0780   40.4910 C   0  0  0  0  0  0  0  0  0  0  0  0
   39.2140   31.5190   40.8770 C   0  0  0  0  0  0  0  0  0  0  0  0
   39.9770   30.8940   41.3370 H   0  0  0  0  0  0  0  0  0  0  0  0
   39.5390   32.8640   40.6670 C   0  0  0  0  0  0  0  0  0  0  0  0
   40.6820   33.5520   40.9480 N   0  0  0  0  0  0  0  0  0  0  0  0
   40.4470   34.8280   40.5330 C   0  0  0  0  0  0  0  0  0  0  0  0
   41.1230   35.6870   40.5850 H   0  0  0  0  0  0  0  0  0  0  0  0
   39.2000   34.9090   40.0170 N   0  0  0  0  0  0  0  0  0  0  0  0
   38.6130   33.7050   40.0870 C   0  0  0  0  0  0  0  0  0  0  0  0
   37.3550   33.2330   39.7060 C   0  0  0  0  0  3  0  0  0  0  0  0
   41.5600   33.2050   41.3840 H   0  0  0  0  0  0  0  0  0  0  0  0
   36.5400   23.4480   40.0800 C   0  0  0  0  0  0  0  0  0  0  0  0
   37.7200   22.8130   40.5510 C   0  0  0  0  0  0  0  0  0  0  0  0
   38.7390   23.6280   41.0500 C   0  0  0  0  0  0  0  0  0  0  0  0
   38.5470   24.9880   41.0580 N   0  0  0  0  0  0  0  0  0  0  0  0
   37.4040   25.5440   40.5970 C   0  0  0  0  0  0  0  0  0  0  0  0
   36.3950   24.7820   40.1050 N   0  0  0  0  0  0  0  0  0  0  0  0
   35.7320   22.8460   39.6870 H   0  0  0  0  0  0  0  0  0  0  0  0
   37.8360   21.7490   40.5300 H   0  0  0  0  0  0  0  0  0  0  0  0
   39.6670   23.2210   41.4270 H   0  0  0  0  0  0  0  0  0  0  0  0
  1  2  2  0  0  0  0
  2  6  1  0  0  0  0
  3  2  1  0  0  0  0
  3  7  1  0  0  0  0
  4  3  2  0  0  0  0
  5  1  1  0  0  0  0
  5  4  1  0  0  0  0
  8  9  1  0  0  0  0
  9  4  1  0  0  0  0
  9 10  2  0  0  0  0
 10 11  1  0  0  0  0
 12 10  1  0  0  0  0
 12 13  1  0  0  0  0
 13 19  1  0  0  0  0
 14 15  1  0  0  0  0
 14 13  1  0  0  0  0
 16 17  1  0  0  0  0
 16 14  2  0  0  0  0
 17 12  2  0  0  0  0
 18  8  2  0  0  0  0
 18 17  1  0  0  0  0
 20 25  2  0  0  0  0
 20 21  1  0  0  0  0
 21 22  2  0  0  0  0
 22 23  1  0  0  0  0
 22 28  1  0  0  0  0
 24  1  1  0  0  0  0
 24 23  2  0  0  0  0
 25 24  1  0  0  0  0
 26 20  1  0  0  0  0
 27 21  1  0  0  0  0
M  END
>  <minimizedAffinity>
-5.39135838

$$$$

 OpenBabel03252509173D

 28 31  0  0  0  0  0  0  0  0999 V2000
   38.8690   30.9120   41.1140 C   0  0  0  0  0  0  0  0  0  0  0  0
   39.0740   30.3910   42.4190 C   0  0  0  0  0  0  0  0  0  0  0  0
   38.8580   29.0680   42.6160 C   0  0  0  0  0  0  0  0  0  0  0  0
   38.4410   28.2590   41.5240 C   0  0  0  0  0  0  0  0  0  0  0  0
   38.3530   29.4690   40.1360 S   0  0  0  0  0  0  0  0  0  0  0  0
   39.3910   31.0420   43.2210 H   0  0  0  0  0  0  0  0  0  0  0  0
   38.9750   28.5620   43.5350 H   0  0  0  0  0  0  0  0  0  0  0  0
   37.2310   26.3140   42.3110 C   0  0  0  0  0  3  0  0  0  0  0  0
   38.1510   26.8780   41.4530 C   0  0  0  0  0  0  0  0  0  0  0  0
   38.8230   26.1440   40.4970 C   0  0  0  0  0  0  0  0  0  0  0  0
   39.5550   26.5540   39.8040 H   0  0  0  0  0  0  0  0  0  0  0  0
   38.5570   24.7740   40.4020 C   0  0  0  0  0  0  0  0  0  0  0  0
   39.0720   23.8290   39.5630 N   0  0  0  0  0  0  0  0  0  0  0  0
   38.4580   22.6640   39.9120 C   0  0  0  0  0  0  0  0  0  0  0  0
   38.6000   21.6730   39.4720 H   0  0  0  0  0  0  0  0  0  0  0  0
   37.5990   22.8970   40.9290 N   0  0  0  0  0  0  0  0  0  0  0  0
   37.6400   24.1980   41.2550 C   0  0  0  0  0  0  0  0  0  0  0  0
   36.9720   24.9640   42.2130 C   0  0  0  0  0  3  0  0  0  0  0  0
   39.7810   23.9440   38.8110 H   0  0  0  0  0  0  0  0  0  0  0  0
   38.4690   34.4840   40.1430 C   0  0  0  0  0  0  0  0  0  0  0  0
   39.8300   34.8880   40.1360 C   0  0  0  0  0  0  0  0  0  0  0  0
   40.7920   33.9280   40.4590 C   0  0  0  0  0  0  0  0  0  0  0  0
   40.3730   32.6560   40.7650 N   0  0  0  0  0  0  0  0  0  0  0  0
   39.0630   32.3220   40.7570 C   0  0  0  0  0  0  0  0  0  0  0  0
   38.1040   33.2300   40.4480 N   0  0  0  0  0  0  0  0  0  0  0  0
   37.6990   35.2030   39.8970 H   0  0  0  0  0  0  0  0  0  0  0  0
   40.1220   35.8890   39.8930 H   0  0  0  0  0  0  0  0  0  0  0  0
   41.8490   34.1560   40.4770 H   0  0  0  0  0  0  0  0  0  0  0  0
  1  2  2  0  0  0  0
  2  3  1  0  0  0  0
  2  6  1  0  0  0  0
  3  7  1  0  0  0  0
  4  3  2  0  0  0  0
  5  1  1  0  0  0  0
  5  4  1  0  0  0  0
  9  4  1  0  0  0  0
  9  8  2  0  0  0  0
 10  9  1  0  0  0  0
 11 10  1  0  0  0  0
 12 10  2  0  0  0  0
 12 17  1  0  0  0  0
 13 14  1  0  0  0  0
 13 12  1  0  0  0  0
 14 16  2  0  0  0  0
 15 14  1  0  0  0  0
 16 17  1  0  0  0  0
 17 18  2  0  0  0  0
 18  8  1  0  0  0  0
 19 13  1  0  0  0  0
 20 25  1  0  0  0  0
 21 20  2  0  0  0  0
 21 22  1  0  0  0  0
 22 28  1  0  0  0  0
 22 23  2  0  0  0  0
 24 23  1  0  0  0  0
 24  1  1  0  0  0  0
 25 24  2  0  0  0  0
 26 20  1  0  0  0  0
 27 21  1  0  0  0  0
M  END
>  <minimizedAffinity>
-5.25978041

$$$$

 OpenBabel03252509173D

 28 31  0  0  0  0  0  0  0  0999 V2000
   38.1330   31.2680   40.5440 C   0  0  0  0  0  0  0  0  0  0  0  0
   36.7630   31.0380   40.8370 C   0  0  0  0  0  0  0  0  0  0  0  0
   36.3400   29.7530   40.9290 C   0  0  0  0  0  0  0  0  0  0  0  0
   37.2700   28.6970   40.7320 C   0  0  0  0  0  0  0  0  0  0  0  0
   38.8420   29.6000   40.3950 S   0  0  0  0  0  0  0  0  0  0  0  0
   36.0900   31.8700   40.9790 H   0  0  0  0  0  0  0  0  0  0  0  0
   35.3510   29.4520   41.1410 H   0  0  0  0  0  0  0  0  0  0  0  0
   37.1630   26.6170   41.9700 C   0  0  0  0  0  3  0  0  0  0  0  0
   37.1010   27.2950   40.7700 C   0  0  0  0  0  0  0  0  0  0  0  0
   36.8750   26.6570   39.5670 C   0  0  0  0  0  0  0  0  0  0  0  0
   36.8200   27.1570   38.6020 H   0  0  0  0  0  0  0  0  0  0  0  0
   36.7040   25.2680   39.5730 C   0  0  0  0  0  0  0  0  0  0  0  0
   36.4710   24.4020   38.5450 N   0  0  0  0  0  0  0  0  0  0  0  0
   36.3890   23.1710   39.1220 C   0  0  0  0  0  0  0  0  0  0  0  0
   36.2100   22.2100   38.6310 H   0  0  0  0  0  0  0  0  0  0  0  0
   36.5660   23.2890   40.4570 N   0  0  0  0  0  0  0  0  0  0  0  0
   36.7640   24.5800   40.7650 C   0  0  0  0  0  0  0  0  0  0  0  0
   36.9930   25.2500   41.9690 C   0  0  0  0  0  3  0  0  0  0  0  0
   36.3730   24.6080   37.5300 H   0  0  0  0  0  0  0  0  0  0  0  0
   38.7900   34.9100   40.1400 C   0  0  0  0  0  0  0  0  0  0  0  0
   40.2080   34.9100   40.2100 C   0  0  0  0  0  0  0  0  0  0  0  0
   40.8480   33.6810   40.3880 C   0  0  0  0  0  0  0  0  0  0  0  0
   40.0780   32.5490   40.4860 N   0  0  0  0  0  0  0  0  0  0  0  0
   38.7280   32.6020   40.4140 C   0  0  0  0  0  0  0  0  0  0  0  0
   38.0760   33.7800   40.2410 N   0  0  0  0  0  0  0  0  0  0  0  0
   38.2640   35.8460   40.0030 H   0  0  0  0  0  0  0  0  0  0  0  0
   40.7790   35.8130   40.1290 H   0  0  0  0  0  0  0  0  0  0  0  0
   41.9240   33.5980   40.4510 H   0  0  0  0  0  0  0  0  0  0  0  0
  1  2  2  0  0  0  0
  2  3  1  0  0  0  0
  2  6  1  0  0  0  0
  3  7  1  0  0  0  0
  4  9  1  0  0  0  0
  4  3  2  0  0  0  0
  5  1  1  0  0  0  0
  5  4  1  0  0  0  0
  9  8  2  0  0  0  0
 10 12  2  0  0  0  0
 10  9  1  0  0  0  0
 11 10  1  0  0  0  0
 12 17  1  0  0  0  0
 13 14  1  0  0  0  0
 13 12  1  0  0  0  0
 14 16  2  0  0  0  0
 15 14  1  0  0  0  0
 16 17  1  0  0  0  0
 17 18  2  0  0  0  0
 18  8  1  0  0  0  0
 19 13  1  0  0  0  0
 20 21  2  0  0  0  0
 20 25  1  0  0  0  0
 21 22  1  0  0  0  0
 22 28  1  0  0  0  0
 22 23  2  0  0  0  0
 24 23  1  0  0  0  0
 24  1  1  0  0  0  0
 25 24  2  0  0  0  0
 26 20  1  0  0  0  0
 27 21  1  0  0  0  0
M  END
>  <minimizedAffinity>
-5.2268405

$$$$

 OpenBabel03252509173D

 28 31  0  0  0  0  0  0  0  0999 V2000
   39.8600   31.8220   39.8880 C   0  0  0  0  0  0  0  0  0  0  0  0
   38.5890   32.0770   40.4660 C   0  0  0  0  0  0  0  0  0  0  0  0
   37.9100   31.0290   40.9960 C   0  0  0  0  0  0  0  0  0  0  0  0
   38.4880   29.7320   40.9550 C   0  0  0  0  0  0  0  0  0  0  0  0
   40.0970   30.0320   40.1070 S   0  0  0  0  0  0  0  0  0  0  0  0
   38.1860   33.0790   40.4750 H   0  0  0  0  0  0  0  0  0  0  0  0
   36.9600   31.0880   41.4520 H   0  0  0  0  0  0  0  0  0  0  0  0
   37.2670   28.4210   42.5860 C   0  0  0  0  0  3  0  0  0  0  0  0
   38.0080   28.4890   41.4250 C   0  0  0  0  0  0  0  0  0  0  0  0
   38.3140   27.3730   40.6730 C   0  0  0  0  0  0  0  0  0  0  0  0
   38.8960   27.3870   39.7540 H   0  0  0  0  0  0  0  0  0  0  0  0
   37.8520   26.1280   41.1130 C   0  0  0  0  0  0  0  0  0  0  0  0
   38.0080   24.8850   40.5720 N   0  0  0  0  0  0  0  0  0  0  0  0
   37.3520   24.0400   41.4140 C   0  0  0  0  0  0  0  0  0  0  0  0
   37.2450   22.9540   41.3270 H   0  0  0  0  0  0  0  0  0  0  0  0
   36.8160   24.7480   42.4330 N   0  0  0  0  0  0  0  0  0  0  0  0
   37.1100   26.0470   42.2720 C   0  0  0  0  0  0  0  0  0  0  0  0
   36.8130   27.1930   43.0140 C   0  0  0  0  0  3  0  0  0  0  0  0
   38.5140   24.6120   39.7050 H   0  0  0  0  0  0  0  0  0  0  0  0
   41.7710   34.9110   39.0690 C   0  0  0  0  0  0  0  0  0  0  0  0
   42.3400   34.5230   37.8270 C   0  0  0  0  0  0  0  0  0  0  0  0
   42.0410   33.2440   37.3500 C   0  0  0  0  0  0  0  0  0  0  0  0
   41.2200   32.4390   38.1000 N   0  0  0  0  0  0  0  0  0  0  0  0
   40.7020   32.8560   39.2780 C   0  0  0  0  0  0  0  0  0  0  0  0
   40.9740   34.0910   39.7700 N   0  0  0  0  0  0  0  0  0  0  0  0
   41.9830   35.8940   39.4680 H   0  0  0  0  0  0  0  0  0  0  0  0
   42.9770   35.1760   37.2680 H   0  0  0  0  0  0  0  0  0  0  0  0
   42.4350   32.8740   36.4130 H   0  0  0  0  0  0  0  0  0  0  0  0
  1  5  1  0  0  0  0
  1  2  2  0  0  0  0
  2  6  1  0  0  0  0
  2  3  1  0  0  0  0
  3  7  1  0  0  0  0
  4  3  2  0  0  0  0
  4  9  1  0  0  0  0
  5  4  1  0  0  0  0
  8 18  1  0  0  0  0
  9  8  2  0  0  0  0
 10 12  2  0  0  0  0
 10  9  1  0  0  0  0
 11 10  1  0  0  0  0
 12 17  1  0  0  0  0
 13 12  1  0  0  0  0
 13 14  1  0  0  0  0
 14 16  2  0  0  0  0
 15 14  1  0  0  0  0
 17 16  1  0  0  0  0
 17 18  2  0  0  0  0
 19 13  1  0  0  0  0
 20 26  1  0  0  0  0
 20 25  1  0  0  0  0
 21 20  2  0  0  0  0
 22 21  1  0  0  0  0
 22 23  2  0  0  0  0
 23 24  1  0  0  0  0
 24 25  2  0  0  0  0
 24  1  1  0  0  0  0
 27 21  1  0  0  0  0
 28 22  1  0  0  0  0
M  END
>  <minimizedAffinity>
-5.03100109

$$$$

 OpenBabel03252509173D

 28 31  0  0  0  0  0  0  0  0999 V2000
   34.7830   28.4840   38.4350 C   0  0  0  0  0  0  0  0  0  0  0  0
   34.5900   29.2380   39.6220 C   0  0  0  0  0  0  0  0  0  0  0  0
   35.3800   28.9580   40.6880 C   0  0  0  0  0  0  0  0  0  0  0  0
   36.3590   27.9340   40.5800 C   0  0  0  0  0  0  0  0  0  0  0  0
   36.1330   27.3390   38.8500 S   0  0  0  0  0  0  0  0  0  0  0  0
   33.8330   30.0080   39.6610 H   0  0  0  0  0  0  0  0  0  0  0  0
   35.3340   29.4450   41.6230 H   0  0  0  0  0  0  0  0  0  0  0  0
   37.2220   27.8290   42.8420 C   0  0  0  0  0  3  0  0  0  0  0  0
   37.2960   27.4470   41.5180 C   0  0  0  0  0  0  0  0  0  0  0  0
   38.2670   26.5870   41.0470 C   0  0  0  0  0  0  0  0  0  0  0  0
   38.3580   26.2640   40.0120 H   0  0  0  0  0  0  0  0  0  0  0  0
   39.2100   26.0880   41.9530 C   0  0  0  0  0  0  0  0  0  0  0  0
   40.2580   25.2370   41.7580 N   0  0  0  0  0  0  0  0  0  0  0  0
   40.8380   25.0940   42.9820 C   0  0  0  0  0  0  0  0  0  0  0  0
   41.7120   24.4900   43.2450 H   0  0  0  0  0  0  0  0  0  0  0  0
   40.1620   25.8350   43.8890 N   0  0  0  0  0  0  0  0  0  0  0  0
   39.1460   26.4630   43.2780 C   0  0  0  0  0  0  0  0  0  0  0  0
   38.1520   27.3340   43.7290 C   0  0  0  0  0  3  0  0  0  0  0  0
   40.5720   24.7820   40.8780 H   0  0  0  0  0  0  0  0  0  0  0  0
   33.5290   28.6340   34.9320 C   0  0  0  0  0  0  0  0  0  0  0  0
   32.2420   29.1890   35.1580 C   0  0  0  0  0  0  0  0  0  0  0  0
   31.8830   29.4760   36.4770 C   0  0  0  0  0  0  0  0  0  0  0  0
   32.7860   29.2070   37.4760 N   0  0  0  0  0  0  0  0  0  0  0  0
   34.0020   28.6770   37.2080 C   0  0  0  0  0  0  0  0  0  0  0  0
   34.3810   28.3870   35.9380 N   0  0  0  0  0  0  0  0  0  0  0  0
   33.8390   28.4000   33.9220 H   0  0  0  0  0  0  0  0  0  0  0  0
   31.5620   29.3860   34.3550 H   0  0  0  0  0  0  0  0  0  0  0  0
   30.9210   29.8990   36.7320 H   0  0  0  0  0  0  0  0  0  0  0  0
  1  5  1  0  0  0  0
  1  2  2  0  0  0  0
  2  6  1  0  0  0  0
  2  3  1  0  0  0  0
  3  7  1  0  0  0  0
  4  3  2  0  0  0  0
  4  9  1  0  0  0  0
  5  4  1  0  0  0  0
  8 18  1  0  0  0  0
  9  8  2  0  0  0  0
 10  9  1  0  0  0  0
 10 12  2  0  0  0  0
 11 10  1  0  0  0  0
 12 17  1  0  0  0  0
 13 12  1  0  0  0  0
 13 14  1  0  0  0  0
 14 15  1  0  0  0  0
 14 16  2  0  0  0  0
 17 18  2  0  0  0  0
 17 16  1  0  0  0  0
 19 13  1  0  0  0  0
 20 21  2  0  0  0  0
 20 25  1  0  0  0  0
 21 22  1  0  0  0  0
 22 28  1  0  0  0  0
 22 23  2  0  0  0  0
 24 23  1  0  0  0  0
 24  1  1  0  0  0  0
 25 24  2  0  0  0  0
 26 20  1  0  0  0  0
 27 21  1  0  0  0  0
M  END
>  <minimizedAffinity>
-5.0297637

$$$$

 OpenBabel03252509173D

 28 31  0  0  0  0  0  0  0  0999 V2000
   37.7060   30.2640   40.4990 C   0  0  0  0  0  0  0  0  0  0  0  0
   36.9340   29.6750   41.5340 C   0  0  0  0  0  0  0  0  0  0  0  0
   36.6710   28.3470   41.4540 C   0  0  0  0  0  0  0  0  0  0  0  0
   37.1720   27.6020   40.3530 C   0  0  0  0  0  0  0  0  0  0  0  0
   38.0720   28.8810   39.3760 S   0  0  0  0  0  0  0  0  0  0  0  0
   36.5710   30.2780   42.3540 H   0  0  0  0  0  0  0  0  0  0  0  0
   36.1100   27.7950   42.1570 H   0  0  0  0  0  0  0  0  0  0  0  0
   36.2100   25.8290   39.0110 C   0  0  0  0  0  3  0  0  0  0  0  0
   37.0500   26.2330   40.0290 C   0  0  0  0  0  0  0  0  0  0  0  0
   37.8000   25.3430   40.7690 C   0  0  0  0  0  0  0  0  0  0  0  0
   38.4720   25.6230   41.5780 H   0  0  0  0  0  0  0  0  0  0  0  0
   37.6990   23.9790   40.4720 C   0  0  0  0  0  0  0  0  0  0  0  0
   38.3180   22.9030   41.0370 N   0  0  0  0  0  0  0  0  0  0  0  0
   37.8510   21.8200   40.3560 C   0  0  0  0  0  0  0  0  0  0  0  0
   38.1080   20.7670   40.5100 H   0  0  0  0  0  0  0  0  0  0  0  0
   36.9780   22.2280   39.4080 N   0  0  0  0  0  0  0  0  0  0  0  0
   36.8640   23.5640   39.4570 C   0  0  0  0  0  0  0  0  0  0  0  0
   36.1160   24.4860   38.7220 C   0  0  0  0  0  3  0  0  0  0  0  0
   39.0020   22.8830   41.8200 H   0  0  0  0  0  0  0  0  0  0  0  0
   39.3010   33.6050   40.8970 C   0  0  0  0  0  0  0  0  0  0  0  0
   38.3990   34.3960   40.1390 C   0  0  0  0  0  0  0  0  0  0  0  0
   37.3120   33.7500   39.5450 C   0  0  0  0  0  0  0  0  0  0  0  0
   37.1770   32.3960   39.7230 N   0  0  0  0  0  0  0  0  0  0  0  0
   38.0650   31.6850   40.4550 C   0  0  0  0  0  0  0  0  0  0  0  0
   39.1310   32.2830   41.0460 N   0  0  0  0  0  0  0  0  0  0  0  0
   40.1530   34.0740   41.3710 H   0  0  0  0  0  0  0  0  0  0  0  0
   38.5340   35.4520   40.0200 H   0  0  0  0  0  0  0  0  0  0  0  0
   36.5810   34.2830   38.9520 H   0  0  0  0  0  0  0  0  0  0  0  0
  1  2  2  0  0  0  0
  2  6  1  0  0  0  0
  3  2  1  0  0  0  0
  3  7  1  0  0  0  0
  4  3  2  0  0  0  0
  5  4  1  0  0  0  0
  5  1  1  0  0  0  0
  8  9  1  0  0  0  0
  9  4  1  0  0  0  0
  9 10  2  0  0  0  0
 10 11  1  0  0  0  0
 12 10  1  0  0  0  0
 12 13  1  0  0  0  0
 13 19  1  0  0  0  0
 14 15  1  0  0  0  0
 14 13  1  0  0  0  0
 16 17  1  0  0  0  0
 16 14  2  0  0  0  0
 17 12  2  0  0  0  0
 18  8  2  0  0  0  0
 18 17  1  0  0  0  0
 20 25  1  0  0  0  0
 20 26  1  0  0  0  0
 21 20  2  0  0  0  0
 22 23  2  0  0  0  0
 22 21  1  0  0  0  0
 23 24  1  0  0  0  0
 24  1  1  0  0  0  0
 24 25  2  0  0  0  0
 27 21  1  0  0  0  0
 28 22  1  0  0  0  0
M  END
>  <minimizedAffinity>
-4.93218088

$$$$

 OpenBabel03252509173D

 28 31  0  0  0  0  0  0  0  0999 V2000
   37.7320   27.9980   40.4330 C   0  0  0  0  0  0  0  0  0  0  0  0
   36.8260   29.0670   40.2080 C   0  0  0  0  0  0  0  0  0  0  0  0
   37.3430   30.2940   39.9500 C   0  0  0  0  0  0  0  0  0  0  0  0
   38.7540   30.4620   39.9140 C   0  0  0  0  0  0  0  0  0  0  0  0
   39.3730   28.7630   40.2720 S   0  0  0  0  0  0  0  0  0  0  0  0
   35.7610   28.8950   40.2460 H   0  0  0  0  0  0  0  0  0  0  0  0
   36.7780   31.1660   39.7670 H   0  0  0  0  0  0  0  0  0  0  0  0
   39.5900   32.6310   40.5990 C   0  0  0  0  0  3  0  0  0  0  0  0
   39.5430   31.6090   39.6730 C   0  0  0  0  0  0  0  0  0  0  0  0
   40.2480   31.6480   38.4880 C   0  0  0  0  0  0  0  0  0  0  0  0
   40.2360   30.8630   37.7350 H   0  0  0  0  0  0  0  0  0  0  0  0
   41.0390   32.7710   38.2210 C   0  0  0  0  0  0  0  0  0  0  0  0
   41.8240   33.0640   37.1450 N   0  0  0  0  0  0  0  0  0  0  0  0
   42.3630   34.2850   37.4130 C   0  0  0  0  0  0  0  0  0  0  0  0
   43.0510   34.8670   36.7920 H   0  0  0  0  0  0  0  0  0  0  0  0
   41.9180   34.7180   38.6140 N   0  0  0  0  0  0  0  0  0  0  0  0
   41.0940   33.7990   39.1380 C   0  0  0  0  0  0  0  0  0  0  0  0
   40.3700   33.7340   40.3310 C   0  0  0  0  0  3  0  0  0  0  0  0
   41.9940   32.4960   36.2900 H   0  0  0  0  0  0  0  0  0  0  0  0
   36.9420   24.7120   41.9980 C   0  0  0  0  0  0  0  0  0  0  0  0
   36.4350   24.0200   40.8670 C   0  0  0  0  0  0  0  0  0  0  0  0
   36.3930   24.7080   39.6520 C   0  0  0  0  0  0  0  0  0  0  0  0
   36.8410   26.0060   39.6170 N   0  0  0  0  0  0  0  0  0  0  0  0
   37.3160   26.6210   40.7240 C   0  0  0  0  0  0  0  0  0  0  0  0
   37.3690   25.9810   41.9190 N   0  0  0  0  0  0  0  0  0  0  0  0
   36.9880   24.2080   42.9540 H   0  0  0  0  0  0  0  0  0  0  0  0
   36.0940   23.0070   40.9290 H   0  0  0  0  0  0  0  0  0  0  0  0
   36.0210   24.2510   38.7450 H   0  0  0  0  0  0  0  0  0  0  0  0
  1 24  1  0  0  0  0
  2  6  1  0  0  0  0
  2  1  2  0  0  0  0
  3  2  1  0  0  0  0
  4  3  2  0  0  0  0
  4  5  1  0  0  0  0
  5  1  1  0  0  0  0
  7  3  1  0  0  0  0
  9  4  1  0  0  0  0
  9  8  2  0  0  0  0
 10  9  1  0  0  0  0
 11 10  1  0  0  0  0
 12 10  2  0  0  0  0
 12 17  1  0  0  0  0
 13 14  1  0  0  0  0
 13 12  1  0  0  0  0
 14 16  2  0  0  0  0
 15 14  1  0  0  0  0
 16 17  1  0  0  0  0
 17 18  2  0  0  0  0
 18  8  1  0  0  0  0
 19 13  1  0  0  0  0
 20 26  1  0  0  0  0
 21 27  1  0  0  0  0
 21 20  2  0  0  0  0
 22 21  1  0  0  0  0
 23 22  2  0  0  0  0
 23 24  1  0  0  0  0
 24 25  2  0  0  0  0
 25 20  1  0  0  0  0
 28 22  1  0  0  0  0
M  END
>  <minimizedAffinity>
-4.85460901

$$$$

 OpenBabel03252509173D

 28 31  0  0  0  0  0  0  0  0999 V2000
   36.5580   27.8470   40.5680 C   0  0  0  0  0  0  0  0  0  0  0  0
   35.5780   28.8150   40.9100 C   0  0  0  0  0  0  0  0  0  0  0  0
   34.7290   29.2300   39.9380 C   0  0  0  0  0  0  0  0  0  0  0  0
   34.8490   28.6880   38.6300 C   0  0  0  0  0  0  0  0  0  0  0  0
   36.2610   27.5160   38.8050 S   0  0  0  0  0  0  0  0  0  0  0  0
   35.5230   29.2020   41.9170 H   0  0  0  0  0  0  0  0  0  0  0  0
   33.9610   29.9430   40.0650 H   0  0  0  0  0  0  0  0  0  0  0  0
   34.7320   28.9250   36.2210 C   0  0  0  0  0  3  0  0  0  0  0  0
   34.1090   28.9390   37.4520 C   0  0  0  0  0  0  0  0  0  0  0  0
   32.7610   29.1930   37.6000 C   0  0  0  0  0  0  0  0  0  0  0  0
   32.2360   29.2140   38.5520 H   0  0  0  0  0  0  0  0  0  0  0  0
   32.0030   29.4460   36.4510 C   0  0  0  0  0  0  0  0  0  0  0  0
   30.6740   29.7230   36.3130 N   0  0  0  0  0  0  0  0  0  0  0  0
   30.4760   29.8800   34.9750 C   0  0  0  0  0  0  0  0  0  0  0  0
   29.5400   30.1120   34.4570 H   0  0  0  0  0  0  0  0  0  0  0  0
   31.6480   29.7050   34.3240 N   0  0  0  0  0  0  0  0  0  0  0  0
   32.6130   29.4340   35.2160 C   0  0  0  0  0  0  0  0  0  0  0  0
   33.9800   29.1730   35.0940 C   0  0  0  0  0  3  0  0  0  0  0  0
   29.9460   29.8030   37.0510 H   0  0  0  0  0  0  0  0  0  0  0  0
   38.8060   25.7000   42.6180 C   0  0  0  0  0  0  0  0  0  0  0  0
   39.4420   26.6960   43.4050 C   0  0  0  0  0  0  0  0  0  0  0  0
   39.0700   28.0250   43.1920 C   0  0  0  0  0  0  0  0  0  0  0  0
   38.1180   28.2950   42.2400 N   0  0  0  0  0  0  0  0  0  0  0  0
   37.5410   27.3090   41.5150 C   0  0  0  0  0  0  0  0  0  0  0  0
   37.8800   26.0080   41.6980 N   0  0  0  0  0  0  0  0  0  0  0  0
   39.0720   24.6600   42.7580 H   0  0  0  0  0  0  0  0  0  0  0  0
   40.1810   26.4500   44.1390 H   0  0  0  0  0  0  0  0  0  0  0  0
   39.5080   28.8410   43.7510 H   0  0  0  0  0  0  0  0  0  0  0  0
  1  2  2  0  0  0  0
  1 24  1  0  0  0  0
  2  6  1  0  0  0  0
  3  7  1  0  0  0  0
  3  2  1  0  0  0  0
  4  5  1  0  0  0  0
  4  3  2  0  0  0  0
  5  1  1  0  0  0  0
  8  9  1  0  0  0  0
  9 10  2  0  0  0  0
  9  4  1  0  0  0  0
 10 11  1  0  0  0  0
 12 10  1  0  0  0  0
 13 12  1  0  0  0  0
 13 19  1  0  0  0  0
 14 13  1  0  0  0  0
 15 14  1  0  0  0  0
 16 14  2  0  0  0  0
 16 17  1  0  0  0  0
 17 12  2  0  0  0  0
 18 17  1  0  0  0  0
 18  8  2  0  0  0  0
 20 26  1  0  0  0  0
 20 21  1  0  0  0  0
 21 27  1  0  0  0  0
 22 21  2  0  0  0  0
 22 28  1  0  0  0  0
 23 22  1  0  0  0  0
 24 25  1  0  0  0  0
 24 23  2  0  0  0  0
 25 20  2  0  0  0  0
M  END
>  <minimizedAffinity>
-4.84496164

$$$$

 OpenBabel03252509173D

 28 31  0  0  0  0  0  0  0  0999 V2000
   37.4870   25.4640   40.6130 C   0  0  0  0  0  0  0  0  0  0  0  0
   37.1260   25.9750   41.8870 C   0  0  0  0  0  0  0  0  0  0  0  0
   37.3110   27.2980   42.1180 C   0  0  0  0  0  0  0  0  0  0  0  0
   37.8510   28.1160   41.0890 C   0  0  0  0  0  0  0  0  0  0  0  0
   38.1100   26.9160   39.7130 S   0  0  0  0  0  0  0  0  0  0  0  0
   36.7190   25.3170   42.6420 H   0  0  0  0  0  0  0  0  0  0  0  0
   37.0830   27.7960   43.0200 H   0  0  0  0  0  0  0  0  0  0  0  0
   39.2080   30.0010   41.7790 C   0  0  0  0  0  3  0  0  0  0  0  0
   38.1420   29.4980   41.0610 C   0  0  0  0  0  0  0  0  0  0  0  0
   37.3200   30.2970   40.2940 C   0  0  0  0  0  0  0  0  0  0  0  0
   36.4710   29.9380   39.7160 H   0  0  0  0  0  0  0  0  0  0  0  0
   37.5820   31.6710   40.2480 C   0  0  0  0  0  0  0  0  0  0  0  0
   36.9390   32.6720   39.5800 N   0  0  0  0  0  0  0  0  0  0  0  0
   37.6200   33.8090   39.8930 C   0  0  0  0  0  0  0  0  0  0  0  0
   37.4150   34.8290   39.5540 H   0  0  0  0  0  0  0  0  0  0  0  0
   38.6430   33.5060   40.7230 N   0  0  0  0  0  0  0  0  0  0  0  0
   38.6440   32.1850   40.9600 C   0  0  0  0  0  0  0  0  0  0  0  0
   39.4620   31.3540   41.7280 C   0  0  0  0  0  3  0  0  0  0  0  0
   36.1060   32.6100   38.9610 H   0  0  0  0  0  0  0  0  0  0  0  0
   37.8280   21.7830   40.1700 C   0  0  0  0  0  0  0  0  0  0  0  0
   36.7560   21.5470   39.2680 C   0  0  0  0  0  0  0  0  0  0  0  0
   35.9910   22.6450   38.8700 C   0  0  0  0  0  0  0  0  0  0  0  0
   36.3130   23.8840   39.3680 N   0  0  0  0  0  0  0  0  0  0  0  0
   37.3440   24.0560   40.2260 C   0  0  0  0  0  0  0  0  0  0  0  0
   38.1060   23.0100   40.6330 N   0  0  0  0  0  0  0  0  0  0  0  0
   38.4400   20.9540   40.4990 H   0  0  0  0  0  0  0  0  0  0  0  0
   36.5330   20.5670   38.9000 H   0  0  0  0  0  0  0  0  0  0  0  0
   35.1590   22.5480   38.1870 H   0  0  0  0  0  0  0  0  0  0  0  0
  1  2  2  0  0  0  0
  2  3  1  0  0  0  0
  2  6  1  0  0  0  0
  3  7  1  0  0  0  0
  4  3  2  0  0  0  0
  5  1  1  0  0  0  0
  5  4  1  0  0  0  0
  9  4  1  0  0  0  0
  9  8  2  0  0  0  0
 10  9  1  0  0  0  0
 11 10  1  0  0  0  0
 12 10  2  0  0  0  0
 12 17  1  0  0  0  0
 13 14  1  0  0  0  0
 13 12  1  0  0  0  0
 14 16  2  0  0  0  0
 15 14  1  0  0  0  0
 16 17  1  0  0  0  0
 17 18  2  0  0  0  0
 18  8  1  0  0  0  0
 19 13  1  0  0  0  0
 20 26  1  0  0  0  0
 20 25  1  0  0  0  0
 21 20  2  0  0  0  0
 22 21  1  0  0  0  0
 22 23  2  0  0  0  0
 23 24  1  0  0  0  0
 24  1  1  0  0  0  0
 24 25  2  0  0  0  0
 27 21  1  0  0  0  0
 28 22  1  0  0  0  0
M  END
>  <minimizedAffinity>
-4.83849382

$$$$
