
 OpenBabel03252506573D

 41 46  0  0  0  0  0  0  0  0999 V2000
   47.2380   31.4000   45.3250 C   0  0  0  0  0  0  0  0  0  0  0  0
   46.6880   32.6780   45.3000 C   0  0  0  0  0  0  0  0  0  0  0  0
   45.9290   33.1800   46.3300 C   0  0  0  0  0  0  0  0  0  0  0  0
   45.6760   32.4140   47.4610 C   0  0  0  0  0  0  0  0  0  0  0  0
   44.9920   32.5770   48.6330 N   0  0  0  0  0  0  0  0  0  0  0  0
   45.1160   31.4350   49.3580 C   0  0  0  0  0  0  0  0  0  0  0  0
   45.8680   30.5880   48.6310 N   0  0  0  0  0  0  0  0  0  0  0  0
   46.2240   31.1550   47.4720 C   0  0  0  0  0  0  0  0  0  0  0  0
   46.9810   30.6260   46.4690 C   0  0  0  0  0  0  0  0  0  0  0  0
   47.8360   30.9980   44.5180 H   0  0  0  0  0  0  0  0  0  0  0  0
   45.5000   34.1740   46.3150 H   0  0  0  0  0  0  0  0  0  0  0  0
   44.4860   33.4720   48.8460 H   0  0  0  0  0  0  0  0  0  0  0  0
   44.6640   31.3030   50.3340 H   0  0  0  0  0  0  0  0  0  0  0  0
   46.2310   35.2300   42.6960 C   0  0  0  0  0  0  0  0  0  0  0  0
   47.4050   35.0980   41.9370 C   0  0  0  0  0  0  0  0  0  0  0  0
   48.3340   34.1400   42.3230 C   0  0  0  0  0  0  0  0  0  0  0  0
   48.0720   33.3640   43.4270 N   0  0  0  0  0  0  0  0  0  0  0  0
   46.9240   33.5260   44.1330 C   0  0  0  0  0  0  0  0  0  0  0  0
   46.0080   34.4440   43.7820 N   0  0  0  0  0  0  0  0  0  0  0  0
   45.4950   35.9690   42.4130 H   0  0  0  0  0  0  0  0  0  0  0  0
   47.5690   35.7270   41.0790 H   0  0  0  0  0  0  0  0  0  0  0  0
   49.2360   34.0270   41.7530 H   0  0  0  0  0  0  0  0  0  0  0  0
   47.5310   29.2580   46.5700 C   0  0  0  0  0  0  0  0  0  0  0  0
   48.8790   28.9740   46.7650 C   0  0  0  0  0  0  0  0  0  0  0  0
   48.9060   27.5720   46.7930 C   0  0  0  0  0  0  0  0  0  0  0  0
   47.6140   27.1020   46.6190 C   0  0  0  0  0  0  0  0  0  0  0  0
   46.8340   28.1620   46.4900 O   0  0  0  0  0  0  0  0  0  0  0  0
   49.6420   29.7320   46.8600 H   0  0  0  0  0  0  0  0  0  0  0  0
   49.8370   27.0310   46.9340 H   0  0  0  0  0  0  0  0  0  0  0  0
   48.2090   24.6930   46.7880 C   0  0  0  0  0  3  0  0  0  0  0  0
   47.2690   25.6850   46.5930 C   0  0  0  0  0  0  0  0  0  0  0  0
   45.9420   25.3080   46.3660 C   0  0  0  0  0  0  0  0  0  0  0  0
   45.1490   26.0390   46.2040 H   0  0  0  0  0  0  0  0  0  0  0  0
   45.6540   23.9580   46.3500 C   0  0  0  0  0  0  0  0  0  0  0  0
   44.5090   23.2420   46.1630 N   0  0  0  0  0  0  0  0  0  0  0  0
   44.7480   21.9190   46.2410 C   0  0  0  0  0  0  0  0  0  0  0  0
   43.9340   21.2240   46.1140 H   0  0  0  0  0  0  0  0  0  0  0  0
   46.0710   21.7620   46.4830 N   0  0  0  0  0  0  0  0  0  0  0  0
   46.6170   22.9800   46.5490 C   0  0  0  0  0  0  0  0  0  0  0  0
   47.9200   23.3630   46.7710 C   0  0  0  0  0  3  0  0  0  0  0  0
   43.6010   23.7350   45.9870 H   0  0  0  0  0  0  0  0  0  0  0  0
  1  9  1  0  0  0  0
  2  1  2  0  0  0  0
  2  3  1  0  0  0  0
  3  4  2  0  0  0  0
  4  8  1  0  0  0  0
  4  5  1  0  0  0  0
  5 12  1  0  0  0  0
  5  6  1  0  0  0  0
  6 13  1  0  0  0  0
  7  6  2  0  0  0  0
  8  7  1  0  0  0  0
  9 23  1  0  0  0  0
  9  8  2  0  0  0  0
 10  1  1  0  0  0  0
 11  3  1  0  0  0  0
 14 19  1  0  0  0  0
 15 16  1  0  0  0  0
 15 14  2  0  0  0  0
 16 17  2  0  0  0  0
 17 18  1  0  0  0  0
 18  2  1  0  0  0  0
 19 18  2  0  0  0  0
 20 14  1  0  0  0  0
 21 15  1  0  0  0  0
 22 16  1  0  0  0  0
 23 24  2  0  0  0  0
 24 25  1  0  0  0  0
 24 28  1  0  0  0  0
 25 29  1  0  0  0  0
 26 25  2  0  0  0  0
 27 23  1  0  0  0  0
 27 26  1  0  0  0  0
 31 26  1  0  0  0  0
 31 30  2  0  0  0  0
 32 31  1  0  0  0  0
 33 32  1  0  0  0  0
 34 32  2  0  0  0  0
 34 39  1  0  0  0  0
 35 36  1  0  0  0  0
 35 34  1  0  0  0  0
 36 38  2  0  0  0  0
 37 36  1  0  0  0  0
 38 39  1  0  0  0  0
 39 40  2  0  0  0  0
 40 30  1  0  0  0  0
 41 35  1  0  0  0  0
M  END
>  <minimizedAffinity>
-5.56386042

>  <minimizedRMSD>
0.685565412

$$$$
