
 OpenBabel03252506563D

 41 46  0  0  0  0  0  0  0  0999 V2000
   47.1680   31.3450   45.1570 C   0  0  0  0  0  0  0  0  0  0  0  0
   46.8350   32.6950   45.1680 C   0  0  0  0  0  0  0  0  0  0  0  0
   46.2530   33.3070   46.2530 C   0  0  0  0  0  0  0  0  0  0  0  0
   45.9700   32.5850   47.4050 C   0  0  0  0  0  0  0  0  0  0  0  0
   45.4180   32.8510   48.6280 N   0  0  0  0  0  0  0  0  0  0  0  0
   45.4110   31.6980   49.3480 C   0  0  0  0  0  0  0  0  0  0  0  0
   45.9550   30.7450   48.5680 N   0  0  0  0  0  0  0  0  0  0  0  0
   46.3040   31.2540   47.3810 C   0  0  0  0  0  0  0  0  0  0  0  0
   46.8810   30.6150   46.3240 C   0  0  0  0  0  0  0  0  0  0  0  0
   47.6270   30.8550   44.3080 H   0  0  0  0  0  0  0  0  0  0  0  0
   45.9920   34.3580   46.2660 H   0  0  0  0  0  0  0  0  0  0  0  0
   45.0840   33.8150   48.8740 H   0  0  0  0  0  0  0  0  0  0  0  0
   45.0240   31.6350   50.3580 H   0  0  0  0  0  0  0  0  0  0  0  0
   46.4900   35.1810   42.4840 C   0  0  0  0  0  0  0  0  0  0  0  0
   47.6700   34.9930   41.7470 C   0  0  0  0  0  0  0  0  0  0  0  0
   48.5650   34.0200   42.1740 C   0  0  0  0  0  0  0  0  0  0  0  0
   48.2640   33.2850   43.2970 N   0  0  0  0  0  0  0  0  0  0  0  0
   47.1120   33.5010   43.9810 C   0  0  0  0  0  0  0  0  0  0  0  0
   46.2280   34.4350   43.5900 N   0  0  0  0  0  0  0  0  0  0  0  0
   45.7800   35.9320   42.1680 H   0  0  0  0  0  0  0  0  0  0  0  0
   47.8640   35.5910   40.8730 H   0  0  0  0  0  0  0  0  0  0  0  0
   49.4710   33.8640   41.6220 H   0  0  0  0  0  0  0  0  0  0  0  0
   47.2060   29.1750   46.3890 C   0  0  0  0  0  0  0  0  0  0  0  0
   48.5000   28.6740   46.4890 C   0  0  0  0  0  0  0  0  0  0  0  0
   48.3010   27.2860   46.5190 C   0  0  0  0  0  0  0  0  0  0  0  0
   46.9400   27.0340   46.4380 C   0  0  0  0  0  0  0  0  0  0  0  0
   46.3360   28.2080   46.3610 O   0  0  0  0  0  0  0  0  0  0  0  0
   49.3820   29.2970   46.5280 H   0  0  0  0  0  0  0  0  0  0  0  0
   49.1380   26.5990   46.5950 H   0  0  0  0  0  0  0  0  0  0  0  0
   46.9830   24.6310   47.0750 C   0  0  0  0  0  3  0  0  0  0  0  0
   46.3680   25.6920   46.4410 C   0  0  0  0  0  0  0  0  0  0  0  0
   45.1570   25.4640   45.7840 C   0  0  0  0  0  0  0  0  0  0  0  0
   44.6170   26.2570   45.2640 H   0  0  0  0  0  0  0  0  0  0  0  0
   44.6460   24.1810   45.8090 C   0  0  0  0  0  0  0  0  0  0  0  0
   43.5230   23.6030   45.2930 N   0  0  0  0  0  0  0  0  0  0  0  0
   43.4710   22.2930   45.5960 C   0  0  0  0  0  0  0  0  0  0  0  0
   42.6370   21.7020   45.2540 H   0  0  0  0  0  0  0  0  0  0  0  0
   44.5760   22.0020   46.3230 N   0  0  0  0  0  0  0  0  0  0  0  0
   45.2820   23.1300   46.4520 C   0  0  0  0  0  0  0  0  0  0  0  0
   46.4750   23.3670   47.0960 C   0  0  0  0  0  3  0  0  0  0  0  0
   42.8400   24.1780   44.7450 H   0  0  0  0  0  0  0  0  0  0  0  0
  1  2  2  0  0  0  0
  1  9  1  0  0  0  0
  2  3  1  0  0  0  0
  3 11  1  0  0  0  0
  3  4  2  0  0  0  0
  4  5  1  0  0  0  0
  5 12  1  0  0  0  0
  5  6  1  0  0  0  0
  6 13  1  0  0  0  0
  7  6  2  0  0  0  0
  8  4  1  0  0  0  0
  8  7  1  0  0  0  0
  9 23  1  0  0  0  0
  9  8  2  0  0  0  0
 10  1  1  0  0  0  0
 14 19  1  0  0  0  0
 15 16  1  0  0  0  0
 15 14  2  0  0  0  0
 16 17  2  0  0  0  0
 17 18  1  0  0  0  0
 18  2  1  0  0  0  0
 19 18  2  0  0  0  0
 20 14  1  0  0  0  0
 21 15  1  0  0  0  0
 22 16  1  0  0  0  0
 23 24  2  0  0  0  0
 24 25  1  0  0  0  0
 24 28  1  0  0  0  0
 25 29  1  0  0  0  0
 26 31  1  0  0  0  0
 26 25  2  0  0  0  0
 27 23  1  0  0  0  0
 27 26  1  0  0  0  0
 30 40  1  0  0  0  0
 31 30  2  0  0  0  0
 32 34  2  0  0  0  0
 32 31  1  0  0  0  0
 33 32  1  0  0  0  0
 34 39  1  0  0  0  0
 35 36  1  0  0  0  0
 35 34  1  0  0  0  0
 36 38  2  0  0  0  0
 37 36  1  0  0  0  0
 38 39  1  0  0  0  0
 39 40  2  0  0  0  0
 41 35  1  0  0  0  0
M  END
>  <minimizedAffinity>
-5.7011447

>  <minimizedRMSD>
0.344949782

$$$$
