
     RDKit          3D

 49 52  0  0  0  0  0  0  0  0999 V2000
   46.5743   34.9095   43.2496 O   0  0  0  0  0  0  0  0  0  0  0  0
   46.8028   33.9763   42.2294 C   0  0  1  0  0  0  0  0  0  0  0  0
   46.0736   34.4138   40.9561 C   0  0  0  0  0  0  0  0  0  0  0  0
   46.6904   33.4774   39.9481 C   0  0  0  0  0  0  0  0  0  0  0  0
   48.0734   33.1379   40.4749 C   0  0  0  0  0  0  0  0  0  0  0  0
   48.2185   33.9583   41.7449 C   0  0  1  0  0  0  0  0  0  0  0  0
   48.7587   35.3326   41.4604 C   0  0  0  0  0  0  0  0  0  0  0  0
   49.6547   35.7587   42.4169 O   0  0  0  0  0  0  0  0  0  0  0  0
   44.7256   35.3492   44.9928 O   0  0  0  0  0  0  0  0  0  0  0  0
   45.5798   34.2391   44.4129 P   0  0  1  0  0  0  0  0  0  0  0  0
   44.6041   33.0421   43.7163 O   0  0  0  0  0  0  0  0  0  0  0  0
   46.4760   33.4948   45.6060 O   0  0  0  0  0  0  0  0  0  0  0  0
   46.2375   32.1538   45.5694 C   0  0  0  0  0  0  0  0  0  0  0  0
   45.6498   31.9099   49.2404 C   0  0  0  0  0  0  0  0  0  0  0  0
   45.9872   32.4550   47.9933 C   0  0  0  0  0  0  0  0  0  0  0  0
   45.8864   31.6063   46.8928 C   0  0  0  0  0  0  0  0  0  0  0  0
   45.4722   30.3085   47.0738 N   0  0  0  0  0  0  0  0  0  0  0  0
   45.1549   29.8145   48.2868 C   0  0  0  0  0  0  0  0  0  0  0  0
   45.2441   30.6081   49.3522 N   0  0  0  0  0  0  0  0  0  0  0  0
   46.4504   32.9690   42.4555 H   0  0  0  0  0  0  0  0  0  0  0  0
   44.9827   34.1717   41.0880 H   0  0  0  0  0  0  0  0  0  0  0  0
   46.1645   35.4712   40.7351 H   0  0  0  0  0  0  0  0  0  0  0  0
   46.0501   32.5797   39.8155 H   0  0  0  0  0  0  0  0  0  0  0  0
   46.7223   34.0156   38.9793 H   0  0  0  0  0  0  0  0  0  0  0  0
   48.8203   33.3757   39.7115 H   0  0  0  0  0  0  0  0  0  0  0  0
   48.0461   32.0511   40.7528 H   0  0  0  0  0  0  0  0  0  0  0  0
   48.8627   33.3770   42.4450 H   0  0  0  0  0  0  0  0  0  0  0  0
   47.9852   36.1222   41.3854 H   0  0  0  0  0  0  0  0  0  0  0  0
   49.2839   35.3377   40.4735 H   0  0  0  0  0  0  0  0  0  0  0  0
   50.0684   34.9733   42.8847 H   0  0  0  0  0  0  0  0  0  0  0  0
   43.7991   33.4540   43.2845 H   0  0  0  0  0  0  0  0  0  0  0  0
   45.5035   31.7823   44.8598 H   0  0  0  0  0  0  0  0  0  0  0  0
   47.2122   31.6622   45.2860 H   0  0  0  0  0  0  0  0  0  0  0  0
   45.7188   32.5467   50.1135 H   0  0  0  0  0  0  0  0  0  0  0  0
   46.3065   33.4809   47.9083 H   0  0  0  0  0  0  0  0  0  0  0  0
   45.6465   27.4270   48.6264 C   0  0  0  0  0  0  0  0  0  0  0  0
   44.7219   28.4268   48.4099 C   0  0  0  0  0  0  0  0  0  0  0  0
   43.3807   28.0938   48.3116 C   0  0  0  0  0  0  0  0  0  0  0  0
   42.6281   28.8477   48.1426 H   0  0  0  0  0  0  0  0  0  0  0  0
   42.9650   26.7875   48.4267 C   0  0  0  0  0  0  0  0  0  0  0  0
   41.7223   26.2445   48.3639 N   0  0  0  0  0  0  0  0  0  0  0  0
   41.8682   24.9004   48.5416 C   0  0  0  0  0  0  0  0  0  0  0  0
   41.1118   24.1138   48.5586 H   0  0  0  0  0  0  0  0  0  0  0  0
   43.1874   24.6329   48.7103 N   0  0  0  0  0  0  0  0  0  0  0  0
   43.8842   25.7894   48.6424 C   0  0  0  0  0  0  0  0  0  0  0  0
   45.2196   26.1210   48.7403 C   0  0  0  0  0  0  0  0  0  0  0  0
   46.6892   27.7377   48.6965 H   0  0  0  0  0  0  0  0  0  0  0  0
   40.7917   26.7001   48.2127 H   0  0  0  0  0  0  0  0  0  0  0  0
   45.9689   25.3504   48.9109 H   0  0  0  0  0  0  0  0  0  0  0  0
 10  1  1  6
  2  1  1  0
  3  2  1  0
  4  5  1  0
  4  3  1  0
  5  6  1  0
  6  2  1  0
  7  6  1  0
  7  8  1  0
 10  9  2  0
 10 12  1  0
 11 10  1  0
 13 12  1  0
 13 16  1  0
 14 19  2  0
 15 14  1  0
 16 17  1  0
 16 15  2  0
 17 18  2  0
 18 19  1  0
  2 20  1  1
  3 21  1  0
  3 22  1  0
  4 23  1  0
  4 24  1  0
  5 25  1  0
  5 26  1  0
  6 27  1  1
  7 28  1  0
  7 29  1  0
  8 30  1  0
 11 31  1  0
 13 32  1  0
 13 33  1  0
 14 34  1  0
 15 35  1  0
 36 37  2  0
 37 38  1  0
 38 39  1  0
 38 40  2  0
 40 41  1  0
 41 42  1  0
 42 43  1  0
 42 44  2  0
 44 45  1  0
 45 46  2  0
 46 36  1  0
 45 40  1  0
 36 47  1  0
 41 48  1  0
 46 49  1  0
 18 37  1  0
M  ISO  8  20  13  21  13  22  13  23  13  24  13  25  13  26  13  27  13
M  ISO  8  28   8  29   8  30   3  31   3  32   8  33   8  34  14  35  14
M  ISO  2  39  15  43  14
M  END
>  <DihAtoms>  (1) 
16,17,36,35

>  <DihDeg>  (1) 
0.0014928488378780805

$$$$
