
 OpenBabel03252508333D

 35 38  0  0  1  0  0  0  0  0999 V2000
   44.2620   34.3840   41.5270 N   0  0  0  0  0  0  0  0  0  0  0  0
   43.8970   33.4670   40.4960 C   0  0  2  0  0  0  0  0  0  0  0  0
   42.9680   34.0940   39.4830 C   0  0  0  0  0  0  0  0  0  0  0  0
   41.8430   34.7190   40.1070 N   0  0  0  0  0  0  0  0  0  0  0  0
   42.1600   35.5640   41.1930 C   0  0  0  0  0  0  0  0  0  0  0  0
   43.6470   35.6920   41.4430 C   0  0  0  0  0  0  0  0  0  0  0  0
   44.8320   33.1970   39.9470 H   0  0  0  0  0  0  0  0  0  0  0  0
   43.5470   34.8760   38.9500 H   0  0  0  0  0  0  0  0  0  0  0  0
   42.6240   33.3630   38.7530 H   0  0  0  0  0  0  0  0  0  0  0  0
   41.1880   33.9660   40.4350 H   0  0  0  0  0  0  0  0  0  0  0  0
   41.6860   35.3180   42.1640 H   0  0  0  0  0  0  0  0  0  0  0  0
   41.8130   36.5960   40.9210 H   0  0  0  0  0  0  0  0  0  0  0  0
   44.0600   36.1460   40.4960 H   0  0  0  0  0  0  0  0  0  0  0  0
   43.7650   36.3340   42.3030 H   0  0  0  0  0  0  0  0  0  0  0  0
   43.5220   30.9840   40.3440 C   0  0  0  0  0  3  0  0  0  0  0  0
   43.2700   32.2140   40.9230 C   0  0  0  0  0  0  0  0  0  0  0  0
   42.3570   32.0980   41.9810 C   0  0  0  0  0  0  0  0  0  0  0  0
   42.0870   33.0210   42.5140 H   0  0  0  0  0  0  0  0  0  0  0  0
   41.7710   30.9370   42.4130 C   0  0  0  0  0  0  0  0  0  0  0  0
   40.8930   30.6970   43.4020 N   0  0  0  0  0  0  0  0  0  0  0  0
   40.6470   29.3750   43.3920 C   0  0  0  0  0  0  0  0  0  0  0  0
   39.9480   28.9430   44.1240 H   0  0  0  0  0  0  0  0  0  0  0  0
   41.3690   28.8190   42.4080 N   0  0  0  0  0  0  0  0  0  0  0  0
   42.0800   29.7600   41.7770 C   0  0  0  0  0  0  0  0  0  0  0  0
   42.9710   29.7790   40.7230 C   0  0  0  0  0  3  0  0  0  0  0  0
   40.4830   31.4190   44.0540 H   0  0  0  0  0  0  0  0  0  0  0  0
   44.8950   34.2950   43.8550 C   0  0  0  0  0  0  0  0  0  0  0  0
   45.1770   33.9730   42.5350 C   0  0  0  0  0  0  0  0  0  0  0  0
   46.3320   33.2620   42.2900 C   0  0  0  0  0  0  0  0  0  0  0  0
   47.1290   32.9110   43.3220 N   0  0  0  0  0  0  0  0  0  0  0  0
   46.8330   33.2340   44.5950 C   0  0  0  0  0  0  0  0  0  0  0  0
   45.7240   33.9190   44.8460 N   0  0  0  0  0  0  0  0  0  0  0  0
   44.0430   34.8410   44.2240 H   0  0  0  0  0  0  0  0  0  0  0  0
   46.5990   32.9960   41.2900 H   0  0  0  0  0  0  0  0  0  0  0  0
   47.5680   32.8830   45.3120 H   0  0  0  0  0  0  0  0  0  0  0  0
  1 28  1  0  0  0  0
  2  7  1  6  0  0  0
  2 16  1  0  0  0  0
  2  1  1  0  0  0  0
  3  4  1  0  0  0  0
  3  2  1  0  0  0  0
  4 10  1  0  0  0  0
  4  5  1  0  0  0  0
  5  6  1  0  0  0  0
  5 11  1  0  0  0  0
  6  1  1  0  0  0  0
  6 14  1  0  0  0  0
  8  3  1  0  0  0  0
  9  3  1  0  0  0  0
 12  5  1  0  0  0  0
 13  6  1  0  0  0  0
 15 25  2  0  0  0  0
 15 16  1  0  0  0  0
 16 17  2  0  0  0  0
 17 19  1  0  0  0  0
 17 18  1  0  0  0  0
 19 20  1  0  0  0  0
 20 26  1  0  0  0  0
 21 20  1  0  0  0  0
 21 22  1  0  0  0  0
 23 21  2  0  0  0  0
 24 23  1  0  0  0  0
 24 19  2  0  0  0  0
 25 24  1  0  0  0  0
 27 33  1  0  0  0  0
 27 32  1  0  0  0  0
 28 27  2  0  0  0  0
 29 28  1  0  0  0  0
 29 30  2  0  0  0  0
 30 31  1  0  0  0  0
 31 32  2  0  0  0  0
 31 35  1  0  0  0  0
 34 29  1  0  0  0  0
M  END
>  <minimizedAffinity>
-4.09702444

>  <minimizedRMSD>
1.18425965

$$$$
