
 OpenBabel03252501433D

 48 52  0  0  0  0  0  0  0  0999 V2000
   37.5930   31.8800   40.4960 C   0  0  0  0  0  0  0  0  0  0  0  0
   37.5090   32.6320   39.4530 O   0  0  0  0  0  0  0  0  0  0  0  0
   38.8610   31.9790   41.1410 N   0  0  0  0  0  0  0  0  0  0  0  0
   39.1010   31.4820   42.0010 H   0  0  0  0  0  0  0  0  0  0  0  0
   39.7040   32.8800   40.3760 C   0  0  0  0  0  0  0  0  0  0  0  0
   39.7330   34.2360   40.4630 C   0  0  0  0  0  0  0  0  0  0  0  0
   40.6010   34.9170   39.6520 C   0  0  0  0  0  0  0  0  0  0  0  0
   41.3760   34.1930   38.8160 N   0  0  0  0  0  0  0  0  0  0  0  0
   41.3350   32.8460   38.7430 C   0  0  0  0  0  0  0  0  0  0  0  0
   40.4790   32.1650   39.5420 N   0  0  0  0  0  0  0  0  0  0  0  0
   40.6330   35.9900   39.7120 H   0  0  0  0  0  0  0  0  0  0  0  0
   41.7200   30.9640   37.2210 C   0  0  0  0  0  3  0  0  0  0  0  0
   42.2120   32.1130   37.8040 C   0  0  0  0  0  0  0  0  0  0  0  0
   43.4820   32.6100   37.5520 C   0  0  0  0  0  0  0  0  0  0  0  0
   43.7980   33.5170   38.0470 H   0  0  0  0  0  0  0  0  0  0  0  0
   44.2450   31.8740   36.6650 C   0  0  0  0  0  0  0  0  0  0  0  0
   45.5150   32.1830   36.2810 N   0  0  0  0  0  0  0  0  0  0  0  0
   45.8450   31.1840   35.4120 C   0  0  0  0  0  0  0  0  0  0  0  0
   46.8340   31.1670   34.9300 H   0  0  0  0  0  0  0  0  0  0  0  0
   44.8190   30.3000   35.2720 N   0  0  0  0  0  0  0  0  0  0  0  0
   43.7910   30.7230   36.0620 C   0  0  0  0  0  0  0  0  0  0  0  0
   42.5220   30.2460   36.3290 C   0  0  0  0  0  3  0  0  0  0  0  0
   46.1130   32.9750   36.5590 H   0  0  0  0  0  0  0  0  0  0  0  0
   38.8520   34.8380   41.3940 N   0  0  0  0  0  0  0  0  0  0  0  0
   37.8220   34.8000   41.5020 H   0  0  0  0  0  0  0  0  0  0  0  0
   39.3810   35.4250   42.0900 H   0  0  0  0  0  0  0  0  0  0  0  0
   36.6030   31.0350   41.0050 O   0  0  0  0  0  0  0  0  0  0  0  0
   38.0370   28.8170   42.3690 Cl  0  0  0  0  0  0  0  0  0  0  0  0
   37.0410   28.6950   40.9320 C   0  0  0  0  0  0  0  0  0  0  0  0
   36.4060   29.7990   40.3650 C   0  0  0  0  0  0  0  0  0  0  0  0
   35.6370   29.6530   39.2400 C   0  0  0  0  0  0  0  0  0  0  0  0
   35.4450   28.4390   38.6140 C   0  0  0  0  0  0  0  0  0  0  0  0
   36.0770   27.3090   39.1700 C   0  0  0  0  0  0  0  0  0  0  0  0
   35.8910   25.7230   38.4410 Cl  0  0  0  0  0  0  0  0  0  0  0  0
   36.8430   27.4950   40.3010 C   0  0  0  0  0  0  0  0  0  0  0  0
   35.1880   30.5670   38.8780 H   0  0  0  0  0  0  0  0  0  0  0  0
   34.8400   28.3470   37.7360 H   0  0  0  0  0  0  0  0  0  0  0  0
   39.3700   26.8380   39.5260 F   0  0  0  0  0  0  0  0  0  0  0  0
   38.7880   26.0240   40.4700 C   0  0  0  0  0  0  0  0  0  0  0  0
   37.5020   26.3320   40.8850 C   0  0  0  0  0  0  0  0  0  0  0  0
   36.9490   25.4780   41.8460 C   0  0  0  0  0  0  0  0  0  0  0  0
   37.6910   24.4080   42.3140 C   0  0  0  0  0  0  0  0  0  0  0  0
   38.9830   24.1550   41.8520 C   0  0  0  0  0  0  0  0  0  0  0  0
   39.5710   24.9780   40.8970 C   0  0  0  0  0  0  0  0  0  0  0  0
   35.9470   25.7180   42.1680 H   0  0  0  0  0  0  0  0  0  0  0  0
   37.1900   23.7980   43.0550 H   0  0  0  0  0  0  0  0  0  0  0  0
   39.5230   23.3080   42.2470 H   0  0  0  0  0  0  0  0  0  0  0  0
   40.5550   24.8150   40.5230 H   0  0  0  0  0  0  0  0  0  0  0  0
  1 27  1  0  0  0  0
  1  3  1  0  0  0  0
  2  1  2  0  0  0  0
  3  4  1  0  0  0  0
  5  6  1  0  0  0  0
  5  3  1  0  0  0  0
  6 24  1  0  0  0  0
  7 11  1  0  0  0  0
  7  6  2  0  0  0  0
  8  7  1  0  0  0  0
  9  8  2  0  0  0  0
  9 10  1  0  0  0  0
 10  5  2  0  0  0  0
 12 13  1  0  0  0  0
 13  9  1  0  0  0  0
 14 13  2  0  0  0  0
 14 15  1  0  0  0  0
 16 14  1  0  0  0  0
 17 23  1  0  0  0  0
 17 16  1  0  0  0  0
 18 17  1  0  0  0  0
 19 18  1  0  0  0  0
 20 18  2  0  0  0  0
 20 21  1  0  0  0  0
 21 22  1  0  0  0  0
 21 16  2  0  0  0  0
 22 12  2  0  0  0  0
 24 25  1  0  0  0  0
 24 26  1  0  0  0  0
 29 28  1  0  0  0  0
 30 29  1  0  0  0  0
 30 27  1  0  0  0  0
 31 30  2  0  0  0  0
 32 33  2  0  0  0  0
 32 31  1  0  0  0  0
 33 35  1  0  0  0  0
 34 33  1  0  0  0  0
 35 40  1  0  0  0  0
 35 29  2  0  0  0  0
 36 31  1  0  0  0  0
 37 32  1  0  0  0  0
 38 39  1  0  0  0  0
 39 40  2  0  0  0  0
 39 44  1  0  0  0  0
 40 41  1  0  0  0  0
 41 45  1  0  0  0  0
 41 42  2  0  0  0  0
 42 46  1  0  0  0  0
 43 47  1  0  0  0  0
 43 42  1  0  0  0  0
 44 43  2  0  0  0  0
 48 44  1  0  0  0  0
M  END
>  <minimizedAffinity>
-7.83787823

$$$$

 OpenBabel03252501433D

 48 52  0  0  0  0  0  0  0  0999 V2000
   39.9360   32.7080   38.8890 C   0  0  0  0  0  0  0  0  0  0  0  0
   40.9000   31.8570   38.8090 O   0  0  0  0  0  0  0  0  0  0  0  0
   40.3990   34.0530   38.9790 N   0  0  0  0  0  0  0  0  0  0  0  0
   39.7790   34.8650   39.0170 H   0  0  0  0  0  0  0  0  0  0  0  0
   41.8500   34.0460   39.0050 C   0  0  0  0  0  0  0  0  0  0  0  0
   42.6810   33.9300   37.9360 C   0  0  0  0  0  0  0  0  0  0  0  0
   44.0320   33.9420   38.1640 C   0  0  0  0  0  0  0  0  0  0  0  0
   44.4510   34.0710   39.4410 N   0  0  0  0  0  0  0  0  0  0  0  0
   43.6100   34.1850   40.4910 C   0  0  0  0  0  0  0  0  0  0  0  0
   42.2740   34.1730   40.2750 N   0  0  0  0  0  0  0  0  0  0  0  0
   44.6990   33.8520   37.3260 H   0  0  0  0  0  0  0  0  0  0  0  0
   44.1110   35.5740   42.4470 C   0  0  0  0  0  3  0  0  0  0  0  0
   44.1360   34.3230   41.8670 C   0  0  0  0  0  0  0  0  0  0  0  0
   44.6280   33.1960   42.5100 C   0  0  0  0  0  0  0  0  0  0  0  0
   44.6140   32.2490   41.9900 H   0  0  0  0  0  0  0  0  0  0  0  0
   45.1020   33.4010   43.7920 C   0  0  0  0  0  0  0  0  0  0  0  0
   45.6260   32.4340   44.5950 N   0  0  0  0  0  0  0  0  0  0  0  0
   45.9490   33.1010   45.7410 C   0  0  0  0  0  0  0  0  0  0  0  0
   46.4020   32.5680   46.5900 H   0  0  0  0  0  0  0  0  0  0  0  0
   45.6360   34.4230   45.6410 N   0  0  0  0  0  0  0  0  0  0  0  0
   45.0950   34.6320   44.4060 C   0  0  0  0  0  0  0  0  0  0  0  0
   44.6010   35.7410   43.7460 C   0  0  0  0  0  3  0  0  0  0  0  0
   45.7600   31.4280   44.4150 H   0  0  0  0  0  0  0  0  0  0  0  0
   42.0750   33.8030   36.6620 N   0  0  0  0  0  0  0  0  0  0  0  0
   41.4000   33.1170   36.2790 H   0  0  0  0  0  0  0  0  0  0  0  0
   42.3950   34.5680   36.0140 H   0  0  0  0  0  0  0  0  0  0  0  0
   38.5660   32.4280   38.8920 O   0  0  0  0  0  0  0  0  0  0  0  0
   38.9170   31.1780   41.5670 Cl  0  0  0  0  0  0  0  0  0  0  0  0
   38.3040   30.4030   40.1190 C   0  0  0  0  0  0  0  0  0  0  0  0
   38.1750   31.0780   38.9060 C   0  0  0  0  0  0  0  0  0  0  0  0
   37.6900   30.4280   37.8010 C   0  0  0  0  0  0  0  0  0  0  0  0
   37.3060   29.1020   37.8170 C   0  0  0  0  0  0  0  0  0  0  0  0
   37.4280   28.4010   39.0330 C   0  0  0  0  0  0  0  0  0  0  0  0
   36.9660   26.7120   39.1480 Cl  0  0  0  0  0  0  0  0  0  0  0  0
   37.9210   29.0880   40.1220 C   0  0  0  0  0  0  0  0  0  0  0  0
   37.6280   31.0360   36.9090 H   0  0  0  0  0  0  0  0  0  0  0  0
   36.9300   28.6150   36.9420 H   0  0  0  0  0  0  0  0  0  0  0  0
   35.7650   28.8460   41.7680 F   0  0  0  0  0  0  0  0  0  0  0  0
   36.9350   28.2660   42.2020 C   0  0  0  0  0  0  0  0  0  0  0  0
   38.0500   28.3720   41.3870 C   0  0  0  0  0  0  0  0  0  0  0  0
   39.2170   27.7680   41.8660 C   0  0  0  0  0  0  0  0  0  0  0  0
   39.1950   27.1190   43.0890 C   0  0  0  0  0  0  0  0  0  0  0  0
   38.0360   27.0500   43.8600 C   0  0  0  0  0  0  0  0  0  0  0  0
   36.8530   27.6370   43.4210 C   0  0  0  0  0  0  0  0  0  0  0  0
   40.0860   27.8510   41.2310 H   0  0  0  0  0  0  0  0  0  0  0  0
   40.1400   26.6790   43.3860 H   0  0  0  0  0  0  0  0  0  0  0  0
   38.0670   26.5320   44.8070 H   0  0  0  0  0  0  0  0  0  0  0  0
   35.9490   27.6030   43.9840 H   0  0  0  0  0  0  0  0  0  0  0  0
  1 27  1  0  0  0  0
  1  3  1  0  0  0  0
  2  1  2  0  0  0  0
  3  5  1  0  0  0  0
  3  4  1  0  0  0  0
  5 10  1  0  0  0  0
  6  7  1  0  0  0  0
  6  5  2  0  0  0  0
  7  8  2  0  0  0  0
  8  9  1  0  0  0  0
  9 13  1  0  0  0  0
 10  9  2  0  0  0  0
 11  7  1  0  0  0  0
 12 22  1  0  0  0  0
 13 12  2  0  0  0  0
 13 14  1  0  0  0  0
 14 16  2  0  0  0  0
 15 14  1  0  0  0  0
 16 21  1  0  0  0  0
 16 17  1  0  0  0  0
 17 18  1  0  0  0  0
 18 19  1  0  0  0  0
 20 18  2  0  0  0  0
 21 20  1  0  0  0  0
 22 21  2  0  0  0  0
 23 17  1  0  0  0  0
 24  6  1  0  0  0  0
 25 24  1  0  0  0  0
 26 24  1  0  0  0  0
 27 30  1  0  0  0  0
 29 35  1  0  0  0  0
 29 28  1  0  0  0  0
 30 29  2  0  0  0  0
 31 32  2  0  0  0  0
 31 30  1  0  0  0  0
 32 33  1  0  0  0  0
 33 34  1  0  0  0  0
 33 35  2  0  0  0  0
 35 40  1  0  0  0  0
 36 31  1  0  0  0  0
 37 32  1  0  0  0  0
 38 39  1  0  0  0  0
 39 44  1  0  0  0  0
 40 41  1  0  0  0  0
 40 39  2  0  0  0  0
 41 42  2  0  0  0  0
 42 46  1  0  0  0  0
 42 43  1  0  0  0  0
 43 47  1  0  0  0  0
 44 43  2  0  0  0  0
 44 48  1  0  0  0  0
 45 41  1  0  0  0  0
M  END
>  <minimizedAffinity>
-7.8011446

$$$$

 OpenBabel03252501433D

 48 52  0  0  0  0  0  0  0  0999 V2000
   39.0140   31.5500   39.7820 C   0  0  0  0  0  0  0  0  0  0  0  0
   38.9020   32.8320   39.7350 O   0  0  0  0  0  0  0  0  0  0  0  0
   40.2950   31.0970   39.3480 N   0  0  0  0  0  0  0  0  0  0  0  0
   40.5790   30.1150   39.3470 H   0  0  0  0  0  0  0  0  0  0  0  0
   41.0790   32.2440   38.9300 C   0  0  0  0  0  0  0  0  0  0  0  0
   41.0650   32.8350   37.7060 C   0  0  0  0  0  0  0  0  0  0  0  0
   41.8820   33.9150   37.5010 C   0  0  0  0  0  0  0  0  0  0  0  0
   42.6500   34.3250   38.5330 N   0  0  0  0  0  0  0  0  0  0  0  0
   42.6500   33.7260   39.7430 C   0  0  0  0  0  0  0  0  0  0  0  0
   41.8460   32.6580   39.9530 N   0  0  0  0  0  0  0  0  0  0  0  0
   41.8790   34.3910   36.5370 H   0  0  0  0  0  0  0  0  0  0  0  0
   44.8480   33.8630   40.8180 C   0  0  0  0  0  3  0  0  0  0  0  0
   43.5170   34.2260   40.8330 C   0  0  0  0  0  0  0  0  0  0  0  0
   42.9590   35.0320   41.8130 C   0  0  0  0  0  0  0  0  0  0  0  0
   41.9080   35.2740   41.7570 H   0  0  0  0  0  0  0  0  0  0  0  0
   43.8290   35.4610   42.7980 C   0  0  0  0  0  0  0  0  0  0  0  0
   43.4870   36.2570   43.8500 N   0  0  0  0  0  0  0  0  0  0  0  0
   44.6570   36.4080   44.5370 C   0  0  0  0  0  0  0  0  0  0  0  0
   44.6920   37.0140   45.4550 H   0  0  0  0  0  0  0  0  0  0  0  0
   45.6710   35.7310   43.9300 N   0  0  0  0  0  0  0  0  0  0  0  0
   45.1620   35.1220   42.8200 C   0  0  0  0  0  0  0  0  0  0  0  0
   45.6970   34.3180   41.8330 C   0  0  0  0  0  3  0  0  0  0  0  0
   42.5750   36.6670   44.0980 H   0  0  0  0  0  0  0  0  0  0  0  0
   40.1990   32.2780   36.7340 N   0  0  0  0  0  0  0  0  0  0  0  0
   40.1250   31.3250   36.3330 H   0  0  0  0  0  0  0  0  0  0  0  0
   39.5180   32.9970   36.3770 H   0  0  0  0  0  0  0  0  0  0  0  0
   38.0430   30.6350   40.1970 O   0  0  0  0  0  0  0  0  0  0  0  0
   37.2130   27.9240   39.3030 Cl  0  0  0  0  0  0  0  0  0  0  0  0
   38.0880   28.3230   40.7690 C   0  0  0  0  0  0  0  0  0  0  0  0
   38.4330   29.6320   41.1020 C   0  0  0  0  0  0  0  0  0  0  0  0
   39.1180   29.8940   42.2600 C   0  0  0  0  0  0  0  0  0  0  0  0
   39.5000   28.9080   43.1460 C   0  0  0  0  0  0  0  0  0  0  0  0
   39.1610   27.5770   42.8290 C   0  0  0  0  0  0  0  0  0  0  0  0
   39.6050   26.2570   43.8970 Cl  0  0  0  0  0  0  0  0  0  0  0  0
   38.4720   27.3530   41.6570 C   0  0  0  0  0  0  0  0  0  0  0  0
   39.3390   30.9390   42.4280 H   0  0  0  0  0  0  0  0  0  0  0  0
   40.0340   29.1350   44.0450 H   0  0  0  0  0  0  0  0  0  0  0  0
   40.1970   25.8260   40.2060 F   0  0  0  0  0  0  0  0  0  0  0  0
   39.0160   25.2280   40.5800 C   0  0  0  0  0  0  0  0  0  0  0  0
   38.1160   25.9790   41.3190 C   0  0  0  0  0  0  0  0  0  0  0  0
   36.9290   25.3320   41.6770 C   0  0  0  0  0  0  0  0  0  0  0  0
   36.7230   24.0200   41.2860 C   0  0  0  0  0  0  0  0  0  0  0  0
   37.6720   23.3210   40.5420 C   0  0  0  0  0  0  0  0  0  0  0  0
   38.8670   23.9260   40.1640 C   0  0  0  0  0  0  0  0  0  0  0  0
   36.2280   25.9180   42.2520 H   0  0  0  0  0  0  0  0  0  0  0  0
   35.7790   23.5950   41.6050 H   0  0  0  0  0  0  0  0  0  0  0  0
   37.4680   22.2990   40.2610 H   0  0  0  0  0  0  0  0  0  0  0  0
   39.6140   23.4220   39.5960 H   0  0  0  0  0  0  0  0  0  0  0  0
  1 27  1  0  0  0  0
  2  1  2  0  0  0  0
  3  1  1  0  0  0  0
  4  3  1  0  0  0  0
  5  3  1  0  0  0  0
  5 10  1  0  0  0  0
  6  5  2  0  0  0  0
  7  6  1  0  0  0  0
  7  8  2  0  0  0  0
  8  9  1  0  0  0  0
  9 10  2  0  0  0  0
  9 13  1  0  0  0  0
 11  7  1  0  0  0  0
 12 13  2  0  0  0  0
 12 22  1  0  0  0  0
 13 14  1  0  0  0  0
 14 16  2  0  0  0  0
 15 14  1  0  0  0  0
 16 21  1  0  0  0  0
 16 17  1  0  0  0  0
 17 23  1  0  0  0  0
 17 18  1  0  0  0  0
 18 19  1  0  0  0  0
 20 18  2  0  0  0  0
 21 20  1  0  0  0  0
 22 21  2  0  0  0  0
 24  6  1  0  0  0  0
 25 24  1  0  0  0  0
 26 24  1  0  0  0  0
 27 30  1  0  0  0  0
 28 29  1  0  0  0  0
 29 30  2  0  0  0  0
 29 35  1  0  0  0  0
 30 31  1  0  0  0  0
 31 36  1  0  0  0  0
 31 32  2  0  0  0  0
 32 37  1  0  0  0  0
 33 32  1  0  0  0  0
 33 34  1  0  0  0  0
 35 33  2  0  0  0  0
 38 39  1  0  0  0  0
 39 40  1  0  0  0  0
 40 35  1  0  0  0  0
 40 41  2  0  0  0  0
 41 45  1  0  0  0  0
 42 46  1  0  0  0  0
 42 41  1  0  0  0  0
 43 42  2  0  0  0  0
 44 43  1  0  0  0  0
 44 39  2  0  0  0  0
 47 43  1  0  0  0  0
 48 44  1  0  0  0  0
M  END
>  <minimizedAffinity>
-7.79279947

$$$$

 OpenBabel03252501433D

 48 52  0  0  0  0  0  0  0  0999 V2000
   39.2310   31.3570   40.1480 C   0  0  0  0  0  0  0  0  0  0  0  0
   40.4050   30.8340   40.0530 O   0  0  0  0  0  0  0  0  0  0  0  0
   39.1340   32.6120   39.4790 N   0  0  0  0  0  0  0  0  0  0  0  0
   38.2730   33.1580   39.4190 H   0  0  0  0  0  0  0  0  0  0  0  0
   40.4340   32.9470   38.9270 C   0  0  0  0  0  0  0  0  0  0  0  0
   40.8300   32.8000   37.6350 C   0  0  0  0  0  0  0  0  0  0  0  0
   42.1060   33.1740   37.3040 C   0  0  0  0  0  0  0  0  0  0  0  0
   42.8890   33.6670   38.2870 N   0  0  0  0  0  0  0  0  0  0  0  0
   42.4780   33.8060   39.5650 C   0  0  0  0  0  0  0  0  0  0  0  0
   41.2200   33.4390   39.9010 N   0  0  0  0  0  0  0  0  0  0  0  0
   42.4300   33.0630   36.2850 H   0  0  0  0  0  0  0  0  0  0  0  0
   44.7470   34.2070   40.4020 C   0  0  0  0  0  3  0  0  0  0  0  0
   43.3890   34.3540   40.5950 C   0  0  0  0  0  0  0  0  0  0  0  0
   42.8420   34.9880   41.7010 C   0  0  0  0  0  0  0  0  0  0  0  0
   41.7680   35.0650   41.7820 H   0  0  0  0  0  0  0  0  0  0  0  0
   43.7530   35.4740   42.6200 C   0  0  0  0  0  0  0  0  0  0  0  0
   43.4290   36.1260   43.7710 N   0  0  0  0  0  0  0  0  0  0  0  0
   44.6380   36.4080   44.3370 C   0  0  0  0  0  0  0  0  0  0  0  0
   44.6950   36.9420   45.2980 H   0  0  0  0  0  0  0  0  0  0  0  0
   45.6590   35.9460   43.5630 N   0  0  0  0  0  0  0  0  0  0  0  0
   45.1140   35.3480   42.4650 C   0  0  0  0  0  0  0  0  0  0  0  0
   45.6370   34.7120   41.3550 C   0  0  0  0  0  3  0  0  0  0  0  0
   42.5040   36.3680   44.1540 H   0  0  0  0  0  0  0  0  0  0  0  0
   39.8810   32.2660   36.7300 N   0  0  0  0  0  0  0  0  0  0  0  0
   39.3500   31.3760   36.7240 H   0  0  0  0  0  0  0  0  0  0  0  0
   39.7100   32.9260   35.9280 H   0  0  0  0  0  0  0  0  0  0  0  0
   38.1240   30.8200   40.8110 O   0  0  0  0  0  0  0  0  0  0  0  0
   38.9890   28.1970   41.9110 Cl  0  0  0  0  0  0  0  0  0  0  0  0
   37.7970   28.4650   40.6530 C   0  0  0  0  0  0  0  0  0  0  0  0
   37.4580   29.7410   40.2040 C   0  0  0  0  0  0  0  0  0  0  0  0
   36.5200   29.9000   39.2170 C   0  0  0  0  0  0  0  0  0  0  0  0
   35.8680   28.8400   38.6220 C   0  0  0  0  0  0  0  0  0  0  0  0
   36.1960   27.5410   39.0620 C   0  0  0  0  0  0  0  0  0  0  0  0
   35.4190   26.1310   38.3620 Cl  0  0  0  0  0  0  0  0  0  0  0  0
   37.1440   27.4210   40.0550 C   0  0  0  0  0  0  0  0  0  0  0  0
   36.3270   30.9270   38.9380 H   0  0  0  0  0  0  0  0  0  0  0  0
   35.1390   28.9860   37.8540 H   0  0  0  0  0  0  0  0  0  0  0  0
   39.0630   25.9920   38.7530 F   0  0  0  0  0  0  0  0  0  0  0  0
   38.4710   25.3800   39.8340 C   0  0  0  0  0  0  0  0  0  0  0  0
   37.4900   26.0810   40.5170 C   0  0  0  0  0  0  0  0  0  0  0  0
   36.9150   25.4210   41.6080 C   0  0  0  0  0  0  0  0  0  0  0  0
   37.3430   24.1460   41.9360 C   0  0  0  0  0  0  0  0  0  0  0  0
   38.3360   23.4970   41.2040 C   0  0  0  0  0  0  0  0  0  0  0  0
   38.9350   24.1160   40.1110 C   0  0  0  0  0  0  0  0  0  0  0  0
   36.1510   25.9680   42.1400 H   0  0  0  0  0  0  0  0  0  0  0  0
   36.8460   23.7070   42.7930 H   0  0  0  0  0  0  0  0  0  0  0  0
   38.6370   22.5020   41.4970 H   0  0  0  0  0  0  0  0  0  0  0  0
   39.6970   23.6500   39.5310 H   0  0  0  0  0  0  0  0  0  0  0  0
  1 27  1  0  0  0  0
  2  1  2  0  0  0  0
  3  1  1  0  0  0  0
  4  3  1  0  0  0  0
  5  3  1  0  0  0  0
  5 10  1  0  0  0  0
  6  5  2  0  0  0  0
  7  6  1  0  0  0  0
  7  8  2  0  0  0  0
  8  9  1  0  0  0  0
  9 10  2  0  0  0  0
  9 13  1  0  0  0  0
 11  7  1  0  0  0  0
 12 13  2  0  0  0  0
 12 22  1  0  0  0  0
 13 14  1  0  0  0  0
 14 15  1  0  0  0  0
 14 16  2  0  0  0  0
 16 17  1  0  0  0  0
 17 23  1  0  0  0  0
 17 18  1  0  0  0  0
 18 19  1  0  0  0  0
 20 18  2  0  0  0  0
 21 16  1  0  0  0  0
 21 20  1  0  0  0  0
 22 21  2  0  0  0  0
 24  6  1  0  0  0  0
 25 24  1  0  0  0  0
 26 24  1  0  0  0  0
 29 28  1  0  0  0  0
 30 29  1  0  0  0  0
 30 27  1  0  0  0  0
 31 30  2  0  0  0  0
 32 33  2  0  0  0  0
 32 31  1  0  0  0  0
 33 35  1  0  0  0  0
 34 33  1  0  0  0  0
 35 40  1  0  0  0  0
 35 29  2  0  0  0  0
 36 31  1  0  0  0  0
 37 32  1  0  0  0  0
 38 39  1  0  0  0  0
 39 44  2  0  0  0  0
 39 40  1  0  0  0  0
 40 41  2  0  0  0  0
 41 42  1  0  0  0  0
 41 45  1  0  0  0  0
 42 46  1  0  0  0  0
 43 47  1  0  0  0  0
 43 42  2  0  0  0  0
 44 43  1  0  0  0  0
 48 44  1  0  0  0  0
M  END
>  <minimizedAffinity>
-7.7521348

$$$$

 OpenBabel03252501433D

 48 52  0  0  0  0  0  0  0  0999 V2000
   37.9910   31.0050   40.9970 C   0  0  0  0  0  0  0  0  0  0  0  0
   37.6960   31.5550   39.8700 O   0  0  0  0  0  0  0  0  0  0  0  0
   39.2310   31.4720   41.5260 N   0  0  0  0  0  0  0  0  0  0  0  0
   39.6110   31.1740   42.4270 H   0  0  0  0  0  0  0  0  0  0  0  0
   39.8170   32.4070   40.5840 C   0  0  0  0  0  0  0  0  0  0  0  0
   39.6100   33.7500   40.5360 C   0  0  0  0  0  0  0  0  0  0  0  0
   40.2560   34.4690   39.5650 C   0  0  0  0  0  0  0  0  0  0  0  0
   41.0610   33.7940   38.7180 N   0  0  0  0  0  0  0  0  0  0  0  0
   41.2550   32.4600   38.7800 C   0  0  0  0  0  0  0  0  0  0  0  0
   40.6200   31.7420   39.7360 N   0  0  0  0  0  0  0  0  0  0  0  0
   40.1000   35.5320   39.5180 H   0  0  0  0  0  0  0  0  0  0  0  0
   41.7130   30.6080   37.2410 C   0  0  0  0  0  3  0  0  0  0  0  0
   42.1520   31.7820   37.8180 C   0  0  0  0  0  0  0  0  0  0  0  0
   43.3850   32.3510   37.5390 C   0  0  0  0  0  0  0  0  0  0  0  0
   43.6590   33.2730   38.0300 H   0  0  0  0  0  0  0  0  0  0  0  0
   44.1680   31.6630   36.6320 C   0  0  0  0  0  0  0  0  0  0  0  0
   45.4080   32.0460   36.2200 N   0  0  0  0  0  0  0  0  0  0  0  0
   45.7760   31.0700   35.3400 C   0  0  0  0  0  0  0  0  0  0  0  0
   46.7530   31.1120   34.8350 H   0  0  0  0  0  0  0  0  0  0  0  0
   44.7990   30.1290   35.2190 N   0  0  0  0  0  0  0  0  0  0  0  0
   43.7670   30.4890   36.0350 C   0  0  0  0  0  0  0  0  0  0  0  0
   42.5340   29.9390   36.3280 C   0  0  0  0  0  3  0  0  0  0  0  0
   45.9660   32.8700   36.4870 H   0  0  0  0  0  0  0  0  0  0  0  0
   38.7330   34.2990   41.5030 N   0  0  0  0  0  0  0  0  0  0  0  0
   37.7420   34.1010   41.7350 H   0  0  0  0  0  0  0  0  0  0  0  0
   39.2150   35.0420   42.0720 H   0  0  0  0  0  0  0  0  0  0  0  0
   37.2380   30.0540   41.6900 O   0  0  0  0  0  0  0  0  0  0  0  0
   36.6650   27.8400   39.7900 Cl  0  0  0  0  0  0  0  0  0  0  0  0
   37.6670   27.7570   41.2270 C   0  0  0  0  0  0  0  0  0  0  0  0
   37.8770   28.8560   42.0580 C   0  0  0  0  0  0  0  0  0  0  0  0
   38.6680   28.7420   43.1710 C   0  0  0  0  0  0  0  0  0  0  0  0
   39.2940   27.5650   43.5300 C   0  0  0  0  0  0  0  0  0  0  0  0
   39.0960   26.4410   42.7040 C   0  0  0  0  0  0  0  0  0  0  0  0
   39.8500   24.9020   43.0820 Cl  0  0  0  0  0  0  0  0  0  0  0  0
   38.2920   26.5950   41.5950 C   0  0  0  0  0  0  0  0  0  0  0  0
   38.7680   29.6490   43.7500 H   0  0  0  0  0  0  0  0  0  0  0  0
   39.9080   27.4980   44.4030 H   0  0  0  0  0  0  0  0  0  0  0  0
   36.3340   24.7990   42.1920 F   0  0  0  0  0  0  0  0  0  0  0  0
   37.0770   24.5420   41.0620 C   0  0  0  0  0  0  0  0  0  0  0  0
   38.0820   25.4370   40.7310 C   0  0  0  0  0  0  0  0  0  0  0  0
   38.8110   25.1370   39.5770 C   0  0  0  0  0  0  0  0  0  0  0  0
   38.5020   24.0000   38.8510 C   0  0  0  0  0  0  0  0  0  0  0  0
   37.4760   23.1400   39.2410 C   0  0  0  0  0  0  0  0  0  0  0  0
   36.7250   23.4000   40.3830 C   0  0  0  0  0  0  0  0  0  0  0  0
   39.5940   25.8350   39.3200 H   0  0  0  0  0  0  0  0  0  0  0  0
   39.1140   23.8420   37.9720 H   0  0  0  0  0  0  0  0  0  0  0  0
   37.2700   22.2650   38.6430 H   0  0  0  0  0  0  0  0  0  0  0  0
   35.9340   22.7650   40.7100 H   0  0  0  0  0  0  0  0  0  0  0  0
  1  3  1  0  0  0  0
  1 27  1  0  0  0  0
  2  1  2  0  0  0  0
  3  4  1  0  0  0  0
  5  3  1  0  0  0  0
  6  5  1  0  0  0  0
  6 24  1  0  0  0  0
  7  6  2  0  0  0  0
  8  9  2  0  0  0  0
  8  7  1  0  0  0  0
  9 10  1  0  0  0  0
 10  5  2  0  0  0  0
 11  7  1  0  0  0  0
 12 13  1  0  0  0  0
 13  9  1  0  0  0  0
 14 13  2  0  0  0  0
 14 15  1  0  0  0  0
 16 14  1  0  0  0  0
 17 23  1  0  0  0  0
 17 16  1  0  0  0  0
 18 17  1  0  0  0  0
 19 18  1  0  0  0  0
 20 18  2  0  0  0  0
 20 21  1  0  0  0  0
 21 22  1  0  0  0  0
 21 16  2  0  0  0  0
 22 12  2  0  0  0  0
 24 25  1  0  0  0  0
 24 26  1  0  0  0  0
 27 30  1  0  0  0  0
 28 29  1  0  0  0  0
 29 35  2  0  0  0  0
 29 30  1  0  0  0  0
 30 31  2  0  0  0  0
 31 32  1  0  0  0  0
 31 36  1  0  0  0  0
 32 37  1  0  0  0  0
 33 34  1  0  0  0  0
 33 32  2  0  0  0  0
 35 33  1  0  0  0  0
 39 38  1  0  0  0  0
 40 39  1  0  0  0  0
 40 35  1  0  0  0  0
 41 40  2  0  0  0  0
 42 43  2  0  0  0  0
 42 41  1  0  0  0  0
 43 44  1  0  0  0  0
 44 48  1  0  0  0  0
 44 39  2  0  0  0  0
 45 41  1  0  0  0  0
 46 42  1  0  0  0  0
 47 43  1  0  0  0  0
M  END
>  <minimizedAffinity>
-7.73211288

$$$$

 OpenBabel03252501433D

 48 52  0  0  0  0  0  0  0  0999 V2000
   38.9610   30.5380   40.2510 C   0  0  0  0  0  0  0  0  0  0  0  0
   40.0380   30.0840   39.7080 O   0  0  0  0  0  0  0  0  0  0  0  0
   38.7710   31.9310   40.0090 N   0  0  0  0  0  0  0  0  0  0  0  0
   37.9570   32.4570   40.3330 H   0  0  0  0  0  0  0  0  0  0  0  0
   39.9020   32.4310   39.2500 C   0  0  0  0  0  0  0  0  0  0  0  0
   40.0630   32.3760   37.9010 C   0  0  0  0  0  0  0  0  0  0  0  0
   41.2080   32.9040   37.3660 C   0  0  0  0  0  0  0  0  0  0  0  0
   42.1050   33.4470   38.2170 N   0  0  0  0  0  0  0  0  0  0  0  0
   41.9280   33.4930   39.5540 C   0  0  0  0  0  0  0  0  0  0  0  0
   40.7990   32.9730   40.0910 N   0  0  0  0  0  0  0  0  0  0  0  0
   41.3460   32.8680   36.3000 H   0  0  0  0  0  0  0  0  0  0  0  0
   44.2790   33.9230   40.0980 C   0  0  0  0  0  3  0  0  0  0  0  0
   42.9520   34.1030   40.4310 C   0  0  0  0  0  0  0  0  0  0  0  0
   42.5370   34.8240   41.5400 C   0  0  0  0  0  0  0  0  0  0  0  0
   41.4790   34.9220   41.7360 H   0  0  0  0  0  0  0  0  0  0  0  0
   43.5480   35.3650   42.3120 C   0  0  0  0  0  0  0  0  0  0  0  0
   43.3610   36.1050   43.4400 N   0  0  0  0  0  0  0  0  0  0  0  0
   44.6280   36.4110   43.8440 C   0  0  0  0  0  0  0  0  0  0  0  0
   44.7960   37.0140   44.7490 H   0  0  0  0  0  0  0  0  0  0  0  0
   45.5520   35.8790   42.9970 N   0  0  0  0  0  0  0  0  0  0  0  0
   44.8830   35.2090   42.0150 C   0  0  0  0  0  0  0  0  0  0  0  0
   45.2740   34.4860   40.9040 C   0  0  0  0  0  3  0  0  0  0  0  0
   42.4860   36.3870   43.9050 H   0  0  0  0  0  0  0  0  0  0  0  0
   39.0230   31.7710   37.1540 N   0  0  0  0  0  0  0  0  0  0  0  0
   38.5970   30.8270   37.1950 H   0  0  0  0  0  0  0  0  0  0  0  0
   38.6370   32.4360   36.4360 H   0  0  0  0  0  0  0  0  0  0  0  0
   38.0320   29.8170   41.0060 O   0  0  0  0  0  0  0  0  0  0  0  0
   37.5860   27.3940   39.3410 Cl  0  0  0  0  0  0  0  0  0  0  0  0
   38.3080   27.4510   40.9380 C   0  0  0  0  0  0  0  0  0  0  0  0
   38.4760   28.6440   41.6410 C   0  0  0  0  0  0  0  0  0  0  0  0
   39.0460   28.6370   42.8870 C   0  0  0  0  0  0  0  0  0  0  0  0
   39.4800   27.4840   43.5090 C   0  0  0  0  0  0  0  0  0  0  0  0
   39.3200   26.2670   42.8150 C   0  0  0  0  0  0  0  0  0  0  0  0
   39.8420   24.7510   43.5280 Cl  0  0  0  0  0  0  0  0  0  0  0  0
   38.7420   26.3140   41.5650 C   0  0  0  0  0  0  0  0  0  0  0  0
   39.1310   29.6100   43.3500 H   0  0  0  0  0  0  0  0  0  0  0  0
   39.9230   27.5020   44.4820 H   0  0  0  0  0  0  0  0  0  0  0  0
   36.5260   24.7890   41.9930 F   0  0  0  0  0  0  0  0  0  0  0  0
   37.4340   24.3070   41.0780 C   0  0  0  0  0  0  0  0  0  0  0  0
   38.5720   25.0600   40.8380 C   0  0  0  0  0  0  0  0  0  0  0  0
   39.4680   24.5330   39.9020 C   0  0  0  0  0  0  0  0  0  0  0  0
   39.1780   23.3280   39.2850 C   0  0  0  0  0  0  0  0  0  0  0  0
   38.0120   22.6200   39.5740 C   0  0  0  0  0  0  0  0  0  0  0  0
   37.0940   23.1080   40.4990 C   0  0  0  0  0  0  0  0  0  0  0  0
   40.3550   25.1200   39.7150 H   0  0  0  0  0  0  0  0  0  0  0  0
   39.9230   22.9910   38.5740 H   0  0  0  0  0  0  0  0  0  0  0  0
   37.8290   21.6840   39.0680 H   0  0  0  0  0  0  0  0  0  0  0  0
   36.1930   22.5940   40.7430 H   0  0  0  0  0  0  0  0  0  0  0  0
  1 27  1  0  0  0  0
  2  1  2  0  0  0  0
  3  1  1  0  0  0  0
  3  4  1  0  0  0  0
  5  3  1  0  0  0  0
  5 10  1  0  0  0  0
  6  5  2  0  0  0  0
  7  6  1  0  0  0  0
  7  8  2  0  0  0  0
  8  9  1  0  0  0  0
  9 10  2  0  0  0  0
  9 13  1  0  0  0  0
 11  7  1  0  0  0  0
 12 13  2  0  0  0  0
 12 22  1  0  0  0  0
 13 14  1  0  0  0  0
 14 15  1  0  0  0  0
 14 16  2  0  0  0  0
 16 17  1  0  0  0  0
 17 18  1  0  0  0  0
 17 23  1  0  0  0  0
 18 19  1  0  0  0  0
 20 18  2  0  0  0  0
 21 16  1  0  0  0  0
 21 20  1  0  0  0  0
 22 21  2  0  0  0  0
 24 25  1  0  0  0  0
 24  6  1  0  0  0  0
 26 24  1  0  0  0  0
 27 30  1  0  0  0  0
 28 29  1  0  0  0  0
 29 35  2  0  0  0  0
 29 30  1  0  0  0  0
 30 31  2  0  0  0  0
 31 36  1  0  0  0  0
 31 32  1  0  0  0  0
 32 37  1  0  0  0  0
 33 32  2  0  0  0  0
 33 34  1  0  0  0  0
 35 33  1  0  0  0  0
 39 38  1  0  0  0  0
 40 39  1  0  0  0  0
 40 35  1  0  0  0  0
 41 40  2  0  0  0  0
 42 43  2  0  0  0  0
 42 41  1  0  0  0  0
 43 44  1  0  0  0  0
 44 48  1  0  0  0  0
 44 39  2  0  0  0  0
 45 41  1  0  0  0  0
 46 42  1  0  0  0  0
 47 43  1  0  0  0  0
M  END
>  <minimizedAffinity>
-7.59793806

$$$$

 OpenBabel03252501433D

 48 52  0  0  0  0  0  0  0  0999 V2000
   41.4010   29.5330   37.2700 C   0  0  0  0  0  0  0  0  0  0  0  0
   42.4580   29.0900   37.8580 O   0  0  0  0  0  0  0  0  0  0  0  0
   41.6250   30.7720   36.6000 N   0  0  0  0  0  0  0  0  0  0  0  0
   40.9120   31.2580   36.0520 H   0  0  0  0  0  0  0  0  0  0  0  0
   42.9950   31.1880   36.8360 C   0  0  0  0  0  0  0  0  0  0  0  0
   44.0860   30.8490   36.0990 C   0  0  0  0  0  0  0  0  0  0  0  0
   45.3040   31.3430   36.4840 C   0  0  0  0  0  0  0  0  0  0  0  0
   45.3420   32.1400   37.5720 N   0  0  0  0  0  0  0  0  0  0  0  0
   44.2480   32.4670   38.2920 C   0  0  0  0  0  0  0  0  0  0  0  0
   43.0400   31.9820   37.9200 N   0  0  0  0  0  0  0  0  0  0  0  0
   46.1740   31.0820   35.9080 H   0  0  0  0  0  0  0  0  0  0  0  0
   45.5990   33.4830   40.0660 C   0  0  0  0  0  3  0  0  0  0  0  0
   44.3590   33.3460   39.4770 C   0  0  0  0  0  0  0  0  0  0  0  0
   43.2210   33.9890   39.9410 C   0  0  0  0  0  0  0  0  0  0  0  0
   42.2850   33.8320   39.4260 H   0  0  0  0  0  0  0  0  0  0  0  0
   43.4010   34.7930   41.0500 C   0  0  0  0  0  0  0  0  0  0  0  0
   42.4200   35.5110   41.6630 N   0  0  0  0  0  0  0  0  0  0  0  0
   43.0650   36.1350   42.6910 C   0  0  0  0  0  0  0  0  0  0  0  0
   42.5160   36.7990   43.3760 H   0  0  0  0  0  0  0  0  0  0  0  0
   44.3880   35.8110   42.7050 N   0  0  0  0  0  0  0  0  0  0  0  0
   44.6210   34.9570   41.6680 C   0  0  0  0  0  0  0  0  0  0  0  0
   45.7410   34.3060   41.1890 C   0  0  0  0  0  3  0  0  0  0  0  0
   41.4180   35.5900   41.4330 H   0  0  0  0  0  0  0  0  0  0  0  0
   43.8690   30.0020   34.9850 N   0  0  0  0  0  0  0  0  0  0  0  0
   43.4520   29.0570   34.9000 H   0  0  0  0  0  0  0  0  0  0  0  0
   44.2080   30.4530   34.0960 H   0  0  0  0  0  0  0  0  0  0  0  0
   40.1410   28.9300   37.2410 O   0  0  0  0  0  0  0  0  0  0  0  0
   39.9260   27.5470   39.8640 Cl  0  0  0  0  0  0  0  0  0  0  0  0
   38.9550   28.8970   39.3070 C   0  0  0  0  0  0  0  0  0  0  0  0
   39.1340   29.4800   38.0540 C   0  0  0  0  0  0  0  0  0  0  0  0
   38.3490   30.5340   37.6630 C   0  0  0  0  0  0  0  0  0  0  0  0
   37.3620   31.0730   38.4620 C   0  0  0  0  0  0  0  0  0  0  0  0
   37.1640   30.4980   39.7340 C   0  0  0  0  0  0  0  0  0  0  0  0
   35.9310   31.1160   40.8190 Cl  0  0  0  0  0  0  0  0  0  0  0  0
   37.9720   29.4390   40.0910 C   0  0  0  0  0  0  0  0  0  0  0  0
   38.5650   30.9160   36.6750 H   0  0  0  0  0  0  0  0  0  0  0  0
   36.7610   31.8960   38.1370 H   0  0  0  0  0  0  0  0  0  0  0  0
   36.2480   27.3510   40.3820 F   0  0  0  0  0  0  0  0  0  0  0  0
   36.8930   27.7760   41.5210 C   0  0  0  0  0  0  0  0  0  0  0  0
   37.7760   28.8370   41.4060 C   0  0  0  0  0  0  0  0  0  0  0  0
   38.4090   29.2370   42.5880 C   0  0  0  0  0  0  0  0  0  0  0  0
   38.1270   28.5730   43.7690 C   0  0  0  0  0  0  0  0  0  0  0  0
   37.2250   27.5100   43.8150 C   0  0  0  0  0  0  0  0  0  0  0  0
   36.5740   27.0800   42.6630 C   0  0  0  0  0  0  0  0  0  0  0  0
   39.0970   30.0640   42.4980 H   0  0  0  0  0  0  0  0  0  0  0  0
   38.6590   28.9450   44.6360 H   0  0  0  0  0  0  0  0  0  0  0  0
   37.0380   27.0230   44.7590 H   0  0  0  0  0  0  0  0  0  0  0  0
   35.8800   26.2720   42.6610 H   0  0  0  0  0  0  0  0  0  0  0  0
  1  2  2  0  0  0  0
  3  5  1  0  0  0  0
  3  1  1  0  0  0  0
  4  3  1  0  0  0  0
  5 10  1  0  0  0  0
  6  7  1  0  0  0  0
  6  5  2  0  0  0  0
  7  8  2  0  0  0  0
  8  9  1  0  0  0  0
  9 13  1  0  0  0  0
 10  9  2  0  0  0  0
 11  7  1  0  0  0  0
 12 22  1  0  0  0  0
 13 14  1  0  0  0  0
 13 12  2  0  0  0  0
 14 16  2  0  0  0  0
 15 14  1  0  0  0  0
 16 17  1  0  0  0  0
 16 21  1  0  0  0  0
 17 18  1  0  0  0  0
 18 20  2  0  0  0  0
 18 19  1  0  0  0  0
 21 20  1  0  0  0  0
 22 21  2  0  0  0  0
 23 17  1  0  0  0  0
 24  6  1  0  0  0  0
 25 24  1  0  0  0  0
 26 24  1  0  0  0  0
 27  1  1  0  0  0  0
 27 30  1  0  0  0  0
 29 28  1  0  0  0  0
 29 35  1  0  0  0  0
 30 29  2  0  0  0  0
 31 30  1  0  0  0  0
 31 32  2  0  0  0  0
 32 33  1  0  0  0  0
 33 35  2  0  0  0  0
 33 34  1  0  0  0  0
 35 40  1  0  0  0  0
 36 31  1  0  0  0  0
 37 32  1  0  0  0  0
 38 39  1  0  0  0  0
 39 44  1  0  0  0  0
 40 39  2  0  0  0  0
 40 41  1  0  0  0  0
 41 42  2  0  0  0  0
 42 43  1  0  0  0  0
 42 46  1  0  0  0  0
 43 47  1  0  0  0  0
 44 43  2  0  0  0  0
 45 41  1  0  0  0  0
 48 44  1  0  0  0  0
M  END
>  <minimizedAffinity>
-7.50563097

$$$$

 OpenBabel03252501433D

 48 52  0  0  0  0  0  0  0  0999 V2000
   37.7230   29.6770   39.6600 C   0  0  0  0  0  0  0  0  0  0  0  0
   38.7200   29.0960   40.2310 O   0  0  0  0  0  0  0  0  0  0  0  0
   36.4660   29.1650   40.0990 N   0  0  0  0  0  0  0  0  0  0  0  0
   35.5640   29.5260   39.7800 H   0  0  0  0  0  0  0  0  0  0  0  0
   36.7040   28.0870   41.0390 C   0  0  0  0  0  0  0  0  0  0  0  0
   36.9270   28.2070   42.3750 C   0  0  0  0  0  0  0  0  0  0  0  0
   37.1350   27.0640   43.1010 C   0  0  0  0  0  0  0  0  0  0  0  0
   37.1040   25.8880   42.4400 N   0  0  0  0  0  0  0  0  0  0  0  0
   36.8810   25.7870   41.1120 C   0  0  0  0  0  0  0  0  0  0  0  0
   36.6750   26.9110   40.3870 N   0  0  0  0  0  0  0  0  0  0  0  0
   37.3110   27.1480   44.1580 H   0  0  0  0  0  0  0  0  0  0  0  0
   36.0310   24.3000   39.3590 C   0  0  0  0  0  3  0  0  0  0  0  0
   36.8610   24.4640   40.4490 C   0  0  0  0  0  0  0  0  0  0  0  0
   37.6700   23.4540   40.9480 C   0  0  0  0  0  0  0  0  0  0  0  0
   38.2930   23.6590   41.8060 H   0  0  0  0  0  0  0  0  0  0  0  0
   37.5980   22.2470   40.2780 C   0  0  0  0  0  0  0  0  0  0  0  0
   38.3070   21.1300   40.6020 N   0  0  0  0  0  0  0  0  0  0  0  0
   37.9090   20.2120   39.6740 C   0  0  0  0  0  0  0  0  0  0  0  0
   38.3220   19.1910   39.6850 H   0  0  0  0  0  0  0  0  0  0  0  0
   36.9950   20.7470   38.8180 N   0  0  0  0  0  0  0  0  0  0  0  0
   36.7840   22.0430   39.1870 C   0  0  0  0  0  0  0  0  0  0  0  0
   35.9860   23.0630   38.7080 C   0  0  0  0  0  3  0  0  0  0  0  0
   38.9890   20.9790   41.3590 H   0  0  0  0  0  0  0  0  0  0  0  0
   36.9260   29.5190   42.9100 N   0  0  0  0  0  0  0  0  0  0  0  0
   37.4870   30.3610   42.6860 H   0  0  0  0  0  0  0  0  0  0  0  0
   36.2070   29.6150   43.6720 H   0  0  0  0  0  0  0  0  0  0  0  0
   37.7780   30.7000   38.7090 O   0  0  0  0  0  0  0  0  0  0  0  0
   40.6890   30.9510   38.1550 Cl  0  0  0  0  0  0  0  0  0  0  0  0
   39.6540   32.1560   38.8990 C   0  0  0  0  0  0  0  0  0  0  0  0
   38.2940   31.9430   39.1160 C   0  0  0  0  0  0  0  0  0  0  0  0
   37.5270   32.9160   39.7020 C   0  0  0  0  0  0  0  0  0  0  0  0
   38.0350   34.1350   40.1010 C   0  0  0  0  0  0  0  0  0  0  0  0
   39.4080   34.3710   39.8900 C   0  0  0  0  0  0  0  0  0  0  0  0
   40.1430   35.8920   40.3670 Cl  0  0  0  0  0  0  0  0  0  0  0  0
   40.1470   33.3690   39.3000 C   0  0  0  0  0  0  0  0  0  0  0  0
   36.4850   32.6550   39.8280 H   0  0  0  0  0  0  0  0  0  0  0  0
   37.4180   34.8810   40.5570 H   0  0  0  0  0  0  0  0  0  0  0  0
   41.9400   32.8080   41.2720 F   0  0  0  0  0  0  0  0  0  0  0  0
   42.4570   33.3080   40.0990 C   0  0  0  0  0  0  0  0  0  0  0  0
   41.5700   33.6040   39.0760 C   0  0  0  0  0  0  0  0  0  0  0  0
   42.1380   34.1090   37.9020 C   0  0  0  0  0  0  0  0  0  0  0  0
   43.5100   34.2820   37.8290 C   0  0  0  0  0  0  0  0  0  0  0  0
   44.3460   33.9630   38.8980 C   0  0  0  0  0  0  0  0  0  0  0  0
   43.8230   33.4570   40.0840 C   0  0  0  0  0  0  0  0  0  0  0  0
   41.4470   34.3400   37.1050 H   0  0  0  0  0  0  0  0  0  0  0  0
   43.8680   34.6780   36.8860 H   0  0  0  0  0  0  0  0  0  0  0  0
   45.4100   34.1140   38.7940 H   0  0  0  0  0  0  0  0  0  0  0  0
   44.4320   33.2030   40.9200 H   0  0  0  0  0  0  0  0  0  0  0  0
  1  3  1  0  0  0  0
  1  2  2  0  0  0  0
  3  5  1  0  0  0  0
  4  3  1  0  0  0  0
  5  6  1  0  0  0  0
  6 24  1  0  0  0  0
  6  7  2  0  0  0  0
  7 11  1  0  0  0  0
  8  7  1  0  0  0  0
  9  8  2  0  0  0  0
 10  5  2  0  0  0  0
 10  9  1  0  0  0  0
 12 13  1  0  0  0  0
 13 14  2  0  0  0  0
 13  9  1  0  0  0  0
 14 15  1  0  0  0  0
 16 17  1  0  0  0  0
 16 14  1  0  0  0  0
 17 23  1  0  0  0  0
 18 19  1  0  0  0  0
 18 17  1  0  0  0  0
 20 21  1  0  0  0  0
 20 18  2  0  0  0  0
 21 16  2  0  0  0  0
 22 21  1  0  0  0  0
 22 12  2  0  0  0  0
 24 26  1  0  0  0  0
 25 24  1  0  0  0  0
 27 30  1  0  0  0  0
 27  1  1  0  0  0  0
 28 29  1  0  0  0  0
 29 30  2  0  0  0  0
 29 35  1  0  0  0  0
 30 31  1  0  0  0  0
 31 36  1  0  0  0  0
 31 32  2  0  0  0  0
 32 37  1  0  0  0  0
 33 32  1  0  0  0  0
 33 34  1  0  0  0  0
 35 33  2  0  0  0  0
 39 38  1  0  0  0  0
 40 35  1  0  0  0  0
 40 39  2  0  0  0  0
 41 40  1  0  0  0  0
 42 41  2  0  0  0  0
 42 43  1  0  0  0  0
 43 44  2  0  0  0  0
 44 39  1  0  0  0  0
 44 48  1  0  0  0  0
 45 41  1  0  0  0  0
 46 42  1  0  0  0  0
 47 43  1  0  0  0  0
M  END
>  <minimizedAffinity>
-7.49519682

$$$$

 OpenBabel03252501433D

 48 52  0  0  0  0  0  0  0  0999 V2000
   37.3630   31.9500   40.3680 C   0  0  0  0  0  0  0  0  0  0  0  0
   37.3700   32.7760   39.3800 O   0  0  0  0  0  0  0  0  0  0  0  0
   38.6150   31.9000   41.0490 N   0  0  0  0  0  0  0  0  0  0  0  0
   38.7880   31.3280   41.8780 H   0  0  0  0  0  0  0  0  0  0  0  0
   39.5490   32.7790   40.3700 C   0  0  0  0  0  0  0  0  0  0  0  0
   39.6700   34.1230   40.5380 C   0  0  0  0  0  0  0  0  0  0  0  0
   40.6170   34.7820   39.8000 C   0  0  0  0  0  0  0  0  0  0  0  0
   41.3720   34.0520   38.9530 N   0  0  0  0  0  0  0  0  0  0  0  0
   41.2390   32.7180   38.8000 C   0  0  0  0  0  0  0  0  0  0  0  0
   40.3060   32.0580   39.5240 N   0  0  0  0  0  0  0  0  0  0  0  0
   40.7210   35.8460   39.9240 H   0  0  0  0  0  0  0  0  0  0  0  0
   41.6140   30.8020   37.3180 C   0  0  0  0  0  3  0  0  0  0  0  0
   42.1010   31.9770   37.8520 C   0  0  0  0  0  0  0  0  0  0  0  0
   43.3520   32.4920   37.5450 C   0  0  0  0  0  0  0  0  0  0  0  0
   43.6640   33.4180   38.0040 H   0  0  0  0  0  0  0  0  0  0  0  0
   44.1010   31.7460   36.6540 C   0  0  0  0  0  0  0  0  0  0  0  0
   45.3500   32.0710   36.2190 N   0  0  0  0  0  0  0  0  0  0  0  0
   45.6730   31.0550   35.3680 C   0  0  0  0  0  0  0  0  0  0  0  0
   46.6460   31.0440   34.8530 H   0  0  0  0  0  0  0  0  0  0  0  0
   44.6620   30.1460   35.2860 N   0  0  0  0  0  0  0  0  0  0  0  0
   43.6520   30.5700   36.0980 C   0  0  0  0  0  0  0  0  0  0  0  0
   42.4020   30.0750   36.4190 C   0  0  0  0  0  3  0  0  0  0  0  0
   45.9400   32.8820   36.4550 H   0  0  0  0  0  0  0  0  0  0  0  0
   38.7960   34.7340   41.4690 N   0  0  0  0  0  0  0  0  0  0  0  0
   37.7620   34.7650   41.5360 H   0  0  0  0  0  0  0  0  0  0  0  0
   39.3360   35.2410   42.2170 H   0  0  0  0  0  0  0  0  0  0  0  0
   36.2930   31.1570   40.7930 O   0  0  0  0  0  0  0  0  0  0  0  0
   36.0820   29.9800   38.0710 Cl  0  0  0  0  0  0  0  0  0  0  0  0
   36.3930   29.1170   39.5660 C   0  0  0  0  0  0  0  0  0  0  0  0
   36.4750   29.7630   40.7990 C   0  0  0  0  0  0  0  0  0  0  0  0
   36.7200   29.0450   41.9410 C   0  0  0  0  0  0  0  0  0  0  0  0
   36.8980   27.6770   41.9440 C   0  0  0  0  0  0  0  0  0  0  0  0
   36.8190   27.0040   40.7080 C   0  0  0  0  0  0  0  0  0  0  0  0
   37.0310   25.2640   40.6160 Cl  0  0  0  0  0  0  0  0  0  0  0  0
   36.5700   27.7600   39.5830 C   0  0  0  0  0  0  0  0  0  0  0  0
   36.7650   29.6360   42.8450 H   0  0  0  0  0  0  0  0  0  0  0  0
   37.0880   27.1360   42.8470 H   0  0  0  0  0  0  0  0  0  0  0  0
   38.8130   27.4380   38.0720 F   0  0  0  0  0  0  0  0  0  0  0  0
   37.6460   26.9250   37.5530 C   0  0  0  0  0  0  0  0  0  0  0  0
   36.4870   27.0730   38.2980 C   0  0  0  0  0  0  0  0  0  0  0  0
   35.3250   26.5380   37.7320 C   0  0  0  0  0  0  0  0  0  0  0  0
   35.3930   25.9100   36.5000 C   0  0  0  0  0  0  0  0  0  0  0  0
   36.5950   25.7960   35.8030 C   0  0  0  0  0  0  0  0  0  0  0  0
   37.7750   26.3150   36.3280 C   0  0  0  0  0  0  0  0  0  0  0  0
   34.4220   26.6540   38.3130 H   0  0  0  0  0  0  0  0  0  0  0  0
   34.4500   25.5250   36.1350 H   0  0  0  0  0  0  0  0  0  0  0  0
   36.5990   25.2980   34.8450 H   0  0  0  0  0  0  0  0  0  0  0  0
   38.7110   26.2450   35.8230 H   0  0  0  0  0  0  0  0  0  0  0  0
  1 27  1  0  0  0  0
  1  3  1  0  0  0  0
  2  1  2  0  0  0  0
  3  4  1  0  0  0  0
  5  6  1  0  0  0  0
  5  3  1  0  0  0  0
  6 24  1  0  0  0  0
  7 11  1  0  0  0  0
  7  6  2  0  0  0  0
  8  7  1  0  0  0  0
  9  8  2  0  0  0  0
  9 10  1  0  0  0  0
 10  5  2  0  0  0  0
 12 13  1  0  0  0  0
 13  9  1  0  0  0  0
 14 13  2  0  0  0  0
 14 15  1  0  0  0  0
 16 14  1  0  0  0  0
 17 23  1  0  0  0  0
 17 16  1  0  0  0  0
 18 17  1  0  0  0  0
 19 18  1  0  0  0  0
 20 18  2  0  0  0  0
 20 21  1  0  0  0  0
 21 22  1  0  0  0  0
 21 16  2  0  0  0  0
 22 12  2  0  0  0  0
 24 25  1  0  0  0  0
 24 26  1  0  0  0  0
 27 30  1  0  0  0  0
 28 29  1  0  0  0  0
 29 35  2  0  0  0  0
 29 30  1  0  0  0  0
 30 31  2  0  0  0  0
 31 32  1  0  0  0  0
 31 36  1  0  0  0  0
 32 37  1  0  0  0  0
 33 32  2  0  0  0  0
 34 33  1  0  0  0  0
 35 33  1  0  0  0  0
 39 38  1  0  0  0  0
 39 40  1  0  0  0  0
 40 35  1  0  0  0  0
 41 40  2  0  0  0  0
 41 45  1  0  0  0  0
 42 41  1  0  0  0  0
 43 44  1  0  0  0  0
 43 42  2  0  0  0  0
 44 39  2  0  0  0  0
 46 42  1  0  0  0  0
 47 43  1  0  0  0  0
 48 44  1  0  0  0  0
M  END
>  <minimizedAffinity>
-7.36175394

$$$$
