
     RDKit          3D

 46 50  0  0  0  0  0  0  0  0999 V2000
   45.1302   33.9315   40.6968 C   0  0  0  0  0  0  0  0  0  0  0  0
   44.0822   33.6315   39.8763 C   0  0  0  0  0  0  0  0  0  0  0  0
   44.3788   33.1555   38.6275 C   0  0  0  0  0  0  0  0  0  0  0  0
   45.6624   32.9679   38.1670 C   0  0  0  0  0  0  0  0  0  0  0  0
   46.6928   33.2834   39.0280 C   0  0  0  0  0  0  0  0  0  0  0  0
   46.4446   33.7674   40.2998 C   0  0  0  0  0  0  0  0  0  0  0  0
   40.7932   35.2551   40.7915 C   0  0  0  0  0  0  0  0  0  0  0  0
   42.0939   35.0941   40.2710 C   0  0  0  0  0  0  0  0  0  0  0  0
   42.7400   33.8424   40.3980 C   0  0  0  0  0  0  0  0  0  0  0  0
   42.0279   32.8882   41.0258 N   0  0  0  0  0  0  0  0  0  0  0  0
   40.8021   33.0625   41.5088 C   0  0  0  0  0  0  0  0  0  0  0  0
   40.1866   34.2495   41.3897 N   0  0  0  0  0  0  0  0  0  0  0  0
   40.1937   36.5348   40.6349 N   0  0  0  0  0  0  0  0  0  0  0  0
   47.6000   34.0684   41.1204 C   0  0  0  0  0  0  0  0  0  0  0  0
   48.1319   35.3338   40.9584 C   0  0  0  0  0  0  0  0  0  0  0  0
   49.2391   35.8124   41.6536 C   0  0  0  0  0  0  0  0  0  0  0  0
   49.8297   34.9458   42.5617 C   0  0  0  0  0  0  0  0  0  0  0  0
   49.3165   33.6751   42.7417 C   0  0  0  0  0  0  0  0  0  0  0  0
   48.2154   33.2503   42.0258 C   0  0  0  0  0  0  0  0  0  0  0  0
   44.7235   34.8655   43.1146 N   0  0  0  0  0  0  0  0  0  0  0  0
   44.9005   34.4420   42.0335 C   0  0  0  0  0  0  0  0  0  0  0  0
   43.5551   32.9148   37.9695 H   0  0  0  0  0  0  0  0  0  0  0  0
   45.8278   32.5927   37.1811 H   0  0  0  0  0  0  0  0  0  0  0  0
   47.7157   33.1377   38.6713 H   0  0  0  0  0  0  0  0  0  0  0  0
   42.6276   35.8946   39.7720 H   0  0  0  0  0  0  0  0  0  0  0  0
   40.2839   32.2470   42.0057 H   0  0  0  0  0  0  0  0  0  0  0  0
   39.8996   37.0305   39.7513 H   0  0  0  0  0  0  0  0  0  0  0  0
   39.9748   37.1457   41.4522 H   0  0  0  0  0  0  0  0  0  0  0  0
   47.7345   36.0836   40.2672 H   0  0  0  0  0  0  0  0  0  0  0  0
   49.6509   36.7845   41.5316 H   0  0  0  0  0  0  0  0  0  0  0  0
   50.6938   35.2556   43.1346 H   0  0  0  0  0  0  0  0  0  0  0  0
   49.7371   32.9491   43.4405 H   0  0  0  0  0  0  0  0  0  0  0  0
   48.5957   31.0177   42.7187 C   0  0  0  0  0  0  0  0  0  0  0  0
   47.6581   31.9160   42.1978 C   0  0  0  0  0  0  0  0  0  0  0  0
   46.3954   31.4265   41.9372 C   0  0  0  0  0  0  0  0  0  0  0  0
   45.7391   32.1882   41.5399 H   0  0  0  0  0  0  0  0  0  0  0  0
   46.1020   30.1061   42.1902 C   0  0  0  0  0  0  0  0  0  0  0  0
   44.9517   29.4551   42.0066 N   0  0  0  0  0  0  0  0  0  0  0  0
   45.1257   28.1662   42.3948 C   0  0  0  0  0  0  0  0  0  0  0  0
   44.3713   27.3842   42.3671 H   0  0  0  0  0  0  0  0  0  0  0  0
   46.4052   28.0432   42.8191 N   0  0  0  0  0  0  0  0  0  0  0  0
   47.0214   29.2431   42.6962 C   0  0  0  0  0  0  0  0  0  0  0  0
   48.2980   29.6845   42.9732 C   0  0  0  0  0  0  0  0  0  0  0  0
   49.6285   31.2753   42.9686 H   0  0  0  0  0  0  0  0  0  0  0  0
   44.0486   29.8345   41.6313 H   0  0  0  0  0  0  0  0  0  0  0  0
   49.0241   28.9915   43.3760 H   0  0  0  0  0  0  0  0  0  0  0  0
  1 21  1  0
  2  9  1  0
  2  1  2  0
  3  2  1  0
  4  3  2  0
  4  5  1  0
  5  6  2  0
  6  1  1  0
  6 14  1  0
  7 12  2  0
  8  9  2  0
  8  7  1  0
  9 10  1  0
 10 11  2  0
 12 11  1  0
 13  7  1  0
 14 19  1  0
 15 14  2  0
 15 16  1  0
 16 17  2  0
 17 18  1  0
 19 18  2  0
 21 20  3  0
  3 22  1  0
  4 23  1  0
  5 24  1  0
  8 25  1  0
 11 26  1  0
 13 27  1  0
 13 28  1  0
 15 29  1  0
 16 30  1  0
 17 31  1  0
 18 32  1  0
 33 34  2  0
 34 35  1  0
 35 36  1  0
 35 37  2  0
 37 38  1  0
 38 39  1  0
 39 40  1  0
 39 41  2  0
 41 42  1  0
 42 43  2  0
 43 33  1  0
 42 37  1  0
 33 44  1  0
 38 45  1  0
 43 46  1  0
 19 34  1  0
M  ISO  8  22  14  23  14  24  14  25  14  26  14  29  14  30  14  31  14
M  ISO  3  32  14  36  15  40  14
M  END
>  <DihAtoms>  (1) 
13,18,33,32

>  <DihDeg>  (1) 
97.38347634022958

$$$$
