
 OpenBabel03242516003D

 31 34  0  0  0  0  0  0  0  0999 V2000
   44.9440   33.0850   41.1200 Cl  0  0  0  0  0  0  0  0  0  0  0  0
   46.4390   33.9820   40.9490 C   0  0  0  0  0  0  0  0  0  0  0  0
   46.9150   34.7580   41.9610 C   0  0  0  0  0  0  0  0  0  0  0  0
   48.0930   35.4160   41.7220 C   0  0  0  0  0  0  0  0  0  0  0  0
   48.7780   35.3260   40.5490 C   0  0  0  0  0  0  0  0  0  0  0  0
   48.2900   34.5390   39.5300 C   0  0  0  0  0  0  0  0  0  0  0  0
   47.1050   33.8660   39.7490 C   0  0  0  0  0  0  0  0  0  0  0  0
   48.4950   36.0440   42.5200 H   0  0  0  0  0  0  0  0  0  0  0  0
   49.7010   35.8800   40.4440 H   0  0  0  0  0  0  0  0  0  0  0  0
   48.8540   34.4950   38.6310 H   0  0  0  0  0  0  0  0  0  0  0  0
   45.7550   33.4510   37.6530 C   0  0  0  0  0  3  0  0  0  0  0  0
   46.6400   33.0510   38.6330 C   0  0  0  0  0  0  0  0  0  0  0  0
   47.1270   31.7420   38.5300 C   0  0  0  0  0  0  0  0  0  0  0  0
   47.8330   31.3090   39.2430 H   0  0  0  0  0  0  0  0  0  0  0  0
   46.7570   30.8910   37.5220 C   0  0  0  0  0  0  0  0  0  0  0  0
   47.0300   29.6270   37.1530 N   0  0  0  0  0  0  0  0  0  0  0  0
   46.3760   29.2690   36.0460 C   0  0  0  0  0  0  0  0  0  0  0  0
   46.3360   28.3690   35.4630 H   0  0  0  0  0  0  0  0  0  0  0  0
   45.6360   30.3510   35.6690 N   0  0  0  0  0  0  0  0  0  0  0  0
   45.8710   31.3270   36.5640 C   0  0  0  0  0  0  0  0  0  0  0  0
   45.3700   32.6080   36.6310 C   0  0  0  0  0  3  0  0  0  0  0  0
   47.6760   28.9830   37.6590 H   0  0  0  0  0  0  0  0  0  0  0  0
   44.5020   35.8800   44.6620 C   0  0  0  0  0  0  0  0  0  0  0  0
   45.2160   35.8300   43.4580 C   0  0  0  0  0  0  0  0  0  0  0  0
   46.1640   34.8330   43.1950 C   0  0  0  0  0  0  0  0  0  0  0  0
   46.3400   33.9260   44.1900 N   0  0  0  0  0  0  0  0  0  0  0  0
   45.6450   33.9860   45.3440 C   0  0  0  0  0  0  0  0  0  0  0  0
   44.7420   34.9390   45.5870 N   0  0  0  0  0  0  0  0  0  0  0  0
   43.7970   36.7030   44.7380 H   0  0  0  0  0  0  0  0  0  0  0  0
   45.0750   36.5510   42.6720 H   0  0  0  0  0  0  0  0  0  0  0  0
   45.8290   33.2220   46.1160 H   0  0  0  0  0  0  0  0  0  0  0  0
  2  1  1  0  0  0  0
  2  3  1  0  0  0  0
  3 25  1  0  0  0  0
  4  3  2  0  0  0  0
  4  8  1  0  0  0  0
  5  4  1  0  0  0  0
  6  7  1  0  0  0  0
  6  5  2  0  0  0  0
  7  2  2  0  0  0  0
  9  5  1  0  0  0  0
 10  6  1  0  0  0  0
 11 12  1  0  0  0  0
 12  7  1  0  0  0  0
 13 12  2  0  0  0  0
 13 14  1  0  0  0  0
 15 13  1  0  0  0  0
 16 15  1  0  0  0  0
 16 22  1  0  0  0  0
 17 16  1  0  0  0  0
 18 17  1  0  0  0  0
 19 17  2  0  0  0  0
 19 20  1  0  0  0  0
 20 21  1  0  0  0  0
 20 15  2  0  0  0  0
 21 11  2  0  0  0  0
 23 29  1  0  0  0  0
 23 28  1  0  0  0  0
 24 23  2  0  0  0  0
 25 24  1  0  0  0  0
 25 26  2  0  0  0  0
 26 27  1  0  0  0  0
 27 28  2  0  0  0  0
 27 31  1  0  0  0  0
 30 24  1  0  0  0  0
M  END
>  <minimizedAffinity>
-5.72663403

>  <minimizedRMSD>
0.863565862

$$$$
