
 OpenBabel03252504123D

 28 30  0  0  0  0  0  0  0  0999 V2000
   37.9930   26.7430   41.8510 C   0  0  0  0  0  0  0  0  0  0  0  0
   37.1780   26.0340   40.9730 C   0  0  0  0  0  0  0  0  0  0  0  0
   36.5820   26.7470   39.9210 C   0  0  0  0  0  0  0  0  0  0  0  0
   36.8270   28.0710   39.8160 N   0  0  0  0  0  0  0  0  0  0  0  0
   37.6240   28.7210   40.6900 C   0  0  0  0  0  0  0  0  0  0  0  0
   38.2070   28.0710   41.7020 N   0  0  0  0  0  0  0  0  0  0  0  0
   35.9520   26.2020   39.2420 H   0  0  0  0  0  0  0  0  0  0  0  0
   36.8490   30.9080   39.8000 C   0  0  0  0  0  3  0  0  0  0  0  0
   37.8090   30.1520   40.4660 C   0  0  0  0  0  0  0  0  0  0  0  0
   38.9460   30.7650   40.9220 C   0  0  0  0  0  0  0  0  0  0  0  0
   39.7120   30.2050   41.4450 H   0  0  0  0  0  0  0  0  0  0  0  0
   39.1050   32.1190   40.7030 C   0  0  0  0  0  0  0  0  0  0  0  0
   40.1500   32.9070   41.0720 N   0  0  0  0  0  0  0  0  0  0  0  0
   39.8050   34.1440   40.6180 C   0  0  0  0  0  0  0  0  0  0  0  0
   40.4990   34.9660   40.7950 H   0  0  0  0  0  0  0  0  0  0  0  0
   38.6110   34.1100   40.0040 N   0  0  0  0  0  0  0  0  0  0  0  0
   38.1390   32.8500   40.0400 C   0  0  0  0  0  0  0  0  0  0  0  0
   36.9800   32.2740   39.5650 C   0  0  0  0  0  3  0  0  0  0  0  0
   41.0120   32.6130   41.5850 H   0  0  0  0  0  0  0  0  0  0  0  0
   36.9720   24.5840   41.1740 C   0  0  0  0  0  0  0  0  0  0  0  0
   36.5670   24.3430   42.4760 F   0  0  0  0  0  0  0  0  0  0  0  0
   35.9210   24.1740   40.3640 F   0  0  0  0  0  0  0  0  0  0  0  0
   38.0540   23.8160   40.9230 F   0  0  0  0  0  0  0  0  0  0  0  0
   38.5650   26.0450   42.8650 O   0  0  0  0  0  0  0  0  0  0  0  0
   39.9010   25.6110   42.9450 C   0  0  0  0  0  0  0  0  0  0  0  0
   40.3740   25.4680   41.6390 F   0  0  0  0  0  0  0  0  0  0  0  0
   40.6380   26.4890   43.6750 F   0  0  0  0  0  0  0  0  0  0  0  0
   39.9420   24.3300   43.4810 F   0  0  0  0  0  0  0  0  0  0  0  0
  1 24  1  0  0  0  0
  2 20  1  0  0  0  0
  2  1  2  0  0  0  0
  3  2  1  0  0  0  0
  4  3  2  0  0  0  0
  4  5  1  0  0  0  0
  5  6  2  0  0  0  0
  6  1  1  0  0  0  0
  7  3  1  0  0  0  0
  8  9  1  0  0  0  0
  9  5  1  0  0  0  0
  9 10  2  0  0  0  0
 10 11  1  0  0  0  0
 12 10  1  0  0  0  0
 12 13  1  0  0  0  0
 13 19  1  0  0  0  0
 14 15  1  0  0  0  0
 14 13  1  0  0  0  0
 16 17  1  0  0  0  0
 16 14  2  0  0  0  0
 17 12  2  0  0  0  0
 18  8  2  0  0  0  0
 18 17  1  0  0  0  0
 20 21  1  0  0  0  0
 22 20  1  0  0  0  0
 23 20  1  0  0  0  0
 24 25  1  0  0  0  0
 25 28  1  0  0  0  0
 25 27  1  0  0  0  0
 26 25  1  0  0  0  0
M  END
>  <minimizedAffinity>
-5.72702122

$$$$

 OpenBabel03252504123D

 28 30  0  0  0  0  0  0  0  0999 V2000
   37.1350   29.8850   40.6970 C   0  0  0  0  0  0  0  0  0  0  0  0
   36.4880   29.7960   39.4680 C   0  0  0  0  0  0  0  0  0  0  0  0
   37.0610   30.4760   38.3820 C   0  0  0  0  0  0  0  0  0  0  0  0
   38.1990   31.1740   38.5840 N   0  0  0  0  0  0  0  0  0  0  0  0
   38.7950   31.2350   39.7930 C   0  0  0  0  0  0  0  0  0  0  0  0
   38.2750   30.5990   40.8480 N   0  0  0  0  0  0  0  0  0  0  0  0
   36.5630   30.4090   37.4310 H   0  0  0  0  0  0  0  0  0  0  0  0
   40.5730   32.6240   38.7520 C   0  0  0  0  0  3  0  0  0  0  0  0
   40.0200   32.0240   39.8790 C   0  0  0  0  0  0  0  0  0  0  0  0
   40.6380   32.1810   41.0910 C   0  0  0  0  0  0  0  0  0  0  0  0
   40.2330   31.7280   41.9880 H   0  0  0  0  0  0  0  0  0  0  0  0
   41.7960   32.9310   41.1560 C   0  0  0  0  0  0  0  0  0  0  0  0
   42.5530   33.2040   42.2520 N   0  0  0  0  0  0  0  0  0  0  0  0
   43.5670   33.9730   41.7670 C   0  0  0  0  0  0  0  0  0  0  0  0
   44.3230   34.3260   42.4700 H   0  0  0  0  0  0  0  0  0  0  0  0
   43.4330   34.1590   40.4440 N   0  0  0  0  0  0  0  0  0  0  0  0
   42.3270   33.5170   40.0250 C   0  0  0  0  0  0  0  0  0  0  0  0
   41.7380   33.3860   38.7850 C   0  0  0  0  0  3  0  0  0  0  0  0
   42.3820   32.8870   43.2330 H   0  0  0  0  0  0  0  0  0  0  0  0
   35.2450   29.0040   39.3500 C   0  0  0  0  0  0  0  0  0  0  0  0
   34.6840   29.1950   38.0980 F   0  0  0  0  0  0  0  0  0  0  0  0
   35.5740   27.6580   39.4210 F   0  0  0  0  0  0  0  0  0  0  0  0
   34.3030   29.2830   40.2770 F   0  0  0  0  0  0  0  0  0  0  0  0
   36.5740   29.2240   41.7420 O   0  0  0  0  0  0  0  0  0  0  0  0
   37.1470   28.1780   42.4880 C   0  0  0  0  0  0  0  0  0  0  0  0
   36.1040   27.4750   43.0960 F   0  0  0  0  0  0  0  0  0  0  0  0
   37.9100   27.3900   41.6850 F   0  0  0  0  0  0  0  0  0  0  0  0
   37.8810   28.7070   43.5430 F   0  0  0  0  0  0  0  0  0  0  0  0
  1  6  1  0  0  0  0
  1 24  1  0  0  0  0
  2  1  2  0  0  0  0
  3  4  2  0  0  0  0
  3  2  1  0  0  0  0
  4  5  1  0  0  0  0
  5  9  1  0  0  0  0
  5  6  2  0  0  0  0
  7  3  1  0  0  0  0
  8 18  2  0  0  0  0
  8  9  1  0  0  0  0
  9 10  2  0  0  0  0
 10 12  1  0  0  0  0
 10 11  1  0  0  0  0
 12 13  1  0  0  0  0
 13 19  1  0  0  0  0
 14 13  1  0  0  0  0
 14 15  1  0  0  0  0
 16 14  2  0  0  0  0
 17 16  1  0  0  0  0
 17 12  2  0  0  0  0
 18 17  1  0  0  0  0
 20 22  1  0  0  0  0
 20  2  1  0  0  0  0
 20 23  1  0  0  0  0
 21 20  1  0  0  0  0
 24 25  1  0  0  0  0
 25 26  1  0  0  0  0
 25 28  1  0  0  0  0
 27 25  1  0  0  0  0
M  END
>  <minimizedAffinity>
-5.54151821

$$$$

 OpenBabel03252504123D

 28 30  0  0  0  0  0  0  0  0999 V2000
   38.4360   26.4370   40.9150 C   0  0  0  0  0  0  0  0  0  0  0  0
   38.8570   25.9520   42.1510 C   0  0  0  0  0  0  0  0  0  0  0  0
   39.3730   26.8780   43.0700 C   0  0  0  0  0  0  0  0  0  0  0  0
   39.4340   28.1790   42.7130 N   0  0  0  0  0  0  0  0  0  0  0  0
   39.0140   28.6080   41.5030 C   0  0  0  0  0  0  0  0  0  0  0  0
   38.5180   27.7520   40.6050 N   0  0  0  0  0  0  0  0  0  0  0  0
   39.6990   26.5060   44.0250 H   0  0  0  0  0  0  0  0  0  0  0  0
   40.3440   30.7050   41.4050 C   0  0  0  0  0  3  0  0  0  0  0  0
   39.1330   30.0390   41.2400 C   0  0  0  0  0  0  0  0  0  0  0  0
   38.0350   30.7420   40.8210 C   0  0  0  0  0  0  0  0  0  0  0  0
   37.0780   30.2530   40.6820 H   0  0  0  0  0  0  0  0  0  0  0  0
   38.1640   32.0950   40.5750 C   0  0  0  0  0  0  0  0  0  0  0  0
   37.2050   32.9620   40.1570 N   0  0  0  0  0  0  0  0  0  0  0  0
   37.8550   34.1560   40.0740 C   0  0  0  0  0  0  0  0  0  0  0  0
   37.2850   35.0280   39.7520 H   0  0  0  0  0  0  0  0  0  0  0  0
   39.1450   34.0210   40.4240 N   0  0  0  0  0  0  0  0  0  0  0  0
   39.3760   32.7350   40.7460 C   0  0  0  0  0  0  0  0  0  0  0  0
   40.5060   32.0670   41.1650 C   0  0  0  0  0  3  0  0  0  0  0  0
   36.2040   32.7450   39.9510 H   0  0  0  0  0  0  0  0  0  0  0  0
   38.7490   24.5070   42.4460 C   0  0  0  0  0  0  0  0  0  0  0  0
   39.3320   23.7740   41.4260 F   0  0  0  0  0  0  0  0  0  0  0  0
   39.4930   24.2370   43.5860 F   0  0  0  0  0  0  0  0  0  0  0  0
   37.4880   24.0550   42.6180 F   0  0  0  0  0  0  0  0  0  0  0  0
   37.9380   25.5330   40.0320 O   0  0  0  0  0  0  0  0  0  0  0  0
   36.6210   25.4640   39.5440 C   0  0  0  0  0  0  0  0  0  0  0  0
   35.9860   24.4050   40.1970 F   0  0  0  0  0  0  0  0  0  0  0  0
   35.9860   26.6500   39.7350 F   0  0  0  0  0  0  0  0  0  0  0  0
   36.6390   25.0960   38.2050 F   0  0  0  0  0  0  0  0  0  0  0  0
  1  2  1  0  0  0  0
  2 20  1  0  0  0  0
  2  3  2  0  0  0  0
  3  7  1  0  0  0  0
  4  3  1  0  0  0  0
  5  4  2  0  0  0  0
  6  1  2  0  0  0  0
  6  5  1  0  0  0  0
  9  8  1  0  0  0  0
  9  5  1  0  0  0  0
 10  9  2  0  0  0  0
 11 10  1  0  0  0  0
 12 17  2  0  0  0  0
 12 10  1  0  0  0  0
 13 12  1  0  0  0  0
 14 13  1  0  0  0  0
 14 16  2  0  0  0  0
 15 14  1  0  0  0  0
 16 17  1  0  0  0  0
 17 18  1  0  0  0  0
 18  8  2  0  0  0  0
 19 13  1  0  0  0  0
 20 23  1  0  0  0  0
 20 22  1  0  0  0  0
 21 20  1  0  0  0  0
 24  1  1  0  0  0  0
 25 27  1  0  0  0  0
 25 24  1  0  0  0  0
 25 26  1  0  0  0  0
 28 25  1  0  0  0  0
M  END
>  <minimizedAffinity>
-5.45890999

$$$$

 OpenBabel03252504123D

 28 30  0  0  0  0  0  0  0  0999 V2000
   37.7830   29.1930   40.4950 C   0  0  0  0  0  0  0  0  0  0  0  0
   36.6600   29.5200   39.7400 C   0  0  0  0  0  0  0  0  0  0  0  0
   36.7500   30.6340   38.8920 C   0  0  0  0  0  0  0  0  0  0  0  0
   37.9100   31.3250   38.8520 N   0  0  0  0  0  0  0  0  0  0  0  0
   38.9770   30.9740   39.6010 C   0  0  0  0  0  0  0  0  0  0  0  0
   38.9240   29.9180   40.4200 N   0  0  0  0  0  0  0  0  0  0  0  0
   35.8840   30.8900   38.3080 H   0  0  0  0  0  0  0  0  0  0  0  0
   40.8960   32.2100   40.5830 C   0  0  0  0  0  3  0  0  0  0  0  0
   40.1710   31.8020   39.4670 C   0  0  0  0  0  0  0  0  0  0  0  0
   40.5900   32.1850   38.2210 C   0  0  0  0  0  0  0  0  0  0  0  0
   40.0490   31.8840   37.3320 H   0  0  0  0  0  0  0  0  0  0  0  0
   41.7220   32.9680   38.1110 C   0  0  0  0  0  0  0  0  0  0  0  0
   42.2970   33.4490   36.9770 N   0  0  0  0  0  0  0  0  0  0  0  0
   43.3750   34.1510   37.4260 C   0  0  0  0  0  0  0  0  0  0  0  0
   44.0090   34.6430   36.6880 H   0  0  0  0  0  0  0  0  0  0  0  0
   43.4500   34.0990   38.7660 N   0  0  0  0  0  0  0  0  0  0  0  0
   42.4260   33.3610   39.2320 C   0  0  0  0  0  0  0  0  0  0  0  0
   42.0410   32.9990   40.5050 C   0  0  0  0  0  3  0  0  0  0  0  0
   41.9740   33.3030   35.9940 H   0  0  0  0  0  0  0  0  0  0  0  0
   35.4350   28.7000   39.8550 C   0  0  0  0  0  0  0  0  0  0  0  0
   34.5260   29.0750   38.8800 F   0  0  0  0  0  0  0  0  0  0  0  0
   35.7650   27.3800   39.5850 F   0  0  0  0  0  0  0  0  0  0  0  0
   34.8150   28.7690   41.0530 F   0  0  0  0  0  0  0  0  0  0  0  0
   37.6860   28.1130   41.3130 O   0  0  0  0  0  0  0  0  0  0  0  0
   37.6020   28.1200   42.7170 C   0  0  0  0  0  0  0  0  0  0  0  0
   37.1970   29.3990   43.1070 F   0  0  0  0  0  0  0  0  0  0  0  0
   36.7510   27.1500   43.1430 F   0  0  0  0  0  0  0  0  0  0  0  0
   38.8720   27.9690   43.2600 F   0  0  0  0  0  0  0  0  0  0  0  0
  1 24  1  0  0  0  0
  2 20  1  0  0  0  0
  2  1  2  0  0  0  0
  3  2  1  0  0  0  0
  4  3  2  0  0  0  0
  4  5  1  0  0  0  0
  5  6  2  0  0  0  0
  6  1  1  0  0  0  0
  7  3  1  0  0  0  0
  9  5  1  0  0  0  0
  9  8  2  0  0  0  0
 10  9  1  0  0  0  0
 11 10  1  0  0  0  0
 12 10  2  0  0  0  0
 12 17  1  0  0  0  0
 13 14  1  0  0  0  0
 13 12  1  0  0  0  0
 14 16  2  0  0  0  0
 15 14  1  0  0  0  0
 16 17  1  0  0  0  0
 17 18  2  0  0  0  0
 18  8  1  0  0  0  0
 19 13  1  0  0  0  0
 20 23  1  0  0  0  0
 21 20  1  0  0  0  0
 22 20  1  0  0  0  0
 24 25  1  0  0  0  0
 25 26  1  0  0  0  0
 25 27  1  0  0  0  0
 25 28  1  0  0  0  0
M  END
>  <minimizedAffinity>
-5.45675945

$$$$

 OpenBabel03252504123D

 28 30  0  0  0  0  0  0  0  0999 V2000
   37.4270   27.0040   40.8330 C   0  0  0  0  0  0  0  0  0  0  0  0
   37.9430   28.0910   41.5340 C   0  0  0  0  0  0  0  0  0  0  0  0
   37.5390   29.3730   41.1310 C   0  0  0  0  0  0  0  0  0  0  0  0
   36.6790   29.4850   40.0950 N   0  0  0  0  0  0  0  0  0  0  0  0
   36.2010   28.4040   39.4430 C   0  0  0  0  0  0  0  0  0  0  0  0
   36.5670   27.1690   39.8010 N   0  0  0  0  0  0  0  0  0  0  0  0
   37.9360   30.2150   41.6700 H   0  0  0  0  0  0  0  0  0  0  0  0
   35.7310   28.7550   37.0280 C   0  0  0  0  0  3  0  0  0  0  0  0
   35.2790   28.6610   38.3410 C   0  0  0  0  0  0  0  0  0  0  0  0
   33.9430   28.8090   38.6000 C   0  0  0  0  0  0  0  0  0  0  0  0
   33.5580   28.7410   39.6110 H   0  0  0  0  0  0  0  0  0  0  0  0
   33.0830   29.0510   37.5470 C   0  0  0  0  0  0  0  0  0  0  0  0
   31.7360   29.2270   37.5930 N   0  0  0  0  0  0  0  0  0  0  0  0
   31.3860   29.4280   36.2920 C   0  0  0  0  0  0  0  0  0  0  0  0
   30.3330   29.5970   36.0650 H   0  0  0  0  0  0  0  0  0  0  0  0
   32.4670   29.3780   35.4950 N   0  0  0  0  0  0  0  0  0  0  0  0
   33.5540   29.1400   36.2520 C   0  0  0  0  0  0  0  0  0  0  0  0
   34.8900   28.9970   35.9450 C   0  0  0  0  0  3  0  0  0  0  0  0
   31.1250   29.2080   38.4400 H   0  0  0  0  0  0  0  0  0  0  0  0
   38.8790   27.8630   42.6540 C   0  0  0  0  0  0  0  0  0  0  0  0
   40.0140   27.2160   42.1940 F   0  0  0  0  0  0  0  0  0  0  0  0
   39.3060   29.0960   43.1260 F   0  0  0  0  0  0  0  0  0  0  0  0
   38.3740   27.1430   43.6800 F   0  0  0  0  0  0  0  0  0  0  0  0
   37.8230   25.7670   41.2300 O   0  0  0  0  0  0  0  0  0  0  0  0
   37.0350   24.7890   41.8620 C   0  0  0  0  0  0  0  0  0  0  0  0
   36.2420   25.4380   42.8120 F   0  0  0  0  0  0  0  0  0  0  0  0
   36.2990   24.1110   40.9430 F   0  0  0  0  0  0  0  0  0  0  0  0
   37.8500   23.9390   42.6000 F   0  0  0  0  0  0  0  0  0  0  0  0
  1 24  1  0  0  0  0
  1  2  1  0  0  0  0
  2 20  1  0  0  0  0
  3  2  2  0  0  0  0
  3  7  1  0  0  0  0
  4  3  1  0  0  0  0
  5  6  1  0  0  0  0
  5  4  2  0  0  0  0
  6  1  2  0  0  0  0
  8  9  1  0  0  0  0
  9 10  2  0  0  0  0
  9  5  1  0  0  0  0
 10 11  1  0  0  0  0
 12 13  1  0  0  0  0
 12 10  1  0  0  0  0
 13 19  1  0  0  0  0
 14 13  1  0  0  0  0
 15 14  1  0  0  0  0
 16 17  1  0  0  0  0
 16 14  2  0  0  0  0
 17 12  2  0  0  0  0
 18 17  1  0  0  0  0
 18  8  2  0  0  0  0
 20 22  1  0  0  0  0
 20 23  1  0  0  0  0
 21 20  1  0  0  0  0
 24 25  1  0  0  0  0
 25 28  1  0  0  0  0
 25 26  1  0  0  0  0
 27 25  1  0  0  0  0
M  END
>  <minimizedAffinity>
-5.4246521

$$$$

 OpenBabel03252504123D

 28 30  0  0  0  0  0  0  0  0999 V2000
   37.5530   28.6640   40.7780 C   0  0  0  0  0  0  0  0  0  0  0  0
   38.0110   29.9520   41.0470 C   0  0  0  0  0  0  0  0  0  0  0  0
   37.5540   30.9880   40.2190 C   0  0  0  0  0  0  0  0  0  0  0  0
   36.7030   30.6880   39.2150 N   0  0  0  0  0  0  0  0  0  0  0  0
   36.2830   29.4250   38.9880 C   0  0  0  0  0  0  0  0  0  0  0  0
   36.7000   28.4140   39.7570 N   0  0  0  0  0  0  0  0  0  0  0  0
   37.9050   31.9840   40.4250 H   0  0  0  0  0  0  0  0  0  0  0  0
   35.8000   29.3310   36.5520 C   0  0  0  0  0  3  0  0  0  0  0  0
   35.3640   29.2320   37.8700 C   0  0  0  0  0  0  0  0  0  0  0  0
   34.0490   28.9460   38.1200 C   0  0  0  0  0  0  0  0  0  0  0  0
   33.6780   28.8610   39.1350 H   0  0  0  0  0  0  0  0  0  0  0  0
   33.1920   28.7660   37.0520 C   0  0  0  0  0  0  0  0  0  0  0  0
   31.8640   28.4790   37.0870 N   0  0  0  0  0  0  0  0  0  0  0  0
   31.5080   28.4070   35.7740 C   0  0  0  0  0  0  0  0  0  0  0  0
   30.4670   28.1840   35.5370 H   0  0  0  0  0  0  0  0  0  0  0  0
   32.5670   28.6400   34.9810 N   0  0  0  0  0  0  0  0  0  0  0  0
   33.6460   28.8690   35.7530 C   0  0  0  0  0  0  0  0  0  0  0  0
   34.9610   29.1540   35.4540 C   0  0  0  0  0  3  0  0  0  0  0  0
   31.2680   28.3460   37.9360 H   0  0  0  0  0  0  0  0  0  0  0  0
   38.9420   30.1780   42.1720 C   0  0  0  0  0  0  0  0  0  0  0  0
   40.1020   29.4480   41.9750 F   0  0  0  0  0  0  0  0  0  0  0  0
   39.3240   31.5120   42.1630 F   0  0  0  0  0  0  0  0  0  0  0  0
   38.4510   29.8620   43.3900 F   0  0  0  0  0  0  0  0  0  0  0  0
   38.0010   27.6670   41.5840 O   0  0  0  0  0  0  0  0  0  0  0  0
   37.2760   27.0030   42.5900 C   0  0  0  0  0  0  0  0  0  0  0  0
   36.7960   25.8100   42.0430 F   0  0  0  0  0  0  0  0  0  0  0  0
   38.0610   26.7990   43.6800 F   0  0  0  0  0  0  0  0  0  0  0  0
   36.1360   27.7340   42.9030 F   0  0  0  0  0  0  0  0  0  0  0  0
  1  2  1  0  0  0  0
  1 24  1  0  0  0  0
  2 20  1  0  0  0  0
  3  7  1  0  0  0  0
  3  2  2  0  0  0  0
  4  3  1  0  0  0  0
  5  4  2  0  0  0  0
  5  6  1  0  0  0  0
  6  1  2  0  0  0  0
  8  9  1  0  0  0  0
  9 10  2  0  0  0  0
  9  5  1  0  0  0  0
 10 11  1  0  0  0  0
 12 13  1  0  0  0  0
 12 10  1  0  0  0  0
 13 19  1  0  0  0  0
 14 13  1  0  0  0  0
 15 14  1  0  0  0  0
 16 17  1  0  0  0  0
 16 14  2  0  0  0  0
 17 12  2  0  0  0  0
 18 17  1  0  0  0  0
 18  8  2  0  0  0  0
 20 23  1  0  0  0  0
 21 20  1  0  0  0  0
 22 20  1  0  0  0  0
 24 25  1  0  0  0  0
 25 28  1  0  0  0  0
 25 27  1  0  0  0  0
 26 25  1  0  0  0  0
M  END
>  <minimizedAffinity>
-5.35522842

$$$$

 OpenBabel03252504123D

 28 30  0  0  0  0  0  0  0  0999 V2000
   37.4120   26.1690   40.9700 C   0  0  0  0  0  0  0  0  0  0  0  0
   38.4430   25.7740   41.8190 C   0  0  0  0  0  0  0  0  0  0  0  0
   39.3110   26.7700   42.2920 C   0  0  0  0  0  0  0  0  0  0  0  0
   39.1040   28.0470   41.9040 N   0  0  0  0  0  0  0  0  0  0  0  0
   38.0910   28.3870   41.0780 C   0  0  0  0  0  0  0  0  0  0  0  0
   37.2470   27.4630   40.6100 N   0  0  0  0  0  0  0  0  0  0  0  0
   40.1080   26.4680   42.9480 H   0  0  0  0  0  0  0  0  0  0  0  0
   36.9910   30.2540   39.8610 C   0  0  0  0  0  3  0  0  0  0  0  0
   37.9760   29.8010   40.7340 C   0  0  0  0  0  0  0  0  0  0  0  0
   38.8520   30.7020   41.2790 C   0  0  0  0  0  0  0  0  0  0  0  0
   39.6300   30.3830   41.9620 H   0  0  0  0  0  0  0  0  0  0  0  0
   38.7300   32.0360   40.9430 C   0  0  0  0  0  0  0  0  0  0  0  0
   39.4910   33.0770   41.3710 N   0  0  0  0  0  0  0  0  0  0  0  0
   38.9510   34.1600   40.7450 C   0  0  0  0  0  0  0  0  0  0  0  0
   39.3990   35.1360   40.9310 H   0  0  0  0  0  0  0  0  0  0  0  0
   37.9130   33.7940   39.9740 N   0  0  0  0  0  0  0  0  0  0  0  0
   37.7440   32.4630   40.0750 C   0  0  0  0  0  0  0  0  0  0  0  0
   36.8420   31.5910   39.5040 C   0  0  0  0  0  3  0  0  0  0  0  0
   40.3010   33.0390   42.0300 H   0  0  0  0  0  0  0  0  0  0  0  0
   38.5850   24.3490   42.1860 C   0  0  0  0  0  0  0  0  0  0  0  0
   39.4800   24.2220   43.2350 F   0  0  0  0  0  0  0  0  0  0  0  0
   37.3640   23.8960   42.6660 F   0  0  0  0  0  0  0  0  0  0  0  0
   38.9970   23.5430   41.1840 F   0  0  0  0  0  0  0  0  0  0  0  0
   36.5770   25.1980   40.5180 O   0  0  0  0  0  0  0  0  0  0  0  0
   36.4440   24.7470   39.1920 C   0  0  0  0  0  0  0  0  0  0  0  0
   36.0990   23.3940   39.2420 F   0  0  0  0  0  0  0  0  0  0  0  0
   35.5240   25.4960   38.5300 F   0  0  0  0  0  0  0  0  0  0  0  0
   37.6830   24.7750   38.5640 F   0  0  0  0  0  0  0  0  0  0  0  0
  1  2  1  0  0  0  0
  2 20  1  0  0  0  0
  2  3  2  0  0  0  0
  3  7  1  0  0  0  0
  4  3  1  0  0  0  0
  5  4  2  0  0  0  0
  6  1  2  0  0  0  0
  6  5  1  0  0  0  0
  8  9  1  0  0  0  0
  9  5  1  0  0  0  0
  9 10  2  0  0  0  0
 10 11  1  0  0  0  0
 12 10  1  0  0  0  0
 12 13  1  0  0  0  0
 13 19  1  0  0  0  0
 14 15  1  0  0  0  0
 14 13  1  0  0  0  0
 16 17  1  0  0  0  0
 16 14  2  0  0  0  0
 17 12  2  0  0  0  0
 18  8  2  0  0  0  0
 18 17  1  0  0  0  0
 20 22  1  0  0  0  0
 20 21  1  0  0  0  0
 23 20  1  0  0  0  0
 24  1  1  0  0  0  0
 25 26  1  0  0  0  0
 25 24  1  0  0  0  0
 27 25  1  0  0  0  0
 28 25  1  0  0  0  0
M  END
>  <minimizedAffinity>
-5.34932137

$$$$

 OpenBabel03252504123D

 28 30  0  0  0  0  0  0  0  0999 V2000
   39.2410   31.4330   40.1990 C   0  0  0  0  0  0  0  0  0  0  0  0
   40.3910   31.7830   40.9010 C   0  0  0  0  0  0  0  0  0  0  0  0
   40.8820   30.8630   41.8410 C   0  0  0  0  0  0  0  0  0  0  0  0
   40.2200   29.6990   42.0140 N   0  0  0  0  0  0  0  0  0  0  0  0
   39.1070   29.3990   41.3120 C   0  0  0  0  0  0  0  0  0  0  0  0
   38.6130   30.2530   40.4090 N   0  0  0  0  0  0  0  0  0  0  0  0
   41.7700   31.1300   42.3850 H   0  0  0  0  0  0  0  0  0  0  0  0
   37.4820   27.9830   42.5500 C   0  0  0  0  0  3  0  0  0  0  0  0
   38.4850   28.1090   41.5930 C   0  0  0  0  0  0  0  0  0  0  0  0
   38.8910   26.9990   40.9010 C   0  0  0  0  0  0  0  0  0  0  0  0
   39.6690   27.0620   40.1490 H   0  0  0  0  0  0  0  0  0  0  0  0
   38.2930   25.7850   41.1790 C   0  0  0  0  0  0  0  0  0  0  0  0
   38.5510   24.5780   40.6090 N   0  0  0  0  0  0  0  0  0  0  0  0
   37.6920   23.7280   41.2370 C   0  0  0  0  0  0  0  0  0  0  0  0
   37.7090   22.6770   40.9480 H   0  0  0  0  0  0  0  0  0  0  0  0
   36.9490   24.3860   42.1430 N   0  0  0  0  0  0  0  0  0  0  0  0
   37.3000   25.6850   42.1330 C   0  0  0  0  0  0  0  0  0  0  0  0
   36.8590   26.7750   42.8520 C   0  0  0  0  0  3  0  0  0  0  0  0
   39.2510   24.3690   39.8620 H   0  0  0  0  0  0  0  0  0  0  0  0
   41.0430   33.0830   40.6390 C   0  0  0  0  0  0  0  0  0  0  0  0
   42.1150   33.2530   41.5000 F   0  0  0  0  0  0  0  0  0  0  0  0
   41.5800   33.0540   39.3600 F   0  0  0  0  0  0  0  0  0  0  0  0
   40.2350   34.1590   40.7590 F   0  0  0  0  0  0  0  0  0  0  0  0
   38.7730   32.3290   39.2920 O   0  0  0  0  0  0  0  0  0  0  0  0
   37.4660   32.8390   39.2030 C   0  0  0  0  0  0  0  0  0  0  0  0
   37.5000   34.1610   39.6550 F   0  0  0  0  0  0  0  0  0  0  0  0
   37.0050   32.7350   37.9290 F   0  0  0  0  0  0  0  0  0  0  0  0
   36.6450   32.1760   40.1060 F   0  0  0  0  0  0  0  0  0  0  0  0
  1  6  2  0  0  0  0
  1  2  1  0  0  0  0
  2  3  2  0  0  0  0
  3  4  1  0  0  0  0
  3  7  1  0  0  0  0
  5  9  1  0  0  0  0
  5  4  2  0  0  0  0
  6  5  1  0  0  0  0
  8 18  1  0  0  0  0
  9  8  2  0  0  0  0
 10 12  2  0  0  0  0
 10  9  1  0  0  0  0
 11 10  1  0  0  0  0
 12 17  1  0  0  0  0
 13 12  1  0  0  0  0
 13 14  1  0  0  0  0
 14 16  2  0  0  0  0
 15 14  1  0  0  0  0
 17 16  1  0  0  0  0
 17 18  2  0  0  0  0
 19 13  1  0  0  0  0
 20 23  1  0  0  0  0
 20  2  1  0  0  0  0
 20 21  1  0  0  0  0
 22 20  1  0  0  0  0
 24  1  1  0  0  0  0
 25 24  1  0  0  0  0
 25 26  1  0  0  0  0
 25 28  1  0  0  0  0
 27 25  1  0  0  0  0
M  END
>  <minimizedAffinity>
-5.28283453

$$$$

 OpenBabel03252504123D

 28 30  0  0  0  0  0  0  0  0999 V2000
   37.1810   27.7880   40.9290 C   0  0  0  0  0  0  0  0  0  0  0  0
   37.8950   28.8300   41.5140 C   0  0  0  0  0  0  0  0  0  0  0  0
   38.3040   29.8840   40.6810 C   0  0  0  0  0  0  0  0  0  0  0  0
   37.9860   29.8330   39.3700 N   0  0  0  0  0  0  0  0  0  0  0  0
   37.2910   28.8030   38.8430 C   0  0  0  0  0  0  0  0  0  0  0  0
   36.8870   27.7840   39.6080 N   0  0  0  0  0  0  0  0  0  0  0  0
   38.8560   30.6900   41.1300 H   0  0  0  0  0  0  0  0  0  0  0  0
   36.7190   27.7190   36.6810 C   0  0  0  0  0  3  0  0  0  0  0  0
   37.0120   28.8670   37.4110 C   0  0  0  0  0  0  0  0  0  0  0  0
   37.0360   30.0780   36.7730 C   0  0  0  0  0  0  0  0  0  0  0  0
   37.2600   30.9900   37.3120 H   0  0  0  0  0  0  0  0  0  0  0  0
   36.7700   30.1220   35.4180 C   0  0  0  0  0  0  0  0  0  0  0  0
   36.7450   31.2130   34.6080 N   0  0  0  0  0  0  0  0  0  0  0  0
   36.4340   30.7050   33.3830 C   0  0  0  0  0  0  0  0  0  0  0  0
   36.3540   31.4000   32.5460 H   0  0  0  0  0  0  0  0  0  0  0  0
   36.2780   29.3720   33.4460 N   0  0  0  0  0  0  0  0  0  0  0  0
   36.4820   28.9700   34.7130 C   0  0  0  0  0  0  0  0  0  0  0  0
   36.4460   27.7300   35.3150 C   0  0  0  0  0  3  0  0  0  0  0  0
   36.9250   32.2060   34.8790 H   0  0  0  0  0  0  0  0  0  0  0  0
   38.1940   28.7940   42.9610 C   0  0  0  0  0  0  0  0  0  0  0  0
   38.8270   29.9650   43.3400 F   0  0  0  0  0  0  0  0  0  0  0  0
   36.9930   28.7650   43.6550 F   0  0  0  0  0  0  0  0  0  0  0  0
   38.9620   27.7560   43.3570 F   0  0  0  0  0  0  0  0  0  0  0  0
   36.7890   26.7740   41.7430 O   0  0  0  0  0  0  0  0  0  0  0  0
   37.1410   25.4160   41.6320 C   0  0  0  0  0  0  0  0  0  0  0  0
   36.6500   24.7620   42.7640 F   0  0  0  0  0  0  0  0  0  0  0  0
   36.6520   24.8970   40.4750 F   0  0  0  0  0  0  0  0  0  0  0  0
   38.5220   25.2850   41.7160 F   0  0  0  0  0  0  0  0  0  0  0  0
  1  2  1  0  0  0  0
  1 24  1  0  0  0  0
  2 20  1  0  0  0  0
  3  7  1  0  0  0  0
  3  2  2  0  0  0  0
  4  3  1  0  0  0  0
  5  4  2  0  0  0  0
  5  6  1  0  0  0  0
  6  1  2  0  0  0  0
  8  9  1  0  0  0  0
  9  5  1  0  0  0  0
 10 11  1  0  0  0  0
 10  9  2  0  0  0  0
 12 10  1  0  0  0  0
 13 19  1  0  0  0  0
 13 12  1  0  0  0  0
 14 16  2  0  0  0  0
 14 13  1  0  0  0  0
 15 14  1  0  0  0  0
 16 17  1  0  0  0  0
 17 18  1  0  0  0  0
 17 12  2  0  0  0  0
 18  8  2  0  0  0  0
 20 21  1  0  0  0  0
 20 23  1  0  0  0  0
 20 22  1  0  0  0  0
 25 28  1  0  0  0  0
 25 24  1  0  0  0  0
 25 26  1  0  0  0  0
 27 25  1  0  0  0  0
M  END
>  <minimizedAffinity>
-5.26369572

$$$$
