
 OpenBabel03252509113D

 34 38  0  0  0  0  0  0  0  0999 V2000
   48.2130   30.3110   44.8530 C   0  0  0  0  0  0  0  0  0  0  0  0
   47.7250   31.3220   44.0500 C   0  0  0  0  0  0  0  0  0  0  0  0
   46.7990   32.2400   44.5060 C   0  0  0  0  0  0  0  0  0  0  0  0
   46.3200   32.1710   45.8070 C   0  0  0  0  0  0  0  0  0  0  0  0
   45.4340   32.8860   46.5560 N   0  0  0  0  0  0  0  0  0  0  0  0
   45.3870   32.3080   47.8040 C   0  0  0  0  0  0  0  0  0  0  0  0
   46.2470   31.2470   47.7950 N   0  0  0  0  0  0  0  0  0  0  0  0
   46.8320   31.1390   46.5830 C   0  0  0  0  0  0  0  0  0  0  0  0
   47.7510   30.2140   46.1670 C   0  0  0  0  0  0  0  0  0  0  0  0
   48.9320   29.6350   44.4290 H   0  0  0  0  0  0  0  0  0  0  0  0
   44.9040   33.7220   46.2010 H   0  0  0  0  0  0  0  0  0  0  0  0
   44.7730   32.6490   48.6250 H   0  0  0  0  0  0  0  0  0  0  0  0
   48.1180   29.4310   46.8060 H   0  0  0  0  0  0  0  0  0  0  0  0
   46.6890   34.6020   43.4570 C   0  0  0  0  0  3  0  0  0  0  0  0
   46.2150   33.3370   43.7380 C   0  0  0  0  0  0  0  0  0  0  0  0
   44.9560   32.9650   43.2460 C   0  0  0  0  0  0  0  0  0  0  0  0
   44.4570   32.0050   43.3880 H   0  0  0  0  0  0  0  0  0  0  0  0
   44.1890   33.8330   42.4920 C   0  0  0  0  0  0  0  0  0  0  0  0
   42.9790   33.7850   41.8920 N   0  0  0  0  0  0  0  0  0  0  0  0
   42.7050   34.9590   41.2640 C   0  0  0  0  0  0  0  0  0  0  0  0
   41.7720   35.1100   40.7230 H   0  0  0  0  0  0  0  0  0  0  0  0
   43.7690   35.7510   41.4820 N   0  0  0  0  0  0  0  0  0  0  0  0
   44.6790   35.0970   42.2210 C   0  0  0  0  0  0  0  0  0  0  0  0
   45.9010   35.4450   42.7040 C   0  0  0  0  0  3  0  0  0  0  0  0
   42.3440   32.9400   41.9150 H   0  0  0  0  0  0  0  0  0  0  0  0
   48.0060   30.9950   40.3990 C   0  0  0  0  0  0  0  0  0  0  0  0
   49.1310   31.7650   40.1020 C   0  0  0  0  0  0  0  0  0  0  0  0
   49.7870   32.3940   41.1700 C   0  0  0  0  0  0  0  0  0  0  0  0
   49.2860   32.2150   42.4280 N   0  0  0  0  0  0  0  0  0  0  0  0
   48.1880   31.4590   42.6790 C   0  0  0  0  0  0  0  0  0  0  0  0
   47.5640   30.8610   41.6710 N   0  0  0  0  0  0  0  0  0  0  0  0
   47.4800   30.4960   39.5680 H   0  0  0  0  0  0  0  0  0  0  0  0
   49.5080   31.8920   39.1150 H   0  0  0  0  0  0  0  0  0  0  0  0
   50.6710   33.0130   41.0500 H   0  0  0  0  0  0  0  0  0  0  0  0
  1  9  1  0  0  0  0
  2  3  1  0  0  0  0
  2  1  2  0  0  0  0
  3  4  2  0  0  0  0
  4  5  1  0  0  0  0
  4  8  1  0  0  0  0
  5  6  1  0  0  0  0
  6 12  1  0  0  0  0
  7  6  2  0  0  0  0
  8  7  1  0  0  0  0
  9  8  2  0  0  0  0
  9 13  1  0  0  0  0
 10  1  1  0  0  0  0
 11  5  1  0  0  0  0
 14 15  1  0  0  0  0
 15  3  1  0  0  0  0
 16 17  1  0  0  0  0
 16 15  2  0  0  0  0
 18 16  1  0  0  0  0
 19 25  1  0  0  0  0
 19 18  1  0  0  0  0
 20 22  2  0  0  0  0
 20 19  1  0  0  0  0
 21 20  1  0  0  0  0
 22 23  1  0  0  0  0
 23 18  2  0  0  0  0
 23 24  1  0  0  0  0
 24 14  2  0  0  0  0
 26 31  1  0  0  0  0
 27 26  2  0  0  0  0
 27 28  1  0  0  0  0
 28 29  2  0  0  0  0
 29 30  1  0  0  0  0
 30  2  1  0  0  0  0
 31 30  2  0  0  0  0
 32 26  1  0  0  0  0
 33 27  1  0  0  0  0
 34 28  1  0  0  0  0
M  END
>  <minimizedAffinity>
-5.61622

>  <minimizedRMSD>
3.64102364

$$$$
