
 OpenBabel03252508173D

 50 55  0  0  1  0  0  0  0  0999 V2000
   46.7580   31.6080   48.2900 C   0  0  1  0  0  0  0  0  0  0  0  0
   46.3100   30.5620   49.2530 C   0  0  0  0  0  0  0  0  0  0  0  0
   47.5800   31.2440   49.4610 C   0  0  1  0  0  0  0  0  0  0  0  0
   46.0120   32.4550   48.2950 H   0  0  0  0  0  0  0  0  0  0  0  0
   46.3860   29.4850   48.9520 H   0  0  0  0  0  0  0  0  0  0  0  0
   45.4770   30.7230   49.9640 H   0  0  0  0  0  0  0  0  0  0  0  0
   47.6010   31.9930   50.2800 H   0  0  0  0  0  0  0  0  0  0  0  0
   48.8990   30.5790   49.2160 C   0  0  2  0  0  0  0  0  0  0  0  0
   49.6220   30.1610   50.5210 C   0  0  0  0  0  0  0  0  0  0  0  0
   50.1460   31.2900   49.7330 C   0  0  1  0  0  0  0  0  0  0  0  0
   49.0200   29.7940   48.4580 H   0  0  0  0  0  0  0  0  0  0  0  0
   49.1360   30.4040   51.4860 H   0  0  0  0  0  0  0  0  0  0  0  0
   50.2120   29.2510   50.5560 H   0  0  0  0  0  0  0  0  0  0  0  0
   49.9760   32.3140   50.1330 H   0  0  0  0  0  0  0  0  0  0  0  0
   52.4720   32.0020   49.1850 C   0  0  0  0  0  3  0  0  0  0  0  0
   51.4290   31.1090   49.0480 C   0  0  0  0  0  0  0  0  0  0  0  0
   51.6700   30.0140   48.2140 C   0  0  0  0  0  0  0  0  0  0  0  0
   50.8270   29.3110   48.1150 H   0  0  0  0  0  0  0  0  0  0  0  0
   52.8480   29.7820   47.5420 C   0  0  0  0  0  0  0  0  0  0  0  0
   53.2090   28.7740   46.7130 N   0  0  0  0  0  0  0  0  0  0  0  0
   54.4590   29.0560   46.3530 C   0  0  0  0  0  0  0  0  0  0  0  0
   55.0270   28.4340   45.6890 H   0  0  0  0  0  0  0  0  0  0  0  0
   54.8840   30.2140   46.9360 N   0  0  0  0  0  0  0  0  0  0  0  0
   53.8780   30.6870   47.6930 C   0  0  0  0  0  0  0  0  0  0  0  0
   53.6670   31.7840   48.5160 C   0  0  0  0  0  3  0  0  0  0  0  0
   52.6320   27.9430   46.4130 H   0  0  0  0  0  0  0  0  0  0  0  0
   47.1160   31.1040   46.9390 C   0  0  0  0  0  0  0  0  0  0  0  0
   48.0970   30.7060   46.7710 H   0  0  0  0  0  0  0  0  0  0  0  0
   46.3750   30.2860   46.6970 H   0  0  0  0  0  0  0  0  0  0  0  0
   46.0250   33.0540   46.1950 C   0  0  0  0  0  3  0  0  0  0  0  0
   46.8670   32.1590   45.8880 C   0  0  0  0  0  3  0  0  0  0  0  0
   44.5310   35.9460   44.4630 C   0  0  0  0  0  0  0  0  0  0  0  0
   45.1830   35.9520   43.2440 C   0  0  0  0  0  0  0  0  0  0  0  0
   46.1110   34.9700   43.0430 C   0  0  0  0  0  0  0  0  0  0  0  0
   46.3450   34.0540   44.0270 N   0  0  0  0  0  0  0  0  0  0  0  0
   45.6930   34.0780   45.2000 C   0  0  0  0  0  0  0  0  0  0  0  0
   44.7950   35.0320   45.3890 N   0  0  0  0  0  0  0  0  0  0  0  0
   43.7930   36.7350   44.6100 H   0  0  0  0  0  0  0  0  0  0  0  0
   45.0320   36.6450   42.4520 H   0  0  0  0  0  0  0  0  0  0  0  0
   46.8760   34.8470   41.8110 C   0  0  0  0  0  0  0  0  0  0  0  0
   48.0810   35.4470   41.5870 C   0  0  0  0  0  0  0  0  0  0  0  0
   48.7980   35.3230   40.4120 C   0  0  0  0  0  0  0  0  0  0  0  0
   48.2970   34.5550   39.3870 C   0  0  0  0  0  0  0  0  0  0  0  0
   47.0910   33.9300   39.5580 C   0  0  0  0  0  0  0  0  0  0  0  0
   46.4260   34.0930   40.7530 C   0  0  0  0  0  0  0  0  0  0  0  0
   48.5190   36.0710   42.3820 H   0  0  0  0  0  0  0  0  0  0  0  0
   49.7500   35.8180   40.2790 H   0  0  0  0  0  0  0  0  0  0  0  0
   48.8150   34.4240   38.4480 H   0  0  0  0  0  0  0  0  0  0  0  0
   46.6840   33.3180   38.7520 H   0  0  0  0  0  0  0  0  0  0  0  0
   45.4660   33.5580   40.8080 H   0  0  0  0  0  0  0  0  0  0  0  0
  1  4  1  1  0  0  0
  1  2  1  0  0  0  0
  1  3  1  0  0  0  0
  2  3  1  0  0  0  0
  2  6  1  0  0  0  0
  3  7  1  1  0  0  0
  5  2  1  0  0  0  0
  8 11  1  6  0  0  0
  8  3  1  0  0  0  0
  8 10  1  0  0  0  0
  8  9  1  0  0  0  0
  9 13  1  0  0  0  0
  9 12  1  0  0  0  0
 10 14  1  1  0  0  0
 10  9  1  0  0  0  0
 16 15  1  0  0  0  0
 16 10  1  0  0  0  0
 17 16  2  0  0  0  0
 18 17  1  0  0  0  0
 19 24  2  0  0  0  0
 19 17  1  0  0  0  0
 20 19  1  0  0  0  0
 21 20  1  0  0  0  0
 21 23  2  0  0  0  0
 22 21  1  0  0  0  0
 23 24  1  0  0  0  0
 24 25  1  0  0  0  0
 25 15  2  0  0  0  0
 26 20  1  0  0  0  0
 27  1  1  0  0  0  0
 28 27  1  0  0  0  0
 29 27  1  0  0  0  0
 31 30  2  0  0  0  0
 31 27  1  0  0  0  0
 32 38  1  0  0  0  0
 32 37  1  0  0  0  0
 33 32  2  0  0  0  0
 34 33  1  0  0  0  0
 34 35  2  0  0  0  0
 35 36  1  0  0  0  0
 36 37  2  0  0  0  0
 36 30  1  0  0  0  0
 39 33  1  0  0  0  0
 40 34  1  0  0  0  0
 41 40  1  0  0  0  0
 41 46  1  0  0  0  0
 42 41  2  0  0  0  0
 43 44  2  0  0  0  0
 43 42  1  0  0  0  0
 44 45  1  0  0  0  0
 45 50  1  0  0  0  0
 45 40  2  0  0  0  0
 47 42  1  0  0  0  0
 48 43  1  0  0  0  0
 49 44  1  0  0  0  0
M  END
>  <minimizedAffinity>
-6.75542402

>  <minimizedRMSD>
1.13016486

$$$$
