
 OpenBabel03252501373D

 38 41  0  0  0  0  0  0  0  0999 V2000
   43.2030   32.2820   39.4890 Cl  0  0  0  0  0  0  0  0  0  0  0  0
   42.0680   33.5420   39.9470 C   0  0  0  0  0  0  0  0  0  0  0  0
   42.4780   34.7310   40.5330 C   0  0  0  0  0  0  0  0  0  0  0  0
   41.5510   35.6750   40.8690 C   0  0  0  0  0  0  0  0  0  0  0  0
   40.2040   35.5230   40.6600 C   0  0  0  0  0  0  0  0  0  0  0  0
   39.7670   34.3440   40.0760 C   0  0  0  0  0  0  0  0  0  0  0  0
   38.0580   34.0500   39.7650 Cl  0  0  0  0  0  0  0  0  0  0  0  0
   40.7040   33.4020   39.7420 C   0  0  0  0  0  0  0  0  0  0  0  0
   41.8920   36.6000   41.3270 H   0  0  0  0  0  0  0  0  0  0  0  0
   39.4720   36.2940   40.9370 H   0  0  0  0  0  0  0  0  0  0  0  0
   40.0760   31.1820   40.1060 C   0  0  0  0  0  0  0  0  0  0  0  0
   40.2940   32.1300   39.1180 C   0  0  0  0  0  0  0  0  0  0  0  0
   40.1250   31.8160   37.7960 C   0  0  0  0  0  0  0  0  0  0  0  0
   40.3290   32.6440   37.1480 H   0  0  0  0  0  0  0  0  0  0  0  0
   39.7300   30.5360   37.4730 C   0  0  0  0  0  0  0  0  0  0  0  0
   39.5140   30.0450   36.2460 N   0  0  0  0  0  0  0  0  0  0  0  0
   39.1480   28.7530   36.4480 C   0  0  0  0  0  0  0  0  0  0  0  0
   38.8840   27.9950   35.7490 H   0  0  0  0  0  0  0  0  0  0  0  0
   39.1370   28.4480   37.7760 N   0  0  0  0  0  0  0  0  0  0  0  0
   39.5060   29.5750   38.4370 C   0  0  0  0  0  0  0  0  0  0  0  0
   39.6750   29.8860   39.7670 C   0  0  0  0  0  0  0  0  0  0  0  0
   39.5970   30.5150   35.3200 H   0  0  0  0  0  0  0  0  0  0  0  0
   43.8530   34.8700   40.7380 O   0  0  0  0  0  0  0  0  0  0  0  0
   44.4050   34.4020   41.9430 C   0  0  0  0  0  0  0  0  0  0  0  0
   44.0620   33.3210   42.5480 O   0  0  0  0  0  0  0  0  0  0  0  0
   45.4300   35.1100   42.6230 N   0  0  0  0  0  0  0  0  0  0  0  0
   45.8020   35.9990   42.2400 H   0  0  0  0  0  0  0  0  0  0  0  0
   45.7880   34.3830   43.8260 C   0  0  0  0  0  0  0  0  0  0  0  0
   45.1680   34.5640   45.0450 C   0  0  0  0  0  0  0  0  0  0  0  0
   45.6480   33.7780   46.0800 C   0  0  0  0  0  0  0  0  0  0  0  0
   46.6470   32.9240   45.8370 N   0  0  0  0  0  0  0  0  0  0  0  0
   47.2230   32.7840   44.6240 C   0  0  0  0  0  0  0  0  0  0  0  0
   46.7850   33.5310   43.5830 N   0  0  0  0  0  0  0  0  0  0  0  0
   45.1680   33.9110   47.0460 H   0  0  0  0  0  0  0  0  0  0  0  0
   48.0300   32.0660   44.5140 H   0  0  0  0  0  0  0  0  0  0  0  0
   44.1350   35.5050   45.1160 N   0  0  0  0  0  0  0  0  0  0  0  0
   44.3020   36.4420   44.6460 H   0  0  0  0  0  0  0  0  0  0  0  0
   43.2030   35.4740   45.5520 H   0  0  0  0  0  0  0  0  0  0  0  0
  1  2  1  0  0  0  0
  2  3  1  0  0  0  0
  3 23  1  0  0  0  0
  3  4  2  0  0  0  0
  4  9  1  0  0  0  0
  5  4  1  0  0  0  0
  5 10  1  0  0  0  0
  6  5  2  0  0  0  0
  7  6  1  0  0  0  0
  8  2  2  0  0  0  0
  8  6  1  0  0  0  0
 12  8  1  0  0  0  0
 12 11  2  0  0  0  0
 13 12  1  0  0  0  0
 14 13  1  0  0  0  0
 15 13  2  0  0  0  0
 15 20  1  0  0  0  0
 16 17  1  0  0  0  0
 16 15  1  0  0  0  0
 17 19  2  0  0  0  0
 18 17  1  0  0  0  0
 19 20  1  0  0  0  0
 20 21  2  0  0  0  0
 21 11  1  0  0  0  0
 22 16  1  0  0  0  0
 23 24  1  0  0  0  0
 24 25  2  0  0  0  0
 24 26  1  0  0  0  0
 26 28  1  0  0  0  0
 27 26  1  0  0  0  0
 28 29  1  0  0  0  0
 29 36  1  0  0  0  0
 29 30  2  0  0  0  0
 30 34  1  0  0  0  0
 31 30  1  0  0  0  0
 32 31  2  0  0  0  0
 33 28  2  0  0  0  0
 33 32  1  0  0  0  0
 35 32  1  0  0  0  0
 36 38  1  0  0  0  0
 37 36  1  0  0  0  0
M  END
>  <minimizedAffinity>
-6.21647644

>  <minimizedRMSD>
1.65613902

$$$$
