
 OpenBabel03252508193D

 50 55  0  0  1  0  0  0  0  0999 V2000
   36.9070   24.9560   40.8580 C   0  0  1  0  0  0  0  0  0  0  0  0
   37.5090   24.2650   42.0340 C   0  0  0  0  0  0  0  0  0  0  0  0
   36.7630   25.5020   42.2220 C   0  0  1  0  0  0  0  0  0  0  0  0
   36.1480   24.2720   40.3800 H   0  0  0  0  0  0  0  0  0  0  0  0
   38.6150   24.3420   42.1960 H   0  0  0  0  0  0  0  0  0  0  0  0
   37.1080   23.3160   42.4380 H   0  0  0  0  0  0  0  0  0  0  0  0
   35.7530   25.3970   42.6730 H   0  0  0  0  0  0  0  0  0  0  0  0
   37.4320   26.8050   42.5340 C   0  0  2  0  0  0  0  0  0  0  0  0
   36.7180   27.6040   43.6540 C   0  0  0  0  0  0  0  0  0  0  0  0
   36.6380   28.0790   42.2620 C   0  0  1  0  0  0  0  0  0  0  0  0
   38.5190   26.8820   42.6590 H   0  0  0  0  0  0  0  0  0  0  0  0
   35.7960   27.1750   44.0920 H   0  0  0  0  0  0  0  0  0  0  0  0
   37.2920   28.1940   44.3590 H   0  0  0  0  0  0  0  0  0  0  0  0
   35.6750   27.9320   41.7270 H   0  0  0  0  0  0  0  0  0  0  0  0
   38.6470   29.5540   42.2910 C   0  0  0  0  0  3  0  0  0  0  0  0
   37.3400   29.3210   41.9220 C   0  0  0  0  0  0  0  0  0  0  0  0
   36.7150   30.3450   41.2030 C   0  0  0  0  0  0  0  0  0  0  0  0
   35.6720   30.1410   40.9170 H   0  0  0  0  0  0  0  0  0  0  0  0
   37.3130   31.5330   40.8510 C   0  0  0  0  0  0  0  0  0  0  0  0
   36.8300   32.5950   40.1640 N   0  0  0  0  0  0  0  0  0  0  0  0
   37.8390   33.4620   40.1180 C   0  0  0  0  0  0  0  0  0  0  0  0
   37.7640   34.4160   39.6330 H   0  0  0  0  0  0  0  0  0  0  0  0
   38.9360   32.9670   40.7590 N   0  0  0  0  0  0  0  0  0  0  0  0
   38.6210   31.7460   41.2290 C   0  0  0  0  0  0  0  0  0  0  0  0
   39.2650   30.7470   41.9450 C   0  0  0  0  0  3  0  0  0  0  0  0
   35.8670   32.7180   39.7510 H   0  0  0  0  0  0  0  0  0  0  0  0
   37.8870   25.5530   39.9140 C   0  0  0  0  0  0  0  0  0  0  0  0
   38.4730   26.3940   40.2280 H   0  0  0  0  0  0  0  0  0  0  0  0
   38.6070   24.7280   39.6360 H   0  0  0  0  0  0  0  0  0  0  0  0
   36.5340   26.9890   38.6280 C   0  0  0  0  0  3  0  0  0  0  0  0
   37.2200   25.9240   38.6110 C   0  0  0  0  0  3  0  0  0  0  0  0
   35.5160   27.4400   35.1130 C   0  0  0  0  0  0  0  0  0  0  0  0
   34.3450   28.1670   35.2170 C   0  0  0  0  0  0  0  0  0  0  0  0
   33.9360   28.4870   36.4800 C   0  0  0  0  0  0  0  0  0  0  0  0
   34.6790   28.0850   37.5510 N   0  0  0  0  0  0  0  0  0  0  0  0
   35.8130   27.3800   37.4130 C   0  0  0  0  0  0  0  0  0  0  0  0
   36.2050   27.0730   36.1870 N   0  0  0  0  0  0  0  0  0  0  0  0
   35.8320   27.1920   34.0990 H   0  0  0  0  0  0  0  0  0  0  0  0
   33.7360   28.4990   34.4120 H   0  0  0  0  0  0  0  0  0  0  0  0
   32.7240   29.2480   36.7490 C   0  0  0  0  0  0  0  0  0  0  0  0
   32.1660   29.4030   37.9850 C   0  0  0  0  0  0  0  0  0  0  0  0
   31.0150   30.1270   38.2270 C   0  0  0  0  0  0  0  0  0  0  0  0
   30.3670   30.7430   37.1820 C   0  0  0  0  0  0  0  0  0  0  0  0
   30.8820   30.6200   35.9190 C   0  0  0  0  0  0  0  0  0  0  0  0
   32.0330   29.8840   35.7450 C   0  0  0  0  0  0  0  0  0  0  0  0
   32.6540   28.9260   38.8500 H   0  0  0  0  0  0  0  0  0  0  0  0
   30.6090   30.2230   39.2240 H   0  0  0  0  0  0  0  0  0  0  0  0
   29.4630   31.3220   37.3140 H   0  0  0  0  0  0  0  0  0  0  0  0
   30.3760   31.1040   35.0830 H   0  0  0  0  0  0  0  0  0  0  0  0
   32.3800   29.8360   34.7020 H   0  0  0  0  0  0  0  0  0  0  0  0
  1  4  1  6  0  0  0
  1  2  1  0  0  0  0
  1  3  1  0  0  0  0
  2  5  1  0  0  0  0
  2  3  1  0  0  0  0
  2  6  1  0  0  0  0
  3  8  1  0  0  0  0
  3  7  1  1  0  0  0
  8 11  1  6  0  0  0
  8  9  1  0  0  0  0
  9 12  1  0  0  0  0
  9 13  1  0  0  0  0
 10 14  1  6  0  0  0
 10  8  1  0  0  0  0
 10  9  1  0  0  0  0
 16 10  1  0  0  0  0
 16 15  2  0  0  0  0
 17 16  1  0  0  0  0
 18 17  1  0  0  0  0
 19 17  2  0  0  0  0
 19 24  1  0  0  0  0
 20 19  1  0  0  0  0
 21 20  1  0  0  0  0
 21 23  2  0  0  0  0
 22 21  1  0  0  0  0
 23 24  1  0  0  0  0
 24 25  2  0  0  0  0
 25 15  1  0  0  0  0
 26 20  1  0  0  0  0
 27 28  1  0  0  0  0
 27  1  1  0  0  0  0
 29 27  1  0  0  0  0
 31 30  2  0  0  0  0
 31 27  1  0  0  0  0
 32 33  2  0  0  0  0
 32 37  1  0  0  0  0
 33 34  1  0  0  0  0
 34 40  1  0  0  0  0
 34 35  2  0  0  0  0
 36 35  1  0  0  0  0
 36 30  1  0  0  0  0
 37 36  2  0  0  0  0
 38 32  1  0  0  0  0
 39 33  1  0  0  0  0
 40 41  1  0  0  0  0
 41 42  2  0  0  0  0
 41 46  1  0  0  0  0
 42 47  1  0  0  0  0
 43 48  1  0  0  0  0
 43 42  1  0  0  0  0
 44 43  2  0  0  0  0
 45 44  1  0  0  0  0
 45 40  2  0  0  0  0
 49 44  1  0  0  0  0
 50 45  1  0  0  0  0
M  END
>  <minimizedAffinity>
-6.85497093

$$$$

 OpenBabel03252508193D

 50 55  0  0  1  0  0  0  0  0999 V2000
   40.8600   33.0910   40.7870 C   0  0  1  0  0  0  0  0  0  0  0  0
   41.0690   34.0540   39.6680 C   0  0  0  0  0  0  0  0  0  0  0  0
   39.7320   33.8470   40.2080 C   0  0  1  0  0  0  0  0  0  0  0  0
   41.4440   33.4400   41.6860 H   0  0  0  0  0  0  0  0  0  0  0  0
   41.2380   33.6520   38.6360 H   0  0  0  0  0  0  0  0  0  0  0  0
   41.5720   35.0300   39.8080 H   0  0  0  0  0  0  0  0  0  0  0  0
   39.3310   34.6660   40.8420 H   0  0  0  0  0  0  0  0  0  0  0  0
   38.6760   33.0840   39.4690 C   0  0  2  0  0  0  0  0  0  0  0  0
   37.3030   33.8020   39.4530 C   0  0  0  0  0  0  0  0  0  0  0  0
   37.4780   32.5920   40.2750 C   0  0  1  0  0  0  0  0  0  0  0  0
   38.8690   32.6310   38.4880 H   0  0  0  0  0  0  0  0  0  0  0  0
   37.2140   34.7660   39.9900 H   0  0  0  0  0  0  0  0  0  0  0  0
   36.6580   33.7350   38.5840 H   0  0  0  0  0  0  0  0  0  0  0  0
   37.5580   32.7300   41.3750 H   0  0  0  0  0  0  0  0  0  0  0  0
   36.0370   30.6150   40.7500 C   0  0  0  0  0  3  0  0  0  0  0  0
   36.7670   31.3780   39.8640 C   0  0  0  0  0  0  0  0  0  0  0  0
   36.7930   30.9220   38.5420 C   0  0  0  0  0  0  0  0  0  0  0  0
   37.3810   31.5430   37.8490 H   0  0  0  0  0  0  0  0  0  0  0  0
   36.1500   29.7940   38.0880 C   0  0  0  0  0  0  0  0  0  0  0  0
   36.0930   29.2470   36.8510 N   0  0  0  0  0  0  0  0  0  0  0  0
   35.3340   28.1620   36.9890 C   0  0  0  0  0  0  0  0  0  0  0  0
   35.1000   27.5080   36.1720 H   0  0  0  0  0  0  0  0  0  0  0  0
   34.9180   28.0210   38.2810 N   0  0  0  0  0  0  0  0  0  0  0  0
   35.4250   29.0450   38.9910 C   0  0  0  0  0  0  0  0  0  0  0  0
   35.3830   29.4740   40.3100 C   0  0  0  0  0  3  0  0  0  0  0  0
   36.5480   29.5960   35.9650 H   0  0  0  0  0  0  0  0  0  0  0  0
   41.0630   31.6630   40.4290 C   0  0  0  0  0  0  0  0  0  0  0  0
   40.8740   31.3420   39.4240 H   0  0  0  0  0  0  0  0  0  0  0  0
   42.1440   31.4270   40.6590 H   0  0  0  0  0  0  0  0  0  0  0  0
   39.7780   29.7280   40.8150 C   0  0  0  0  0  3  0  0  0  0  0  0
   40.2770   30.7610   41.3500 C   0  0  0  0  0  3  0  0  0  0  0  0
   37.8070   28.2870   43.5780 C   0  0  0  0  0  0  0  0  0  0  0  0
   37.3900   27.0720   43.0660 C   0  0  0  0  0  0  0  0  0  0  0  0
   37.7950   26.7760   41.7950 C   0  0  0  0  0  0  0  0  0  0  0  0
   38.5680   27.6660   41.1090 N   0  0  0  0  0  0  0  0  0  0  0  0
   38.9540   28.8380   41.6380 C   0  0  0  0  0  0  0  0  0  0  0  0
   38.5600   29.1200   42.8700 N   0  0  0  0  0  0  0  0  0  0  0  0
   37.4770   28.5120   44.5930 H   0  0  0  0  0  0  0  0  0  0  0  0
   36.7880   26.3520   43.5640 H   0  0  0  0  0  0  0  0  0  0  0  0
   37.4360   25.5350   41.1220 C   0  0  0  0  0  0  0  0  0  0  0  0
   37.8680   24.2980   41.5020 C   0  0  0  0  0  0  0  0  0  0  0  0
   37.5210   23.1270   40.8540 C   0  0  0  0  0  0  0  0  0  0  0  0
   36.6920   23.1760   39.7580 C   0  0  0  0  0  0  0  0  0  0  0  0
   36.2290   24.3930   39.3330 C   0  0  0  0  0  0  0  0  0  0  0  0
   36.6120   25.5220   40.0220 C   0  0  0  0  0  0  0  0  0  0  0  0
   38.5340   24.2130   42.3750 H   0  0  0  0  0  0  0  0  0  0  0  0
   37.8880   22.1680   41.1910 H   0  0  0  0  0  0  0  0  0  0  0  0
   36.3890   22.2930   39.2140 H   0  0  0  0  0  0  0  0  0  0  0  0
   35.5710   24.4440   38.4650 H   0  0  0  0  0  0  0  0  0  0  0  0
   36.1960   26.4570   39.6160 H   0  0  0  0  0  0  0  0  0  0  0  0
  1  4  1  1  0  0  0
  2  6  1  0  0  0  0
  2  3  1  0  0  0  0
  2  1  1  0  0  0  0
  3  1  1  0  0  0  0
  3  7  1  1  0  0  0
  5  2  1  0  0  0  0
  8 11  1  6  0  0  0
  8  3  1  0  0  0  0
  8 10  1  0  0  0  0
  9  8  1  0  0  0  0
  9 12  1  0  0  0  0
  9 10  1  0  0  0  0
 10 14  1  1  0  0  0
 13  9  1  0  0  0  0
 16 10  1  0  0  0  0
 16 15  2  0  0  0  0
 17 16  1  0  0  0  0
 18 17  1  0  0  0  0
 19 17  2  0  0  0  0
 19 24  1  0  0  0  0
 20 21  1  0  0  0  0
 20 19  1  0  0  0  0
 21 23  2  0  0  0  0
 22 21  1  0  0  0  0
 23 24  1  0  0  0  0
 24 25  2  0  0  0  0
 25 15  1  0  0  0  0
 26 20  1  0  0  0  0
 27 29  1  0  0  0  0
 27  1  1  0  0  0  0
 27 31  1  0  0  0  0
 28 27  1  0  0  0  0
 30 31  2  0  0  0  0
 30 36  1  0  0  0  0
 32 38  1  0  0  0  0
 33 39  1  0  0  0  0
 33 32  1  0  0  0  0
 34 33  2  0  0  0  0
 35 36  2  0  0  0  0
 35 34  1  0  0  0  0
 36 37  1  0  0  0  0
 37 32  2  0  0  0  0
 40 41  1  0  0  0  0
 40 34  1  0  0  0  0
 41 46  1  0  0  0  0
 42 47  1  0  0  0  0
 42 41  2  0  0  0  0
 43 42  1  0  0  0  0
 44 43  2  0  0  0  0
 44 45  1  0  0  0  0
 45 40  2  0  0  0  0
 48 43  1  0  0  0  0
 49 44  1  0  0  0  0
 50 45  1  0  0  0  0
M  END
>  <minimizedAffinity>
-6.73153734

$$$$

 OpenBabel03252508193D

 50 55  0  0  1  0  0  0  0  0999 V2000
   37.3510   24.6310   41.0830 C   0  0  1  0  0  0  0  0  0  0  0  0
   37.7680   24.0840   42.4060 C   0  0  0  0  0  0  0  0  0  0  0  0
   36.9560   25.2920   42.3430 C   0  0  1  0  0  0  0  0  0  0  0  0
   36.7100   23.8670   40.5550 H   0  0  0  0  0  0  0  0  0  0  0  0
   38.8260   24.2330   42.7420 H   0  0  0  0  0  0  0  0  0  0  0  0
   37.3390   23.1550   42.8300 H   0  0  0  0  0  0  0  0  0  0  0  0
   35.8890   25.1760   42.6280 H   0  0  0  0  0  0  0  0  0  0  0  0
   37.5140   26.6510   42.6310 C   0  0  2  0  0  0  0  0  0  0  0  0
   36.6840   27.4420   43.6730 C   0  0  0  0  0  0  0  0  0  0  0  0
   36.6510   27.8530   42.2590 C   0  0  1  0  0  0  0  0  0  0  0  0
   38.5850   26.8110   42.8110 H   0  0  0  0  0  0  0  0  0  0  0  0
   35.7710   26.9670   44.0800 H   0  0  0  0  0  0  0  0  0  0  0  0
   37.1760   28.1010   44.3810 H   0  0  0  0  0  0  0  0  0  0  0  0
   35.7320   27.6150   41.6800 H   0  0  0  0  0  0  0  0  0  0  0  0
   38.5590   29.4550   42.3050 C   0  0  0  0  0  3  0  0  0  0  0  0
   37.2830   29.1260   41.9010 C   0  0  0  0  0  0  0  0  0  0  0  0
   36.6190   30.0840   41.1290 C   0  0  0  0  0  0  0  0  0  0  0  0
   35.6020   29.8050   40.8160 H   0  0  0  0  0  0  0  0  0  0  0  0
   37.1520   31.2980   40.7570 C   0  0  0  0  0  0  0  0  0  0  0  0
   36.6250   32.3040   40.0200 N   0  0  0  0  0  0  0  0  0  0  0  0
   37.5770   33.2340   39.9780 C   0  0  0  0  0  0  0  0  0  0  0  0
   37.4580   34.1650   39.4590 H   0  0  0  0  0  0  0  0  0  0  0  0
   38.6810   32.8310   40.6710 N   0  0  0  0  0  0  0  0  0  0  0  0
   38.4300   31.6070   41.1700 C   0  0  0  0  0  0  0  0  0  0  0  0
   39.1110   30.6750   41.9400 C   0  0  0  0  0  3  0  0  0  0  0  0
   35.6710   32.3510   39.5720 H   0  0  0  0  0  0  0  0  0  0  0  0
   38.4560   25.1890   40.2610 C   0  0  0  0  0  0  0  0  0  0  0  0
   39.3490   25.5310   40.7450 H   0  0  0  0  0  0  0  0  0  0  0  0
   38.7570   24.3770   39.5360 H   0  0  0  0  0  0  0  0  0  0  0  0
   38.7480   27.2890   39.2360 C   0  0  0  0  0  3  0  0  0  0  0  0
   37.9570   26.3110   39.3820 C   0  0  0  0  0  3  0  0  0  0  0  0
   38.6190   30.5140   37.4540 C   0  0  0  0  0  0  0  0  0  0  0  0
   37.3460   30.5240   36.9140 C   0  0  0  0  0  0  0  0  0  0  0  0
   36.5650   29.4330   37.1750 C   0  0  0  0  0  0  0  0  0  0  0  0
   37.0630   28.4150   37.9330 N   0  0  0  0  0  0  0  0  0  0  0  0
   38.3050   28.4390   38.4420 C   0  0  0  0  0  0  0  0  0  0  0  0
   39.0570   29.4970   38.1860 N   0  0  0  0  0  0  0  0  0  0  0  0
   39.2320   31.3900   37.2380 H   0  0  0  0  0  0  0  0  0  0  0  0
   36.9200   31.2940   36.3190 H   0  0  0  0  0  0  0  0  0  0  0  0
   35.2040   29.3000   36.6770 C   0  0  0  0  0  0  0  0  0  0  0  0
   34.8550   29.3480   35.3580 C   0  0  0  0  0  0  0  0  0  0  0  0
   33.5580   29.2220   34.8970 C   0  0  0  0  0  0  0  0  0  0  0  0
   32.5340   29.0330   35.7940 C   0  0  0  0  0  0  0  0  0  0  0  0
   32.8260   28.9770   37.1310 C   0  0  0  0  0  0  0  0  0  0  0  0
   34.1390   29.1100   37.5260 C   0  0  0  0  0  0  0  0  0  0  0  0
   35.6460   29.4980   34.6060 H   0  0  0  0  0  0  0  0  0  0  0  0
   33.3290   29.2660   33.8420 H   0  0  0  0  0  0  0  0  0  0  0  0
   31.5020   28.9270   35.4890 H   0  0  0  0  0  0  0  0  0  0  0  0
   32.0210   28.8270   37.8520 H   0  0  0  0  0  0  0  0  0  0  0  0
   34.2870   29.0530   38.6140 H   0  0  0  0  0  0  0  0  0  0  0  0
  1  4  1  6  0  0  0
  1  3  1  0  0  0  0
  1  2  1  0  0  0  0
  2  5  1  0  0  0  0
  2  6  1  0  0  0  0
  3  2  1  0  0  0  0
  3  7  1  1  0  0  0
  3  8  1  0  0  0  0
  8 11  1  1  0  0  0
  8  9  1  0  0  0  0
  9 12  1  0  0  0  0
  9 13  1  0  0  0  0
 10 14  1  6  0  0  0
 10  8  1  0  0  0  0
 10  9  1  0  0  0  0
 16 10  1  0  0  0  0
 16 15  2  0  0  0  0
 17 16  1  0  0  0  0
 18 17  1  0  0  0  0
 19 17  2  0  0  0  0
 19 24  1  0  0  0  0
 20 19  1  0  0  0  0
 21 20  1  0  0  0  0
 21 23  2  0  0  0  0
 22 21  1  0  0  0  0
 23 24  1  0  0  0  0
 24 25  2  0  0  0  0
 25 15  1  0  0  0  0
 26 20  1  0  0  0  0
 27 28  1  0  0  0  0
 27  1  1  0  0  0  0
 29 27  1  0  0  0  0
 30 31  2  0  0  0  0
 31 27  1  0  0  0  0
 32 37  1  0  0  0  0
 33 34  1  0  0  0  0
 33 32  2  0  0  0  0
 34 35  2  0  0  0  0
 35 36  1  0  0  0  0
 36 30  1  0  0  0  0
 37 36  2  0  0  0  0
 38 32  1  0  0  0  0
 39 33  1  0  0  0  0
 40 34  1  0  0  0  0
 40 45  1  0  0  0  0
 41 40  2  0  0  0  0
 42 41  1  0  0  0  0
 42 43  2  0  0  0  0
 43 44  1  0  0  0  0
 44 45  2  0  0  0  0
 44 49  1  0  0  0  0
 45 50  1  0  0  0  0
 46 41  1  0  0  0  0
 47 42  1  0  0  0  0
 48 43  1  0  0  0  0
M  END
>  <minimizedAffinity>
-6.68238592

$$$$

 OpenBabel03252508193D

 50 55  0  0  1  0  0  0  0  0999 V2000
   36.8160   24.8490   40.8010 C   0  0  1  0  0  0  0  0  0  0  0  0
   37.6800   24.1310   41.7810 C   0  0  0  0  0  0  0  0  0  0  0  0
   36.8960   25.2820   42.2100 C   0  0  1  0  0  0  0  0  0  0  0  0
   36.0300   24.1380   40.4140 H   0  0  0  0  0  0  0  0  0  0  0  0
   38.7880   24.2920   41.7410 H   0  0  0  0  0  0  0  0  0  0  0  0
   37.4330   23.1240   42.1670 H   0  0  0  0  0  0  0  0  0  0  0  0
   36.0020   25.0570   42.8300 H   0  0  0  0  0  0  0  0  0  0  0  0
   37.5180   26.6120   42.5050 C   0  0  2  0  0  0  0  0  0  0  0  0
   36.7850   27.3910   43.6260 C   0  0  0  0  0  0  0  0  0  0  0  0
   36.6720   27.8520   42.2320 C   0  0  1  0  0  0  0  0  0  0  0  0
   38.6020   26.7320   42.6180 H   0  0  0  0  0  0  0  0  0  0  0  0
   35.8850   26.9300   44.0780 H   0  0  0  0  0  0  0  0  0  0  0  0
   37.3440   28.0100   44.3200 H   0  0  0  0  0  0  0  0  0  0  0  0
   35.7090   27.6630   41.7080 H   0  0  0  0  0  0  0  0  0  0  0  0
   38.6350   29.3880   42.1930 C   0  0  0  0  0  3  0  0  0  0  0  0
   37.3210   29.1170   41.8750 C   0  0  0  0  0  0  0  0  0  0  0  0
   36.6370   30.1260   41.1900 C   0  0  0  0  0  0  0  0  0  0  0  0
   35.5900   29.8930   40.9440 H   0  0  0  0  0  0  0  0  0  0  0  0
   37.1840   31.3350   40.8240 C   0  0  0  0  0  0  0  0  0  0  0  0
   36.6400   32.3860   40.1660 N   0  0  0  0  0  0  0  0  0  0  0  0
   37.6200   33.2850   40.0870 C   0  0  0  0  0  0  0  0  0  0  0  0
   37.4960   34.2400   39.6130 H   0  0  0  0  0  0  0  0  0  0  0  0
   38.7570   32.8190   40.6790 N   0  0  0  0  0  0  0  0  0  0  0  0
   38.4990   31.5860   41.1510 C   0  0  0  0  0  0  0  0  0  0  0  0
   39.2010   30.6020   41.8320 C   0  0  0  0  0  3  0  0  0  0  0  0
   35.6580   32.4830   39.7930 H   0  0  0  0  0  0  0  0  0  0  0  0
   37.5520   25.5950   39.7470 C   0  0  0  0  0  0  0  0  0  0  0  0
   38.0690   26.4980   40.0070 H   0  0  0  0  0  0  0  0  0  0  0  0
   38.3160   24.8800   39.3240 H   0  0  0  0  0  0  0  0  0  0  0  0
   36.1380   27.0700   38.5750 C   0  0  0  0  0  3  0  0  0  0  0  0
   36.6460   25.9100   38.5810 C   0  0  0  0  0  3  0  0  0  0  0  0
   33.1300   27.3710   36.4650 C   0  0  0  0  0  0  0  0  0  0  0  0
   33.5530   28.1830   35.4290 C   0  0  0  0  0  0  0  0  0  0  0  0
   34.8520   28.6030   35.4760 C   0  0  0  0  0  0  0  0  0  0  0  0
   35.6490   28.2140   36.5120 N   0  0  0  0  0  0  0  0  0  0  0  0
   35.2040   27.4230   37.5020 C   0  0  0  0  0  0  0  0  0  0  0  0
   33.9440   27.0190   37.4520 N   0  0  0  0  0  0  0  0  0  0  0  0
   32.0900   27.0430   36.4150 H   0  0  0  0  0  0  0  0  0  0  0  0
   32.9670   28.5100   34.6050 H   0  0  0  0  0  0  0  0  0  0  0  0
   35.4420   29.4600   34.4580 C   0  0  0  0  0  0  0  0  0  0  0  0
   35.2190   30.8030   34.3540 C   0  0  0  0  0  0  0  0  0  0  0  0
   35.7840   31.6060   33.3820 C   0  0  0  0  0  0  0  0  0  0  0  0
   36.6270   31.0520   32.4480 C   0  0  0  0  0  0  0  0  0  0  0  0
   36.8860   29.7090   32.5040 C   0  0  0  0  0  0  0  0  0  0  0  0
   36.2910   28.9630   33.4980 C   0  0  0  0  0  0  0  0  0  0  0  0
   34.5500   31.2870   35.0830 H   0  0  0  0  0  0  0  0  0  0  0  0
   35.5790   32.6660   33.3380 H   0  0  0  0  0  0  0  0  0  0  0  0
   37.0970   31.6330   31.6660 H   0  0  0  0  0  0  0  0  0  0  0  0
   37.5540   29.2580   31.7680 H   0  0  0  0  0  0  0  0  0  0  0  0
   36.5520   27.8940   33.4720 H   0  0  0  0  0  0  0  0  0  0  0  0
  1  4  1  6  0  0  0
  1  2  1  0  0  0  0
  1  3  1  0  0  0  0
  2  6  1  0  0  0  0
  2  3  1  0  0  0  0
  3  8  1  0  0  0  0
  3  7  1  1  0  0  0
  5  2  1  0  0  0  0
  8 11  1  6  0  0  0
  8  9  1  0  0  0  0
  9 12  1  0  0  0  0
  9 13  1  0  0  0  0
 10 14  1  6  0  0  0
 10  8  1  0  0  0  0
 10  9  1  0  0  0  0
 16 15  1  0  0  0  0
 16 10  1  0  0  0  0
 17 16  2  0  0  0  0
 18 17  1  0  0  0  0
 19 24  2  0  0  0  0
 19 17  1  0  0  0  0
 20 19  1  0  0  0  0
 21 20  1  0  0  0  0
 21 23  2  0  0  0  0
 22 21  1  0  0  0  0
 23 24  1  0  0  0  0
 24 25  1  0  0  0  0
 25 15  2  0  0  0  0
 26 20  1  0  0  0  0
 27 28  1  0  0  0  0
 27  1  1  0  0  0  0
 29 27  1  0  0  0  0
 30 31  2  0  0  0  0
 31 27  1  0  0  0  0
 32 37  1  0  0  0  0
 33 34  1  0  0  0  0
 33 32  2  0  0  0  0
 34 35  2  0  0  0  0
 35 36  1  0  0  0  0
 36 30  1  0  0  0  0
 37 36  2  0  0  0  0
 38 32  1  0  0  0  0
 39 33  1  0  0  0  0
 40 34  1  0  0  0  0
 41 40  1  0  0  0  0
 41 46  1  0  0  0  0
 42 41  2  0  0  0  0
 43 44  2  0  0  0  0
 43 42  1  0  0  0  0
 44 45  1  0  0  0  0
 45 40  2  0  0  0  0
 47 42  1  0  0  0  0
 48 43  1  0  0  0  0
 49 44  1  0  0  0  0
 50 45  1  0  0  0  0
M  END
>  <minimizedAffinity>
-6.52641249

$$$$

 OpenBabel03252508193D

 50 55  0  0  1  0  0  0  0  0999 V2000
   37.0990   24.8200   40.8540 C   0  0  1  0  0  0  0  0  0  0  0  0
   37.3620   24.2010   42.1840 C   0  0  0  0  0  0  0  0  0  0  0  0
   36.7120   25.5010   42.1050 C   0  0  1  0  0  0  0  0  0  0  0  0
   36.4020   24.1530   40.2690 H   0  0  0  0  0  0  0  0  0  0  0  0
   38.4090   24.2100   42.5850 H   0  0  0  0  0  0  0  0  0  0  0  0
   36.7960   23.3250   42.5560 H   0  0  0  0  0  0  0  0  0  0  0  0
   35.6220   25.5140   42.3230 H   0  0  0  0  0  0  0  0  0  0  0  0
   37.4150   26.7750   42.4610 C   0  0  2  0  0  0  0  0  0  0  0  0
   36.7440   27.5330   43.6340 C   0  0  0  0  0  0  0  0  0  0  0  0
   36.6420   28.0760   42.2690 C   0  0  1  0  0  0  0  0  0  0  0  0
   38.5060   26.8240   42.5640 H   0  0  0  0  0  0  0  0  0  0  0  0
   35.8230   27.1020   44.0740 H   0  0  0  0  0  0  0  0  0  0  0  0
   37.3460   28.0790   44.3520 H   0  0  0  0  0  0  0  0  0  0  0  0
   35.6630   27.9730   41.7500 H   0  0  0  0  0  0  0  0  0  0  0  0
   38.6640   29.5290   42.3670 C   0  0  0  0  0  3  0  0  0  0  0  0
   37.3610   29.3180   41.9710 C   0  0  0  0  0  0  0  0  0  0  0  0
   36.7590   30.3650   41.2650 C   0  0  0  0  0  0  0  0  0  0  0  0
   35.7190   30.1790   40.9570 H   0  0  0  0  0  0  0  0  0  0  0  0
   37.3750   31.5550   40.9520 C   0  0  0  0  0  0  0  0  0  0  0  0
   36.9130   32.6380   40.2830 N   0  0  0  0  0  0  0  0  0  0  0  0
   37.9310   33.4960   40.2750 C   0  0  0  0  0  0  0  0  0  0  0  0
   37.8740   34.4620   39.8110 H   0  0  0  0  0  0  0  0  0  0  0  0
   39.0120   32.9740   40.9230 N   0  0  0  0  0  0  0  0  0  0  0  0
   38.6780   31.7460   41.3580 C   0  0  0  0  0  0  0  0  0  0  0  0
   39.3000   30.7230   42.0610 C   0  0  0  0  0  3  0  0  0  0  0  0
   35.9590   32.7800   39.8570 H   0  0  0  0  0  0  0  0  0  0  0  0
   38.3130   25.2520   40.1130 C   0  0  0  0  0  0  0  0  0  0  0  0
   39.2370   25.3710   40.6440 H   0  0  0  0  0  0  0  0  0  0  0  0
   38.4860   24.4810   39.3060 H   0  0  0  0  0  0  0  0  0  0  0  0
   39.0160   27.3580   39.3260 C   0  0  0  0  0  3  0  0  0  0  0  0
   38.0550   26.5340   39.3590 C   0  0  0  0  0  3  0  0  0  0  0  0
   37.5520   30.1840   37.4660 C   0  0  0  0  0  0  0  0  0  0  0  0
   38.5720   31.1170   37.4590 C   0  0  0  0  0  0  0  0  0  0  0  0
   39.7310   30.7570   38.0850 C   0  0  0  0  0  0  0  0  0  0  0  0
   39.8270   29.5300   38.6720 N   0  0  0  0  0  0  0  0  0  0  0  0
   38.8150   28.6470   38.6590 C   0  0  0  0  0  0  0  0  0  0  0  0
   37.6940   29.0010   38.0510 N   0  0  0  0  0  0  0  0  0  0  0  0
   36.6320   30.4840   36.9630 H   0  0  0  0  0  0  0  0  0  0  0  0
   38.5400   32.0830   37.0160 H   0  0  0  0  0  0  0  0  0  0  0  0
   40.8920   31.6320   38.1610 C   0  0  0  0  0  0  0  0  0  0  0  0
   41.1780   32.6170   37.2600 C   0  0  0  0  0  0  0  0  0  0  0  0
   42.2850   33.4410   37.3410 C   0  0  0  0  0  0  0  0  0  0  0  0
   43.1710   33.2880   38.3810 C   0  0  0  0  0  0  0  0  0  0  0  0
   42.9330   32.3150   39.3150 C   0  0  0  0  0  0  0  0  0  0  0  0
   41.8130   31.5260   39.1760 C   0  0  0  0  0  0  0  0  0  0  0  0
   40.4930   32.7740   36.4110 H   0  0  0  0  0  0  0  0  0  0  0  0
   42.4710   34.2080   36.6030 H   0  0  0  0  0  0  0  0  0  0  0  0
   44.0520   33.9040   38.4940 H   0  0  0  0  0  0  0  0  0  0  0  0
   43.6300   32.1840   40.1440 H   0  0  0  0  0  0  0  0  0  0  0  0
   41.6970   30.7700   39.9680 H   0  0  0  0  0  0  0  0  0  0  0  0
  1  4  1  6  0  0  0
  1  3  1  0  0  0  0
  1  2  1  0  0  0  0
  2  6  1  0  0  0  0
  2  5  1  0  0  0  0
  3  2  1  0  0  0  0
  3  7  1  1  0  0  0
  3  8  1  0  0  0  0
  8 11  1  6  0  0  0
  8  9  1  0  0  0  0
  9 12  1  0  0  0  0
  9 13  1  0  0  0  0
 10 14  1  6  0  0  0
 10  8  1  0  0  0  0
 10  9  1  0  0  0  0
 16 10  1  0  0  0  0
 16 15  2  0  0  0  0
 17 16  1  0  0  0  0
 18 17  1  0  0  0  0
 19 17  2  0  0  0  0
 19 24  1  0  0  0  0
 20 19  1  0  0  0  0
 21 20  1  0  0  0  0
 21 23  2  0  0  0  0
 22 21  1  0  0  0  0
 23 24  1  0  0  0  0
 24 25  2  0  0  0  0
 25 15  1  0  0  0  0
 26 20  1  0  0  0  0
 27 28  1  0  0  0  0
 27  1  1  0  0  0  0
 29 27  1  0  0  0  0
 30 31  2  0  0  0  0
 31 27  1  0  0  0  0
 32 37  1  0  0  0  0
 33 32  2  0  0  0  0
 33 34  1  0  0  0  0
 34 40  1  0  0  0  0
 34 35  2  0  0  0  0
 36 35  1  0  0  0  0
 36 30  1  0  0  0  0
 37 36  2  0  0  0  0
 38 32  1  0  0  0  0
 39 33  1  0  0  0  0
 40 45  1  0  0  0  0
 41 42  1  0  0  0  0
 41 40  2  0  0  0  0
 42 43  2  0  0  0  0
 43 48  1  0  0  0  0
 43 44  1  0  0  0  0
 44 49  1  0  0  0  0
 45 44  2  0  0  0  0
 45 50  1  0  0  0  0
 46 41  1  0  0  0  0
 47 42  1  0  0  0  0
M  END
>  <minimizedAffinity>
-6.50555754

$$$$

 OpenBabel03252508193D

 50 55  0  0  1  0  0  0  0  0999 V2000
   34.3280   28.3240   38.4130 C   0  0  1  0  0  0  0  0  0  0  0  0
   33.5430   28.7940   37.2360 C   0  0  0  0  0  0  0  0  0  0  0  0
   34.9930   28.6920   37.1480 C   0  0  1  0  0  0  0  0  0  0  0  0
   34.0160   27.2690   38.6660 H   0  0  0  0  0  0  0  0  0  0  0  0
   33.1330   29.8370   37.2430 H   0  0  0  0  0  0  0  0  0  0  0  0
   32.9070   28.1160   36.6340 H   0  0  0  0  0  0  0  0  0  0  0  0
   35.3860   27.8420   36.5500 H   0  0  0  0  0  0  0  0  0  0  0  0
   35.8840   29.8960   37.1430 C   0  0  2  0  0  0  0  0  0  0  0  0
   36.9490   29.8620   36.0180 C   0  0  0  0  0  0  0  0  0  0  0  0
   37.3670   29.6660   37.4170 C   0  0  1  0  0  0  0  0  0  0  0  0
   35.4840   30.9120   37.2450 H   0  0  0  0  0  0  0  0  0  0  0  0
   36.9780   28.9750   35.3560 H   0  0  0  0  0  0  0  0  0  0  0  0
   37.2530   30.7770   35.5210 H   0  0  0  0  0  0  0  0  0  0  0  0
   37.6380   28.6340   37.7290 H   0  0  0  0  0  0  0  0  0  0  0  0
   39.4760   30.9670   37.6860 C   0  0  0  0  0  3  0  0  0  0  0  0
   38.1680   30.7210   38.0450 C   0  0  0  0  0  0  0  0  0  0  0  0
   37.6460   31.5400   39.0510 C   0  0  0  0  0  0  0  0  0  0  0  0
   36.6010   31.3300   39.3250 H   0  0  0  0  0  0  0  0  0  0  0  0
   38.3410   32.5470   39.6820 C   0  0  0  0  0  0  0  0  0  0  0  0
   37.9600   33.4030   40.6590 N   0  0  0  0  0  0  0  0  0  0  0  0
   39.0310   34.1610   40.8880 C   0  0  0  0  0  0  0  0  0  0  0  0
   39.0430   34.9450   41.6200 H   0  0  0  0  0  0  0  0  0  0  0  0
   40.0660   33.7960   40.0790 N   0  0  0  0  0  0  0  0  0  0  0  0
   39.6470   32.7760   39.3080 C   0  0  0  0  0  0  0  0  0  0  0  0
   40.1910   31.9770   38.3120 C   0  0  0  0  0  3  0  0  0  0  0  0
   37.0230   33.4650   41.1400 H   0  0  0  0  0  0  0  0  0  0  0  0
   34.3470   29.2600   39.5660 C   0  0  0  0  0  0  0  0  0  0  0  0
   34.3920   30.3160   39.3850 H   0  0  0  0  0  0  0  0  0  0  0  0
   33.4040   29.0610   40.1550 H   0  0  0  0  0  0  0  0  0  0  0  0
   36.1020   27.8520   40.2600 C   0  0  0  0  0  3  0  0  0  0  0  0
   35.4650   28.9150   40.5210 C   0  0  0  0  0  3  0  0  0  0  0  0
   38.2040   25.8840   42.5640 C   0  0  0  0  0  0  0  0  0  0  0  0
   39.2340   26.7540   42.8700 C   0  0  0  0  0  0  0  0  0  0  0  0
   39.1830   27.9880   42.2860 C   0  0  0  0  0  0  0  0  0  0  0  0
   38.1490   28.2960   41.4520 N   0  0  0  0  0  0  0  0  0  0  0  0
   37.1640   27.4260   41.1770 C   0  0  0  0  0  0  0  0  0  0  0  0
   37.2180   26.2320   41.7460 N   0  0  0  0  0  0  0  0  0  0  0  0
   38.2560   24.9030   43.0370 H   0  0  0  0  0  0  0  0  0  0  0  0
   40.0570   26.5550   43.5120 H   0  0  0  0  0  0  0  0  0  0  0  0
   40.1940   29.0110   42.5120 C   0  0  0  0  0  0  0  0  0  0  0  0
   39.9940   30.3490   42.3350 C   0  0  0  0  0  0  0  0  0  0  0  0
   40.9630   31.3100   42.5520 C   0  0  0  0  0  0  0  0  0  0  0  0
   42.2150   30.9300   42.9730 C   0  0  0  0  0  0  0  0  0  0  0  0
   42.4720   29.5990   43.1660 C   0  0  0  0  0  0  0  0  0  0  0  0
   41.4630   28.6910   42.9320 C   0  0  0  0  0  0  0  0  0  0  0  0
   39.0040   30.6970   41.9990 H   0  0  0  0  0  0  0  0  0  0  0  0
   40.7580   32.3600   42.3990 H   0  0  0  0  0  0  0  0  0  0  0  0
   43.0100   31.6390   43.1580 H   0  0  0  0  0  0  0  0  0  0  0  0
   43.4620   29.2860   43.5000 H   0  0  0  0  0  0  0  0  0  0  0  0
   41.7530   27.6440   43.1110 H   0  0  0  0  0  0  0  0  0  0  0  0
  1  4  1  1  0  0  0
  1 27  1  0  0  0  0
  2  5  1  0  0  0  0
  2  1  1  0  0  0  0
  3  7  1  6  0  0  0
  3  2  1  0  0  0  0
  3  1  1  0  0  0  0
  6  2  1  0  0  0  0
  8  3  1  0  0  0  0
  8 11  1  1  0  0  0
  8 10  1  0  0  0  0
  9  8  1  0  0  0  0
  9 10  1  0  0  0  0
 10 14  1  1  0  0  0
 10 16  1  0  0  0  0
 12  9  1  0  0  0  0
 13  9  1  0  0  0  0
 15 16  2  0  0  0  0
 15 25  1  0  0  0  0
 16 17  1  0  0  0  0
 17 18  1  0  0  0  0
 17 19  2  0  0  0  0
 19 20  1  0  0  0  0
 20 21  1  0  0  0  0
 20 26  1  0  0  0  0
 21 22  1  0  0  0  0
 23 21  2  0  0  0  0
 24 19  1  0  0  0  0
 24 23  1  0  0  0  0
 25 24  2  0  0  0  0
 27 29  1  0  0  0  0
 27 31  1  0  0  0  0
 28 27  1  0  0  0  0
 30 31  2  0  0  0  0
 30 36  1  0  0  0  0
 32 33  1  0  0  0  0
 32 38  1  0  0  0  0
 33 39  1  0  0  0  0
 34 40  1  0  0  0  0
 34 33  2  0  0  0  0
 35 34  1  0  0  0  0
 36 35  2  0  0  0  0
 36 37  1  0  0  0  0
 37 32  2  0  0  0  0
 40 45  1  0  0  0  0
 41 40  2  0  0  0  0
 41 42  1  0  0  0  0
 42 43  2  0  0  0  0
 43 48  1  0  0  0  0
 43 44  1  0  0  0  0
 44 49  1  0  0  0  0
 45 50  1  0  0  0  0
 45 44  2  0  0  0  0
 46 41  1  0  0  0  0
 47 42  1  0  0  0  0
M  END
>  <minimizedAffinity>
-6.39350176

$$$$

 OpenBabel03252508193D

 50 55  0  0  1  0  0  0  0  0999 V2000
   35.7980   24.0330   38.9190 C   0  0  1  0  0  0  0  0  0  0  0  0
   36.6980   22.8510   39.0430 C   0  0  0  0  0  0  0  0  0  0  0  0
   36.3980   23.6610   40.2160 C   0  0  1  0  0  0  0  0  0  0  0  0
   34.7780   23.6860   38.5850 H   0  0  0  0  0  0  0  0  0  0  0  0
   37.7470   22.9300   38.6590 H   0  0  0  0  0  0  0  0  0  0  0  0
   36.3250   21.8100   38.9850 H   0  0  0  0  0  0  0  0  0  0  0  0
   35.7000   23.2110   40.9530 H   0  0  0  0  0  0  0  0  0  0  0  0
   37.3980   24.5950   40.8240 C   0  0  2  0  0  0  0  0  0  0  0  0
   37.8480   24.1660   42.2430 C   0  0  0  0  0  0  0  0  0  0  0  0
   36.9770   25.3440   42.0850 C   0  0  1  0  0  0  0  0  0  0  0  0
   38.2620   24.9670   40.2580 H   0  0  0  0  0  0  0  0  0  0  0  0
   37.3910   23.2580   42.6820 H   0  0  0  0  0  0  0  0  0  0  0  0
   38.8690   24.3320   42.5700 H   0  0  0  0  0  0  0  0  0  0  0  0
   35.9080   25.2300   42.3680 H   0  0  0  0  0  0  0  0  0  0  0  0
   36.9350   27.5570   43.2290 C   0  0  0  0  0  3  0  0  0  0  0  0
   37.5480   26.6610   42.3790 C   0  0  0  0  0  0  0  0  0  0  0  0
   38.7520   27.0850   41.8080 C   0  0  0  0  0  0  0  0  0  0  0  0
   39.2270   26.3580   41.1330 H   0  0  0  0  0  0  0  0  0  0  0  0
   39.3430   28.3060   42.0410 C   0  0  0  0  0  0  0  0  0  0  0  0
   40.4930   28.8360   41.5600 N   0  0  0  0  0  0  0  0  0  0  0  0
   40.5730   30.0430   42.1160 C   0  0  0  0  0  0  0  0  0  0  0  0
   41.3860   30.7170   41.9270 H   0  0  0  0  0  0  0  0  0  0  0  0
   39.5030   30.2760   42.9300 N   0  0  0  0  0  0  0  0  0  0  0  0
   38.7140   29.1870   42.8940 C   0  0  0  0  0  0  0  0  0  0  0  0
   37.5170   28.7920   43.4740 C   0  0  0  0  0  3  0  0  0  0  0  0
   41.1800   28.3970   40.8910 H   0  0  0  0  0  0  0  0  0  0  0  0
   36.3570   25.1650   38.1350 C   0  0  0  0  0  0  0  0  0  0  0  0
   37.4000   25.1660   37.8850 H   0  0  0  0  0  0  0  0  0  0  0  0
   35.7790   25.1980   37.1650 H   0  0  0  0  0  0  0  0  0  0  0  0
   36.9280   27.3860   38.6700 C   0  0  0  0  0  3  0  0  0  0  0  0
   36.0490   26.4840   38.8010 C   0  0  0  0  0  3  0  0  0  0  0  0
   35.5190   30.1380   40.6800 C   0  0  0  0  0  0  0  0  0  0  0  0
   36.4680   31.1360   40.5540 C   0  0  0  0  0  0  0  0  0  0  0  0
   37.5590   30.8450   39.7850 C   0  0  0  0  0  0  0  0  0  0  0  0
   37.6610   29.6200   39.1950 N   0  0  0  0  0  0  0  0  0  0  0  0
   36.7200   28.6740   39.3390 C   0  0  0  0  0  0  0  0  0  0  0  0
   35.6640   28.9600   40.0840 N   0  0  0  0  0  0  0  0  0  0  0  0
   34.6530   30.3820   41.2960 H   0  0  0  0  0  0  0  0  0  0  0  0
   36.4290   32.1010   40.9960 H   0  0  0  0  0  0  0  0  0  0  0  0
   38.6400   31.7940   39.5590 C   0  0  0  0  0  0  0  0  0  0  0  0
   39.6890   31.5840   38.7120 C   0  0  0  0  0  0  0  0  0  0  0  0
   40.7100   32.4920   38.5070 C   0  0  0  0  0  0  0  0  0  0  0  0
   40.6990   33.6910   39.1800 C   0  0  0  0  0  0  0  0  0  0  0  0
   39.6700   33.9550   40.0430 C   0  0  0  0  0  0  0  0  0  0  0  0
   38.6830   33.0080   40.2040 C   0  0  0  0  0  0  0  0  0  0  0  0
   39.7370   30.6350   38.1530 H   0  0  0  0  0  0  0  0  0  0  0  0
   41.5220   32.2820   37.8250 H   0  0  0  0  0  0  0  0  0  0  0  0
   41.4720   34.4370   39.0580 H   0  0  0  0  0  0  0  0  0  0  0  0
   39.6510   34.9030   40.5830 H   0  0  0  0  0  0  0  0  0  0  0  0
   37.8950   33.2980   40.9140 H   0  0  0  0  0  0  0  0  0  0  0  0
  1  4  1  6  0  0  0
  1  2  1  0  0  0  0
  1  3  1  0  0  0  0
  2  3  1  0  0  0  0
  3  8  1  0  0  0  0
  3  7  1  1  0  0  0
  5  2  1  0  0  0  0
  6  2  1  0  0  0  0
  8 11  1  6  0  0  0
  8 10  1  0  0  0  0
  8  9  1  0  0  0  0
  9 13  1  0  0  0  0
  9 12  1  0  0  0  0
 10  9  1  0  0  0  0
 10 14  1  1  0  0  0
 10 16  1  0  0  0  0
 15 25  1  0  0  0  0
 16 15  2  0  0  0  0
 17 19  2  0  0  0  0
 17 16  1  0  0  0  0
 18 17  1  0  0  0  0
 19 24  1  0  0  0  0
 20 19  1  0  0  0  0
 20 21  1  0  0  0  0
 21 23  2  0  0  0  0
 22 21  1  0  0  0  0
 24 23  1  0  0  0  0
 24 25  2  0  0  0  0
 26 20  1  0  0  0  0
 27 31  1  0  0  0  0
 27  1  1  0  0  0  0
 28 27  1  0  0  0  0
 29 27  1  0  0  0  0
 30 31  2  0  0  0  0
 30 36  1  0  0  0  0
 32 38  1  0  0  0  0
 33 32  1  0  0  0  0
 33 39  1  0  0  0  0
 34 33  2  0  0  0  0
 35 36  2  0  0  0  0
 35 34  1  0  0  0  0
 36 37  1  0  0  0  0
 37 32  2  0  0  0  0
 40 34  1  0  0  0  0
 40 45  1  0  0  0  0
 41 40  2  0  0  0  0
 42 41  1  0  0  0  0
 42 43  2  0  0  0  0
 43 44  1  0  0  0  0
 44 45  2  0  0  0  0
 44 49  1  0  0  0  0
 45 50  1  0  0  0  0
 46 41  1  0  0  0  0
 47 42  1  0  0  0  0
 48 43  1  0  0  0  0
M  END
>  <minimizedAffinity>
-6.34580946

$$$$

 OpenBabel03252508193D

 50 55  0  0  1  0  0  0  0  0999 V2000
   35.9170   23.5260   38.3910 C   0  0  1  0  0  0  0  0  0  0  0  0
   34.7560   23.4980   37.4560 C   0  0  0  0  0  0  0  0  0  0  0  0
   35.6520   24.6460   37.4670 C   0  0  1  0  0  0  0  0  0  0  0  0
   36.6090   22.6690   38.1450 H   0  0  0  0  0  0  0  0  0  0  0  0
   33.7300   23.6840   37.8660 H   0  0  0  0  0  0  0  0  0  0  0  0
   34.7220   22.8360   36.5690 H   0  0  0  0  0  0  0  0  0  0  0  0
   36.3480   24.7280   36.6050 H   0  0  0  0  0  0  0  0  0  0  0  0
   35.2580   25.9670   38.0540 C   0  0  2  0  0  0  0  0  0  0  0  0
   34.6950   26.9570   37.0030 C   0  0  0  0  0  0  0  0  0  0  0  0
   36.0280   27.1970   37.5830 C   0  0  1  0  0  0  0  0  0  0  0  0
   34.6740   26.0370   38.9800 H   0  0  0  0  0  0  0  0  0  0  0  0
   34.6580   26.6280   35.9460 H   0  0  0  0  0  0  0  0  0  0  0  0
   33.8970   27.6420   37.2670 H   0  0  0  0  0  0  0  0  0  0  0  0
   36.9100   26.9860   36.9390 H   0  0  0  0  0  0  0  0  0  0  0  0
   35.9030   28.2800   39.8230 C   0  0  0  0  0  3  0  0  0  0  0  0
   36.1880   28.3470   38.4760 C   0  0  0  0  0  0  0  0  0  0  0  0
   36.6380   29.5860   38.0070 C   0  0  0  0  0  0  0  0  0  0  0  0
   36.8600   29.6210   36.9300 H   0  0  0  0  0  0  0  0  0  0  0  0
   36.8110   30.7050   38.7890 C   0  0  0  0  0  0  0  0  0  0  0  0
   37.2350   31.9490   38.4660 N   0  0  0  0  0  0  0  0  0  0  0  0
   37.2080   32.6290   39.6110 C   0  0  0  0  0  0  0  0  0  0  0  0
   37.4930   33.6610   39.6820 H   0  0  0  0  0  0  0  0  0  0  0  0
   36.7770   31.8380   40.6360 N   0  0  0  0  0  0  0  0  0  0  0  0
   36.5210   30.6160   40.1330 C   0  0  0  0  0  0  0  0  0  0  0  0
   36.0710   29.4000   40.6260 C   0  0  0  0  0  3  0  0  0  0  0  0
   37.5260   32.3120   37.5190 H   0  0  0  0  0  0  0  0  0  0  0  0
   35.5600   23.6430   39.8290 C   0  0  0  0  0  0  0  0  0  0  0  0
   34.8410   24.3780   40.1330 H   0  0  0  0  0  0  0  0  0  0  0  0
   35.1630   22.6340   40.1430 H   0  0  0  0  0  0  0  0  0  0  0  0
   36.9360   24.9900   41.1850 C   0  0  0  0  0  3  0  0  0  0  0  0
   36.7950   23.8400   40.6750 C   0  0  0  0  0  3  0  0  0  0  0  0
   39.9220   24.6390   43.3200 C   0  0  0  0  0  0  0  0  0  0  0  0
   40.4050   25.9330   43.3990 C   0  0  0  0  0  0  0  0  0  0  0  0
   39.6980   26.8890   42.7260 C   0  0  0  0  0  0  0  0  0  0  0  0
   38.5820   26.5350   42.0270 N   0  0  0  0  0  0  0  0  0  0  0  0
   38.1410   25.2680   41.9720 C   0  0  0  0  0  0  0  0  0  0  0  0
   38.8290   24.3450   42.6260 N   0  0  0  0  0  0  0  0  0  0  0  0
   40.4950   23.8860   43.8620 H   0  0  0  0  0  0  0  0  0  0  0  0
   41.2680   26.2510   43.9300 H   0  0  0  0  0  0  0  0  0  0  0  0
   40.0830   28.2930   42.7160 C   0  0  0  0  0  0  0  0  0  0  0  0
   39.2080   29.3330   42.5890 C   0  0  0  0  0  0  0  0  0  0  0  0
   39.5860   30.6620   42.5790 C   0  0  0  0  0  0  0  0  0  0  0  0
   40.9140   30.9930   42.7050 C   0  0  0  0  0  0  0  0  0  0  0  0
   41.8360   29.9880   42.8350 C   0  0  0  0  0  0  0  0  0  0  0  0
   41.3950   28.6840   42.8370 C   0  0  0  0  0  0  0  0  0  0  0  0
   38.1340   29.1130   42.4860 H   0  0  0  0  0  0  0  0  0  0  0  0
   38.8570   31.4540   42.4760 H   0  0  0  0  0  0  0  0  0  0  0  0
   41.2660   32.0150   42.7040 H   0  0  0  0  0  0  0  0  0  0  0  0
   42.8930   30.2390   42.9360 H   0  0  0  0  0  0  0  0  0  0  0  0
   42.1990   27.9400   42.9460 H   0  0  0  0  0  0  0  0  0  0  0  0
  1  4  1  6  0  0  0
  1 27  1  0  0  0  0
  2  3  1  0  0  0  0
  2  5  1  0  0  0  0
  2  1  1  0  0  0  0
  3  7  1  6  0  0  0
  3  8  1  0  0  0  0
  3  1  1  0  0  0  0
  6  2  1  0  0  0  0
  8 11  1  1  0  0  0
  9 13  1  0  0  0  0
  9 10  1  0  0  0  0
  9  8  1  0  0  0  0
 10 14  1  6  0  0  0
 10  8  1  0  0  0  0
 10 16  1  0  0  0  0
 12  9  1  0  0  0  0
 15 25  1  0  0  0  0
 16 15  2  0  0  0  0
 17 16  1  0  0  0  0
 17 19  2  0  0  0  0
 18 17  1  0  0  0  0
 19 24  1  0  0  0  0
 20 19  1  0  0  0  0
 20 21  1  0  0  0  0
 21 22  1  0  0  0  0
 21 23  2  0  0  0  0
 24 25  2  0  0  0  0
 24 23  1  0  0  0  0
 26 20  1  0  0  0  0
 27 28  1  0  0  0  0
 27 29  1  0  0  0  0
 27 31  1  0  0  0  0
 30 36  1  0  0  0  0
 31 30  2  0  0  0  0
 32 33  1  0  0  0  0
 32 38  1  0  0  0  0
 33 39  1  0  0  0  0
 34 33  2  0  0  0  0
 35 34  1  0  0  0  0
 36 35  2  0  0  0  0
 36 37  1  0  0  0  0
 37 32  2  0  0  0  0
 40 34  1  0  0  0  0
 40 45  1  0  0  0  0
 41 40  2  0  0  0  0
 42 41  1  0  0  0  0
 42 43  2  0  0  0  0
 43 44  1  0  0  0  0
 44 45  2  0  0  0  0
 44 49  1  0  0  0  0
 45 50  1  0  0  0  0
 46 41  1  0  0  0  0
 47 42  1  0  0  0  0
 48 43  1  0  0  0  0
M  END
>  <minimizedAffinity>
-6.24986458

$$$$

 OpenBabel03252508193D

 50 55  0  0  1  0  0  0  0  0999 V2000
   35.1310   25.9430   34.8220 C   0  0  1  0  0  0  0  0  0  0  0  0
   34.3020   26.5820   33.7590 C   0  0  0  0  0  0  0  0  0  0  0  0
   35.4780   27.2690   34.2740 C   0  0  1  0  0  0  0  0  0  0  0  0
   35.5560   24.9770   34.4250 H   0  0  0  0  0  0  0  0  0  0  0  0
   33.3170   27.0350   34.0440 H   0  0  0  0  0  0  0  0  0  0  0  0
   34.2910   26.2200   32.7130 H   0  0  0  0  0  0  0  0  0  0  0  0
   36.3620   27.2910   33.6020 H   0  0  0  0  0  0  0  0  0  0  0  0
   35.3820   28.4550   35.1840 C   0  0  2  0  0  0  0  0  0  0  0  0
   36.0910   29.7130   34.6220 C   0  0  0  0  0  0  0  0  0  0  0  0
   36.6850   28.9970   35.7640 C   0  0  1  0  0  0  0  0  0  0  0  0
   34.4370   28.7440   35.6600 H   0  0  0  0  0  0  0  0  0  0  0  0
   36.6110   29.6260   33.6480 H   0  0  0  0  0  0  0  0  0  0  0  0
   35.6810   30.7010   34.8010 H   0  0  0  0  0  0  0  0  0  0  0  0
   37.5860   28.3770   35.5640 H   0  0  0  0  0  0  0  0  0  0  0  0
   36.0500   29.1350   38.1700 C   0  0  0  0  0  3  0  0  0  0  0  0
   36.6830   29.6680   37.0670 C   0  0  0  0  0  0  0  0  0  0  0  0
   37.3270   30.8940   37.2640 C   0  0  0  0  0  0  0  0  0  0  0  0
   37.8270   31.3030   36.3730 H   0  0  0  0  0  0  0  0  0  0  0  0
   37.3650   31.5770   38.4580 C   0  0  0  0  0  0  0  0  0  0  0  0
   37.9450   32.7560   38.7810 N   0  0  0  0  0  0  0  0  0  0  0  0
   37.6650   32.9350   40.0710 C   0  0  0  0  0  0  0  0  0  0  0  0
   37.9930   33.7930   40.6240 H   0  0  0  0  0  0  0  0  0  0  0  0
   36.9250   31.8970   40.5560 N   0  0  0  0  0  0  0  0  0  0  0  0
   36.7260   31.0270   39.5480 C   0  0  0  0  0  0  0  0  0  0  0  0
   36.0780   29.8110   39.3810 C   0  0  0  0  0  3  0  0  0  0  0  0
   38.5000   33.4010   38.1570 H   0  0  0  0  0  0  0  0  0  0  0  0
   34.4700   25.8330   36.1480 C   0  0  0  0  0  0  0  0  0  0  0  0
   33.7960   26.6040   36.4650 H   0  0  0  0  0  0  0  0  0  0  0  0
   33.8910   24.8630   36.1370 H   0  0  0  0  0  0  0  0  0  0  0  0
   35.2200   24.7620   38.1070 C   0  0  0  0  0  3  0  0  0  0  0  0
   35.4930   25.6470   37.2430 C   0  0  0  0  0  3  0  0  0  0  0  0
   37.5120   23.2710   40.5810 C   0  0  0  0  0  0  0  0  0  0  0  0
   37.8780   24.3520   41.3610 C   0  0  0  0  0  0  0  0  0  0  0  0
   37.3320   25.5590   41.0260 C   0  0  0  0  0  0  0  0  0  0  0  0
   36.4760   25.6390   39.9670 N   0  0  0  0  0  0  0  0  0  0  0  0
   36.1420   24.5680   39.2300 C   0  0  0  0  0  0  0  0  0  0  0  0
   36.6730   23.4010   39.5600 N   0  0  0  0  0  0  0  0  0  0  0  0
   37.9550   22.3140   40.8600 H   0  0  0  0  0  0  0  0  0  0  0  0
   38.5400   24.3340   42.1920 H   0  0  0  0  0  0  0  0  0  0  0  0
   37.6220   26.7860   41.7530 C   0  0  0  0  0  0  0  0  0  0  0  0
   38.5210   27.7290   41.3500 C   0  0  0  0  0  0  0  0  0  0  0  0
   38.7890   28.8900   42.0500 C   0  0  0  0  0  0  0  0  0  0  0  0
   38.1250   29.1420   43.2270 C   0  0  0  0  0  0  0  0  0  0  0  0
   37.2100   28.2290   43.6800 C   0  0  0  0  0  0  0  0  0  0  0  0
   36.9900   27.0910   42.9350 C   0  0  0  0  0  0  0  0  0  0  0  0
   39.0750   27.5670   40.4110 H   0  0  0  0  0  0  0  0  0  0  0  0
   39.5110   29.6100   41.6920 H   0  0  0  0  0  0  0  0  0  0  0  0
   38.2940   30.0340   43.8150 H   0  0  0  0  0  0  0  0  0  0  0  0
   36.6780   28.4180   44.6130 H   0  0  0  0  0  0  0  0  0  0  0  0
   36.2410   26.4110   43.3680 H   0  0  0  0  0  0  0  0  0  0  0  0
  1  4  1  6  0  0  0
  1 27  1  0  0  0  0
  2  5  1  0  0  0  0
  2  3  1  0  0  0  0
  2  1  1  0  0  0  0
  3  7  1  6  0  0  0
  3  1  1  0  0  0  0
  3  8  1  0  0  0  0
  6  2  1  0  0  0  0
  8 11  1  1  0  0  0
  8 10  1  0  0  0  0
  9 13  1  0  0  0  0
  9  8  1  0  0  0  0
  9 10  1  0  0  0  0
 10 14  1  6  0  0  0
 10 16  1  0  0  0  0
 12  9  1  0  0  0  0
 15 25  1  0  0  0  0
 16 17  1  0  0  0  0
 16 15  2  0  0  0  0
 17 19  2  0  0  0  0
 18 17  1  0  0  0  0
 19 20  1  0  0  0  0
 19 24  1  0  0  0  0
 20 21  1  0  0  0  0
 21 23  2  0  0  0  0
 21 22  1  0  0  0  0
 24 23  1  0  0  0  0
 25 24  2  0  0  0  0
 26 20  1  0  0  0  0
 27 28  1  0  0  0  0
 27 31  1  0  0  0  0
 29 27  1  0  0  0  0
 30 36  1  0  0  0  0
 31 30  2  0  0  0  0
 32 38  1  0  0  0  0
 32 33  1  0  0  0  0
 33 39  1  0  0  0  0
 34 33  2  0  0  0  0
 34 40  1  0  0  0  0
 35 34  1  0  0  0  0
 36 37  1  0  0  0  0
 36 35  2  0  0  0  0
 37 32  2  0  0  0  0
 40 45  1  0  0  0  0
 41 40  2  0  0  0  0
 41 42  1  0  0  0  0
 42 43  2  0  0  0  0
 43 44  1  0  0  0  0
 43 48  1  0  0  0  0
 44 49  1  0  0  0  0
 45 50  1  0  0  0  0
 45 44  2  0  0  0  0
 46 41  1  0  0  0  0
 47 42  1  0  0  0  0
M  END
>  <minimizedAffinity>
-6.20287943

$$$$
