
 OpenBabel03242513323D

 40 44  0  0  0  0  0  0  0  0999 V2000
   42.2890   34.5180   40.5890 C   0  0  0  0  0  0  0  0  0  0  0  0
   42.6750   35.4170   41.5700 C   0  0  0  0  0  0  0  0  0  0  0  0
   41.8920   36.5140   41.7470 C   0  0  0  0  0  0  0  0  0  0  0  0
   40.7510   36.7340   40.9820 C   0  0  0  0  0  0  0  0  0  0  0  0
   40.3860   35.8330   40.0180 C   0  0  0  0  0  0  0  0  0  0  0  0
   41.1630   34.6860   39.7980 C   0  0  0  0  0  0  0  0  0  0  0  0
   42.1510   37.2480   42.5010 H   0  0  0  0  0  0  0  0  0  0  0  0
   40.1050   37.5860   41.0890 H   0  0  0  0  0  0  0  0  0  0  0  0
   39.5230   35.9120   39.3740 H   0  0  0  0  0  0  0  0  0  0  0  0
   46.0430   35.7040   43.2230 C   0  0  0  0  0  0  0  0  0  0  0  0
   44.9020   36.0190   42.4780 C   0  0  0  0  0  0  0  0  0  0  0  0
   43.8670   35.1350   42.3280 C   0  0  0  0  0  0  0  0  0  0  0  0
   44.0410   33.9310   42.9620 N   0  0  0  0  0  0  0  0  0  0  0  0
   45.1370   33.6200   43.6830 C   0  0  0  0  0  0  0  0  0  0  0  0
   46.1360   34.5150   43.8090 N   0  0  0  0  0  0  0  0  0  0  0  0
   46.7450   36.5120   43.2320 H   0  0  0  0  0  0  0  0  0  0  0  0
   44.7450   36.9750   41.9650 H   0  0  0  0  0  0  0  0  0  0  0  0
   45.1830   32.6410   44.1480 H   0  0  0  0  0  0  0  0  0  0  0  0
   43.0540   33.3810   40.3680 O   0  0  0  0  0  0  0  0  0  0  0  0
   42.9210   32.5450   40.9540 H   0  0  0  0  0  0  0  0  0  0  0  0
   40.8350   33.7600   38.8450 O   0  0  0  0  0  0  0  0  0  0  0  0
   40.0640   32.6710   39.0370 C   0  0  0  0  0  0  0  0  0  0  0  0
   39.3690   31.8780   38.1490 C   0  0  0  0  0  0  0  0  0  0  0  0
   38.6570   30.8210   38.6100 C   0  0  0  0  0  0  0  0  0  0  0  0
   38.6820   30.6050   40.0150 C   0  0  0  0  0  0  0  0  0  0  0  0
   39.7380   31.9360   40.6580 S   0  0  0  0  0  0  0  0  0  0  0  0
   39.4210   32.1360   37.1030 H   0  0  0  0  0  0  0  0  0  0  0  0
   38.0810   30.1410   38.0000 H   0  0  0  0  0  0  0  0  0  0  0  0
   37.5570   28.4370   40.1520 C   0  0  0  0  0  3  0  0  0  0  0  0
   38.0350   29.5860   40.7630 C   0  0  0  0  0  0  0  0  0  0  0  0
   37.9030   29.7910   42.1220 C   0  0  0  0  0  0  0  0  0  0  0  0
   38.2800   30.7000   42.6120 H   0  0  0  0  0  0  0  0  0  0  0  0
   37.2780   28.8260   42.9020 C   0  0  0  0  0  0  0  0  0  0  0  0
   37.0380   28.8070   44.2250 N   0  0  0  0  0  0  0  0  0  0  0  0
   36.4030   27.6300   44.4400 C   0  0  0  0  0  0  0  0  0  0  0  0
   36.0700   27.3110   45.4250 H   0  0  0  0  0  0  0  0  0  0  0  0
   36.2550   26.9400   43.2720 N   0  0  0  0  0  0  0  0  0  0  0  0
   36.8090   27.6900   42.2760 C   0  0  0  0  0  0  0  0  0  0  0  0
   36.9370   27.4790   40.9220 C   0  0  0  0  0  3  0  0  0  0  0  0
   37.2810   29.5290   44.9380 H   0  0  0  0  0  0  0  0  0  0  0  0
  1  2  1  0  0  0  0
  2  3  2  0  0  0  0
  2 12  1  0  0  0  0
  3  7  1  0  0  0  0
  4  8  1  0  0  0  0
  4  3  1  0  0  0  0
  5  4  2  0  0  0  0
  6  5  1  0  0  0  0
  6  1  2  0  0  0  0
  9  5  1  0  0  0  0
 10 16  1  0  0  0  0
 10 15  1  0  0  0  0
 11 10  2  0  0  0  0
 12 11  1  0  0  0  0
 12 13  2  0  0  0  0
 13 14  1  0  0  0  0
 14 15  2  0  0  0  0
 14 18  1  0  0  0  0
 17 11  1  0  0  0  0
 19  1  1  0  0  0  0
 19 20  1  0  0  0  0
 21 22  1  0  0  0  0
 21  6  1  0  0  0  0
 22 26  1  0  0  0  0
 23 24  1  0  0  0  0
 23 22  2  0  0  0  0
 24 25  2  0  0  0  0
 25 26  1  0  0  0  0
 25 30  1  0  0  0  0
 27 23  1  0  0  0  0
 28 24  1  0  0  0  0
 29 30  2  0  0  0  0
 29 39  1  0  0  0  0
 30 31  1  0  0  0  0
 31 32  1  0  0  0  0
 31 33  2  0  0  0  0
 33 34  1  0  0  0  0
 34 35  1  0  0  0  0
 34 40  1  0  0  0  0
 35 36  1  0  0  0  0
 37 35  2  0  0  0  0
 38 33  1  0  0  0  0
 38 37  1  0  0  0  0
 39 38  2  0  0  0  0
M  END
>  <minimizedAffinity>
-7.32315493

$$$$

 OpenBabel03242513323D

 40 44  0  0  0  0  0  0  0  0999 V2000
   38.7900   31.8640   41.1820 C   0  0  0  0  0  0  0  0  0  0  0  0
   38.5960   32.9100   40.2940 C   0  0  0  0  0  0  0  0  0  0  0  0
   37.5680   32.7930   39.4120 C   0  0  0  0  0  0  0  0  0  0  0  0
   36.7400   31.6750   39.3940 C   0  0  0  0  0  0  0  0  0  0  0  0
   36.9480   30.6510   40.2800 C   0  0  0  0  0  0  0  0  0  0  0  0
   37.9970   30.7270   41.2080 C   0  0  0  0  0  0  0  0  0  0  0  0
   37.3750   33.5840   38.6980 H   0  0  0  0  0  0  0  0  0  0  0  0
   35.9180   31.5420   38.7160 H   0  0  0  0  0  0  0  0  0  0  0  0
   36.3640   29.7450   40.3460 H   0  0  0  0  0  0  0  0  0  0  0  0
   39.9620   36.4110   40.4870 C   0  0  0  0  0  0  0  0  0  0  0  0
   39.0630   35.3420   40.4230 C   0  0  0  0  0  0  0  0  0  0  0  0
   39.4870   34.0400   40.3620 C   0  0  0  0  0  0  0  0  0  0  0  0
   40.8490   33.8770   40.3700 N   0  0  0  0  0  0  0  0  0  0  0  0
   41.7220   34.9020   40.4330 C   0  0  0  0  0  0  0  0  0  0  0  0
   41.2690   36.1690   40.4910 N   0  0  0  0  0  0  0  0  0  0  0  0
   39.4550   37.3520   40.5290 H   0  0  0  0  0  0  0  0  0  0  0  0
   37.9730   35.4520   40.4150 H   0  0  0  0  0  0  0  0  0  0  0  0
   42.7820   34.6720   40.4340 H   0  0  0  0  0  0  0  0  0  0  0  0
   39.8260   31.9340   42.1020 O   0  0  0  0  0  0  0  0  0  0  0  0
   39.6990   32.4430   42.9870 H   0  0  0  0  0  0  0  0  0  0  0  0
   38.2390   29.7270   42.1100 O   0  0  0  0  0  0  0  0  0  0  0  0
   37.8240   28.4500   42.0020 C   0  0  0  0  0  0  0  0  0  0  0  0
   37.1540   27.6310   42.8850 C   0  0  0  0  0  0  0  0  0  0  0  0
   36.8500   26.3600   42.5220 C   0  0  0  0  0  0  0  0  0  0  0  0
   37.2580   25.9580   41.2210 C   0  0  0  0  0  0  0  0  0  0  0  0
   38.0790   27.4250   40.5320 S   0  0  0  0  0  0  0  0  0  0  0  0
   36.8940   28.0420   43.8480 H   0  0  0  0  0  0  0  0  0  0  0  0
   36.3290   25.6420   43.1380 H   0  0  0  0  0  0  0  0  0  0  0  0
   36.1310   24.5320   39.5840 C   0  0  0  0  0  3  0  0  0  0  0  0
   37.0730   24.7020   40.5880 C   0  0  0  0  0  0  0  0  0  0  0  0
   37.8690   23.6580   41.0150 C   0  0  0  0  0  0  0  0  0  0  0  0
   38.6170   23.7860   41.8120 H   0  0  0  0  0  0  0  0  0  0  0  0
   37.7310   22.4060   40.4300 C   0  0  0  0  0  0  0  0  0  0  0  0
   38.3860   21.2580   40.6800 N   0  0  0  0  0  0  0  0  0  0  0  0
   37.8450   20.3630   39.8190 C   0  0  0  0  0  0  0  0  0  0  0  0
   38.1660   19.3250   39.7700 H   0  0  0  0  0  0  0  0  0  0  0  0
   36.8770   20.9490   39.0550 N   0  0  0  0  0  0  0  0  0  0  0  0
   36.7890   22.2570   39.4340 C   0  0  0  0  0  0  0  0  0  0  0  0
   35.9910   23.2920   39.0010 C   0  0  0  0  0  3  0  0  0  0  0  0
   39.1430   21.0820   41.3750 H   0  0  0  0  0  0  0  0  0  0  0  0
  1  6  1  0  0  0  0
  1 19  1  0  0  0  0
  2 12  1  0  0  0  0
  2  1  2  0  0  0  0
  3  2  1  0  0  0  0
  4  3  2  0  0  0  0
  4  5  1  0  0  0  0
  5  9  1  0  0  0  0
  5  6  2  0  0  0  0
  6 21  1  0  0  0  0
  7  3  1  0  0  0  0
  8  4  1  0  0  0  0
 10 15  1  0  0  0  0
 10 16  1  0  0  0  0
 11 10  2  0  0  0  0
 12 13  2  0  0  0  0
 12 11  1  0  0  0  0
 13 14  1  0  0  0  0
 14 18  1  0  0  0  0
 14 15  2  0  0  0  0
 17 11  1  0  0  0  0
 19 20  1  0  0  0  0
 22 21  1  0  0  0  0
 22 23  2  0  0  0  0
 23 27  1  0  0  0  0
 24 23  1  0  0  0  0
 24 28  1  0  0  0  0
 25 24  2  0  0  0  0
 26 25  1  0  0  0  0
 26 22  1  0  0  0  0
 29 30  1  0  0  0  0
 30 31  2  0  0  0  0
 30 25  1  0  0  0  0
 31 32  1  0  0  0  0
 33 34  1  0  0  0  0
 33 31  1  0  0  0  0
 34 40  1  0  0  0  0
 35 34  1  0  0  0  0
 36 35  1  0  0  0  0
 37 38  1  0  0  0  0
 37 35  2  0  0  0  0
 38 33  2  0  0  0  0
 39 38  1  0  0  0  0
 39 29  2  0  0  0  0
M  END
>  <minimizedAffinity>
-7.22013092

$$$$

 OpenBabel03242513323D

 40 44  0  0  0  0  0  0  0  0999 V2000
   41.7830   34.5390   40.9940 C   0  0  0  0  0  0  0  0  0  0  0  0
   42.0100   35.8060   41.5060 C   0  0  0  0  0  0  0  0  0  0  0  0
   41.1300   36.7820   41.1590 C   0  0  0  0  0  0  0  0  0  0  0  0
   40.0450   36.5300   40.3250 C   0  0  0  0  0  0  0  0  0  0  0  0
   39.8380   35.2710   39.8280 C   0  0  0  0  0  0  0  0  0  0  0  0
   40.7190   34.2320   40.1590 C   0  0  0  0  0  0  0  0  0  0  0  0
   41.2640   37.7900   41.5330 H   0  0  0  0  0  0  0  0  0  0  0  0
   39.3270   37.2710   40.0250 H   0  0  0  0  0  0  0  0  0  0  0  0
   39.0300   34.9750   39.1760 H   0  0  0  0  0  0  0  0  0  0  0  0
   44.2180   36.7860   44.3910 C   0  0  0  0  0  0  0  0  0  0  0  0
   43.0860   36.6130   43.5890 C   0  0  0  0  0  0  0  0  0  0  0  0
   43.1500   36.0040   42.3640 C   0  0  0  0  0  0  0  0  0  0  0  0
   44.4020   35.5820   41.9960 N   0  0  0  0  0  0  0  0  0  0  0  0
   45.4990   35.7450   42.7630 C   0  0  0  0  0  0  0  0  0  0  0  0
   45.3980   36.3490   43.9630 N   0  0  0  0  0  0  0  0  0  0  0  0
   43.9810   37.2800   45.3100 H   0  0  0  0  0  0  0  0  0  0  0  0
   42.0770   36.9430   43.8660 H   0  0  0  0  0  0  0  0  0  0  0  0
   46.4480   35.3770   42.3850 H   0  0  0  0  0  0  0  0  0  0  0  0
   42.6510   33.5060   41.3190 O   0  0  0  0  0  0  0  0  0  0  0  0
   42.5350   32.9900   42.2010 H   0  0  0  0  0  0  0  0  0  0  0  0
   40.5490   32.9590   39.6860 O   0  0  0  0  0  0  0  0  0  0  0  0
   39.6690   32.0530   40.1580 C   0  0  0  0  0  0  0  0  0  0  0  0
   38.3420   32.1700   40.5130 C   0  0  0  0  0  0  0  0  0  0  0  0
   37.6730   31.0830   40.9690 C   0  0  0  0  0  0  0  0  0  0  0  0
   38.4110   29.8710   41.0500 C   0  0  0  0  0  0  0  0  0  0  0  0
   40.0720   30.3150   40.4630 S   0  0  0  0  0  0  0  0  0  0  0  0
   37.8820   33.1400   40.4110 H   0  0  0  0  0  0  0  0  0  0  0  0
   36.6360   31.0700   41.2720 H   0  0  0  0  0  0  0  0  0  0  0  0
   37.1570   28.4570   42.6020 C   0  0  0  0  0  3  0  0  0  0  0  0
   37.9680   28.5960   41.4860 C   0  0  0  0  0  0  0  0  0  0  0  0
   38.3810   27.5010   40.7520 C   0  0  0  0  0  0  0  0  0  0  0  0
   39.0250   27.6050   39.8670 H   0  0  0  0  0  0  0  0  0  0  0  0
   37.9780   26.2280   41.1350 C   0  0  0  0  0  0  0  0  0  0  0  0
   38.2510   25.0330   40.5830 N   0  0  0  0  0  0  0  0  0  0  0  0
   37.6000   24.1380   41.3650 C   0  0  0  0  0  0  0  0  0  0  0  0
   37.6230   23.0670   41.1800 H   0  0  0  0  0  0  0  0  0  0  0  0
   36.9400   24.7720   42.3780 N   0  0  0  0  0  0  0  0  0  0  0  0
   37.1710   26.1110   42.2470 C   0  0  0  0  0  0  0  0  0  0  0  0
   36.7550   27.1970   42.9840 C   0  0  0  0  0  3  0  0  0  0  0  0
   38.8310   24.8250   39.7410 H   0  0  0  0  0  0  0  0  0  0  0  0
  1 19  1  0  0  0  0
  1  2  1  0  0  0  0
  2 12  1  0  0  0  0
  3  2  2  0  0  0  0
  3  7  1  0  0  0  0
  4  3  1  0  0  0  0
  5  6  1  0  0  0  0
  5  4  2  0  0  0  0
  6  1  2  0  0  0  0
  8  4  1  0  0  0  0
  9  5  1  0  0  0  0
 10 16  1  0  0  0  0
 11 17  1  0  0  0  0
 11 10  2  0  0  0  0
 12 11  1  0  0  0  0
 13 12  2  0  0  0  0
 13 14  1  0  0  0  0
 14 15  2  0  0  0  0
 15 10  1  0  0  0  0
 18 14  1  0  0  0  0
 19 20  1  0  0  0  0
 21 22  1  0  0  0  0
 21  6  1  0  0  0  0
 22 26  1  0  0  0  0
 22 23  2  0  0  0  0
 23 24  1  0  0  0  0
 24 25  2  0  0  0  0
 24 28  1  0  0  0  0
 25 30  1  0  0  0  0
 26 25  1  0  0  0  0
 27 23  1  0  0  0  0
 29 39  1  0  0  0  0
 30 29  2  0  0  0  0
 31 33  2  0  0  0  0
 31 30  1  0  0  0  0
 32 31  1  0  0  0  0
 33 38  1  0  0  0  0
 34 33  1  0  0  0  0
 34 35  1  0  0  0  0
 35 37  2  0  0  0  0
 36 35  1  0  0  0  0
 38 37  1  0  0  0  0
 38 39  2  0  0  0  0
 40 34  1  0  0  0  0
M  END
>  <minimizedAffinity>
-7.19191122

$$$$

 OpenBabel03242513323D

 40 44  0  0  0  0  0  0  0  0999 V2000
   42.8770   34.5350   40.8420 C   0  0  0  0  0  0  0  0  0  0  0  0
   44.1670   34.6960   41.3220 C   0  0  0  0  0  0  0  0  0  0  0  0
   45.1860   34.3930   40.4750 C   0  0  0  0  0  0  0  0  0  0  0  0
   44.9550   33.9390   39.1800 C   0  0  0  0  0  0  0  0  0  0  0  0
   43.6730   33.7860   38.7240 C   0  0  0  0  0  0  0  0  0  0  0  0
   42.5890   34.0860   39.5620 C   0  0  0  0  0  0  0  0  0  0  0  0
   46.2130   34.5020   40.8030 H   0  0  0  0  0  0  0  0  0  0  0  0
   45.7300   33.6880   38.4800 H   0  0  0  0  0  0  0  0  0  0  0  0
   43.3890   33.4410   37.7410 H   0  0  0  0  0  0  0  0  0  0  0  0
   45.2700   35.0360   44.9030 C   0  0  0  0  0  0  0  0  0  0  0  0
   45.1280   34.5440   43.6030 C   0  0  0  0  0  0  0  0  0  0  0  0
   44.3420   35.1690   42.6710 C   0  0  0  0  0  0  0  0  0  0  0  0
   43.7140   36.3040   43.1170 N   0  0  0  0  0  0  0  0  0  0  0  0
   43.8460   36.7860   44.3690 C   0  0  0  0  0  0  0  0  0  0  0  0
   44.6280   36.1450   45.2590 N   0  0  0  0  0  0  0  0  0  0  0  0
   45.9200   34.4220   45.4910 H   0  0  0  0  0  0  0  0  0  0  0  0
   45.6220   33.6390   43.2280 H   0  0  0  0  0  0  0  0  0  0  0  0
   43.3080   37.6930   44.6280 H   0  0  0  0  0  0  0  0  0  0  0  0
   41.8010   34.8310   41.6660 O   0  0  0  0  0  0  0  0  0  0  0  0
   41.4690   35.8010   41.7560 H   0  0  0  0  0  0  0  0  0  0  0  0
   41.2920   33.9470   39.1470 O   0  0  0  0  0  0  0  0  0  0  0  0
   40.5420   32.8340   39.2650 C   0  0  0  0  0  0  0  0  0  0  0  0
   40.0170   31.9840   38.3150 C   0  0  0  0  0  0  0  0  0  0  0  0
   39.2820   30.9140   38.7070 C   0  0  0  0  0  0  0  0  0  0  0  0
   39.1040   30.7460   40.1070 C   0  0  0  0  0  0  0  0  0  0  0  0
   40.0030   32.1400   40.8470 S   0  0  0  0  0  0  0  0  0  0  0  0
   40.2160   32.2090   37.2790 H   0  0  0  0  0  0  0  0  0  0  0  0
   38.8290   30.1910   38.0450 H   0  0  0  0  0  0  0  0  0  0  0  0
   37.9320   28.5990   40.1250 C   0  0  0  0  0  3  0  0  0  0  0  0
   38.3900   29.7270   40.7890 C   0  0  0  0  0  0  0  0  0  0  0  0
   38.1710   29.9090   42.1400 C   0  0  0  0  0  0  0  0  0  0  0  0
   38.5300   30.8010   42.6730 H   0  0  0  0  0  0  0  0  0  0  0  0
   37.4770   28.9420   42.8580 C   0  0  0  0  0  0  0  0  0  0  0  0
   37.1490   28.9040   44.1620 N   0  0  0  0  0  0  0  0  0  0  0  0
   36.4790   27.7360   44.3110 C   0  0  0  0  0  0  0  0  0  0  0  0
   36.0750   27.4050   45.2650 H   0  0  0  0  0  0  0  0  0  0  0  0
   36.3970   27.0700   43.1220 N   0  0  0  0  0  0  0  0  0  0  0  0
   37.0300   27.8280   42.1800 C   0  0  0  0  0  0  0  0  0  0  0  0
   37.2440   27.6390   40.8330 C   0  0  0  0  0  3  0  0  0  0  0  0
   37.3570   29.6070   44.9040 H   0  0  0  0  0  0  0  0  0  0  0  0
  1  2  1  0  0  0  0
  1 19  1  0  0  0  0
  2 12  1  0  0  0  0
  3  7  1  0  0  0  0
  3  2  2  0  0  0  0
  4  3  1  0  0  0  0
  5  4  2  0  0  0  0
  5  6  1  0  0  0  0
  6  1  2  0  0  0  0
  8  4  1  0  0  0  0
  9  5  1  0  0  0  0
 10 15  1  0  0  0  0
 10 16  1  0  0  0  0
 11 10  2  0  0  0  0
 12 13  2  0  0  0  0
 12 11  1  0  0  0  0
 13 14  1  0  0  0  0
 14 18  1  0  0  0  0
 14 15  2  0  0  0  0
 17 11  1  0  0  0  0
 19 20  1  0  0  0  0
 21 22  1  0  0  0  0
 21  6  1  0  0  0  0
 22 26  1  0  0  0  0
 23 24  1  0  0  0  0
 23 22  2  0  0  0  0
 24 25  2  0  0  0  0
 25 30  1  0  0  0  0
 25 26  1  0  0  0  0
 27 23  1  0  0  0  0
 28 24  1  0  0  0  0
 29 30  2  0  0  0  0
 29 39  1  0  0  0  0
 30 31  1  0  0  0  0
 31 32  1  0  0  0  0
 31 33  2  0  0  0  0
 33 34  1  0  0  0  0
 34 35  1  0  0  0  0
 34 40  1  0  0  0  0
 35 36  1  0  0  0  0
 37 35  2  0  0  0  0
 38 33  1  0  0  0  0
 38 37  1  0  0  0  0
 39 38  2  0  0  0  0
M  END
>  <minimizedAffinity>
-7.18653536

$$$$

 OpenBabel03242513323D

 40 44  0  0  0  0  0  0  0  0999 V2000
   39.5140   33.4460   40.3720 C   0  0  0  0  0  0  0  0  0  0  0  0
   40.7670   33.8620   39.9520 C   0  0  0  0  0  0  0  0  0  0  0  0
   41.1860   33.4350   38.7310 C   0  0  0  0  0  0  0  0  0  0  0  0
   40.3980   32.6150   37.9300 C   0  0  0  0  0  0  0  0  0  0  0  0
   39.1620   32.2140   38.3630 C   0  0  0  0  0  0  0  0  0  0  0  0
   38.6880   32.6290   39.6150 C   0  0  0  0  0  0  0  0  0  0  0  0
   42.1580   33.7330   38.3580 H   0  0  0  0  0  0  0  0  0  0  0  0
   40.6900   32.2550   36.9610 H   0  0  0  0  0  0  0  0  0  0  0  0
   38.4780   31.5800   37.8190 H   0  0  0  0  0  0  0  0  0  0  0  0
   43.4600   35.2110   42.2080 C   0  0  0  0  0  0  0  0  0  0  0  0
   42.7460   34.3570   41.3620 C   0  0  0  0  0  0  0  0  0  0  0  0
   41.5350   34.7110   40.8270 C   0  0  0  0  0  0  0  0  0  0  0  0
   41.0890   35.9570   41.1860 N   0  0  0  0  0  0  0  0  0  0  0  0
   41.7720   36.7860   42.0010 C   0  0  0  0  0  0  0  0  0  0  0  0
   42.9590   36.4050   42.5090 N   0  0  0  0  0  0  0  0  0  0  0  0
   44.3810   34.7710   42.5290 H   0  0  0  0  0  0  0  0  0  0  0  0
   43.0860   33.3590   41.0630 H   0  0  0  0  0  0  0  0  0  0  0  0
   41.3360   37.7540   42.2280 H   0  0  0  0  0  0  0  0  0  0  0  0
   39.0390   33.8540   41.6100 O   0  0  0  0  0  0  0  0  0  0  0  0
   38.5860   34.7730   41.7140 H   0  0  0  0  0  0  0  0  0  0  0  0
   37.4590   32.2520   40.0860 O   0  0  0  0  0  0  0  0  0  0  0  0
   37.0480   30.9850   40.2910 C   0  0  0  0  0  0  0  0  0  0  0  0
   35.7910   30.4540   40.4880 C   0  0  0  0  0  0  0  0  0  0  0  0
   35.6500   29.1190   40.6750 C   0  0  0  0  0  0  0  0  0  0  0  0
   36.8430   28.3460   40.6540 C   0  0  0  0  0  0  0  0  0  0  0  0
   38.1630   29.5600   40.3630 S   0  0  0  0  0  0  0  0  0  0  0  0
   34.9550   31.1360   40.4840 H   0  0  0  0  0  0  0  0  0  0  0  0
   34.7130   28.6060   40.8370 H   0  0  0  0  0  0  0  0  0  0  0  0
   37.1030   26.3760   42.0800 C   0  0  0  0  0  3  0  0  0  0  0  0
   36.9890   26.9440   40.8200 C   0  0  0  0  0  0  0  0  0  0  0  0
   37.0130   26.1740   39.6750 C   0  0  0  0  0  0  0  0  0  0  0  0
   36.9240   26.6180   38.6730 H   0  0  0  0  0  0  0  0  0  0  0  0
   37.1540   24.7950   39.7790 C   0  0  0  0  0  0  0  0  0  0  0  0
   37.2040   23.8570   38.8170 N   0  0  0  0  0  0  0  0  0  0  0  0
   37.3500   22.6890   39.4870 C   0  0  0  0  0  0  0  0  0  0  0  0
   37.4220   21.7260   38.9860 H   0  0  0  0  0  0  0  0  0  0  0  0
   37.3890   22.9050   40.8350 N   0  0  0  0  0  0  0  0  0  0  0  0
   37.2660   24.2490   41.0400 C   0  0  0  0  0  0  0  0  0  0  0  0
   37.2430   25.0100   42.1870 C   0  0  0  0  0  3  0  0  0  0  0  0
   37.1440   23.9840   37.7840 H   0  0  0  0  0  0  0  0  0  0  0  0
  1 19  1  0  0  0  0
  2  1  1  0  0  0  0
  2 12  1  0  0  0  0
  3  2  2  0  0  0  0
  4  5  2  0  0  0  0
  4  3  1  0  0  0  0
  5  6  1  0  0  0  0
  6 21  1  0  0  0  0
  6  1  2  0  0  0  0
  7  3  1  0  0  0  0
  8  4  1  0  0  0  0
  9  5  1  0  0  0  0
 10 15  1  0  0  0  0
 10 16  1  0  0  0  0
 11 10  2  0  0  0  0
 12 13  2  0  0  0  0
 12 11  1  0  0  0  0
 13 14  1  0  0  0  0
 14 18  1  0  0  0  0
 14 15  2  0  0  0  0
 17 11  1  0  0  0  0
 19 20  1  0  0  0  0
 21 22  1  0  0  0  0
 22 26  1  0  0  0  0
 22 23  2  0  0  0  0
 23 24  1  0  0  0  0
 24 28  1  0  0  0  0
 25 24  2  0  0  0  0
 25 30  1  0  0  0  0
 26 25  1  0  0  0  0
 27 23  1  0  0  0  0
 29 39  1  0  0  0  0
 30 29  2  0  0  0  0
 31 33  2  0  0  0  0
 31 30  1  0  0  0  0
 32 31  1  0  0  0  0
 33 38  1  0  0  0  0
 34 35  1  0  0  0  0
 34 33  1  0  0  0  0
 35 37  2  0  0  0  0
 36 35  1  0  0  0  0
 37 38  1  0  0  0  0
 38 39  2  0  0  0  0
 40 34  1  0  0  0  0
M  END
>  <minimizedAffinity>
-6.95073891

$$$$

 OpenBabel03242513323D

 40 44  0  0  0  0  0  0  0  0999 V2000
   40.7790   33.7470   39.5530 C   0  0  0  0  0  0  0  0  0  0  0  0
   41.7110   34.6230   40.0860 C   0  0  0  0  0  0  0  0  0  0  0  0
   41.2340   35.6920   40.7770 C   0  0  0  0  0  0  0  0  0  0  0  0
   39.8700   35.9060   40.9470 C   0  0  0  0  0  0  0  0  0  0  0  0
   38.9640   35.0290   40.4120 C   0  0  0  0  0  0  0  0  0  0  0  0
   39.4090   33.9120   39.6910 C   0  0  0  0  0  0  0  0  0  0  0  0
   41.9220   36.4050   41.2140 H   0  0  0  0  0  0  0  0  0  0  0  0
   39.4500   36.7360   41.4850 H   0  0  0  0  0  0  0  0  0  0  0  0
   37.8900   35.1070   40.4870 H   0  0  0  0  0  0  0  0  0  0  0  0
   45.3740   33.9620   40.6420 C   0  0  0  0  0  0  0  0  0  0  0  0
   44.0240   34.2310   40.8890 C   0  0  0  0  0  0  0  0  0  0  0  0
   43.1090   34.3460   39.8760 C   0  0  0  0  0  0  0  0  0  0  0  0
   43.6220   34.1770   38.6150 N   0  0  0  0  0  0  0  0  0  0  0  0
   44.9220   33.9170   38.3680 C   0  0  0  0  0  0  0  0  0  0  0  0
   45.7940   33.8110   39.3890 N   0  0  0  0  0  0  0  0  0  0  0  0
   45.9390   33.9070   41.5480 H   0  0  0  0  0  0  0  0  0  0  0  0
   43.5960   34.3690   41.8890 H   0  0  0  0  0  0  0  0  0  0  0  0
   45.2330   33.7990   37.3350 H   0  0  0  0  0  0  0  0  0  0  0  0
   41.2140   32.6390   38.8390 O   0  0  0  0  0  0  0  0  0  0  0  0
   41.4930   31.7810   39.3330 H   0  0  0  0  0  0  0  0  0  0  0  0
   38.5390   33.0110   39.1400 O   0  0  0  0  0  0  0  0  0  0  0  0
   37.9700   31.9720   39.7820 C   0  0  0  0  0  0  0  0  0  0  0  0
   36.7950   31.8750   40.4980 C   0  0  0  0  0  0  0  0  0  0  0  0
   36.4460   30.6890   41.0550 C   0  0  0  0  0  0  0  0  0  0  0  0
   37.3440   29.6050   40.8530 C   0  0  0  0  0  0  0  0  0  0  0  0
   38.6880   30.3120   39.8570 S   0  0  0  0  0  0  0  0  0  0  0  0
   36.1900   32.7630   40.5870 H   0  0  0  0  0  0  0  0  0  0  0  0
   35.5510   30.5090   41.6320 H   0  0  0  0  0  0  0  0  0  0  0  0
   36.9240   27.9880   42.6390 C   0  0  0  0  0  3  0  0  0  0  0  0
   37.2310   28.2690   41.3170 C   0  0  0  0  0  0  0  0  0  0  0  0
   37.4430   27.2630   40.3950 C   0  0  0  0  0  0  0  0  0  0  0  0
   37.6880   27.4790   39.3450 H   0  0  0  0  0  0  0  0  0  0  0  0
   37.3460   25.9360   40.7940 C   0  0  0  0  0  0  0  0  0  0  0  0
   37.5080   24.8060   40.0840 N   0  0  0  0  0  0  0  0  0  0  0  0
   37.2970   23.8080   40.9760 C   0  0  0  0  0  0  0  0  0  0  0  0
   37.3560   22.7560   40.7080 H   0  0  0  0  0  0  0  0  0  0  0  0
   37.0110   24.3160   42.2110 N   0  0  0  0  0  0  0  0  0  0  0  0
   37.0390   25.6770   42.1130 C   0  0  0  0  0  0  0  0  0  0  0  0
   36.8270   26.6740   43.0390 C   0  0  0  0  0  3  0  0  0  0  0  0
   37.7420   24.7040   39.0720 H   0  0  0  0  0  0  0  0  0  0  0  0
  1  6  2  0  0  0  0
  1  2  1  0  0  0  0
  2  3  2  0  0  0  0
  3  4  1  0  0  0  0
  3  7  1  0  0  0  0
  4  8  1  0  0  0  0
  5  9  1  0  0  0  0
  5  4  2  0  0  0  0
  6  5  1  0  0  0  0
 10 11  1  0  0  0  0
 10 16  1  0  0  0  0
 11 17  1  0  0  0  0
 12  2  1  0  0  0  0
 12 11  2  0  0  0  0
 13 12  1  0  0  0  0
 14 13  2  0  0  0  0
 14 15  1  0  0  0  0
 15 10  2  0  0  0  0
 18 14  1  0  0  0  0
 19 20  1  0  0  0  0
 19  1  1  0  0  0  0
 21  6  1  0  0  0  0
 21 22  1  0  0  0  0
 22 26  1  0  0  0  0
 22 23  2  0  0  0  0
 23 27  1  0  0  0  0
 23 24  1  0  0  0  0
 24 28  1  0  0  0  0
 25 24  2  0  0  0  0
 25 30  1  0  0  0  0
 26 25  1  0  0  0  0
 29 39  1  0  0  0  0
 30 29  2  0  0  0  0
 31 33  2  0  0  0  0
 31 30  1  0  0  0  0
 32 31  1  0  0  0  0
 33 38  1  0  0  0  0
 34 33  1  0  0  0  0
 34 35  1  0  0  0  0
 35 37  2  0  0  0  0
 36 35  1  0  0  0  0
 38 37  1  0  0  0  0
 38 39  2  0  0  0  0
 40 34  1  0  0  0  0
M  END
>  <minimizedAffinity>
-6.55413437

$$$$

 OpenBabel03242513323D

 40 44  0  0  0  0  0  0  0  0999 V2000
   38.1930   31.9150   40.7800 C   0  0  0  0  0  0  0  0  0  0  0  0
   38.3780   32.6370   39.6120 C   0  0  0  0  0  0  0  0  0  0  0  0
   37.7250   32.2010   38.5020 C   0  0  0  0  0  0  0  0  0  0  0  0
   36.9040   31.0780   38.5280 C   0  0  0  0  0  0  0  0  0  0  0  0
   36.7330   30.3770   39.6920 C   0  0  0  0  0  0  0  0  0  0  0  0
   37.3870   30.7900   40.8620 C   0  0  0  0  0  0  0  0  0  0  0  0
   37.8370   32.7310   37.5640 H   0  0  0  0  0  0  0  0  0  0  0  0
   36.3700   30.6990   37.6760 H   0  0  0  0  0  0  0  0  0  0  0  0
   36.1200   29.4970   39.8150 H   0  0  0  0  0  0  0  0  0  0  0  0
   41.3440   34.9270   39.2670 C   0  0  0  0  0  0  0  0  0  0  0  0
   40.5400   33.7850   39.2130 C   0  0  0  0  0  0  0  0  0  0  0  0
   39.2410   33.7900   39.6490 C   0  0  0  0  0  0  0  0  0  0  0  0
   38.8030   34.9950   40.1370 N   0  0  0  0  0  0  0  0  0  0  0  0
   39.5720   36.1000   40.1920 C   0  0  0  0  0  0  0  0  0  0  0  0
   40.8450   36.0580   39.7550 N   0  0  0  0  0  0  0  0  0  0  0  0
   42.3260   34.7380   38.8850 H   0  0  0  0  0  0  0  0  0  0  0  0
   40.8720   32.8140   38.8260 H   0  0  0  0  0  0  0  0  0  0  0  0
   39.1350   37.0090   40.5960 H   0  0  0  0  0  0  0  0  0  0  0  0
   38.8360   32.3190   41.9410 O   0  0  0  0  0  0  0  0  0  0  0  0
   38.4280   33.0580   42.5290 H   0  0  0  0  0  0  0  0  0  0  0  0
   37.2440   30.1190   42.0470 O   0  0  0  0  0  0  0  0  0  0  0  0
   38.0950   29.1960   42.5370 C   0  0  0  0  0  0  0  0  0  0  0  0
   37.8990   28.1490   43.4120 C   0  0  0  0  0  0  0  0  0  0  0  0
   38.9440   27.3540   43.7500 C   0  0  0  0  0  0  0  0  0  0  0  0
   40.1980   27.6700   43.1590 C   0  0  0  0  0  0  0  0  0  0  0  0
   39.8540   29.1180   42.1170 S   0  0  0  0  0  0  0  0  0  0  0  0
   36.9030   28.0020   43.8000 H   0  0  0  0  0  0  0  0  0  0  0  0
   38.8960   26.5120   44.4240 H   0  0  0  0  0  0  0  0  0  0  0  0
   41.7320   25.8280   42.6750 C   0  0  0  0  0  3  0  0  0  0  0  0
   41.4440   27.0150   43.3320 C   0  0  0  0  0  0  0  0  0  0  0  0
   42.3560   27.6090   44.1820 C   0  0  0  0  0  0  0  0  0  0  0  0
   42.1340   28.5500   44.7070 H   0  0  0  0  0  0  0  0  0  0  0  0
   43.5920   27.0100   44.3880 C   0  0  0  0  0  0  0  0  0  0  0  0
   44.6230   27.3990   45.1600 N   0  0  0  0  0  0  0  0  0  0  0  0
   45.5650   26.4420   44.9790 C   0  0  0  0  0  0  0  0  0  0  0  0
   46.5330   26.4670   45.4730 H   0  0  0  0  0  0  0  0  0  0  0  0
   45.1210   25.4830   44.1140 N   0  0  0  0  0  0  0  0  0  0  0  0
   43.8590   25.8300   43.7260 C   0  0  0  0  0  0  0  0  0  0  0  0
   42.9560   25.2310   42.8770 C   0  0  0  0  0  3  0  0  0  0  0  0
   44.6960   28.2450   45.7650 H   0  0  0  0  0  0  0  0  0  0  0  0
  1  6  1  0  0  0  0
  1 19  1  0  0  0  0
  2 12  1  0  0  0  0
  2  1  2  0  0  0  0
  3  4  2  0  0  0  0
  3  2  1  0  0  0  0
  4  5  1  0  0  0  0
  5  9  1  0  0  0  0
  5  6  2  0  0  0  0
  6 21  1  0  0  0  0
  7  3  1  0  0  0  0
  8  4  1  0  0  0  0
 10 15  1  0  0  0  0
 11 10  2  0  0  0  0
 11 12  1  0  0  0  0
 12 13  2  0  0  0  0
 13 14  1  0  0  0  0
 14 18  1  0  0  0  0
 15 14  2  0  0  0  0
 16 10  1  0  0  0  0
 17 11  1  0  0  0  0
 19 20  1  0  0  0  0
 21 22  1  0  0  0  0
 22 23  2  0  0  0  0
 23 24  1  0  0  0  0
 23 27  1  0  0  0  0
 24 28  1  0  0  0  0
 25 30  1  0  0  0  0
 25 24  2  0  0  0  0
 26 22  1  0  0  0  0
 26 25  1  0  0  0  0
 29 39  2  0  0  0  0
 29 30  1  0  0  0  0
 30 31  2  0  0  0  0
 31 33  1  0  0  0  0
 31 32  1  0  0  0  0
 33 34  1  0  0  0  0
 34 40  1  0  0  0  0
 35 34  1  0  0  0  0
 35 36  1  0  0  0  0
 37 35  2  0  0  0  0
 38 37  1  0  0  0  0
 38 33  2  0  0  0  0
 39 38  1  0  0  0  0
M  END
>  <minimizedAffinity>
-6.47371006

$$$$

 OpenBabel03242513323D

 40 44  0  0  0  0  0  0  0  0999 V2000
   40.5450   34.0720   40.8970 C   0  0  0  0  0  0  0  0  0  0  0  0
   41.3730   35.1800   40.8140 C   0  0  0  0  0  0  0  0  0  0  0  0
   40.8150   36.3400   40.3780 C   0  0  0  0  0  0  0  0  0  0  0  0
   39.4700   36.4210   40.0280 C   0  0  0  0  0  0  0  0  0  0  0  0
   38.6690   35.3150   40.1160 C   0  0  0  0  0  0  0  0  0  0  0  0
   39.2010   34.0960   40.5600 C   0  0  0  0  0  0  0  0  0  0  0  0
   41.4190   37.2350   40.2960 H   0  0  0  0  0  0  0  0  0  0  0  0
   38.9890   37.3170   39.6790 H   0  0  0  0  0  0  0  0  0  0  0  0
   37.6180   35.2750   39.8680 H   0  0  0  0  0  0  0  0  0  0  0  0
   44.6700   35.4880   42.6000 C   0  0  0  0  0  0  0  0  0  0  0  0
   43.3230   35.6590   42.2690 C   0  0  0  0  0  0  0  0  0  0  0  0
   42.7560   35.0320   41.1910 C   0  0  0  0  0  0  0  0  0  0  0  0
   43.6100   34.2340   40.4740 N   0  0  0  0  0  0  0  0  0  0  0  0
   44.9100   34.0640   40.7870 C   0  0  0  0  0  0  0  0  0  0  0  0
   45.4340   34.6960   41.8540 N   0  0  0  0  0  0  0  0  0  0  0  0
   44.9390   36.0520   43.4690 H   0  0  0  0  0  0  0  0  0  0  0  0
   42.6250   36.2920   42.8300 H   0  0  0  0  0  0  0  0  0  0  0  0
   45.5070   33.4110   40.1580 H   0  0  0  0  0  0  0  0  0  0  0  0
   41.0660   32.8630   41.3360 O   0  0  0  0  0  0  0  0  0  0  0  0
   41.1490   32.6700   42.3440 H   0  0  0  0  0  0  0  0  0  0  0  0
   38.4350   32.9660   40.6640 O   0  0  0  0  0  0  0  0  0  0  0  0
   38.0350   32.1890   39.6390 C   0  0  0  0  0  0  0  0  0  0  0  0
   38.4950   32.0790   38.3440 C   0  0  0  0  0  0  0  0  0  0  0  0
   37.9040   31.2020   37.4950 C   0  0  0  0  0  0  0  0  0  0  0  0
   36.8250   30.4410   38.0200 C   0  0  0  0  0  0  0  0  0  0  0  0
   36.6720   31.0010   39.7420 S   0  0  0  0  0  0  0  0  0  0  0  0
   39.3220   32.7080   38.0530 H   0  0  0  0  0  0  0  0  0  0  0  0
   38.1880   31.0410   36.4650 H   0  0  0  0  0  0  0  0  0  0  0  0
   34.8410   29.0150   37.9100 C   0  0  0  0  0  3  0  0  0  0  0  0
   36.0350   29.4610   37.3640 C   0  0  0  0  0  0  0  0  0  0  0  0
   36.5080   28.9730   36.1620 C   0  0  0  0  0  0  0  0  0  0  0  0
   37.4550   29.3220   35.7250 H   0  0  0  0  0  0  0  0  0  0  0  0
   35.7750   28.0120   35.4770 C   0  0  0  0  0  0  0  0  0  0  0  0
   36.0330   27.3990   34.3080 N   0  0  0  0  0  0  0  0  0  0  0  0
   34.9850   26.5610   34.1230 C   0  0  0  0  0  0  0  0  0  0  0  0
   34.8940   25.9130   33.2540 H   0  0  0  0  0  0  0  0  0  0  0  0
   34.1000   26.6570   35.1590 N   0  0  0  0  0  0  0  0  0  0  0  0
   34.5900   27.5800   36.0350 C   0  0  0  0  0  0  0  0  0  0  0  0
   34.1110   28.0620   37.2330 C   0  0  0  0  0  3  0  0  0  0  0  0
   36.8510   27.5300   33.6750 H   0  0  0  0  0  0  0  0  0  0  0  0
  1 19  1  0  0  0  0
  2  1  1  0  0  0  0
  2 12  1  0  0  0  0
  3  2  2  0  0  0  0
  4  5  2  0  0  0  0
  4  3  1  0  0  0  0
  5  6  1  0  0  0  0
  6 21  1  0  0  0  0
  6  1  2  0  0  0  0
  7  3  1  0  0  0  0
  8  4  1  0  0  0  0
  9  5  1  0  0  0  0
 10 16  1  0  0  0  0
 11 10  1  0  0  0  0
 11 17  1  0  0  0  0
 12 11  2  0  0  0  0
 13 14  2  0  0  0  0
 13 12  1  0  0  0  0
 14 15  1  0  0  0  0
 15 10  2  0  0  0  0
 18 14  1  0  0  0  0
 19 20  1  0  0  0  0
 22 26  1  0  0  0  0
 22 21  1  0  0  0  0
 23 22  2  0  0  0  0
 24 25  2  0  0  0  0
 24 23  1  0  0  0  0
 25 26  1  0  0  0  0
 27 23  1  0  0  0  0
 28 24  1  0  0  0  0
 30 29  1  0  0  0  0
 30 25  1  0  0  0  0
 31 30  2  0  0  0  0
 32 31  1  0  0  0  0
 33 38  2  0  0  0  0
 33 31  1  0  0  0  0
 34 33  1  0  0  0  0
 35 34  1  0  0  0  0
 35 37  2  0  0  0  0
 36 35  1  0  0  0  0
 37 38  1  0  0  0  0
 38 39  1  0  0  0  0
 39 29  2  0  0  0  0
 40 34  1  0  0  0  0
M  END
>  <minimizedAffinity>
-6.46139002

$$$$

 OpenBabel03242513323D

 40 44  0  0  0  0  0  0  0  0999 V2000
   38.7900   31.1320   41.3770 C   0  0  0  0  0  0  0  0  0  0  0  0
   39.9820   31.8380   41.4160 C   0  0  0  0  0  0  0  0  0  0  0  0
   41.0390   31.2380   42.0250 C   0  0  0  0  0  0  0  0  0  0  0  0
   40.9380   29.9700   42.5880 C   0  0  0  0  0  0  0  0  0  0  0  0
   39.7520   29.2880   42.5400 C   0  0  0  0  0  0  0  0  0  0  0  0
   38.6340   29.8670   41.9220 C   0  0  0  0  0  0  0  0  0  0  0  0
   41.9930   31.7490   42.0810 H   0  0  0  0  0  0  0  0  0  0  0  0
   41.7470   29.4600   43.0780 H   0  0  0  0  0  0  0  0  0  0  0  0
   39.5720   28.3040   42.9470 H   0  0  0  0  0  0  0  0  0  0  0  0
   41.0410   34.8630   39.4440 C   0  0  0  0  0  0  0  0  0  0  0  0
   41.0400   33.5840   40.0070 C   0  0  0  0  0  0  0  0  0  0  0  0
   40.0230   33.1470   40.8150 C   0  0  0  0  0  0  0  0  0  0  0  0
   39.0200   34.0590   41.0200 N   0  0  0  0  0  0  0  0  0  0  0  0
   39.0130   35.2940   40.4810 C   0  0  0  0  0  0  0  0  0  0  0  0
   40.0300   35.6900   39.6910 N   0  0  0  0  0  0  0  0  0  0  0  0
   41.9110   35.0300   38.8430 H   0  0  0  0  0  0  0  0  0  0  0  0
   41.8320   32.8410   39.8540 H   0  0  0  0  0  0  0  0  0  0  0  0
   38.1730   35.9450   40.7020 H   0  0  0  0  0  0  0  0  0  0  0  0
   37.6810   31.7000   40.7660 O   0  0  0  0  0  0  0  0  0  0  0  0
   37.5610   31.6350   39.7460 H   0  0  0  0  0  0  0  0  0  0  0  0
   37.4290   29.2210   41.8510 O   0  0  0  0  0  0  0  0  0  0  0  0
   37.2540   27.8870   41.7770 C   0  0  0  0  0  0  0  0  0  0  0  0
   37.0100   26.9440   42.7520 C   0  0  0  0  0  0  0  0  0  0  0  0
   36.8720   25.6410   42.4040 C   0  0  0  0  0  0  0  0  0  0  0  0
   36.9920   25.3380   41.0200 C   0  0  0  0  0  0  0  0  0  0  0  0
   37.3060   26.9450   40.2320 S   0  0  0  0  0  0  0  0  0  0  0  0
   36.9370   27.2870   43.7720 H   0  0  0  0  0  0  0  0  0  0  0  0
   36.6790   24.8280   43.0890 H   0  0  0  0  0  0  0  0  0  0  0  0
   35.9630   23.8450   39.3790 C   0  0  0  0  0  3  0  0  0  0  0  0
   36.8930   24.0750   40.3820 C   0  0  0  0  0  0  0  0  0  0  0  0
   37.7600   23.0860   40.8030 C   0  0  0  0  0  0  0  0  0  0  0  0
   38.4990   23.2620   41.5980 H   0  0  0  0  0  0  0  0  0  0  0  0
   37.7060   21.8300   40.2120 C   0  0  0  0  0  0  0  0  0  0  0  0
   38.4390   20.7290   40.4550 N   0  0  0  0  0  0  0  0  0  0  0  0
   37.9600   19.8020   39.5910 C   0  0  0  0  0  0  0  0  0  0  0  0
   38.3500   18.7890   39.5370 H   0  0  0  0  0  0  0  0  0  0  0  0
   36.9520   20.3240   38.8330 N   0  0  0  0  0  0  0  0  0  0  0  0
   36.7750   21.6210   39.2170 C   0  0  0  0  0  0  0  0  0  0  0  0
   35.9060   22.6010   38.7910 C   0  0  0  0  0  3  0  0  0  0  0  0
   39.2080   20.6020   41.1480 H   0  0  0  0  0  0  0  0  0  0  0  0
  1  2  2  0  0  0  0
  1  6  1  0  0  0  0
  2  3  1  0  0  0  0
  3  7  1  0  0  0  0
  3  4  2  0  0  0  0
  4  8  1  0  0  0  0
  5  4  1  0  0  0  0
  5  9  1  0  0  0  0
  6  5  2  0  0  0  0
 10 15  2  0  0  0  0
 10 11  1  0  0  0  0
 11 12  2  0  0  0  0
 12 13  1  0  0  0  0
 12  2  1  0  0  0  0
 14 18  1  0  0  0  0
 14 13  2  0  0  0  0
 15 14  1  0  0  0  0
 16 10  1  0  0  0  0
 17 11  1  0  0  0  0
 19  1  1  0  0  0  0
 20 19  1  0  0  0  0
 21  6  1  0  0  0  0
 22 21  1  0  0  0  0
 22 23  2  0  0  0  0
 23 27  1  0  0  0  0
 24 23  1  0  0  0  0
 24 28  1  0  0  0  0
 25 24  2  0  0  0  0
 26 25  1  0  0  0  0
 26 22  1  0  0  0  0
 29 30  1  0  0  0  0
 30 31  2  0  0  0  0
 30 25  1  0  0  0  0
 31 32  1  0  0  0  0
 33 34  1  0  0  0  0
 33 31  1  0  0  0  0
 34 40  1  0  0  0  0
 35 34  1  0  0  0  0
 36 35  1  0  0  0  0
 37 38  1  0  0  0  0
 37 35  2  0  0  0  0
 38 33  2  0  0  0  0
 39 38  1  0  0  0  0
 39 29  2  0  0  0  0
M  END
>  <minimizedAffinity>
-6.45921993

$$$$
