
 OpenBabel03252507193D

 47 51  0  0  1  0  0  0  0  0999 V2000
   44.4960   32.9410   41.5190 C   0  0  0  0  0  0  0  0  0  0  0  0
   44.5450   31.8800   42.2000 O   0  0  0  0  0  0  0  0  0  0  0  0
   43.2970   33.4790   40.9380 N   0  0  0  0  0  0  0  0  0  0  0  0
   42.7860   34.8370   40.9040 C   0  0  0  0  0  0  0  0  0  0  0  0
   42.4440   35.2020   39.4470 C   0  0  0  0  0  0  0  0  0  0  0  0
   41.3350   34.3060   38.9500 C   0  0  0  0  0  0  0  0  0  0  0  0
   41.1370   33.1590   39.9030 C   0  0  0  0  0  0  0  0  0  0  0  0
   42.4530   32.5140   40.2670 C   0  0  2  0  0  0  0  0  0  0  0  0
   43.6410   35.5340   41.1420 H   0  0  0  0  0  0  0  0  0  0  0  0
   41.9450   35.0300   41.5690 H   0  0  0  0  0  0  0  0  0  0  0  0
   42.1480   36.2720   39.4550 H   0  0  0  0  0  0  0  0  0  0  0  0
   43.3870   35.0250   38.8750 H   0  0  0  0  0  0  0  0  0  0  0  0
   41.6580   33.8390   37.9810 H   0  0  0  0  0  0  0  0  0  0  0  0
   40.3670   34.8270   38.8290 H   0  0  0  0  0  0  0  0  0  0  0  0
   40.6100   33.5260   40.8080 H   0  0  0  0  0  0  0  0  0  0  0  0
   40.5250   32.3610   39.4400 H   0  0  0  0  0  0  0  0  0  0  0  0
   42.9590   32.2620   39.3150 H   0  0  0  0  0  0  0  0  0  0  0  0
   42.7090   30.0100   40.7010 C   0  0  0  0  0  3  0  0  0  0  0  0
   42.2440   31.2650   41.0320 C   0  0  0  0  0  0  0  0  0  0  0  0
   41.5110   31.2910   42.2220 C   0  0  0  0  0  0  0  0  0  0  0  0
   41.1230   32.2760   42.5190 H   0  0  0  0  0  0  0  0  0  0  0  0
   41.2420   30.2080   43.0280 C   0  0  0  0  0  0  0  0  0  0  0  0
   40.5570   30.1100   44.1800 N   0  0  0  0  0  0  0  0  0  0  0  0
   40.6120   28.8150   44.5300 C   0  0  0  0  0  0  0  0  0  0  0  0
   40.1430   28.4270   45.4290 H   0  0  0  0  0  0  0  0  0  0  0  0
   41.3260   28.1190   43.6000 N   0  0  0  0  0  0  0  0  0  0  0  0
   41.7340   28.9820   42.6400 C   0  0  0  0  0  0  0  0  0  0  0  0
   42.4660   28.8970   41.4760 C   0  0  0  0  0  3  0  0  0  0  0  0
   40.0890   30.9250   44.6660 H   0  0  0  0  0  0  0  0  0  0  0  0
   46.1950   34.4980   42.3520 C   0  0  0  0  0  0  0  0  0  0  0  0
   45.7330   33.6590   41.3130 C   0  0  0  0  0  0  0  0  0  0  0  0
   46.4690   33.5550   40.1480 C   0  0  0  0  0  0  0  0  0  0  0  0
   47.6110   34.2640   40.0450 N   0  0  0  0  0  0  0  0  0  0  0  0
   48.0650   35.0740   41.0380 C   0  0  0  0  0  0  0  0  0  0  0  0
   47.3450   35.1750   42.1750 N   0  0  0  0  0  0  0  0  0  0  0  0
   45.6420   34.6020   43.2770 H   0  0  0  0  0  0  0  0  0  0  0  0
   48.9780   35.6360   40.9440 H   0  0  0  0  0  0  0  0  0  0  0  0
   45.9750   32.6930   39.0920 C   0  0  0  0  0  0  0  0  0  0  0  0
   46.2360   31.3550   39.1270 C   0  0  0  0  0  0  0  0  0  0  0  0
   45.7590   30.5490   38.1150 C   0  0  0  0  0  0  0  0  0  0  0  0
   45.0160   31.0400   37.0500 C   0  0  0  0  0  0  0  0  0  0  0  0
   44.7820   32.4120   37.0680 C   0  0  0  0  0  0  0  0  0  0  0  0
   45.2610   33.1690   38.0700 N   0  0  0  0  0  0  0  0  0  0  0  0
   46.7970   30.8270   39.8790 H   0  0  0  0  0  0  0  0  0  0  0  0
   45.9320   29.4810   38.0870 H   0  0  0  0  0  0  0  0  0  0  0  0
   44.6250   30.4500   36.2390 H   0  0  0  0  0  0  0  0  0  0  0  0
   44.2130   32.9310   36.2910 H   0  0  0  0  0  0  0  0  0  0  0  0
  1  2  2  0  0  0  0
  3  1  1  0  0  0  0
  4  3  1  0  0  0  0
  4  9  1  0  0  0  0
  4 10  1  0  0  0  0
  5 11  1  0  0  0  0
  5  4  1  0  0  0  0
  6  5  1  0  0  0  0
  6  7  1  0  0  0  0
  7  8  1  0  0  0  0
  7 15  1  0  0  0  0
  8 17  1  6  0  0  0
  8  3  1  0  0  0  0
  8 19  1  0  0  0  0
 12  5  1  0  0  0  0
 13  6  1  0  0  0  0
 14  6  1  0  0  0  0
 16  7  1  0  0  0  0
 18 19  2  0  0  0  0
 18 28  1  0  0  0  0
 19 20  1  0  0  0  0
 20 21  1  0  0  0  0
 20 22  2  0  0  0  0
 22 23  1  0  0  0  0
 23 24  1  0  0  0  0
 23 29  1  0  0  0  0
 24 25  1  0  0  0  0
 26 24  2  0  0  0  0
 27 22  1  0  0  0  0
 27 26  1  0  0  0  0
 28 27  2  0  0  0  0
 30 36  1  0  0  0  0
 31  1  1  0  0  0  0
 31 30  2  0  0  0  0
 32 31  1  0  0  0  0
 33 32  2  0  0  0  0
 33 34  1  0  0  0  0
 34 35  2  0  0  0  0
 35 30  1  0  0  0  0
 37 34  1  0  0  0  0
 38 39  1  0  0  0  0
 38 32  1  0  0  0  0
 39 44  1  0  0  0  0
 40 39  2  0  0  0  0
 41 42  2  0  0  0  0
 41 40  1  0  0  0  0
 42 43  1  0  0  0  0
 43 38  2  0  0  0  0
 45 40  1  0  0  0  0
 46 41  1  0  0  0  0
 47 42  1  0  0  0  0
M  END
>  <minimizedAffinity>
-5.0766077

>  <minimizedRMSD>
7.78209686

$$$$
