
 OpenBabel03252508173D

 50 55  0  0  1  0  0  0  0  0999 V2000
   46.6520   31.5510   48.2580 C   0  0  1  0  0  0  0  0  0  0  0  0
   46.2730   30.4780   49.2210 C   0  0  0  0  0  0  0  0  0  0  0  0
   47.4890   31.2520   49.4370 C   0  0  1  0  0  0  0  0  0  0  0  0
   45.8470   32.3410   48.2520 H   0  0  0  0  0  0  0  0  0  0  0  0
   46.4300   29.4090   48.9250 H   0  0  0  0  0  0  0  0  0  0  0  0
   45.4250   30.5810   49.9240 H   0  0  0  0  0  0  0  0  0  0  0  0
   47.4480   32.0030   50.2530 H   0  0  0  0  0  0  0  0  0  0  0  0
   48.8550   30.6830   49.2060 C   0  0  2  0  0  0  0  0  0  0  0  0
   49.4840   30.0730   50.4840 C   0  0  0  0  0  0  0  0  0  0  0  0
   50.0170   31.3370   49.9470 C   0  0  1  0  0  0  0  0  0  0  0  0
   49.0780   30.0440   48.3420 H   0  0  0  0  0  0  0  0  0  0  0  0
   48.9070   30.1310   51.4270 H   0  0  0  0  0  0  0  0  0  0  0  0
   50.1120   29.1910   50.4200 H   0  0  0  0  0  0  0  0  0  0  0  0
   49.7630   32.2710   50.4950 H   0  0  0  0  0  0  0  0  0  0  0  0
   51.7920   30.3050   48.5350 C   0  0  0  0  0  0  0  0  0  0  0  0
   51.3610   31.3200   49.3630 C   0  0  0  0  0  0  0  0  0  0  0  0
   52.2860   32.3370   49.6170 C   0  0  0  0  0  0  0  0  0  0  0  0
   51.9250   33.1380   50.2800 H   0  0  0  0  0  0  0  0  0  0  0  0
   53.5620   32.3840   49.1030 C   0  0  0  0  0  0  0  0  0  0  0  0
   54.5460   33.2990   49.2660 N   0  0  0  0  0  0  0  0  0  0  0  0
   55.5650   32.8400   48.5410 C   0  0  0  0  0  0  0  0  0  0  0  0
   56.5040   33.3530   48.4680 H   0  0  0  0  0  0  0  0  0  0  0  0
   55.2380   31.6640   47.9330 N   0  0  0  0  0  0  0  0  0  0  0  0
   53.9730   31.3600   48.2770 C   0  0  0  0  0  0  0  0  0  0  0  0
   53.0760   30.3360   48.0090 C   0  0  0  0  0  0  0  0  0  0  0  0
   54.5220   34.1840   49.8390 H   0  0  0  0  0  0  0  0  0  0  0  0
   47.0580   31.0680   46.9120 C   0  0  0  0  0  0  0  0  0  0  0  0
   48.0510   30.6890   46.7680 H   0  0  0  0  0  0  0  0  0  0  0  0
   46.3390   30.2410   46.6380 H   0  0  0  0  0  0  0  0  0  0  0  0
   46.0010   33.0430   46.1830 C   0  0  0  0  0  0  0  0  0  0  0  0
   46.8220   32.1320   45.8660 C   0  0  0  0  0  0  0  0  0  0  0  0
   44.5400   35.9600   44.4660 C   0  0  0  0  0  0  0  0  0  0  0  0
   45.1950   35.9680   43.2480 C   0  0  0  0  0  0  0  0  0  0  0  0
   46.1130   34.9770   43.0440 C   0  0  0  0  0  0  0  0  0  0  0  0
   46.3360   34.0530   44.0220 N   0  0  0  0  0  0  0  0  0  0  0  0
   45.6820   34.0760   45.1940 C   0  0  0  0  0  0  0  0  0  0  0  0
   44.7930   35.0380   45.3870 N   0  0  0  0  0  0  0  0  0  0  0  0
   43.8100   36.7560   44.6170 H   0  0  0  0  0  0  0  0  0  0  0  0
   45.0520   36.6670   42.4610 H   0  0  0  0  0  0  0  0  0  0  0  0
   46.8800   34.8540   41.8130 C   0  0  0  0  0  0  0  0  0  0  0  0
   48.0860   35.4530   41.5900 C   0  0  0  0  0  0  0  0  0  0  0  0
   48.8050   35.3290   40.4160 C   0  0  0  0  0  0  0  0  0  0  0  0
   48.3040   34.5630   39.3900 C   0  0  0  0  0  0  0  0  0  0  0  0
   47.0970   33.9400   39.5590 C   0  0  0  0  0  0  0  0  0  0  0  0
   46.4300   34.1030   40.7530 C   0  0  0  0  0  0  0  0  0  0  0  0
   48.5240   36.0750   42.3870 H   0  0  0  0  0  0  0  0  0  0  0  0
   49.7580   35.8220   40.2850 H   0  0  0  0  0  0  0  0  0  0  0  0
   48.8230   34.4320   38.4510 H   0  0  0  0  0  0  0  0  0  0  0  0
   46.6890   33.3300   38.7510 H   0  0  0  0  0  0  0  0  0  0  0  0
   45.4690   33.5690   40.8060 H   0  0  0  0  0  0  0  0  0  0  0  0
  1  4  1  1  0  0  0
  1  2  1  0  0  0  0
  1  3  1  0  0  0  0
  2  3  1  0  0  0  0
  2  6  1  0  0  0  0
  3  7  1  1  0  0  0
  5  2  1  0  0  0  0
  8 11  1  6  0  0  0
  8  3  1  0  0  0  0
  8 10  1  0  0  0  0
  8  9  1  0  0  0  0
  9 12  1  0  0  0  0
 10  9  1  0  0  0  0
 10 14  1  1  0  0  0
 13  9  1  0  0  0  0
 15 16  1  0  0  0  0
 16 17  2  0  0  0  0
 16 10  1  0  0  0  0
 17 18  1  0  0  0  0
 19 20  1  0  0  0  0
 19 17  1  0  0  0  0
 20 26  1  0  0  0  0
 21 20  1  0  0  0  0
 22 21  1  0  0  0  0
 23 24  1  0  0  0  0
 23 21  2  0  0  0  0
 24 19  2  0  0  0  0
 25 24  1  0  0  0  0
 25 15  2  0  0  0  0
 27  1  1  0  0  0  0
 28 27  1  0  0  0  0
 29 27  1  0  0  0  0
 31 30  2  0  0  0  0
 31 27  1  0  0  0  0
 32 38  1  0  0  0  0
 32 37  1  0  0  0  0
 33 32  2  0  0  0  0
 34 33  1  0  0  0  0
 34 35  2  0  0  0  0
 35 36  1  0  0  0  0
 36 37  2  0  0  0  0
 36 30  1  0  0  0  0
 39 33  1  0  0  0  0
 40 34  1  0  0  0  0
 41 40  1  0  0  0  0
 41 46  1  0  0  0  0
 42 41  2  0  0  0  0
 43 44  2  0  0  0  0
 43 42  1  0  0  0  0
 44 45  1  0  0  0  0
 45 50  1  0  0  0  0
 45 40  2  0  0  0  0
 47 42  1  0  0  0  0
 48 43  1  0  0  0  0
 49 44  1  0  0  0  0
M  END
>  <minimizedAffinity>
-6.97921467

>  <minimizedRMSD>
1.04753232

$$$$
