
 OpenBabel03252508393D

 44 48  0  0  0  0  0  0  0  0999 V2000
   45.1100   33.9710   40.7440 C   0  0  0  0  0  0  0  0  0  0  0  0
   44.0640   33.6250   39.9400 C   0  0  0  0  0  0  0  0  0  0  0  0
   44.3640   33.0880   38.7160 C   0  0  0  0  0  0  0  0  0  0  0  0
   45.6480   32.8840   38.2660 C   0  0  0  0  0  0  0  0  0  0  0  0
   46.6770   33.2480   39.1100 C   0  0  0  0  0  0  0  0  0  0  0  0
   46.4260   33.7950   40.3550 C   0  0  0  0  0  0  0  0  0  0  0  0
   43.5410   32.8090   38.0720 H   0  0  0  0  0  0  0  0  0  0  0  0
   45.8160   32.4610   37.3000 H   0  0  0  0  0  0  0  0  0  0  0  0
   47.7010   33.0910   38.7600 H   0  0  0  0  0  0  0  0  0  0  0  0
   40.7850   35.2890   40.8150 C   0  0  0  0  0  0  0  0  0  0  0  0
   42.0870   35.1100   40.3050 C   0  0  0  0  0  0  0  0  0  0  0  0
   42.7210   33.8540   40.4510 C   0  0  0  0  0  0  0  0  0  0  0  0
   41.9960   32.9140   41.0850 N   0  0  0  0  0  0  0  0  0  0  0  0
   40.7690   33.1050   41.5590 C   0  0  0  0  0  0  0  0  0  0  0  0
   40.1660   34.2960   41.4220 N   0  0  0  0  0  0  0  0  0  0  0  0
   40.1990   36.5730   40.6410 N   0  0  0  0  0  0  0  0  0  0  0  0
   42.6320   35.9000   39.8010 H   0  0  0  0  0  0  0  0  0  0  0  0
   40.2400   32.3000   42.0620 H   0  0  0  0  0  0  0  0  0  0  0  0
   39.9150   37.0610   39.7490 H   0  0  0  0  0  0  0  0  0  0  0  0
   39.9800   37.1950   41.4490 H   0  0  0  0  0  0  0  0  0  0  0  0
   47.5790   34.1440   41.1590 C   0  0  0  0  0  0  0  0  0  0  0  0
   48.1430   35.3770   40.8880 C   0  0  0  0  0  0  0  0  0  0  0  0
   49.2540   35.8920   41.5510 C   0  0  0  0  0  0  0  0  0  0  0  0
   49.8150   35.1000   42.5420 C   0  0  0  0  0  0  0  0  0  0  0  0
   49.2690   33.8630   42.8310 C   0  0  0  0  0  0  0  0  0  0  0  0
   48.1660   33.3990   42.1430 C   0  0  0  0  0  0  0  0  0  0  0  0
   47.7700   36.0690   40.1270 H   0  0  0  0  0  0  0  0  0  0  0  0
   49.6900   36.8400   41.3460 H   0  0  0  0  0  0  0  0  0  0  0  0
   50.6800   35.4420   43.0950 H   0  0  0  0  0  0  0  0  0  0  0  0
   49.6650   33.1950   43.5990 H   0  0  0  0  0  0  0  0  0  0  0  0
   46.8840   32.0920   43.6460 C   0  0  0  0  0  3  0  0  0  0  0  0
   47.5760   32.0990   42.4300 C   0  0  0  0  0  0  0  0  0  0  0  0
   47.5930   30.9230   41.7090 C   0  0  0  0  0  0  0  0  0  0  0  0
   48.1470   31.0210   40.7860 H   0  0  0  0  0  0  0  0  0  0  0  0
   46.9490   29.8090   42.1940 C   0  0  0  0  0  0  0  0  0  0  0  0
   46.8530   28.5940   41.6480 N   0  0  0  0  0  0  0  0  0  0  0  0
   46.1210   27.8100   42.4800 C   0  0  0  0  0  0  0  0  0  0  0  0
   45.8680   26.7660   42.3150 H   0  0  0  0  0  0  0  0  0  0  0  0
   45.7710   28.5690   43.5450 N   0  0  0  0  0  0  0  0  0  0  0  0
   46.2800   29.8140   43.3770 C   0  0  0  0  0  0  0  0  0  0  0  0
   46.2340   30.9660   44.1330 C   0  0  0  0  0  3  0  0  0  0  0  0
   47.2590   28.2620   40.7390 H   0  0  0  0  0  0  0  0  0  0  0  0
   44.6990   35.0240   43.1120 N   0  0  0  0  0  0  0  0  0  0  0  0
   44.8780   34.5480   42.0530 C   0  0  0  0  0  0  0  0  0  0  0  0
  1 44  1  0  0  0  0
  2 12  1  0  0  0  0
  2  1  2  0  0  0  0
  3  2  1  0  0  0  0
  4  3  2  0  0  0  0
  4  5  1  0  0  0  0
  5  6  2  0  0  0  0
  6  1  1  0  0  0  0
  6 21  1  0  0  0  0
  7  3  1  0  0  0  0
  8  4  1  0  0  0  0
  9  5  1  0  0  0  0
 10 15  1  0  0  0  0
 11 12  1  0  0  0  0
 11 10  2  0  0  0  0
 12 13  2  0  0  0  0
 13 14  1  0  0  0  0
 14 18  1  0  0  0  0
 15 14  2  0  0  0  0
 16 10  1  0  0  0  0
 16 20  1  0  0  0  0
 17 11  1  0  0  0  0
 19 16  1  0  0  0  0
 21 26  1  0  0  0  0
 22 21  2  0  0  0  0
 22 23  1  0  0  0  0
 23 24  2  0  0  0  0
 24 25  1  0  0  0  0
 24 29  1  0  0  0  0
 25 30  1  0  0  0  0
 26 32  1  0  0  0  0
 26 25  2  0  0  0  0
 27 22  1  0  0  0  0
 28 23  1  0  0  0  0
 31 41  1  0  0  0  0
 32 31  2  0  0  0  0
 33 35  2  0  0  0  0
 33 32  1  0  0  0  0
 34 33  1  0  0  0  0
 35 40  1  0  0  0  0
 36 35  1  0  0  0  0
 36 37  1  0  0  0  0
 37 39  2  0  0  0  0
 38 37  1  0  0  0  0
 40 39  1  0  0  0  0
 40 41  2  0  0  0  0
 42 36  1  0  0  0  0
 44 43  3  0  0  0  0
M  END
>  <minimizedAffinity>
-6.13195229

>  <minimizedRMSD>
0.456423938

$$$$
