
 OpenBabel03242510283D

 21 23  0  0  0  0  0  0  0  0999 V2000
   39.3060   30.2970   41.9050 C   0  0  0  0  0  3  0  0  0  0  0  0
   38.0230   29.9080   41.5800 C   0  0  0  0  0  0  0  0  0  0  0  0
   37.2000   30.8100   40.9380 C   0  0  0  0  0  0  0  0  0  0  0  0
   36.2090   30.5320   40.6780 H   0  0  0  0  0  0  0  0  0  0  0  0
   37.6100   32.0900   40.6090 C   0  0  0  0  0  0  0  0  0  0  0  0
   36.9880   33.1250   39.9910 N   0  0  0  0  0  0  0  0  0  0  0  0
   37.8770   34.1610   39.9280 C   0  0  0  0  0  0  0  0  0  0  0  0
   37.6580   35.1240   39.4860 H   0  0  0  0  0  0  0  0  0  0  0  0
   39.0410   33.7500   40.5120 N   0  0  0  0  0  0  0  0  0  0  0  0
   38.8960   32.4820   40.9340 C   0  0  0  0  0  0  0  0  0  0  0  0
   39.7280   31.5900   41.5760 C   0  0  0  0  0  3  0  0  0  0  0  0
   36.0050   33.0710   39.6500 H   0  0  0  0  0  0  0  0  0  0  0  0
   36.7470   26.8560   43.4040 C   0  0  0  0  0  0  0  0  0  0  0  0
   37.1030   28.2160   43.1900 C   0  0  0  0  0  0  0  0  0  0  0  0
   37.6160   28.5520   41.9390 C   0  0  0  0  0  0  0  0  0  0  0  0
   37.7550   27.5920   40.9910 N   0  0  0  0  0  0  0  0  0  0  0  0
   37.4020   26.2990   41.2360 C   0  0  0  0  0  0  0  0  0  0  0  0
   36.9050   25.9530   42.4330 N   0  0  0  0  0  0  0  0  0  0  0  0
   36.3550   26.6700   44.3970 H   0  0  0  0  0  0  0  0  0  0  0  0
   36.9940   28.9710   43.9350 H   0  0  0  0  0  0  0  0  0  0  0  0
   37.5150   25.5370   40.4750 H   0  0  0  0  0  0  0  0  0  0  0  0
  2  1  1  0  0  0  0
  2 15  1  0  0  0  0
  3  2  2  0  0  0  0
  4  3  1  0  0  0  0
  5 10  2  0  0  0  0
  5  3  1  0  0  0  0
  6  5  1  0  0  0  0
  7  6  1  0  0  0  0
  7  9  2  0  0  0  0
  8  7  1  0  0  0  0
  9 10  1  0  0  0  0
 10 11  1  0  0  0  0
 11  1  2  0  0  0  0
 12  6  1  0  0  0  0
 13 19  1  0  0  0  0
 14 13  1  0  0  0  0
 14 20  1  0  0  0  0
 15 14  2  0  0  0  0
 16 17  2  0  0  0  0
 16 15  1  0  0  0  0
 17 18  1  0  0  0  0
 18 13  2  0  0  0  0
 21 17  1  0  0  0  0
M  END
>  <minimizedAffinity>
-4.68140507

$$$$

 OpenBabel03242510283D

 21 23  0  0  0  0  0  0  0  0999 V2000
   36.7390   30.8600   40.6090 C   0  0  0  0  0  3  0  0  0  0  0  0
   37.7450   30.2270   41.3110 C   0  0  0  0  0  0  0  0  0  0  0  0
   38.9350   30.8950   41.5100 C   0  0  0  0  0  0  0  0  0  0  0  0
   39.7220   30.4270   42.0480 H   0  0  0  0  0  0  0  0  0  0  0  0
   39.1610   32.1740   41.0320 C   0  0  0  0  0  0  0  0  0  0  0  0
   40.2290   33.0070   41.1060 N   0  0  0  0  0  0  0  0  0  0  0  0
   39.8960   34.1600   40.4530 C   0  0  0  0  0  0  0  0  0  0  0  0
   40.5550   35.0120   40.3470 H   0  0  0  0  0  0  0  0  0  0  0  0
   38.6210   34.0220   39.9820 N   0  0  0  0  0  0  0  0  0  0  0  0
   38.1550   32.8100   40.3280 C   0  0  0  0  0  0  0  0  0  0  0  0
   36.9610   32.1540   40.1220 C   0  0  0  0  0  3  0  0  0  0  0  0
   41.1150   32.7510   41.5910 H   0  0  0  0  0  0  0  0  0  0  0  0
   37.0510   27.2220   43.4920 C   0  0  0  0  0  0  0  0  0  0  0  0
   37.3030   28.5790   43.1520 C   0  0  0  0  0  0  0  0  0  0  0  0
   37.4790   28.8780   41.8030 C   0  0  0  0  0  0  0  0  0  0  0  0
   37.4070   27.8850   40.8810 N   0  0  0  0  0  0  0  0  0  0  0  0
   37.1640   26.5950   41.2480 C   0  0  0  0  0  0  0  0  0  0  0  0
   36.9900   26.2860   42.5410 N   0  0  0  0  0  0  0  0  0  0  0  0
   36.9230   27.0650   44.5560 H   0  0  0  0  0  0  0  0  0  0  0  0
   37.3600   29.3600   43.8770 H   0  0  0  0  0  0  0  0  0  0  0  0
   37.1070   25.8080   40.5070 H   0  0  0  0  0  0  0  0  0  0  0  0
  1  2  1  0  0  0  0
  2  3  2  0  0  0  0
  2 15  1  0  0  0  0
  3  4  1  0  0  0  0
  5  6  1  0  0  0  0
  5  3  1  0  0  0  0
  6 12  1  0  0  0  0
  7  6  1  0  0  0  0
  8  7  1  0  0  0  0
  9 10  1  0  0  0  0
  9  7  2  0  0  0  0
 10  5  2  0  0  0  0
 11 10  1  0  0  0  0
 11  1  2  0  0  0  0
 13 19  1  0  0  0  0
 14 13  1  0  0  0  0
 14 20  1  0  0  0  0
 15 14  2  0  0  0  0
 16 17  2  0  0  0  0
 16 15  1  0  0  0  0
 17 18  1  0  0  0  0
 18 13  2  0  0  0  0
 21 17  1  0  0  0  0
M  END
>  <minimizedAffinity>
-4.65726566

$$$$

 OpenBabel03242510283D

 21 23  0  0  0  0  0  0  0  0999 V2000
   41.1610   28.9490   42.6080 C   0  0  0  0  0  3  0  0  0  0  0  0
   40.5780   30.1970   42.5360 C   0  0  0  0  0  0  0  0  0  0  0  0
   39.2250   30.3110   42.7780 C   0  0  0  0  0  0  0  0  0  0  0  0
   38.7560   31.2620   42.7280 H   0  0  0  0  0  0  0  0  0  0  0  0
   38.4290   29.2230   43.0910 C   0  0  0  0  0  0  0  0  0  0  0  0
   37.1060   29.0990   43.3630 N   0  0  0  0  0  0  0  0  0  0  0  0
   36.8590   27.7770   43.6060 C   0  0  0  0  0  0  0  0  0  0  0  0
   35.8840   27.3760   43.8520 H   0  0  0  0  0  0  0  0  0  0  0  0
   38.0380   27.1000   43.4790 N   0  0  0  0  0  0  0  0  0  0  0  0
   39.0120   27.9710   43.1640 C   0  0  0  0  0  0  0  0  0  0  0  0
   40.3630   27.8430   42.9240 C   0  0  0  0  0  3  0  0  0  0  0  0
   36.4520   29.9100   43.3690 H   0  0  0  0  0  0  0  0  0  0  0  0
   43.3730   32.7360   42.4460 C   0  0  0  0  0  0  0  0  0  0  0  0
   42.6310   31.6010   42.8730 C   0  0  0  0  0  0  0  0  0  0  0  0
   41.4400   31.3280   42.2040 C   0  0  0  0  0  0  0  0  0  0  0  0
   41.0390   32.1370   41.1910 N   0  0  0  0  0  0  0  0  0  0  0  0
   41.7790   33.2160   40.8120 C   0  0  0  0  0  0  0  0  0  0  0  0
   42.9290   33.4980   41.4420 N   0  0  0  0  0  0  0  0  0  0  0  0
   44.2860   32.8850   43.0100 H   0  0  0  0  0  0  0  0  0  0  0  0
   42.9460   30.9650   43.6690 H   0  0  0  0  0  0  0  0  0  0  0  0
   41.4540   33.8580   40.0030 H   0  0  0  0  0  0  0  0  0  0  0  0
  1 11  1  0  0  0  0
  2  1  2  0  0  0  0
  2  3  1  0  0  0  0
  3  5  2  0  0  0  0
  4  3  1  0  0  0  0
  5 10  1  0  0  0  0
  5  6  1  0  0  0  0
  6 12  1  0  0  0  0
  6  7  1  0  0  0  0
  7  8  1  0  0  0  0
  9  7  2  0  0  0  0
 10  9  1  0  0  0  0
 11 10  2  0  0  0  0
 13 14  1  0  0  0  0
 13 19  1  0  0  0  0
 14 20  1  0  0  0  0
 15  2  1  0  0  0  0
 15 14  2  0  0  0  0
 16 15  1  0  0  0  0
 17 16  2  0  0  0  0
 17 18  1  0  0  0  0
 18 13  2  0  0  0  0
 21 17  1  0  0  0  0
M  END
>  <minimizedAffinity>
-4.60459042

$$$$

 OpenBabel03242510283D

 21 23  0  0  0  0  0  0  0  0999 V2000
   40.1770   29.7670   42.2780 C   0  0  0  0  0  3  0  0  0  0  0  0
   39.1830   30.5630   41.7470 C   0  0  0  0  0  0  0  0  0  0  0  0
   37.8770   30.1250   41.8120 C   0  0  0  0  0  0  0  0  0  0  0  0
   37.0970   30.7230   41.4090 H   0  0  0  0  0  0  0  0  0  0  0  0
   37.5230   28.9180   42.3890 C   0  0  0  0  0  0  0  0  0  0  0  0
   36.3310   28.2970   42.5630 N   0  0  0  0  0  0  0  0  0  0  0  0
   36.5730   27.1130   43.2010 C   0  0  0  0  0  0  0  0  0  0  0  0
   35.8050   26.4010   43.4730 H   0  0  0  0  0  0  0  0  0  0  0  0
   37.9190   27.0200   43.4140 N   0  0  0  0  0  0  0  0  0  0  0  0
   38.5180   28.1180   42.9220 C   0  0  0  0  0  0  0  0  0  0  0  0
   39.8270   28.5440   42.8630 C   0  0  0  0  0  3  0  0  0  0  0  0
   35.4270   28.7060   42.2410 H   0  0  0  0  0  0  0  0  0  0  0  0
   39.2020   33.9710   40.1160 C   0  0  0  0  0  0  0  0  0  0  0  0
   38.6730   32.7780   40.6810 C   0  0  0  0  0  0  0  0  0  0  0  0
   39.5840   31.8320   41.1440 C   0  0  0  0  0  0  0  0  0  0  0  0
   40.9150   32.0750   41.0410 N   0  0  0  0  0  0  0  0  0  0  0  0
   41.3820   33.2320   40.4920 C   0  0  0  0  0  0  0  0  0  0  0  0
   40.5230   34.1570   40.0410 N   0  0  0  0  0  0  0  0  0  0  0  0
   38.4360   34.6590   39.7790 H   0  0  0  0  0  0  0  0  0  0  0  0
   37.6270   32.5860   40.7620 H   0  0  0  0  0  0  0  0  0  0  0  0
   42.4460   33.4210   40.4130 H   0  0  0  0  0  0  0  0  0  0  0  0
  1 11  1  0  0  0  0
  2  3  1  0  0  0  0
  2  1  2  0  0  0  0
  3  5  2  0  0  0  0
  4  3  1  0  0  0  0
  5  6  1  0  0  0  0
  5 10  1  0  0  0  0
  6  7  1  0  0  0  0
  7  9  2  0  0  0  0
  7  8  1  0  0  0  0
 10  9  1  0  0  0  0
 11 10  2  0  0  0  0
 12  6  1  0  0  0  0
 13 14  1  0  0  0  0
 14 20  1  0  0  0  0
 14 15  2  0  0  0  0
 15  2  1  0  0  0  0
 16 15  1  0  0  0  0
 17 16  2  0  0  0  0
 18 13  2  0  0  0  0
 18 17  1  0  0  0  0
 19 13  1  0  0  0  0
 21 17  1  0  0  0  0
M  END
>  <minimizedAffinity>
-4.50686884

$$$$

 OpenBabel03242510283D

 21 23  0  0  0  0  0  0  0  0999 V2000
   37.5540   28.4780   42.7980 C   0  0  0  0  0  3  0  0  0  0  0  0
   37.5160   28.8250   41.4640 C   0  0  0  0  0  0  0  0  0  0  0  0
   37.2750   27.8390   40.5290 C   0  0  0  0  0  0  0  0  0  0  0  0
   37.2410   28.0840   39.4970 H   0  0  0  0  0  0  0  0  0  0  0  0
   37.0710   26.5160   40.8790 C   0  0  0  0  0  0  0  0  0  0  0  0
   36.8220   25.4000   40.1480 N   0  0  0  0  0  0  0  0  0  0  0  0
   36.7040   24.3550   41.0210 C   0  0  0  0  0  0  0  0  0  0  0  0
   36.5050   23.3340   40.7240 H   0  0  0  0  0  0  0  0  0  0  0  0
   36.8830   24.8430   42.2840 N   0  0  0  0  0  0  0  0  0  0  0  0
   37.1080   26.1660   42.2160 C   0  0  0  0  0  0  0  0  0  0  0  0
   37.3490   27.1410   43.1590 C   0  0  0  0  0  3  0  0  0  0  0  0
   36.7470   25.4090   39.1090 H   0  0  0  0  0  0  0  0  0  0  0  0
   37.1650   32.3430   40.1320 C   0  0  0  0  0  0  0  0  0  0  0  0
   36.8240   30.9870   40.3930 C   0  0  0  0  0  0  0  0  0  0  0  0
   37.7350   30.2280   41.1230 C   0  0  0  0  0  0  0  0  0  0  0  0
   38.8910   30.7960   41.5510 N   0  0  0  0  0  0  0  0  0  0  0  0
   39.1800   32.1000   41.2800 C   0  0  0  0  0  0  0  0  0  0  0  0
   38.3170   32.8490   40.5790 N   0  0  0  0  0  0  0  0  0  0  0  0
   36.4100   32.8700   39.5610 H   0  0  0  0  0  0  0  0  0  0  0  0
   35.9150   30.5400   40.0570 H   0  0  0  0  0  0  0  0  0  0  0  0
   40.1040   32.5480   41.6240 H   0  0  0  0  0  0  0  0  0  0  0  0
  1 11  1  0  0  0  0
  2  1  2  0  0  0  0
  3  5  2  0  0  0  0
  3  2  1  0  0  0  0
  4  3  1  0  0  0  0
  5 10  1  0  0  0  0
  6  5  1  0  0  0  0
  6  7  1  0  0  0  0
  7  9  2  0  0  0  0
  8  7  1  0  0  0  0
 10  9  1  0  0  0  0
 10 11  2  0  0  0  0
 12  6  1  0  0  0  0
 13 14  2  0  0  0  0
 13 18  1  0  0  0  0
 14 15  1  0  0  0  0
 15  2  1  0  0  0  0
 15 16  2  0  0  0  0
 17 16  1  0  0  0  0
 17 21  1  0  0  0  0
 18 17  2  0  0  0  0
 19 13  1  0  0  0  0
 20 14  1  0  0  0  0
M  END
>  <minimizedAffinity>
-4.46296692

$$$$

 OpenBabel03242510283D

 21 23  0  0  0  0  0  0  0  0999 V2000
   36.3530   26.9300   39.5730 C   0  0  0  0  0  3  0  0  0  0  0  0
   35.8130   28.1960   39.4740 C   0  0  0  0  0  0  0  0  0  0  0  0
   35.9520   29.0620   40.5380 C   0  0  0  0  0  0  0  0  0  0  0  0
   35.5450   30.0400   40.4820 H   0  0  0  0  0  0  0  0  0  0  0  0
   36.6110   28.7100   41.7040 C   0  0  0  0  0  0  0  0  0  0  0  0
   36.8640   29.3820   42.8540 N   0  0  0  0  0  0  0  0  0  0  0  0
   37.5610   28.5410   43.6760 C   0  0  0  0  0  0  0  0  0  0  0  0
   37.9020   28.8040   44.6680 H   0  0  0  0  0  0  0  0  0  0  0  0
   37.7290   27.3560   43.0170 N   0  0  0  0  0  0  0  0  0  0  0  0
   37.1530   27.4420   41.8060 C   0  0  0  0  0  0  0  0  0  0  0  0
   37.0210   26.5680   40.7490 C   0  0  0  0  0  3  0  0  0  0  0  0
   36.5530   30.3630   43.0180 H   0  0  0  0  0  0  0  0  0  0  0  0
   34.9840   29.0390   35.8850 C   0  0  0  0  0  0  0  0  0  0  0  0
   35.7800   28.7020   37.0150 C   0  0  0  0  0  0  0  0  0  0  0  0
   35.1240   28.5400   38.2330 C   0  0  0  0  0  0  0  0  0  0  0  0
   33.7780   28.7050   38.2980 N   0  0  0  0  0  0  0  0  0  0  0  0
   33.0510   29.0280   37.1910 C   0  0  0  0  0  0  0  0  0  0  0  0
   33.6630   29.1880   36.0080 N   0  0  0  0  0  0  0  0  0  0  0  0
   35.5620   29.1480   34.9750 H   0  0  0  0  0  0  0  0  0  0  0  0
   36.8370   28.5730   36.9650 H   0  0  0  0  0  0  0  0  0  0  0  0
   31.9780   29.1580   37.2480 H   0  0  0  0  0  0  0  0  0  0  0  0
  1 11  1  0  0  0  0
  2  1  2  0  0  0  0
  2  3  1  0  0  0  0
  3  5  2  0  0  0  0
  4  3  1  0  0  0  0
  5 10  1  0  0  0  0
  5  6  1  0  0  0  0
  6 12  1  0  0  0  0
  6  7  1  0  0  0  0
  7  8  1  0  0  0  0
  9  7  2  0  0  0  0
 10  9  1  0  0  0  0
 11 10  2  0  0  0  0
 13 18  2  0  0  0  0
 13 14  1  0  0  0  0
 14 15  2  0  0  0  0
 15 16  1  0  0  0  0
 15  2  1  0  0  0  0
 17 21  1  0  0  0  0
 17 16  2  0  0  0  0
 18 17  1  0  0  0  0
 19 13  1  0  0  0  0
 20 14  1  0  0  0  0
M  END
>  <minimizedAffinity>
-4.41259432

$$$$

 OpenBabel03242510283D

 21 23  0  0  0  0  0  0  0  0999 V2000
   38.2780   29.6310   39.7720 C   0  0  0  0  0  3  0  0  0  0  0  0
   38.6030   30.6040   40.6940 C   0  0  0  0  0  0  0  0  0  0  0  0
   38.2690   30.4030   42.0160 C   0  0  0  0  0  0  0  0  0  0  0  0
   38.5110   31.1390   42.7420 H   0  0  0  0  0  0  0  0  0  0  0  0
   37.6190   29.2620   42.4550 C   0  0  0  0  0  0  0  0  0  0  0  0
   37.2000   28.8570   43.6800 N   0  0  0  0  0  0  0  0  0  0  0  0
   36.6120   27.6320   43.5280 C   0  0  0  0  0  0  0  0  0  0  0  0
   36.1820   27.0600   44.3390 H   0  0  0  0  0  0  0  0  0  0  0  0
   36.6770   27.2980   42.2060 N   0  0  0  0  0  0  0  0  0  0  0  0
   37.2910   28.2850   41.5330 C   0  0  0  0  0  0  0  0  0  0  0  0
   37.6200   28.4750   40.2080 C   0  0  0  0  0  3  0  0  0  0  0  0
   37.3340   29.4270   44.5410 H   0  0  0  0  0  0  0  0  0  0  0  0
   39.6900   34.1610   40.0300 C   0  0  0  0  0  0  0  0  0  0  0  0
   38.9380   33.0900   40.5850 C   0  0  0  0  0  0  0  0  0  0  0  0
   39.2890   31.7970   40.2030 C   0  0  0  0  0  0  0  0  0  0  0  0
   40.3140   31.6090   39.3340 N   0  0  0  0  0  0  0  0  0  0  0  0
   41.0100   32.6640   38.8240 C   0  0  0  0  0  0  0  0  0  0  0  0
   40.6900   33.9170   39.1780 N   0  0  0  0  0  0  0  0  0  0  0  0
   39.3620   35.1350   40.3720 H   0  0  0  0  0  0  0  0  0  0  0  0
   38.1320   33.2370   41.2690 H   0  0  0  0  0  0  0  0  0  0  0  0
   41.8280   32.5070   38.1310 H   0  0  0  0  0  0  0  0  0  0  0  0
  1 11  2  0  0  0  0
  1  2  1  0  0  0  0
  2  3  2  0  0  0  0
  3  5  1  0  0  0  0
  3  4  1  0  0  0  0
  5  6  1  0  0  0  0
  6 12  1  0  0  0  0
  7  6  1  0  0  0  0
  7  8  1  0  0  0  0
  9  7  2  0  0  0  0
 10  9  1  0  0  0  0
 10  5  2  0  0  0  0
 11 10  1  0  0  0  0
 13 19  1  0  0  0  0
 13 14  1  0  0  0  0
 14 20  1  0  0  0  0
 15 14  2  0  0  0  0
 15  2  1  0  0  0  0
 16 15  1  0  0  0  0
 17 18  1  0  0  0  0
 17 16  2  0  0  0  0
 18 13  2  0  0  0  0
 21 17  1  0  0  0  0
M  END
>  <minimizedAffinity>
-4.29715919

$$$$

 OpenBabel03242510283D

 21 23  0  0  0  0  0  0  0  0999 V2000
   37.4420   28.8840   38.8250 C   0  0  0  0  0  3  0  0  0  0  0  0
   37.1640   28.8980   40.1760 C   0  0  0  0  0  0  0  0  0  0  0  0
   36.9830   30.1130   40.8030 C   0  0  0  0  0  0  0  0  0  0  0  0
   36.7680   30.1460   41.8420 H   0  0  0  0  0  0  0  0  0  0  0  0
   37.0690   31.3190   40.1300 C   0  0  0  0  0  0  0  0  0  0  0  0
   36.9310   32.6070   40.5310 N   0  0  0  0  0  0  0  0  0  0  0  0
   37.1210   33.4010   39.4350 C   0  0  0  0  0  0  0  0  0  0  0  0
   37.0710   34.4820   39.4510 H   0  0  0  0  0  0  0  0  0  0  0  0
   37.3760   32.5880   38.3680 N   0  0  0  0  0  0  0  0  0  0  0  0
   37.3470   31.3080   38.7750 C   0  0  0  0  0  0  0  0  0  0  0  0
   37.5310   30.1000   38.1370 C   0  0  0  0  0  3  0  0  0  0  0  0
   36.7180   32.8740   41.5150 H   0  0  0  0  0  0  0  0  0  0  0  0
   36.9110   26.1730   42.7810 C   0  0  0  0  0  0  0  0  0  0  0  0
   36.9870   27.4890   42.2460 C   0  0  0  0  0  0  0  0  0  0  0  0
   37.0790   27.6110   40.8610 C   0  0  0  0  0  0  0  0  0  0  0  0
   37.0920   26.4950   40.0890 N   0  0  0  0  0  0  0  0  0  0  0  0
   37.0170   25.2520   40.6410 C   0  0  0  0  0  0  0  0  0  0  0  0
   36.9270   25.1110   41.9720 N   0  0  0  0  0  0  0  0  0  0  0  0
   36.8410   26.1560   43.8620 H   0  0  0  0  0  0  0  0  0  0  0  0
   36.9770   28.3660   42.8530 H   0  0  0  0  0  0  0  0  0  0  0  0
   37.0270   24.3650   40.0190 H   0  0  0  0  0  0  0  0  0  0  0  0
  1  2  1  0  0  0  0
  2  3  2  0  0  0  0
  2 15  1  0  0  0  0
  3  4  1  0  0  0  0
  5  6  1  0  0  0  0
  5  3  1  0  0  0  0
  6 12  1  0  0  0  0
  7  8  1  0  0  0  0
  7  6  1  0  0  0  0
  9 10  1  0  0  0  0
  9  7  2  0  0  0  0
 10  5  2  0  0  0  0
 11 10  1  0  0  0  0
 11  1  2  0  0  0  0
 13 19  1  0  0  0  0
 14 13  1  0  0  0  0
 14 20  1  0  0  0  0
 15 14  2  0  0  0  0
 16 17  2  0  0  0  0
 16 15  1  0  0  0  0
 17 18  1  0  0  0  0
 18 13  2  0  0  0  0
 21 17  1  0  0  0  0
M  END
>  <minimizedAffinity>
-4.28998184

$$$$

 OpenBabel03242510283D

 21 23  0  0  0  0  0  0  0  0999 V2000
   36.0720   30.3280   40.1260 C   0  0  0  0  0  3  0  0  0  0  0  0
   35.8010   29.0830   39.5950 C   0  0  0  0  0  0  0  0  0  0  0  0
   36.1790   27.9630   40.3040 C   0  0  0  0  0  0  0  0  0  0  0  0
   35.9790   26.9960   39.9140 H   0  0  0  0  0  0  0  0  0  0  0  0
   36.8220   28.0370   41.5280 C   0  0  0  0  0  0  0  0  0  0  0  0
   37.2770   27.0910   42.3860 N   0  0  0  0  0  0  0  0  0  0  0  0
   37.8340   27.7380   43.4530 C   0  0  0  0  0  0  0  0  0  0  0  0
   38.2830   27.2380   44.3010 H   0  0  0  0  0  0  0  0  0  0  0  0
   37.7140   29.0810   43.2380 N   0  0  0  0  0  0  0  0  0  0  0  0
   37.0960   29.2840   42.0620 C   0  0  0  0  0  0  0  0  0  0  0  0
   36.7230   30.4110   41.3630 C   0  0  0  0  0  3  0  0  0  0  0  0
   37.1860   26.0690   42.2020 H   0  0  0  0  0  0  0  0  0  0  0  0
   33.2170   28.8240   36.8500 C   0  0  0  0  0  0  0  0  0  0  0  0
   33.7470   28.8530   38.1700 C   0  0  0  0  0  0  0  0  0  0  0  0
   35.1210   29.0340   38.3030 C   0  0  0  0  0  0  0  0  0  0  0  0
   35.8900   29.1730   37.1930 N   0  0  0  0  0  0  0  0  0  0  0  0
   35.3430   29.1400   35.9450 C   0  0  0  0  0  0  0  0  0  0  0  0
   34.0220   28.9670   35.7940 N   0  0  0  0  0  0  0  0  0  0  0  0
   32.1430   28.6810   36.8250 H   0  0  0  0  0  0  0  0  0  0  0  0
   33.1430   28.7440   39.0420 H   0  0  0  0  0  0  0  0  0  0  0  0
   35.9620   29.2520   35.0640 H   0  0  0  0  0  0  0  0  0  0  0  0
  1 11  1  0  0  0  0
  2  1  2  0  0  0  0
  2  3  1  0  0  0  0
  3  5  2  0  0  0  0
  4  3  1  0  0  0  0
  5 10  1  0  0  0  0
  5  6  1  0  0  0  0
  6  7  1  0  0  0  0
  7  8  1  0  0  0  0
  9  7  2  0  0  0  0
 10  9  1  0  0  0  0
 11 10  2  0  0  0  0
 12  6  1  0  0  0  0
 13 14  1  0  0  0  0
 14 15  2  0  0  0  0
 14 20  1  0  0  0  0
 15  2  1  0  0  0  0
 16 15  1  0  0  0  0
 17 16  2  0  0  0  0
 18 17  1  0  0  0  0
 18 13  2  0  0  0  0
 19 13  1  0  0  0  0
 21 17  1  0  0  0  0
M  END
>  <minimizedAffinity>
-4.2790513

$$$$
