REMARK  Name = 
REMARK  2 active torsions:
REMARK  status: ('A' for Active; 'I' for Inactive)
REMARK    1  A    between atoms: C_3  and  C_9
REMARK    2  A    between atoms: C_13  and  C_21
REMARK                            x       y       z     vdW  Elec       q    Type
REMARK                         _______ _______ _______ _____ _____    ______ ____
ROOT
ATOM      1 CL   UNL     1      44.729  33.194  41.235  0.00  0.00    +0.000 Cl
ATOM      2  C   UNL     1      46.270  34.007  41.052  0.00  0.00    +0.000 A 
ATOM      3  C   UNL     1      46.801  34.747  42.064  0.00  0.00    +0.000 A 
ATOM      4  C   UNL     1      48.011  35.340  41.815  0.00  0.00    +0.000 A 
ATOM      5  C   UNL     1      48.676  35.220  40.633  0.00  0.00    +0.000 A 
ATOM      6  C   UNL     1      48.132  34.470  39.614  0.00  0.00    +0.000 A 
ATOM      7  C   UNL     1      46.914  33.863  39.843  0.00  0.00    +0.000 A 
ATOM      8  H   UNL     1      48.457  35.938  42.612  0.00  0.00    +0.000 HD
ATOM      9  H   UNL     1      49.627  35.722  40.520  0.00  0.00    +0.000 HD
ATOM     10  H   UNL     1      48.682  34.401  38.708  0.00  0.00    +0.000 HD
ENDROOT
BRANCH   7  12
ATOM     11  C   UNL     1      45.361  33.461  37.891  0.00  0.00    +0.000 A 
ATOM     12  C   UNL     1      46.391  33.084  38.727  0.00  0.00    +0.000 A 
ATOM     13  C   UNL     1      46.975  31.839  38.466  0.00  0.00    +0.000 A 
ATOM     14  H   UNL     1      47.799  31.429  39.057  0.00  0.00    +0.000 HD
ATOM     15  C   UNL     1      46.563  31.025  37.444  0.00  0.00    +0.000 A 
ATOM     16  N   UNL     1      46.899  29.821  36.947  0.00  0.00    +0.000 N 
ATOM     17  C   UNL     1      46.149  29.477  35.899  0.00  0.00    +0.000 A 
ATOM     18  H   UNL     1      46.119  28.619  35.255  0.00  0.00    +0.000 HD
ATOM     19  N   UNL     1      45.276  30.506  35.695  0.00  0.00    +0.000 NA
ATOM     20  C   UNL     1      45.531  31.437  36.631  0.00  0.00    +0.000 A 
ATOM     21  C   UNL     1      44.930  32.656  36.856  0.00  0.00    +0.000 A 
ATOM     22  H   UNL     1      47.656  29.211  37.324  0.00  0.00    +0.000 HD
ENDBRANCH   7  12
BRANCH   3  25
ATOM     23  C   UNL     1      44.465  35.966  44.790  0.00  0.00    +0.000 A 
ATOM     24  C   UNL     1      45.160  35.885  43.577  0.00  0.00    +0.000 A 
ATOM     25  C   UNL     1      46.070  34.855  43.307  0.00  0.00    +0.000 A 
ATOM     26  N   UNL     1      46.228  33.948  44.305  0.00  0.00    +0.000 NA
ATOM     27  C   UNL     1      45.552  34.038  45.468  0.00  0.00    +0.000 A 
ATOM     28  N   UNL     1      44.685  35.023  45.718  0.00  0.00    +0.000 NA
ATOM     29  H   UNL     1      43.789  36.813  44.871  0.00  0.00    +0.000 HD
ATOM     30  H   UNL     1      45.032  36.606  42.788  0.00  0.00    +0.000 HD
ATOM     31  H   UNL     1      45.720  33.273  46.242  0.00  0.00    +0.000 HD
ENDBRANCH   3  25
TORSDOF 2
