
     RDKit          3D

 54 59  0  0  0  0  0  0  0  0999 V2000
   45.7594   33.1282   46.2290 C   0  0  0  0  0  0  0  0  0  0  0  0
   45.9243   31.9393   45.8257 C   0  0  0  0  0  0  0  0  0  0  0  0
   44.5512   36.1501   44.4958 C   0  0  0  0  0  0  0  0  0  0  0  0
   45.2152   36.1031   43.2837 C   0  0  0  0  0  0  0  0  0  0  0  0
   46.0533   35.0418   43.0890 C   0  0  0  0  0  0  0  0  0  0  0  0
   46.1931   34.1049   44.0699 N   0  0  0  0  0  0  0  0  0  0  0  0
   45.5323   34.1820   45.2361 C   0  0  0  0  0  0  0  0  0  0  0  0
   44.7213   35.2117   45.4199 N   0  0  0  0  0  0  0  0  0  0  0  0
   46.8194   34.8562   41.8646 C   0  0  0  0  0  0  0  0  0  0  0  0
   48.0451   35.4075   41.6286 C   0  0  0  0  0  0  0  0  0  0  0  0
   48.7618   35.2235   40.4623 C   0  0  0  0  0  0  0  0  0  0  0  0
   48.2389   34.4443   39.4583 C   0  0  0  0  0  0  0  0  0  0  0  0
   47.0112   33.8657   39.6411 C   0  0  0  0  0  0  0  0  0  0  0  0
   46.3471   34.0879   40.8267 C   0  0  0  0  0  0  0  0  0  0  0  0
   46.0928   30.8967   46.9060 C   0  0  0  0  0  0  0  0  0  0  0  0
   45.8941   31.4935   48.2518 C   0  0  1  0  0  0  0  0  0  0  0  0
   45.7106   30.5075   49.3548 C   0  0  0  0  0  0  0  0  0  0  0  0
   46.9188   31.3198   49.3002 C   0  0  1  0  0  0  0  0  0  0  0  0
   48.2476   30.7569   48.8998 C   0  0  2  0  0  0  0  0  0  0  0  0
   49.1763   30.4698   50.1068 C   0  0  0  0  0  0  0  0  0  0  0  0
   49.4832   31.5974   49.2099 C   0  0  1  0  0  0  0  0  0  0  0  0
   45.7613   33.6033   47.1991 H   0  0  0  0  0  0  0  0  0  0  0  0
   45.9161   31.6265   44.7917 H   0  0  0  0  0  0  0  0  0  0  0  0
   43.8847   37.0023   44.6395 H   0  0  0  0  0  0  0  0  0  0  0  0
   45.1356   36.8097   42.4947 H   0  0  0  0  0  0  0  0  0  0  0  0
   48.5006   36.0395   42.4083 H   0  0  0  0  0  0  0  0  0  0  0  0
   49.7311   35.6808   40.3187 H   0  0  0  0  0  0  0  0  0  0  0  0
   48.7564   34.2666   38.5251 H   0  0  0  0  0  0  0  0  0  0  0  0
   46.5857   33.2451   38.8514 H   0  0  0  0  0  0  0  0  0  0  0  0
   45.3692   33.5878   40.8927 H   0  0  0  0  0  0  0  0  0  0  0  0
   46.9983   30.3606   46.6982 H   0  0  0  0  0  0  0  0  0  0  0  0
   45.2343   30.1821   46.7432 H   0  0  0  0  0  0  0  0  0  0  0  0
   45.0733   32.2657   48.3088 H   0  0  0  0  0  0  0  0  0  0  0  0
   45.8532   29.4185   49.1325 H   0  0  0  0  0  0  0  0  0  0  0  0
   44.9837   30.6603   50.1765 H   0  0  0  0  0  0  0  0  0  0  0  0
   46.9863   32.1430   50.0428 H   0  0  0  0  0  0  0  0  0  0  0  0
   48.3357   29.9480   48.1637 H   0  0  0  0  0  0  0  0  0  0  0  0
   48.8051   30.7199   51.1199 H   0  0  0  0  0  0  0  0  0  0  0  0
   49.8448   29.6162   50.0946 H   0  0  0  0  0  0  0  0  0  0  0  0
   49.2758   32.6223   49.5893 H   0  0  0  0  0  0  0  0  0  0  0  0
   50.9175   30.3913   47.5667 C   0  0  0  0  0  0  0  0  0  0  0  0
   50.6734   31.4906   48.3615 C   0  0  0  0  0  0  0  0  0  0  0  0
   51.6340   32.5058   48.3116 C   0  0  0  0  0  0  0  0  0  0  0  0
   51.4232   33.3759   48.9523 H   0  0  0  0  0  0  0  0  0  0  0  0
   52.7723   32.4718   47.5395 C   0  0  0  0  0  0  0  0  0  0  0  0
   53.7713   33.3748   47.3994 N   0  0  0  0  0  0  0  0  0  0  0  0
   54.6122   32.8241   46.5264 C   0  0  0  0  0  0  0  0  0  0  0  0
   55.5159   33.3051   46.2061 H   0  0  0  0  0  0  0  0  0  0  0  0
   54.1607   31.6021   46.1207 N   0  0  0  0  0  0  0  0  0  0  0  0
   52.9972   31.3627   46.7517 C   0  0  0  0  0  0  0  0  0  0  0  0
   52.0602   30.3398   46.7818 C   0  0  0  0  0  0  0  0  0  0  0  0
   50.2189   29.5465   47.5418 H   0  0  0  0  0  0  0  0  0  0  0  0
   53.8714   34.3125   47.8735 H   0  0  0  0  0  0  0  0  0  0  0  0
   52.2536   29.4828   46.1601 H   0  0  0  0  0  0  0  0  0  0  0  0
  2  1  2  0
  2 15  1  0
  3  8  2  0
  4  3  1  0
  5  4  2  0
  5  6  1  0
  6  7  2  0
  7  8  1  0
  7  1  1  0
  9  5  1  0
 10  9  2  0
 11 10  1  0
 12 13  1  0
 12 11  2  0
 13 14  2  0
 14  9  1  0
 15 16  1  0
 16 18  1  0
 16 17  1  0
 18 17  1  0
 19 21  1  0
 19 18  1  0
 19 20  1  0
 21 20  1  0
  1 22  1  0
  2 23  1  0
  3 24  1  0
  4 25  1  0
 10 26  1  0
 11 27  1  0
 12 28  1  0
 13 29  1  0
 14 30  1  0
 15 31  1  0
 15 32  1  0
 16 33  1  6
 17 34  1  0
 17 35  1  0
 18 36  1  1
 19 37  1  6
 20 38  1  0
 20 39  1  0
 21 40  1  1
 41 42  2  0
 42 43  1  0
 43 44  1  0
 43 45  2  0
 45 46  1  0
 46 47  1  0
 47 48  1  0
 47 49  2  0
 49 50  1  0
 50 51  2  0
 51 41  1  0
 50 45  1  0
 41 52  1  0
 46 53  1  0
 51 54  1  0
 21 42  1  0
M  ISO  8  24  14  25  14  26  14  27  14  28  14  29  14  30  14  31   8
M  ISO  8  32   8  33  13  34  13  35  13  36  13  37  13  38  13  39  13
M  ISO  3  40  13  44  15  48  14
M  END
>  <DihAtoms>  (1) 
18,20,41,40

>  <DihDeg>  (1) 
-36.43834398868249

$$$$
