REMARK  Name = 
REMARK  6 active torsions:
REMARK  status: ('A' for Active; 'I' for Inactive)
REMARK    1  A    between atoms: C_1  and  C_7
REMARK    2  A    between atoms: C_2  and  C_15
REMARK    3  A    between atoms: C_5  and  C_9
REMARK    4  A    between atoms: C_15  and  C_16
REMARK    5  A    between atoms: C_18  and  C_19
REMARK    6  A    between atoms: C_21  and  C_42
REMARK                            x       y       z     vdW  Elec       q    Type
REMARK                         _______ _______ _______ _____ _____    ______ ____
ROOT
ATOM      1  C   UNL     1      45.894  31.494  48.252  0.00  0.00    +0.000 C 
ATOM      2  C   UNL     1      45.711  30.508  49.355  0.00  0.00    +0.000 C 
ATOM      3  C   UNL     1      46.919  31.320  49.300  0.00  0.00    +0.000 C 
ATOM      4  H   UNL     1      45.073  32.266  48.309  0.00  0.00    +0.000 HD
ATOM      5  H   UNL     1      45.853  29.419  49.133  0.00  0.00    +0.000 HD
ATOM      6  H   UNL     1      44.984  30.660  50.176  0.00  0.00    +0.000 HD
ATOM      7  H   UNL     1      46.986  32.143  50.043  0.00  0.00    +0.000 HD
ENDROOT
BRANCH   3   8
ATOM      8  C   UNL     1      48.248  30.757  48.900  0.00  0.00    +0.000 C 
ATOM      9  C   UNL     1      49.176  30.470  50.107  0.00  0.00    +0.000 C 
ATOM     10  C   UNL     1      49.483  31.597  49.210  0.00  0.00    +0.000 C 
ATOM     11  H   UNL     1      48.336  29.948  48.164  0.00  0.00    +0.000 HD
ATOM     12  H   UNL     1      48.805  30.720  51.120  0.00  0.00    +0.000 HD
ATOM     13  H   UNL     1      49.845  29.616  50.095  0.00  0.00    +0.000 HD
ATOM     14  H   UNL     1      49.276  32.622  49.589  0.00  0.00    +0.000 HD
BRANCH  10  16
ATOM     15  C   UNL     1      50.676  30.783  47.178  0.00  0.00    +0.000 A 
ATOM     16  C   UNL     1      50.673  31.491  48.361  0.00  0.00    +0.000 A 
ATOM     17  C   UNL     1      51.881  32.105  48.709  0.00  0.00    +0.000 A 
ATOM     18  H   UNL     1      51.861  32.665  49.656  0.00  0.00    +0.000 HD
ATOM     19  C   UNL     1      53.035  32.046  47.961  0.00  0.00    +0.000 A 
ATOM     20  N   UNL     1      54.256  32.588  48.179  0.00  0.00    +0.000 N 
ATOM     21  C   UNL     1      54.990  32.210  47.134  0.00  0.00    +0.000 A 
ATOM     22  H   UNL     1      56.020  32.486  47.017  0.00  0.00    +0.000 HD
ATOM     23  N   UNL     1      54.256  31.448  46.274  0.00  0.00    +0.000 NA
ATOM     24  C   UNL     1      53.015  31.333  46.781  0.00  0.00    +0.000 A 
ATOM     25  C   UNL     1      51.830  30.713  46.412  0.00  0.00    +0.000 A 
ATOM     26  H   UNL     1      54.569  33.181  48.994  0.00  0.00    +0.000 HD
ENDBRANCH  10  16
ENDBRANCH   3   8
BRANCH   1  27
ATOM     27  C   UNL     1      46.093  30.897  46.906  0.00  0.00    +0.000 C 
ATOM     28  H   UNL     1      46.998  30.361  46.698  0.00  0.00    +0.000 HD
ATOM     29  H   UNL     1      45.234  30.182  46.743  0.00  0.00    +0.000 HD
BRANCH  27  31
ATOM     30  C   UNL     1      45.759  33.128  46.229  0.00  0.00    +0.000 C 
ATOM     31  C   UNL     1      45.924  31.939  45.826  0.00  0.00    +0.000 C 
BRANCH  30  36
ATOM     32  C   UNL     1      44.551  36.150  44.496  0.00  0.00    +0.000 A 
ATOM     33  C   UNL     1      45.215  36.103  43.284  0.00  0.00    +0.000 A 
ATOM     34  C   UNL     1      46.053  35.042  43.089  0.00  0.00    +0.000 A 
ATOM     35  N   UNL     1      46.193  34.105  44.070  0.00  0.00    +0.000 NA
ATOM     36  C   UNL     1      45.532  34.182  45.236  0.00  0.00    +0.000 A 
ATOM     37  N   UNL     1      44.721  35.212  45.420  0.00  0.00    +0.000 NA
ATOM     38  H   UNL     1      43.885  37.002  44.639  0.00  0.00    +0.000 HD
ATOM     39  H   UNL     1      45.136  36.810  42.495  0.00  0.00    +0.000 HD
BRANCH  34  40
ATOM     40  C   UNL     1      46.819  34.856  41.865  0.00  0.00    +0.000 A 
ATOM     41  C   UNL     1      48.045  35.407  41.629  0.00  0.00    +0.000 A 
ATOM     42  C   UNL     1      48.762  35.224  40.462  0.00  0.00    +0.000 A 
ATOM     43  C   UNL     1      48.239  34.444  39.458  0.00  0.00    +0.000 A 
ATOM     44  C   UNL     1      47.011  33.866  39.641  0.00  0.00    +0.000 A 
ATOM     45  C   UNL     1      46.347  34.088  40.827  0.00  0.00    +0.000 A 
ATOM     46  H   UNL     1      48.501  36.039  42.408  0.00  0.00    +0.000 HD
ATOM     47  H   UNL     1      49.731  35.681  40.319  0.00  0.00    +0.000 HD
ATOM     48  H   UNL     1      48.756  34.267  38.525  0.00  0.00    +0.000 HD
ATOM     49  H   UNL     1      46.586  33.245  38.851  0.00  0.00    +0.000 HD
ATOM     50  H   UNL     1      45.369  33.588  40.893  0.00  0.00    +0.000 HD
ENDBRANCH  34  40
ENDBRANCH  30  36
ENDBRANCH  27  31
ENDBRANCH   1  27
TORSDOF 6
