
 OpenBabel03242523033D

 35 38  0  0  0  0  0  0  0  0999 V2000
   45.2650   36.0720   43.3020 C   0  0  0  0  0  0  0  0  0  0  0  0
   46.0780   34.9600   43.1400 C   0  0  0  0  0  0  0  0  0  0  0  0
   46.1120   34.0570   44.1680 C   0  0  0  0  0  0  0  0  0  0  0  0
   45.3630   34.2830   45.2960 N   0  0  0  0  0  0  0  0  0  0  0  0
   44.5860   35.3760   45.4120 C   0  0  0  0  0  0  0  0  0  0  0  0
   44.5420   36.2560   44.4230 N   0  0  0  0  0  0  0  0  0  0  0  0
   45.1170   36.8770   42.6100 H   0  0  0  0  0  0  0  0  0  0  0  0
   43.9830   35.5680   46.3060 H   0  0  0  0  0  0  0  0  0  0  0  0
   46.8370   34.8280   41.9750 N   0  0  0  0  0  0  0  0  0  0  0  0
   48.1670   35.3240   41.8810 C   0  0  0  0  0  0  0  0  0  0  0  0
   48.6860   35.2340   40.4360 C   0  0  0  0  0  0  0  0  0  0  0  0
   48.6030   33.8820   39.9920 N   0  0  0  0  0  0  0  0  0  0  0  0
   47.3810   33.2150   40.2180 C   0  0  0  0  0  0  0  0  0  0  0  0
   46.3310   34.1770   40.7600 C   0  0  0  0  0  0  0  0  0  0  0  0
   48.8620   34.6360   42.3760 H   0  0  0  0  0  0  0  0  0  0  0  0
   48.2040   36.3830   42.0870 H   0  0  0  0  0  0  0  0  0  0  0  0
   49.7330   35.5660   40.4190 H   0  0  0  0  0  0  0  0  0  0  0  0
   48.1040   35.8760   39.7590 H   0  0  0  0  0  0  0  0  0  0  0  0
   49.4530   33.3140   40.1630 H   0  0  0  0  0  0  0  0  0  0  0  0
   46.9810   32.8760   39.2440 H   0  0  0  0  0  0  0  0  0  0  0  0
   47.4460   32.3480   40.8780 H   0  0  0  0  0  0  0  0  0  0  0  0
   45.4620   33.5310   40.9610 H   0  0  0  0  0  0  0  0  0  0  0  0
   46.0500   34.9490   40.0150 H   0  0  0  0  0  0  0  0  0  0  0  0
   46.6310   32.2490   45.5960 C   0  0  0  0  0  0  0  0  0  0  0  0
   46.8450   32.8580   44.3340 C   0  0  0  0  0  0  0  0  0  0  0  0
   47.6800   32.0520   43.5780 C   0  0  0  0  0  0  0  0  0  0  0  0
   47.8270   32.5160   42.5880 H   0  0  0  0  0  0  0  0  0  0  0  0
   48.2410   30.8540   43.9330 C   0  0  0  0  0  0  0  0  0  0  0  0
   49.0460   30.0660   43.2230 N   0  0  0  0  0  0  0  0  0  0  0  0
   49.2910   29.0210   44.0600 C   0  0  0  0  0  0  0  0  0  0  0  0
   49.8940   28.1440   43.9030 H   0  0  0  0  0  0  0  0  0  0  0  0
   48.6380   29.2010   45.2400 N   0  0  0  0  0  0  0  0  0  0  0  0
   47.9690   30.3510   45.1830 C   0  0  0  0  0  0  0  0  0  0  0  0
   47.1570   31.0330   46.0470 C   0  0  0  0  0  0  0  0  0  0  0  0
   49.4210   30.1760   42.2630 H   0  0  0  0  0  0  0  0  0  0  0  0
  1  6  1  0  0  0  0
  2  1  2  0  0  0  0
  2  3  1  0  0  0  0
  3 25  1  0  0  0  0
  3  4  2  0  0  0  0
  4  5  1  0  0  0  0
  5  8  1  0  0  0  0
  6  5  2  0  0  0  0
  7  1  1  0  0  0  0
  9  2  1  0  0  0  0
 10  9  1  0  0  0  0
 10 16  1  0  0  0  0
 10 15  1  0  0  0  0
 11 10  1  0  0  0  0
 12 19  1  0  0  0  0
 12 13  1  0  0  0  0
 12 11  1  0  0  0  0
 13 14  1  0  0  0  0
 13 21  1  0  0  0  0
 14 22  1  0  0  0  0
 14  9  1  0  0  0  0
 17 11  1  0  0  0  0
 18 11  1  0  0  0  0
 20 13  1  0  0  0  0
 23 14  1  0  0  0  0
 24 34  1  0  0  0  0
 25 24  2  0  0  0  0
 26 28  2  0  0  0  0
 26 25  1  0  0  0  0
 27 26  1  0  0  0  0
 28 33  1  0  0  0  0
 29 28  1  0  0  0  0
 29 30  1  0  0  0  0
 30 32  2  0  0  0  0
 31 30  1  0  0  0  0
 33 32  1  0  0  0  0
 33 34  2  0  0  0  0
 35 29  1  0  0  0  0
M  END
>  <minimizedAffinity>
-5.31267214

>  <minimizedRMSD>
3.65380955

$$$$
