REMARK  Name = 
REMARK  3 active torsions:
REMARK  status: ('A' for Active; 'I' for Inactive)
REMARK    1  A    between atoms: C_1  and  C_7
REMARK    2  A    between atoms: C_2  and  C_17
REMARK    3  A    between atoms: C_7  and  C_8
REMARK                            x       y       z     vdW  Elec       q    Type
REMARK                         _______ _______ _______ _____ _____    ______ ____
ROOT
ATOM      1  C   UNL     1      47.273  34.188  43.276  0.00  0.00    +0.000 A 
ATOM      2  C   UNL     1      46.620  35.168  42.550  0.00  0.00    +0.000 A 
ATOM      3  C   UNL     1      45.374  35.630  43.038  0.00  0.00    +0.000 A 
ATOM      4  N   UNL     1      44.892  35.089  44.184  0.00  0.00    +0.000 NA
ATOM      5  C   UNL     1      45.564  34.135  44.857  0.00  0.00    +0.000 A 
ATOM      6  N   UNL     1      46.734  33.694  44.410  0.00  0.00    +0.000 NA
ATOM      7  H   UNL     1      44.770  36.390  42.562  0.00  0.00    +0.000 HD
ATOM      8  H   UNL     1      45.149  33.719  45.777  0.00  0.00    +0.000 HD
ENDROOT
BRANCH   2  10
ATOM      9  C   UNL     1      47.695  36.963  41.050  0.00  0.00    +0.000 A 
ATOM     10  C   UNL     1      47.066  35.771  41.332  0.00  0.00    +0.000 A 
ATOM     11  C   UNL     1      46.793  34.984  40.200  0.00  0.00    +0.000 A 
ATOM     12  H   UNL     1      46.297  34.005  40.250  0.00  0.00    +0.000 HD
ATOM     13  C   UNL     1      47.117  35.351  38.917  0.00  0.00    +0.000 A 
ATOM     14  N   UNL     1      46.967  34.792  37.702  0.00  0.00    +0.000 N 
ATOM     15  C   UNL     1      47.473  35.593  36.749  0.00  0.00    +0.000 A 
ATOM     16  H   UNL     1      47.525  35.468  35.685  0.00  0.00    +0.000 HD
ATOM     17  N   UNL     1      47.956  36.693  37.388  0.00  0.00    +0.000 NA
ATOM     18  C   UNL     1      47.746  36.560  38.711  0.00  0.00    +0.000 A 
ATOM     19  C   UNL     1      48.039  37.374  39.782  0.00  0.00    +0.000 A 
ATOM     20  H   UNL     1      46.525  33.867  37.504  0.00  0.00    +0.000 HD
ENDBRANCH   2  10
BRANCH   1  21
ATOM     21  C   UNL     1      48.565  33.667  42.851  0.00  0.00    +0.000 C 
ATOM     22  H   UNL     1      48.438  33.066  41.930  0.00  0.00    +0.000 HD
ATOM     23  H   UNL     1      48.983  32.964  43.599  0.00  0.00    +0.000 HD
BRANCH  21  24
ATOM     24  C   UNL     1      49.512  34.825  42.598  0.00  0.00    +0.000 C 
ATOM     25  H   UNL     1      50.408  34.663  43.271  0.00  0.00    +0.000 HD
ATOM     26  H   UNL     1      49.107  35.802  42.855  0.00  0.00    +0.000 HD
ATOM     27  H   UNL     1      49.970  34.758  41.574  0.00  0.00    +0.000 HD
ENDBRANCH  21  24
ENDBRANCH   1  21
TORSDOF 3
