
 OpenBabel03242514123D

 49 53  0  0  1  0  0  0  0  0999 V2000
   37.5010   26.3860   40.8920 C   0  0  0  0  0  0  0  0  0  0  0  0
   37.8830   25.8170   42.0840 C   0  0  0  0  0  0  0  0  0  0  0  0
   37.7370   24.4690   42.3780 C   0  0  0  0  0  0  0  0  0  0  0  0
   37.1600   23.7160   41.3460 C   0  0  0  0  0  0  0  0  0  0  0  0
   36.7710   24.3020   40.1290 C   0  0  0  0  0  0  0  0  0  0  0  0
   36.9420   25.6180   39.9140 N   0  0  0  0  0  0  0  0  0  0  0  0
   38.3200   26.4840   42.8200 H   0  0  0  0  0  0  0  0  0  0  0  0
   38.0460   24.0760   43.3130 H   0  0  0  0  0  0  0  0  0  0  0  0
   37.0680   22.6770   41.6280 H   0  0  0  0  0  0  0  0  0  0  0  0
   36.1940   23.4500   39.0920 C   0  0  1  0  0  0  0  0  0  0  0  0
   34.6490   23.2260   39.3620 C   0  0  0  0  0  0  0  0  0  0  0  0
   34.3530   21.9830   38.4810 C   0  0  0  0  0  0  0  0  0  0  0  0
   34.3520   22.5390   37.0550 C   0  0  0  0  0  0  0  0  0  0  0  0
   35.6840   23.0760   36.6870 C   0  0  0  0  0  0  0  0  0  0  0  0
   36.4340   23.8140   37.7300 C   0  0  2  0  0  0  0  0  0  0  0  0
   36.5660   22.4060   39.3140 H   0  0  0  0  0  0  0  0  0  0  0  0
   34.5280   22.9860   40.4270 H   0  0  0  0  0  0  0  0  0  0  0  0
   34.0840   24.0870   38.9990 H   0  0  0  0  0  0  0  0  0  0  0  0
   33.3410   21.6480   38.7290 H   0  0  0  0  0  0  0  0  0  0  0  0
   35.1510   21.2360   38.6130 H   0  0  0  0  0  0  0  0  0  0  0  0
   34.0820   21.6680   36.4220 H   0  0  0  0  0  0  0  0  0  0  0  0
   33.5150   23.2450   36.9730 H   0  0  0  0  0  0  0  0  0  0  0  0
   35.5690   23.6950   35.7720 H   0  0  0  0  0  0  0  0  0  0  0  0
   36.2730   22.1850   36.3100 H   0  0  0  0  0  0  0  0  0  0  0  0
   36.1750   24.9060   37.5710 H   0  0  0  0  0  0  0  0  0  0  0  0
   38.2000   23.4990   37.4000 S   0  0  0  0  0  0  0  0  0  0  0  0
   38.8430   24.7070   37.0540 H   0  0  0  0  0  0  0  0  0  0  0  0
   38.8270   29.6220   39.8430 C   0  0  0  0  0  0  0  0  0  0  0  0
   37.9040   30.5390   40.3240 C   0  0  0  0  0  0  0  0  0  0  0  0
   36.8300   30.0170   41.0090 C   0  0  0  0  0  0  0  0  0  0  0  0
   36.7340   28.6610   41.1720 N   0  0  0  0  0  0  0  0  0  0  0  0
   37.6950   27.8080   40.6620 C   0  0  0  0  0  0  0  0  0  0  0  0
   38.7000   28.2920   40.0220 N   0  0  0  0  0  0  0  0  0  0  0  0
   35.8060   30.7830   41.5620 N   0  0  0  0  0  0  0  0  0  0  0  0
   39.6850   30.0050   39.2990 H   0  0  0  0  0  0  0  0  0  0  0  0
   35.8830   31.4340   42.3730 H   0  0  0  0  0  0  0  0  0  0  0  0
   34.7810   30.9170   41.3550 H   0  0  0  0  0  0  0  0  0  0  0  0
   37.1120   32.7440   39.4060 C   0  0  0  0  0  3  0  0  0  0  0  0
   38.0120   31.9780   40.1480 C   0  0  0  0  0  0  0  0  0  0  0  0
   39.1020   32.5580   40.7850 C   0  0  0  0  0  0  0  0  0  0  0  0
   39.8310   32.0430   41.3670 H   0  0  0  0  0  0  0  0  0  0  0  0
   39.3210   33.9340   40.6940 C   0  0  0  0  0  0  0  0  0  0  0  0
   40.2660   34.7890   41.1850 N   0  0  0  0  0  0  0  0  0  0  0  0
   39.9300   35.9950   40.7490 C   0  0  0  0  0  0  0  0  0  0  0  0
   40.5260   36.8440   41.0030 H   0  0  0  0  0  0  0  0  0  0  0  0
   38.8100   35.9700   39.9950 N   0  0  0  0  0  0  0  0  0  0  0  0
   38.4150   34.6940   39.9500 C   0  0  0  0  0  0  0  0  0  0  0  0
   37.3330   34.1110   39.3190 C   0  0  0  0  0  3  0  0  0  0  0  0
   41.0630   34.4660   41.7790 H   0  0  0  0  0  0  0  0  0  0  0  0
  1  2  1  0  0  0  0
  2  3  2  0  0  0  0
  2  7  1  0  0  0  0
  3  8  1  0  0  0  0
  4  9  1  0  0  0  0
  4  3  1  0  0  0  0
  5  4  2  0  0  0  0
  6  5  1  0  0  0  0
  6  1  2  0  0  0  0
 10 16  1  1  0  0  0
 10 11  1  0  0  0  0
 10  5  1  0  0  0  0
 11 17  1  0  0  0  0
 12 20  1  0  0  0  0
 12 19  1  0  0  0  0
 12 11  1  0  0  0  0
 13 12  1  0  0  0  0
 14 13  1  0  0  0  0
 14 15  1  0  0  0  0
 15 25  1  6  0  0  0
 15 10  1  0  0  0  0
 18 11  1  0  0  0  0
 21 13  1  0  0  0  0
 22 13  1  0  0  0  0
 23 14  1  0  0  0  0
 24 14  1  0  0  0  0
 26 15  1  0  0  0  0
 27 26  1  0  0  0  0
 28 33  2  0  0  0  0
 28 29  1  0  0  0  0
 29 30  2  0  0  0  0
 30 31  1  0  0  0  0
 30 34  1  0  0  0  0
 32  1  1  0  0  0  0
 32 31  2  0  0  0  0
 33 32  1  0  0  0  0
 34 36  1  0  0  0  0
 35 28  1  0  0  0  0
 37 34  1  0  0  0  0
 38 39  1  0  0  0  0
 39 29  1  0  0  0  0
 39 40  2  0  0  0  0
 40 41  1  0  0  0  0
 42 40  1  0  0  0  0
 42 43  1  0  0  0  0
 43 49  1  0  0  0  0
 44 45  1  0  0  0  0
 44 43  1  0  0  0  0
 46 44  2  0  0  0  0
 47 46  1  0  0  0  0
 47 42  2  0  0  0  0
 48 38  2  0  0  0  0
 48 47  1  0  0  0  0
M  END
>  <minimizedAffinity>
-7.19637823

$$$$

 OpenBabel03242514123D

 49 53  0  0  1  0  0  0  0  0999 V2000
   37.4640   26.4450   40.8050 C   0  0  0  0  0  0  0  0  0  0  0  0
   37.1450   25.9710   42.0550 C   0  0  0  0  0  0  0  0  0  0  0  0
   36.9360   24.6300   42.3430 C   0  0  0  0  0  0  0  0  0  0  0  0
   37.0780   23.7780   41.2390 C   0  0  0  0  0  0  0  0  0  0  0  0
   37.4050   24.2660   39.9630 C   0  0  0  0  0  0  0  0  0  0  0  0
   37.5920   25.5820   39.7570 N   0  0  0  0  0  0  0  0  0  0  0  0
   37.0570   26.7100   42.8450 H   0  0  0  0  0  0  0  0  0  0  0  0
   36.6910   24.3120   43.3240 H   0  0  0  0  0  0  0  0  0  0  0  0
   36.9040   22.7490   41.5190 H   0  0  0  0  0  0  0  0  0  0  0  0
   37.5560   23.3160   38.8640 C   0  0  1  0  0  0  0  0  0  0  0  0
   38.9440   22.5600   38.9790 C   0  0  0  0  0  0  0  0  0  0  0  0
   39.1110   21.9900   37.5450 C   0  0  0  0  0  0  0  0  0  0  0  0
   38.1160   20.8270   37.4970 C   0  0  0  0  0  0  0  0  0  0  0  0
   36.7220   21.3070   37.6580 C   0  0  0  0  0  0  0  0  0  0  0  0
   36.4840   22.3980   38.6330 C   0  0  2  0  0  0  0  0  0  0  0  0
   37.7710   23.9420   37.9480 H   0  0  0  0  0  0  0  0  0  0  0  0
   39.7170   23.3110   39.1910 H   0  0  0  0  0  0  0  0  0  0  0  0
   38.8590   21.7450   39.7010 H   0  0  0  0  0  0  0  0  0  0  0  0
   40.1260   21.5870   37.4770 H   0  0  0  0  0  0  0  0  0  0  0  0
   38.8510   22.7630   36.8050 H   0  0  0  0  0  0  0  0  0  0  0  0
   38.2700   20.3750   36.4960 H   0  0  0  0  0  0  0  0  0  0  0  0
   38.4480   20.0750   38.2250 H   0  0  0  0  0  0  0  0  0  0  0  0
   36.0770   20.4310   37.8830 H   0  0  0  0  0  0  0  0  0  0  0  0
   36.3850   21.6030   36.6200 H   0  0  0  0  0  0  0  0  0  0  0  0
   36.2040   21.8800   39.6020 H   0  0  0  0  0  0  0  0  0  0  0  0
   35.0880   23.3680   37.9720 S   0  0  0  0  0  0  0  0  0  0  0  0
   33.9850   23.2740   38.8480 H   0  0  0  0  0  0  0  0  0  0  0  0
   38.8330   29.6790   39.8080 C   0  0  0  0  0  0  0  0  0  0  0  0
   37.9080   30.5990   40.2790 C   0  0  0  0  0  0  0  0  0  0  0  0
   36.8170   30.0790   40.9370 C   0  0  0  0  0  0  0  0  0  0  0  0
   36.7080   28.7230   41.0880 N   0  0  0  0  0  0  0  0  0  0  0  0
   37.6720   27.8670   40.5900 C   0  0  0  0  0  0  0  0  0  0  0  0
   38.6930   28.3490   39.9750 N   0  0  0  0  0  0  0  0  0  0  0  0
   35.7870   30.8490   41.4760 N   0  0  0  0  0  0  0  0  0  0  0  0
   39.7050   30.0600   39.2850 H   0  0  0  0  0  0  0  0  0  0  0  0
   35.8530   31.4920   42.2940 H   0  0  0  0  0  0  0  0  0  0  0  0
   34.7680   30.9920   41.2500 H   0  0  0  0  0  0  0  0  0  0  0  0
   37.1470   32.8180   39.3650 C   0  0  0  0  0  3  0  0  0  0  0  0
   38.0300   32.0390   40.1160 C   0  0  0  0  0  0  0  0  0  0  0  0
   39.1130   32.6050   40.7760 C   0  0  0  0  0  0  0  0  0  0  0  0
   39.8280   32.0800   41.3660 H   0  0  0  0  0  0  0  0  0  0  0  0
   39.3430   33.9800   40.7000 C   0  0  0  0  0  0  0  0  0  0  0  0
   40.2870   34.8240   41.2140 N   0  0  0  0  0  0  0  0  0  0  0  0
   39.9680   36.0360   40.7820 C   0  0  0  0  0  0  0  0  0  0  0  0
   40.5650   36.8780   41.0540 H   0  0  0  0  0  0  0  0  0  0  0  0
   38.8600   36.0260   40.0100 N   0  0  0  0  0  0  0  0  0  0  0  0
   38.4570   34.7530   39.9480 C   0  0  0  0  0  0  0  0  0  0  0  0
   37.3800   34.1830   39.2930 C   0  0  0  0  0  3  0  0  0  0  0  0
   41.0710   34.4890   41.8190 H   0  0  0  0  0  0  0  0  0  0  0  0
  1  2  1  0  0  0  0
  2  3  2  0  0  0  0
  2  7  1  0  0  0  0
  3  8  1  0  0  0  0
  4  9  1  0  0  0  0
  4  3  1  0  0  0  0
  5  4  2  0  0  0  0
  6  5  1  0  0  0  0
  6  1  2  0  0  0  0
 10 16  1  6  0  0  0
 10 11  1  0  0  0  0
 10  5  1  0  0  0  0
 11 17  1  0  0  0  0
 11 18  1  0  0  0  0
 12 11  1  0  0  0  0
 13 12  1  0  0  0  0
 13 14  1  0  0  0  0
 13 22  1  0  0  0  0
 14 23  1  0  0  0  0
 14 15  1  0  0  0  0
 15 10  1  0  0  0  0
 15 25  1  1  0  0  0
 19 12  1  0  0  0  0
 20 12  1  0  0  0  0
 21 13  1  0  0  0  0
 24 14  1  0  0  0  0
 26 15  1  0  0  0  0
 26 27  1  0  0  0  0
 28 33  2  0  0  0  0
 28 29  1  0  0  0  0
 29 30  2  0  0  0  0
 30 31  1  0  0  0  0
 30 34  1  0  0  0  0
 32  1  1  0  0  0  0
 32 31  2  0  0  0  0
 33 32  1  0  0  0  0
 34 36  1  0  0  0  0
 35 28  1  0  0  0  0
 37 34  1  0  0  0  0
 38 39  1  0  0  0  0
 39 29  1  0  0  0  0
 39 40  2  0  0  0  0
 40 41  1  0  0  0  0
 42 40  1  0  0  0  0
 42 43  1  0  0  0  0
 43 49  1  0  0  0  0
 44 45  1  0  0  0  0
 44 43  1  0  0  0  0
 46 44  2  0  0  0  0
 47 46  1  0  0  0  0
 47 42  2  0  0  0  0
 48 38  2  0  0  0  0
 48 47  1  0  0  0  0
M  END
>  <minimizedAffinity>
-7.19140673

$$$$

 OpenBabel03242514123D

 49 53  0  0  1  0  0  0  0  0999 V2000
   39.9980   33.4230   40.8020 C   0  0  0  0  0  0  0  0  0  0  0  0
   39.2490   34.4820   40.3490 C   0  0  0  0  0  0  0  0  0  0  0  0
   39.7640   35.7500   40.1190 C   0  0  0  0  0  0  0  0  0  0  0  0
   41.1340   35.8690   40.3880 C   0  0  0  0  0  0  0  0  0  0  0  0
   41.8960   34.7830   40.8510 C   0  0  0  0  0  0  0  0  0  0  0  0
   41.3290   33.5810   41.0530 N   0  0  0  0  0  0  0  0  0  0  0  0
   38.1960   34.2890   40.1700 H   0  0  0  0  0  0  0  0  0  0  0  0
   39.1460   36.5370   39.7700 H   0  0  0  0  0  0  0  0  0  0  0  0
   41.4820   36.8740   40.1940 H   0  0  0  0  0  0  0  0  0  0  0  0
   43.3240   34.9770   41.0910 C   0  0  1  0  0  0  0  0  0  0  0  0
   43.5700   35.4570   42.5810 C   0  0  0  0  0  0  0  0  0  0  0  0
   45.0070   36.0360   42.4910 C   0  0  0  0  0  0  0  0  0  0  0  0
   45.8960   34.7930   42.4030 C   0  0  0  0  0  0  0  0  0  0  0  0
   45.6180   34.0190   41.1690 C   0  0  0  0  0  0  0  0  0  0  0  0
   44.2040   33.9060   40.7400 C   0  0  2  0  0  0  0  0  0  0  0  0
   43.5960   35.9320   40.5500 H   0  0  0  0  0  0  0  0  0  0  0  0
   42.8440   36.2510   42.8000 H   0  0  0  0  0  0  0  0  0  0  0  0
   43.5530   34.5950   43.2520 H   0  0  0  0  0  0  0  0  0  0  0  0
   45.2070   36.5450   43.4390 H   0  0  0  0  0  0  0  0  0  0  0  0
   45.1030   36.6540   41.5850 H   0  0  0  0  0  0  0  0  0  0  0  0
   46.9310   35.1950   42.3990 H   0  0  0  0  0  0  0  0  0  0  0  0
   45.7900   34.2400   43.3460 H   0  0  0  0  0  0  0  0  0  0  0  0
   46.0780   33.0140   41.2780 H   0  0  0  0  0  0  0  0  0  0  0  0
   46.2550   34.4980   40.3660 H   0  0  0  0  0  0  0  0  0  0  0  0
   43.8300   32.9350   41.1900 H   0  0  0  0  0  0  0  0  0  0  0  0
   44.2360   33.8220   38.9180 S   0  0  0  0  0  0  0  0  0  0  0  0
   43.7500   32.5670   38.4900 H   0  0  0  0  0  0  0  0  0  0  0  0
   37.6960   30.5880   40.7880 C   0  0  0  0  0  0  0  0  0  0  0  0
   38.3600   29.6080   41.5130 C   0  0  0  0  0  0  0  0  0  0  0  0
   39.6020   29.9490   41.9960 C   0  0  0  0  0  0  0  0  0  0  0  0
   40.1010   31.1990   41.7430 N   0  0  0  0  0  0  0  0  0  0  0  0
   39.3800   32.1240   41.0120 C   0  0  0  0  0  0  0  0  0  0  0  0
   38.2180   31.8090   40.5590 N   0  0  0  0  0  0  0  0  0  0  0  0
   40.4130   29.0960   42.7420 N   0  0  0  0  0  0  0  0  0  0  0  0
   36.7130   30.3480   40.3940 H   0  0  0  0  0  0  0  0  0  0  0  0
   40.2350   28.7570   43.7120 H   0  0  0  0  0  0  0  0  0  0  0  0
   41.3290   28.6030   42.5730 H   0  0  0  0  0  0  0  0  0  0  0  0
   37.0850   27.9510   42.9140 C   0  0  0  0  0  3  0  0  0  0  0  0
   37.8240   28.2830   41.7780 C   0  0  0  0  0  0  0  0  0  0  0  0
   38.1050   27.3400   40.7960 C   0  0  0  0  0  0  0  0  0  0  0  0
   38.6600   27.5150   39.9040 H   0  0  0  0  0  0  0  0  0  0  0  0
   37.6470   26.0280   40.9300 C   0  0  0  0  0  0  0  0  0  0  0  0
   37.7460   24.8960   40.1720 N   0  0  0  0  0  0  0  0  0  0  0  0
   37.0960   23.9520   40.8360 C   0  0  0  0  0  0  0  0  0  0  0  0
   37.0320   22.9620   40.4410 H   0  0  0  0  0  0  0  0  0  0  0  0
   36.5750   24.4110   41.9940 N   0  0  0  0  0  0  0  0  0  0  0  0
   36.9080   25.7030   42.0700 C   0  0  0  0  0  0  0  0  0  0  0  0
   36.6330   26.6470   43.0420 C   0  0  0  0  0  3  0  0  0  0  0  0
   38.2560   24.8730   39.2590 H   0  0  0  0  0  0  0  0  0  0  0  0
  1 32  1  0  0  0  0
  1  6  1  0  0  0  0
  2  1  2  0  0  0  0
  3  2  1  0  0  0  0
  3  4  2  0  0  0  0
  4  5  1  0  0  0  0
  5  6  2  0  0  0  0
  5 10  1  0  0  0  0
  7  2  1  0  0  0  0
  8  3  1  0  0  0  0
  9  4  1  0  0  0  0
 10 16  1  6  0  0  0
 10 11  1  0  0  0  0
 11 17  1  0  0  0  0
 11 18  1  0  0  0  0
 12 11  1  0  0  0  0
 12 19  1  0  0  0  0
 13 12  1  0  0  0  0
 13 22  1  0  0  0  0
 14 23  1  0  0  0  0
 14 13  1  0  0  0  0
 15 10  1  0  0  0  0
 15 14  1  0  0  0  0
 15 25  1  1  0  0  0
 20 12  1  0  0  0  0
 21 13  1  0  0  0  0
 24 14  1  0  0  0  0
 26 15  1  0  0  0  0
 27 26  1  0  0  0  0
 28 29  1  0  0  0  0
 29 39  1  0  0  0  0
 29 30  2  0  0  0  0
 30 34  1  0  0  0  0
 31 30  1  0  0  0  0
 32 31  2  0  0  0  0
 33 28  2  0  0  0  0
 33 32  1  0  0  0  0
 34 36  1  0  0  0  0
 35 28  1  0  0  0  0
 37 34  1  0  0  0  0
 38 48  1  0  0  0  0
 39 38  2  0  0  0  0
 40 42  2  0  0  0  0
 40 39  1  0  0  0  0
 41 40  1  0  0  0  0
 42 47  1  0  0  0  0
 43 44  1  0  0  0  0
 43 42  1  0  0  0  0
 44 46  2  0  0  0  0
 45 44  1  0  0  0  0
 46 47  1  0  0  0  0
 47 48  2  0  0  0  0
 49 43  1  0  0  0  0
M  END
>  <minimizedAffinity>
-6.8980751

$$$$

 OpenBabel03242514123D

 49 53  0  0  1  0  0  0  0  0999 V2000
   39.4660   33.6950   39.8830 C   0  0  0  0  0  0  0  0  0  0  0  0
   38.8120   34.8740   40.1490 C   0  0  0  0  0  0  0  0  0  0  0  0
   39.4520   36.0350   40.5620 C   0  0  0  0  0  0  0  0  0  0  0  0
   40.8420   35.9100   40.6900 C   0  0  0  0  0  0  0  0  0  0  0  0
   41.5050   34.7010   40.4160 C   0  0  0  0  0  0  0  0  0  0  0  0
   40.8200   33.6140   40.0200 N   0  0  0  0  0  0  0  0  0  0  0  0
   37.7350   34.8700   40.0210 H   0  0  0  0  0  0  0  0  0  0  0  0
   38.9050   36.9220   40.7560 H   0  0  0  0  0  0  0  0  0  0  0  0
   41.2870   36.8390   41.0140 H   0  0  0  0  0  0  0  0  0  0  0  0
   42.9580   34.6510   40.5520 C   0  0  1  0  0  0  0  0  0  0  0  0
   43.3700   34.6950   42.0820 C   0  0  0  0  0  0  0  0  0  0  0  0
   44.8660   35.0980   41.9930 C   0  0  0  0  0  0  0  0  0  0  0  0
   45.5600   33.8210   41.5110 C   0  0  0  0  0  0  0  0  0  0  0  0
   45.0920   33.4330   40.1590 C   0  0  0  0  0  0  0  0  0  0  0  0
   43.6510   33.6080   39.8590 C   0  0  2  0  0  0  0  0  0  0  0  0
   43.3280   35.6730   40.2400 H   0  0  0  0  0  0  0  0  0  0  0  0
   42.7820   35.4870   42.5620 H   0  0  0  0  0  0  0  0  0  0  0  0
   43.2740   33.6980   42.5160 H   0  0  0  0  0  0  0  0  0  0  0  0
   45.1990   35.3160   43.0130 H   0  0  0  0  0  0  0  0  0  0  0  0
   44.9890   35.9130   41.2640 H   0  0  0  0  0  0  0  0  0  0  0  0
   46.6380   34.0810   41.5030 H   0  0  0  0  0  0  0  0  0  0  0  0
   45.4370   33.0600   42.2940 H   0  0  0  0  0  0  0  0  0  0  0  0
   45.4090   32.3860   39.9680 H   0  0  0  0  0  0  0  0  0  0  0  0
   45.7360   34.0230   39.4390 H   0  0  0  0  0  0  0  0  0  0  0  0
   43.1720   32.6070   40.0910 H   0  0  0  0  0  0  0  0  0  0  0  0
   43.5490   33.9950   38.0800 S   0  0  0  0  0  0  0  0  0  0  0  0
   42.8610   32.9630   37.4060 H   0  0  0  0  0  0  0  0  0  0  0  0
   38.2990   30.7560   38.0570 C   0  0  0  0  0  0  0  0  0  0  0  0
   37.1850   30.3350   38.7680 C   0  0  0  0  0  0  0  0  0  0  0  0
   36.8550   31.0800   39.8770 C   0  0  0  0  0  0  0  0  0  0  0  0
   37.6220   32.1650   40.2070 N   0  0  0  0  0  0  0  0  0  0  0  0
   38.7200   32.5250   39.4490 C   0  0  0  0  0  0  0  0  0  0  0  0
   39.0310   31.8310   38.4120 N   0  0  0  0  0  0  0  0  0  0  0  0
   35.7730   30.8070   40.7110 N   0  0  0  0  0  0  0  0  0  0  0  0
   38.5830   30.1880   37.1760 H   0  0  0  0  0  0  0  0  0  0  0  0
   34.7620   30.8970   40.4690 H   0  0  0  0  0  0  0  0  0  0  0  0
   35.6640   30.4730   41.7050 H   0  0  0  0  0  0  0  0  0  0  0  0
   36.5780   27.8970   38.9180 C   0  0  0  0  0  3  0  0  0  0  0  0
   36.3750   29.1810   38.4110 C   0  0  0  0  0  0  0  0  0  0  0  0
   35.3550   29.4500   37.5060 C   0  0  0  0  0  0  0  0  0  0  0  0
   35.1370   30.3990   37.0760 H   0  0  0  0  0  0  0  0  0  0  0  0
   34.5040   28.4270   37.0820 C   0  0  0  0  0  0  0  0  0  0  0  0
   33.4390   28.3580   36.2290 N   0  0  0  0  0  0  0  0  0  0  0  0
   33.0420   27.0930   36.2400 C   0  0  0  0  0  0  0  0  0  0  0  0
   32.2130   26.7850   35.6430 H   0  0  0  0  0  0  0  0  0  0  0  0
   33.7970   26.3310   37.0600 N   0  0  0  0  0  0  0  0  0  0  0  0
   34.7130   27.1440   37.5930 C   0  0  0  0  0  0  0  0  0  0  0  0
   35.7300   26.8850   38.4930 C   0  0  0  0  0  3  0  0  0  0  0  0
   33.0780   29.1920   35.7110 H   0  0  0  0  0  0  0  0  0  0  0  0
  1  6  2  0  0  0  0
  1  2  1  0  0  0  0
  2  3  2  0  0  0  0
  3  4  1  0  0  0  0
  3  8  1  0  0  0  0
  4  9  1  0  0  0  0
  5 10  1  0  0  0  0
  5  4  2  0  0  0  0
  6  5  1  0  0  0  0
  7  2  1  0  0  0  0
 10 16  1  6  0  0  0
 10 11  1  0  0  0  0
 11 18  1  0  0  0  0
 11 17  1  0  0  0  0
 12 11  1  0  0  0  0
 12 19  1  0  0  0  0
 13 12  1  0  0  0  0
 13 22  1  0  0  0  0
 14 13  1  0  0  0  0
 15 25  1  1  0  0  0
 15 14  1  0  0  0  0
 15 10  1  0  0  0  0
 20 12  1  0  0  0  0
 21 13  1  0  0  0  0
 23 14  1  0  0  0  0
 24 14  1  0  0  0  0
 26 15  1  0  0  0  0
 27 26  1  0  0  0  0
 28 33  2  0  0  0  0
 28 29  1  0  0  0  0
 29 30  2  0  0  0  0
 30 31  1  0  0  0  0
 30 34  1  0  0  0  0
 32  1  1  0  0  0  0
 32 31  2  0  0  0  0
 33 32  1  0  0  0  0
 34 37  1  0  0  0  0
 35 28  1  0  0  0  0
 36 34  1  0  0  0  0
 39 29  1  0  0  0  0
 39 38  2  0  0  0  0
 40 39  1  0  0  0  0
 41 40  1  0  0  0  0
 42 40  2  0  0  0  0
 42 47  1  0  0  0  0
 43 44  1  0  0  0  0
 43 42  1  0  0  0  0
 44 46  2  0  0  0  0
 45 44  1  0  0  0  0
 46 47  1  0  0  0  0
 47 48  2  0  0  0  0
 48 38  1  0  0  0  0
 49 43  1  0  0  0  0
M  END
>  <minimizedAffinity>
-6.83539248

$$$$

 OpenBabel03242514123D

 49 53  0  0  1  0  0  0  0  0999 V2000
   38.9410   33.1020   39.5690 C   0  0  0  0  0  0  0  0  0  0  0  0
   38.4720   34.2940   40.0670 C   0  0  0  0  0  0  0  0  0  0  0  0
   39.2900   35.3560   40.4250 C   0  0  0  0  0  0  0  0  0  0  0  0
   40.6580   35.1160   40.2360 C   0  0  0  0  0  0  0  0  0  0  0  0
   41.1330   33.8950   39.7260 C   0  0  0  0  0  0  0  0  0  0  0  0
   40.2800   32.9080   39.4010 N   0  0  0  0  0  0  0  0  0  0  0  0
   37.3960   34.3830   40.1760 H   0  0  0  0  0  0  0  0  0  0  0  0
   38.8820   36.2580   40.8050 H   0  0  0  0  0  0  0  0  0  0  0  0
   41.2470   35.9720   40.5310 H   0  0  0  0  0  0  0  0  0  0  0  0
   42.5700   33.7240   39.5380 C   0  0  1  0  0  0  0  0  0  0  0  0
   43.0180   34.3290   38.1430 C   0  0  0  0  0  0  0  0  0  0  0  0
   44.4000   33.6540   37.9360 C   0  0  0  0  0  0  0  0  0  0  0  0
   45.3160   34.3940   38.9150 C   0  0  0  0  0  0  0  0  0  0  0  0
   44.8880   34.1800   40.3180 C   0  0  0  0  0  0  0  0  0  0  0  0
   43.4320   34.1630   40.5920 C   0  0  2  0  0  0  0  0  0  0  0  0
   42.7190   32.6270   39.3100 H   0  0  0  0  0  0  0  0  0  0  0  0
   42.3010   33.9860   37.3850 H   0  0  0  0  0  0  0  0  0  0  0  0
   43.1360   35.4110   38.2330 H   0  0  0  0  0  0  0  0  0  0  0  0
   44.7190   33.8840   36.9150 H   0  0  0  0  0  0  0  0  0  0  0  0
   44.3330   32.5850   38.1900 H   0  0  0  0  0  0  0  0  0  0  0  0
   46.3210   33.9600   38.7320 H   0  0  0  0  0  0  0  0  0  0  0  0
   45.3750   35.4420   38.5890 H   0  0  0  0  0  0  0  0  0  0  0  0
   45.4000   34.9310   40.9570 H   0  0  0  0  0  0  0  0  0  0  0  0
   45.3770   33.2100   40.6360 H   0  0  0  0  0  0  0  0  0  0  0  0
   43.1690   35.2260   40.8870 H   0  0  0  0  0  0  0  0  0  0  0  0
   43.1940   33.0110   41.9850 S   0  0  0  0  0  0  0  0  0  0  0  0
   42.7010   33.7130   43.1060 H   0  0  0  0  0  0  0  0  0  0  0  0
   36.3610   30.5200   39.6560 C   0  0  0  0  0  0  0  0  0  0  0  0
   36.3280   30.0280   38.3590 C   0  0  0  0  0  0  0  0  0  0  0  0
   37.2060   30.6050   37.4700 C   0  0  0  0  0  0  0  0  0  0  0  0
   38.0390   31.6020   37.9010 N   0  0  0  0  0  0  0  0  0  0  0  0
   38.0140   32.0400   39.2120 C   0  0  0  0  0  0  0  0  0  0  0  0
   37.1950   31.5040   40.0460 N   0  0  0  0  0  0  0  0  0  0  0  0
   37.3140   30.2420   36.1290 N   0  0  0  0  0  0  0  0  0  0  0  0
   35.6790   30.0840   40.3800 H   0  0  0  0  0  0  0  0  0  0  0  0
   37.6790   29.3400   35.7550 H   0  0  0  0  0  0  0  0  0  0  0  0
   37.0900   30.7090   35.2110 H   0  0  0  0  0  0  0  0  0  0  0  0
   34.1950   29.1910   37.3180 C   0  0  0  0  0  3  0  0  0  0  0  0
   35.4400   28.9690   37.9080 C   0  0  0  0  0  0  0  0  0  0  0  0
   35.9280   27.6830   38.1080 C   0  0  0  0  0  0  0  0  0  0  0  0
   36.8640   27.4330   38.5500 H   0  0  0  0  0  0  0  0  0  0  0  0
   35.1720   26.5760   37.7180 C   0  0  0  0  0  0  0  0  0  0  0  0
   35.3550   25.2230   37.7720 N   0  0  0  0  0  0  0  0  0  0  0  0
   34.2680   24.6850   37.2380 C   0  0  0  0  0  0  0  0  0  0  0  0
   34.1730   23.6240   37.1660 H   0  0  0  0  0  0  0  0  0  0  0  0
   33.3810   25.6210   36.8370 N   0  0  0  0  0  0  0  0  0  0  0  0
   33.9270   26.8060   37.1280 C   0  0  0  0  0  0  0  0  0  0  0  0
   33.4490   28.0880   36.9320 C   0  0  0  0  0  3  0  0  0  0  0  0
   36.2170   24.7870   38.1740 H   0  0  0  0  0  0  0  0  0  0  0  0
  1  2  1  0  0  0  0
  2  7  1  0  0  0  0
  2  3  2  0  0  0  0
  3  8  1  0  0  0  0
  4  3  1  0  0  0  0
  4  9  1  0  0  0  0
  5  4  2  0  0  0  0
  6  1  2  0  0  0  0
  6  5  1  0  0  0  0
 10 16  1  6  0  0  0
 10  5  1  0  0  0  0
 10 15  1  0  0  0  0
 11 18  1  0  0  0  0
 11 10  1  0  0  0  0
 12 11  1  0  0  0  0
 12 20  1  0  0  0  0
 12 13  1  0  0  0  0
 13 14  1  0  0  0  0
 14 15  1  0  0  0  0
 14 24  1  0  0  0  0
 14 23  1  0  0  0  0
 15 25  1  1  0  0  0
 15 26  1  0  0  0  0
 17 11  1  0  0  0  0
 19 12  1  0  0  0  0
 21 13  1  0  0  0  0
 22 13  1  0  0  0  0
 26 27  1  0  0  0  0
 28 33  1  0  0  0  0
 28 35  1  0  0  0  0
 29 28  2  0  0  0  0
 30 31  2  0  0  0  0
 30 29  1  0  0  0  0
 31 32  1  0  0  0  0
 32  1  1  0  0  0  0
 32 33  2  0  0  0  0
 34 30  1  0  0  0  0
 36 34  1  0  0  0  0
 37 34  1  0  0  0  0
 38 39  1  0  0  0  0
 39 40  2  0  0  0  0
 39 29  1  0  0  0  0
 40 41  1  0  0  0  0
 42 43  1  0  0  0  0
 42 40  1  0  0  0  0
 43 49  1  0  0  0  0
 44 43  1  0  0  0  0
 45 44  1  0  0  0  0
 46 47  1  0  0  0  0
 46 44  2  0  0  0  0
 47 42  2  0  0  0  0
 48 47  1  0  0  0  0
 48 38  2  0  0  0  0
M  END
>  <minimizedAffinity>
-6.66532373

$$$$

 OpenBabel03242514123D

 49 53  0  0  1  0  0  0  0  0999 V2000
   35.5950   28.9810   38.1730 C   0  0  0  0  0  0  0  0  0  0  0  0
   36.0350   27.6870   38.3180 C   0  0  0  0  0  0  0  0  0  0  0  0
   35.3410   26.5790   37.8550 C   0  0  0  0  0  0  0  0  0  0  0  0
   34.1310   26.8850   37.2160 C   0  0  0  0  0  0  0  0  0  0  0  0
   33.6850   28.2100   37.0700 C   0  0  0  0  0  0  0  0  0  0  0  0
   34.4120   29.2370   37.5450 N   0  0  0  0  0  0  0  0  0  0  0  0
   36.9840   27.5530   38.8270 H   0  0  0  0  0  0  0  0  0  0  0  0
   35.7210   25.5980   37.9900 H   0  0  0  0  0  0  0  0  0  0  0  0
   33.6330   25.9890   36.8780 H   0  0  0  0  0  0  0  0  0  0  0  0
   32.4240   28.4550   36.3750 C   0  0  1  0  0  0  0  0  0  0  0  0
   31.5760   29.5500   37.1450 C   0  0  0  0  0  0  0  0  0  0  0  0
   30.1590   29.3230   36.5530 C   0  0  0  0  0  0  0  0  0  0  0  0
   30.2520   29.9200   35.1460 C   0  0  0  0  0  0  0  0  0  0  0  0
   31.2370   29.1860   34.3150 C   0  0  0  0  0  0  0  0  0  0  0  0
   32.4870   28.7380   34.9750 C   0  0  2  0  0  0  0  0  0  0  0  0
   31.7800   27.5510   36.5880 H   0  0  0  0  0  0  0  0  0  0  0  0
   31.5960   29.2980   38.2130 H   0  0  0  0  0  0  0  0  0  0  0  0
   31.9390   30.5460   36.8820 H   0  0  0  0  0  0  0  0  0  0  0  0
   29.4650   29.9270   37.1450 H   0  0  0  0  0  0  0  0  0  0  0  0
   29.9420   28.2450   36.5110 H   0  0  0  0  0  0  0  0  0  0  0  0
   29.2260   29.8160   34.7360 H   0  0  0  0  0  0  0  0  0  0  0  0
   30.4300   30.9980   35.2520 H   0  0  0  0  0  0  0  0  0  0  0  0
   31.4640   29.8010   33.4190 H   0  0  0  0  0  0  0  0  0  0  0  0
   30.6670   28.3110   33.8780 H   0  0  0  0  0  0  0  0  0  0  0  0
   33.2410   29.5610   34.7810 H   0  0  0  0  0  0  0  0  0  0  0  0
   32.9690   27.1890   34.1420 S   0  0  0  0  0  0  0  0  0  0  0  0
   34.1980   27.3710   33.4720 H   0  0  0  0  0  0  0  0  0  0  0  0
   37.0720   31.5490   40.3070 C   0  0  0  0  0  0  0  0  0  0  0  0
   37.9680   32.2070   39.4760 C   0  0  0  0  0  0  0  0  0  0  0  0
   38.0460   31.7450   38.1820 C   0  0  0  0  0  0  0  0  0  0  0  0
   37.2590   30.6930   37.7960 N   0  0  0  0  0  0  0  0  0  0  0  0
   36.3880   30.0870   38.6830 C   0  0  0  0  0  0  0  0  0  0  0  0
   36.3120   30.5160   39.8930 N   0  0  0  0  0  0  0  0  0  0  0  0
   38.8880   32.2790   37.2090 N   0  0  0  0  0  0  0  0  0  0  0  0
   36.9890   31.8920   41.3340 H   0  0  0  0  0  0  0  0  0  0  0  0
   38.8100   33.2200   36.7660 H   0  0  0  0  0  0  0  0  0  0  0  0
   39.7430   31.9390   36.6950 H   0  0  0  0  0  0  0  0  0  0  0  0
   38.3930   34.6580   39.8610 C   0  0  0  0  0  3  0  0  0  0  0  0
   38.8020   33.3230   39.8920 C   0  0  0  0  0  0  0  0  0  0  0  0
   40.0690   32.9640   40.3340 C   0  0  0  0  0  0  0  0  0  0  0  0
   40.4530   31.9720   40.3870 H   0  0  0  0  0  0  0  0  0  0  0  0
   40.9680   33.9430   40.7620 C   0  0  0  0  0  0  0  0  0  0  0  0
   42.2470   33.9260   41.2400 N   0  0  0  0  0  0  0  0  0  0  0  0
   42.5670   35.1910   41.4770 C   0  0  0  0  0  0  0  0  0  0  0  0
   43.5310   35.4390   41.8610 H   0  0  0  0  0  0  0  0  0  0  0  0
   41.5570   36.0350   41.1760 N   0  0  0  0  0  0  0  0  0  0  0  0
   40.5520   35.2760   40.7290 C   0  0  0  0  0  0  0  0  0  0  0  0
   39.2890   35.6260   40.2870 C   0  0  0  0  0  3  0  0  0  0  0  0
   42.7910   33.0410   41.3620 H   0  0  0  0  0  0  0  0  0  0  0  0
  1  2  1  0  0  0  0
  1 32  1  0  0  0  0
  2  7  1  0  0  0  0
  3  8  1  0  0  0  0
  3  2  2  0  0  0  0
  4  3  1  0  0  0  0
  5  4  2  0  0  0  0
  5  6  1  0  0  0  0
  6  1  2  0  0  0  0
  9  4  1  0  0  0  0
 10 16  1  1  0  0  0
 10  5  1  0  0  0  0
 10 11  1  0  0  0  0
 11 17  1  0  0  0  0
 12 11  1  0  0  0  0
 12 19  1  0  0  0  0
 13 22  1  0  0  0  0
 13 12  1  0  0  0  0
 14 15  1  0  0  0  0
 14 13  1  0  0  0  0
 15 25  1  6  0  0  0
 15 10  1  0  0  0  0
 18 11  1  0  0  0  0
 20 12  1  0  0  0  0
 21 13  1  0  0  0  0
 23 14  1  0  0  0  0
 24 14  1  0  0  0  0
 26 15  1  0  0  0  0
 27 26  1  0  0  0  0
 28 35  1  0  0  0  0
 29 39  1  0  0  0  0
 29 28  2  0  0  0  0
 30 29  1  0  0  0  0
 31 30  2  0  0  0  0
 31 32  1  0  0  0  0
 32 33  2  0  0  0  0
 33 28  1  0  0  0  0
 34 30  1  0  0  0  0
 36 34  1  0  0  0  0
 37 34  1  0  0  0  0
 38 39  2  0  0  0  0
 38 48  1  0  0  0  0
 39 40  1  0  0  0  0
 40 41  1  0  0  0  0
 40 42  2  0  0  0  0
 42 43  1  0  0  0  0
 43 49  1  0  0  0  0
 43 44  1  0  0  0  0
 44 45  1  0  0  0  0
 46 44  2  0  0  0  0
 47 42  1  0  0  0  0
 47 46  1  0  0  0  0
 48 47  2  0  0  0  0
M  END
>  <minimizedAffinity>
-6.6470623

$$$$

 OpenBabel03242514123D

 49 53  0  0  1  0  0  0  0  0999 V2000
   35.1640   29.1280   37.6270 C   0  0  0  0  0  0  0  0  0  0  0  0
   35.3590   27.8530   37.1530 C   0  0  0  0  0  0  0  0  0  0  0  0
   34.3470   27.0620   36.6280 C   0  0  0  0  0  0  0  0  0  0  0  0
   33.0860   27.6740   36.6170 C   0  0  0  0  0  0  0  0  0  0  0  0
   32.8920   28.9790   37.1030 C   0  0  0  0  0  0  0  0  0  0  0  0
   33.9210   29.6880   37.6000 N   0  0  0  0  0  0  0  0  0  0  0  0
   36.3710   27.4670   37.2050 H   0  0  0  0  0  0  0  0  0  0  0  0
   34.5450   26.0820   36.2740 H   0  0  0  0  0  0  0  0  0  0  0  0
   32.3380   27.0160   36.2010 H   0  0  0  0  0  0  0  0  0  0  0  0
   31.5540   29.5600   37.0410 C   0  0  1  0  0  0  0  0  0  0  0  0
   31.0040   29.8320   38.5030 C   0  0  0  0  0  0  0  0  0  0  0  0
   29.4820   29.9840   38.2430 C   0  0  0  0  0  0  0  0  0  0  0  0
   29.3590   31.3640   37.5920 C   0  0  0  0  0  0  0  0  0  0  0  0
   30.0700   31.4110   36.2920 C   0  0  0  0  0  0  0  0  0  0  0  0
   31.3680   30.7000   36.1980 C   0  0  2  0  0  0  0  0  0  0  0  0
   30.8670   28.7110   36.7480 H   0  0  0  0  0  0  0  0  0  0  0  0
   31.2080   28.9380   39.1070 H   0  0  0  0  0  0  0  0  0  0  0  0
   31.4170   30.7690   38.8810 H   0  0  0  0  0  0  0  0  0  0  0  0
   28.9910   30.0110   39.2210 H   0  0  0  0  0  0  0  0  0  0  0  0
   29.1410   29.1930   37.5560 H   0  0  0  0  0  0  0  0  0  0  0  0
   28.2670   31.5080   37.4570 H   0  0  0  0  0  0  0  0  0  0  0  0
   29.6740   32.1110   38.3340 H   0  0  0  0  0  0  0  0  0  0  0  0
   30.1820   32.4750   35.9940 H   0  0  0  0  0  0  0  0  0  0  0  0
   29.3300   31.0170   35.5320 H   0  0  0  0  0  0  0  0  0  0  0  0
   32.1560   31.4820   36.4270 H   0  0  0  0  0  0  0  0  0  0  0  0
   31.4970   30.1130   34.4760 S   0  0  0  0  0  0  0  0  0  0  0  0
   32.5810   30.7520   33.8350 H   0  0  0  0  0  0  0  0  0  0  0  0
   37.6640   30.6210   39.8300 C   0  0  0  0  0  0  0  0  0  0  0  0
   38.4300   31.4130   38.9870 C   0  0  0  0  0  0  0  0  0  0  0  0
   38.0660   31.4140   37.6600 C   0  0  0  0  0  0  0  0  0  0  0  0
   36.9990   30.6580   37.2560 N   0  0  0  0  0  0  0  0  0  0  0  0
   36.2810   29.8930   38.1570 C   0  0  0  0  0  0  0  0  0  0  0  0
   36.6180   29.8890   39.3980 N   0  0  0  0  0  0  0  0  0  0  0  0
   38.7180   32.1460   36.6690 N   0  0  0  0  0  0  0  0  0  0  0  0
   37.9280   30.6010   40.8830 H   0  0  0  0  0  0  0  0  0  0  0  0
   38.7310   33.1830   36.5670 H   0  0  0  0  0  0  0  0  0  0  0  0
   39.3150   31.9020   35.8350 H   0  0  0  0  0  0  0  0  0  0  0  0
   40.8940   31.8070   39.3180 C   0  0  0  0  0  3  0  0  0  0  0  0
   39.5630   32.2140   39.4220 C   0  0  0  0  0  0  0  0  0  0  0  0
   39.2230   33.4470   39.9630 C   0  0  0  0  0  0  0  0  0  0  0  0
   38.2350   33.8290   40.0760 H   0  0  0  0  0  0  0  0  0  0  0  0
   40.2190   34.3140   40.4190 C   0  0  0  0  0  0  0  0  0  0  0  0
   40.2220   35.5570   40.9860 N   0  0  0  0  0  0  0  0  0  0  0  0
   41.4950   35.8580   41.2010 C   0  0  0  0  0  0  0  0  0  0  0  0
   41.7600   36.7930   41.6440 H   0  0  0  0  0  0  0  0  0  0  0  0
   42.3260   34.8700   40.8020 N   0  0  0  0  0  0  0  0  0  0  0  0
   41.5490   33.9000   40.3120 C   0  0  0  0  0  0  0  0  0  0  0  0
   41.8790   32.6710   39.7720 C   0  0  0  0  0  3  0  0  0  0  0  0
   39.3430   36.0910   41.1760 H   0  0  0  0  0  0  0  0  0  0  0  0
  1 32  1  0  0  0  0
  2  7  1  0  0  0  0
  2  1  2  0  0  0  0
  3  2  1  0  0  0  0
  4  3  2  0  0  0  0
  4  5  1  0  0  0  0
  5  6  2  0  0  0  0
  6  1  1  0  0  0  0
  8  3  1  0  0  0  0
  9  4  1  0  0  0  0
 10 16  1  6  0  0  0
 10  5  1  0  0  0  0
 10 11  1  0  0  0  0
 11 18  1  0  0  0  0
 11 17  1  0  0  0  0
 12 11  1  0  0  0  0
 12 19  1  0  0  0  0
 13 12  1  0  0  0  0
 13 22  1  0  0  0  0
 14 13  1  0  0  0  0
 15 14  1  0  0  0  0
 15 25  1  1  0  0  0
 15 10  1  0  0  0  0
 20 12  1  0  0  0  0
 21 13  1  0  0  0  0
 23 14  1  0  0  0  0
 24 14  1  0  0  0  0
 26 15  1  0  0  0  0
 27 26  1  0  0  0  0
 28 35  1  0  0  0  0
 29 39  1  0  0  0  0
 29 28  2  0  0  0  0
 30 29  1  0  0  0  0
 31 30  2  0  0  0  0
 31 32  1  0  0  0  0
 32 33  2  0  0  0  0
 33 28  1  0  0  0  0
 34 30  1  0  0  0  0
 36 34  1  0  0  0  0
 37 34  1  0  0  0  0
 38 39  2  0  0  0  0
 38 48  1  0  0  0  0
 39 40  1  0  0  0  0
 40 41  1  0  0  0  0
 40 42  2  0  0  0  0
 42 43  1  0  0  0  0
 43 49  1  0  0  0  0
 43 44  1  0  0  0  0
 44 45  1  0  0  0  0
 46 44  2  0  0  0  0
 47 42  1  0  0  0  0
 47 46  1  0  0  0  0
 48 47  2  0  0  0  0
M  END
>  <minimizedAffinity>
-6.43326235

$$$$

 OpenBabel03242514123D

 49 53  0  0  1  0  0  0  0  0999 V2000
   33.8980   28.3430   37.1630 C   0  0  0  0  0  0  0  0  0  0  0  0
   34.0790   27.8360   35.8980 C   0  0  0  0  0  0  0  0  0  0  0  0
   33.1880   28.0300   34.8530 C   0  0  0  0  0  0  0  0  0  0  0  0
   32.0660   28.7990   35.1910 C   0  0  0  0  0  0  0  0  0  0  0  0
   31.8850   29.3160   36.4850 C   0  0  0  0  0  0  0  0  0  0  0  0
   32.7910   29.0870   37.4510 N   0  0  0  0  0  0  0  0  0  0  0  0
   34.9800   27.2530   35.7360 H   0  0  0  0  0  0  0  0  0  0  0  0
   33.3710   27.6170   33.8930 H   0  0  0  0  0  0  0  0  0  0  0  0
   31.4070   28.9170   34.3440 H   0  0  0  0  0  0  0  0  0  0  0  0
   30.7010   30.1260   36.7590 C   0  0  1  0  0  0  0  0  0  0  0  0
   30.1420   29.8100   38.2080 C   0  0  0  0  0  0  0  0  0  0  0  0
   28.6990   30.3770   38.1190 C   0  0  0  0  0  0  0  0  0  0  0  0
   28.9000   31.8940   38.1760 C   0  0  0  0  0  0  0  0  0  0  0  0
   29.6740   32.3780   37.0080 C   0  0  0  0  0  0  0  0  0  0  0  0
   30.7990   31.5360   36.5380 C   0  0  2  0  0  0  0  0  0  0  0  0
   29.8700   29.6670   36.1450 H   0  0  0  0  0  0  0  0  0  0  0  0
   30.1230   28.7190   38.3280 H   0  0  0  0  0  0  0  0  0  0  0  0
   30.7180   30.3630   38.9520 H   0  0  0  0  0  0  0  0  0  0  0  0
   28.1730   30.0570   39.0240 H   0  0  0  0  0  0  0  0  0  0  0  0
   28.2400   30.0760   37.1650 H   0  0  0  0  0  0  0  0  0  0  0  0
   27.8700   32.3070   38.1740 H   0  0  0  0  0  0  0  0  0  0  0  0
   29.3220   32.1370   39.1610 H   0  0  0  0  0  0  0  0  0  0  0  0
   30.0190   33.4120   37.2230 H   0  0  0  0  0  0  0  0  0  0  0  0
   28.9100   32.5370   36.1880 H   0  0  0  0  0  0  0  0  0  0  0  0
   31.7190   31.9440   37.0600 H   0  0  0  0  0  0  0  0  0  0  0  0
   30.8970   31.7840   34.7340 S   0  0  0  0  0  0  0  0  0  0  0  0
   32.1220   32.4030   34.4040 H   0  0  0  0  0  0  0  0  0  0  0  0
   36.5730   26.9100   39.1930 C   0  0  0  0  0  0  0  0  0  0  0  0
   36.6960   27.7870   40.2600 C   0  0  0  0  0  0  0  0  0  0  0  0
   35.8450   28.8690   40.2580 C   0  0  0  0  0  0  0  0  0  0  0  0
   34.9490   29.0150   39.2330 N   0  0  0  0  0  0  0  0  0  0  0  0
   34.8850   28.0980   38.2010 C   0  0  0  0  0  0  0  0  0  0  0  0
   35.6790   27.0860   38.2000 N   0  0  0  0  0  0  0  0  0  0  0  0
   35.8250   29.8530   41.2450 N   0  0  0  0  0  0  0  0  0  0  0  0
   37.2310   26.0470   39.1680 H   0  0  0  0  0  0  0  0  0  0  0  0
   35.5180   29.7350   42.2350 H   0  0  0  0  0  0  0  0  0  0  0  0
   36.0790   30.8750   41.2830 H   0  0  0  0  0  0  0  0  0  0  0  0
   37.3170   27.1410   42.6120 C   0  0  0  0  0  3  0  0  0  0  0  0
   37.6490   27.6260   41.3470 C   0  0  0  0  0  0  0  0  0  0  0  0
   38.9510   27.9970   41.0320 C   0  0  0  0  0  0  0  0  0  0  0  0
   39.2820   28.3740   40.0920 H   0  0  0  0  0  0  0  0  0  0  0  0
   39.9630   27.8900   41.9880 C   0  0  0  0  0  0  0  0  0  0  0  0
   41.3020   28.1610   42.0000 N   0  0  0  0  0  0  0  0  0  0  0  0
   41.7270   27.8480   43.2160 C   0  0  0  0  0  0  0  0  0  0  0  0
   42.7550   27.9740   43.4760 H   0  0  0  0  0  0  0  0  0  0  0  0
   40.7300   27.3850   44.0010 N   0  0  0  0  0  0  0  0  0  0  0  0
   39.6230   27.4040   43.2520 C   0  0  0  0  0  0  0  0  0  0  0  0
   38.3260   27.0370   43.5580 C   0  0  0  0  0  3  0  0  0  0  0  0
   41.8080   28.5390   41.1660 H   0  0  0  0  0  0  0  0  0  0  0  0
  1  6  1  0  0  0  0
  1 32  1  0  0  0  0
  2  1  2  0  0  0  0
  3  4  2  0  0  0  0
  3  2  1  0  0  0  0
  4  5  1  0  0  0  0
  5 10  1  0  0  0  0
  5  6  2  0  0  0  0
  7  2  1  0  0  0  0
  8  3  1  0  0  0  0
  9  4  1  0  0  0  0
 10 16  1  6  0  0  0
 10 11  1  0  0  0  0
 11 17  1  0  0  0  0
 11 18  1  0  0  0  0
 12 13  1  0  0  0  0
 12 11  1  0  0  0  0
 12 19  1  0  0  0  0
 13 22  1  0  0  0  0
 14 23  1  0  0  0  0
 14 13  1  0  0  0  0
 15 10  1  0  0  0  0
 15 14  1  0  0  0  0
 15 25  1  1  0  0  0
 20 12  1  0  0  0  0
 21 13  1  0  0  0  0
 24 14  1  0  0  0  0
 26 15  1  0  0  0  0
 27 26  1  0  0  0  0
 28 29  1  0  0  0  0
 29 39  1  0  0  0  0
 30 29  2  0  0  0  0
 30 34  1  0  0  0  0
 31 30  1  0  0  0  0
 32 31  2  0  0  0  0
 33 32  1  0  0  0  0
 33 28  2  0  0  0  0
 34 37  1  0  0  0  0
 34 36  1  0  0  0  0
 35 28  1  0  0  0  0
 38 48  1  0  0  0  0
 39 38  2  0  0  0  0
 40 39  1  0  0  0  0
 40 42  2  0  0  0  0
 41 40  1  0  0  0  0
 42 43  1  0  0  0  0
 42 47  1  0  0  0  0
 43 44  1  0  0  0  0
 44 45  1  0  0  0  0
 44 46  2  0  0  0  0
 47 48  2  0  0  0  0
 47 46  1  0  0  0  0
 49 43  1  0  0  0  0
M  END
>  <minimizedAffinity>
-6.38217974

$$$$

 OpenBabel03242514123D

 49 53  0  0  1  0  0  0  0  0999 V2000
   37.7260   30.5020   40.5680 C   0  0  0  0  0  0  0  0  0  0  0  0
   38.1550   29.8710   41.7120 C   0  0  0  0  0  0  0  0  0  0  0  0
   39.2040   30.3270   42.4980 C   0  0  0  0  0  0  0  0  0  0  0  0
   39.8040   31.5030   42.0280 C   0  0  0  0  0  0  0  0  0  0  0  0
   39.3620   32.1450   40.8580 C   0  0  0  0  0  0  0  0  0  0  0  0
   38.3380   31.6450   40.1450 N   0  0  0  0  0  0  0  0  0  0  0  0
   37.6260   28.9670   41.9930 H   0  0  0  0  0  0  0  0  0  0  0  0
   39.5000   29.8050   43.3730 H   0  0  0  0  0  0  0  0  0  0  0  0
   40.6130   31.8110   42.6750 H   0  0  0  0  0  0  0  0  0  0  0  0
   40.0230   33.3780   40.4410 C   0  0  1  0  0  0  0  0  0  0  0  0
   39.1960   34.6380   40.9300 C   0  0  0  0  0  0  0  0  0  0  0  0
   39.7690   35.7610   40.0250 C   0  0  0  0  0  0  0  0  0  0  0  0
   41.1530   36.0360   40.6190 C   0  0  0  0  0  0  0  0  0  0  0  0
   42.0300   34.8460   40.5130 C   0  0  0  0  0  0  0  0  0  0  0  0
   41.4130   33.5200   40.7500 C   0  0  2  0  0  0  0  0  0  0  0  0
   39.8350   33.4630   39.3290 H   0  0  0  0  0  0  0  0  0  0  0  0
   38.1390   34.4530   40.6970 H   0  0  0  0  0  0  0  0  0  0  0  0
   39.4250   34.8440   41.9770 H   0  0  0  0  0  0  0  0  0  0  0  0
   39.1410   36.6440   40.1740 H   0  0  0  0  0  0  0  0  0  0  0  0
   39.8500   35.3980   38.9890 H   0  0  0  0  0  0  0  0  0  0  0  0
   41.5480   36.8800   40.0160 H   0  0  0  0  0  0  0  0  0  0  0  0
   41.0070   36.4300   41.6340 H   0  0  0  0  0  0  0  0  0  0  0  0
   42.9060   34.9970   41.1790 H   0  0  0  0  0  0  0  0  0  0  0  0
   42.4910   34.9050   39.4810 H   0  0  0  0  0  0  0  0  0  0  0  0
   41.5880   33.2990   41.8480 H   0  0  0  0  0  0  0  0  0  0  0  0
   42.3150   32.3450   39.6860 S   0  0  0  0  0  0  0  0  0  0  0  0
   43.0000   31.4060   40.4880 H   0  0  0  0  0  0  0  0  0  0  0  0
   34.5310   29.0370   39.5800 C   0  0  0  0  0  0  0  0  0  0  0  0
   34.6070   28.9590   38.1970 C   0  0  0  0  0  0  0  0  0  0  0  0
   35.7710   29.4200   37.6260 C   0  0  0  0  0  0  0  0  0  0  0  0
   36.7620   29.9150   38.4310 N   0  0  0  0  0  0  0  0  0  0  0  0
   36.6150   29.9610   39.8050 C   0  0  0  0  0  0  0  0  0  0  0  0
   35.5280   29.5310   40.3420 N   0  0  0  0  0  0  0  0  0  0  0  0
   36.0250   29.4220   36.2560 N   0  0  0  0  0  0  0  0  0  0  0  0
   33.6240   28.6800   40.0590 H   0  0  0  0  0  0  0  0  0  0  0  0
   36.1710   28.5870   35.6490 H   0  0  0  0  0  0  0  0  0  0  0  0
   36.1320   30.1690   35.5200 H   0  0  0  0  0  0  0  0  0  0  0  0
   33.5610   27.1530   36.7910 C   0  0  0  0  0  3  0  0  0  0  0  0
   33.5500   28.4320   37.3480 C   0  0  0  0  0  0  0  0  0  0  0  0
   32.4990   29.3120   37.1220 C   0  0  0  0  0  0  0  0  0  0  0  0
   32.4180   30.3010   37.5110 H   0  0  0  0  0  0  0  0  0  0  0  0
   31.4200   28.9280   36.3240 C   0  0  0  0  0  0  0  0  0  0  0  0
   30.2650   29.5340   35.9170 N   0  0  0  0  0  0  0  0  0  0  0  0
   29.6340   28.6480   35.1580 C   0  0  0  0  0  0  0  0  0  0  0  0
   28.6940   28.8910   34.7160 H   0  0  0  0  0  0  0  0  0  0  0  0
   30.3220   27.4900   35.0490 N   0  0  0  0  0  0  0  0  0  0  0  0
   31.4370   27.6460   35.7690 C   0  0  0  0  0  0  0  0  0  0  0  0
   32.4870   26.7760   35.9990 C   0  0  0  0  0  3  0  0  0  0  0  0
   30.0110   30.5090   36.1980 H   0  0  0  0  0  0  0  0  0  0  0  0
  1  2  1  0  0  0  0
  2  7  1  0  0  0  0
  2  3  2  0  0  0  0
  3  8  1  0  0  0  0
  4  3  1  0  0  0  0
  4  9  1  0  0  0  0
  5  4  2  0  0  0  0
  6  1  2  0  0  0  0
  6  5  1  0  0  0  0
 10 16  1  6  0  0  0
 10 15  1  0  0  0  0
 10  5  1  0  0  0  0
 10 11  1  0  0  0  0
 11 18  1  0  0  0  0
 12 19  1  0  0  0  0
 12 13  1  0  0  0  0
 12 11  1  0  0  0  0
 13 22  1  0  0  0  0
 14 13  1  0  0  0  0
 14 15  1  0  0  0  0
 14 23  1  0  0  0  0
 15 25  1  1  0  0  0
 17 11  1  0  0  0  0
 20 12  1  0  0  0  0
 21 13  1  0  0  0  0
 24 14  1  0  0  0  0
 26 27  1  0  0  0  0
 26 15  1  0  0  0  0
 28 35  1  0  0  0  0
 28 33  1  0  0  0  0
 29 28  2  0  0  0  0
 30 29  1  0  0  0  0
 30 31  2  0  0  0  0
 31 32  1  0  0  0  0
 32 33  2  0  0  0  0
 32  1  1  0  0  0  0
 34 30  1  0  0  0  0
 36 34  1  0  0  0  0
 37 34  1  0  0  0  0
 38 39  1  0  0  0  0
 39 29  1  0  0  0  0
 40 39  2  0  0  0  0
 40 41  1  0  0  0  0
 42 40  1  0  0  0  0
 43 49  1  0  0  0  0
 43 42  1  0  0  0  0
 44 43  1  0  0  0  0
 45 44  1  0  0  0  0
 46 44  2  0  0  0  0
 46 47  1  0  0  0  0
 47 48  1  0  0  0  0
 47 42  2  0  0  0  0
 48 38  2  0  0  0  0
M  END
>  <minimizedAffinity>
-6.30121374

$$$$
