
 OpenBabel03252508173D

 50 55  0  0  1  0  0  0  0  0999 V2000
   46.7680   31.6250   48.2750 C   0  0  1  0  0  0  0  0  0  0  0  0
   46.3080   30.5870   49.2400 C   0  0  0  0  0  0  0  0  0  0  0  0
   47.5830   31.2590   49.4500 C   0  0  1  0  0  0  0  0  0  0  0  0
   46.0300   32.4790   48.2730 H   0  0  0  0  0  0  0  0  0  0  0  0
   46.3760   29.5080   48.9430 H   0  0  0  0  0  0  0  0  0  0  0  0
   45.4740   30.7580   49.9470 H   0  0  0  0  0  0  0  0  0  0  0  0
   47.6070   32.0110   50.2670 H   0  0  0  0  0  0  0  0  0  0  0  0
   48.8970   30.5810   49.2130 C   0  0  2  0  0  0  0  0  0  0  0  0
   49.6230   30.1840   50.5230 C   0  0  0  0  0  0  0  0  0  0  0  0
   50.1500   31.2950   49.7120 C   0  0  1  0  0  0  0  0  0  0  0  0
   49.0110   29.7820   48.4700 H   0  0  0  0  0  0  0  0  0  0  0  0
   49.1410   30.4480   51.4850 H   0  0  0  0  0  0  0  0  0  0  0  0
   50.2070   29.2710   50.5730 H   0  0  0  0  0  0  0  0  0  0  0  0
   49.9870   32.3270   50.0930 H   0  0  0  0  0  0  0  0  0  0  0  0
   52.4810   31.9760   49.1540 C   0  0  0  0  0  3  0  0  0  0  0  0
   51.4300   31.0940   49.0270 C   0  0  0  0  0  0  0  0  0  0  0  0
   51.6570   29.9860   48.2030 C   0  0  0  0  0  0  0  0  0  0  0  0
   50.8070   29.2930   48.1140 H   0  0  0  0  0  0  0  0  0  0  0  0
   52.8310   29.7360   47.5310 C   0  0  0  0  0  0  0  0  0  0  0  0
   53.1790   28.7160   46.7120 N   0  0  0  0  0  0  0  0  0  0  0  0
   54.4310   28.9810   46.3460 C   0  0  0  0  0  0  0  0  0  0  0  0
   54.9910   28.3460   45.6870 H   0  0  0  0  0  0  0  0  0  0  0  0
   54.8700   30.1390   46.9170 N   0  0  0  0  0  0  0  0  0  0  0  0
   53.8710   30.6310   47.6710 C   0  0  0  0  0  0  0  0  0  0  0  0
   53.6730   31.7380   48.4830 C   0  0  0  0  0  3  0  0  0  0  0  0
   52.5930   27.8870   46.4210 H   0  0  0  0  0  0  0  0  0  0  0  0
   47.1270   31.1120   46.9270 C   0  0  0  0  0  0  0  0  0  0  0  0
   48.1100   30.7160   46.7610 H   0  0  0  0  0  0  0  0  0  0  0  0
   46.3900   30.2900   46.6910 H   0  0  0  0  0  0  0  0  0  0  0  0
   46.0330   33.0560   46.1710 C   0  0  0  0  0  3  0  0  0  0  0  0
   46.8740   32.1590   45.8690 C   0  0  0  0  0  3  0  0  0  0  0  0
   44.5460   35.9450   44.4290 C   0  0  0  0  0  0  0  0  0  0  0  0
   45.1760   35.9270   43.1980 C   0  0  0  0  0  0  0  0  0  0  0  0
   46.0870   34.9300   42.9940 C   0  0  0  0  0  0  0  0  0  0  0  0
   46.3280   34.0240   43.9850 N   0  0  0  0  0  0  0  0  0  0  0  0
   45.6970   34.0720   45.1690 C   0  0  0  0  0  0  0  0  0  0  0  0
   44.8150   35.0400   45.3620 N   0  0  0  0  0  0  0  0  0  0  0  0
   43.8210   36.7460   44.5780 H   0  0  0  0  0  0  0  0  0  0  0  0
   45.0200   36.6120   42.4010 H   0  0  0  0  0  0  0  0  0  0  0  0
   46.8300   34.7810   41.7500 C   0  0  0  0  0  0  0  0  0  0  0  0
   48.0380   35.3620   41.4970 C   0  0  0  0  0  0  0  0  0  0  0  0
   48.7320   35.2140   40.3110 C   0  0  0  0  0  0  0  0  0  0  0  0
   48.2030   34.4400   39.3060 C   0  0  0  0  0  0  0  0  0  0  0  0
   46.9920   33.8330   39.5060 C   0  0  0  0  0  0  0  0  0  0  0  0
   46.3510   34.0210   40.7100 C   0  0  0  0  0  0  0  0  0  0  0  0
   48.4980   35.9910   42.2760 H   0  0  0  0  0  0  0  0  0  0  0  0
   49.6880   35.6940   40.1550 H   0  0  0  0  0  0  0  0  0  0  0  0
   48.7030   34.2900   38.3590 H   0  0  0  0  0  0  0  0  0  0  0  0
   46.5630   33.2160   38.7150 H   0  0  0  0  0  0  0  0  0  0  0  0
   45.3850   33.4990   40.7890 H   0  0  0  0  0  0  0  0  0  0  0  0
  1  4  1  1  0  0  0
  1  2  1  0  0  0  0
  1  3  1  0  0  0  0
  2  3  1  0  0  0  0
  2  6  1  0  0  0  0
  3  7  1  1  0  0  0
  5  2  1  0  0  0  0
  8 11  1  6  0  0  0
  8  3  1  0  0  0  0
  8 10  1  0  0  0  0
  8  9  1  0  0  0  0
  9 13  1  0  0  0  0
  9 12  1  0  0  0  0
 10 14  1  1  0  0  0
 10  9  1  0  0  0  0
 16 15  1  0  0  0  0
 16 10  1  0  0  0  0
 17 16  2  0  0  0  0
 18 17  1  0  0  0  0
 19 24  2  0  0  0  0
 19 17  1  0  0  0  0
 20 19  1  0  0  0  0
 21 20  1  0  0  0  0
 21 23  2  0  0  0  0
 22 21  1  0  0  0  0
 23 24  1  0  0  0  0
 24 25  1  0  0  0  0
 25 15  2  0  0  0  0
 26 20  1  0  0  0  0
 27  1  1  0  0  0  0
 28 27  1  0  0  0  0
 29 27  1  0  0  0  0
 31 30  2  0  0  0  0
 31 27  1  0  0  0  0
 32 38  1  0  0  0  0
 32 37  1  0  0  0  0
 33 32  2  0  0  0  0
 34 33  1  0  0  0  0
 34 35  2  0  0  0  0
 35 36  1  0  0  0  0
 36 37  2  0  0  0  0
 36 30  1  0  0  0  0
 39 33  1  0  0  0  0
 40 34  1  0  0  0  0
 41 40  1  0  0  0  0
 41 46  1  0  0  0  0
 42 41  2  0  0  0  0
 43 44  2  0  0  0  0
 43 42  1  0  0  0  0
 44 45  1  0  0  0  0
 45 50  1  0  0  0  0
 45 40  2  0  0  0  0
 47 42  1  0  0  0  0
 48 43  1  0  0  0  0
 49 44  1  0  0  0  0
M  END
>  <minimizedAffinity>
-6.73579836

>  <minimizedRMSD>
1.02900314

$$$$
