
 OpenBabel03242510063D

 21 23  0  0  0  0  0  0  0  0999 V2000
   47.2270   31.3620   45.0860 C   0  0  0  0  0  0  0  0  0  0  0  0
   46.8820   32.6990   45.0930 C   0  0  0  0  0  0  0  0  0  0  0  0
   46.2770   33.3140   46.1830 C   0  0  0  0  0  0  0  0  0  0  0  0
   46.0070   34.3600   46.1890 H   0  0  0  0  0  0  0  0  0  0  0  0
   45.9940   32.5700   47.3300 C   0  0  0  0  0  0  0  0  0  0  0  0
   45.4330   32.8140   48.5420 N   0  0  0  0  0  0  0  0  0  0  0  0
   45.4330   31.6540   49.2600 C   0  0  0  0  0  0  0  0  0  0  0  0
   45.0350   31.5960   50.2640 H   0  0  0  0  0  0  0  0  0  0  0  0
   46.0000   30.7050   48.4740 N   0  0  0  0  0  0  0  0  0  0  0  0
   46.3520   31.2360   47.2890 C   0  0  0  0  0  0  0  0  0  0  0  0
   46.9520   30.6000   46.2230 C   0  0  0  0  0  0  0  0  0  0  0  0
   45.0730   33.7500   48.8370 H   0  0  0  0  0  0  0  0  0  0  0  0
   46.5200   35.2110   42.4240 C   0  0  0  0  0  0  0  0  0  0  0  0
   47.7170   35.0600   41.7070 C   0  0  0  0  0  0  0  0  0  0  0  0
   48.6450   34.0940   42.1470 C   0  0  0  0  0  0  0  0  0  0  0  0
   48.3110   33.3610   43.2550 N   0  0  0  0  0  0  0  0  0  0  0  0
   47.1540   33.5270   43.9220 C   0  0  0  0  0  0  0  0  0  0  0  0
   46.2680   34.4450   43.5080 N   0  0  0  0  0  0  0  0  0  0  0  0
   45.8460   35.9540   42.0560 H   0  0  0  0  0  0  0  0  0  0  0  0
   47.9020   35.6840   40.8400 H   0  0  0  0  0  0  0  0  0  0  0  0
   49.5690   33.9600   41.6160 H   0  0  0  0  0  0  0  0  0  0  0  0
  1  2  2  0  0  0  0
  1 11  1  0  0  0  0
  2  3  1  0  0  0  0
  3  4  1  0  0  0  0
  3  5  2  0  0  0  0
  5  6  1  0  0  0  0
  6 12  1  0  0  0  0
  6  7  1  0  0  0  0
  7  8  1  0  0  0  0
  9  7  2  0  0  0  0
 10  5  1  0  0  0  0
 10  9  1  0  0  0  0
 11 10  2  0  0  0  0
 13 18  1  0  0  0  0
 14 15  1  0  0  0  0
 14 13  2  0  0  0  0
 15 16  2  0  0  0  0
 16 17  1  0  0  0  0
 17  2  1  0  0  0  0
 18 17  2  0  0  0  0
 19 13  1  0  0  0  0
 20 14  1  0  0  0  0
 21 15  1  0  0  0  0
M  END
>  <minimizedAffinity>
-4.95574141

>  <minimizedRMSD>
2.40907836

$$$$
