
 OpenBabel03252506523D

 34 38  0  0  0  0  0  0  0  0999 V2000
   47.4370   31.4470   44.9270 C   0  0  0  0  0  0  0  0  0  0  0  0
   47.0870   32.7660   44.6910 C   0  0  0  0  0  0  0  0  0  0  0  0
   46.2420   33.4950   45.5260 C   0  0  0  0  0  0  0  0  0  0  0  0
   45.7110   32.8810   46.6650 C   0  0  0  0  0  0  0  0  0  0  0  0
   44.8910   33.2420   47.6740 N   0  0  0  0  0  0  0  0  0  0  0  0
   44.7390   32.1720   48.5130 C   0  0  0  0  0  0  0  0  0  0  0  0
   45.4740   31.1580   48.0040 N   0  0  0  0  0  0  0  0  0  0  0  0
   46.0810   31.5620   46.8720 C   0  0  0  0  0  0  0  0  0  0  0  0
   46.9140   30.8230   46.0600 C   0  0  0  0  0  0  0  0  0  0  0  0
   48.0970   30.9270   44.2460 H   0  0  0  0  0  0  0  0  0  0  0  0
   45.9760   34.5190   45.3330 H   0  0  0  0  0  0  0  0  0  0  0  0
   44.4930   34.2260   47.7010 H   0  0  0  0  0  0  0  0  0  0  0  0
   44.0960   32.3550   49.3630 H   0  0  0  0  0  0  0  0  0  0  0  0
   46.7440   28.4190   45.5480 C   0  0  0  0  0  0  0  0  0  0  0  0
   47.2440   29.4360   46.3660 C   0  0  0  0  0  0  0  0  0  0  0  0
   48.0550   29.1830   47.4780 C   0  0  0  0  0  0  0  0  0  0  0  0
   48.4270   29.9830   48.0930 H   0  0  0  0  0  0  0  0  0  0  0  0
   48.3410   27.8640   47.7310 C   0  0  0  0  0  0  0  0  0  0  0  0
   49.0890   27.3680   48.7270 N   0  0  0  0  0  0  0  0  0  0  0  0
   49.1160   26.0290   48.6140 C   0  0  0  0  0  0  0  0  0  0  0  0
   49.5410   25.1520   49.1120 H   0  0  0  0  0  0  0  0  0  0  0  0
   48.3840   25.7000   47.5460 N   0  0  0  0  0  0  0  0  0  0  0  0
   47.8930   26.8110   46.9810 C   0  0  0  0  0  0  0  0  0  0  0  0
   47.1090   27.1410   45.9160 C   0  0  0  0  0  0  0  0  0  0  0  0
   49.6290   27.7710   49.5320 H   0  0  0  0  0  0  0  0  0  0  0  0
   47.5040   35.1900   41.9490 C   0  0  0  0  0  0  0  0  0  0  0  0
   48.6410   34.7140   41.2980 C   0  0  0  0  0  0  0  0  0  0  0  0
   49.2730   33.5510   41.8020 C   0  0  0  0  0  0  0  0  0  0  0  0
   48.7110   32.9670   42.9130 N   0  0  0  0  0  0  0  0  0  0  0  0
   47.6170   33.4560   43.5080 C   0  0  0  0  0  0  0  0  0  0  0  0
   47.0090   34.5620   43.0360 N   0  0  0  0  0  0  0  0  0  0  0  0
   47.0490   36.0830   41.5330 H   0  0  0  0  0  0  0  0  0  0  0  0
   49.0980   35.1590   40.4250 H   0  0  0  0  0  0  0  0  0  0  0  0
   50.1440   33.1260   41.3620 H   0  0  0  0  0  0  0  0  0  0  0  0
  1  9  1  0  0  0  0
  2  1  2  0  0  0  0
  2  3  1  0  0  0  0
  3  4  2  0  0  0  0
  4  8  1  0  0  0  0
  4  5  1  0  0  0  0
  5 12  1  0  0  0  0
  5  6  1  0  0  0  0
  6 13  1  0  0  0  0
  7  6  2  0  0  0  0
  8  7  1  0  0  0  0
  9 15  1  0  0  0  0
  9  8  2  0  0  0  0
 10  1  1  0  0  0  0
 11  3  1  0  0  0  0
 14 24  2  0  0  0  0
 14 15  1  0  0  0  0
 15 16  2  0  0  0  0
 16 18  1  0  0  0  0
 16 17  1  0  0  0  0
 18 19  1  0  0  0  0
 19 25  1  0  0  0  0
 20 19  1  0  0  0  0
 20 21  1  0  0  0  0
 22 20  2  0  0  0  0
 23 22  1  0  0  0  0
 23 18  2  0  0  0  0
 24 23  1  0  0  0  0
 26 31  1  0  0  0  0
 27 28  1  0  0  0  0
 27 26  2  0  0  0  0
 28 29  2  0  0  0  0
 29 30  1  0  0  0  0
 30  2  1  0  0  0  0
 31 30  2  0  0  0  0
 32 26  1  0  0  0  0
 33 27  1  0  0  0  0
 34 28  1  0  0  0  0
M  END
>  <minimizedAffinity>
-5.74373007

>  <minimizedRMSD>
0.757059157

$$$$
