
 OpenBabel03252506563D

 41 46  0  0  0  0  0  0  0  0999 V2000
   47.1680   31.3440   45.1580 C   0  0  0  0  0  0  0  0  0  0  0  0
   46.8350   32.6950   45.1680 C   0  0  0  0  0  0  0  0  0  0  0  0
   46.2540   33.3070   46.2540 C   0  0  0  0  0  0  0  0  0  0  0  0
   45.9710   32.5850   47.4060 C   0  0  0  0  0  0  0  0  0  0  0  0
   45.4190   32.8500   48.6290 N   0  0  0  0  0  0  0  0  0  0  0  0
   45.4120   31.6980   49.3490 C   0  0  0  0  0  0  0  0  0  0  0  0
   45.9550   30.7440   48.5680 N   0  0  0  0  0  0  0  0  0  0  0  0
   46.3040   31.2530   47.3810 C   0  0  0  0  0  0  0  0  0  0  0  0
   46.8810   30.6140   46.3240 C   0  0  0  0  0  0  0  0  0  0  0  0
   47.6260   30.8550   44.3080 H   0  0  0  0  0  0  0  0  0  0  0  0
   45.9930   34.3580   46.2670 H   0  0  0  0  0  0  0  0  0  0  0  0
   45.0850   33.8140   48.8750 H   0  0  0  0  0  0  0  0  0  0  0  0
   45.0250   31.6350   50.3590 H   0  0  0  0  0  0  0  0  0  0  0  0
   46.4890   35.1800   42.4850 C   0  0  0  0  0  0  0  0  0  0  0  0
   47.6690   34.9930   41.7470 C   0  0  0  0  0  0  0  0  0  0  0  0
   48.5640   34.0200   42.1750 C   0  0  0  0  0  0  0  0  0  0  0  0
   48.2640   33.2850   43.2980 N   0  0  0  0  0  0  0  0  0  0  0  0
   47.1120   33.5010   43.9810 C   0  0  0  0  0  0  0  0  0  0  0  0
   46.2280   34.4340   43.5900 N   0  0  0  0  0  0  0  0  0  0  0  0
   45.7790   35.9310   42.1690 H   0  0  0  0  0  0  0  0  0  0  0  0
   47.8640   35.5900   40.8740 H   0  0  0  0  0  0  0  0  0  0  0  0
   49.4710   33.8640   41.6230 H   0  0  0  0  0  0  0  0  0  0  0  0
   47.2060   29.1740   46.3890 C   0  0  0  0  0  0  0  0  0  0  0  0
   48.5000   28.6730   46.4890 C   0  0  0  0  0  0  0  0  0  0  0  0
   48.3000   27.2850   46.5180 C   0  0  0  0  0  0  0  0  0  0  0  0
   46.9390   27.0330   46.4370 C   0  0  0  0  0  0  0  0  0  0  0  0
   46.3350   28.2070   46.3620 O   0  0  0  0  0  0  0  0  0  0  0  0
   49.3820   29.2950   46.5270 H   0  0  0  0  0  0  0  0  0  0  0  0
   49.1370   26.5980   46.5940 H   0  0  0  0  0  0  0  0  0  0  0  0
   46.9810   24.6310   47.0730 C   0  0  0  0  0  3  0  0  0  0  0  0
   46.3660   25.6910   46.4410 C   0  0  0  0  0  0  0  0  0  0  0  0
   45.1550   25.4630   45.7840 C   0  0  0  0  0  0  0  0  0  0  0  0
   44.6150   26.2570   45.2630 H   0  0  0  0  0  0  0  0  0  0  0  0
   44.6440   24.1800   45.8080 C   0  0  0  0  0  0  0  0  0  0  0  0
   43.5220   23.6030   45.2930 N   0  0  0  0  0  0  0  0  0  0  0  0
   43.4690   22.2920   45.5960 C   0  0  0  0  0  0  0  0  0  0  0  0
   42.6360   21.7010   45.2530 H   0  0  0  0  0  0  0  0  0  0  0  0
   44.5750   22.0020   46.3220 N   0  0  0  0  0  0  0  0  0  0  0  0
   45.2800   23.1290   46.4510 C   0  0  0  0  0  0  0  0  0  0  0  0
   46.4740   23.3660   47.0950 C   0  0  0  0  0  3  0  0  0  0  0  0
   42.8390   24.1770   44.7440 H   0  0  0  0  0  0  0  0  0  0  0  0
  1  2  2  0  0  0  0
  1  9  1  0  0  0  0
  2  3  1  0  0  0  0
  3 11  1  0  0  0  0
  3  4  2  0  0  0  0
  4  5  1  0  0  0  0
  5 12  1  0  0  0  0
  5  6  1  0  0  0  0
  6 13  1  0  0  0  0
  7  6  2  0  0  0  0
  8  4  1  0  0  0  0
  8  7  1  0  0  0  0
  9 23  1  0  0  0  0
  9  8  2  0  0  0  0
 10  1  1  0  0  0  0
 14 19  1  0  0  0  0
 15 16  1  0  0  0  0
 15 14  2  0  0  0  0
 16 17  2  0  0  0  0
 17 18  1  0  0  0  0
 18  2  1  0  0  0  0
 19 18  2  0  0  0  0
 20 14  1  0  0  0  0
 21 15  1  0  0  0  0
 22 16  1  0  0  0  0
 23 24  2  0  0  0  0
 24 25  1  0  0  0  0
 24 28  1  0  0  0  0
 25 29  1  0  0  0  0
 26 31  1  0  0  0  0
 26 25  2  0  0  0  0
 27 23  1  0  0  0  0
 27 26  1  0  0  0  0
 30 40  1  0  0  0  0
 31 30  2  0  0  0  0
 32 34  2  0  0  0  0
 32 31  1  0  0  0  0
 33 32  1  0  0  0  0
 34 39  1  0  0  0  0
 35 36  1  0  0  0  0
 35 34  1  0  0  0  0
 36 38  2  0  0  0  0
 37 36  1  0  0  0  0
 38 39  1  0  0  0  0
 39 40  2  0  0  0  0
 41 35  1  0  0  0  0
M  END
>  <minimizedAffinity>
-5.70116377

>  <minimizedRMSD>
0.443651795

$$$$
