
 OpenBabel03252508333D

 35 38  0  0  1  0  0  0  0  0999 V2000
   43.9010   34.1830   41.4560 N   0  0  0  0  0  0  0  0  0  0  0  0
   43.6220   32.8940   40.9110 C   0  0  2  0  0  0  0  0  0  0  0  0
   43.1980   32.9690   39.4640 C   0  0  0  0  0  0  0  0  0  0  0  0
   42.1350   33.9060   39.2680 N   0  0  0  0  0  0  0  0  0  0  0  0
   42.3350   35.1650   39.8720 C   0  0  0  0  0  0  0  0  0  0  0  0
   43.6760   35.2990   40.5590 C   0  0  0  0  0  0  0  0  0  0  0  0
   44.5770   32.3120   40.9340 H   0  0  0  0  0  0  0  0  0  0  0  0
   44.0770   33.3180   38.8840 H   0  0  0  0  0  0  0  0  0  0  0  0
   42.9010   31.9920   39.0850 H   0  0  0  0  0  0  0  0  0  0  0  0
   41.2500   33.4800   39.6410 H   0  0  0  0  0  0  0  0  0  0  0  0
   41.5630   35.4930   40.5970 H   0  0  0  0  0  0  0  0  0  0  0  0
   42.3440   35.9290   39.0500 H   0  0  0  0  0  0  0  0  0  0  0  0
   44.4360   35.1650   39.7360 H   0  0  0  0  0  0  0  0  0  0  0  0
   43.7050   36.2830   41.0020 H   0  0  0  0  0  0  0  0  0  0  0  0
   41.2680   32.4080   41.6510 C   0  0  0  0  0  3  0  0  0  0  0  0
   42.6120   32.0910   41.6050 C   0  0  0  0  0  0  0  0  0  0  0  0
   42.8740   30.8970   42.2900 C   0  0  0  0  0  0  0  0  0  0  0  0
   43.9190   30.5520   42.3150 H   0  0  0  0  0  0  0  0  0  0  0  0
   41.9470   30.1180   42.9310 C   0  0  0  0  0  0  0  0  0  0  0  0
   42.0690   28.9660   43.6140 N   0  0  0  0  0  0  0  0  0  0  0  0
   40.8380   28.6320   44.0380 C   0  0  0  0  0  0  0  0  0  0  0  0
   40.6930   27.7130   44.6260 H   0  0  0  0  0  0  0  0  0  0  0  0
   39.9770   29.5700   43.6170 N   0  0  0  0  0  0  0  0  0  0  0  0
   40.6320   30.5100   42.9250 C   0  0  0  0  0  0  0  0  0  0  0  0
   40.2810   31.6760   42.2750 C   0  0  0  0  0  3  0  0  0  0  0  0
   42.9680   28.4380   43.7770 H   0  0  0  0  0  0  0  0  0  0  0  0
   44.0840   35.4500   43.5020 C   0  0  0  0  0  0  0  0  0  0  0  0
   44.3670   34.2900   42.7950 C   0  0  0  0  0  0  0  0  0  0  0  0
   45.0790   33.3080   43.4480 C   0  0  0  0  0  0  0  0  0  0  0  0
   45.4670   33.5060   44.7260 N   0  0  0  0  0  0  0  0  0  0  0  0
   45.1800   34.6400   45.3920 C   0  0  0  0  0  0  0  0  0  0  0  0
   44.4950   35.5950   44.7760 N   0  0  0  0  0  0  0  0  0  0  0  0
   43.5430   36.3120   43.1510 H   0  0  0  0  0  0  0  0  0  0  0  0
   45.3290   32.3990   42.9450 H   0  0  0  0  0  0  0  0  0  0  0  0
   45.5580   34.6510   46.4100 H   0  0  0  0  0  0  0  0  0  0  0  0
  1 28  1  0  0  0  0
  2  7  1  1  0  0  0
  2  1  1  0  0  0  0
  2 16  1  0  0  0  0
  3  2  1  0  0  0  0
  4  3  1  0  0  0  0
  4 10  1  0  0  0  0
  4  5  1  0  0  0  0
  5  6  1  0  0  0  0
  5 11  1  0  0  0  0
  6 14  1  0  0  0  0
  6  1  1  0  0  0  0
  8  3  1  0  0  0  0
  9  3  1  0  0  0  0
 12  5  1  0  0  0  0
 13  6  1  0  0  0  0
 15 25  1  0  0  0  0
 16 15  2  0  0  0  0
 16 17  1  0  0  0  0
 17 18  1  0  0  0  0
 17 19  2  0  0  0  0
 19 20  1  0  0  0  0
 20 26  1  0  0  0  0
 20 21  1  0  0  0  0
 21 22  1  0  0  0  0
 23 21  2  0  0  0  0
 24 19  1  0  0  0  0
 24 23  1  0  0  0  0
 25 24  2  0  0  0  0
 27 32  1  0  0  0  0
 28 29  1  0  0  0  0
 28 27  2  0  0  0  0
 29 30  2  0  0  0  0
 30 31  1  0  0  0  0
 31 35  1  0  0  0  0
 32 31  2  0  0  0  0
 33 27  1  0  0  0  0
 34 29  1  0  0  0  0
M  END
>  <minimizedAffinity>
-4.62894821

>  <minimizedRMSD>
1.47068346

$$$$
