
 OpenBabel03252504493D

 27 29  0  0  0  0  0  0  0  0999 V2000
   46.6710   34.8120   42.8830 C   0  0  0  0  0  0  0  0  0  0  0  0
   47.7790   34.3290   42.1570 C   0  0  0  0  0  0  0  0  0  0  0  0
   48.4010   33.1660   42.6200 C   0  0  0  0  0  0  0  0  0  0  0  0
   47.8990   32.5760   43.7390 N   0  0  0  0  0  0  0  0  0  0  0  0
   46.8430   33.0700   44.3970 C   0  0  0  0  0  0  0  0  0  0  0  0
   46.2170   34.1990   43.9710 N   0  0  0  0  0  0  0  0  0  0  0  0
   46.1820   35.7130   42.5320 H   0  0  0  0  0  0  0  0  0  0  0  0
   49.2450   32.7740   42.0930 H   0  0  0  0  0  0  0  0  0  0  0  0
   45.8380   33.2120   46.6370 C   0  0  0  0  0  3  0  0  0  0  0  0
   46.3140   32.4150   45.6080 C   0  0  0  0  0  0  0  0  0  0  0  0
   46.2920   31.0210   45.7200 C   0  0  0  0  0  0  0  0  0  0  0  0
   46.6840   30.4560   44.8710 H   0  0  0  0  0  0  0  0  0  0  0  0
   45.7850   30.4570   46.8780 C   0  0  0  0  0  0  0  0  0  0  0  0
   45.6670   29.1540   47.1990 N   0  0  0  0  0  0  0  0  0  0  0  0
   45.1220   29.1400   48.4170 C   0  0  0  0  0  0  0  0  0  0  0  0
   44.8660   28.2720   49.0260 H   0  0  0  0  0  0  0  0  0  0  0  0
   44.9150   30.3930   48.8240 N   0  0  0  0  0  0  0  0  0  0  0  0
   45.3170   31.2750   47.8860 C   0  0  0  0  0  0  0  0  0  0  0  0
   45.3260   32.6510   47.8050 C   0  0  0  0  0  3  0  0  0  0  0  0
   45.9380   28.3160   46.6330 H   0  0  0  0  0  0  0  0  0  0  0  0
   48.2250   35.0540   40.9690 C   0  0  0  0  0  0  0  0  0  0  0  0
   48.6840   34.4360   40.1940 H   0  0  0  0  0  0  0  0  0  0  0  0
   47.3690   35.5940   40.5230 H   0  0  0  0  0  0  0  0  0  0  0  0
   49.2000   36.1470   41.4310 C   0  0  0  0  0  0  0  0  0  0  0  0
   50.2190   35.6960   41.3540 H   0  0  0  0  0  0  0  0  0  0  0  0
   49.1010   37.0190   40.7690 H   0  0  0  0  0  0  0  0  0  0  0  0
   48.9040   36.4380   42.4380 H   0  0  0  0  0  0  0  0  0  0  0  0
  1  6  1  0  0  0  0
  2  3  1  0  0  0  0
  2  1  2  0  0  0  0
  3  4  2  0  0  0  0
  4  5  1  0  0  0  0
  5 10  1  0  0  0  0
  6  5  2  0  0  0  0
  7  1  1  0  0  0  0
  8  3  1  0  0  0  0
  9 19  1  0  0  0  0
 10 11  1  0  0  0  0
 10  9  2  0  0  0  0
 11 13  2  0  0  0  0
 12 11  1  0  0  0  0
 13 14  1  0  0  0  0
 13 18  1  0  0  0  0
 14 15  1  0  0  0  0
 15 17  2  0  0  0  0
 15 16  1  0  0  0  0
 18 17  1  0  0  0  0
 19 18  2  0  0  0  0
 20 14  1  0  0  0  0
 21 24  1  0  0  0  0
 21  2  1  0  0  0  0
 22 21  1  0  0  0  0
 23 21  1  0  0  0  0
 24 27  1  0  0  0  0
 25 24  1  0  0  0  0
 26 24  1  0  0  0  0
M  END
>  <minimizedAffinity>
-4.9952507

>  <minimizedRMSD>
2.76582336

$$$$
