
 OpenBabel03252508383D

 44 48  0  0  0  0  0  0  0  0999 V2000
   45.1250   33.9590   40.7280 C   0  0  0  0  0  0  0  0  0  0  0  0
   44.0790   33.6280   39.9170 C   0  0  0  0  0  0  0  0  0  0  0  0
   44.3800   33.1130   38.6840 C   0  0  0  0  0  0  0  0  0  0  0  0
   45.6640   32.9170   38.2310 C   0  0  0  0  0  0  0  0  0  0  0  0
   46.6930   33.2650   39.0820 C   0  0  0  0  0  0  0  0  0  0  0  0
   46.4410   33.7890   40.3380 C   0  0  0  0  0  0  0  0  0  0  0  0
   43.5580   32.8460   38.0340 H   0  0  0  0  0  0  0  0  0  0  0  0
   45.8330   32.5110   37.2580 H   0  0  0  0  0  0  0  0  0  0  0  0
   47.7170   33.1140   38.7310 H   0  0  0  0  0  0  0  0  0  0  0  0
   40.7940   35.2730   40.8050 C   0  0  0  0  0  0  0  0  0  0  0  0
   42.0970   35.1020   40.2930 C   0  0  0  0  0  0  0  0  0  0  0  0
   42.7360   33.8480   40.4310 C   0  0  0  0  0  0  0  0  0  0  0  0
   42.0160   32.9010   41.0620 N   0  0  0  0  0  0  0  0  0  0  0  0
   40.7890   33.0850   41.5380 C   0  0  0  0  0  0  0  0  0  0  0  0
   40.1800   34.2740   41.4080 N   0  0  0  0  0  0  0  0  0  0  0  0
   40.2020   36.5550   40.6380 N   0  0  0  0  0  0  0  0  0  0  0  0
   42.6370   35.8970   39.7910 H   0  0  0  0  0  0  0  0  0  0  0  0
   40.2640   32.2750   42.0370 H   0  0  0  0  0  0  0  0  0  0  0  0
   39.9150   37.0460   39.7500 H   0  0  0  0  0  0  0  0  0  0  0  0
   39.9820   37.1720   41.4500 H   0  0  0  0  0  0  0  0  0  0  0  0
   47.5940   34.1230   41.1480 C   0  0  0  0  0  0  0  0  0  0  0  0
   48.1400   35.3730   40.9210 C   0  0  0  0  0  0  0  0  0  0  0  0
   49.2480   35.8770   41.5980 C   0  0  0  0  0  0  0  0  0  0  0  0
   49.8240   35.0560   42.5550 C   0  0  0  0  0  0  0  0  0  0  0  0
   49.2960   33.8010   42.8000 C   0  0  0  0  0  0  0  0  0  0  0  0
   48.1950   33.3490   42.1010 C   0  0  0  0  0  0  0  0  0  0  0  0
   47.7540   36.0880   40.1880 H   0  0  0  0  0  0  0  0  0  0  0  0
   49.6700   36.8380   41.4260 H   0  0  0  0  0  0  0  0  0  0  0  0
   50.6870   35.3880   43.1170 H   0  0  0  0  0  0  0  0  0  0  0  0
   49.7050   33.1100   43.5410 H   0  0  0  0  0  0  0  0  0  0  0  0
   46.8900   31.9870   43.5310 C   0  0  0  0  0  3  0  0  0  0  0  0
   47.6240   32.0320   42.3410 C   0  0  0  0  0  0  0  0  0  0  0  0
   47.6920   30.8710   41.6000 C   0  0  0  0  0  0  0  0  0  0  0  0
   48.2760   30.9990   40.7000 H   0  0  0  0  0  0  0  0  0  0  0  0
   47.0550   29.7330   42.0390 C   0  0  0  0  0  0  0  0  0  0  0  0
   47.0060   28.5290   41.4680 N   0  0  0  0  0  0  0  0  0  0  0  0
   46.2620   27.7130   42.2580 C   0  0  0  0  0  0  0  0  0  0  0  0
   46.0360   26.6670   42.0640 H   0  0  0  0  0  0  0  0  0  0  0  0
   45.8570   28.4450   43.3230 N   0  0  0  0  0  0  0  0  0  0  0  0
   46.3440   29.7020   43.1970 C   0  0  0  0  0  0  0  0  0  0  0  0
   46.2470   30.8370   43.9740 C   0  0  0  0  0  3  0  0  0  0  0  0
   47.4490   28.2230   40.5680 H   0  0  0  0  0  0  0  0  0  0  0  0
   44.7130   34.9690   43.1140 N   0  0  0  0  0  0  0  0  0  0  0  0
   44.8930   34.5120   42.0470 C   0  0  0  0  0  0  0  0  0  0  0  0
  1 44  1  0  0  0  0
  2 12  1  0  0  0  0
  2  1  2  0  0  0  0
  3  2  1  0  0  0  0
  4  3  2  0  0  0  0
  4  5  1  0  0  0  0
  5  6  2  0  0  0  0
  6  1  1  0  0  0  0
  6 21  1  0  0  0  0
  7  3  1  0  0  0  0
  8  4  1  0  0  0  0
  9  5  1  0  0  0  0
 10 15  1  0  0  0  0
 11 12  1  0  0  0  0
 11 10  2  0  0  0  0
 12 13  2  0  0  0  0
 13 14  1  0  0  0  0
 14 18  1  0  0  0  0
 15 14  2  0  0  0  0
 16 10  1  0  0  0  0
 16 20  1  0  0  0  0
 17 11  1  0  0  0  0
 19 16  1  0  0  0  0
 21 26  1  0  0  0  0
 22 21  2  0  0  0  0
 22 23  1  0  0  0  0
 23 24  2  0  0  0  0
 24 25  1  0  0  0  0
 24 29  1  0  0  0  0
 25 30  1  0  0  0  0
 26 32  1  0  0  0  0
 26 25  2  0  0  0  0
 27 22  1  0  0  0  0
 28 23  1  0  0  0  0
 31 41  1  0  0  0  0
 32 31  2  0  0  0  0
 33 35  2  0  0  0  0
 33 32  1  0  0  0  0
 34 33  1  0  0  0  0
 35 40  1  0  0  0  0
 36 35  1  0  0  0  0
 36 37  1  0  0  0  0
 37 39  2  0  0  0  0
 38 37  1  0  0  0  0
 40 39  1  0  0  0  0
 40 41  2  0  0  0  0
 42 36  1  0  0  0  0
 44 43  3  0  0  0  0
M  END
>  <minimizedAffinity>
-6.1037674

>  <minimizedRMSD>
0.741796017

$$$$
