
 OpenBabel03252504103D

 28 30  0  0  0  0  0  0  0  0999 V2000
   47.1170   34.1650   43.1300 C   0  0  0  0  0  0  0  0  0  0  0  0
   45.7270   34.2310   43.1550 C   0  0  0  0  0  0  0  0  0  0  0  0
   45.0400   33.1850   43.7910 C   0  0  0  0  0  0  0  0  0  0  0  0
   45.7550   32.1790   44.3390 N   0  0  0  0  0  0  0  0  0  0  0  0
   47.1040   32.1530   44.2920 C   0  0  0  0  0  0  0  0  0  0  0  0
   47.7890   33.1330   43.6940 N   0  0  0  0  0  0  0  0  0  0  0  0
   43.9660   33.2330   43.8120 H   0  0  0  0  0  0  0  0  0  0  0  0
   48.6190   30.1850   44.2040 C   0  0  0  0  0  3  0  0  0  0  0  0
   47.7580   31.0100   44.9210 C   0  0  0  0  0  0  0  0  0  0  0  0
   47.5220   30.7430   46.2440 C   0  0  0  0  0  0  0  0  0  0  0  0
   46.8580   31.3660   46.8310 H   0  0  0  0  0  0  0  0  0  0  0  0
   48.1500   29.6580   46.8260 C   0  0  0  0  0  0  0  0  0  0  0  0
   48.0500   29.2270   48.1100 N   0  0  0  0  0  0  0  0  0  0  0  0
   48.8620   28.1340   48.1550 C   0  0  0  0  0  0  0  0  0  0  0  0
   48.9520   27.6000   49.1000 H   0  0  0  0  0  0  0  0  0  0  0  0
   49.4270   27.9120   46.9550 N   0  0  0  0  0  0  0  0  0  0  0  0
   49.0000   28.8530   46.0940 C   0  0  0  0  0  0  0  0  0  0  0  0
   49.2660   29.0860   44.7610 C   0  0  0  0  0  3  0  0  0  0  0  0
   47.4770   29.6490   48.8760 H   0  0  0  0  0  0  0  0  0  0  0  0
   45.0360   35.3760   42.5260 C   0  0  0  0  0  0  0  0  0  0  0  0
   45.5990   36.5620   42.9640 F   0  0  0  0  0  0  0  0  0  0  0  0
   45.2620   35.3260   41.1580 F   0  0  0  0  0  0  0  0  0  0  0  0
   43.7060   35.4340   42.7570 F   0  0  0  0  0  0  0  0  0  0  0  0
   47.7740   35.1810   42.5130 O   0  0  0  0  0  0  0  0  0  0  0  0
   48.8780   35.0730   41.6480 C   0  0  0  0  0  0  0  0  0  0  0  0
   50.0260   34.9940   42.4410 F   0  0  0  0  0  0  0  0  0  0  0  0
   48.7330   33.9970   40.8310 F   0  0  0  0  0  0  0  0  0  0  0  0
   49.0230   36.2530   40.9300 F   0  0  0  0  0  0  0  0  0  0  0  0
  1  2  2  0  0  0  0
  1  6  1  0  0  0  0
  2  3  1  0  0  0  0
  3  7  1  0  0  0  0
  3  4  2  0  0  0  0
  5  4  1  0  0  0  0
  5  9  1  0  0  0  0
  6  5  2  0  0  0  0
  8 18  2  0  0  0  0
  8  9  1  0  0  0  0
  9 10  2  0  0  0  0
 10 12  1  0  0  0  0
 10 11  1  0  0  0  0
 12 13  1  0  0  0  0
 13 14  1  0  0  0  0
 13 19  1  0  0  0  0
 14 15  1  0  0  0  0
 16 14  2  0  0  0  0
 17 12  2  0  0  0  0
 17 16  1  0  0  0  0
 18 17  1  0  0  0  0
 20 23  1  0  0  0  0
 20 21  1  0  0  0  0
 20  2  1  0  0  0  0
 22 20  1  0  0  0  0
 24  1  1  0  0  0  0
 25 26  1  0  0  0  0
 25 24  1  0  0  0  0
 27 25  1  0  0  0  0
 28 25  1  0  0  0  0
M  END
>  <minimizedAffinity>
-5.32370567

>  <minimizedRMSD>
0.947015703

$$$$
