
 OpenBabel03252504493D

 27 29  0  0  0  0  0  0  0  0999 V2000
   49.1930   32.8250   37.6280 C   0  0  0  0  0  0  0  0  0  0  0  0
   50.1480   31.9390   38.1670 C   0  0  0  0  0  0  0  0  0  0  0  0
   50.0990   31.6890   39.5400 C   0  0  0  0  0  0  0  0  0  0  0  0
   49.1350   32.3150   40.2690 N   0  0  0  0  0  0  0  0  0  0  0  0
   48.2480   33.1500   39.7160 C   0  0  0  0  0  0  0  0  0  0  0  0
   48.2700   33.4120   38.3820 N   0  0  0  0  0  0  0  0  0  0  0  0
   49.2220   33.0250   36.5640 H   0  0  0  0  0  0  0  0  0  0  0  0
   50.8100   31.0220   39.9810 H   0  0  0  0  0  0  0  0  0  0  0  0
   47.6010   34.5180   41.6540 C   0  0  0  0  0  3  0  0  0  0  0  0
   47.2100   33.8190   40.5240 C   0  0  0  0  0  0  0  0  0  0  0  0
   45.8620   33.7520   40.1590 C   0  0  0  0  0  0  0  0  0  0  0  0
   45.6280   33.1830   39.2560 H   0  0  0  0  0  0  0  0  0  0  0  0
   44.9280   34.3970   40.9510 C   0  0  0  0  0  0  0  0  0  0  0  0
   43.5910   34.4640   40.7940 N   0  0  0  0  0  0  0  0  0  0  0  0
   43.1540   35.2000   41.8190 C   0  0  0  0  0  0  0  0  0  0  0  0
   42.1260   35.4840   42.0480 H   0  0  0  0  0  0  0  0  0  0  0  0
   44.1900   35.5670   42.5750 N   0  0  0  0  0  0  0  0  0  0  0  0
   45.3460   35.0860   42.0720 C   0  0  0  0  0  0  0  0  0  0  0  0
   46.6670   35.1710   42.4570 C   0  0  0  0  0  3  0  0  0  0  0  0
   43.0020   34.0400   40.0410 H   0  0  0  0  0  0  0  0  0  0  0  0
   51.1350   31.3280   37.2780 C   0  0  0  0  0  0  0  0  0  0  0  0
   51.0370   30.2480   37.1490 H   0  0  0  0  0  0  0  0  0  0  0  0
   51.0810   31.8050   36.2820 H   0  0  0  0  0  0  0  0  0  0  0  0
   52.5280   31.6790   37.8220 C   0  0  0  0  0  0  0  0  0  0  0  0
   52.8180   30.8270   38.4840 H   0  0  0  0  0  0  0  0  0  0  0  0
   53.2260   31.7820   36.9790 H   0  0  0  0  0  0  0  0  0  0  0  0
   52.4440   32.6410   38.3260 H   0  0  0  0  0  0  0  0  0  0  0  0
  1  2  2  0  0  0  0
  1  6  1  0  0  0  0
  2  3  1  0  0  0  0
  3  8  1  0  0  0  0
  3  4  2  0  0  0  0
  5  4  1  0  0  0  0
  5 10  1  0  0  0  0
  6  5  2  0  0  0  0
  7  1  1  0  0  0  0
  9 19  1  0  0  0  0
 10  9  2  0  0  0  0
 11 10  1  0  0  0  0
 11 13  2  0  0  0  0
 12 11  1  0  0  0  0
 13 18  1  0  0  0  0
 14 13  1  0  0  0  0
 14 15  1  0  0  0  0
 15 16  1  0  0  0  0
 15 17  2  0  0  0  0
 18 19  2  0  0  0  0
 18 17  1  0  0  0  0
 20 14  1  0  0  0  0
 21 24  1  0  0  0  0
 21  2  1  0  0  0  0
 22 21  1  0  0  0  0
 23 21  1  0  0  0  0
 24 27  1  0  0  0  0
 24 25  1  0  0  0  0
 26 24  1  0  0  0  0
M  END
>  <minimizedAffinity>
-4.15684414

>  <minimizedRMSD>
7.90642309

$$$$
