REMARK  Name = 
REMARK  2 active torsions:
REMARK  status: ('A' for Active; 'I' for Inactive)
REMARK    1  A    between atoms: C_5  and  C_7
REMARK    2  A    between atoms: C_10  and  C_18
REMARK                            x       y       z     vdW  Elec       q    Type
REMARK                         _______ _______ _______ _____ _____    ______ ____
ROOT
ATOM      1  C   UNL     1      45.868  32.927  46.715  0.00  0.00    +0.000 A 
ATOM      2  C   UNL     1      45.108  32.775  47.904  0.00  0.00    +0.000 A 
ATOM      3  C   UNL     1      45.487  31.814  48.782  0.00  0.00    +0.000 A 
ATOM      4  C   UNL     1      46.617  31.005  48.485  0.00  0.00    +0.000 A 
ATOM      5  S   UNL     1      47.166  31.661  46.852  0.00  0.00    +0.000 S 
ATOM      6  H   UNL     1      44.255  33.411  48.090  0.00  0.00    +0.000 HD
ATOM      7  H   UNL     1      45.006  31.602  49.697  0.00  0.00    +0.000 HD
ENDROOT
BRANCH   4   9
ATOM      8  C   UNL     1      47.591  28.788  48.569  0.00  0.00    +0.000 A 
ATOM      9  C   UNL     1      47.218  29.952  49.210  0.00  0.00    +0.000 A 
ATOM     10  C   UNL     1      47.407  30.149  50.562  0.00  0.00    +0.000 A 
ATOM     11  H   UNL     1      47.127  31.051  51.102  0.00  0.00    +0.000 HD
ATOM     12  C   UNL     1      48.000  29.123  51.307  0.00  0.00    +0.000 A 
ATOM     13  N   UNL     1      48.298  29.055  52.636  0.00  0.00    +0.000 N 
ATOM     14  C   UNL     1      48.864  27.829  52.817  0.00  0.00    +0.000 A 
ATOM     15  H   UNL     1      49.240  27.393  53.748  0.00  0.00    +0.000 HD
ATOM     16  N   UNL     1      48.906  27.176  51.634  0.00  0.00    +0.000 NA
ATOM     17  C   UNL     1      48.377  27.955  50.678  0.00  0.00    +0.000 A 
ATOM     18  C   UNL     1      48.175  27.782  49.308  0.00  0.00    +0.000 A 
ATOM     19  H   UNL     1      48.140  29.768  53.376  0.00  0.00    +0.000 HD
ENDBRANCH   4   9
BRANCH   1  24
ATOM     20  C   UNL     1      44.596  35.801  44.718  0.00  0.00    +0.000 A 
ATOM     21  C   UNL     1      45.279  35.568  43.495  0.00  0.00    +0.000 A 
ATOM     22  C   UNL     1      46.123  34.457  43.426  0.00  0.00    +0.000 A 
ATOM     23  N   UNL     1      46.246  33.657  44.535  0.00  0.00    +0.000 NA
ATOM     24  C   UNL     1      45.573  33.922  45.678  0.00  0.00    +0.000 A 
ATOM     25  N   UNL     1      44.746  34.993  45.778  0.00  0.00    +0.000 NA
ATOM     26  H   UNL     1      43.935  36.653  44.805  0.00  0.00    +0.000 HD
ATOM     27  H   UNL     1      45.160  36.213  42.649  0.00  0.00    +0.000 HD
ATOM     28  H   UNL     1      46.678  34.212  42.531  0.00  0.00    +0.000 HD
ENDBRANCH   1  24
TORSDOF 2
