REMARK  Name = 
REMARK  3 active torsions:
REMARK  status: ('A' for Active; 'I' for Inactive)
REMARK    1  A    between atoms: C_2  and  C_13
REMARK    2  A    between atoms: C_3  and  C_7
REMARK    3  A    between atoms: C_20  and  C_37
REMARK                            x       y       z     vdW  Elec       q    Type
REMARK                         _______ _______ _______ _____ _____    ______ ____
ROOT
ATOM      1  C   UNL     1      47.411  33.709  42.719  0.00  0.00    +0.000 C 
ATOM      2  O   UNL     1      48.503  33.534  43.325  0.00  0.00    +0.000 OA
ATOM      3  N   UNL     1      47.115  33.192  41.411  0.00  0.00    +0.000 N 
ATOM      4  C   UNL     1      45.931  32.528  40.898  0.00  0.00    +0.000 C 
ATOM      5  C   UNL     1      45.482  33.240  39.608  0.00  0.00    +0.000 C 
ATOM      6  C   UNL     1      46.554  33.096  38.554  0.00  0.00    +0.000 C 
ATOM      7  C   UNL     1      47.824  32.589  39.181  0.00  0.00    +0.000 C 
ATOM      8  C   UNL     1      48.167  33.363  40.431  0.00  0.00    +0.000 C 
ATOM      9  H   UNL     1      45.081  32.741  41.609  0.00  0.00    +0.000 HD
ATOM     10  H   UNL     1      46.035  31.455  40.744  0.00  0.00    +0.000 HD
ATOM     11  H   UNL     1      44.527  32.762  39.304  0.00  0.00    +0.000 HD
ATOM     12  H   UNL     1      45.350  34.310  39.899  0.00  0.00    +0.000 HD
ATOM     13  H   UNL     1      46.803  34.115  38.153  0.00  0.00    +0.000 HD
ATOM     14  H   UNL     1      46.275  32.410  37.732  0.00  0.00    +0.000 HD
ATOM     15  H   UNL     1      47.713  31.507  39.401  0.00  0.00    +0.000 HD
ATOM     16  H   UNL     1      48.684  32.721  38.496  0.00  0.00    +0.000 HD
ATOM     17  H   UNL     1      48.166  34.435  40.153  0.00  0.00    +0.000 HD
ENDROOT
BRANCH   8  19
ATOM     18  C   UNL     1      50.049  33.334  42.157  0.00  0.00    +0.000 A 
ATOM     19  C   UNL     1      49.514  33.009  40.929  0.00  0.00    +0.000 A 
ATOM     20  C   UNL     1      50.384  32.270  40.120  0.00  0.00    +0.000 A 
ATOM     21  H   UNL     1      49.992  31.992  39.132  0.00  0.00    +0.000 HD
ATOM     22  C   UNL     1      51.659  31.875  40.458  0.00  0.00    +0.000 A 
ATOM     23  N   UNL     1      52.577  31.172  39.774  0.00  0.00    +0.000 N 
ATOM     24  C   UNL     1      53.645  31.078  40.584  0.00  0.00    +0.000 A 
ATOM     25  H   UNL     1      54.555  30.560  40.302  0.00  0.00    +0.000 HD
ATOM     26  N   UNL     1      53.385  31.720  41.758  0.00  0.00    +0.000 NA
ATOM     27  C   UNL     1      52.134  32.231  41.700  0.00  0.00    +0.000 A 
ATOM     28  C   UNL     1      51.318  32.961  42.539  0.00  0.00    +0.000 A 
ATOM     29  H   UNL     1      52.432  30.793  38.798  0.00  0.00    +0.000 HD
ENDBRANCH   8  19
BRANCH   1  31
ATOM     30  C   UNL     1      46.021  35.724  42.829  0.00  0.00    +0.000 A 
ATOM     31  C   UNL     1      46.391  34.481  43.391  0.00  0.00    +0.000 A 
ATOM     32  C   UNL     1      45.774  34.050  44.550  0.00  0.00    +0.000 A 
ATOM     33  N   UNL     1      44.833  34.839  45.107  0.00  0.00    +0.000 NA
ATOM     34  C   UNL     1      44.469  36.036  44.576  0.00  0.00    +0.000 A 
ATOM     35  N   UNL     1      45.072  36.456  43.444  0.00  0.00    +0.000 NA
ATOM     36  H   UNL     1      46.485  36.091  41.922  0.00  0.00    +0.000 HD
ATOM     37  H   UNL     1      43.716  36.657  45.030  0.00  0.00    +0.000 HD
BRANCH  32  38
ATOM     38  C   UNL     1      46.172  32.775  45.112  0.00  0.00    +0.000 A 
ATOM     39  C   UNL     1      45.791  31.614  44.506  0.00  0.00    +0.000 A 
ATOM     40  C   UNL     1      46.178  30.409  45.054  0.00  0.00    +0.000 A 
ATOM     41  C   UNL     1      46.946  30.320  46.207  0.00  0.00    +0.000 A 
ATOM     42  C   UNL     1      47.304  31.537  46.781  0.00  0.00    +0.000 A 
ATOM     43  N   UNL     1      46.910  32.693  46.221  0.00  0.00    +0.000 NA
ATOM     44  H   UNL     1      45.196  31.518  43.614  0.00  0.00    +0.000 HD
ATOM     45  H   UNL     1      45.908  29.456  44.619  0.00  0.00    +0.000 HD
ATOM     46  H   UNL     1      47.270  29.404  46.670  0.00  0.00    +0.000 HD
ATOM     47  H   UNL     1      47.906  31.613  47.691  0.00  0.00    +0.000 HD
ENDBRANCH  32  38
ENDBRANCH   1  31
TORSDOF 3
