REMARK  Name = 
REMARK  4 active torsions:
REMARK  status: ('A' for Active; 'I' for Inactive)
REMARK    1  A    between atoms: C_1  and  C_21
REMARK    2  A    between atoms: C_2  and  C_9
REMARK    3  A    between atoms: C_6  and  C_14
REMARK    4  A    between atoms: C_19  and  C_34
REMARK                            x       y       z     vdW  Elec       q    Type
REMARK                         _______ _______ _______ _____ _____    ______ ____
ROOT
ATOM      1  C   UNL     1      45.130  33.931  40.697  0.00  0.00    +0.000 A 
ATOM      2  C   UNL     1      44.082  33.632  39.876  0.00  0.00    +0.000 A 
ATOM      3  C   UNL     1      44.379  33.156  38.627  0.00  0.00    +0.000 A 
ATOM      4  C   UNL     1      45.662  32.968  38.167  0.00  0.00    +0.000 A 
ATOM      5  C   UNL     1      46.693  33.283  39.028  0.00  0.00    +0.000 A 
ATOM      6  C   UNL     1      46.445  33.767  40.300  0.00  0.00    +0.000 A 
ATOM      7  H   UNL     1      43.555  32.915  37.969  0.00  0.00    +0.000 HD
ATOM      8  H   UNL     1      45.828  32.593  37.181  0.00  0.00    +0.000 HD
ATOM      9  H   UNL     1      47.716  33.138  38.671  0.00  0.00    +0.000 HD
ENDROOT
BRANCH   2  12
ATOM     10  C   UNL     1      40.793  35.255  40.791  0.00  0.00    +0.000 A 
ATOM     11  C   UNL     1      42.094  35.094  40.271  0.00  0.00    +0.000 A 
ATOM     12  C   UNL     1      42.740  33.842  40.398  0.00  0.00    +0.000 A 
ATOM     13  N   UNL     1      42.028  32.888  41.026  0.00  0.00    +0.000 NA
ATOM     14  C   UNL     1      40.802  33.062  41.509  0.00  0.00    +0.000 A 
ATOM     15  N   UNL     1      40.187  34.249  41.390  0.00  0.00    +0.000 NA
ATOM     16  N   UNL     1      40.194  36.535  40.635  0.00  0.00    +0.000 N 
ATOM     17  H   UNL     1      42.628  35.895  39.772  0.00  0.00    +0.000 HD
ATOM     18  H   UNL     1      40.284  32.247  42.006  0.00  0.00    +0.000 HD
ATOM     19  H   UNL     1      39.900  37.031  39.751  0.00  0.00    +0.000 HD
ATOM     20  H   UNL     1      39.975  37.146  41.452  0.00  0.00    +0.000 HD
ENDBRANCH   2  12
BRANCH   6  21
ATOM     21  C   UNL     1      47.600  34.068  41.120  0.00  0.00    +0.000 A 
ATOM     22  C   UNL     1      48.132  35.334  40.958  0.00  0.00    +0.000 A 
ATOM     23  C   UNL     1      49.239  35.812  41.654  0.00  0.00    +0.000 A 
ATOM     24  C   UNL     1      49.830  34.946  42.562  0.00  0.00    +0.000 A 
ATOM     25  C   UNL     1      49.316  33.675  42.742  0.00  0.00    +0.000 A 
ATOM     26  C   UNL     1      48.215  33.250  42.026  0.00  0.00    +0.000 A 
ATOM     27  H   UNL     1      47.734  36.084  40.267  0.00  0.00    +0.000 HD
ATOM     28  H   UNL     1      49.651  36.785  41.532  0.00  0.00    +0.000 HD
ATOM     29  H   UNL     1      50.694  35.256  43.135  0.00  0.00    +0.000 HD
ATOM     30  H   UNL     1      49.737  32.949  43.441  0.00  0.00    +0.000 HD
BRANCH  26  32
ATOM     31  C   UNL     1      46.804  31.842  43.303  0.00  0.00    +0.000 A 
ATOM     32  C   UNL     1      47.658  31.916  42.198  0.00  0.00    +0.000 A 
ATOM     33  C   UNL     1      47.837  30.763  41.463  0.00  0.00    +0.000 A 
ATOM     34  H   UNL     1      48.510  30.914  40.630  0.00  0.00    +0.000 HD
ATOM     35  C   UNL     1      47.189  29.605  41.827  0.00  0.00    +0.000 A 
ATOM     36  N   UNL     1      47.234  28.404  41.248  0.00  0.00    +0.000 N 
ATOM     37  C   UNL     1      46.434  27.563  41.950  0.00  0.00    +0.000 A 
ATOM     38  H   UNL     1      46.260  26.513  41.728  0.00  0.00    +0.000 HD
ATOM     39  N   UNL     1      45.898  28.274  42.970  0.00  0.00    +0.000 NA
ATOM     40  C   UNL     1      46.361  29.546  42.903  0.00  0.00    +0.000 A 
ATOM     41  C   UNL     1      46.150  30.672  43.670  0.00  0.00    +0.000 A 
ATOM     42  H   UNL     1      47.779  28.117  40.398  0.00  0.00    +0.000 HD
ENDBRANCH  26  32
ENDBRANCH   6  21
BRANCH   1  44
ATOM     43  N   UNL     1      44.724  34.865  43.115  0.00  0.00    +0.000 NA
ATOM     44  C   UNL     1      44.901  34.442  42.033  0.00  0.00    +0.000 C 
ENDBRANCH   1  44
TORSDOF 4
