
 OpenBabel03252508333D

 35 38  0  0  1  0  0  0  0  0999 V2000
   44.2620   34.3830   41.5270 N   0  0  0  0  0  0  0  0  0  0  0  0
   43.8960   33.4660   40.4960 C   0  0  2  0  0  0  0  0  0  0  0  0
   42.9670   34.0930   39.4830 C   0  0  0  0  0  0  0  0  0  0  0  0
   41.8430   34.7190   40.1070 N   0  0  0  0  0  0  0  0  0  0  0  0
   42.1600   35.5630   41.1920 C   0  0  0  0  0  0  0  0  0  0  0  0
   43.6470   35.6910   41.4430 C   0  0  0  0  0  0  0  0  0  0  0  0
   44.8320   33.1950   39.9470 H   0  0  0  0  0  0  0  0  0  0  0  0
   43.5470   34.8750   38.9500 H   0  0  0  0  0  0  0  0  0  0  0  0
   42.6230   33.3610   38.7530 H   0  0  0  0  0  0  0  0  0  0  0  0
   41.1880   33.9650   40.4350 H   0  0  0  0  0  0  0  0  0  0  0  0
   41.6860   35.3180   42.1640 H   0  0  0  0  0  0  0  0  0  0  0  0
   41.8130   36.5960   40.9210 H   0  0  0  0  0  0  0  0  0  0  0  0
   44.0600   36.1450   40.4960 H   0  0  0  0  0  0  0  0  0  0  0  0
   43.7660   36.3330   42.3020 H   0  0  0  0  0  0  0  0  0  0  0  0
   43.5210   30.9830   40.3450 C   0  0  0  0  0  3  0  0  0  0  0  0
   43.2690   32.2130   40.9240 C   0  0  0  0  0  0  0  0  0  0  0  0
   42.3570   32.0980   41.9820 C   0  0  0  0  0  0  0  0  0  0  0  0
   42.0860   33.0210   42.5140 H   0  0  0  0  0  0  0  0  0  0  0  0
   41.7700   30.9370   42.4130 C   0  0  0  0  0  0  0  0  0  0  0  0
   40.8920   30.6970   43.4030 N   0  0  0  0  0  0  0  0  0  0  0  0
   40.6460   29.3750   43.3930 C   0  0  0  0  0  0  0  0  0  0  0  0
   39.9470   28.9440   44.1240 H   0  0  0  0  0  0  0  0  0  0  0  0
   41.3670   28.8180   42.4090 N   0  0  0  0  0  0  0  0  0  0  0  0
   42.0790   29.7600   41.7780 C   0  0  0  0  0  0  0  0  0  0  0  0
   42.9690   29.7780   40.7250 C   0  0  0  0  0  3  0  0  0  0  0  0
   40.4820   31.4200   44.0530 H   0  0  0  0  0  0  0  0  0  0  0  0
   44.8950   34.2950   43.8550 C   0  0  0  0  0  0  0  0  0  0  0  0
   45.1770   33.9720   42.5350 C   0  0  0  0  0  0  0  0  0  0  0  0
   46.3310   33.2600   42.2900 C   0  0  0  0  0  0  0  0  0  0  0  0
   47.1280   32.9090   43.3230 N   0  0  0  0  0  0  0  0  0  0  0  0
   46.8320   33.2340   44.5950 C   0  0  0  0  0  0  0  0  0  0  0  0
   45.7250   33.9200   44.8460 N   0  0  0  0  0  0  0  0  0  0  0  0
   44.0440   34.8420   44.2240 H   0  0  0  0  0  0  0  0  0  0  0  0
   46.5980   32.9920   41.2900 H   0  0  0  0  0  0  0  0  0  0  0  0
   47.5680   32.8820   45.3130 H   0  0  0  0  0  0  0  0  0  0  0  0
  1 28  1  0  0  0  0
  2  7  1  6  0  0  0
  2 16  1  0  0  0  0
  2  1  1  0  0  0  0
  3  4  1  0  0  0  0
  3  2  1  0  0  0  0
  4 10  1  0  0  0  0
  4  5  1  0  0  0  0
  5  6  1  0  0  0  0
  5 11  1  0  0  0  0
  6  1  1  0  0  0  0
  6 14  1  0  0  0  0
  8  3  1  0  0  0  0
  9  3  1  0  0  0  0
 12  5  1  0  0  0  0
 13  6  1  0  0  0  0
 15 25  2  0  0  0  0
 15 16  1  0  0  0  0
 16 17  2  0  0  0  0
 17 19  1  0  0  0  0
 17 18  1  0  0  0  0
 19 20  1  0  0  0  0
 20 26  1  0  0  0  0
 21 20  1  0  0  0  0
 21 22  1  0  0  0  0
 23 21  2  0  0  0  0
 24 23  1  0  0  0  0
 24 19  2  0  0  0  0
 25 24  1  0  0  0  0
 27 33  1  0  0  0  0
 27 32  1  0  0  0  0
 28 27  2  0  0  0  0
 29 28  1  0  0  0  0
 29 30  2  0  0  0  0
 30 31  1  0  0  0  0
 31 32  2  0  0  0  0
 31 35  1  0  0  0  0
 34 29  1  0  0  0  0
M  END
>  <minimizedAffinity>
-4.0973115

>  <minimizedRMSD>
1.07620406

$$$$
