REMARK  Name = 
REMARK  2 active torsions:
REMARK  status: ('A' for Active; 'I' for Inactive)
REMARK    1  A    between atoms: C_5  and  C_7
REMARK    2  A    between atoms: C_10  and  C_18
REMARK                            x       y       z     vdW  Elec       q    Type
REMARK                         _______ _______ _______ _____ _____    ______ ____
ROOT
ATOM      1  C   UNL     1      45.868  32.927  46.715  0.00  0.00    +0.000 A 
ATOM      2  C   UNL     1      45.108  32.775  47.904  0.00  0.00    +0.000 A 
ATOM      3  C   UNL     1      45.487  31.814  48.782  0.00  0.00    +0.000 A 
ATOM      4  C   UNL     1      46.617  31.005  48.485  0.00  0.00    +0.000 A 
ATOM      5  S   UNL     1      47.166  31.661  46.852  0.00  0.00    +0.000 S 
ATOM      6  H   UNL     1      44.255  33.411  48.090  0.00  0.00    +0.000 HD
ATOM      7  H   UNL     1      45.006  31.602  49.697  0.00  0.00    +0.000 HD
ENDROOT
BRANCH   4   9
ATOM      8  C   UNL     1      47.720  30.176  50.477  0.00  0.00    +0.000 A 
ATOM      9  C   UNL     1      47.218  29.952  49.210  0.00  0.00    +0.000 A 
ATOM     10  C   UNL     1      47.275  28.718  48.597  0.00  0.00    +0.000 A 
ATOM     11  H   UNL     1      46.891  28.504  47.601  0.00  0.00    +0.000 HD
ATOM     12  C   UNL     1      47.865  27.656  49.291  0.00  0.00    +0.000 A 
ATOM     13  N   UNL     1      48.049  26.355  48.926  0.00  0.00    +0.000 N 
ATOM     14  C   UNL     1      48.673  25.767  49.984  0.00  0.00    +0.000 A 
ATOM     15  H   UNL     1      48.994  24.726  50.082  0.00  0.00    +0.000 HD
ATOM     16  N   UNL     1      48.861  26.685  50.959  0.00  0.00    +0.000 NA
ATOM     17  C   UNL     1      48.369  27.867  50.557  0.00  0.00    +0.000 A 
ATOM     18  C   UNL     1      48.299  29.126  51.156  0.00  0.00    +0.000 A 
ATOM     19  H   UNL     1      47.781  25.884  48.038  0.00  0.00    +0.000 HD
ENDBRANCH   4   9
BRANCH   1  24
ATOM     20  C   UNL     1      44.596  35.801  44.718  0.00  0.00    +0.000 A 
ATOM     21  C   UNL     1      45.279  35.568  43.495  0.00  0.00    +0.000 A 
ATOM     22  C   UNL     1      46.123  34.457  43.426  0.00  0.00    +0.000 A 
ATOM     23  N   UNL     1      46.246  33.657  44.535  0.00  0.00    +0.000 NA
ATOM     24  C   UNL     1      45.573  33.922  45.678  0.00  0.00    +0.000 A 
ATOM     25  N   UNL     1      44.746  34.993  45.778  0.00  0.00    +0.000 NA
ATOM     26  H   UNL     1      43.935  36.653  44.805  0.00  0.00    +0.000 HD
ATOM     27  H   UNL     1      45.160  36.213  42.649  0.00  0.00    +0.000 HD
ATOM     28  H   UNL     1      46.678  34.212  42.531  0.00  0.00    +0.000 HD
ENDBRANCH   1  24
TORSDOF 2
