
     RDKit          3D

 31 33  0  0  0  0  0  0  0  0999 V2000
   46.5322   33.6253   44.3358 C   0  0  0  0  0  0  0  0  0  0  0  0
   46.2378   33.2055   45.6471 C   0  0  0  0  0  0  0  0  0  0  0  0
   45.2965   33.9030   46.3647 C   0  0  0  0  0  0  0  0  0  0  0  0
   44.6964   34.9642   45.7693 N   0  0  0  0  0  0  0  0  0  0  0  0
   44.9867   35.3513   44.5218 C   0  0  0  0  0  0  0  0  0  0  0  0
   45.8998   34.6901   43.8011 N   0  0  0  0  0  0  0  0  0  0  0  0
   45.0368   33.4641   47.6450 O   0  0  0  0  0  0  0  0  0  0  0  0
   45.3118   30.8687   47.4697 O   0  0  0  0  0  0  0  0  0  0  0  0
   45.8126   32.1018   48.2674 P   0  0  2  0  0  0  0  0  0  0  0  0
   45.3181   31.8226   49.8525 O   0  0  0  0  0  0  0  0  0  0  0  0
   47.4562   32.1893   48.1147 O   0  0  0  0  0  0  0  0  0  0  0  0
   48.4696   31.4179   48.5446 C   0  0  0  0  0  0  0  0  0  0  0  0
   49.2356   32.0383   49.4293 O   0  0  0  0  0  0  0  0  0  0  0  0
   47.2550   33.1458   43.6904 H   0  0  0  0  0  0  0  0  0  0  0  0
   46.8140   32.3593   45.9128 H   0  0  0  0  0  0  0  0  0  0  0  0
   44.4188   36.2229   44.1850 H   0  0  0  0  0  0  0  0  0  0  0  0
   45.7808   32.4720   50.4493 H   0  0  0  0  0  0  0  0  0  0  0  0
   48.8151   29.3023   47.3328 C   0  0  0  0  0  0  0  0  0  0  0  0
   49.1179   30.0706   48.4147 C   0  0  0  0  0  0  0  0  0  0  0  0
   50.0006   29.5381   49.3381 C   0  0  0  0  0  0  0  0  0  0  0  0
   50.2011   30.2004   50.1781 H   0  0  0  0  0  0  0  0  0  0  0  0
   50.6184   28.3173   49.3021 C   0  0  0  0  0  0  0  0  0  0  0  0
   51.4774   27.6873   50.1106 N   0  0  0  0  0  0  0  0  0  0  0  0
   51.6826   26.5007   49.4701 C   0  0  0  0  0  0  0  0  0  0  0  0
   52.3394   25.7000   49.8315 H   0  0  0  0  0  0  0  0  0  0  0  0
   50.9736   26.4265   48.3243 N   0  0  0  0  0  0  0  0  0  0  0  0
   50.2746   27.5900   48.1902 C   0  0  0  0  0  0  0  0  0  0  0  0
   49.4109   28.0383   47.2281 C   0  0  0  0  0  0  0  0  0  0  0  0
   48.1643   29.5191   46.5091 H   0  0  0  0  0  0  0  0  0  0  0  0
   51.8885   28.0199   51.0078 H   0  0  0  0  0  0  0  0  0  0  0  0
   49.2041   27.3975   46.3957 H   0  0  0  0  0  0  0  0  0  0  0  0
  1  2  2  0
  2  3  1  0
  3  7  1  0
  4  3  2  0
  5  4  1  0
  6  1  1  0
  6  5  2  0
  9  7  1  6
  9  8  2  0
  9 10  1  0
 11  9  1  0
 11 12  1  0
 12 13  2  0
  1 14  1  0
  2 15  1  0
  5 16  1  0
 10 17  1  0
 18 19  2  0
 19 20  1  0
 20 21  1  0
 20 22  2  0
 22 23  1  0
 23 24  1  0
 24 25  1  0
 24 26  2  0
 26 27  1  0
 27 28  2  0
 28 18  1  0
 27 22  1  0
 18 29  1  0
 23 30  1  0
 28 31  1  0
 12 19  1  0
M  ISO  6  14  14  15  14  16  14  17   3  21  15  25  14
M  END
>  <DihAtoms>  (1) 
10,11,18,17

>  <DihDeg>  (1) 
-177.78169654894813

$$$$
