
 OpenBabel03242522523D

 29 31  0  0  0  0  0  0  0  0999 V2000
   36.1970   30.8380   40.8670 O   0  0  0  0  0  0  0  0  0  0  0  0
   37.1950   31.3980   38.5340 O   0  0  0  0  0  0  0  0  0  0  0  0
   37.2510   31.7980   40.0310 P   0  0  1  0  0  0  0  0  0  0  0  0
   36.8160   33.4250   40.0610 O   0  0  0  0  0  0  0  0  0  0  0  0
   36.6340   33.6890   41.0040 H   0  0  0  0  0  0  0  0  0  0  0  0
   38.8430   31.6110   40.5540 O   0  0  0  0  0  0  0  0  0  0  0  0
   40.0170   28.9300   42.7090 C   0  0  0  0  0  0  0  0  0  0  0  0
   39.5280   30.1780   42.2800 C   0  0  0  0  0  0  0  0  0  0  0  0
   39.3210   30.3770   40.9360 C   0  0  0  0  0  0  0  0  0  0  0  0
   39.6000   29.3530   40.0890 N   0  0  0  0  0  0  0  0  0  0  0  0
   40.0660   28.1730   40.5130 C   0  0  0  0  0  0  0  0  0  0  0  0
   40.2760   27.9540   41.8160 N   0  0  0  0  0  0  0  0  0  0  0  0
   40.2130   28.6750   43.7420 H   0  0  0  0  0  0  0  0  0  0  0  0
   39.3730   30.8290   43.1000 H   0  0  0  0  0  0  0  0  0  0  0  0
   40.2420   27.4520   39.7090 H   0  0  0  0  0  0  0  0  0  0  0  0
   35.8950   29.5290   40.8180 C   0  0  0  0  0  0  0  0  0  0  0  0
   34.7650   29.2950   40.1700 O   0  0  0  0  0  0  0  0  0  0  0  0
   36.5550   27.9070   42.5490 C   0  0  0  0  0  3  0  0  0  0  0  0
   36.3450   28.1580   41.2280 C   0  0  0  0  0  0  0  0  0  0  0  0
   36.5830   27.1190   40.3450 C   0  0  0  0  0  0  0  0  0  0  0  0
   36.3970   27.3830   39.3050 H   0  0  0  0  0  0  0  0  0  0  0  0
   37.0090   25.8510   40.6340 C   0  0  0  0  0  0  0  0  0  0  0  0
   37.2750   24.7680   39.8950 N   0  0  0  0  0  0  0  0  0  0  0  0
   37.6560   23.8500   40.8270 C   0  0  0  0  0  0  0  0  0  0  0  0
   37.9570   22.8190   40.6030 H   0  0  0  0  0  0  0  0  0  0  0  0
   37.6190   24.3640   42.0740 N   0  0  0  0  0  0  0  0  0  0  0  0
   37.2030   25.6600   41.9790 C   0  0  0  0  0  0  0  0  0  0  0  0
   36.9930   26.6290   42.9210 C   0  0  0  0  0  3  0  0  0  0  0  0
   37.2080   24.6560   38.8610 H   0  0  0  0  0  0  0  0  0  0  0  0
  3  2  2  6  0  0  0
  3  4  1  0  0  0  0
  3  6  1  0  0  0  0
  3  1  1  0  0  0  0
  4  5  1  0  0  0  0
  6  9  1  0  0  0  0
  7 13  1  0  0  0  0
  8  7  1  0  0  0  0
  8 14  1  0  0  0  0
  9  8  2  0  0  0  0
 10 11  2  0  0  0  0
 10  9  1  0  0  0  0
 11 12  1  0  0  0  0
 12  7  2  0  0  0  0
 15 11  1  0  0  0  0
 16  1  1  0  0  0  0
 16 19  1  0  0  0  0
 17 16  2  0  0  0  0
 18 28  1  0  0  0  0
 19 18  2  0  0  0  0
 20 22  2  0  0  0  0
 20 19  1  0  0  0  0
 21 20  1  0  0  0  0
 22 27  1  0  0  0  0
 23 22  1  0  0  0  0
 23 24  1  0  0  0  0
 24 26  2  0  0  0  0
 25 24  1  0  0  0  0
 27 26  1  0  0  0  0
 27 28  2  0  0  0  0
 29 23  1  0  0  0  0
M  END
>  <minimizedAffinity>
-5.41372108

$$$$

 OpenBabel03242522523D

 29 31  0  0  0  0  0  0  0  0999 V2000
   36.9280   30.2140   39.1840 O   0  0  0  0  0  0  0  0  0  0  0  0
   37.0630   32.6530   40.0710 O   0  0  0  0  0  0  0  0  0  0  0  0
   36.9830   31.1720   40.5280 P   0  0  1  0  0  0  0  0  0  0  0  0
   35.5800   31.0800   41.4530 O   0  0  0  0  0  0  0  0  0  0  0  0
   35.3620   30.1200   41.6070 H   0  0  0  0  0  0  0  0  0  0  0  0
   38.3350   30.8590   41.4860 O   0  0  0  0  0  0  0  0  0  0  0  0
   39.7570   27.7900   42.8160 C   0  0  0  0  0  0  0  0  0  0  0  0
   39.6160   28.9920   42.0980 C   0  0  0  0  0  0  0  0  0  0  0  0
   38.4360   29.6870   42.2040 C   0  0  0  0  0  0  0  0  0  0  0  0
   37.4630   29.1760   43.0010 N   0  0  0  0  0  0  0  0  0  0  0  0
   37.6120   28.0310   43.6760 C   0  0  0  0  0  0  0  0  0  0  0  0
   38.7510   27.3340   43.5900 N   0  0  0  0  0  0  0  0  0  0  0  0
   40.6430   27.1690   42.8000 H   0  0  0  0  0  0  0  0  0  0  0  0
   40.4930   29.2090   41.5460 H   0  0  0  0  0  0  0  0  0  0  0  0
   36.7380   27.7520   44.2720 H   0  0  0  0  0  0  0  0  0  0  0  0
   36.3530   29.0300   38.9110 C   0  0  0  0  0  0  0  0  0  0  0  0
   35.2860   29.1530   38.1360 O   0  0  0  0  0  0  0  0  0  0  0  0
   35.8770   26.7110   38.2320 C   0  0  0  0  0  3  0  0  0  0  0  0
   36.4340   27.5500   39.1480 C   0  0  0  0  0  0  0  0  0  0  0  0
   37.0280   26.9690   40.2550 C   0  0  0  0  0  0  0  0  0  0  0  0
   37.4550   27.6930   40.9480 H   0  0  0  0  0  0  0  0  0  0  0  0
   37.1290   25.6380   40.5520 C   0  0  0  0  0  0  0  0  0  0  0  0
   37.6660   24.9500   41.5670 N   0  0  0  0  0  0  0  0  0  0  0  0
   37.4090   23.6550   41.2260 C   0  0  0  0  0  0  0  0  0  0  0  0
   37.7010   22.7820   41.8210 H   0  0  0  0  0  0  0  0  0  0  0  0
   36.7450   23.5740   40.0540 N   0  0  0  0  0  0  0  0  0  0  0  0
   36.5510   24.8430   39.5940 C   0  0  0  0  0  0  0  0  0  0  0  0
   35.9420   25.3310   38.4710 C   0  0  0  0  0  3  0  0  0  0  0  0
   38.1580   25.3140   42.4100 H   0  0  0  0  0  0  0  0  0  0  0  0
  1  3  1  0  0  0  0
  3  2  2  6  0  0  0
  3  4  1  0  0  0  0
  3  6  1  0  0  0  0
  4  5  1  0  0  0  0
  6  9  1  0  0  0  0
  7 12  1  0  0  0  0
  8  9  1  0  0  0  0
  8  7  2  0  0  0  0
  9 10  2  0  0  0  0
 10 11  1  0  0  0  0
 11 15  1  0  0  0  0
 12 11  2  0  0  0  0
 13  7  1  0  0  0  0
 14  8  1  0  0  0  0
 16 19  1  0  0  0  0
 16  1  1  0  0  0  0
 17 16  2  0  0  0  0
 18 28  2  0  0  0  0
 18 19  1  0  0  0  0
 19 20  2  0  0  0  0
 20 22  1  0  0  0  0
 20 21  1  0  0  0  0
 22 23  1  0  0  0  0
 23 29  1  0  0  0  0
 24 23  1  0  0  0  0
 24 25  1  0  0  0  0
 26 24  2  0  0  0  0
 27 26  1  0  0  0  0
 27 22  2  0  0  0  0
 28 27  1  0  0  0  0
M  END
>  <minimizedAffinity>
-5.33903694

$$$$

 OpenBabel03242522523D

 29 31  0  0  0  0  0  0  0  0999 V2000
   36.2180   30.7060   39.7290 O   0  0  0  0  0  0  0  0  0  0  0  0
   37.3010   32.0870   37.8110 O   0  0  0  0  0  0  0  0  0  0  0  0
   37.3140   31.8840   39.3490 P   0  0  1  0  0  0  0  0  0  0  0  0
   36.9030   33.3870   39.9870 O   0  0  0  0  0  0  0  0  0  0  0  0
   36.6950   33.2760   40.9550 H   0  0  0  0  0  0  0  0  0  0  0  0
   38.8850   31.4690   39.7980 O   0  0  0  0  0  0  0  0  0  0  0  0
   41.4330   33.9260   40.6230 C   0  0  0  0  0  0  0  0  0  0  0  0
   40.3730   33.0100   40.7530 C   0  0  0  0  0  0  0  0  0  0  0  0
   39.9260   32.3560   39.6310 C   0  0  0  0  0  0  0  0  0  0  0  0
   40.5350   32.6280   38.4490 N   0  0  0  0  0  0  0  0  0  0  0  0
   41.5420   33.5020   38.3400 C   0  0  0  0  0  0  0  0  0  0  0  0
   41.9960   34.1530   39.4170 N   0  0  0  0  0  0  0  0  0  0  0  0
   41.8560   34.4910   41.4420 H   0  0  0  0  0  0  0  0  0  0  0  0
   40.0490   32.9450   41.7590 H   0  0  0  0  0  0  0  0  0  0  0  0
   41.9250   33.6110   37.3220 H   0  0  0  0  0  0  0  0  0  0  0  0
   36.2500   29.6380   40.5450 C   0  0  0  0  0  0  0  0  0  0  0  0
   35.0720   29.0400   40.6390 O   0  0  0  0  0  0  0  0  0  0  0  0
   37.6040   29.3750   42.5850 C   0  0  0  0  0  3  0  0  0  0  0  0
   37.1260   28.8130   41.4400 C   0  0  0  0  0  0  0  0  0  0  0  0
   37.5030   27.5070   41.1750 C   0  0  0  0  0  0  0  0  0  0  0  0
   37.0880   27.1160   40.2480 H   0  0  0  0  0  0  0  0  0  0  0  0
   38.3080   26.6960   41.9280 C   0  0  0  0  0  0  0  0  0  0  0  0
   38.7470   25.4400   41.7940 N   0  0  0  0  0  0  0  0  0  0  0  0
   39.5130   25.2650   42.9080 C   0  0  0  0  0  0  0  0  0  0  0  0
   40.0510   24.3430   43.1580 H   0  0  0  0  0  0  0  0  0  0  0  0
   39.5310   26.3740   43.6770 N   0  0  0  0  0  0  0  0  0  0  0  0
   38.7580   27.3180   43.0660 C   0  0  0  0  0  0  0  0  0  0  0  0
   38.4360   28.6030   43.4060 C   0  0  0  0  0  3  0  0  0  0  0  0
   38.5520   24.7620   41.0270 H   0  0  0  0  0  0  0  0  0  0  0  0
  1 16  1  0  0  0  0
  3  2  2  6  0  0  0
  3  1  1  0  0  0  0
  3  6  1  0  0  0  0
  3  4  1  0  0  0  0
  4  5  1  0  0  0  0
  7  8  1  0  0  0  0
  7 13  1  0  0  0  0
  8 14  1  0  0  0  0
  9  6  1  0  0  0  0
  9  8  2  0  0  0  0
 10  9  1  0  0  0  0
 11 10  2  0  0  0  0
 11 12  1  0  0  0  0
 12  7  2  0  0  0  0
 15 11  1  0  0  0  0
 16 17  2  0  0  0  0
 16 19  1  0  0  0  0
 18 28  1  0  0  0  0
 19 18  2  0  0  0  0
 20 19  1  0  0  0  0
 20 22  2  0  0  0  0
 21 20  1  0  0  0  0
 22 27  1  0  0  0  0
 23 22  1  0  0  0  0
 23 24  1  0  0  0  0
 24 25  1  0  0  0  0
 24 26  2  0  0  0  0
 27 28  2  0  0  0  0
 27 26  1  0  0  0  0
 29 23  1  0  0  0  0
M  END
>  <minimizedAffinity>
-5.27842903

$$$$

 OpenBabel03242522523D

 29 31  0  0  0  0  0  0  0  0999 V2000
   36.1370   28.1200   41.3840 O   0  0  0  0  0  0  0  0  0  0  0  0
   34.5180   29.3160   39.7400 O   0  0  0  0  0  0  0  0  0  0  0  0
   35.8460   29.4980   40.5200 P   0  0  1  0  0  0  0  0  0  0  0  0
   35.5910   30.8420   41.5010 O   0  0  0  0  0  0  0  0  0  0  0  0
   36.3260   30.8900   42.1720 H   0  0  0  0  0  0  0  0  0  0  0  0
   37.0610   29.8190   39.3950 O   0  0  0  0  0  0  0  0  0  0  0  0
   40.6410   30.3970   39.6360 C   0  0  0  0  0  0  0  0  0  0  0  0
   39.4020   29.8450   39.2590 C   0  0  0  0  0  0  0  0  0  0  0  0
   38.2540   30.3860   39.7850 C   0  0  0  0  0  0  0  0  0  0  0  0
   38.3760   31.4300   40.6440 N   0  0  0  0  0  0  0  0  0  0  0  0
   39.5610   31.9430   40.9930 C   0  0  0  0  0  0  0  0  0  0  0  0
   40.6940   31.4350   40.4960 N   0  0  0  0  0  0  0  0  0  0  0  0
   41.5990   30.0440   39.2800 H   0  0  0  0  0  0  0  0  0  0  0  0
   39.5340   29.0450   38.5790 H   0  0  0  0  0  0  0  0  0  0  0  0
   39.4920   32.7800   41.6940 H   0  0  0  0  0  0  0  0  0  0  0  0
   37.0330   27.7890   42.3300 C   0  0  0  0  0  0  0  0  0  0  0  0
   36.4690   27.5850   43.5100 O   0  0  0  0  0  0  0  0  0  0  0  0
   39.3070   28.6280   42.7660 C   0  0  0  0  0  3  0  0  0  0  0  0
   38.4890   27.5520   42.6010 C   0  0  0  0  0  0  0  0  0  0  0  0
   39.0740   26.3000   42.6780 C   0  0  0  0  0  0  0  0  0  0  0  0
   38.3690   25.4820   42.5380 H   0  0  0  0  0  0  0  0  0  0  0  0
   40.3900   26.0000   42.9040 C   0  0  0  0  0  0  0  0  0  0  0  0
   41.0790   24.8570   43.0020 N   0  0  0  0  0  0  0  0  0  0  0  0
   42.3520   25.2890   43.2330 C   0  0  0  0  0  0  0  0  0  0  0  0
   43.2190   24.6330   43.3730 H   0  0  0  0  0  0  0  0  0  0  0  0
   42.4190   26.6360   43.2720 N   0  0  0  0  0  0  0  0  0  0  0  0
   41.1620   27.1230   43.0620 C   0  0  0  0  0  0  0  0  0  0  0  0
   40.6690   28.3980   43.0000 C   0  0  0  0  0  3  0  0  0  0  0  0
   40.7300   23.8790   42.9200 H   0  0  0  0  0  0  0  0  0  0  0  0
  1 16  1  0  0  0  0
  3  2  2  6  0  0  0
  3  1  1  0  0  0  0
  3  4  1  0  0  0  0
  4  5  1  0  0  0  0
  6  9  1  0  0  0  0
  6  3  1  0  0  0  0
  7 12  1  0  0  0  0
  8  7  2  0  0  0  0
  8  9  1  0  0  0  0
  9 10  2  0  0  0  0
 10 11  1  0  0  0  0
 11 15  1  0  0  0  0
 12 11  2  0  0  0  0
 13  7  1  0  0  0  0
 14  8  1  0  0  0  0
 16 19  1  0  0  0  0
 16 17  2  0  0  0  0
 18 28  1  0  0  0  0
 19 20  1  0  0  0  0
 19 18  2  0  0  0  0
 20 22  2  0  0  0  0
 21 20  1  0  0  0  0
 22 23  1  0  0  0  0
 22 27  1  0  0  0  0
 23 24  1  0  0  0  0
 24 26  2  0  0  0  0
 24 25  1  0  0  0  0
 27 26  1  0  0  0  0
 28 27  2  0  0  0  0
 29 23  1  0  0  0  0
M  END
>  <minimizedAffinity>
-5.27142191

$$$$

 OpenBabel03242522523D

 29 31  0  0  0  0  0  0  0  0999 V2000
   38.2200   30.9640   40.2480 O   0  0  0  0  0  0  0  0  0  0  0  0
   37.4260   32.0840   38.0410 O   0  0  0  0  0  0  0  0  0  0  0  0
   37.9890   32.3940   39.4530 P   0  0  1  0  0  0  0  0  0  0  0  0
   36.8210   33.3640   40.1810 O   0  0  0  0  0  0  0  0  0  0  0  0
   37.0230   33.4300   41.1540 H   0  0  0  0  0  0  0  0  0  0  0  0
   39.4230   33.2580   39.2540 O   0  0  0  0  0  0  0  0  0  0  0  0
   42.7050   31.6970   39.1850 C   0  0  0  0  0  0  0  0  0  0  0  0
   41.5350   32.3200   39.6580 C   0  0  0  0  0  0  0  0  0  0  0  0
   40.5530   32.6480   38.7540 C   0  0  0  0  0  0  0  0  0  0  0  0
   40.7630   32.3490   37.4470 N   0  0  0  0  0  0  0  0  0  0  0  0
   41.8810   31.7570   37.0130 C   0  0  0  0  0  0  0  0  0  0  0  0
   42.8530   31.4280   37.8710 N   0  0  0  0  0  0  0  0  0  0  0  0
   43.5340   31.4010   39.8120 H   0  0  0  0  0  0  0  0  0  0  0  0
   41.5740   32.4560   40.7060 H   0  0  0  0  0  0  0  0  0  0  0  0
   41.9000   31.5850   35.9330 H   0  0  0  0  0  0  0  0  0  0  0  0
   37.3950   30.1030   40.8690 C   0  0  0  0  0  0  0  0  0  0  0  0
   36.2710   30.6780   41.2650 O   0  0  0  0  0  0  0  0  0  0  0  0
   37.1610   28.4240   42.6550 C   0  0  0  0  0  3  0  0  0  0  0  0
   37.2300   28.6820   41.3200 C   0  0  0  0  0  0  0  0  0  0  0  0
   37.1600   27.5950   40.4650 C   0  0  0  0  0  0  0  0  0  0  0  0
   37.2210   27.8670   39.4120 H   0  0  0  0  0  0  0  0  0  0  0  0
   37.0280   26.2740   40.7950 C   0  0  0  0  0  0  0  0  0  0  0  0
   36.9490   25.1420   40.0860 N   0  0  0  0  0  0  0  0  0  0  0  0
   36.8290   24.1870   41.0510 C   0  0  0  0  0  0  0  0  0  0  0  0
   36.7370   23.1110   40.8580 H   0  0  0  0  0  0  0  0  0  0  0  0
   36.8360   24.7270   42.2870 N   0  0  0  0  0  0  0  0  0  0  0  0
   36.9640   26.0780   42.1520 C   0  0  0  0  0  0  0  0  0  0  0  0
   37.0260   27.0920   43.0680 C   0  0  0  0  0  3  0  0  0  0  0  0
   36.9740   25.0210   39.0510 H   0  0  0  0  0  0  0  0  0  0  0  0
  1 16  1  0  0  0  0
  3  2  2  6  0  0  0
  3  4  1  0  0  0  0
  3  1  1  0  0  0  0
  4  5  1  0  0  0  0
  6  3  1  0  0  0  0
  7  8  1  0  0  0  0
  7 13  1  0  0  0  0
  8 14  1  0  0  0  0
  9  6  1  0  0  0  0
  9  8  2  0  0  0  0
 10  9  1  0  0  0  0
 11 10  2  0  0  0  0
 11 12  1  0  0  0  0
 12  7  2  0  0  0  0
 15 11  1  0  0  0  0
 16 17  2  0  0  0  0
 16 19  1  0  0  0  0
 18 28  1  0  0  0  0
 19 18  2  0  0  0  0
 20 22  2  0  0  0  0
 20 19  1  0  0  0  0
 21 20  1  0  0  0  0
 22 27  1  0  0  0  0
 23 22  1  0  0  0  0
 23 24  1  0  0  0  0
 24 26  2  0  0  0  0
 25 24  1  0  0  0  0
 27 26  1  0  0  0  0
 27 28  2  0  0  0  0
 29 23  1  0  0  0  0
M  END
>  <minimizedAffinity>
-5.23726463

$$$$

 OpenBabel03242522523D

 29 31  0  0  0  0  0  0  0  0999 V2000
   38.2010   32.1030   40.8780 O   0  0  0  0  0  0  0  0  0  0  0  0
   40.0640   30.3490   40.4200 O   0  0  0  0  0  0  0  0  0  0  0  0
   39.5670   31.3810   41.4660 P   0  0  1  0  0  0  0  0  0  0  0  0
   40.8460   32.4600   41.6510 O   0  0  0  0  0  0  0  0  0  0  0  0
   40.5200   33.2570   42.1510 H   0  0  0  0  0  0  0  0  0  0  0  0
   39.2870   30.5540   42.9090 O   0  0  0  0  0  0  0  0  0  0  0  0
   36.8160   27.9100   42.5750 C   0  0  0  0  0  0  0  0  0  0  0  0
   37.4090   29.1860   42.5890 C   0  0  0  0  0  0  0  0  0  0  0  0
   38.7420   29.2890   42.9040 C   0  0  0  0  0  0  0  0  0  0  0  0
   39.4210   28.1480   43.1850 N   0  0  0  0  0  0  0  0  0  0  0  0
   38.8430   26.9420   43.1690 C   0  0  0  0  0  0  0  0  0  0  0  0
   37.5460   26.8140   42.8660 N   0  0  0  0  0  0  0  0  0  0  0  0
   35.7770   27.7220   42.3410 H   0  0  0  0  0  0  0  0  0  0  0  0
   36.7050   29.9350   42.3360 H   0  0  0  0  0  0  0  0  0  0  0  0
   39.5230   26.1220   43.4190 H   0  0  0  0  0  0  0  0  0  0  0  0
   37.4760   31.9430   39.7580 C   0  0  0  0  0  0  0  0  0  0  0  0
   37.0670   33.0960   39.2520 O   0  0  0  0  0  0  0  0  0  0  0  0
   35.9790   30.0500   39.2640 C   0  0  0  0  0  3  0  0  0  0  0  0
   36.9100   30.9310   38.8050 C   0  0  0  0  0  0  0  0  0  0  0  0
   37.2850   30.8160   37.4770 C   0  0  0  0  0  0  0  0  0  0  0  0
   38.0310   31.5480   37.1720 H   0  0  0  0  0  0  0  0  0  0  0  0
   36.8320   29.9150   36.5520 C   0  0  0  0  0  0  0  0  0  0  0  0
   37.1020   29.6940   35.2600 N   0  0  0  0  0  0  0  0  0  0  0  0
   36.2940   28.6390   34.9570 C   0  0  0  0  0  0  0  0  0  0  0  0
   36.2310   28.1620   33.9710 H   0  0  0  0  0  0  0  0  0  0  0  0
   35.5690   28.2460   36.0260 N   0  0  0  0  0  0  0  0  0  0  0  0
   35.8980   29.0550   37.0730 C   0  0  0  0  0  0  0  0  0  0  0  0
   35.4700   29.0970   38.3720 C   0  0  0  0  0  3  0  0  0  0  0  0
   37.7670   30.2020   34.6400 H   0  0  0  0  0  0  0  0  0  0  0  0
  1  3  1  0  0  0  0
  3  2  2  6  0  0  0
  3  4  1  0  0  0  0
  3  6  1  0  0  0  0
  4  5  1  0  0  0  0
  7  8  2  0  0  0  0
  7 12  1  0  0  0  0
  8  9  1  0  0  0  0
  9  6  1  0  0  0  0
  9 10  2  0  0  0  0
 11 10  1  0  0  0  0
 11 15  1  0  0  0  0
 12 11  2  0  0  0  0
 13  7  1  0  0  0  0
 14  8  1  0  0  0  0
 16  1  1  0  0  0  0
 17 16  2  0  0  0  0
 19 18  1  0  0  0  0
 19 16  1  0  0  0  0
 20 19  2  0  0  0  0
 21 20  1  0  0  0  0
 22 27  2  0  0  0  0
 22 20  1  0  0  0  0
 23 22  1  0  0  0  0
 24 23  1  0  0  0  0
 24 26  2  0  0  0  0
 25 24  1  0  0  0  0
 26 27  1  0  0  0  0
 27 28  1  0  0  0  0
 28 18  2  0  0  0  0
 29 23  1  0  0  0  0
M  END
>  <minimizedAffinity>
-5.23599768

$$$$

 OpenBabel03242522523D

 29 31  0  0  0  0  0  0  0  0999 V2000
   36.6600   28.4970   42.2320 O   0  0  0  0  0  0  0  0  0  0  0  0
   37.0410   29.4770   39.8560 O   0  0  0  0  0  0  0  0  0  0  0  0
   36.9390   29.8680   41.3530 P   0  0  1  0  0  0  0  0  0  0  0  0
   35.6630   30.9630   41.4300 O   0  0  0  0  0  0  0  0  0  0  0  0
   35.4140   31.0960   42.3850 H   0  0  0  0  0  0  0  0  0  0  0  0
   38.3840   30.6240   41.7840 O   0  0  0  0  0  0  0  0  0  0  0  0
   40.6980   32.7300   39.9350 C   0  0  0  0  0  0  0  0  0  0  0  0
   40.1740   31.6500   40.6700 C   0  0  0  0  0  0  0  0  0  0  0  0
   38.8600   31.7000   41.0660 C   0  0  0  0  0  0  0  0  0  0  0  0
   38.1310   32.7930   40.7270 N   0  0  0  0  0  0  0  0  0  0  0  0
   38.6440   33.8130   40.0290 C   0  0  0  0  0  0  0  0  0  0  0  0
   39.9210   33.7900   39.6310 N   0  0  0  0  0  0  0  0  0  0  0  0
   41.7170   32.7880   39.5780 H   0  0  0  0  0  0  0  0  0  0  0  0
   40.9080   30.9020   40.8200 H   0  0  0  0  0  0  0  0  0  0  0  0
   37.9310   34.6200   39.8360 H   0  0  0  0  0  0  0  0  0  0  0  0
   37.3000   27.3200   42.3450 C   0  0  0  0  0  0  0  0  0  0  0  0
   37.8780   27.1700   43.5260 O   0  0  0  0  0  0  0  0  0  0  0  0
   37.0830   24.8830   42.0630 C   0  0  0  0  0  3  0  0  0  0  0  0
   37.6440   26.0460   41.6310 C   0  0  0  0  0  0  0  0  0  0  0  0
   38.5180   25.9630   40.5600 C   0  0  0  0  0  0  0  0  0  0  0  0
   38.9310   26.9250   40.2630 H   0  0  0  0  0  0  0  0  0  0  0  0
   38.8950   24.8440   39.8680 C   0  0  0  0  0  0  0  0  0  0  0  0
   39.7140   24.6240   38.8340 N   0  0  0  0  0  0  0  0  0  0  0  0
   39.6250   23.2750   38.6580 C   0  0  0  0  0  0  0  0  0  0  0  0
   40.1630   22.7070   37.8890 H   0  0  0  0  0  0  0  0  0  0  0  0
   38.7860   22.7120   39.5530 N   0  0  0  0  0  0  0  0  0  0  0  0
   38.2980   23.7060   40.3500 C   0  0  0  0  0  0  0  0  0  0  0  0
   37.4240   23.6950   41.4020 C   0  0  0  0  0  3  0  0  0  0  0  0
   40.2810   25.3130   38.2960 H   0  0  0  0  0  0  0  0  0  0  0  0
  1 16  1  0  0  0  0
  3  2  2  6  0  0  0
  3  4  1  0  0  0  0
  3  6  1  0  0  0  0
  3  1  1  0  0  0  0
  4  5  1  0  0  0  0
  7  8  1  0  0  0  0
  8 14  1  0  0  0  0
  8  9  2  0  0  0  0
  9  6  1  0  0  0  0
 10  9  1  0  0  0  0
 11 10  2  0  0  0  0
 12  7  2  0  0  0  0
 12 11  1  0  0  0  0
 13  7  1  0  0  0  0
 15 11  1  0  0  0  0
 16 17  2  0  0  0  0
 19 18  1  0  0  0  0
 19 16  1  0  0  0  0
 20 19  2  0  0  0  0
 21 20  1  0  0  0  0
 22 27  2  0  0  0  0
 22 20  1  0  0  0  0
 23 22  1  0  0  0  0
 24 23  1  0  0  0  0
 24 26  2  0  0  0  0
 25 24  1  0  0  0  0
 26 27  1  0  0  0  0
 27 28  1  0  0  0  0
 28 18  2  0  0  0  0
 29 23  1  0  0  0  0
M  END
>  <minimizedAffinity>
-5.21647978

$$$$

 OpenBabel03242522523D

 29 31  0  0  0  0  0  0  0  0999 V2000
   36.1800   28.1590   41.3920 O   0  0  0  0  0  0  0  0  0  0  0  0
   34.4920   29.2420   39.7390 O   0  0  0  0  0  0  0  0  0  0  0  0
   35.8210   29.5000   40.4960 P   0  0  1  0  0  0  0  0  0  0  0  0
   35.5220   30.8580   41.4450 O   0  0  0  0  0  0  0  0  0  0  0  0
   36.2620   30.9550   42.1050 H   0  0  0  0  0  0  0  0  0  0  0  0
   37.0070   29.8410   39.3470 O   0  0  0  0  0  0  0  0  0  0  0  0
   40.5560   30.6190   39.4600 C   0  0  0  0  0  0  0  0  0  0  0  0
   39.3350   30.0090   39.1160 C   0  0  0  0  0  0  0  0  0  0  0  0
   38.1820   30.4640   39.7080 C   0  0  0  0  0  0  0  0  0  0  0  0
   38.2810   31.4850   40.5970 N   0  0  0  0  0  0  0  0  0  0  0  0
   39.4490   32.0540   40.9150 C   0  0  0  0  0  0  0  0  0  0  0  0
   40.5870   31.6290   40.3530 N   0  0  0  0  0  0  0  0  0  0  0  0
   41.5160   30.3340   39.0520 H   0  0  0  0  0  0  0  0  0  0  0  0
   39.4820   29.2400   38.4030 H   0  0  0  0  0  0  0  0  0  0  0  0
   39.3630   32.8620   41.6470 H   0  0  0  0  0  0  0  0  0  0  0  0
   37.0420   27.9150   42.3940 C   0  0  0  0  0  0  0  0  0  0  0  0
   36.4300   27.7050   43.5480 O   0  0  0  0  0  0  0  0  0  0  0  0
   38.9380   26.6060   43.2650 C   0  0  0  0  0  3  0  0  0  0  0  0
   38.4950   27.7850   42.7480 C   0  0  0  0  0  0  0  0  0  0  0  0
   39.4270   28.7970   42.6010 C   0  0  0  0  0  0  0  0  0  0  0  0
   39.0110   29.7120   42.1830 H   0  0  0  0  0  0  0  0  0  0  0  0
   40.7590   28.7650   42.9140 C   0  0  0  0  0  0  0  0  0  0  0  0
   41.7560   29.6520   42.8270 N   0  0  0  0  0  0  0  0  0  0  0  0
   42.8240   28.9590   43.3150 C   0  0  0  0  0  0  0  0  0  0  0  0
   43.8410   29.3580   43.4040 H   0  0  0  0  0  0  0  0  0  0  0  0
   42.4770   27.7060   43.6790 N   0  0  0  0  0  0  0  0  0  0  0  0
   41.1440   27.5530   43.4300 C   0  0  0  0  0  0  0  0  0  0  0  0
   40.2910   26.4990   43.6100 C   0  0  0  0  0  3  0  0  0  0  0  0
   41.7240   30.6320   42.4740 H   0  0  0  0  0  0  0  0  0  0  0  0
  1 16  1  0  0  0  0
  3  2  2  6  0  0  0
  3  1  1  0  0  0  0
  3  4  1  0  0  0  0
  4  5  1  0  0  0  0
  6  9  1  0  0  0  0
  6  3  1  0  0  0  0
  7 12  1  0  0  0  0
  8  7  2  0  0  0  0
  8  9  1  0  0  0  0
  9 10  2  0  0  0  0
 10 11  1  0  0  0  0
 11 15  1  0  0  0  0
 12 11  2  0  0  0  0
 13  7  1  0  0  0  0
 14  8  1  0  0  0  0
 16 19  1  0  0  0  0
 16 17  2  0  0  0  0
 18 28  1  0  0  0  0
 19 18  2  0  0  0  0
 20 19  1  0  0  0  0
 20 22  2  0  0  0  0
 21 20  1  0  0  0  0
 22 27  1  0  0  0  0
 23 22  1  0  0  0  0
 23 24  1  0  0  0  0
 24 25  1  0  0  0  0
 24 26  2  0  0  0  0
 27 28  2  0  0  0  0
 27 26  1  0  0  0  0
 29 23  1  0  0  0  0
M  END
>  <minimizedAffinity>
-5.21471262

$$$$

 OpenBabel03242522523D

 29 31  0  0  0  0  0  0  0  0999 V2000
   37.9310   31.0710   38.8070 O   0  0  0  0  0  0  0  0  0  0  0  0
   38.7100   31.8260   41.1690 O   0  0  0  0  0  0  0  0  0  0  0  0
   37.4540   31.6650   40.2730 P   0  0  1  0  0  0  0  0  0  0  0  0
   36.7950   33.2110   40.1690 O   0  0  0  0  0  0  0  0  0  0  0  0
   36.1080   33.2160   39.4470 H   0  0  0  0  0  0  0  0  0  0  0  0
   36.3870   30.6290   41.0690 O   0  0  0  0  0  0  0  0  0  0  0  0
   37.0150   27.0800   41.5350 C   0  0  0  0  0  0  0  0  0  0  0  0
   36.5750   28.2930   40.9750 C   0  0  0  0  0  0  0  0  0  0  0  0
   36.8340   29.4620   41.6480 C   0  0  0  0  0  0  0  0  0  0  0  0
   37.5070   29.3850   42.8250 N   0  0  0  0  0  0  0  0  0  0  0  0
   37.9180   28.2230   43.3460 C   0  0  0  0  0  0  0  0  0  0  0  0
   37.6780   27.0710   42.7110 N   0  0  0  0  0  0  0  0  0  0  0  0
   36.8610   26.1080   41.0860 H   0  0  0  0  0  0  0  0  0  0  0  0
   36.0790   28.1280   40.0550 H   0  0  0  0  0  0  0  0  0  0  0  0
   38.4440   28.3270   44.2990 H   0  0  0  0  0  0  0  0  0  0  0  0
   37.4620   30.1050   37.9990 C   0  0  0  0  0  0  0  0  0  0  0  0
   38.3260   29.1150   37.8400 O   0  0  0  0  0  0  0  0  0  0  0  0
   36.4190   29.7110   35.8030 C   0  0  0  0  0  3  0  0  0  0  0  0
   36.2940   29.6790   37.1590 C   0  0  0  0  0  0  0  0  0  0  0  0
   35.0750   29.2660   37.6690 C   0  0  0  0  0  0  0  0  0  0  0  0
   35.0400   29.2610   38.7570 H   0  0  0  0  0  0  0  0  0  0  0  0
   33.9620   28.8790   36.9740 C   0  0  0  0  0  0  0  0  0  0  0  0
   32.7410   28.4640   37.3320 N   0  0  0  0  0  0  0  0  0  0  0  0
   32.1310   28.2470   36.1320 C   0  0  0  0  0  0  0  0  0  0  0  0
   31.1000   27.8930   36.0100 H   0  0  0  0  0  0  0  0  0  0  0  0
   32.9550   28.5210   35.0990 N   0  0  0  0  0  0  0  0  0  0  0  0
   34.1480   28.9330   35.6160 C   0  0  0  0  0  0  0  0  0  0  0  0
   35.3170   29.3290   35.0260 C   0  0  0  0  0  3  0  0  0  0  0  0
   32.3530   28.3390   38.2900 H   0  0  0  0  0  0  0  0  0  0  0  0
  1  3  1  0  0  0  0
  3  6  1  0  0  0  0
  3  2  2  1  0  0  0
  4  3  1  0  0  0  0
  5  4  1  0  0  0  0
  6  9  1  0  0  0  0
  7 12  1  0  0  0  0
  8  7  2  0  0  0  0
  8  9  1  0  0  0  0
  9 10  2  0  0  0  0
 10 11  1  0  0  0  0
 11 15  1  0  0  0  0
 12 11  2  0  0  0  0
 13  7  1  0  0  0  0
 14  8  1  0  0  0  0
 16  1  1  0  0  0  0
 17 16  2  0  0  0  0
 18 19  1  0  0  0  0
 19 20  2  0  0  0  0
 19 16  1  0  0  0  0
 20 21  1  0  0  0  0
 22 23  1  0  0  0  0
 22 20  1  0  0  0  0
 23 29  1  0  0  0  0
 24 23  1  0  0  0  0
 25 24  1  0  0  0  0
 26 27  1  0  0  0  0
 26 24  2  0  0  0  0
 27 22  2  0  0  0  0
 28 27  1  0  0  0  0
 28 18  2  0  0  0  0
M  END
>  <minimizedAffinity>
-5.18861485

$$$$
