
 OpenBabel03242519413D

 32 34  0  0  0  0  0  0  0  0999 V2000
   48.0430   32.8540   41.9680 O   0  0  0  0  0  0  0  0  0  0  0  0
   47.1310   33.9630   41.3790 P   0  0  2  0  0  0  0  0  0  0  0  0
   45.5470   33.7470   42.0020 O   0  0  0  0  0  0  0  0  0  0  0  0
   44.3700   35.9460   44.6600 C   0  0  0  0  0  0  0  0  0  0  0  0
   44.6530   35.4530   43.3670 C   0  0  0  0  0  0  0  0  0  0  0  0
   45.2810   34.2020   43.2780 C   0  0  0  0  0  0  0  0  0  0  0  0
   45.5750   33.5460   44.4160 N   0  0  0  0  0  0  0  0  0  0  0  0
   45.2890   34.0500   45.6380 C   0  0  0  0  0  0  0  0  0  0  0  0
   44.6910   35.2400   45.7720 N   0  0  0  0  0  0  0  0  0  0  0  0
   43.8890   36.9080   44.7010 H   0  0  0  0  0  0  0  0  0  0  0  0
   44.3840   36.0400   42.5190 H   0  0  0  0  0  0  0  0  0  0  0  0
   45.5710   33.4340   46.4990 H   0  0  0  0  0  0  0  0  0  0  0  0
   47.0670   33.8350   39.7260 O   0  0  0  0  0  0  0  0  0  0  0  0
   46.1690   33.1650   38.9460 C   0  0  0  0  0  0  0  0  0  0  0  0
   46.6780   32.3950   37.9440 O   0  0  0  0  0  0  0  0  0  0  0  0
   44.3440   31.5620   38.5790 C   0  0  0  0  0  3  0  0  0  0  0  0
   44.7250   32.8550   38.6770 C   0  0  0  0  0  0  0  0  0  0  0  0
   43.7170   33.8050   38.5510 C   0  0  0  0  0  0  0  0  0  0  0  0
   44.1020   34.8440   38.6420 H   0  0  0  0  0  0  0  0  0  0  0  0
   42.3820   33.6390   38.3420 C   0  0  0  0  0  0  0  0  0  0  0  0
   41.3390   34.4630   38.2070 N   0  0  0  0  0  0  0  0  0  0  0  0
   40.2990   33.5950   38.0220 C   0  0  0  0  0  0  0  0  0  0  0  0
   39.2680   33.9470   37.8760 H   0  0  0  0  0  0  0  0  0  0  0  0
   40.7240   32.3060   38.0480 N   0  0  0  0  0  0  0  0  0  0  0  0
   42.0530   32.3130   38.2510 C   0  0  0  0  0  0  0  0  0  0  0  0
   42.9770   31.3160   38.3630 C   0  0  0  0  0  3  0  0  0  0  0  0
   41.3430   35.4960   38.2400 H   0  0  0  0  0  0  0  0  0  0  0  0
   47.7290   35.4070   41.9300 O   0  0  0  0  0  0  0  0  0  0  0  0
   48.9770   35.7030   41.4000 C   0  0  0  0  0  0  0  0  0  0  0  0
   49.4200   36.9650   41.7580 F   0  0  0  0  0  0  0  0  0  0  0  0
   49.8680   34.7270   41.7140 F   0  0  0  0  0  0  0  0  0  0  0  0
   48.8170   35.7230   40.0200 F   0  0  0  0  0  0  0  0  0  0  0  0
  2 28  1  0  0  0  0
  2  1  2  1  0  0  0
  2  3  1  0  0  0  0
  3  6  1  0  0  0  0
  4 10  1  0  0  0  0
  4  9  1  0  0  0  0
  5  4  2  0  0  0  0
  6  5  1  0  0  0  0
  6  7  2  0  0  0  0
  7  8  1  0  0  0  0
  8  9  2  0  0  0  0
  8 12  1  0  0  0  0
 11  5  1  0  0  0  0
 13  2  1  0  0  0  0
 14 13  1  0  0  0  0
 15 14  2  0  0  0  0
 16 17  1  0  0  0  0
 17 14  1  0  0  0  0
 18 19  1  0  0  0  0
 18 17  2  0  0  0  0
 20 18  1  0  0  0  0
 21 27  1  0  0  0  0
 21 20  1  0  0  0  0
 22 24  2  0  0  0  0
 22 21  1  0  0  0  0
 23 22  1  0  0  0  0
 24 25  1  0  0  0  0
 25 20  2  0  0  0  0
 25 26  1  0  0  0  0
 26 16  2  0  0  0  0
 29 31  1  0  0  0  0
 29 30  1  0  0  0  0
 29 28  1  0  0  0  0
 32 29  1  0  0  0  0
M  END
>  <minimizedAffinity>
-5.7305479

>  <minimizedRMSD>
3.25844622

$$$$
