REMARK  Name = 
REMARK  7 active torsions:
REMARK  status: ('A' for Active; 'I' for Inactive)
REMARK    1  A    between atoms: P_2  and  O_3
REMARK    2  A    between atoms: P_2  and  O_10
REMARK    3  A    between atoms: P_2  and  O_13
REMARK    4  A    between atoms: O_3  and  C_6
REMARK    5  A    between atoms: O_10  and  C_11
REMARK    6  A    between atoms: C_11  and  C_22
REMARK    7  A    between atoms: O_13  and  C_14
REMARK                            x       y       z     vdW  Elec       q    Type
REMARK                         _______ _______ _______ _____ _____    ______ ____
ROOT
ATOM      1  O   UNL     1      48.092  32.914  41.915  0.00  0.00    +0.000 OA
ATOM      2  P   UNL     1      47.198  34.039  41.328  0.00  0.00    +0.000 P 
ENDROOT
BRANCH   2   3
ATOM      3  O   UNL     1      45.601  33.822  41.916  0.00  0.00    +0.000 OA
BRANCH   3   6
ATOM      4  C   UNL     1      44.368  35.914  44.634  0.00  0.00    +0.000 A 
ATOM      5  C   UNL     1      44.667  35.467  43.328  0.00  0.00    +0.000 A 
ATOM      6  C   UNL     1      45.319  34.231  43.204  0.00  0.00    +0.000 A 
ATOM      7  N   UNL     1      45.619  33.546  44.322  0.00  0.00    +0.000 NA
ATOM      8  C   UNL     1      45.317  34.005  45.558  0.00  0.00    +0.000 A 
ATOM      9  N   UNL     1      44.696  35.179  45.725  0.00  0.00    +0.000 NA
ATOM     10  H   UNL     1      43.868  36.865  44.702  0.00  0.00    +0.000 HD
ATOM     11  H   UNL     1      44.392  36.075  42.497  0.00  0.00    +0.000 HD
ATOM     12  H   UNL     1      45.606  33.368  46.401  0.00  0.00    +0.000 HD
ENDBRANCH   3   6
ENDBRANCH   2   3
BRANCH   2  13
ATOM     13  O   UNL     1      47.166  33.940  39.672  0.00  0.00    +0.000 OA
BRANCH  13  14
ATOM     14  C   UNL     1      46.562  33.013  38.874  0.00  0.00    +0.000 C 
ATOM     15  O   UNL     1      45.892  33.481  37.784  0.00  0.00    +0.000 OA
BRANCH  14  17
ATOM     16  C   UNL     1      47.317  30.685  38.655  0.00  0.00    +0.000 A 
ATOM     17  C   UNL     1      46.286  31.558  38.626  0.00  0.00    +0.000 A 
ATOM     18  C   UNL     1      45.025  31.015  38.397  0.00  0.00    +0.000 A 
ATOM     19  H   UNL     1      44.228  31.789  38.385  0.00  0.00    +0.000 HD
ATOM     20  C   UNL     1      44.656  29.721  38.194  0.00  0.00    +0.000 A 
ATOM     21  N   UNL     1      43.497  29.095  37.968  0.00  0.00    +0.000 N 
ATOM     22  C   UNL     1      43.883  27.788  37.863  0.00  0.00    +0.000 A 
ATOM     23  H   UNL     1      43.160  26.983  37.673  0.00  0.00    +0.000 HD
ATOM     24  N   UNL     1      45.225  27.657  38.022  0.00  0.00    +0.000 NA
ATOM     25  C   UNL     1      45.737  28.882  38.234  0.00  0.00    +0.000 A 
ATOM     26  C   UNL     1      47.007  29.328  38.453  0.00  0.00    +0.000 A 
ATOM     27  H   UNL     1      42.556  29.517  37.897  0.00  0.00    +0.000 HD
ENDBRANCH  14  17
ENDBRANCH  13  14
ENDBRANCH   2  13
BRANCH   2  28
ATOM     28  O   UNL     1      47.794  35.469  41.916  0.00  0.00    +0.000 OA
BRANCH  28  29
ATOM     29  C   UNL     1      49.048  35.773  41.406  0.00  0.00    +0.000 C 
ATOM     30  F   UNL     1      49.459  37.054  41.736  0.00  0.00    +0.000 F 
ATOM     31  F   UNL     1      49.950  34.824  41.768  0.00  0.00    +0.000 F 
ATOM     32  F   UNL     1      48.919  35.750  40.022  0.00  0.00    +0.000 F 
ENDBRANCH  28  29
ENDBRANCH   2  28
TORSDOF 7
