
 OpenBabel03242516523D

 48 52  0  0  1  0  0  0  0  0999 V2000
   47.8680   32.9190   41.8060 C   0  0  1  0  0  0  0  0  0  0  0  0
   47.5330   32.1700   40.5920 C   0  0  0  0  0  0  0  0  0  0  0  0
   48.5510   32.5980   39.5250 C   0  0  0  0  0  0  0  0  0  0  0  0
   48.2210   34.0330   39.1760 C   0  0  0  0  0  0  0  0  0  0  0  0
   48.1690   34.9680   40.3470 C   0  0  0  0  0  0  0  0  0  0  0  0
   47.6710   34.4290   41.6120 C   0  0  1  0  0  0  0  0  0  0  0  0
   48.9800   32.8410   41.9800 H   0  0  0  0  0  0  0  0  0  0  0  0
   46.5380   32.3070   40.1850 H   0  0  0  0  0  0  0  0  0  0  0  0
   47.6470   31.0770   40.8150 H   0  0  0  0  0  0  0  0  0  0  0  0
   48.3620   31.9950   38.6330 H   0  0  0  0  0  0  0  0  0  0  0  0
   49.5880   32.4970   39.9190 H   0  0  0  0  0  0  0  0  0  0  0  0
   47.2370   33.9940   38.6400 H   0  0  0  0  0  0  0  0  0  0  0  0
   48.9810   34.3960   38.4460 H   0  0  0  0  0  0  0  0  0  0  0  0
   47.5040   35.8330   40.0420 H   0  0  0  0  0  0  0  0  0  0  0  0
   49.1740   35.4160   40.4410 H   0  0  0  0  0  0  0  0  0  0  0  0
   48.2840   34.8850   42.4490 H   0  0  0  0  0  0  0  0  0  0  0  0
   45.5140   31.1100   44.1400 C   0  0  0  0  0  0  0  0  0  0  0  0
   46.1890   31.5690   43.0000 C   0  0  0  0  0  0  0  0  0  0  0  0
   47.2220   32.4890   43.0280 C   0  0  0  0  0  0  0  0  0  0  0  0
   47.5590   32.9390   44.2440 N   0  0  0  0  0  0  0  0  0  0  0  0
   46.9250   32.5140   45.3580 C   0  0  0  0  0  0  0  0  0  0  0  0
   45.9290   31.6240   45.3210 N   0  0  0  0  0  0  0  0  0  0  0  0
   44.7110   30.3910   44.0730 H   0  0  0  0  0  0  0  0  0  0  0  0
   45.8210   31.1180   42.0930 H   0  0  0  0  0  0  0  0  0  0  0  0
   47.1720   32.8590   46.3630 H   0  0  0  0  0  0  0  0  0  0  0  0
   46.2980   34.8330   41.9110 C   0  0  0  0  0  0  0  0  0  0  0  0
   45.8590   35.5770   43.0030 C   0  0  0  0  0  0  0  0  0  0  0  0
   44.4940   35.8490   43.0620 C   0  0  0  0  0  0  0  0  0  0  0  0
   43.6840   35.3660   42.0480 C   0  0  0  0  0  0  0  0  0  0  0  0
   44.1260   34.6380   40.9880 C   0  0  0  0  0  0  0  0  0  0  0  0
   45.4670   34.3770   40.9380 N   0  0  0  0  0  0  0  0  0  0  0  0
   46.6240   35.8710   43.6910 H   0  0  0  0  0  0  0  0  0  0  0  0
   44.1580   36.4260   43.9100 H   0  0  0  0  0  0  0  0  0  0  0  0
   42.6250   35.6150   42.1480 H   0  0  0  0  0  0  0  0  0  0  0  0
   43.2150   34.1680   39.9170 C   0  0  0  0  0  0  0  0  0  0  0  0
   43.7400   34.0070   38.7650 O   0  0  0  0  0  0  0  0  0  0  0  0
   40.7090   34.7020   39.8720 C   0  0  0  0  0  0  0  0  0  0  0  0
   41.7900   33.8680   40.0580 C   0  0  0  0  0  0  0  0  0  0  0  0
   41.4740   32.5640   40.4840 C   0  0  0  0  0  0  0  0  0  0  0  0
   42.2960   31.8490   40.6460 H   0  0  0  0  0  0  0  0  0  0  0  0
   40.2290   32.0920   40.7170 C   0  0  0  0  0  0  0  0  0  0  0  0
   39.7520   30.8950   41.1310 N   0  0  0  0  0  0  0  0  0  0  0  0
   38.3940   31.0000   41.1990 C   0  0  0  0  0  0  0  0  0  0  0  0
   37.6930   30.2330   41.4930 H   0  0  0  0  0  0  0  0  0  0  0  0
   38.0560   32.2720   40.8210 N   0  0  0  0  0  0  0  0  0  0  0  0
   39.1810   32.9620   40.5200 C   0  0  0  0  0  0  0  0  0  0  0  0
   39.3980   34.2670   40.0970 C   0  0  0  0  0  0  0  0  0  0  0  0
   40.3020   30.0360   41.3590 H   0  0  0  0  0  0  0  0  0  0  0  0
  1  7  1  1  0  0  0
  1 19  1  0  0  0  0
  2  9  1  0  0  0  0
  2  1  1  0  0  0  0
  3 11  1  0  0  0  0
  3  2  1  0  0  0  0
  4  3  1  0  0  0  0
  4  5  1  0  0  0  0
  5 15  1  0  0  0  0
  5  6  1  0  0  0  0
  6  1  1  0  0  0  0
  6 26  1  0  0  0  0
  6 16  1  1  0  0  0
  8  2  1  0  0  0  0
 10  3  1  0  0  0  0
 12  4  1  0  0  0  0
 13  4  1  0  0  0  0
 14  5  1  0  0  0  0
 17 22  1  0  0  0  0
 18 19  1  0  0  0  0
 18 17  2  0  0  0  0
 19 20  2  0  0  0  0
 20 21  1  0  0  0  0
 21 25  1  0  0  0  0
 22 21  2  0  0  0  0
 23 17  1  0  0  0  0
 24 18  1  0  0  0  0
 26 27  1  0  0  0  0
 27 28  2  0  0  0  0
 27 32  1  0  0  0  0
 28 33  1  0  0  0  0
 29 34  1  0  0  0  0
 29 28  1  0  0  0  0
 30 29  2  0  0  0  0
 31 30  1  0  0  0  0
 31 26  2  0  0  0  0
 35 38  1  0  0  0  0
 35 30  1  0  0  0  0
 36 35  2  0  0  0  0
 37 38  2  0  0  0  0
 37 47  1  0  0  0  0
 38 39  1  0  0  0  0
 39 40  1  0  0  0  0
 39 41  2  0  0  0  0
 41 42  1  0  0  0  0
 42 43  1  0  0  0  0
 42 48  1  0  0  0  0
 43 44  1  0  0  0  0
 45 43  2  0  0  0  0
 46 41  1  0  0  0  0
 46 45  1  0  0  0  0
 47 46  2  0  0  0  0
M  END
>  <minimizedAffinity>
-6.52379799

>  <minimizedRMSD>
3.07561183

$$$$
