
     RDKit          3D

 34 36  0  0  0  0  0  0  0  0999 V2000
   48.0924   32.9141   41.9151 O   0  0  0  0  0  0  0  0  0  0  0  0
   47.1976   34.0386   41.3285 P   0  0  2  0  0  0  0  0  0  0  0  0
   45.6007   33.8222   41.9164 O   0  0  0  0  0  0  0  0  0  0  0  0
   44.3677   35.9141   44.6343 C   0  0  0  0  0  0  0  0  0  0  0  0
   44.6675   35.4667   43.3276 C   0  0  0  0  0  0  0  0  0  0  0  0
   45.3191   34.2309   43.2036 C   0  0  0  0  0  0  0  0  0  0  0  0
   45.6190   33.5463   44.3223 N   0  0  0  0  0  0  0  0  0  0  0  0
   45.3169   34.0046   45.5580 C   0  0  0  0  0  0  0  0  0  0  0  0
   44.6959   35.1788   45.7247 N   0  0  0  0  0  0  0  0  0  0  0  0
   47.1657   33.9397   39.6718 O   0  0  0  0  0  0  0  0  0  0  0  0
   46.5620   33.0126   38.8744 C   0  0  0  0  0  0  0  0  0  0  0  0
   45.8925   33.4811   37.7844 O   0  0  0  0  0  0  0  0  0  0  0  0
   47.7935   35.4695   41.9156 O   0  0  0  0  0  0  0  0  0  0  0  0
   49.0479   35.7735   41.4055 C   0  0  0  0  0  0  0  0  0  0  0  0
   49.4592   37.0536   41.7357 F   0  0  0  0  0  0  0  0  0  0  0  0
   49.9496   34.8244   41.7677 F   0  0  0  0  0  0  0  0  0  0  0  0
   48.9187   35.7502   40.0224 F   0  0  0  0  0  0  0  0  0  0  0  0
   43.8683   36.8649   44.7024 H   0  0  0  0  0  0  0  0  0  0  0  0
   44.3919   36.0749   42.4967 H   0  0  0  0  0  0  0  0  0  0  0  0
   45.6061   33.3679   46.4008 H   0  0  0  0  0  0  0  0  0  0  0  0
   45.7412   31.1911   37.4443 C   0  0  0  0  0  0  0  0  0  0  0  0
   46.2862   31.5585   38.6255 C   0  0  0  0  0  0  0  0  0  0  0  0
   46.5832   30.5286   39.5136 C   0  0  0  0  0  0  0  0  0  0  0  0
   47.0270   30.9033   40.4607 H   0  0  0  0  0  0  0  0  0  0  0  0
   46.4101   29.1849   39.3813 C   0  0  0  0  0  0  0  0  0  0  0  0
   46.6539   28.1218   40.1536 N   0  0  0  0  0  0  0  0  0  0  0  0
   46.2258   27.0854   39.3732 C   0  0  0  0  0  0  0  0  0  0  0  0
   46.2831   26.0417   39.7120 H   0  0  0  0  0  0  0  0  0  0  0  0
   45.7473   27.5307   38.1833 N   0  0  0  0  0  0  0  0  0  0  0  0
   45.8565   28.8704   38.1694 C   0  0  0  0  0  0  0  0  0  0  0  0
   45.5343   29.8154   37.2403 C   0  0  0  0  0  0  0  0  0  0  0  0
   45.4230   31.7828   36.6072 H   0  0  0  0  0  0  0  0  0  0  0  0
   47.0652   28.1131   41.1020 H   0  0  0  0  0  0  0  0  0  0  0  0
   45.1007   29.5032   36.3018 H   0  0  0  0  0  0  0  0  0  0  0  0
  2  1  2  0
  2  3  1  1
  2 13  1  0
  3  6  1  0
  4  9  2  0
  5  4  1  0
  6  5  2  0
  6  7  1  0
  7  8  2  0
  8  9  1  0
 10  2  1  0
 11 10  1  0
 12 11  2  0
 14 16  1  0
 14 15  1  0
 14 13  1  0
 17 14  1  0
  4 18  1  0
  5 19  1  0
  8 20  1  0
 21 22  2  0
 22 23  1  0
 23 24  1  0
 23 25  2  0
 25 26  1  0
 26 27  1  0
 27 28  1  0
 27 29  2  0
 29 30  1  0
 30 31  2  0
 31 21  1  0
 30 25  1  0
 21 32  1  0
 26 33  1  0
 31 34  1  0
 11 22  1  0
M  ISO  5  18  14  19  14  20  14  24  15  28  14
M  END
>  <DihAtoms>  (1) 
9,10,21,20

>  <DihDeg>  (1) 
176.0560682872691

$$$$
