
 OpenBabel03242519433D

 32 34  0  0  0  0  0  0  0  0999 V2000
   38.3660   26.9920   39.7090 O   0  0  0  0  0  0  0  0  0  0  0  0
   36.9450   26.6120   40.2050 P   0  0  2  0  0  0  0  0  0  0  0  0
   35.8310   26.9130   38.9360 O   0  0  0  0  0  0  0  0  0  0  0  0
   36.5610   29.8610   36.9200 C   0  0  0  0  0  0  0  0  0  0  0  0
   36.1380   29.0600   38.0040 C   0  0  0  0  0  0  0  0  0  0  0  0
   36.2550   27.6690   37.8620 C   0  0  0  0  0  0  0  0  0  0  0  0
   36.7590   27.1790   36.7150 N   0  0  0  0  0  0  0  0  0  0  0  0
   37.1540   27.9770   35.6960 C   0  0  0  0  0  0  0  0  0  0  0  0
   37.0610   29.3090   35.7870 N   0  0  0  0  0  0  0  0  0  0  0  0
   36.4600   30.9240   37.0540 H   0  0  0  0  0  0  0  0  0  0  0  0
   35.7500   29.5330   38.8770 H   0  0  0  0  0  0  0  0  0  0  0  0
   37.5500   27.4740   34.8070 H   0  0  0  0  0  0  0  0  0  0  0  0
   36.5240   27.5480   41.5080 O   0  0  0  0  0  0  0  0  0  0  0  0
   37.1200   28.6770   41.9890 C   0  0  0  0  0  0  0  0  0  0  0  0
   37.3150   28.7460   43.3350 O   0  0  0  0  0  0  0  0  0  0  0  0
   39.0110   30.2470   42.0280 C   0  0  0  0  0  3  0  0  0  0  0  0
   37.7310   30.0100   41.6650 C   0  0  0  0  0  0  0  0  0  0  0  0
   37.0860   31.0330   40.9770 C   0  0  0  0  0  0  0  0  0  0  0  0
   36.0390   30.7710   40.7110 H   0  0  0  0  0  0  0  0  0  0  0  0
   37.5480   32.2590   40.6010 C   0  0  0  0  0  0  0  0  0  0  0  0
   37.0290   33.3030   39.9490 N   0  0  0  0  0  0  0  0  0  0  0  0
   38.0690   34.1890   39.9350 C   0  0  0  0  0  0  0  0  0  0  0  0
   37.9810   35.1780   39.4640 H   0  0  0  0  0  0  0  0  0  0  0  0
   39.1600   33.6770   40.5600 N   0  0  0  0  0  0  0  0  0  0  0  0
   38.8470   32.4430   40.9930 C   0  0  0  0  0  0  0  0  0  0  0  0
   39.5530   31.4940   41.6720 C   0  0  0  0  0  3  0  0  0  0  0  0
   36.0740   33.3930   39.5610 H   0  0  0  0  0  0  0  0  0  0  0  0
   36.9750   24.9840   40.5140 O   0  0  0  0  0  0  0  0  0  0  0  0
   37.3860   24.6950   41.8080 C   0  0  0  0  0  0  0  0  0  0  0  0
   38.4090   25.5240   42.2370 F   0  0  0  0  0  0  0  0  0  0  0  0
   36.3230   24.6940   42.6540 F   0  0  0  0  0  0  0  0  0  0  0  0
   37.9160   23.4110   41.7680 F   0  0  0  0  0  0  0  0  0  0  0  0
  2  1  2  6  0  0  0
  2 28  1  0  0  0  0
  2 13  1  0  0  0  0
  3  2  1  0  0  0  0
  4 10  1  0  0  0  0
  4  5  1  0  0  0  0
  5 11  1  0  0  0  0
  6  5  2  0  0  0  0
  6  3  1  0  0  0  0
  7  6  1  0  0  0  0
  8  9  1  0  0  0  0
  8  7  2  0  0  0  0
  9  4  2  0  0  0  0
 12  8  1  0  0  0  0
 13 14  1  0  0  0  0
 14 15  2  0  0  0  0
 17 14  1  0  0  0  0
 17 16  2  0  0  0  0
 18 17  1  0  0  0  0
 19 18  1  0  0  0  0
 20 18  2  0  0  0  0
 20 25  1  0  0  0  0
 21 20  1  0  0  0  0
 22 21  1  0  0  0  0
 22 24  2  0  0  0  0
 23 22  1  0  0  0  0
 24 25  1  0  0  0  0
 25 26  2  0  0  0  0
 26 16  1  0  0  0  0
 27 21  1  0  0  0  0
 28 29  1  0  0  0  0
 29 30  1  0  0  0  0
 29 31  1  0  0  0  0
 32 29  1  0  0  0  0
M  END
>  <minimizedAffinity>
-5.51649332

$$$$

 OpenBabel03242519433D

 32 34  0  0  0  0  0  0  0  0999 V2000
   37.8150   27.1810   39.7720 O   0  0  0  0  0  0  0  0  0  0  0  0
   37.7190   27.3070   41.3160 P   0  0  2  0  0  0  0  0  0  0  0  0
   36.9650   25.8930   41.9280 O   0  0  0  0  0  0  0  0  0  0  0  0
   38.3640   22.8040   40.5920 C   0  0  0  0  0  0  0  0  0  0  0  0
   38.2400   23.9950   41.3410 C   0  0  0  0  0  0  0  0  0  0  0  0
   37.0560   24.7320   41.1860 C   0  0  0  0  0  0  0  0  0  0  0  0
   36.1140   24.2700   40.3450 N   0  0  0  0  0  0  0  0  0  0  0  0
   36.2670   23.1240   39.6430 C   0  0  0  0  0  0  0  0  0  0  0  0
   37.3790   22.3880   39.7570 N   0  0  0  0  0  0  0  0  0  0  0  0
   39.2810   22.2560   40.7280 H   0  0  0  0  0  0  0  0  0  0  0  0
   39.0370   24.2860   41.9850 H   0  0  0  0  0  0  0  0  0  0  0  0
   35.4390   22.8380   38.9850 H   0  0  0  0  0  0  0  0  0  0  0  0
   36.7880   28.6180   41.7270 O   0  0  0  0  0  0  0  0  0  0  0  0
   36.7480   29.8590   41.1630 C   0  0  0  0  0  0  0  0  0  0  0  0
   35.5280   30.3160   40.7630 O   0  0  0  0  0  0  0  0  0  0  0  0
   36.9340   31.9840   39.9420 C   0  0  0  0  0  3  0  0  0  0  0  0
   37.5230   31.0780   40.7530 C   0  0  0  0  0  0  0  0  0  0  0  0
   38.8150   31.3780   41.1760 C   0  0  0  0  0  0  0  0  0  0  0  0
   39.2370   30.5910   41.8380 H   0  0  0  0  0  0  0  0  0  0  0  0
   39.5960   32.4590   40.8990 C   0  0  0  0  0  0  0  0  0  0  0  0
   40.8280   32.8460   41.2430 N   0  0  0  0  0  0  0  0  0  0  0  0
   40.9530   34.0420   40.5940 C   0  0  0  0  0  0  0  0  0  0  0  0
   41.8690   34.6450   40.6630 H   0  0  0  0  0  0  0  0  0  0  0  0
   39.8300   34.3420   39.8940 N   0  0  0  0  0  0  0  0  0  0  0  0
   38.9490   33.3420   40.0760 C   0  0  0  0  0  0  0  0  0  0  0  0
   37.6840   33.1280   39.6150 C   0  0  0  0  0  3  0  0  0  0  0  0
   41.4990   32.3460   41.8510 H   0  0  0  0  0  0  0  0  0  0  0  0
   39.2760   27.3700   41.8810 O   0  0  0  0  0  0  0  0  0  0  0  0
   39.3410   27.3330   43.2660 C   0  0  0  0  0  0  0  0  0  0  0  0
   38.2640   27.9650   43.8660 F   0  0  0  0  0  0  0  0  0  0  0  0
   39.5060   26.0560   43.6990 F   0  0  0  0  0  0  0  0  0  0  0  0
   40.4690   28.0650   43.6200 F   0  0  0  0  0  0  0  0  0  0  0  0
  2  1  2  6  0  0  0
  2 13  1  0  0  0  0
  2 28  1  0  0  0  0
  2  3  1  0  0  0  0
  4 10  1  0  0  0  0
  4  5  1  0  0  0  0
  5 11  1  0  0  0  0
  6  5  2  0  0  0  0
  6  3  1  0  0  0  0
  7  6  1  0  0  0  0
  8  9  1  0  0  0  0
  8  7  2  0  0  0  0
  9  4  2  0  0  0  0
 12  8  1  0  0  0  0
 14 13  1  0  0  0  0
 15 14  2  0  0  0  0
 16 17  1  0  0  0  0
 17 14  1  0  0  0  0
 17 18  2  0  0  0  0
 18 19  1  0  0  0  0
 20 18  1  0  0  0  0
 20 21  1  0  0  0  0
 21 27  1  0  0  0  0
 22 23  1  0  0  0  0
 22 21  1  0  0  0  0
 24 25  1  0  0  0  0
 24 22  2  0  0  0  0
 25 20  2  0  0  0  0
 26 16  2  0  0  0  0
 26 25  1  0  0  0  0
 28 29  1  0  0  0  0
 29 32  1  0  0  0  0
 29 31  1  0  0  0  0
 29 30  1  0  0  0  0
M  END
>  <minimizedAffinity>
-5.5038929

$$$$

 OpenBabel03242519433D

 32 34  0  0  0  0  0  0  0  0999 V2000
   39.3080   30.0980   40.0570 O   0  0  0  0  0  0  0  0  0  0  0  0
   38.6320   31.0700   41.0610 P   0  0  2  0  0  0  0  0  0  0  0  0
   38.9990   30.5440   42.6530 O   0  0  0  0  0  0  0  0  0  0  0  0
   37.9140   27.1300   43.3280 C   0  0  0  0  0  0  0  0  0  0  0  0
   37.8620   28.5200   43.0820 C   0  0  0  0  0  0  0  0  0  0  0  0
   39.0820   29.1860   42.8880 C   0  0  0  0  0  0  0  0  0  0  0  0
   40.2210   28.4730   42.9450 N   0  0  0  0  0  0  0  0  0  0  0  0
   40.2330   27.1420   43.1830 C   0  0  0  0  0  0  0  0  0  0  0  0
   39.0940   26.4650   43.3740 N   0  0  0  0  0  0  0  0  0  0  0  0
   36.9650   26.6430   43.4730 H   0  0  0  0  0  0  0  0  0  0  0  0
   36.9140   29.0060   43.0530 H   0  0  0  0  0  0  0  0  0  0  0  0
   41.2160   26.6580   43.2090 H   0  0  0  0  0  0  0  0  0  0  0  0
   36.9850   31.0420   40.8660 O   0  0  0  0  0  0  0  0  0  0  0  0
   36.2200   30.2090   40.1030 C   0  0  0  0  0  0  0  0  0  0  0  0
   35.3110   29.4340   40.7580 O   0  0  0  0  0  0  0  0  0  0  0  0
   34.7640   28.9950   38.5390 C   0  0  0  0  0  3  0  0  0  0  0  0
   35.8880   29.7220   38.7220 C   0  0  0  0  0  0  0  0  0  0  0  0
   36.6400   29.9920   37.5820 C   0  0  0  0  0  0  0  0  0  0  0  0
   37.5480   30.5920   37.8070 H   0  0  0  0  0  0  0  0  0  0  0  0
   36.4200   29.6340   36.2870 C   0  0  0  0  0  0  0  0  0  0  0  0
   37.0610   29.8330   35.1310 N   0  0  0  0  0  0  0  0  0  0  0  0
   36.2600   29.1850   34.2340 C   0  0  0  0  0  0  0  0  0  0  0  0
   36.5000   29.1510   33.1620 H   0  0  0  0  0  0  0  0  0  0  0  0
   35.1860   28.6250   34.8470 N   0  0  0  0  0  0  0  0  0  0  0  0
   35.2700   28.9020   36.1610 C   0  0  0  0  0  0  0  0  0  0  0  0
   34.4740   28.5920   37.2240 C   0  0  0  0  0  3  0  0  0  0  0  0
   37.9430   30.3520   34.9810 H   0  0  0  0  0  0  0  0  0  0  0  0
   39.3250   32.5550   40.8170 O   0  0  0  0  0  0  0  0  0  0  0  0
   38.7280   33.2570   39.7790 C   0  0  0  0  0  0  0  0  0  0  0  0
   38.6070   32.4980   38.6260 F   0  0  0  0  0  0  0  0  0  0  0  0
   37.5450   33.7870   40.1840 F   0  0  0  0  0  0  0  0  0  0  0  0
   39.5930   34.3000   39.4690 F   0  0  0  0  0  0  0  0  0  0  0  0
  2  1  2  6  0  0  0
  2  3  1  0  0  0  0
  3  6  1  0  0  0  0
  4  9  1  0  0  0  0
  4 10  1  0  0  0  0
  5  4  2  0  0  0  0
  6  7  2  0  0  0  0
  6  5  1  0  0  0  0
  7  8  1  0  0  0  0
  8 12  1  0  0  0  0
  8  9  2  0  0  0  0
 11  5  1  0  0  0  0
 13  2  1  0  0  0  0
 14 15  2  0  0  0  0
 14 13  1  0  0  0  0
 16 17  1  0  0  0  0
 17 14  1  0  0  0  0
 18 19  1  0  0  0  0
 18 17  2  0  0  0  0
 20 18  1  0  0  0  0
 21 20  1  0  0  0  0
 22 24  2  0  0  0  0
 22 21  1  0  0  0  0
 23 22  1  0  0  0  0
 24 25  1  0  0  0  0
 25 20  2  0  0  0  0
 25 26  1  0  0  0  0
 26 16  2  0  0  0  0
 27 21  1  0  0  0  0
 28  2  1  0  0  0  0
 29 31  1  0  0  0  0
 29 28  1  0  0  0  0
 30 29  1  0  0  0  0
 32 29  1  0  0  0  0
M  END
>  <minimizedAffinity>
-5.36593103

$$$$

 OpenBabel03242519433D

 32 34  0  0  0  0  0  0  0  0999 V2000
   36.4150   30.9930   41.4750 O   0  0  0  0  0  0  0  0  0  0  0  0
   37.6750   30.0860   41.4790 P   0  0  2  0  0  0  0  0  0  0  0  0
   39.0230   31.0350   41.9520 O   0  0  0  0  0  0  0  0  0  0  0  0
   41.0680   32.7830   39.4920 C   0  0  0  0  0  0  0  0  0  0  0  0
   40.6100   31.7740   40.3680 C   0  0  0  0  0  0  0  0  0  0  0  0
   39.4440   32.0390   41.1020 C   0  0  0  0  0  0  0  0  0  0  0  0
   38.8320   33.2240   40.9340 N   0  0  0  0  0  0  0  0  0  0  0  0
   39.2990   34.1680   40.0850 C   0  0  0  0  0  0  0  0  0  0  0  0
   40.4080   33.9600   39.3640 N   0  0  0  0  0  0  0  0  0  0  0  0
   41.9640   32.5550   38.9410 H   0  0  0  0  0  0  0  0  0  0  0  0
   41.1580   30.8620   40.4390 H   0  0  0  0  0  0  0  0  0  0  0  0
   38.7240   35.0990   40.0230 H   0  0  0  0  0  0  0  0  0  0  0  0
   37.9580   29.4920   39.9560 O   0  0  0  0  0  0  0  0  0  0  0  0
   37.3900   29.8540   38.7690 C   0  0  0  0  0  0  0  0  0  0  0  0
   37.9350   30.9240   38.1260 O   0  0  0  0  0  0  0  0  0  0  0  0
   36.6540   29.6560   36.4330 C   0  0  0  0  0  3  0  0  0  0  0  0
   36.3340   29.5640   37.7430 C   0  0  0  0  0  0  0  0  0  0  0  0
   35.0320   29.1660   38.0330 C   0  0  0  0  0  0  0  0  0  0  0  0
   34.8400   29.1130   39.1270 H   0  0  0  0  0  0  0  0  0  0  0  0
   34.0090   28.8470   37.1930 C   0  0  0  0  0  0  0  0  0  0  0  0
   32.7410   28.4590   37.3550 N   0  0  0  0  0  0  0  0  0  0  0  0
   32.3080   28.3180   36.0670 C   0  0  0  0  0  0  0  0  0  0  0  0
   31.2820   28.0010   35.8320 H   0  0  0  0  0  0  0  0  0  0  0  0
   33.2930   28.6160   35.1810 N   0  0  0  0  0  0  0  0  0  0  0  0
   34.3890   28.9570   35.8820 C   0  0  0  0  0  0  0  0  0  0  0  0
   35.6430   29.3400   35.5080 C   0  0  0  0  0  3  0  0  0  0  0  0
   32.2370   28.3090   38.2460 H   0  0  0  0  0  0  0  0  0  0  0  0
   37.4120   28.9210   42.6290 O   0  0  0  0  0  0  0  0  0  0  0  0
   36.5440   27.9300   42.1940 C   0  0  0  0  0  0  0  0  0  0  0  0
   35.4920   28.4360   41.4480 F   0  0  0  0  0  0  0  0  0  0  0  0
   37.2270   26.9540   41.5420 F   0  0  0  0  0  0  0  0  0  0  0  0
   35.9800   27.3810   43.3390 F   0  0  0  0  0  0  0  0  0  0  0  0
  2  1  2  6  0  0  0
  2  3  1  0  0  0  0
  2 28  1  0  0  0  0
  4  5  1  0  0  0  0
  5 11  1  0  0  0  0
  5  6  2  0  0  0  0
  6  3  1  0  0  0  0
  7  6  1  0  0  0  0
  8  7  2  0  0  0  0
  9  4  2  0  0  0  0
  9  8  1  0  0  0  0
 10  4  1  0  0  0  0
 12  8  1  0  0  0  0
 13  2  1  0  0  0  0
 14 13  1  0  0  0  0
 15 14  2  0  0  0  0
 16 17  1  0  0  0  0
 17 18  2  0  0  0  0
 17 14  1  0  0  0  0
 18 19  1  0  0  0  0
 20 21  1  0  0  0  0
 20 18  1  0  0  0  0
 21 27  1  0  0  0  0
 22 21  1  0  0  0  0
 23 22  1  0  0  0  0
 24 25  1  0  0  0  0
 24 22  2  0  0  0  0
 25 20  2  0  0  0  0
 26 25  1  0  0  0  0
 26 16  2  0  0  0  0
 29 28  1  0  0  0  0
 29 32  1  0  0  0  0
 30 29  1  0  0  0  0
 31 29  1  0  0  0  0
M  END
>  <minimizedAffinity>
-5.35947466

$$$$

 OpenBabel03242519433D

 32 34  0  0  0  0  0  0  0  0999 V2000
   39.9010   29.6930   40.7010 O   0  0  0  0  0  0  0  0  0  0  0  0
   38.7000   30.6720   40.6120 P   0  0  2  0  0  0  0  0  0  0  0  0
   39.1490   32.1480   41.3610 O   0  0  0  0  0  0  0  0  0  0  0  0
   41.0780   34.5360   39.3950 C   0  0  0  0  0  0  0  0  0  0  0  0
   39.9760   33.8290   39.9240 C   0  0  0  0  0  0  0  0  0  0  0  0
   40.2460   32.8240   40.8640 C   0  0  0  0  0  0  0  0  0  0  0  0
   41.5250   32.5920   41.2090 N   0  0  0  0  0  0  0  0  0  0  0  0
   42.5570   33.2890   40.6830 C   0  0  0  0  0  0  0  0  0  0  0  0
   42.3480   34.2560   39.7810 N   0  0  0  0  0  0  0  0  0  0  0  0
   40.8440   35.3010   38.6750 H   0  0  0  0  0  0  0  0  0  0  0  0
   38.9940   34.0800   39.5940 H   0  0  0  0  0  0  0  0  0  0  0  0
   43.5600   33.0200   41.0330 H   0  0  0  0  0  0  0  0  0  0  0  0
   37.3920   30.0490   41.4210 O   0  0  0  0  0  0  0  0  0  0  0  0
   36.7820   28.8380   41.2740 C   0  0  0  0  0  0  0  0  0  0  0  0
   35.4450   28.8490   41.0140 O   0  0  0  0  0  0  0  0  0  0  0  0
   36.9780   26.6780   42.4310 C   0  0  0  0  0  3  0  0  0  0  0  0
   36.9420   27.3450   41.2560 C   0  0  0  0  0  0  0  0  0  0  0  0
   37.0240   26.5680   40.1040 C   0  0  0  0  0  0  0  0  0  0  0  0
   36.9890   27.1810   39.1770 H   0  0  0  0  0  0  0  0  0  0  0  0
   37.1360   25.2180   39.9680 C   0  0  0  0  0  0  0  0  0  0  0  0
   37.2210   24.3780   38.9320 N   0  0  0  0  0  0  0  0  0  0  0  0
   37.3090   23.1610   39.5450 C   0  0  0  0  0  0  0  0  0  0  0  0
   37.3930   22.2270   38.9710 H   0  0  0  0  0  0  0  0  0  0  0  0
   37.2770   23.2870   40.8960 N   0  0  0  0  0  0  0  0  0  0  0  0
   37.1670   24.5950   41.1870 C   0  0  0  0  0  0  0  0  0  0  0  0
   37.0920   25.2780   42.3640 C   0  0  0  0  0  3  0  0  0  0  0  0
   37.2170   24.6170   37.9250 H   0  0  0  0  0  0  0  0  0  0  0  0
   38.4370   30.9490   38.9990 O   0  0  0  0  0  0  0  0  0  0  0  0
   37.2060   31.5380   38.7540 C   0  0  0  0  0  0  0  0  0  0  0  0
   36.1980   30.6060   38.5660 F   0  0  0  0  0  0  0  0  0  0  0  0
   36.9100   32.4400   39.7260 F   0  0  0  0  0  0  0  0  0  0  0  0
   37.3350   32.2190   37.5490 F   0  0  0  0  0  0  0  0  0  0  0  0
  2  1  2  1  0  0  0
  2  3  1  0  0  0  0
  2 13  1  0  0  0  0
  4  9  2  0  0  0  0
  4  5  1  0  0  0  0
  5  6  2  0  0  0  0
  6  7  1  0  0  0  0
  6  3  1  0  0  0  0
  8 12  1  0  0  0  0
  8  7  2  0  0  0  0
  9  8  1  0  0  0  0
 10  4  1  0  0  0  0
 11  5  1  0  0  0  0
 14 13  1  0  0  0  0
 15 14  2  0  0  0  0
 17 14  1  0  0  0  0
 17 16  2  0  0  0  0
 18 17  1  0  0  0  0
 19 18  1  0  0  0  0
 20 18  2  0  0  0  0
 20 25  1  0  0  0  0
 21 22  1  0  0  0  0
 21 20  1  0  0  0  0
 22 24  2  0  0  0  0
 23 22  1  0  0  0  0
 24 25  1  0  0  0  0
 25 26  2  0  0  0  0
 26 16  1  0  0  0  0
 27 21  1  0  0  0  0
 28  2  1  0  0  0  0
 29 28  1  0  0  0  0
 29 31  1  0  0  0  0
 30 29  1  0  0  0  0
 32 29  1  0  0  0  0
M  END
>  <minimizedAffinity>
-5.31151295

$$$$

 OpenBabel03242519433D

 32 34  0  0  0  0  0  0  0  0999 V2000
   38.2540   29.8640   38.8520 O   0  0  0  0  0  0  0  0  0  0  0  0
   39.1980   30.9760   39.3820 P   0  0  2  0  0  0  0  0  0  0  0  0
   40.6770   30.8850   38.5190 O   0  0  0  0  0  0  0  0  0  0  0  0
   42.8570   33.6180   39.5500 C   0  0  0  0  0  0  0  0  0  0  0  0
   42.0630   32.4520   39.6130 C   0  0  0  0  0  0  0  0  0  0  0  0
   41.4490   32.0260   38.4250 C   0  0  0  0  0  0  0  0  0  0  0  0
   41.6490   32.7410   37.3040 N   0  0  0  0  0  0  0  0  0  0  0  0
   42.4170   33.8550   37.2800 C   0  0  0  0  0  0  0  0  0  0  0  0
   43.0210   34.2990   38.3890 N   0  0  0  0  0  0  0  0  0  0  0  0
   43.3170   33.9240   40.4740 H   0  0  0  0  0  0  0  0  0  0  0  0
   41.9600   31.9460   40.5450 H   0  0  0  0  0  0  0  0  0  0  0  0
   42.5130   34.3630   36.3150 H   0  0  0  0  0  0  0  0  0  0  0  0
   39.5150   30.7390   40.9940 O   0  0  0  0  0  0  0  0  0  0  0  0
   38.9770   29.8280   41.8540 C   0  0  0  0  0  0  0  0  0  0  0  0
   38.8780   30.1980   43.1620 O   0  0  0  0  0  0  0  0  0  0  0  0
   37.3660   28.3010   42.9110 C   0  0  0  0  0  3  0  0  0  0  0  0
   38.3710   28.4640   42.0230 C   0  0  0  0  0  0  0  0  0  0  0  0
   38.7440   27.3340   41.3000 C   0  0  0  0  0  0  0  0  0  0  0  0
   39.5750   27.5410   40.5910 H   0  0  0  0  0  0  0  0  0  0  0  0
   38.2480   26.0670   41.3440 C   0  0  0  0  0  0  0  0  0  0  0  0
   38.5220   24.9240   40.7080 N   0  0  0  0  0  0  0  0  0  0  0  0
   37.6230   24.0560   41.2600 C   0  0  0  0  0  0  0  0  0  0  0  0
   37.5730   23.0010   40.9560 H   0  0  0  0  0  0  0  0  0  0  0  0
   36.8490   24.6740   42.1900 N   0  0  0  0  0  0  0  0  0  0  0  0
   37.2330   25.9610   42.2570 C   0  0  0  0  0  0  0  0  0  0  0  0
   36.8050   27.0150   43.0080 C   0  0  0  0  0  3  0  0  0  0  0  0
   39.2410   24.7630   39.9820 H   0  0  0  0  0  0  0  0  0  0  0  0
   38.4650   32.4210   39.0350 O   0  0  0  0  0  0  0  0  0  0  0  0
   37.7280   32.9140   40.1020 C   0  0  0  0  0  0  0  0  0  0  0  0
   36.8280   31.9860   40.5990 F   0  0  0  0  0  0  0  0  0  0  0  0
   38.5540   33.4080   41.0610 F   0  0  0  0  0  0  0  0  0  0  0  0
   36.9680   33.9620   39.5960 F   0  0  0  0  0  0  0  0  0  0  0  0
  2  1  2  6  0  0  0
  2 13  1  0  0  0  0
  3  2  1  0  0  0  0
  4  5  1  0  0  0  0
  4 10  1  0  0  0  0
  5 11  1  0  0  0  0
  6  3  1  0  0  0  0
  6  5  2  0  0  0  0
  7  6  1  0  0  0  0
  8  7  2  0  0  0  0
  8  9  1  0  0  0  0
  9  4  2  0  0  0  0
 12  8  1  0  0  0  0
 13 14  1  0  0  0  0
 14 17  1  0  0  0  0
 14 15  2  0  0  0  0
 16 26  1  0  0  0  0
 17 16  2  0  0  0  0
 18 20  2  0  0  0  0
 18 17  1  0  0  0  0
 19 18  1  0  0  0  0
 20 25  1  0  0  0  0
 21 22  1  0  0  0  0
 21 20  1  0  0  0  0
 22 24  2  0  0  0  0
 23 22  1  0  0  0  0
 24 25  1  0  0  0  0
 25 26  2  0  0  0  0
 27 21  1  0  0  0  0
 28  2  1  0  0  0  0
 28 29  1  0  0  0  0
 29 30  1  0  0  0  0
 29 31  1  0  0  0  0
 32 29  1  0  0  0  0
M  END
>  <minimizedAffinity>
-5.27811766

$$$$

 OpenBabel03242519433D

 32 34  0  0  0  0  0  0  0  0999 V2000
   37.5540   26.4320   40.0390 O   0  0  0  0  0  0  0  0  0  0  0  0
   37.8290   25.8810   41.4630 P   0  0  2  0  0  0  0  0  0  0  0  0
   36.9550   24.4170   41.6550 O   0  0  0  0  0  0  0  0  0  0  0  0
   36.1000   22.3790   38.7560 C   0  0  0  0  0  0  0  0  0  0  0  0
   36.0080   23.3590   39.7690 C   0  0  0  0  0  0  0  0  0  0  0  0
   37.0750   23.4530   40.6740 C   0  0  0  0  0  0  0  0  0  0  0  0
   38.1180   22.6150   40.5290 N   0  0  0  0  0  0  0  0  0  0  0  0
   38.1730   21.6870   39.5460 C   0  0  0  0  0  0  0  0  0  0  0  0
   37.1770   21.5610   38.6600 N   0  0  0  0  0  0  0  0  0  0  0  0
   35.2680   22.3280   38.0750 H   0  0  0  0  0  0  0  0  0  0  0  0
   35.1440   23.9820   39.8090 H   0  0  0  0  0  0  0  0  0  0  0  0
   39.0680   21.0560   39.5190 H   0  0  0  0  0  0  0  0  0  0  0  0
   37.3020   26.9610   42.6070 O   0  0  0  0  0  0  0  0  0  0  0  0
   37.4490   28.3170   42.6470 C   0  0  0  0  0  0  0  0  0  0  0  0
   37.6900   28.8750   43.8660 O   0  0  0  0  0  0  0  0  0  0  0  0
   36.4130   29.9240   41.1030 C   0  0  0  0  0  3  0  0  0  0  0  0
   37.4780   29.6000   41.8680 C   0  0  0  0  0  0  0  0  0  0  0  0
   38.5200   30.5220   41.8960 C   0  0  0  0  0  0  0  0  0  0  0  0
   39.3610   30.1910   42.5440 H   0  0  0  0  0  0  0  0  0  0  0  0
   38.6400   31.7230   41.2640 C   0  0  0  0  0  0  0  0  0  0  0  0
   39.5770   32.6750   41.2180 N   0  0  0  0  0  0  0  0  0  0  0  0
   39.0180   33.5980   40.3800 C   0  0  0  0  0  0  0  0  0  0  0  0
   39.5360   34.5310   40.1180 H   0  0  0  0  0  0  0  0  0  0  0  0
   37.7940   33.1960   39.9500 N   0  0  0  0  0  0  0  0  0  0  0  0
   37.5350   31.9990   40.5050 C   0  0  0  0  0  0  0  0  0  0  0  0
   36.4690   31.1520   40.4210 C   0  0  0  0  0  3  0  0  0  0  0  0
   40.4890   32.6860   41.7050 H   0  0  0  0  0  0  0  0  0  0  0  0
   39.4510   25.5480   41.5340 O   0  0  0  0  0  0  0  0  0  0  0  0
   39.8810   25.2670   42.8220 C   0  0  0  0  0  0  0  0  0  0  0  0
   39.9600   26.4000   43.6150 F   0  0  0  0  0  0  0  0  0  0  0  0
   39.1140   24.2920   43.3770 F   0  0  0  0  0  0  0  0  0  0  0  0
   41.1800   24.7860   42.7010 F   0  0  0  0  0  0  0  0  0  0  0  0
  2  1  2  6  0  0  0
  2 28  1  0  0  0  0
  2  3  1  0  0  0  0
  2 13  1  0  0  0  0
  4  5  1  0  0  0  0
  5 11  1  0  0  0  0
  5  6  2  0  0  0  0
  6  3  1  0  0  0  0
  7  6  1  0  0  0  0
  8  7  2  0  0  0  0
  9  4  2  0  0  0  0
  9  8  1  0  0  0  0
 10  4  1  0  0  0  0
 12  8  1  0  0  0  0
 13 14  1  0  0  0  0
 14 15  2  0  0  0  0
 16 17  1  0  0  0  0
 17 18  2  0  0  0  0
 17 14  1  0  0  0  0
 18 19  1  0  0  0  0
 20 18  1  0  0  0  0
 21 20  1  0  0  0  0
 21 27  1  0  0  0  0
 22 21  1  0  0  0  0
 23 22  1  0  0  0  0
 24 22  2  0  0  0  0
 24 25  1  0  0  0  0
 25 20  2  0  0  0  0
 26 25  1  0  0  0  0
 26 16  2  0  0  0  0
 28 29  1  0  0  0  0
 29 31  1  0  0  0  0
 29 30  1  0  0  0  0
 32 29  1  0  0  0  0
M  END
>  <minimizedAffinity>
-5.27702284

$$$$

 OpenBabel03242519433D

 32 34  0  0  0  0  0  0  0  0999 V2000
   40.1180   30.3500   40.1800 O   0  0  0  0  0  0  0  0  0  0  0  0
   39.7090   31.4680   41.1770 P   0  0  2  0  0  0  0  0  0  0  0  0
   39.4980   30.7590   42.7250 O   0  0  0  0  0  0  0  0  0  0  0  0
   37.0010   28.1060   42.6220 C   0  0  0  0  0  0  0  0  0  0  0  0
   37.5810   29.3920   42.5550 C   0  0  0  0  0  0  0  0  0  0  0  0
   38.9600   29.4900   42.7930 C   0  0  0  0  0  0  0  0  0  0  0  0
   39.6480   28.3660   43.0670 N   0  0  0  0  0  0  0  0  0  0  0  0
   39.0590   27.1500   43.1220 C   0  0  0  0  0  0  0  0  0  0  0  0
   37.7460   27.0080   42.9030 N   0  0  0  0  0  0  0  0  0  0  0  0
   35.9420   28.0580   42.4360 H   0  0  0  0  0  0  0  0  0  0  0  0
   36.9600   30.2290   42.3320 H   0  0  0  0  0  0  0  0  0  0  0  0
   39.7110   26.3000   43.3520 H   0  0  0  0  0  0  0  0  0  0  0  0
   38.2710   32.1530   40.7120 O   0  0  0  0  0  0  0  0  0  0  0  0
   37.5200   31.9120   39.5980 C   0  0  0  0  0  0  0  0  0  0  0  0
   37.0280   32.9990   38.9410 O   0  0  0  0  0  0  0  0  0  0  0  0
   35.9960   30.0400   39.1380 C   0  0  0  0  0  3  0  0  0  0  0  0
   36.9440   30.8820   38.6700 C   0  0  0  0  0  0  0  0  0  0  0  0
   37.2880   30.7400   37.3290 C   0  0  0  0  0  0  0  0  0  0  0  0
   38.0720   31.4620   37.0150 H   0  0  0  0  0  0  0  0  0  0  0  0
   36.8120   29.8730   36.3930 C   0  0  0  0  0  0  0  0  0  0  0  0
   37.0620   29.6490   35.1000 N   0  0  0  0  0  0  0  0  0  0  0  0
   36.2090   28.6230   34.8070 C   0  0  0  0  0  0  0  0  0  0  0  0
   36.1560   28.1830   33.8010 H   0  0  0  0  0  0  0  0  0  0  0  0
   35.4850   28.2590   35.8960 N   0  0  0  0  0  0  0  0  0  0  0  0
   35.8550   29.0470   36.9210 C   0  0  0  0  0  0  0  0  0  0  0  0
   35.4590   29.1170   38.2240 C   0  0  0  0  0  3  0  0  0  0  0  0
   37.7380   30.1450   34.4940 H   0  0  0  0  0  0  0  0  0  0  0  0
   40.9810   32.5280   41.2440 O   0  0  0  0  0  0  0  0  0  0  0  0
   40.8440   33.5810   40.3510 C   0  0  0  0  0  0  0  0  0  0  0  0
   40.5660   33.1530   39.0630 F   0  0  0  0  0  0  0  0  0  0  0  0
   39.9340   34.4780   40.8130 F   0  0  0  0  0  0  0  0  0  0  0  0
   42.0850   34.2050   40.2950 F   0  0  0  0  0  0  0  0  0  0  0  0
  2  1  2  6  0  0  0
  2 28  1  0  0  0  0
  2  3  1  0  0  0  0
  3  6  1  0  0  0  0
  4  9  1  0  0  0  0
  5  4  2  0  0  0  0
  5  6  1  0  0  0  0
  6  7  2  0  0  0  0
  7  8  1  0  0  0  0
  8 12  1  0  0  0  0
  9  8  2  0  0  0  0
 10  4  1  0  0  0  0
 11  5  1  0  0  0  0
 13  2  1  0  0  0  0
 14 13  1  0  0  0  0
 15 14  2  0  0  0  0
 17 16  1  0  0  0  0
 17 14  1  0  0  0  0
 18 17  2  0  0  0  0
 19 18  1  0  0  0  0
 20 25  2  0  0  0  0
 20 18  1  0  0  0  0
 21 20  1  0  0  0  0
 22 21  1  0  0  0  0
 22 24  2  0  0  0  0
 23 22  1  0  0  0  0
 24 25  1  0  0  0  0
 25 26  1  0  0  0  0
 26 16  2  0  0  0  0
 27 21  1  0  0  0  0
 29 31  1  0  0  0  0
 29 28  1  0  0  0  0
 30 29  1  0  0  0  0
 32 29  1  0  0  0  0
M  END
>  <minimizedAffinity>
-5.26996136

$$$$

 OpenBabel03242519433D

 32 34  0  0  0  0  0  0  0  0999 V2000
   37.4230   28.8170   43.6500 O   0  0  0  0  0  0  0  0  0  0  0  0
   37.1660   28.0020   42.3550 P   0  0  2  0  0  0  0  0  0  0  0  0
   38.4940   28.2370   41.2950 O   0  0  0  0  0  0  0  0  0  0  0  0
   40.1070   31.5010   41.4540 C   0  0  0  0  0  0  0  0  0  0  0  0
   39.1690   30.4930   41.1390 C   0  0  0  0  0  0  0  0  0  0  0  0
   39.4260   29.2010   41.6220 C   0  0  0  0  0  0  0  0  0  0  0  0
   40.5370   28.9950   42.3510 N   0  0  0  0  0  0  0  0  0  0  0  0
   41.4140   29.9850   42.6340 C   0  0  0  0  0  0  0  0  0  0  0  0
   41.2110   31.2330   42.1940 N   0  0  0  0  0  0  0  0  0  0  0  0
   39.8880   32.4830   41.0720 H   0  0  0  0  0  0  0  0  0  0  0  0
   38.3150   30.7460   40.5550 H   0  0  0  0  0  0  0  0  0  0  0  0
   42.2870   29.7090   43.2360 H   0  0  0  0  0  0  0  0  0  0  0  0
   35.7900   28.5430   41.6010 O   0  0  0  0  0  0  0  0  0  0  0  0
   35.6610   29.2280   40.4280 C   0  0  0  0  0  0  0  0  0  0  0  0
   35.7710   30.5840   40.4910 O   0  0  0  0  0  0  0  0  0  0  0  0
   34.2150   28.8140   38.4840 C   0  0  0  0  0  3  0  0  0  0  0  0
   35.4410   29.1480   38.9450 C   0  0  0  0  0  0  0  0  0  0  0  0
   36.4050   29.4300   37.9820 C   0  0  0  0  0  0  0  0  0  0  0  0
   37.3870   29.6960   38.4320 H   0  0  0  0  0  0  0  0  0  0  0  0
   36.3110   29.4230   36.6240 C   0  0  0  0  0  0  0  0  0  0  0  0
   37.1540   29.6720   35.6180 N   0  0  0  0  0  0  0  0  0  0  0  0
   36.3700   29.4710   34.5180 C   0  0  0  0  0  0  0  0  0  0  0  0
   36.7600   29.5940   33.4980 H   0  0  0  0  0  0  0  0  0  0  0  0
   35.1090   29.1150   34.8710 N   0  0  0  0  0  0  0  0  0  0  0  0
   35.0500   29.0790   36.2140 C   0  0  0  0  0  0  0  0  0  0  0  0
   34.0460   28.7870   37.0890 C   0  0  0  0  0  3  0  0  0  0  0  0
   38.1490   29.9480   35.6840 H   0  0  0  0  0  0  0  0  0  0  0  0
   37.1160   26.4070   42.8040 O   0  0  0  0  0  0  0  0  0  0  0  0
   37.2280   25.5460   41.7220 C   0  0  0  0  0  0  0  0  0  0  0  0
   36.5840   26.0240   40.5930 F   0  0  0  0  0  0  0  0  0  0  0  0
   38.5320   25.2410   41.4920 F   0  0  0  0  0  0  0  0  0  0  0  0
   36.5630   24.3800   42.0850 F   0  0  0  0  0  0  0  0  0  0  0  0
  2 28  1  0  0  0  0
  2  1  2  1  0  0  0
  3  6  1  0  0  0  0
  3  2  1  0  0  0  0
  4  9  1  0  0  0  0
  5  4  2  0  0  0  0
  5  6  1  0  0  0  0
  6  7  2  0  0  0  0
  7  8  1  0  0  0  0
  8 12  1  0  0  0  0
  9  8  2  0  0  0  0
 10  4  1  0  0  0  0
 11  5  1  0  0  0  0
 13  2  1  0  0  0  0
 14 15  2  0  0  0  0
 14 13  1  0  0  0  0
 16 17  1  0  0  0  0
 17 14  1  0  0  0  0
 18 19  1  0  0  0  0
 18 17  2  0  0  0  0
 20 18  1  0  0  0  0
 21 27  1  0  0  0  0
 21 20  1  0  0  0  0
 22 24  2  0  0  0  0
 22 21  1  0  0  0  0
 23 22  1  0  0  0  0
 24 25  1  0  0  0  0
 25 20  2  0  0  0  0
 25 26  1  0  0  0  0
 26 16  2  0  0  0  0
 29 32  1  0  0  0  0
 29 28  1  0  0  0  0
 30 29  1  0  0  0  0
 31 29  1  0  0  0  0
M  END
>  <minimizedAffinity>
-5.24573565

$$$$
