
 OpenBabel03252508003D

 32 35  0  0  1  0  0  0  0  0999 V2000
   46.6590   34.7770   43.1570 C   0  0  0  0  0  0  0  0  0  0  0  0
   45.5770   35.6910   43.3260 C   0  0  0  0  0  0  0  0  0  0  0  0
   44.7080   35.4780   44.4040 C   0  0  0  0  0  0  0  0  0  0  0  0
   44.9520   34.4200   45.2130 N   0  0  0  0  0  0  0  0  0  0  0  0
   46.0130   33.5760   44.9940 C   0  0  0  0  0  0  0  0  0  0  0  0
   46.8600   33.7370   43.9890 N   0  0  0  0  0  0  0  0  0  0  0  0
   45.4310   36.5200   42.6470 H   0  0  0  0  0  0  0  0  0  0  0  0
   43.8770   36.1420   44.5710 H   0  0  0  0  0  0  0  0  0  0  0  0
   46.2300   32.4350   45.9400 C   0  0  1  0  0  0  0  0  0  0  0  0
   46.9840   32.6840   47.2270 C   0  0  0  0  0  0  0  0  0  0  0  0
   45.4870   32.5460   47.2110 C   0  0  1  0  0  0  0  0  0  0  0  0
   46.4020   31.4350   45.4980 H   0  0  0  0  0  0  0  0  0  0  0  0
   47.4570   33.6980   47.2590 H   0  0  0  0  0  0  0  0  0  0  0  0
   47.6110   31.8770   47.6120 H   0  0  0  0  0  0  0  0  0  0  0  0
   45.0760   31.6880   47.7490 H   0  0  0  0  0  0  0  0  0  0  0  0
   44.8210   33.8090   47.5490 N   0  0  0  0  0  0  0  0  0  0  0  0
   45.1860   34.0970   48.5070 H   0  0  0  0  0  0  0  0  0  0  0  0
   43.8050   33.6710   47.6800 H   0  0  0  0  0  0  0  0  0  0  0  0
   47.5070   35.0660   42.0410 C   0  0  0  0  0  0  0  0  0  0  0  0
   48.4910   35.8830   42.0900 O   0  0  0  0  0  0  0  0  0  0  0  0
   46.2590   33.7140   40.3570 C   0  0  0  0  0  3  0  0  0  0  0  0
   47.3570   34.4710   40.7170 C   0  0  0  0  0  0  0  0  0  0  0  0
   48.3270   34.6410   39.7410 C   0  0  0  0  0  0  0  0  0  0  0  0
   49.2040   35.2110   39.9380 H   0  0  0  0  0  0  0  0  0  0  0  0
   48.1990   34.0790   38.4680 C   0  0  0  0  0  0  0  0  0  0  0  0
   48.9770   34.0890   37.3580 N   0  0  0  0  0  0  0  0  0  0  0  0
   48.3870   33.3800   36.3790 C   0  0  0  0  0  0  0  0  0  0  0  0
   48.7030   33.1660   35.3650 H   0  0  0  0  0  0  0  0  0  0  0  0
   47.2070   32.9070   36.8750 N   0  0  0  0  0  0  0  0  0  0  0  0
   47.0840   33.3260   38.1460 C   0  0  0  0  0  0  0  0  0  0  0  0
   46.0950   33.1420   39.1120 C   0  0  0  0  0  3  0  0  0  0  0  0
   49.9020   34.5750   37.2680 H   0  0  0  0  0  0  0  0  0  0  0  0
  1  2  2  0  0  0  0
  1  6  1  0  0  0  0
  2  3  1  0  0  0  0
  3  8  1  0  0  0  0
  3  4  2  0  0  0  0
  5  4  1  0  0  0  0
  5  9  1  0  0  0  0
  6  5  2  0  0  0  0
  7  2  1  0  0  0  0
  9 12  1  6  0  0  0
  9 11  1  0  0  0  0
  9 10  1  0  0  0  0
 10 13  1  0  0  0  0
 10 14  1  0  0  0  0
 11 10  1  0  0  0  0
 11 16  1  0  0  0  0
 11 15  1  1  0  0  0
 16 18  1  0  0  0  0
 16 17  1  0  0  0  0
 19 20  2  0  0  0  0
 19  1  1  0  0  0  0
 21 22  1  0  0  0  0
 22 19  1  0  0  0  0
 23 24  1  0  0  0  0
 23 22  2  0  0  0  0
 25 23  1  0  0  0  0
 26 25  1  0  0  0  0
 27 29  2  0  0  0  0
 27 26  1  0  0  0  0
 28 27  1  0  0  0  0
 29 30  1  0  0  0  0
 30 25  2  0  0  0  0
 30 31  1  0  0  0  0
 31 21  2  0  0  0  0
 32 26  1  0  0  0  0
M  END
>  <minimizedAffinity>
-6.55468702

>  <minimizedRMSD>
1.64282024

$$$$
