
     RDKit          3D

 35 38  0  0  0  0  0  0  0  0999 V2000
   44.5758   33.1156   41.2083 Br  0  0  0  0  0  0  0  0  0  0  0  0
   46.2566   33.9871   41.0164 C   0  0  0  0  0  0  0  0  0  0  0  0
   46.7984   34.7601   42.0169 C   0  0  0  0  0  0  0  0  0  0  0  0
   48.0281   35.3752   41.7778 C   0  0  0  0  0  0  0  0  0  0  0  0
   48.7039   35.2306   40.5845 C   0  0  0  0  0  0  0  0  0  0  0  0
   48.1577   34.4458   39.5663 C   0  0  0  0  0  0  0  0  0  0  0  0
   46.9413   33.8537   39.8394 C   0  0  0  0  0  0  0  0  0  0  0  0
   44.4941   35.9574   44.7604 C   0  0  0  0  0  0  0  0  0  0  0  0
   45.1784   35.8975   43.5314 C   0  0  0  0  0  0  0  0  0  0  0  0
   46.0605   34.8779   43.2687 C   0  0  0  0  0  0  0  0  0  0  0  0
   46.2017   33.9639   44.2793 N   0  0  0  0  0  0  0  0  0  0  0  0
   45.5512   34.0259   45.4405 C   0  0  0  0  0  0  0  0  0  0  0  0
   44.7071   35.0123   45.6770 N   0  0  0  0  0  0  0  0  0  0  0  0
   46.4151   33.0241   38.7825 C   0  0  0  0  0  0  0  0  0  0  0  0
   46.4900   33.3830   37.5466 O   0  0  0  0  0  0  0  0  0  0  0  0
   48.3847   35.9637   42.6112 H   0  0  0  0  0  0  0  0  0  0  0  0
   49.6636   35.7403   40.4621 H   0  0  0  0  0  0  0  0  0  0  0  0
   48.6785   34.3250   38.6266 H   0  0  0  0  0  0  0  0  0  0  0  0
   43.8301   36.7886   44.8692 H   0  0  0  0  0  0  0  0  0  0  0  0
   45.0405   36.6313   42.7673 H   0  0  0  0  0  0  0  0  0  0  0  0
   45.8224   33.1979   46.0811 H   0  0  0  0  0  0  0  0  0  0  0  0
   46.4325   30.5376   38.8159 C   0  0  0  0  0  0  0  0  0  0  0  0
   45.7498   31.7286   38.8506 C   0  0  0  0  0  0  0  0  0  0  0  0
   44.3719   31.6088   38.9723 C   0  0  0  0  0  0  0  0  0  0  0  0
   43.7310   32.5032   39.0172 H   0  0  0  0  0  0  0  0  0  0  0  0
   43.6777   30.4222   39.0562 C   0  0  0  0  0  0  0  0  0  0  0  0
   42.3800   30.1022   39.1747 N   0  0  0  0  0  0  0  0  0  0  0  0
   42.2970   28.7662   39.2087 C   0  0  0  0  0  0  0  0  0  0  0  0
   41.3251   28.2776   39.3025 H   0  0  0  0  0  0  0  0  0  0  0  0
   43.5242   28.2338   39.1135 N   0  0  0  0  0  0  0  0  0  0  0  0
   44.3960   29.2464   39.0178 C   0  0  0  0  0  0  0  0  0  0  0  0
   45.7474   29.3240   38.8996 C   0  0  0  0  0  0  0  0  0  0  0  0
   47.5238   30.5659   38.7212 H   0  0  0  0  0  0  0  0  0  0  0  0
   41.5915   30.7992   39.2287 H   0  0  0  0  0  0  0  0  0  0  0  0
   46.2900   28.3773   38.8720 H   0  0  0  0  0  0  0  0  0  0  0  0
  2  1  1  0
  2  3  2  0
  3 10  1  0
  4  3  1  0
  5  4  2  0
  6  7  2  0
  6  5  1  0
  7  2  1  0
  8 13  2  0
  9  8  1  0
 10  9  2  0
 10 11  1  0
 11 12  2  0
 12 13  1  0
 14  7  1  0
 15 14  2  0
  4 16  1  0
  5 17  1  0
  6 18  1  0
  8 19  1  0
  9 20  1  0
 12 21  1  0
 22 23  2  0
 23 24  1  0
 24 25  1  0
 24 26  2  0
 26 27  1  0
 27 28  1  0
 28 29  1  0
 28 30  2  0
 30 31  1  0
 31 32  2  0
 32 22  1  0
 31 26  1  0
 22 33  1  0
 27 34  1  0
 32 35  1  0
 14 23  1  0
M  ISO  8  16  14  17  14  18  14  19  14  20  14  21  14  25  15  29  14
M  END
>  <DihAtoms>  (1) 
6,13,22,21

>  <DihDeg>  (1) 
151.1653931149926

$$$$
