
 OpenBabel03242517003D

 35 38  0  0  0  0  0  0  0  0999 V2000
   46.7150   34.7720   41.9840 C   0  0  0  0  0  0  0  0  0  0  0  0
   47.9590   35.4010   41.9050 C   0  0  0  0  0  0  0  0  0  0  0  0
   48.6990   35.2690   40.7440 C   0  0  0  0  0  0  0  0  0  0  0  0
   48.1960   34.5230   39.6970 C   0  0  0  0  0  0  0  0  0  0  0  0
   46.9890   33.8960   39.7360 C   0  0  0  0  0  0  0  0  0  0  0  0
   46.2600   34.0490   40.9300 C   0  0  0  0  0  0  0  0  0  0  0  0
   48.3350   35.9830   42.7420 H   0  0  0  0  0  0  0  0  0  0  0  0
   49.6540   35.7780   40.7440 H   0  0  0  0  0  0  0  0  0  0  0  0
   48.7920   34.4320   38.7970 H   0  0  0  0  0  0  0  0  0  0  0  0
   46.5830   33.3090   38.9220 H   0  0  0  0  0  0  0  0  0  0  0  0
   44.5050   36.0530   44.7660 C   0  0  0  0  0  0  0  0  0  0  0  0
   45.1610   36.0100   43.5060 C   0  0  0  0  0  0  0  0  0  0  0  0
   45.9820   34.9460   43.2290 C   0  0  0  0  0  0  0  0  0  0  0  0
   46.1230   33.9780   44.1940 N   0  0  0  0  0  0  0  0  0  0  0  0
   45.4980   34.0270   45.3870 C   0  0  0  0  0  0  0  0  0  0  0  0
   44.6750   35.0850   45.6740 N   0  0  0  0  0  0  0  0  0  0  0  0
   43.8620   36.9020   44.9620 H   0  0  0  0  0  0  0  0  0  0  0  0
   45.0400   36.7800   42.7560 H   0  0  0  0  0  0  0  0  0  0  0  0
   45.6970   33.1970   46.0570 H   0  0  0  0  0  0  0  0  0  0  0  0
   43.6520   33.7800   40.7920 C   0  0  0  0  0  0  0  0  0  0  0  0
   43.2880   34.8070   40.1750 O   0  0  0  0  0  0  0  0  0  0  0  0
   44.9920   33.4460   41.1030 N   0  0  0  0  0  0  0  0  0  0  0  0
   45.2830   32.5620   41.5800 H   0  0  0  0  0  0  0  0  0  0  0  0
   41.3350   33.0700   40.6790 C   0  0  0  0  0  3  0  0  0  0  0  0
   42.5900   32.8760   41.2130 C   0  0  0  0  0  0  0  0  0  0  0  0
   42.7020   31.8310   42.1040 C   0  0  0  0  0  0  0  0  0  0  0  0
   43.6710   31.6560   42.5370 H   0  0  0  0  0  0  0  0  0  0  0  0
   41.6570   31.0150   42.4590 C   0  0  0  0  0  0  0  0  0  0  0  0
   41.5520   29.9630   43.2890 N   0  0  0  0  0  0  0  0  0  0  0  0
   40.2720   29.5190   43.2690 C   0  0  0  0  0  0  0  0  0  0  0  0
   39.7880   28.7170   43.7810 H   0  0  0  0  0  0  0  0  0  0  0  0
   39.5540   30.2950   42.4180 N   0  0  0  0  0  0  0  0  0  0  0  0
   40.4040   31.2120   41.9220 C   0  0  0  0  0  0  0  0  0  0  0  0
   40.2520   32.2500   41.0260 C   0  0  0  0  0  3  0  0  0  0  0  0
   42.2920   29.5250   43.8690 H   0  0  0  0  0  0  0  0  0  0  0  0
  1 13  1  0  0  0  0
  2  1  1  0  0  0  0
  2  7  1  0  0  0  0
  3  8  1  0  0  0  0
  3  2  2  0  0  0  0
  4  5  2  0  0  0  0
  4  3  1  0  0  0  0
  5  6  1  0  0  0  0
  6 22  1  0  0  0  0
  6  1  2  0  0  0  0
  9  4  1  0  0  0  0
 10  5  1  0  0  0  0
 11 17  1  0  0  0  0
 11 16  1  0  0  0  0
 12 11  2  0  0  0  0
 13 12  1  0  0  0  0
 13 14  2  0  0  0  0
 14 15  1  0  0  0  0
 15 16  2  0  0  0  0
 15 19  1  0  0  0  0
 18 12  1  0  0  0  0
 20 22  1  0  0  0  0
 20 25  1  0  0  0  0
 21 20  2  0  0  0  0
 22 23  1  0  0  0  0
 24 34  2  0  0  0  0
 24 25  1  0  0  0  0
 25 26  2  0  0  0  0
 26 28  1  0  0  0  0
 26 27  1  0  0  0  0
 28 29  1  0  0  0  0
 29 35  1  0  0  0  0
 30 29  1  0  0  0  0
 30 31  1  0  0  0  0
 32 30  2  0  0  0  0
 33 32  1  0  0  0  0
 33 28  2  0  0  0  0
 34 33  1  0  0  0  0
M  END
>  <minimizedAffinity>
-6.74649191

>  <minimizedRMSD>
0.739002883

$$$$
