REMARK  Name = 
REMARK  3 active torsions:
REMARK  status: ('A' for Active; 'I' for Inactive)
REMARK    1  A    between atoms: C_1  and  C_9
REMARK    2  A    between atoms: C_6  and  N_15
REMARK    3  A    between atoms: C_13  and  C_25
REMARK                            x       y       z     vdW  Elec       q    Type
REMARK                         _______ _______ _______ _____ _____    ______ ____
ROOT
ATOM      1  C   UNL     1      46.677  34.763  41.978  0.00  0.00    +0.000 A 
ATOM      2  C   UNL     1      47.936  35.360  41.893  0.00  0.00    +0.000 A 
ATOM      3  C   UNL     1      48.671  35.203  40.732  0.00  0.00    +0.000 A 
ATOM      4  C   UNL     1      48.148  34.464  39.690  0.00  0.00    +0.000 A 
ATOM      5  C   UNL     1      46.925  33.867  39.734  0.00  0.00    +0.000 A 
ATOM      6  C   UNL     1      46.202  34.045  40.928  0.00  0.00    +0.000 A 
ATOM      7  H   UNL     1      48.328  35.937  42.727  0.00  0.00    +0.000 HD
ATOM      8  H   UNL     1      49.638  35.688  40.728  0.00  0.00    +0.000 HD
ATOM      9  H   UNL     1      48.740  34.353  38.790  0.00  0.00    +0.000 HD
ATOM     10  H   UNL     1      46.504  33.286  38.924  0.00  0.00    +0.000 HD
ENDROOT
BRANCH   1  13
ATOM     11  C   UNL     1      44.508  36.117  44.757  0.00  0.00    +0.000 A 
ATOM     12  C   UNL     1      45.161  36.050  43.497  0.00  0.00    +0.000 A 
ATOM     13  C   UNL     1      45.950  34.962  43.223  0.00  0.00    +0.000 A 
ATOM     14  N   UNL     1      46.064  33.993  44.191  0.00  0.00    +0.000 NA
ATOM     15  C   UNL     1      45.441  34.064  45.384  0.00  0.00    +0.000 A 
ATOM     16  N   UNL     1      44.650  35.147  45.668  0.00  0.00    +0.000 NA
ATOM     17  H   UNL     1      43.890  36.985  44.951  0.00  0.00    +0.000 HD
ATOM     18  H   UNL     1      45.062  36.821  42.745  0.00  0.00    +0.000 HD
ATOM     19  H   UNL     1      45.616  33.231  46.056  0.00  0.00    +0.000 HD
ENDBRANCH   1  13
BRANCH   6  22
ATOM     20  C   UNL     1      43.587  33.848  40.810  0.00  0.00    +0.000 C 
ATOM     21  O   UNL     1      43.246  34.890  40.205  0.00  0.00    +0.000 OA
ATOM     22  N   UNL     1      44.920  33.475  41.107  0.00  0.00    +0.000 N 
ATOM     23  H   UNL     1      45.191  32.579  41.573  0.00  0.00    +0.000 HD
BRANCH  20  25
ATOM     24  C   UNL     1      42.097  31.988  40.355  0.00  0.00    +0.000 A 
ATOM     25  C   UNL     1      42.504  32.969  41.232  0.00  0.00    +0.000 A 
ATOM     26  C   UNL     1      41.828  33.012  42.431  0.00  0.00    +0.000 A 
ATOM     27  H   UNL     1      42.124  33.770  43.137  0.00  0.00    +0.000 HD
ATOM     28  C   UNL     1      40.812  32.152  42.767  0.00  0.00    +0.000 A 
ATOM     29  N   UNL     1      40.039  32.023  43.858  0.00  0.00    +0.000 N 
ATOM     30  C   UNL     1      39.180  30.993  43.662  0.00  0.00    +0.000 A 
ATOM     31  H   UNL     1      38.416  30.576  44.280  0.00  0.00    +0.000 HD
ATOM     32  N   UNL     1      39.408  30.460  42.436  0.00  0.00    +0.000 NA
ATOM     33  C   UNL     1      40.410  31.172  41.887  0.00  0.00    +0.000 A 
ATOM     34  C   UNL     1      41.063  31.097  40.674  0.00  0.00    +0.000 A 
ATOM     35  H   UNL     1      40.054  32.588  44.728  0.00  0.00    +0.000 HD
ENDBRANCH  20  25
ENDBRANCH   6  22
TORSDOF 3
