
     RDKit          3D

 29 31  0  0  0  0  0  0  0  0999 V2000
   45.3100   34.5598   45.0314 C   0  0  0  0  0  0  0  0  0  0  0  0
   45.2684   33.9377   46.2656 C   0  0  0  0  0  0  0  0  0  0  0  0
   46.1616   32.9066   46.4741 C   0  0  0  0  0  0  0  0  0  0  0  0
   46.9991   32.5831   45.4754 N   0  0  0  0  0  0  0  0  0  0  0  0
   47.0195   33.2016   44.2884 C   0  0  0  0  0  0  0  0  0  0  0  0
   46.1568   34.2191   44.0469 N   0  0  0  0  0  0  0  0  0  0  0  0
   43.9682   35.3812   43.2990 C   0  0  0  0  0  0  0  0  0  0  0  0
   44.4052   34.2779   42.8344 O   0  0  0  0  0  0  0  0  0  0  0  0
   44.4578   35.6566   44.6219 N   0  0  0  0  0  0  0  0  0  0  0  0
   44.3075   34.4274   47.1918 N   0  0  0  0  0  0  0  0  0  0  0  0
   46.1176   32.4294   47.4439 H   0  0  0  0  0  0  0  0  0  0  0  0
   47.7499   32.8326   43.5786 H   0  0  0  0  0  0  0  0  0  0  0  0
   44.1822   36.5116   45.0901 H   0  0  0  0  0  0  0  0  0  0  0  0
   43.5779   33.9216   47.7326 H   0  0  0  0  0  0  0  0  0  0  0  0
   44.3510   35.4720   47.3474 H   0  0  0  0  0  0  0  0  0  0  0  0
   43.6295   37.3766   42.0218 C   0  0  0  0  0  0  0  0  0  0  0  0
   43.0844   36.2372   42.5614 C   0  0  0  0  0  0  0  0  0  0  0  0
   41.7598   35.8792   42.4347 C   0  0  0  0  0  0  0  0  0  0  0  0
   41.3030   35.0078   42.8371 H   0  0  0  0  0  0  0  0  0  0  0  0
   40.9837   36.7800   41.6980 C   0  0  0  0  0  0  0  0  0  0  0  0
   39.6552   36.7217   41.3915 N   0  0  0  0  0  0  0  0  0  0  0  0
   39.3080   37.7934   40.6631 C   0  0  0  0  0  0  0  0  0  0  0  0
   38.3050   37.9897   40.2883 H   0  0  0  0  0  0  0  0  0  0  0  0
   40.4247   38.5327   40.5090 N   0  0  0  0  0  0  0  0  0  0  0  0
   41.4651   37.9582   41.1189 C   0  0  0  0  0  0  0  0  0  0  0  0
   42.8191   38.2464   41.2949 C   0  0  0  0  0  0  0  0  0  0  0  0
   44.6592   37.6775   42.1069 H   0  0  0  0  0  0  0  0  0  0  0  0
   39.0027   35.9497   41.6844 H   0  0  0  0  0  0  0  0  0  0  0  0
   43.1555   39.1553   40.8391 H   0  0  0  0  0  0  0  0  0  0  0  0
  1  2  2  0
  2  3  1  0
  2 10  1  0
  4  3  2  0
  5  4  1  0
  6  5  2  0
  6  1  1  0
  7  9  1  0
  8  7  2  0
  9  1  1  0
  3 11  1  0
  5 12  1  0
  9 13  1  0
 10 14  1  0
 10 15  1  0
 16 17  2  0
 17 18  1  0
 18 19  1  0
 18 20  2  0
 20 21  1  0
 21 22  1  0
 22 23  1  0
 22 24  2  0
 24 25  1  0
 25 26  2  0
 26 16  1  0
 25 20  1  0
 16 27  1  0
 21 28  1  0
 26 29  1  0
  7 17  1  0
M  ISO  4  11  14  12  14  19  15  23  14
M  END
>  <DihAtoms>  (1) 
8,6,16,15

>  <DihDeg>  (1) 
179.9915519612206

$$$$
