
     RDKit          3D

 37 40  0  0  0  0  0  0  0  0999 V2000
   46.6769   34.7631   41.9778 C   0  0  0  0  0  0  0  0  0  0  0  0
   47.9360   35.3599   41.8934 C   0  0  0  0  0  0  0  0  0  0  0  0
   48.6713   35.2025   40.7323 C   0  0  0  0  0  0  0  0  0  0  0  0
   48.1484   34.4643   39.6897 C   0  0  0  0  0  0  0  0  0  0  0  0
   46.9254   33.8674   39.7337 C   0  0  0  0  0  0  0  0  0  0  0  0
   46.2018   34.0454   40.9275 C   0  0  0  0  0  0  0  0  0  0  0  0
   44.5081   36.1167   44.7568 C   0  0  0  0  0  0  0  0  0  0  0  0
   45.1612   36.0501   43.4969 C   0  0  0  0  0  0  0  0  0  0  0  0
   45.9504   34.9622   43.2234 C   0  0  0  0  0  0  0  0  0  0  0  0
   46.0638   33.9934   44.1912 N   0  0  0  0  0  0  0  0  0  0  0  0
   45.4408   34.0639   45.3841 C   0  0  0  0  0  0  0  0  0  0  0  0
   44.6498   35.1465   45.6683 N   0  0  0  0  0  0  0  0  0  0  0  0
   43.5870   33.8479   40.8105 C   0  0  0  0  0  0  0  0  0  0  0  0
   43.2456   34.8900   40.2048 O   0  0  0  0  0  0  0  0  0  0  0  0
   44.9204   33.4746   41.1066 N   0  0  0  0  0  0  0  0  0  0  0  0
   48.3281   35.9372   42.7271 H   0  0  0  0  0  0  0  0  0  0  0  0
   49.6378   35.6879   40.7279 H   0  0  0  0  0  0  0  0  0  0  0  0
   48.7397   34.3532   38.7899 H   0  0  0  0  0  0  0  0  0  0  0  0
   46.5041   33.2863   38.9236 H   0  0  0  0  0  0  0  0  0  0  0  0
   43.8900   36.9849   44.9512 H   0  0  0  0  0  0  0  0  0  0  0  0
   45.0624   36.8206   42.7449 H   0  0  0  0  0  0  0  0  0  0  0  0
   45.6164   33.2310   46.0557 H   0  0  0  0  0  0  0  0  0  0  0  0
   45.1912   32.5790   41.5732 H   0  0  0  0  0  0  0  0  0  0  0  0
   41.9569   33.1782   42.4784 C   0  0  0  0  0  0  0  0  0  0  0  0
   42.5035   32.9692   41.2317 C   0  0  0  0  0  0  0  0  0  0  0  0
   41.9552   31.9336   40.5083 C   0  0  0  0  0  0  0  0  0  0  0  0
   42.3625   31.7462   39.5293 H   0  0  0  0  0  0  0  0  0  0  0  0
   40.9318   31.1403   40.9645 C   0  0  0  0  0  0  0  0  0  0  0  0
   40.2657   30.1016   40.4334 N   0  0  0  0  0  0  0  0  0  0  0  0
   39.3351   29.6808   41.3250 C   0  0  0  0  0  0  0  0  0  0  0  0
   38.6149   28.8940   41.2840 H   0  0  0  0  0  0  0  0  0  0  0  0
   39.4086   30.4579   42.4340 N   0  0  0  0  0  0  0  0  0  0  0  0
   40.3888   31.3540   42.2127 C   0  0  0  0  0  0  0  0  0  0  0  0
   40.9119   32.3828   42.9680 C   0  0  0  0  0  0  0  0  0  0  0  0
   42.2831   33.9607   43.1728 H   0  0  0  0  0  0  0  0  0  0  0  0
   40.4000   29.6581   39.5053 H   0  0  0  0  0  0  0  0  0  0  0  0
   40.4973   32.5571   43.9387 H   0  0  0  0  0  0  0  0  0  0  0  0
  1  9  1  0
  2  1  2  0
  3  2  1  0
  4  5  1  0
  4  3  2  0
  5  6  2  0
  6 15  1  0
  6  1  1  0
  7 12  2  0
  8  7  1  0
  9  8  2  0
  9 10  1  0
 10 11  2  0
 11 12  1  0
 13 15  1  0
 14 13  2  0
  2 16  1  0
  3 17  1  0
  4 18  1  0
  5 19  1  0
  7 20  1  0
  8 21  1  0
 11 22  1  0
 15 23  1  0
 24 25  2  0
 25 26  1  0
 26 27  1  0
 26 28  2  0
 28 29  1  0
 29 30  1  0
 30 31  1  0
 30 32  2  0
 32 33  1  0
 33 34  2  0
 34 24  1  0
 33 28  1  0
 24 35  1  0
 29 36  1  0
 34 37  1  0
 13 25  1  0
M  ISO  8  16  14  17  14  18  14  19  14  20  14  21  14  22  14  27  15
M  ISO  1  31  14
M  END
>  <DihAtoms>  (1) 
14,12,24,23

>  <DihDeg>  (1) 
-179.94466142847435

$$$$
