
 OpenBabel03252508503D

 31 34  0  0  0  0  0  0  0  0999 V2000
   45.9560   34.2180   41.0380 C   0  0  0  0  0  0  0  0  0  0  0  0
   46.5460   34.8080   42.1520 C   0  0  0  0  0  0  0  0  0  0  0  0
   47.9070   35.1440   42.0360 C   0  0  0  0  0  0  0  0  0  0  0  0
   48.5430   34.8730   40.8580 N   0  0  0  0  0  0  0  0  0  0  0  0
   47.9300   34.3070   39.8240 C   0  0  0  0  0  0  0  0  0  0  0  0
   46.6320   33.9740   39.9030 N   0  0  0  0  0  0  0  0  0  0  0  0
   48.3770   35.6050   42.8990 H   0  0  0  0  0  0  0  0  0  0  0  0
   48.4750   34.1100   38.9070 H   0  0  0  0  0  0  0  0  0  0  0  0
   45.7670   35.0460   43.3470 C   0  0  0  0  0  0  0  0  0  0  0  0
   45.1010   36.2460   43.5820 C   0  0  0  0  0  0  0  0  0  0  0  0
   44.5040   36.0350   44.8080 C   0  0  0  0  0  0  0  0  0  0  0  0
   44.7860   34.7940   45.2870 N   0  0  0  0  0  0  0  0  0  0  0  0
   45.5510   34.2240   44.3800 N   0  0  0  0  0  0  0  0  0  0  0  0
   45.0310   37.1570   42.9860 H   0  0  0  0  0  0  0  0  0  0  0  0
   43.8800   36.7250   45.3710 H   0  0  0  0  0  0  0  0  0  0  0  0
   44.4850   34.3430   46.1760 H   0  0  0  0  0  0  0  0  0  0  0  0
   44.6170   33.8720   41.1120 O   0  0  0  0  0  0  0  0  0  0  0  0
   43.5550   34.5730   40.6190 C   0  0  0  0  0  0  0  0  0  0  0  0
   43.3110   35.8230   40.7580 O   0  0  0  0  0  0  0  0  0  0  0  0
   42.6740   32.9090   38.9550 C   0  0  0  0  0  3  0  0  0  0  0  0
   42.4630   33.9690   39.8050 C   0  0  0  0  0  0  0  0  0  0  0  0
   41.1600   34.4280   39.8380 C   0  0  0  0  0  0  0  0  0  0  0  0
   40.9340   35.2620   40.4910 H   0  0  0  0  0  0  0  0  0  0  0  0
   40.1010   33.9290   39.1190 C   0  0  0  0  0  0  0  0  0  0  0  0
   38.8000   34.2610   39.0450 N   0  0  0  0  0  0  0  0  0  0  0  0
   38.2370   33.4060   38.1560 C   0  0  0  0  0  0  0  0  0  0  0  0
   37.1750   33.5000   37.9440 H   0  0  0  0  0  0  0  0  0  0  0  0
   39.1840   32.5650   37.6970 N   0  0  0  0  0  0  0  0  0  0  0  0
   40.3680   32.8680   38.2840 C   0  0  0  0  0  0  0  0  0  0  0  0
   41.6390   32.3540   38.1930 C   0  0  0  0  0  3  0  0  0  0  0  0
   38.3490   35.0390   39.5860 H   0  0  0  0  0  0  0  0  0  0  0  0
  1 17  1  0  0  0  0
  1  2  1  0  0  0  0
  2  9  1  0  0  0  0
  3  2  2  0  0  0  0
  3  7  1  0  0  0  0
  4  3  1  0  0  0  0
  5  6  1  0  0  0  0
  5  4  2  0  0  0  0
  6  1  2  0  0  0  0
  8  5  1  0  0  0  0
  9 10  1  0  0  0  0
  9 13  2  0  0  0  0
 10 11  2  0  0  0  0
 11 12  1  0  0  0  0
 11 15  1  0  0  0  0
 12 16  1  0  0  0  0
 13 12  1  0  0  0  0
 14 10  1  0  0  0  0
 18 19  2  0  0  0  0
 18 17  1  0  0  0  0
 20 21  1  0  0  0  0
 21 22  2  0  0  0  0
 21 18  1  0  0  0  0
 22 23  1  0  0  0  0
 24 22  1  0  0  0  0
 25 24  1  0  0  0  0
 25 31  1  0  0  0  0
 26 25  1  0  0  0  0
 27 26  1  0  0  0  0
 28 26  2  0  0  0  0
 28 29  1  0  0  0  0
 29 24  2  0  0  0  0
 30 29  1  0  0  0  0
 30 20  2  0  0  0  0
M  END
>  <minimizedAffinity>
-5.95967388

>  <minimizedRMSD>
1.07825363

$$$$
