
 OpenBabel03252508503D

 31 34  0  0  0  0  0  0  0  0999 V2000
   46.0660   34.1680   41.0340 C   0  0  0  0  0  0  0  0  0  0  0  0
   46.6040   34.8370   42.1290 C   0  0  0  0  0  0  0  0  0  0  0  0
   47.9320   35.2810   42.0010 C   0  0  0  0  0  0  0  0  0  0  0  0
   48.5890   35.0290   40.8290 N   0  0  0  0  0  0  0  0  0  0  0  0
   48.0250   34.3840   39.8140 C   0  0  0  0  0  0  0  0  0  0  0  0
   46.7590   33.9480   39.9050 N   0  0  0  0  0  0  0  0  0  0  0  0
   48.3630   35.8040   42.8480 H   0  0  0  0  0  0  0  0  0  0  0  0
   48.5850   34.2060   38.9020 H   0  0  0  0  0  0  0  0  0  0  0  0
   45.8080   35.0450   43.3180 C   0  0  0  0  0  0  0  0  0  0  0  0
   45.0720   36.2070   43.5350 C   0  0  0  0  0  0  0  0  0  0  0  0
   44.4830   35.9780   44.7620 C   0  0  0  0  0  0  0  0  0  0  0  0
   44.8350   34.7610   45.2580 N   0  0  0  0  0  0  0  0  0  0  0  0
   45.6350   34.2250   44.3620 N   0  0  0  0  0  0  0  0  0  0  0  0
   44.9520   37.1050   42.9280 H   0  0  0  0  0  0  0  0  0  0  0  0
   43.8180   36.6370   45.3140 H   0  0  0  0  0  0  0  0  0  0  0  0
   44.5580   34.3050   46.1520 H   0  0  0  0  0  0  0  0  0  0  0  0
   44.7590   33.7150   41.1210 O   0  0  0  0  0  0  0  0  0  0  0  0
   43.6370   34.3390   40.6590 C   0  0  0  0  0  0  0  0  0  0  0  0
   43.4590   35.5950   40.4780 O   0  0  0  0  0  0  0  0  0  0  0  0
   42.2010   33.0780   39.0280 C   0  0  0  0  0  0  0  0  0  0  0  0
   42.3860   33.6270   40.2750 C   0  0  0  0  0  0  0  0  0  0  0  0
   41.3170   33.4690   41.1370 C   0  0  0  0  0  0  0  0  0  0  0  0
   41.4070   33.8810   42.1340 H   0  0  0  0  0  0  0  0  0  0  0  0
   40.1320   32.8320   40.8590 C   0  0  0  0  0  0  0  0  0  0  0  0
   39.0210   32.5990   41.5780 N   0  0  0  0  0  0  0  0  0  0  0  0
   38.1770   31.9160   40.7660 C   0  0  0  0  0  0  0  0  0  0  0  0
   37.2040   31.6230   41.1550 H   0  0  0  0  0  0  0  0  0  0  0  0
   38.7670   31.7350   39.5690 N   0  0  0  0  0  0  0  0  0  0  0  0
   40.0000   32.3000   39.5960 C   0  0  0  0  0  0  0  0  0  0  0  0
   41.0190   32.4160   38.6800 C   0  0  0  0  0  0  0  0  0  0  0  0
   38.8750   32.9050   42.5710 H   0  0  0  0  0  0  0  0  0  0  0  0
  1 17  1  0  0  0  0
  1  2  1  0  0  0  0
  2  9  1  0  0  0  0
  3  2  2  0  0  0  0
  3  7  1  0  0  0  0
  4  3  1  0  0  0  0
  5  6  1  0  0  0  0
  5  4  2  0  0  0  0
  6  1  2  0  0  0  0
  8  5  1  0  0  0  0
  9 10  1  0  0  0  0
  9 13  2  0  0  0  0
 10 11  2  0  0  0  0
 11 12  1  0  0  0  0
 11 15  1  0  0  0  0
 12 16  1  0  0  0  0
 13 12  1  0  0  0  0
 14 10  1  0  0  0  0
 18 17  1  0  0  0  0
 19 18  2  0  0  0  0
 20 21  1  0  0  0  0
 21 18  1  0  0  0  0
 21 22  2  0  0  0  0
 22 23  1  0  0  0  0
 24 22  1  0  0  0  0
 24 25  1  0  0  0  0
 25 31  1  0  0  0  0
 26 27  1  0  0  0  0
 26 25  1  0  0  0  0
 28 29  1  0  0  0  0
 28 26  2  0  0  0  0
 29 24  2  0  0  0  0
 30 20  2  0  0  0  0
 30 29  1  0  0  0  0
M  END
>  <minimizedAffinity>
-6.10180807

>  <minimizedRMSD>
1.25878882

$$$$
