
 OpenBabel03252508503D

 31 34  0  0  0  0  0  0  0  0999 V2000
   45.8780   34.2210   41.0180 C   0  0  0  0  0  0  0  0  0  0  0  0
   46.4920   34.7860   42.1320 C   0  0  0  0  0  0  0  0  0  0  0  0
   47.8630   35.0770   42.0110 C   0  0  0  0  0  0  0  0  0  0  0  0
   48.4840   34.7900   40.8290 N   0  0  0  0  0  0  0  0  0  0  0  0
   47.8480   34.2500   39.7950 C   0  0  0  0  0  0  0  0  0  0  0  0
   46.5400   33.9600   39.8780 N   0  0  0  0  0  0  0  0  0  0  0  0
   48.3520   35.5170   42.8740 H   0  0  0  0  0  0  0  0  0  0  0  0
   48.3820   34.0390   38.8750 H   0  0  0  0  0  0  0  0  0  0  0  0
   45.7270   35.0440   43.3310 C   0  0  0  0  0  0  0  0  0  0  0  0
   45.1120   36.2680   43.5800 C   0  0  0  0  0  0  0  0  0  0  0  0
   44.5090   36.0710   44.8060 C   0  0  0  0  0  0  0  0  0  0  0  0
   44.7410   34.8140   45.2710 N   0  0  0  0  0  0  0  0  0  0  0  0
   45.4790   34.2220   44.3570 N   0  0  0  0  0  0  0  0  0  0  0  0
   45.0790   37.1880   42.9940 H   0  0  0  0  0  0  0  0  0  0  0  0
   43.9170   36.7800   45.3770 H   0  0  0  0  0  0  0  0  0  0  0  0
   44.4240   34.3670   46.1570 H   0  0  0  0  0  0  0  0  0  0  0  0
   44.5280   33.9200   41.0970 O   0  0  0  0  0  0  0  0  0  0  0  0
   43.4870   34.6700   40.6320 C   0  0  0  0  0  0  0  0  0  0  0  0
   43.2930   35.9260   40.7990 O   0  0  0  0  0  0  0  0  0  0  0  0
   41.6730   34.8850   38.9090 C   0  0  0  0  0  3  0  0  0  0  0  0
   42.3610   34.1240   39.8230 C   0  0  0  0  0  0  0  0  0  0  0  0
   41.9230   32.8180   39.9320 C   0  0  0  0  0  0  0  0  0  0  0  0
   42.4290   32.1730   40.6380 H   0  0  0  0  0  0  0  0  0  0  0  0
   40.8930   32.2420   39.2280 C   0  0  0  0  0  0  0  0  0  0  0  0
   40.3580   31.0100   39.2220 N   0  0  0  0  0  0  0  0  0  0  0  0
   39.3550   31.0330   38.3090 C   0  0  0  0  0  0  0  0  0  0  0  0
   38.7810   30.1240   38.1430 H   0  0  0  0  0  0  0  0  0  0  0  0
   39.2820   32.2640   37.7680 N   0  0  0  0  0  0  0  0  0  0  0  0
   40.2370   33.0490   38.3250 C   0  0  0  0  0  0  0  0  0  0  0  0
   40.6140   34.3600   38.1580 C   0  0  0  0  0  3  0  0  0  0  0  0
   40.6830   30.2130   39.8230 H   0  0  0  0  0  0  0  0  0  0  0  0
  1 17  1  0  0  0  0
  1  2  1  0  0  0  0
  2  9  1  0  0  0  0
  3  2  2  0  0  0  0
  3  7  1  0  0  0  0
  4  3  1  0  0  0  0
  5  6  1  0  0  0  0
  5  4  2  0  0  0  0
  6  1  2  0  0  0  0
  8  5  1  0  0  0  0
  9 10  1  0  0  0  0
  9 13  2  0  0  0  0
 10 11  2  0  0  0  0
 11 12  1  0  0  0  0
 11 15  1  0  0  0  0
 12 16  1  0  0  0  0
 13 12  1  0  0  0  0
 14 10  1  0  0  0  0
 18 19  2  0  0  0  0
 18 17  1  0  0  0  0
 20 21  1  0  0  0  0
 21 22  2  0  0  0  0
 21 18  1  0  0  0  0
 22 23  1  0  0  0  0
 24 22  1  0  0  0  0
 25 24  1  0  0  0  0
 25 31  1  0  0  0  0
 26 25  1  0  0  0  0
 27 26  1  0  0  0  0
 28 26  2  0  0  0  0
 28 29  1  0  0  0  0
 29 24  2  0  0  0  0
 30 29  1  0  0  0  0
 30 20  2  0  0  0  0
M  END
>  <minimizedAffinity>
-5.80704546

>  <minimizedRMSD>
0.967078626

$$$$
