
 OpenBabel03252508503D

 31 34  0  0  0  0  0  0  0  0999 V2000
   45.9570   34.2190   41.0390 C   0  0  0  0  0  0  0  0  0  0  0  0
   46.5460   34.8090   42.1530 C   0  0  0  0  0  0  0  0  0  0  0  0
   47.9070   35.1440   42.0370 C   0  0  0  0  0  0  0  0  0  0  0  0
   48.5430   34.8730   40.8590 N   0  0  0  0  0  0  0  0  0  0  0  0
   47.9300   34.3080   39.8250 C   0  0  0  0  0  0  0  0  0  0  0  0
   46.6320   33.9750   39.9030 N   0  0  0  0  0  0  0  0  0  0  0  0
   48.3780   35.6050   42.9000 H   0  0  0  0  0  0  0  0  0  0  0  0
   48.4750   34.1120   38.9080 H   0  0  0  0  0  0  0  0  0  0  0  0
   45.7680   35.0460   43.3470 C   0  0  0  0  0  0  0  0  0  0  0  0
   45.1000   36.2450   43.5830 C   0  0  0  0  0  0  0  0  0  0  0  0
   44.5030   36.0340   44.8080 C   0  0  0  0  0  0  0  0  0  0  0  0
   44.7870   34.7930   45.2880 N   0  0  0  0  0  0  0  0  0  0  0  0
   45.5520   34.2240   44.3820 N   0  0  0  0  0  0  0  0  0  0  0  0
   45.0290   37.1560   42.9860 H   0  0  0  0  0  0  0  0  0  0  0  0
   43.8790   36.7240   45.3720 H   0  0  0  0  0  0  0  0  0  0  0  0
   44.4870   34.3430   46.1770 H   0  0  0  0  0  0  0  0  0  0  0  0
   44.6170   33.8730   41.1130 O   0  0  0  0  0  0  0  0  0  0  0  0
   43.5560   34.5740   40.6180 C   0  0  0  0  0  0  0  0  0  0  0  0
   43.3120   35.8240   40.7570 O   0  0  0  0  0  0  0  0  0  0  0  0
   42.6740   32.9090   38.9560 C   0  0  0  0  0  3  0  0  0  0  0  0
   42.4630   33.9690   39.8050 C   0  0  0  0  0  0  0  0  0  0  0  0
   41.1600   34.4290   39.8380 C   0  0  0  0  0  0  0  0  0  0  0  0
   40.9350   35.2630   40.4900 H   0  0  0  0  0  0  0  0  0  0  0  0
   40.1020   33.9300   39.1190 C   0  0  0  0  0  0  0  0  0  0  0  0
   38.8010   34.2620   39.0450 N   0  0  0  0  0  0  0  0  0  0  0  0
   38.2380   33.4060   38.1570 C   0  0  0  0  0  0  0  0  0  0  0  0
   37.1750   33.5000   37.9440 H   0  0  0  0  0  0  0  0  0  0  0  0
   39.1840   32.5640   37.6980 N   0  0  0  0  0  0  0  0  0  0  0  0
   40.3690   32.8670   38.2840 C   0  0  0  0  0  0  0  0  0  0  0  0
   41.6390   32.3540   38.1950 C   0  0  0  0  0  3  0  0  0  0  0  0
   38.3490   35.0400   39.5860 H   0  0  0  0  0  0  0  0  0  0  0  0
  1 17  1  0  0  0  0
  1  2  1  0  0  0  0
  2  9  1  0  0  0  0
  3  2  2  0  0  0  0
  3  7  1  0  0  0  0
  4  3  1  0  0  0  0
  5  6  1  0  0  0  0
  5  4  2  0  0  0  0
  6  1  2  0  0  0  0
  8  5  1  0  0  0  0
  9 10  1  0  0  0  0
  9 13  2  0  0  0  0
 10 11  2  0  0  0  0
 11 12  1  0  0  0  0
 11 15  1  0  0  0  0
 12 16  1  0  0  0  0
 13 12  1  0  0  0  0
 14 10  1  0  0  0  0
 18 19  2  0  0  0  0
 18 17  1  0  0  0  0
 20 21  1  0  0  0  0
 21 22  2  0  0  0  0
 21 18  1  0  0  0  0
 22 23  1  0  0  0  0
 24 22  1  0  0  0  0
 25 24  1  0  0  0  0
 25 31  1  0  0  0  0
 26 25  1  0  0  0  0
 27 26  1  0  0  0  0
 28 26  2  0  0  0  0
 28 29  1  0  0  0  0
 29 24  2  0  0  0  0
 30 29  1  0  0  0  0
 30 20  2  0  0  0  0
M  END
>  <minimizedAffinity>
-5.95948648

>  <minimizedRMSD>
0.943022072

$$$$
