REMARK  Name = 
REMARK  4 active torsions:
REMARK  status: ('A' for Active; 'I' for Inactive)
REMARK    1  A    between atoms: C_1  and  O_12
REMARK    2  A    between atoms: C_2  and  C_7
REMARK    3  A    between atoms: O_12  and  C_13
REMARK    4  A    between atoms: C_13  and  C_21
REMARK                            x       y       z     vdW  Elec       q    Type
REMARK                         _______ _______ _______ _____ _____    ______ ____
ROOT
ATOM      1  C   UNL     1      46.083  34.159  41.014  0.00  0.00    +0.000 A 
ATOM      2  C   UNL     1      46.614  34.832  42.110  0.00  0.00    +0.000 A 
ATOM      3  C   UNL     1      47.942  35.278  41.988  0.00  0.00    +0.000 A 
ATOM      4  N   UNL     1      48.606  35.024  40.821  0.00  0.00    +0.000 NA
ATOM      5  C   UNL     1      48.049  34.376  39.804  0.00  0.00    +0.000 A 
ATOM      6  N   UNL     1      46.783  33.937  39.889  0.00  0.00    +0.000 NA
ATOM      7  H   UNL     1      48.367  35.804  42.837  0.00  0.00    +0.000 HD
ATOM      8  H   UNL     1      48.614  34.197  38.896  0.00  0.00    +0.000 HD
ENDROOT
BRANCH   2   9
ATOM      9  C   UNL     1      45.811  35.041  43.294  0.00  0.00    +0.000 A 
ATOM     10  C   UNL     1      45.048  36.189  43.491  0.00  0.00    +0.000 A 
ATOM     11  C   UNL     1      44.462  35.967  44.720  0.00  0.00    +0.000 A 
ATOM     12  N   UNL     1      44.841  34.767  45.237  0.00  0.00    +0.000 N 
ATOM     13  N   UNL     1      45.655  34.235  44.351  0.00  0.00    +0.000 NA
ATOM     14  H   UNL     1      44.909  37.074  42.868  0.00  0.00    +0.000 HD
ATOM     15  H   UNL     1      43.781  36.620  45.260  0.00  0.00    +0.000 HD
ATOM     16  H   UNL     1      44.572  34.320  46.138  0.00  0.00    +0.000 HD
ENDBRANCH   2   9
BRANCH   1  17
ATOM     17  O   UNL     1      44.777  33.704  41.095  0.00  0.00    +0.000 OA
BRANCH  17  18
ATOM     18  C   UNL     1      43.691  34.189  40.426  0.00  0.00    +0.000 C 
ATOM     19  O   UNL     1      43.248  35.391  40.423  0.00  0.00    +0.000 OA
BRANCH  18  21
ATOM     20  C   UNL     1      42.633  33.625  38.218  0.00  0.00    +0.000 A 
ATOM     21  C   UNL     1      42.809  33.361  39.556  0.00  0.00    +0.000 A 
ATOM     22  C   UNL     1      42.100  32.272  40.025  0.00  0.00    +0.000 A 
ATOM     23  H   UNL     1      42.200  32.017  41.072  0.00  0.00    +0.000 HD
ATOM     24  C   UNL     1      41.266  31.464  39.291  0.00  0.00    +0.000 A 
ATOM     25  N   UNL     1      40.521  30.387  39.598  0.00  0.00    +0.000 N 
ATOM     26  C   UNL     1      39.904  30.010  38.451  0.00  0.00    +0.000 A 
ATOM     27  H   UNL     1      39.243  29.147  38.476  0.00  0.00    +0.000 HD
ATOM     28  N   UNL     1      40.269  30.846  37.460  0.00  0.00    +0.000 NA
ATOM     29  C   UNL     1      41.127  31.773  37.956  0.00  0.00    +0.000 A 
ATOM     30  C   UNL     1      41.799  32.841  37.414  0.00  0.00    +0.000 A 
ATOM     31  H   UNL     1      40.458  29.955  40.552  0.00  0.00    +0.000 HD
ENDBRANCH  18  21
ENDBRANCH  17  18
ENDBRANCH   1  17
TORSDOF 4
