
 OpenBabel03252508503D

 31 34  0  0  0  0  0  0  0  0999 V2000
   45.8480   34.2190   41.0360 C   0  0  0  0  0  0  0  0  0  0  0  0
   46.4710   34.7850   42.1440 C   0  0  0  0  0  0  0  0  0  0  0  0
   47.8410   35.0720   42.0130 C   0  0  0  0  0  0  0  0  0  0  0  0
   48.4540   34.7810   40.8270 N   0  0  0  0  0  0  0  0  0  0  0  0
   47.8100   34.2400   39.7990 C   0  0  0  0  0  0  0  0  0  0  0  0
   46.5010   33.9540   39.8920 N   0  0  0  0  0  0  0  0  0  0  0  0
   48.3380   35.5140   42.8720 H   0  0  0  0  0  0  0  0  0  0  0  0
   48.3370   34.0270   38.8760 H   0  0  0  0  0  0  0  0  0  0  0  0
   45.7150   35.0470   43.3480 C   0  0  0  0  0  0  0  0  0  0  0  0
   45.1000   36.2720   43.5970 C   0  0  0  0  0  0  0  0  0  0  0  0
   44.5080   36.0790   44.8270 C   0  0  0  0  0  0  0  0  0  0  0  0
   44.7440   34.8240   45.2970 N   0  0  0  0  0  0  0  0  0  0  0  0
   45.4750   34.2290   44.3790 N   0  0  0  0  0  0  0  0  0  0  0  0
   45.0620   37.1890   43.0070 H   0  0  0  0  0  0  0  0  0  0  0  0
   43.9180   36.7900   45.4010 H   0  0  0  0  0  0  0  0  0  0  0  0
   44.4340   34.3810   46.1870 H   0  0  0  0  0  0  0  0  0  0  0  0
   44.4980   33.9210   41.1250 O   0  0  0  0  0  0  0  0  0  0  0  0
   43.4550   34.6730   40.6680 C   0  0  0  0  0  0  0  0  0  0  0  0
   43.2870   35.9360   40.7990 O   0  0  0  0  0  0  0  0  0  0  0  0
   41.1390   34.8360   39.7110 C   0  0  0  0  0  3  0  0  0  0  0  0
   42.2950   34.1200   39.9140 C   0  0  0  0  0  0  0  0  0  0  0  0
   42.2910   32.8520   39.3650 C   0  0  0  0  0  0  0  0  0  0  0  0
   43.1770   32.2420   39.4940 H   0  0  0  0  0  0  0  0  0  0  0  0
   41.2640   32.2710   38.6620 C   0  0  0  0  0  0  0  0  0  0  0  0
   41.1110   31.0710   38.0780 N   0  0  0  0  0  0  0  0  0  0  0  0
   39.8720   31.0660   37.5290 C   0  0  0  0  0  0  0  0  0  0  0  0
   39.5400   30.1770   36.9990 H   0  0  0  0  0  0  0  0  0  0  0  0
   39.2780   32.2510   37.7770 N   0  0  0  0  0  0  0  0  0  0  0  0
   40.1290   33.0310   38.4880 C   0  0  0  0  0  0  0  0  0  0  0  0
   40.0550   34.3020   39.0030 C   0  0  0  0  0  3  0  0  0  0  0  0
   41.8370   30.3110   38.0700 H   0  0  0  0  0  0  0  0  0  0  0  0
  1 17  1  0  0  0  0
  1  2  1  0  0  0  0
  2  9  1  0  0  0  0
  3  2  2  0  0  0  0
  3  7  1  0  0  0  0
  4  3  1  0  0  0  0
  5  6  1  0  0  0  0
  5  4  2  0  0  0  0
  6  1  2  0  0  0  0
  8  5  1  0  0  0  0
  9 10  1  0  0  0  0
  9 13  2  0  0  0  0
 10 11  2  0  0  0  0
 11 12  1  0  0  0  0
 11 15  1  0  0  0  0
 12 16  1  0  0  0  0
 13 12  1  0  0  0  0
 14 10  1  0  0  0  0
 18 19  2  0  0  0  0
 18 17  1  0  0  0  0
 20 21  1  0  0  0  0
 21 18  1  0  0  0  0
 22 23  1  0  0  0  0
 22 21  2  0  0  0  0
 24 22  1  0  0  0  0
 25 24  1  0  0  0  0
 26 28  2  0  0  0  0
 26 25  1  0  0  0  0
 27 26  1  0  0  0  0
 28 29  1  0  0  0  0
 29 24  2  0  0  0  0
 29 30  1  0  0  0  0
 30 20  2  0  0  0  0
 31 25  1  0  0  0  0
M  END
>  <minimizedAffinity>
-5.71543407

>  <minimizedRMSD>
1.08990324

$$$$
