
     RDKit          3D

 28 30  0  0  0  0  0  0  0  0999 V2000
   44.5960   35.9293   44.4215 C   0  0  0  0  0  0  0  0  0  0  0  0
   45.3370   35.8496   43.2228 C   0  0  0  0  0  0  0  0  0  0  0  0
   46.2577   34.8107   43.1401 C   0  0  0  0  0  0  0  0  0  0  0  0
   46.3698   33.9722   44.1958 N   0  0  0  0  0  0  0  0  0  0  0  0
   45.6516   34.0696   45.3281 C   0  0  0  0  0  0  0  0  0  0  0  0
   44.7552   35.0609   45.4385 N   0  0  0  0  0  0  0  0  0  0  0  0
   47.0186   34.7305   41.9079 C   0  0  0  0  0  0  0  0  0  0  0  0
   47.8450   33.6050   41.9349 F   0  0  0  0  0  0  0  0  0  0  0  0
   47.9009   35.8204   41.9163 F   0  0  0  0  0  0  0  0  0  0  0  0
   46.2759   34.6931   40.7873 F   0  0  0  0  0  0  0  0  0  0  0  0
   45.7980   33.1623   46.4480 C   0  0  0  0  0  0  0  0  0  0  0  0
   45.0484   33.1944   47.4407 O   0  0  0  0  0  0  0  0  0  0  0  0
   43.8640   36.7035   44.5644 H   0  0  0  0  0  0  0  0  0  0  0  0
   45.1690   36.5751   42.4367 H   0  0  0  0  0  0  0  0  0  0  0  0
   47.9441   32.3092   47.3285 C   0  0  0  0  0  0  0  0  0  0  0  0
   46.8137   32.1240   46.5542 C   0  0  0  0  0  0  0  0  0  0  0  0
   46.7302   30.9112   45.9022 C   0  0  0  0  0  0  0  0  0  0  0  0
   45.8659   30.7051   45.2768 H   0  0  0  0  0  0  0  0  0  0  0  0
   47.6761   29.9056   45.9742 C   0  0  0  0  0  0  0  0  0  0  0  0
   47.7471   28.6772   45.4064 N   0  0  0  0  0  0  0  0  0  0  0  0
   48.9091   28.1245   45.8326 C   0  0  0  0  0  0  0  0  0  0  0  0
   49.2188   27.1331   45.5263 H   0  0  0  0  0  0  0  0  0  0  0  0
   49.5398   28.9836   46.6404 N   0  0  0  0  0  0  0  0  0  0  0  0
   48.7977   30.1096   46.7526 C   0  0  0  0  0  0  0  0  0  0  0  0
   48.9146   31.3090   47.4181 C   0  0  0  0  0  0  0  0  0  0  0  0
   48.1075   33.2250   47.8818 H   0  0  0  0  0  0  0  0  0  0  0  0
   47.0429   28.2616   44.7748 H   0  0  0  0  0  0  0  0  0  0  0  0
   49.8204   31.3993   48.0114 H   0  0  0  0  0  0  0  0  0  0  0  0
  1  6  2  0
  2  1  1  0
  3  2  2  0
  3  4  1  0
  4  5  2  0
  5  6  1  0
  5 11  1  0
  7  8  1  0
  7  3  1  0
  9  7  1  0
 10  7  1  0
 11 12  2  0
  1 13  1  0
  2 14  1  0
 15 16  2  0
 16 17  1  0
 17 18  1  0
 17 19  2  0
 19 20  1  0
 20 21  1  0
 21 22  1  0
 21 23  2  0
 23 24  1  0
 24 25  2  0
 25 15  1  0
 24 19  1  0
 15 26  1  0
 20 27  1  0
 25 28  1  0
 11 16  1  0
M  ISO  4  13  14  14  14  18  15  22  14
M  END
>  <DihAtoms>  (1) 
4,10,15,14

>  <DihDeg>  (1) 
-153.8213687551268

$$$$
