
 OpenBabel03242520133D

 36 38  0  0  0  0  0  0  0  0999 V2000
   46.0990   32.6390   47.1320 C   0  0  0  0  0  0  0  0  0  0  0  0
   45.0170   32.3090   47.8820 C   0  0  0  0  0  0  0  0  0  0  0  0
   45.1990   31.5900   49.0410 C   0  0  0  0  0  0  0  0  0  0  0  0
   46.4730   31.2080   49.4360 C   0  0  0  0  0  0  0  0  0  0  0  0
   47.5550   31.5660   48.6420 C   0  0  0  0  0  0  0  0  0  0  0  0
   47.3320   32.2490   47.5490 N   0  0  0  0  0  0  0  0  0  0  0  0
   44.0200   32.6250   47.5430 H   0  0  0  0  0  0  0  0  0  0  0  0
   44.3240   31.3350   49.6260 H   0  0  0  0  0  0  0  0  0  0  0  0
   46.6350   30.6420   50.3430 H   0  0  0  0  0  0  0  0  0  0  0  0
   44.9570   35.0010   44.5890 C   0  0  0  0  0  0  0  0  0  0  0  0
   45.9100   34.7960   43.5630 C   0  0  0  0  0  0  0  0  0  0  0  0
   46.9440   33.8420   43.7540 C   0  0  0  0  0  0  0  0  0  0  0  0
   46.9160   33.2060   44.9250 N   0  0  0  0  0  0  0  0  0  0  0  0
   46.0180   33.4010   45.8870 C   0  0  0  0  0  0  0  0  0  0  0  0
   45.0360   34.3050   45.7120 N   0  0  0  0  0  0  0  0  0  0  0  0
   43.9370   35.9560   44.3810 N   0  0  0  0  0  0  0  0  0  0  0  0
   45.8490   35.3650   42.6390 H   0  0  0  0  0  0  0  0  0  0  0  0
   47.6790   33.6760   42.9780 H   0  0  0  0  0  0  0  0  0  0  0  0
   43.9810   36.6240   43.5980 H   0  0  0  0  0  0  0  0  0  0  0  0
   43.1250   35.9800   45.0360 H   0  0  0  0  0  0  0  0  0  0  0  0
   48.9120   31.1850   49.0190 C   0  0  0  0  0  3  0  0  0  0  0  0
   49.5230   30.1080   48.5310 C   0  0  0  0  0  3  0  0  0  0  0  0
   48.8770   29.2050   47.5650 C   0  0  0  0  0  0  0  0  0  0  0  0
   47.7860   29.4430   47.5680 H   0  0  0  0  0  0  0  0  0  0  0  0
   48.9340   28.1680   47.9950 H   0  0  0  0  0  0  0  0  0  0  0  0
   48.5330   29.7090   45.2510 C   0  0  0  0  0  0  0  0  0  0  0  0
   49.4530   29.2830   46.1970 C   0  0  0  0  0  0  0  0  0  0  0  0
   50.7610   28.9700   45.8900 C   0  0  0  0  0  0  0  0  0  0  0  0
   51.4130   28.6460   46.6830 H   0  0  0  0  0  0  0  0  0  0  0  0
   51.1550   29.0960   44.5520 C   0  0  0  0  0  3  0  0  0  0  0  0
   50.2260   29.5200   43.6270 C   0  0  0  0  0  3  0  0  0  0  0  0
   48.9180   29.8370   43.9170 C   0  0  0  0  0  0  0  0  0  0  0  0
   47.2110   30.0310   45.5350 O   0  0  0  0  0  0  0  0  0  0  0  0
   47.0810   30.9730   45.9290 H   0  0  0  0  0  0  0  0  0  0  0  0
   48.0090   30.2610   42.9630 O   0  0  0  0  0  0  0  0  0  0  0  0
   47.7590   31.2470   42.9720 H   0  0  0  0  0  0  0  0  0  0  0  0
  1  6  2  0  0  0  0
  1  2  1  0  0  0  0
  2  3  2  0  0  0  0
  3  4  1  0  0  0  0
  3  8  1  0  0  0  0
  4  9  1  0  0  0  0
  5 21  1  0  0  0  0
  5  4  2  0  0  0  0
  6  5  1  0  0  0  0
  7  2  1  0  0  0  0
 10 15  1  0  0  0  0
 11 12  1  0  0  0  0
 11 10  2  0  0  0  0
 12 13  2  0  0  0  0
 13 14  1  0  0  0  0
 14  1  1  0  0  0  0
 15 14  2  0  0  0  0
 16 10  1  0  0  0  0
 16 20  1  0  0  0  0
 17 11  1  0  0  0  0
 18 12  1  0  0  0  0
 19 16  1  0  0  0  0
 22 21  2  0  0  0  0
 23 24  1  0  0  0  0
 23 25  1  0  0  0  0
 23 22  1  0  0  0  0
 26 33  1  0  0  0  0
 26 27  1  0  0  0  0
 27 23  1  0  0  0  0
 28 27  2  0  0  0  0
 28 29  1  0  0  0  0
 30 28  1  0  0  0  0
 31 32  1  0  0  0  0
 31 30  2  0  0  0  0
 32 26  2  0  0  0  0
 33 34  1  0  0  0  0
 35 36  1  0  0  0  0
 35 32  1  0  0  0  0
M  END
>  <minimizedAffinity>
-5.86161423

>  <minimizedRMSD>
4.86295319

$$$$
