
 OpenBabel03242514333D

 28 29  0  0  0  0  0  0  0  0999 V2000
   44.7440   34.0150   43.7270 O   0  0  0  0  0  0  0  0  0  0  0  0
   45.5360   33.2860   42.6840 P   0  0  1  0  0  0  0  0  0  0  0  0
   46.9060   32.6620   43.4260 O   0  0  0  0  0  0  0  0  0  0  0  0
   47.1650   33.2620   44.1710 H   0  0  0  0  0  0  0  0  0  0  0  0
   44.5940   32.0320   42.0000 O   0  0  0  0  0  0  0  0  0  0  0  0
   42.7060   33.2910   41.2530 C   0  0  0  0  0  0  0  0  0  0  0  0
   43.2100   32.1610   41.8760 C   0  0  0  0  0  0  0  0  0  0  0  0
   42.3080   31.2070   42.3500 C   0  0  0  0  0  0  0  0  0  0  0  0
   40.9770   31.4380   42.1740 N   0  0  0  0  0  0  0  0  0  0  0  0
   40.5230   32.5390   41.5690 C   0  0  0  0  0  0  0  0  0  0  0  0
   41.3850   33.4490   41.1170 N   0  0  0  0  0  0  0  0  0  0  0  0
   43.3470   34.0790   40.8580 H   0  0  0  0  0  0  0  0  0  0  0  0
   42.7150   30.3180   42.8400 H   0  0  0  0  0  0  0  0  0  0  0  0
   39.4440   32.5600   41.5160 H   0  0  0  0  0  0  0  0  0  0  0  0
   45.9970   34.3690   41.5010 O   0  0  0  0  0  0  0  0  0  0  0  0
   47.0090   34.2360   40.6210 C   0  0  0  0  0  0  0  0  0  0  0  0
   48.1510   34.5090   41.1690 O   0  0  0  0  0  0  0  0  0  0  0  0
   46.4570   32.9970   38.5390 C   0  0  0  0  0  0  0  0  0  0  0  0
   47.2560   33.8620   39.1980 C   0  0  0  0  0  0  0  0  0  0  0  0
   48.3530   34.4400   38.5460 C   0  0  0  0  0  0  0  0  0  0  0  0
   48.9910   35.1420   39.1020 H   0  0  0  0  0  0  0  0  0  0  0  0
   48.6880   34.1850   37.2460 C   0  0  0  0  0  3  0  0  0  0  0  0
   47.8900   33.3090   36.5580 C   0  0  0  0  0  3  0  0  0  0  0  0
   46.8130   32.7460   37.2080 C   0  0  0  0  0  0  0  0  0  0  0  0
   45.3600   32.3880   39.1120 O   0  0  0  0  0  0  0  0  0  0  0  0
   44.5090   32.9310   39.3110 H   0  0  0  0  0  0  0  0  0  0  0  0
   45.9720   31.8420   36.5340 O   0  0  0  0  0  0  0  0  0  0  0  0
   44.9710   31.9500   36.6570 H   0  0  0  0  0  0  0  0  0  0  0  0
  2  3  1  0  0  0  0
  2  1  2  1  0  0  0
  3  4  1  0  0  0  0
  5  2  1  0  0  0  0
  6  7  1  0  0  0  0
  7  5  1  0  0  0  0
  7  8  2  0  0  0  0
  8 13  1  0  0  0  0
  9  8  1  0  0  0  0
 10  9  2  0  0  0  0
 11  6  2  0  0  0  0
 11 10  1  0  0  0  0
 12  6  1  0  0  0  0
 14 10  1  0  0  0  0
 15  2  1  0  0  0  0
 16 17  2  0  0  0  0
 16 15  1  0  0  0  0
 18 25  1  0  0  0  0
 18 19  1  0  0  0  0
 19 16  1  0  0  0  0
 20 21  1  0  0  0  0
 20 19  2  0  0  0  0
 22 20  1  0  0  0  0
 23 24  1  0  0  0  0
 23 22  2  0  0  0  0
 24 18  2  0  0  0  0
 25 26  1  0  0  0  0
 27 28  1  0  0  0  0
 27 24  1  0  0  0  0
M  END
>  <minimizedAffinity>
-3.88807487

>  <minimizedRMSD>
4.01110601

$$$$
