
 OpenBabel03252507163D

 31 33  0  0  0  0  0  0  0  0999 V2000
   45.3270   35.7420   43.0650 C   0  0  0  0  0  0  0  0  0  0  0  0
   45.7520   34.4000   43.2280 C   0  0  0  0  0  0  0  0  0  0  0  0
   45.5630   33.8130   44.4790 C   0  0  0  0  0  0  0  0  0  0  0  0
   44.9960   34.5200   45.4690 N   0  0  0  0  0  0  0  0  0  0  0  0
   44.5930   35.8170   45.2850 C   0  0  0  0  0  0  0  0  0  0  0  0
   44.7660   36.3960   44.0930 N   0  0  0  0  0  0  0  0  0  0  0  0
   45.4590   36.2270   42.1080 H   0  0  0  0  0  0  0  0  0  0  0  0
   44.1580   36.2360   46.1840 H   0  0  0  0  0  0  0  0  0  0  0  0
   45.9950   32.4390   44.6550 C   0  0  0  0  0  0  0  0  0  0  0  0
   45.2630   31.4080   44.0940 C   0  0  0  0  0  0  0  0  0  0  0  0
   45.6980   30.1190   44.2800 C   0  0  0  0  0  0  0  0  0  0  0  0
   46.8340   29.7860   44.9980 C   0  0  0  0  0  0  0  0  0  0  0  0
   47.5250   30.8650   45.5350 C   0  0  0  0  0  0  0  0  0  0  0  0
   47.0910   32.1290   45.3490 N   0  0  0  0  0  0  0  0  0  0  0  0
   44.3760   31.5520   43.5240 H   0  0  0  0  0  0  0  0  0  0  0  0
   45.1560   29.2740   43.8580 H   0  0  0  0  0  0  0  0  0  0  0  0
   47.2280   28.8160   45.1800 H   0  0  0  0  0  0  0  0  0  0  0  0
   48.4340   30.7540   46.1220 H   0  0  0  0  0  0  0  0  0  0  0  0
   46.3440   33.7160   42.1340 C   0  0  0  0  0  0  0  0  0  0  0  0
   47.5370   33.3360   42.2440 O   0  0  0  0  0  0  0  0  0  0  0  0
   44.2550   33.2220   40.8790 C   0  0  0  0  0  0  0  0  0  0  0  0
   45.6150   33.4450   40.8990 C   0  0  0  0  0  0  0  0  0  0  0  0
   46.2770   33.4030   39.6910 C   0  0  0  0  0  0  0  0  0  0  0  0
   47.3400   33.5790   39.7250 H   0  0  0  0  0  0  0  0  0  0  0  0
   45.6650   33.1560   38.4980 C   0  0  0  0  0  3  0  0  0  0  0  0
   44.2900   32.9340   38.5020 C   0  0  0  0  0  3  0  0  0  0  0  0
   43.6080   32.9710   39.6870 C   0  0  0  0  0  0  0  0  0  0  0  0
   43.5320   33.2540   42.0860 O   0  0  0  0  0  0  0  0  0  0  0  0
   42.8340   32.5710   42.3270 H   0  0  0  0  0  0  0  0  0  0  0  0
   42.2370   32.7530   39.7290 O   0  0  0  0  0  0  0  0  0  0  0  0
   41.5870   33.2790   39.1550 H   0  0  0  0  0  0  0  0  0  0  0  0
  1  2  2  0  0  0  0
  1  6  1  0  0  0  0
  2  3  1  0  0  0  0
  3  9  1  0  0  0  0
  3  4  2  0  0  0  0
  5  4  1  0  0  0  0
  5  8  1  0  0  0  0
  6  5  2  0  0  0  0
  7  1  1  0  0  0  0
  9 14  1  0  0  0  0
 10 11  1  0  0  0  0
 10  9  2  0  0  0  0
 11 12  2  0  0  0  0
 12 17  1  0  0  0  0
 12 13  1  0  0  0  0
 13 18  1  0  0  0  0
 14 13  2  0  0  0  0
 15 10  1  0  0  0  0
 16 11  1  0  0  0  0
 19 20  2  0  0  0  0
 19  2  1  0  0  0  0
 21 22  1  0  0  0  0
 21 28  1  0  0  0  0
 22 19  1  0  0  0  0
 23 24  1  0  0  0  0
 23 22  2  0  0  0  0
 25 26  2  0  0  0  0
 25 23  1  0  0  0  0
 26 27  1  0  0  0  0
 27 30  1  0  0  0  0
 27 21  2  0  0  0  0
 28 29  1  0  0  0  0
 31 30  1  0  0  0  0
M  END
>  <minimizedAffinity>
-4.38821793

>  <minimizedRMSD>
1.43814576

$$$$
