
 OpenBabel03252507163D

 31 33  0  0  0  0  0  0  0  0999 V2000
   45.2300   36.1920   43.5250 C   0  0  0  0  0  0  0  0  0  0  0  0
   45.8630   34.9780   43.1600 C   0  0  0  0  0  0  0  0  0  0  0  0
   45.8280   33.9320   44.0820 C   0  0  0  0  0  0  0  0  0  0  0  0
   45.2100   34.1020   45.2610 N   0  0  0  0  0  0  0  0  0  0  0  0
   44.6040   35.2870   45.5890 C   0  0  0  0  0  0  0  0  0  0  0  0
   44.6270   36.3000   44.7180 N   0  0  0  0  0  0  0  0  0  0  0  0
   45.2390   37.0230   42.8330 H   0  0  0  0  0  0  0  0  0  0  0  0
   44.1550   35.2530   46.5750 H   0  0  0  0  0  0  0  0  0  0  0  0
   46.4740   32.6850   43.7180 C   0  0  0  0  0  0  0  0  0  0  0  0
   45.7070   31.5860   43.3740 C   0  0  0  0  0  0  0  0  0  0  0  0
   46.3480   30.4200   43.0340 C   0  0  0  0  0  0  0  0  0  0  0  0
   47.7250   30.2770   43.0140 C   0  0  0  0  0  0  0  0  0  0  0  0
   48.4380   31.4150   43.3670 C   0  0  0  0  0  0  0  0  0  0  0  0
   47.8010   32.5580   43.7010 N   0  0  0  0  0  0  0  0  0  0  0  0
   44.6430   31.5870   43.3570 H   0  0  0  0  0  0  0  0  0  0  0  0
   45.7890   29.5280   42.7560 H   0  0  0  0  0  0  0  0  0  0  0  0
   48.2860   29.4110   42.7610 H   0  0  0  0  0  0  0  0  0  0  0  0
   49.5240   31.4500   43.3950 H   0  0  0  0  0  0  0  0  0  0  0  0
   46.4980   34.8720   41.8950 C   0  0  0  0  0  0  0  0  0  0  0  0
   47.6230   35.4120   41.7450 O   0  0  0  0  0  0  0  0  0  0  0  0
   46.6190   33.3770   39.9110 C   0  0  0  0  0  0  0  0  0  0  0  0
   45.8870   34.1640   40.7750 C   0  0  0  0  0  0  0  0  0  0  0  0
   44.5320   34.2600   40.5400 C   0  0  0  0  0  0  0  0  0  0  0  0
   43.9740   34.8790   41.2250 H   0  0  0  0  0  0  0  0  0  0  0  0
   43.8920   33.6280   39.5160 C   0  0  0  0  0  3  0  0  0  0  0  0
   44.6520   32.8390   38.6570 C   0  0  0  0  0  3  0  0  0  0  0  0
   45.9990   32.7260   38.8660 C   0  0  0  0  0  0  0  0  0  0  0  0
   48.0070   33.2450   40.1070 O   0  0  0  0  0  0  0  0  0  0  0  0
   48.6760   33.2970   39.3560 H   0  0  0  0  0  0  0  0  0  0  0  0
   46.7890   31.9480   38.0300 O   0  0  0  0  0  0  0  0  0  0  0  0
   46.5760   30.9760   37.8320 H   0  0  0  0  0  0  0  0  0  0  0  0
  1  6  1  0  0  0  0
  2  1  2  0  0  0  0
  2  3  1  0  0  0  0
  3  4  2  0  0  0  0
  4  5  1  0  0  0  0
  5  8  1  0  0  0  0
  6  5  2  0  0  0  0
  7  1  1  0  0  0  0
  9  3  1  0  0  0  0
 10  9  2  0  0  0  0
 11 10  1  0  0  0  0
 12 11  2  0  0  0  0
 12 13  1  0  0  0  0
 13 18  1  0  0  0  0
 13 14  2  0  0  0  0
 14  9  1  0  0  0  0
 15 10  1  0  0  0  0
 16 11  1  0  0  0  0
 17 12  1  0  0  0  0
 19  2  1  0  0  0  0
 20 19  2  0  0  0  0
 21 28  1  0  0  0  0
 21 22  1  0  0  0  0
 22 19  1  0  0  0  0
 23 22  2  0  0  0  0
 23 24  1  0  0  0  0
 25 23  1  0  0  0  0
 26 27  1  0  0  0  0
 26 25  2  0  0  0  0
 27 21  2  0  0  0  0
 29 28  1  0  0  0  0
 30 27  1  0  0  0  0
 31 30  1  0  0  0  0
M  END
>  <minimizedAffinity>
-4.76768827

>  <minimizedRMSD>
0.280130297

$$$$
