
 OpenBabel03252509273D

 32 34  0  0  1  0  0  0  0  0999 V2000
   46.4800   35.0580   42.0440 C   0  0  1  0  0  0  0  0  0  0  0  0
   48.0170   35.2930   41.9630 C   0  0  0  0  0  0  0  0  0  0  0  0
   47.2360   34.1180   41.3190 C   0  0  2  0  0  0  0  0  0  0  0  0
   45.8960   35.8630   41.5680 H   0  0  0  0  0  0  0  0  0  0  0  0
   48.6260   35.1020   42.8460 H   0  0  0  0  0  0  0  0  0  0  0  0
   48.3190   36.1070   41.2930 H   0  0  0  0  0  0  0  0  0  0  0  0
   47.5770   33.1310   41.7570 H   0  0  0  0  0  0  0  0  0  0  0  0
   44.7700   35.1310   45.3790 C   0  0  0  0  0  0  0  0  0  0  0  0
   45.1280   35.5370   44.0620 C   0  0  0  0  0  0  0  0  0  0  0  0
   46.0630   34.7610   43.4640 C   0  0  0  0  0  0  0  0  0  0  0  0
   46.6210   33.6640   44.0950 N   0  0  0  0  0  0  0  0  0  0  0  0
   46.2430   33.3220   45.3480 C   0  0  0  0  0  0  0  0  0  0  0  0
   45.3120   34.0620   45.9910 N   0  0  0  0  0  0  0  0  0  0  0  0
   44.0270   35.7210   45.8890 H   0  0  0  0  0  0  0  0  0  0  0  0
   46.7690   32.4450   45.7000 H   0  0  0  0  0  0  0  0  0  0  0  0
   44.5760   36.6690   43.4320 N   0  0  0  0  0  0  0  0  0  0  0  0
   43.5510   36.8570   43.5740 H   0  0  0  0  0  0  0  0  0  0  0  0
   45.2130   37.2780   42.8470 H   0  0  0  0  0  0  0  0  0  0  0  0
   47.1480   34.0420   39.8170 C   0  0  0  0  0  0  0  0  0  0  0  0
   46.1190   33.6800   39.5930 H   0  0  0  0  0  0  0  0  0  0  0  0
   47.1900   35.0830   39.4210 H   0  0  0  0  0  0  0  0  0  0  0  0
   48.1700   33.5020   37.7800 C   0  0  0  0  0  0  0  0  0  0  0  0
   48.1800   33.2470   39.1570 C   0  0  0  0  0  0  0  0  0  0  0  0
   49.1140   32.3410   39.6120 C   0  0  0  0  0  0  0  0  0  0  0  0
   49.0580   32.2010   40.6690 H   0  0  0  0  0  0  0  0  0  0  0  0
   50.0010   31.7110   38.7720 C   0  0  0  0  0  3  0  0  0  0  0  0
   49.9820   31.9730   37.4040 C   0  0  0  0  0  3  0  0  0  0  0  0
   49.0610   32.8700   36.9290 C   0  0  0  0  0  0  0  0  0  0  0  0
   47.3210   34.3750   37.0900 O   0  0  0  0  0  0  0  0  0  0  0  0
   47.4470   35.3650   37.2920 H   0  0  0  0  0  0  0  0  0  0  0  0
   49.1230   33.0620   35.5560 O   0  0  0  0  0  0  0  0  0  0  0  0
   48.6190   33.8850   35.2000 H   0  0  0  0  0  0  0  0  0  0  0  0
  1  4  1  6  0  0  0
  1 10  1  0  0  0  0
  2  1  1  0  0  0  0
  2  5  1  0  0  0  0
  3  7  1  1  0  0  0
  3  2  1  0  0  0  0
  3  1  1  0  0  0  0
  6  2  1  0  0  0  0
  8 14  1  0  0  0  0
  8 13  1  0  0  0  0
  9  8  2  0  0  0  0
 10  9  1  0  0  0  0
 10 11  2  0  0  0  0
 11 12  1  0  0  0  0
 12 15  1  0  0  0  0
 12 13  2  0  0  0  0
 16 17  1  0  0  0  0
 16  9  1  0  0  0  0
 18 16  1  0  0  0  0
 19  3  1  0  0  0  0
 20 19  1  0  0  0  0
 21 19  1  0  0  0  0
 22 23  1  0  0  0  0
 23 24  2  0  0  0  0
 23 19  1  0  0  0  0
 24 25  1  0  0  0  0
 26 24  1  0  0  0  0
 27 26  2  0  0  0  0
 28 27  1  0  0  0  0
 28 22  2  0  0  0  0
 29 30  1  0  0  0  0
 29 22  1  0  0  0  0
 31 28  1  0  0  0  0
 32 31  1  0  0  0  0
M  END
>  <minimizedAffinity>
-5.9140439

>  <minimizedRMSD>
0.787880242

$$$$
