
 OpenBabel03242520133D

 36 38  0  0  0  0  0  0  0  0999 V2000
   46.8330   32.1390   46.7980 C   0  0  0  0  0  0  0  0  0  0  0  0
   46.3720   32.3720   48.0530 C   0  0  0  0  0  0  0  0  0  0  0  0
   46.7470   31.5250   49.0720 C   0  0  0  0  0  0  0  0  0  0  0  0
   47.5850   30.4490   48.8160 C   0  0  0  0  0  0  0  0  0  0  0  0
   48.0350   30.2450   47.5190 C   0  0  0  0  0  0  0  0  0  0  0  0
   47.6510   31.0760   46.5840 N   0  0  0  0  0  0  0  0  0  0  0  0
   45.7100   33.2310   48.2250 H   0  0  0  0  0  0  0  0  0  0  0  0
   46.3700   31.7260   50.0670 H   0  0  0  0  0  0  0  0  0  0  0  0
   47.8890   29.7740   49.6040 H   0  0  0  0  0  0  0  0  0  0  0  0
   45.2730   34.7150   44.7300 C   0  0  0  0  0  0  0  0  0  0  0  0
   45.9130   34.5060   43.4840 C   0  0  0  0  0  0  0  0  0  0  0  0
   46.8820   33.4750   43.3650 C   0  0  0  0  0  0  0  0  0  0  0  0
   47.1030   32.7750   44.4780 N   0  0  0  0  0  0  0  0  0  0  0  0
   46.4980   32.9750   45.6470 C   0  0  0  0  0  0  0  0  0  0  0  0
   45.5790   33.9520   45.7660 N   0  0  0  0  0  0  0  0  0  0  0  0
   44.3130   35.7480   44.8290 N   0  0  0  0  0  0  0  0  0  0  0  0
   45.6650   35.1300   42.6310 H   0  0  0  0  0  0  0  0  0  0  0  0
   47.3800   33.3050   42.4190 H   0  0  0  0  0  0  0  0  0  0  0  0
   44.2100   36.4550   44.0880 H   0  0  0  0  0  0  0  0  0  0  0  0
   43.7010   35.7880   45.6720 H   0  0  0  0  0  0  0  0  0  0  0  0
   48.9170   29.1260   47.2050 C   0  0  0  0  0  3  0  0  0  0  0  0
   48.4910   28.0150   46.6100 C   0  0  0  0  0  3  0  0  0  0  0  0
   47.0870   27.8200   46.2160 C   0  0  0  0  0  0  0  0  0  0  0  0
   47.0890   27.2650   45.2480 H   0  0  0  0  0  0  0  0  0  0  0  0
   46.6760   28.8330   45.9520 H   0  0  0  0  0  0  0  0  0  0  0  0
   46.9100   26.0270   47.7900 C   0  0  0  0  0  0  0  0  0  0  0  0
   46.2680   27.1280   47.2450 C   0  0  0  0  0  0  0  0  0  0  0  0
   45.0050   27.5300   47.6270 C   0  0  0  0  0  0  0  0  0  0  0  0
   44.5760   28.3970   47.1530 H   0  0  0  0  0  0  0  0  0  0  0  0
   44.3590   26.7740   48.6130 C   0  0  0  0  0  3  0  0  0  0  0  0
   45.0140   25.6830   49.1420 C   0  0  0  0  0  3  0  0  0  0  0  0
   46.2740   25.2690   48.7730 C   0  0  0  0  0  0  0  0  0  0  0  0
   48.1820   25.6020   47.4240 O   0  0  0  0  0  0  0  0  0  0  0  0
   48.9450   26.1320   47.8640 H   0  0  0  0  0  0  0  0  0  0  0  0
   46.9040   24.1680   49.3260 O   0  0  0  0  0  0  0  0  0  0  0  0
   47.6650   24.3510   49.9770 H   0  0  0  0  0  0  0  0  0  0  0  0
  1  2  1  0  0  0  0
  2  7  1  0  0  0  0
  2  3  2  0  0  0  0
  3  8  1  0  0  0  0
  4  3  1  0  0  0  0
  4  9  1  0  0  0  0
  5  4  2  0  0  0  0
  6  1  2  0  0  0  0
  6  5  1  0  0  0  0
 10 16  1  0  0  0  0
 10 15  1  0  0  0  0
 11 10  2  0  0  0  0
 12 11  1  0  0  0  0
 12 13  2  0  0  0  0
 13 14  1  0  0  0  0
 14 15  2  0  0  0  0
 14  1  1  0  0  0  0
 16 20  1  0  0  0  0
 17 11  1  0  0  0  0
 18 12  1  0  0  0  0
 19 16  1  0  0  0  0
 21  5  1  0  0  0  0
 22 21  2  0  0  0  0
 23 22  1  0  0  0  0
 23 27  1  0  0  0  0
 24 23  1  0  0  0  0
 25 23  1  0  0  0  0
 26 32  1  0  0  0  0
 27 28  1  0  0  0  0
 27 26  2  0  0  0  0
 28 30  2  0  0  0  0
 29 28  1  0  0  0  0
 30 31  1  0  0  0  0
 32 31  2  0  0  0  0
 32 35  1  0  0  0  0
 33 26  1  0  0  0  0
 33 34  1  0  0  0  0
 35 36  1  0  0  0  0
M  END
>  <minimizedAffinity>
-5.19447374

>  <minimizedRMSD>
4.70058584

$$$$
