
 OpenBabel03242523113D

 48 52  0  0  1  0  0  0  0  0999 V2000
   45.6510   32.8400   46.5830 C   0  0  0  0  0  0  0  0  0  0  0  0
   46.2660   32.8420   45.3130 C   0  0  0  0  0  0  0  0  0  0  0  0
   47.0520   31.7280   45.1380 C   0  0  0  0  0  0  0  0  0  0  0  0
   47.2430   30.7300   46.0450 C   0  0  0  0  0  0  0  0  0  0  0  0
   46.6010   30.8090   47.2770 C   0  0  0  0  0  0  0  0  0  0  0  0
   45.7930   31.8800   47.5470 C   0  0  0  0  0  0  0  0  0  0  0  0
   47.0010   29.6680   47.9570 O   0  0  0  0  0  0  0  0  0  0  0  0
   47.8280   28.8700   47.1330 C   0  0  2  0  0  0  0  0  0  0  0  0
   48.0170   29.5920   45.9200 O   0  0  0  0  0  0  0  0  0  0  0  0
   44.9530   33.5780   47.0320 H   0  0  0  0  0  0  0  0  0  0  0  0
   47.5160   31.7090   44.2020 H   0  0  0  0  0  0  0  0  0  0  0  0
   45.3580   31.8300   48.5150 H   0  0  0  0  0  0  0  0  0  0  0  0
   48.7860   28.6540   47.6330 H   0  0  0  0  0  0  0  0  0  0  0  0
   45.9570   35.6790   42.8860 C   0  0  0  0  0  0  0  0  0  0  0  0
   46.4700   34.4790   43.3820 C   0  0  0  0  0  0  0  0  0  0  0  0
   45.9820   33.9820   44.5540 C   0  0  0  0  0  0  0  0  0  0  0  0
   45.0020   34.7070   45.1830 N   0  0  0  0  0  0  0  0  0  0  0  0
   44.5150   35.8540   44.7040 C   0  0  0  0  0  0  0  0  0  0  0  0
   44.9900   36.3280   43.5730 N   0  0  0  0  0  0  0  0  0  0  0  0
   46.3310   36.0880   41.9590 H   0  0  0  0  0  0  0  0  0  0  0  0
   43.7450   36.4640   45.1580 H   0  0  0  0  0  0  0  0  0  0  0  0
   47.4730   33.8620   42.6440 N   0  0  0  0  0  0  0  0  0  0  0  0
   48.8560   34.1040   42.8900 C   0  0  0  0  0  0  0  0  0  0  0  0
   49.7960   33.2170   42.1140 C   0  0  0  0  0  0  0  0  0  0  0  0
   49.4040   31.8910   41.9970 N   0  0  0  0  0  0  0  0  0  0  0  0
   48.0740   31.6670   41.7150 C   0  0  0  0  0  0  0  0  0  0  0  0
   47.2820   32.9500   41.5850 C   0  0  0  0  0  0  0  0  0  0  0  0
   49.1320   34.0850   43.9680 H   0  0  0  0  0  0  0  0  0  0  0  0
   49.0550   35.1520   42.5600 H   0  0  0  0  0  0  0  0  0  0  0  0
   49.9640   33.6650   41.1090 H   0  0  0  0  0  0  0  0  0  0  0  0
   50.7850   33.2820   42.6250 H   0  0  0  0  0  0  0  0  0  0  0  0
   49.7470   31.2860   42.7930 H   0  0  0  0  0  0  0  0  0  0  0  0
   47.5800   30.9730   42.4230 H   0  0  0  0  0  0  0  0  0  0  0  0
   47.9660   31.1550   40.7140 H   0  0  0  0  0  0  0  0  0  0  0  0
   46.2140   32.6640   41.5110 H   0  0  0  0  0  0  0  0  0  0  0  0
   47.5530   33.4280   40.6060 H   0  0  0  0  0  0  0  0  0  0  0  0
   47.1260   27.6920   46.8570 O   0  0  0  0  0  0  0  0  0  0  0  0
   45.4430   26.7000   48.0470 C   0  0  0  0  0  0  0  0  0  0  0  0
   46.8040   26.6930   47.7330 C   0  0  0  0  0  0  0  0  0  0  0  0
   47.6120   25.7410   48.3080 C   0  0  0  0  0  0  0  0  0  0  0  0
   48.6500   25.8030   48.0150 H   0  0  0  0  0  0  0  0  0  0  0  0
   47.1360   24.7890   49.1840 C   0  0  0  0  0  0  0  0  0  0  0  0
   45.7810   24.8120   49.4830 C   0  0  0  0  0  0  0  0  0  0  0  0
   44.9280   25.7460   48.9330 C   0  0  0  0  0  0  0  0  0  0  0  0
   44.5110   27.5940   47.5480 O   0  0  0  0  0  0  0  0  0  0  0  0
   43.9620   27.3190   46.7370 H   0  0  0  0  0  0  0  0  0  0  0  0
   43.5600   25.7310   49.2660 O   0  0  0  0  0  0  0  0  0  0  0  0
   43.0670   24.8500   49.2150 H   0  0  0  0  0  0  0  0  0  0  0  0
  1 10  1  0  0  0  0
  1  6  1  0  0  0  0
  2  1  2  0  0  0  0
  3  2  1  0  0  0  0
  3  4  2  0  0  0  0
  4  5  1  0  0  0  0
  5  6  2  0  0  0  0
  5  7  1  0  0  0  0
  6 12  1  0  0  0  0
  8 13  1  1  0  0  0
  8  7  1  0  0  0  0
  9  4  1  0  0  0  0
  9  8  1  0  0  0  0
 11  3  1  0  0  0  0
 14 15  2  0  0  0  0
 14 19  1  0  0  0  0
 15 16  1  0  0  0  0
 16 17  2  0  0  0  0
 16  2  1  0  0  0  0
 18 21  1  0  0  0  0
 18 17  1  0  0  0  0
 19 18  2  0  0  0  0
 20 14  1  0  0  0  0
 22 23  1  0  0  0  0
 22 15  1  0  0  0  0
 23 28  1  0  0  0  0
 24 31  1  0  0  0  0
 24 23  1  0  0  0  0
 25 24  1  0  0  0  0
 25 32  1  0  0  0  0
 26 25  1  0  0  0  0
 26 33  1  0  0  0  0
 27 26  1  0  0  0  0
 27 22  1  0  0  0  0
 29 23  1  0  0  0  0
 30 24  1  0  0  0  0
 34 26  1  0  0  0  0
 35 27  1  0  0  0  0
 36 27  1  0  0  0  0
 37  8  1  0  0  0  0
 37 39  1  0  0  0  0
 38 44  1  0  0  0  0
 39 38  2  0  0  0  0
 39 40  1  0  0  0  0
 40 42  2  0  0  0  0
 41 40  1  0  0  0  0
 42 43  1  0  0  0  0
 44 47  1  0  0  0  0
 44 43  2  0  0  0  0
 45 38  1  0  0  0  0
 46 45  1  0  0  0  0
 48 47  1  0  0  0  0
M  END
>  <minimizedAffinity>
-6.39165068

>  <minimizedRMSD>
4.61147833

$$$$
