
 OpenBabel03252501043D

 33 35  0  0  1  0  0  0  0  0999 V2000
   37.3010   29.5550   39.7660 O   0  0  0  0  0  0  0  0  0  0  0  0
   37.5690   30.8180   37.7270 C   0  0  1  0  0  0  0  0  0  0  0  0
   38.5010   29.6770   37.5580 C   0  0  0  0  0  0  0  0  0  0  0  0
   37.2540   29.5660   38.4240 C   0  0  1  0  0  0  0  0  0  0  0  0
   36.8610   31.1230   36.9350 H   0  0  0  0  0  0  0  0  0  0  0  0
   39.4120   29.5270   38.1260 H   0  0  0  0  0  0  0  0  0  0  0  0
   38.4540   29.1940   36.5380 H   0  0  0  0  0  0  0  0  0  0  0  0
   36.4860   28.9010   37.9790 H   0  0  0  0  0  0  0  0  0  0  0  0
   37.7840   33.9350   39.8580 C   0  0  0  0  0  0  0  0  0  0  0  0
   37.2320   32.9080   39.0840 C   0  0  0  0  0  0  0  0  0  0  0  0
   38.0960   31.9370   38.5670 C   0  0  0  0  0  0  0  0  0  0  0  0
   39.4300   32.0280   38.8320 N   0  0  0  0  0  0  0  0  0  0  0  0
   39.9410   33.0310   39.5840 C   0  0  0  0  0  0  0  0  0  0  0  0
   39.1110   33.9800   40.0920 N   0  0  0  0  0  0  0  0  0  0  0  0
   37.1080   34.6740   40.2500 H   0  0  0  0  0  0  0  0  0  0  0  0
   36.1860   32.9000   38.9210 H   0  0  0  0  0  0  0  0  0  0  0  0
   41.0120   33.0270   39.7450 H   0  0  0  0  0  0  0  0  0  0  0  0
   34.6730   29.1980   39.7960 O   0  0  0  0  0  0  0  0  0  0  0  0
   35.9020   29.5090   40.6200 P   0  0  2  0  0  0  0  0  0  0  0  0
   35.5590   30.9480   41.4530 O   0  0  0  0  0  0  0  0  0  0  0  0
   35.5690   31.6980   40.7870 H   0  0  0  0  0  0  0  0  0  0  0  0
   35.9920   28.2910   41.7850 O   0  0  0  0  0  0  0  0  0  0  0  0
   37.5450   26.3940   41.4830 C   0  0  0  0  0  0  0  0  0  0  0  0
   37.0740   27.5200   42.1010 C   0  0  0  0  0  0  0  0  0  0  0  0
   37.7740   27.9820   43.2210 C   0  0  0  0  0  0  0  0  0  0  0  0
   37.5490   28.8600   43.8400 H   0  0  0  0  0  0  0  0  0  0  0  0
   38.8970   27.3020   43.6630 C   0  0  0  0  0  3  0  0  0  0  0  0
   39.3480   26.1750   43.0250 C   0  0  0  0  0  3  0  0  0  0  0  0
   38.6580   25.7030   41.9040 C   0  0  0  0  0  0  0  0  0  0  0  0
   36.8090   25.9870   40.3790 O   0  0  0  0  0  0  0  0  0  0  0  0
   37.2600   25.4060   39.6700 H   0  0  0  0  0  0  0  0  0  0  0  0
   38.9880   24.5740   41.1460 O   0  0  0  0  0  0  0  0  0  0  0  0
   38.9950   23.6580   41.6050 H   0  0  0  0  0  0  0  0  0  0  0  0
  1 19  1  0  0  0  0
  2  5  1  6  0  0  0
  2  4  1  0  0  0  0
  2 11  1  0  0  0  0
  3  2  1  0  0  0  0
  3  6  1  0  0  0  0
  3  4  1  0  0  0  0
  4  8  1  6  0  0  0
  4  1  1  0  0  0  0
  7  3  1  0  0  0  0
  9 14  1  0  0  0  0
  9 15  1  0  0  0  0
 10  9  2  0  0  0  0
 11 12  2  0  0  0  0
 11 10  1  0  0  0  0
 12 13  1  0  0  0  0
 13 17  1  0  0  0  0
 13 14  2  0  0  0  0
 16 10  1  0  0  0  0
 19 18  2  6  0  0  0
 19 20  1  0  0  0  0
 19 22  1  0  0  0  0
 21 20  1  0  0  0  0
 22 24  1  0  0  0  0
 23 29  2  0  0  0  0
 23 24  1  0  0  0  0
 24 25  2  0  0  0  0
 25 27  1  0  0  0  0
 25 26  1  0  0  0  0
 28 27  2  0  0  0  0
 29 28  1  0  0  0  0
 30 23  1  0  0  0  0
 31 30  1  0  0  0  0
 32 33  1  0  0  0  0
 32 29  1  0  0  0  0
M  END
>  <minimizedAffinity>
-5.80275679

$$$$

 OpenBabel03252501043D

 33 35  0  0  1  0  0  0  0  0999 V2000
   39.6460   31.5070   40.7870 O   0  0  0  0  0  0  0  0  0  0  0  0
   40.1790   30.3640   42.8440 C   0  0  1  0  0  0  0  0  0  0  0  0
   41.4370   30.2830   42.0630 C   0  0  0  0  0  0  0  0  0  0  0  0
   40.4450   31.4210   41.8630 C   0  0  1  0  0  0  0  0  0  0  0  0
   40.1620   30.6780   43.9040 H   0  0  0  0  0  0  0  0  0  0  0  0
   41.5760   29.6950   41.1640 H   0  0  0  0  0  0  0  0  0  0  0  0
   42.3650   30.5210   42.6620 H   0  0  0  0  0  0  0  0  0  0  0  0
   40.8310   32.3920   42.2350 H   0  0  0  0  0  0  0  0  0  0  0  0
   37.0770   28.2000   42.8670 C   0  0  0  0  0  0  0  0  0  0  0  0
   38.0060   29.1690   43.2630 C   0  0  0  0  0  0  0  0  0  0  0  0
   39.1470   29.3490   42.4720 C   0  0  0  0  0  0  0  0  0  0  0  0
   39.3080   28.5790   41.3590 N   0  0  0  0  0  0  0  0  0  0  0  0
   38.3950   27.6480   40.9960 C   0  0  0  0  0  0  0  0  0  0  0  0
   37.2830   27.4650   41.7560 N   0  0  0  0  0  0  0  0  0  0  0  0
   36.2050   28.0740   43.4840 H   0  0  0  0  0  0  0  0  0  0  0  0
   37.8130   29.7310   44.1390 H   0  0  0  0  0  0  0  0  0  0  0  0
   38.6030   27.0810   40.0970 H   0  0  0  0  0  0  0  0  0  0  0  0
   39.8450   33.6880   39.2920 O   0  0  0  0  0  0  0  0  0  0  0  0
   39.0410   32.9660   40.3480 P   0  0  2  0  0  0  0  0  0  0  0  0
   38.8720   34.0550   41.6390 O   0  0  0  0  0  0  0  0  0  0  0  0
   39.7650   34.1390   42.0890 H   0  0  0  0  0  0  0  0  0  0  0  0
   37.4990   32.7620   39.6900 O   0  0  0  0  0  0  0  0  0  0  0  0
   36.0560   30.7960   40.0830 C   0  0  0  0  0  0  0  0  0  0  0  0
   36.8910   31.5890   39.3440 C   0  0  0  0  0  0  0  0  0  0  0  0
   37.1910   31.1730   38.0420 C   0  0  0  0  0  0  0  0  0  0  0  0
   37.8350   31.6730   37.3080 H   0  0  0  0  0  0  0  0  0  0  0  0
   36.6470   29.9980   37.5500 C   0  0  0  0  0  3  0  0  0  0  0  0
   35.8120   29.2220   38.3110 C   0  0  0  0  0  3  0  0  0  0  0  0
   35.5040   29.6260   39.6140 C   0  0  0  0  0  0  0  0  0  0  0  0
   35.7960   31.2620   41.3640 O   0  0  0  0  0  0  0  0  0  0  0  0
   34.9460   30.9560   41.8400 H   0  0  0  0  0  0  0  0  0  0  0  0
   34.6730   28.9500   40.5140 O   0  0  0  0  0  0  0  0  0  0  0  0
   34.9280   28.0010   40.8020 H   0  0  0  0  0  0  0  0  0  0  0  0
  1  4  1  0  0  0  0
  2  5  1  1  0  0  0
  3  7  1  0  0  0  0
  3  2  1  0  0  0  0
  4  3  1  0  0  0  0
  4  8  1  1  0  0  0
  4  2  1  0  0  0  0
  6  3  1  0  0  0  0
  9 10  1  0  0  0  0
  9 15  1  0  0  0  0
 10 16  1  0  0  0  0
 11  2  1  0  0  0  0
 11 10  2  0  0  0  0
 12 11  1  0  0  0  0
 13 12  2  0  0  0  0
 13 14  1  0  0  0  0
 14  9  2  0  0  0  0
 17 13  1  0  0  0  0
 19 18  2  6  0  0  0
 19  1  1  0  0  0  0
 19 20  1  0  0  0  0
 20 21  1  0  0  0  0
 22 19  1  0  0  0  0
 23 30  1  0  0  0  0
 24 22  1  0  0  0  0
 24 23  2  0  0  0  0
 25 24  1  0  0  0  0
 26 25  1  0  0  0  0
 27 25  2  0  0  0  0
 27 28  1  0  0  0  0
 28 29  2  0  0  0  0
 29 23  1  0  0  0  0
 29 32  1  0  0  0  0
 30 31  1  0  0  0  0
 32 33  1  0  0  0  0
M  END
>  <minimizedAffinity>
-5.72773075

$$$$

 OpenBabel03252501043D

 33 35  0  0  1  0  0  0  0  0999 V2000
   37.7020   29.7540   39.8960 O   0  0  0  0  0  0  0  0  0  0  0  0
   37.3070   31.2880   38.0760 C   0  0  1  0  0  0  0  0  0  0  0  0
   38.0350   30.1660   37.4360 C   0  0  0  0  0  0  0  0  0  0  0  0
   37.1770   29.9560   38.6770 C   0  0  1  0  0  0  0  0  0  0  0  0
   36.3840   31.7160   37.6430 H   0  0  0  0  0  0  0  0  0  0  0  0
   39.0760   29.9200   37.6080 H   0  0  0  0  0  0  0  0  0  0  0  0
   37.5900   29.8330   36.4520 H   0  0  0  0  0  0  0  0  0  0  0  0
   36.2560   29.3750   38.4640 H   0  0  0  0  0  0  0  0  0  0  0  0
   40.3220   33.2210   39.2900 C   0  0  0  0  0  0  0  0  0  0  0  0
   39.5590   32.2850   38.5820 C   0  0  0  0  0  0  0  0  0  0  0  0
   38.1760   32.2670   38.7970 C   0  0  0  0  0  0  0  0  0  0  0  0
   37.6320   33.1500   39.6800 N   0  0  0  0  0  0  0  0  0  0  0  0
   38.3910   34.0460   40.3540 C   0  0  0  0  0  0  0  0  0  0  0  0
   39.7350   34.0740   40.1530 N   0  0  0  0  0  0  0  0  0  0  0  0
   41.3840   33.2230   39.1140 H   0  0  0  0  0  0  0  0  0  0  0  0
   40.0510   31.6310   37.9110 H   0  0  0  0  0  0  0  0  0  0  0  0
   37.8760   34.7110   41.0360 H   0  0  0  0  0  0  0  0  0  0  0  0
   35.7860   28.5120   41.2440 O   0  0  0  0  0  0  0  0  0  0  0  0
   36.7120   29.7060   41.2010 P   0  0  2  0  0  0  0  0  0  0  0  0
   35.7220   31.0750   41.3620 O   0  0  0  0  0  0  0  0  0  0  0  0
   35.2110   31.1870   40.5060 H   0  0  0  0  0  0  0  0  0  0  0  0
   37.6380   29.6180   42.6100 O   0  0  0  0  0  0  0  0  0  0  0  0
   38.7860   27.4990   43.1520 C   0  0  0  0  0  0  0  0  0  0  0  0
   38.7300   28.8290   42.8390 C   0  0  0  0  0  0  0  0  0  0  0  0
   39.9420   29.5180   42.7290 C   0  0  0  0  0  0  0  0  0  0  0  0
   40.0950   30.5780   42.4870 H   0  0  0  0  0  0  0  0  0  0  0  0
   41.1380   28.8490   42.9340 C   0  0  0  0  0  3  0  0  0  0  0  0
   41.1670   27.5150   43.2470 C   0  0  0  0  0  3  0  0  0  0  0  0
   39.9620   26.8150   43.3610 C   0  0  0  0  0  0  0  0  0  0  0  0
   37.5520   26.8710   43.2470 O   0  0  0  0  0  0  0  0  0  0  0  0
   37.4990   25.8590   43.1210 H   0  0  0  0  0  0  0  0  0  0  0  0
   39.8210   25.4570   43.6720 O   0  0  0  0  0  0  0  0  0  0  0  0
   40.1750   25.1190   44.5720 H   0  0  0  0  0  0  0  0  0  0  0  0
  1 19  1  0  0  0  0
  2  5  1  6  0  0  0
  2  4  1  0  0  0  0
  2 11  1  0  0  0  0
  3  6  1  0  0  0  0
  3  2  1  0  0  0  0
  3  4  1  0  0  0  0
  4  8  1  6  0  0  0
  4  1  1  0  0  0  0
  7  3  1  0  0  0  0
  9 14  1  0  0  0  0
 10 11  1  0  0  0  0
 10  9  2  0  0  0  0
 11 12  2  0  0  0  0
 12 13  1  0  0  0  0
 13 17  1  0  0  0  0
 14 13  2  0  0  0  0
 15  9  1  0  0  0  0
 16 10  1  0  0  0  0
 19 18  2  6  0  0  0
 19 20  1  0  0  0  0
 19 22  1  0  0  0  0
 21 20  1  0  0  0  0
 22 24  1  0  0  0  0
 23 30  1  0  0  0  0
 23 29  1  0  0  0  0
 24 23  2  0  0  0  0
 25 24  1  0  0  0  0
 25 27  2  0  0  0  0
 26 25  1  0  0  0  0
 27 28  1  0  0  0  0
 28 29  2  0  0  0  0
 29 32  1  0  0  0  0
 31 30  1  0  0  0  0
 32 33  1  0  0  0  0
M  END
>  <minimizedAffinity>
-5.68700218

$$$$

 OpenBabel03252501043D

 33 35  0  0  1  0  0  0  0  0999 V2000
   39.0810   27.0170   42.1880 O   0  0  0  0  0  0  0  0  0  0  0  0
   39.2280   24.7370   42.9650 C   0  0  1  0  0  0  0  0  0  0  0  0
   40.6400   25.1130   42.7120 C   0  0  0  0  0  0  0  0  0  0  0  0
   39.5920   26.1540   43.0810 C   0  0  1  0  0  0  0  0  0  0  0  0
   38.9080   24.2400   43.8990 H   0  0  0  0  0  0  0  0  0  0  0  0
   41.0720   25.2910   41.7350 H   0  0  0  0  0  0  0  0  0  0  0  0
   41.3520   24.8000   43.5320 H   0  0  0  0  0  0  0  0  0  0  0  0
   39.7450   26.5710   44.0970 H   0  0  0  0  0  0  0  0  0  0  0  0
   38.3520   23.6340   39.4550 C   0  0  0  0  0  0  0  0  0  0  0  0
   39.1250   23.9920   40.5650 C   0  0  0  0  0  0  0  0  0  0  0  0
   38.4600   24.3400   41.7460 C   0  0  0  0  0  0  0  0  0  0  0  0
   37.0970   24.3200   41.7680 N   0  0  0  0  0  0  0  0  0  0  0  0
   36.3700   23.9710   40.6800 C   0  0  0  0  0  0  0  0  0  0  0  0
   37.0060   23.6300   39.5290 N   0  0  0  0  0  0  0  0  0  0  0  0
   38.8770   23.3690   38.5550 H   0  0  0  0  0  0  0  0  0  0  0  0
   40.1800   23.9830   40.4750 H   0  0  0  0  0  0  0  0  0  0  0  0
   35.2920   23.9820   40.7860 H   0  0  0  0  0  0  0  0  0  0  0  0
   38.0800   29.0510   43.5650 O   0  0  0  0  0  0  0  0  0  0  0  0
   37.7800   27.9250   42.6010 P   0  0  2  0  0  0  0  0  0  0  0  0
   36.5130   27.0340   43.2960 O   0  0  0  0  0  0  0  0  0  0  0  0
   36.8850   26.5320   44.0810 H   0  0  0  0  0  0  0  0  0  0  0  0
   37.1450   28.6620   41.2200 O   0  0  0  0  0  0  0  0  0  0  0  0
   36.9800   31.0530   40.6220 C   0  0  0  0  0  0  0  0  0  0  0  0
   37.5670   29.8180   40.6270 C   0  0  0  0  0  0  0  0  0  0  0  0
   38.7740   29.6740   39.9330 C   0  0  0  0  0  0  0  0  0  0  0  0
   39.3850   28.7690   39.8260 H   0  0  0  0  0  0  0  0  0  0  0  0
   39.3280   30.7620   39.2790 C   0  0  0  0  0  3  0  0  0  0  0  0
   38.7190   31.9900   39.2900 C   0  0  0  0  0  3  0  0  0  0  0  0
   37.5120   32.1470   39.9790 C   0  0  0  0  0  0  0  0  0  0  0  0
   35.7860   31.1310   41.3270 O   0  0  0  0  0  0  0  0  0  0  0  0
   35.4740   32.0390   41.6740 H   0  0  0  0  0  0  0  0  0  0  0  0
   36.7690   33.3280   40.0860 O   0  0  0  0  0  0  0  0  0  0  0  0
   36.4090   33.7630   39.2310 H   0  0  0  0  0  0  0  0  0  0  0  0
  1 19  1  0  0  0  0
  1  4  1  0  0  0  0
  2  4  1  0  0  0  0
  2  5  1  1  0  0  0
  3  2  1  0  0  0  0
  3  4  1  0  0  0  0
  3  7  1  0  0  0  0
  4  8  1  1  0  0  0
  6  3  1  0  0  0  0
  9 14  2  0  0  0  0
  9 10  1  0  0  0  0
 10 11  2  0  0  0  0
 11 12  1  0  0  0  0
 11  2  1  0  0  0  0
 13 17  1  0  0  0  0
 13 12  2  0  0  0  0
 14 13  1  0  0  0  0
 15  9  1  0  0  0  0
 16 10  1  0  0  0  0
 19 20  1  0  0  0  0
 19 18  2  1  0  0  0
 20 21  1  0  0  0  0
 22 19  1  0  0  0  0
 23 24  1  0  0  0  0
 23 30  1  0  0  0  0
 24 22  1  0  0  0  0
 25 24  2  0  0  0  0
 26 25  1  0  0  0  0
 27 28  2  0  0  0  0
 27 25  1  0  0  0  0
 28 29  1  0  0  0  0
 29 32  1  0  0  0  0
 29 23  2  0  0  0  0
 30 31  1  0  0  0  0
 33 32  1  0  0  0  0
M  END
>  <minimizedAffinity>
-5.66374731

$$$$

 OpenBabel03252501043D

 33 35  0  0  1  0  0  0  0  0999 V2000
   39.4750   31.4920   40.8500 O   0  0  0  0  0  0  0  0  0  0  0  0
   39.6490   30.2950   42.9380 C   0  0  1  0  0  0  0  0  0  0  0  0
   41.0390   30.3040   42.4230 C   0  0  0  0  0  0  0  0  0  0  0  0
   40.0470   31.4010   42.0610 C   0  0  1  0  0  0  0  0  0  0  0  0
   39.4040   30.5660   43.9810 H   0  0  0  0  0  0  0  0  0  0  0  0
   41.3850   29.7580   41.5530 H   0  0  0  0  0  0  0  0  0  0  0  0
   41.8150   30.5610   43.2020 H   0  0  0  0  0  0  0  0  0  0  0  0
   40.2990   32.3740   42.5310 H   0  0  0  0  0  0  0  0  0  0  0  0
   36.6300   28.1910   42.0630 C   0  0  0  0  0  0  0  0  0  0  0  0
   37.4040   29.1970   42.6520 C   0  0  0  0  0  0  0  0  0  0  0  0
   38.7670   29.2480   42.3370 C   0  0  0  0  0  0  0  0  0  0  0  0
   39.2820   28.3250   41.4770 N   0  0  0  0  0  0  0  0  0  0  0  0
   38.5130   27.3610   40.9190 C   0  0  0  0  0  0  0  0  0  0  0  0
   37.1880   27.3010   41.2180 N   0  0  0  0  0  0  0  0  0  0  0  0
   35.5840   28.1640   42.3140 H   0  0  0  0  0  0  0  0  0  0  0  0
   36.9350   29.8810   43.3100 H   0  0  0  0  0  0  0  0  0  0  0  0
   39.0040   26.6680   40.2470 H   0  0  0  0  0  0  0  0  0  0  0  0
   40.2570   33.5640   39.3920 O   0  0  0  0  0  0  0  0  0  0  0  0
   39.1430   32.9700   40.2250 P   0  0  2  0  0  0  0  0  0  0  0  0
   38.7550   34.1390   41.3930 O   0  0  0  0  0  0  0  0  0  0  0  0
   39.5070   34.1710   42.0570 H   0  0  0  0  0  0  0  0  0  0  0  0
   37.8100   32.8620   39.1950 O   0  0  0  0  0  0  0  0  0  0  0  0
   37.5530   31.3250   37.2780 C   0  0  0  0  0  0  0  0  0  0  0  0
   37.3370   31.7490   38.5610 C   0  0  0  0  0  0  0  0  0  0  0  0
   36.5200   30.9550   39.3730 C   0  0  0  0  0  0  0  0  0  0  0  0
   36.2360   31.1300   40.4190 H   0  0  0  0  0  0  0  0  0  0  0  0
   35.9660   29.7900   38.8680 C   0  0  0  0  0  3  0  0  0  0  0  0
   36.1980   29.3890   37.5780 C   0  0  0  0  0  3  0  0  0  0  0  0
   37.0130   30.1730   36.7550 C   0  0  0  0  0  0  0  0  0  0  0  0
   38.3720   32.1540   36.5230 O   0  0  0  0  0  0  0  0  0  0  0  0
   38.8640   31.7640   35.7180 H   0  0  0  0  0  0  0  0  0  0  0  0
   37.3460   29.9030   35.4230 O   0  0  0  0  0  0  0  0  0  0  0  0
   36.5950   29.8450   34.7300 H   0  0  0  0  0  0  0  0  0  0  0  0
  1  4  1  0  0  0  0
  2  5  1  1  0  0  0
  3  2  1  0  0  0  0
  3  7  1  0  0  0  0
  4  3  1  0  0  0  0
  4  8  1  1  0  0  0
  4  2  1  0  0  0  0
  6  3  1  0  0  0  0
  9 15  1  0  0  0  0
  9 10  1  0  0  0  0
 10 16  1  0  0  0  0
 11 10  2  0  0  0  0
 11  2  1  0  0  0  0
 12 11  1  0  0  0  0
 13 14  1  0  0  0  0
 13 12  2  0  0  0  0
 14  9  2  0  0  0  0
 17 13  1  0  0  0  0
 19 18  2  6  0  0  0
 19  1  1  0  0  0  0
 19 20  1  0  0  0  0
 20 21  1  0  0  0  0
 22 19  1  0  0  0  0
 23 24  1  0  0  0  0
 24 22  1  0  0  0  0
 24 25  2  0  0  0  0
 25 26  1  0  0  0  0
 27 25  1  0  0  0  0
 28 27  2  0  0  0  0
 29 23  2  0  0  0  0
 29 28  1  0  0  0  0
 30 23  1  0  0  0  0
 31 30  1  0  0  0  0
 32 29  1  0  0  0  0
 33 32  1  0  0  0  0
M  END
>  <minimizedAffinity>
-5.66022062

$$$$

 OpenBabel03252501043D

 33 35  0  0  1  0  0  0  0  0999 V2000
   38.3770   30.3910   40.5500 O   0  0  0  0  0  0  0  0  0  0  0  0
   39.4300   29.8700   42.6570 C   0  0  1  0  0  0  0  0  0  0  0  0
   40.5510   29.8320   41.6870 C   0  0  0  0  0  0  0  0  0  0  0  0
   39.3220   30.7000   41.4520 C   0  0  1  0  0  0  0  0  0  0  0  0
   39.4980   30.4140   43.6170 H   0  0  0  0  0  0  0  0  0  0  0  0
   40.6810   29.0840   40.9140 H   0  0  0  0  0  0  0  0  0  0  0  0
   41.4830   30.3610   42.0430 H   0  0  0  0  0  0  0  0  0  0  0  0
   39.5420   31.7830   41.5440 H   0  0  0  0  0  0  0  0  0  0  0  0
   38.2880   26.2780   42.3330 C   0  0  0  0  0  0  0  0  0  0  0  0
   39.1210   27.4020   42.2810 C   0  0  0  0  0  0  0  0  0  0  0  0
   38.5940   28.6310   42.6940 C   0  0  0  0  0  0  0  0  0  0  0  0
   37.3020   28.6850   43.1270 N   0  0  0  0  0  0  0  0  0  0  0  0
   36.5160   27.5840   43.1680 C   0  0  0  0  0  0  0  0  0  0  0  0
   37.0170   26.3850   42.7690 N   0  0  0  0  0  0  0  0  0  0  0  0
   38.7070   25.3410   42.0120 H   0  0  0  0  0  0  0  0  0  0  0  0
   40.1140   27.2840   41.9350 H   0  0  0  0  0  0  0  0  0  0  0  0
   35.5020   27.7180   43.5250 H   0  0  0  0  0  0  0  0  0  0  0  0
   37.3590   32.8400   40.5580 O   0  0  0  0  0  0  0  0  0  0  0  0
   37.0690   31.3660   40.3880 P   0  0  2  0  0  0  0  0  0  0  0  0
   35.8080   31.0070   41.4650 O   0  0  0  0  0  0  0  0  0  0  0  0
   36.1820   31.0310   42.3960 H   0  0  0  0  0  0  0  0  0  0  0  0
   36.4320   31.2020   38.8330 O   0  0  0  0  0  0  0  0  0  0  0  0
   37.0990   29.7860   36.9220 C   0  0  0  0  0  0  0  0  0  0  0  0
   36.4010   30.0750   38.0620 C   0  0  0  0  0  0  0  0  0  0  0  0
   35.5150   29.1030   38.5400 C   0  0  0  0  0  0  0  0  0  0  0  0
   34.8760   29.1540   39.4300 H   0  0  0  0  0  0  0  0  0  0  0  0
   35.3750   27.9030   37.8620 C   0  0  0  0  0  3  0  0  0  0  0  0
   36.0880   27.6390   36.7210 C   0  0  0  0  0  3  0  0  0  0  0  0
   36.9760   28.6020   36.2330 C   0  0  0  0  0  0  0  0  0  0  0  0
   37.9610   30.7890   36.4990 O   0  0  0  0  0  0  0  0  0  0  0  0
   38.7520   30.5440   35.9030 H   0  0  0  0  0  0  0  0  0  0  0  0
   37.7730   28.4860   35.0880 O   0  0  0  0  0  0  0  0  0  0  0  0
   37.3150   28.3580   34.1800 H   0  0  0  0  0  0  0  0  0  0  0  0
  1  4  1  0  0  0  0
  2 11  1  0  0  0  0
  2  5  1  1  0  0  0
  3  7  1  0  0  0  0
  3  2  1  0  0  0  0
  4  8  1  1  0  0  0
  4  3  1  0  0  0  0
  4  2  1  0  0  0  0
  6  3  1  0  0  0  0
  9 14  1  0  0  0  0
 10  9  2  0  0  0  0
 10 11  1  0  0  0  0
 11 12  2  0  0  0  0
 12 13  1  0  0  0  0
 13 17  1  0  0  0  0
 14 13  2  0  0  0  0
 15  9  1  0  0  0  0
 16 10  1  0  0  0  0
 19  1  1  0  0  0  0
 19 18  2  1  0  0  0
 19 20  1  0  0  0  0
 20 21  1  0  0  0  0
 22 19  1  0  0  0  0
 23 24  1  0  0  0  0
 24 25  2  0  0  0  0
 24 22  1  0  0  0  0
 25 26  1  0  0  0  0
 27 25  1  0  0  0  0
 28 27  2  0  0  0  0
 29 28  1  0  0  0  0
 29 23  2  0  0  0  0
 30 23  1  0  0  0  0
 31 30  1  0  0  0  0
 32 29  1  0  0  0  0
 33 32  1  0  0  0  0
M  END
>  <minimizedAffinity>
-5.61478806

$$$$

 OpenBabel03252501043D

 33 35  0  0  1  0  0  0  0  0999 V2000
   37.5070   30.7180   41.2850 O   0  0  0  0  0  0  0  0  0  0  0  0
   36.9070   32.2000   39.4780 C   0  0  1  0  0  0  0  0  0  0  0  0
   36.7030   30.8490   38.9050 C   0  0  0  0  0  0  0  0  0  0  0  0
   36.5760   31.1080   40.4000 C   0  0  1  0  0  0  0  0  0  0  0  0
   36.1520   33.0020   39.3840 H   0  0  0  0  0  0  0  0  0  0  0  0
   37.4920   30.1430   38.6740 H   0  0  0  0  0  0  0  0  0  0  0  0
   35.7380   30.7360   38.3280 H   0  0  0  0  0  0  0  0  0  0  0  0
   35.5300   31.0280   40.7580 H   0  0  0  0  0  0  0  0  0  0  0  0
   40.5980   32.5280   38.7190 C   0  0  0  0  0  0  0  0  0  0  0  0
   39.2850   32.0470   38.6720 C   0  0  0  0  0  0  0  0  0  0  0  0
   38.3260   32.6710   39.4790 C   0  0  0  0  0  0  0  0  0  0  0  0
   38.7060   33.7110   40.2730 N   0  0  0  0  0  0  0  0  0  0  0  0
   39.9830   34.1590   40.3020 C   0  0  0  0  0  0  0  0  0  0  0  0
   40.9220   33.5610   39.5220 N   0  0  0  0  0  0  0  0  0  0  0  0
   41.3230   32.0390   38.0930 H   0  0  0  0  0  0  0  0  0  0  0  0
   39.0630   31.2350   38.0300 H   0  0  0  0  0  0  0  0  0  0  0  0
   40.1970   34.9910   40.9620 H   0  0  0  0  0  0  0  0  0  0  0  0
   36.1600   28.4530   41.5800 O   0  0  0  0  0  0  0  0  0  0  0  0
   37.3910   29.2360   41.9750 P   0  0  2  0  0  0  0  0  0  0  0  0
   37.4040   29.2660   43.6730 O   0  0  0  0  0  0  0  0  0  0  0  0
   36.6710   29.8800   43.9750 H   0  0  0  0  0  0  0  0  0  0  0  0
   38.7070   28.2890   41.5040 O   0  0  0  0  0  0  0  0  0  0  0  0
   38.7920   25.8410   41.1860 C   0  0  0  0  0  0  0  0  0  0  0  0
   38.9840   27.0050   41.8780 C   0  0  0  0  0  0  0  0  0  0  0  0
   39.5410   26.9100   43.1580 C   0  0  0  0  0  0  0  0  0  0  0  0
   39.7660   27.7260   43.8560 H   0  0  0  0  0  0  0  0  0  0  0  0
   39.8750   25.6690   43.6760 C   0  0  0  0  0  3  0  0  0  0  0  0
   39.6730   24.5180   42.9610 C   0  0  0  0  0  3  0  0  0  0  0  0
   39.1170   24.5980   41.6810 C   0  0  0  0  0  0  0  0  0  0  0  0
   38.2370   26.0000   39.9230 O   0  0  0  0  0  0  0  0  0  0  0  0
   38.3850   25.2730   39.2220 H   0  0  0  0  0  0  0  0  0  0  0  0
   38.8480   23.5220   40.8270 O   0  0  0  0  0  0  0  0  0  0  0  0
   38.1890   22.8010   41.1360 H   0  0  0  0  0  0  0  0  0  0  0  0
  1 19  1  0  0  0  0
  2  5  1  6  0  0  0
  2 11  1  0  0  0  0
  2  4  1  0  0  0  0
  3  2  1  0  0  0  0
  3  4  1  0  0  0  0
  4  8  1  1  0  0  0
  4  1  1  0  0  0  0
  6  3  1  0  0  0  0
  7  3  1  0  0  0  0
  9 14  1  0  0  0  0
 10  9  2  0  0  0  0
 10 11  1  0  0  0  0
 11 12  2  0  0  0  0
 12 13  1  0  0  0  0
 13 17  1  0  0  0  0
 14 13  2  0  0  0  0
 15  9  1  0  0  0  0
 16 10  1  0  0  0  0
 19 18  2  6  0  0  0
 19 20  1  0  0  0  0
 20 21  1  0  0  0  0
 22 24  1  0  0  0  0
 22 19  1  0  0  0  0
 23 29  2  0  0  0  0
 23 24  1  0  0  0  0
 24 25  2  0  0  0  0
 25 27  1  0  0  0  0
 25 26  1  0  0  0  0
 28 27  2  0  0  0  0
 29 28  1  0  0  0  0
 30 23  1  0  0  0  0
 31 30  1  0  0  0  0
 32 33  1  0  0  0  0
 32 29  1  0  0  0  0
M  END
>  <minimizedAffinity>
-5.49355316

$$$$

 OpenBabel03252501043D

 33 35  0  0  1  0  0  0  0  0999 V2000
   36.6020   25.9590   39.9920 O   0  0  0  0  0  0  0  0  0  0  0  0
   38.1610   25.3550   41.7320 C   0  0  1  0  0  0  0  0  0  0  0  0
   36.9270   24.6180   42.0970 C   0  0  0  0  0  0  0  0  0  0  0  0
   37.2420   24.9800   40.6520 C   0  0  1  0  0  0  0  0  0  0  0  0
   39.1540   24.8690   41.7140 H   0  0  0  0  0  0  0  0  0  0  0  0
   36.0090   25.0760   42.4460 H   0  0  0  0  0  0  0  0  0  0  0  0
   37.1060   23.5450   42.4000 H   0  0  0  0  0  0  0  0  0  0  0  0
   37.4950   24.0920   40.0360 H   0  0  0  0  0  0  0  0  0  0  0  0
   37.3820   28.6160   43.4810 C   0  0  0  0  0  0  0  0  0  0  0  0
   37.3320   27.2570   43.1530 C   0  0  0  0  0  0  0  0  0  0  0  0
   38.1710   26.7950   42.1330 C   0  0  0  0  0  0  0  0  0  0  0  0
   38.9960   27.6780   41.5040 N   0  0  0  0  0  0  0  0  0  0  0  0
   39.0270   28.9900   41.8380 C   0  0  0  0  0  0  0  0  0  0  0  0
   38.2160   29.4500   42.8280 N   0  0  0  0  0  0  0  0  0  0  0  0
   36.7310   28.9570   44.2670 H   0  0  0  0  0  0  0  0  0  0  0  0
   36.6670   26.6290   43.6860 H   0  0  0  0  0  0  0  0  0  0  0  0
   39.7130   29.6210   41.2870 H   0  0  0  0  0  0  0  0  0  0  0  0
   36.8810   25.4200   37.4110 O   0  0  0  0  0  0  0  0  0  0  0  0
   37.1410   26.4200   38.5140 P   0  0  2  0  0  0  0  0  0  0  0  0
   38.8040   26.7560   38.4650 O   0  0  0  0  0  0  0  0  0  0  0  0
   39.2910   25.9480   38.8070 H   0  0  0  0  0  0  0  0  0  0  0  0
   36.3520   27.8370   38.0430 O   0  0  0  0  0  0  0  0  0  0  0  0
   36.0380   29.5480   39.7970 C   0  0  0  0  0  0  0  0  0  0  0  0
   36.4820   29.0820   38.5900 C   0  0  0  0  0  0  0  0  0  0  0  0
   37.1720   29.9780   37.7660 C   0  0  0  0  0  0  0  0  0  0  0  0
   37.5990   29.7880   36.7730 H   0  0  0  0  0  0  0  0  0  0  0  0
   37.3820   31.2810   38.1870 C   0  0  0  0  0  3  0  0  0  0  0  0
   36.9270   31.7220   39.4020 C   0  0  0  0  0  3  0  0  0  0  0  0
   36.2360   30.8370   40.2350 C   0  0  0  0  0  0  0  0  0  0  0  0
   35.3620   28.6120   40.5680 O   0  0  0  0  0  0  0  0  0  0  0  0
   35.3140   28.7440   41.5790 H   0  0  0  0  0  0  0  0  0  0  0  0
   35.7090   31.1300   41.4980 O   0  0  0  0  0  0  0  0  0  0  0  0
   34.9950   31.8600   41.5770 H   0  0  0  0  0  0  0  0  0  0  0  0
  1  4  1  0  0  0  0
  2  5  1  1  0  0  0
  2  3  1  0  0  0  0
  2 11  1  0  0  0  0
  3  7  1  0  0  0  0
  3  6  1  0  0  0  0
  4  8  1  6  0  0  0
  4  2  1  0  0  0  0
  4  3  1  0  0  0  0
  9 15  1  0  0  0  0
 10  9  1  0  0  0  0
 10 16  1  0  0  0  0
 11 10  2  0  0  0  0
 12 13  2  0  0  0  0
 12 11  1  0  0  0  0
 13 14  1  0  0  0  0
 14  9  2  0  0  0  0
 17 13  1  0  0  0  0
 19 18  2  6  0  0  0
 19  1  1  0  0  0  0
 20 19  1  0  0  0  0
 20 21  1  0  0  0  0
 22 19  1  0  0  0  0
 22 24  1  0  0  0  0
 23 29  1  0  0  0  0
 23 30  1  0  0  0  0
 24 23  2  0  0  0  0
 25 27  2  0  0  0  0
 25 24  1  0  0  0  0
 26 25  1  0  0  0  0
 27 28  1  0  0  0  0
 28 29  2  0  0  0  0
 29 32  1  0  0  0  0
 30 31  1  0  0  0  0
 32 33  1  0  0  0  0
M  END
>  <minimizedAffinity>
-5.36506939

$$$$

 OpenBabel03252501043D

 33 35  0  0  1  0  0  0  0  0999 V2000
   38.1010   28.5370   40.8570 O   0  0  0  0  0  0  0  0  0  0  0  0
   37.1940   27.9290   43.0090 C   0  0  1  0  0  0  0  0  0  0  0  0
   38.0790   29.0790   43.3140 C   0  0  0  0  0  0  0  0  0  0  0  0
   37.4210   28.9190   41.9500 C   0  0  1  0  0  0  0  0  0  0  0  0
   36.1610   27.8610   43.3960 H   0  0  0  0  0  0  0  0  0  0  0  0
   39.1610   29.0660   43.2540 H   0  0  0  0  0  0  0  0  0  0  0  0
   37.6190   29.8400   44.0110 H   0  0  0  0  0  0  0  0  0  0  0  0
   36.6320   29.6760   41.7670 H   0  0  0  0  0  0  0  0  0  0  0  0
   37.9920   24.3440   42.1070 C   0  0  0  0  0  0  0  0  0  0  0  0
   37.2850   25.5470   42.2060 C   0  0  0  0  0  0  0  0  0  0  0  0
   37.8990   26.6190   42.8640 C   0  0  0  0  0  0  0  0  0  0  0  0
   39.1500   26.4500   43.3790 N   0  0  0  0  0  0  0  0  0  0  0  0
   39.8150   25.2760   43.2700 C   0  0  0  0  0  0  0  0  0  0  0  0
   39.2280   24.2290   42.6330 N   0  0  0  0  0  0  0  0  0  0  0  0
   37.5080   23.5300   41.5980 H   0  0  0  0  0  0  0  0  0  0  0  0
   36.3180   25.6060   41.7810 H   0  0  0  0  0  0  0  0  0  0  0  0
   40.8040   25.2300   43.7080 H   0  0  0  0  0  0  0  0  0  0  0  0
   35.8980   28.8230   39.4090 O   0  0  0  0  0  0  0  0  0  0  0  0
   37.4030   28.6870   39.3820 P   0  0  2  0  0  0  0  0  0  0  0  0
   37.7410   27.4000   38.3280 O   0  0  0  0  0  0  0  0  0  0  0  0
   37.4710   26.5490   38.7860 H   0  0  0  0  0  0  0  0  0  0  0  0
   37.9750   30.0850   38.6270 O   0  0  0  0  0  0  0  0  0  0  0  0
   39.2480   31.7200   39.9720 C   0  0  0  0  0  0  0  0  0  0  0  0
   38.1990   31.3060   39.1980 C   0  0  0  0  0  0  0  0  0  0  0  0
   37.1890   32.2360   38.9290 C   0  0  0  0  0  0  0  0  0  0  0  0
   36.2790   32.0890   38.3330 H   0  0  0  0  0  0  0  0  0  0  0  0
   37.2780   33.5200   39.4420 C   0  0  0  0  0  3  0  0  0  0  0  0
   38.3400   33.9090   40.2150 C   0  0  0  0  0  3  0  0  0  0  0  0
   39.3560   32.9900   40.4920 C   0  0  0  0  0  0  0  0  0  0  0  0
   40.2170   30.7530   40.2030 O   0  0  0  0  0  0  0  0  0  0  0  0
   41.1630   31.0480   40.4470 H   0  0  0  0  0  0  0  0  0  0  0  0
   40.5010   33.2290   41.2610 O   0  0  0  0  0  0  0  0  0  0  0  0
   40.3880   33.4940   42.2430 H   0  0  0  0  0  0  0  0  0  0  0  0
  1  4  1  0  0  0  0
  2  3  1  0  0  0  0
  2  5  1  1  0  0  0
  3  7  1  0  0  0  0
  4  8  1  6  0  0  0
  4  2  1  0  0  0  0
  4  3  1  0  0  0  0
  6  3  1  0  0  0  0
  9 10  2  0  0  0  0
  9 14  1  0  0  0  0
 10 11  1  0  0  0  0
 11  2  1  0  0  0  0
 11 12  2  0  0  0  0
 13 12  1  0  0  0  0
 13 17  1  0  0  0  0
 14 13  2  0  0  0  0
 15  9  1  0  0  0  0
 16 10  1  0  0  0  0
 19 18  2  1  0  0  0
 19  1  1  0  0  0  0
 20 21  1  0  0  0  0
 20 19  1  0  0  0  0
 22 24  1  0  0  0  0
 22 19  1  0  0  0  0
 23 30  1  0  0  0  0
 23 29  1  0  0  0  0
 24 23  2  0  0  0  0
 25 24  1  0  0  0  0
 25 27  2  0  0  0  0
 26 25  1  0  0  0  0
 27 28  1  0  0  0  0
 28 29  2  0  0  0  0
 29 32  1  0  0  0  0
 30 31  1  0  0  0  0
 32 33  1  0  0  0  0
M  END
>  <minimizedAffinity>
-5.35634279

$$$$
