
 OpenBabel03242514333D

 28 29  0  0  0  0  0  0  0  0999 V2000
   49.4110   35.4390   42.6970 O   0  0  0  0  0  0  0  0  0  0  0  0
   48.8720   34.2540   41.9530 P   0  0  1  0  0  0  0  0  0  0  0  0
   50.1750   33.2890   41.5170 O   0  0  0  0  0  0  0  0  0  0  0  0
   50.9680   33.8690   41.3790 H   0  0  0  0  0  0  0  0  0  0  0  0
   47.7800   33.3850   42.9420 O   0  0  0  0  0  0  0  0  0  0  0  0
   46.1560   35.1360   43.0260 C   0  0  0  0  0  0  0  0  0  0  0  0
   46.7550   34.0400   43.6260 C   0  0  0  0  0  0  0  0  0  0  0  0
   46.3040   33.6460   44.8870 C   0  0  0  0  0  0  0  0  0  0  0  0
   45.2970   34.3620   45.4610 N   0  0  0  0  0  0  0  0  0  0  0  0
   44.7400   35.4130   44.8550 C   0  0  0  0  0  0  0  0  0  0  0  0
   45.1720   35.7880   43.6510 N   0  0  0  0  0  0  0  0  0  0  0  0
   46.4540   35.5020   42.0430 H   0  0  0  0  0  0  0  0  0  0  0  0
   46.7820   32.7800   45.3530 H   0  0  0  0  0  0  0  0  0  0  0  0
   43.9580   35.8610   45.4510 H   0  0  0  0  0  0  0  0  0  0  0  0
   48.0990   34.7880   40.5740 O   0  0  0  0  0  0  0  0  0  0  0  0
   47.4360   34.0430   39.6690 C   0  0  0  0  0  0  0  0  0  0  0  0
   46.1890   33.9060   39.9900 O   0  0  0  0  0  0  0  0  0  0  0  0
   47.2400   32.0470   38.2000 C   0  0  0  0  0  0  0  0  0  0  0  0
   47.6660   33.3130   38.3870 C   0  0  0  0  0  0  0  0  0  0  0  0
   48.3450   33.9840   37.3610 C   0  0  0  0  0  0  0  0  0  0  0  0
   48.6840   35.0160   37.5350 H   0  0  0  0  0  0  0  0  0  0  0  0
   48.6190   33.4330   36.1410 C   0  0  0  0  0  3  0  0  0  0  0  0
   48.1940   32.1460   35.9300 C   0  0  0  0  0  3  0  0  0  0  0  0
   47.5280   31.4960   36.9450 C   0  0  0  0  0  0  0  0  0  0  0  0
   46.5660   31.3220   39.1620 O   0  0  0  0  0  0  0  0  0  0  0  0
   45.5920   31.5530   39.3970 H   0  0  0  0  0  0  0  0  0  0  0  0
   47.0780   30.1760   36.7650 O   0  0  0  0  0  0  0  0  0  0  0  0
   46.1440   29.9490   37.0860 H   0  0  0  0  0  0  0  0  0  0  0  0
  2  1  2  1  0  0  0
  2  5  1  0  0  0  0
  3  2  1  0  0  0  0
  4  3  1  0  0  0  0
  5  7  1  0  0  0  0
  6  7  2  0  0  0  0
  6 11  1  0  0  0  0
  7  8  1  0  0  0  0
  8 13  1  0  0  0  0
  8  9  2  0  0  0  0
 10 14  1  0  0  0  0
 10  9  1  0  0  0  0
 11 10  2  0  0  0  0
 12  6  1  0  0  0  0
 15  2  1  0  0  0  0
 16 17  2  0  0  0  0
 16 15  1  0  0  0  0
 18 19  1  0  0  0  0
 18 25  1  0  0  0  0
 19 16  1  0  0  0  0
 20 21  1  0  0  0  0
 20 19  2  0  0  0  0
 22 20  1  0  0  0  0
 23 22  2  0  0  0  0
 23 24  1  0  0  0  0
 24 18  2  0  0  0  0
 25 26  1  0  0  0  0
 27 24  1  0  0  0  0
 27 28  1  0  0  0  0
M  END
>  <minimizedAffinity>
-4.56646156

>  <minimizedRMSD>
1.35736167

$$$$
