
 OpenBabel03242516413D

 34 35  0  0  0  0  0  0  0  0999 V2000
   49.2000   33.6130   42.7050 C   0  0  0  0  0  0  0  0  0  0  0  0
   49.4030   33.8580   43.7670 H   0  0  0  0  0  0  0  0  0  0  0  0
   50.0040   34.1220   42.1320 H   0  0  0  0  0  0  0  0  0  0  0  0
   47.8900   34.1680   42.2310 C   0  0  0  0  0  0  0  0  0  0  0  0
   47.5350   33.5810   41.3770 H   0  0  0  0  0  0  0  0  0  0  0  0
   48.0330   35.2310   41.8790 H   0  0  0  0  0  0  0  0  0  0  0  0
   44.9070   35.0680   44.3390 C   0  0  0  0  0  0  0  0  0  0  0  0
   45.8240   35.0340   43.2520 C   0  0  0  0  0  0  0  0  0  0  0  0
   46.9360   34.2040   43.3610 C   0  0  0  0  0  0  0  0  0  0  0  0
   47.0970   33.4740   44.4810 N   0  0  0  0  0  0  0  0  0  0  0  0
   46.2020   33.5320   45.4980 C   0  0  0  0  0  0  0  0  0  0  0  0
   45.1160   34.3220   45.4270 N   0  0  0  0  0  0  0  0  0  0  0  0
   43.7710   35.8970   44.2600 N   0  0  0  0  0  0  0  0  0  0  0  0
   45.6690   35.6310   42.3640 H   0  0  0  0  0  0  0  0  0  0  0  0
   46.3350   32.9420   46.3970 H   0  0  0  0  0  0  0  0  0  0  0  0
   43.2410   36.1540   45.0960 H   0  0  0  0  0  0  0  0  0  0  0  0
   43.4710   36.2520   43.3150 H   0  0  0  0  0  0  0  0  0  0  0  0
   49.2580   32.2640   42.4470 O   0  0  0  0  0  0  0  0  0  0  0  0
   50.9690   30.4650   41.6150 O   0  0  0  0  0  0  0  0  0  0  0  0
   50.5120   31.8780   41.3700 P   0  0  2  0  0  0  0  0  0  0  0  0
   51.7320   33.0090   41.6010 O   0  0  0  0  0  0  0  0  0  0  0  0
   51.8010   33.6830   40.9060 H   0  0  0  0  0  0  0  0  0  0  0  0
   49.9400   32.0800   39.7810 O   0  0  0  0  0  0  0  0  0  0  0  0
   49.6930   31.4530   37.5780 C   0  0  0  0  0  0  0  0  0  0  0  0
   50.5760   31.6340   38.6480 C   0  0  0  0  0  0  0  0  0  0  0  0
   51.9140   31.3530   38.4360 C   0  0  0  0  0  0  0  0  0  0  0  0
   52.5240   31.5200   39.3130 H   0  0  0  0  0  0  0  0  0  0  0  0
   52.3470   30.9090   37.2030 C   0  0  0  0  0  3  0  0  0  0  0  0
   51.4750   30.7310   36.1490 C   0  0  0  0  0  3  0  0  0  0  0  0
   50.1500   31.0060   36.3480 C   0  0  0  0  0  0  0  0  0  0  0  0
   48.3180   31.6950   37.6430 O   0  0  0  0  0  0  0  0  0  0  0  0
   47.9390   31.8710   38.5760 H   0  0  0  0  0  0  0  0  0  0  0  0
   49.2810   30.8190   35.2670 O   0  0  0  0  0  0  0  0  0  0  0  0
   48.4970   31.4640   35.1300 H   0  0  0  0  0  0  0  0  0  0  0  0
  1  2  1  0  0  0  0
  3  1  1  0  0  0  0
  4  1  1  0  0  0  0
  4  9  1  0  0  0  0
  5  4  1  0  0  0  0
  6  4  1  0  0  0  0
  7 12  1  0  0  0  0
  8  9  1  0  0  0  0
  8  7  2  0  0  0  0
  9 10  2  0  0  0  0
 10 11  1  0  0  0  0
 11 15  1  0  0  0  0
 12 11  2  0  0  0  0
 13  7  1  0  0  0  0
 13 16  1  0  0  0  0
 14  8  1  0  0  0  0
 17 13  1  0  0  0  0
 18  1  1  0  0  0  0
 20 21  1  0  0  0  0
 20 19  2  1  0  0  0
 20 18  1  0  0  0  0
 22 21  1  0  0  0  0
 23 20  1  0  0  0  0
 24 31  1  0  0  0  0
 24 25  1  0  0  0  0
 25 23  1  0  0  0  0
 26 25  2  0  0  0  0
 26 27  1  0  0  0  0
 28 26  1  0  0  0  0
 29 30  1  0  0  0  0
 29 28  2  0  0  0  0
 30 24  2  0  0  0  0
 31 32  1  0  0  0  0
 33 30  1  0  0  0  0
 34 33  1  0  0  0  0
M  END
>  <minimizedAffinity>
-4.78776741

>  <minimizedRMSD>
0.78684473

$$$$
