
 OpenBabel03252509063D

 50 52  0  0  1  0  0  0  0  0999 V2000
   36.8110   29.7340   39.5860 N   0  0  0  0  0  0  0  0  0  0  0  0
   36.0670   28.8510   38.7830 C   0  0  0  0  0  0  0  0  0  0  0  0
   35.7960   29.3540   37.3790 C   0  0  0  0  0  0  0  0  0  0  0  0
   36.9320   30.1620   36.7930 C   0  0  0  0  0  0  0  0  0  0  0  0
   38.1200   30.2280   37.7390 C   0  0  0  0  0  0  0  0  0  0  0  0
   37.4780   30.8170   39.0600 C   0  0  2  0  0  0  0  0  0  0  0  0
   35.1050   28.5210   39.1790 H   0  0  0  0  0  0  0  0  0  0  0  0
   36.6700   27.9100   38.6430 H   0  0  0  0  0  0  0  0  0  0  0  0
   34.9190   30.0500   37.4920 H   0  0  0  0  0  0  0  0  0  0  0  0
   35.4780   28.5560   36.7100 H   0  0  0  0  0  0  0  0  0  0  0  0
   36.6590   31.1820   36.5020 H   0  0  0  0  0  0  0  0  0  0  0  0
   37.3120   29.6230   35.8770 H   0  0  0  0  0  0  0  0  0  0  0  0
   38.8410   30.9460   37.3370 H   0  0  0  0  0  0  0  0  0  0  0  0
   38.5270   29.2440   37.9680 H   0  0  0  0  0  0  0  0  0  0  0  0
   36.9080   31.7000   38.7650 H   0  0  0  0  0  0  0  0  0  0  0  0
   36.3880   29.7870   40.9630 C   0  0  0  0  0  0  0  0  0  0  0  0
   37.1790   30.2470   41.5760 H   0  0  0  0  0  0  0  0  0  0  0  0
   35.4900   30.4360   41.0150 H   0  0  0  0  0  0  0  0  0  0  0  0
   36.0520   28.4100   41.3990 C   0  0  0  0  0  0  0  0  0  0  0  0
   35.7720   27.7430   40.5400 H   0  0  0  0  0  0  0  0  0  0  0  0
   35.1860   28.3560   42.0870 H   0  0  0  0  0  0  0  0  0  0  0  0
   38.4780   25.8070   42.6040 C   0  0  0  0  0  0  0  0  0  0  0  0
   37.3640   26.4230   42.0070 C   0  0  0  0  0  0  0  0  0  0  0  0
   37.2360   27.7880   42.0350 C   0  0  0  0  0  0  0  0  0  0  0  0
   38.2070   28.4780   42.6450 N   0  0  0  0  0  0  0  0  0  0  0  0
   39.2690   27.8970   43.2130 C   0  0  0  0  0  0  0  0  0  0  0  0
   39.4240   26.5650   43.2050 N   0  0  0  0  0  0  0  0  0  0  0  0
   38.4760   24.7150   42.5220 H   0  0  0  0  0  0  0  0  0  0  0  0
   36.5780   25.8390   41.5120 H   0  0  0  0  0  0  0  0  0  0  0  0
   40.0670   28.4470   43.7140 H   0  0  0  0  0  0  0  0  0  0  0  0
   38.6320   31.1370   39.7720 O   0  0  0  0  0  0  0  0  0  0  0  0
   39.1020   33.4070   41.0900 O   0  0  0  0  0  0  0  0  0  0  0  0
   38.9930   32.7810   39.6910 P   0  0  2  0  0  0  0  0  0  0  0  0
   37.6400   33.5290   38.9770 O   0  0  0  0  0  0  0  0  0  0  0  0
   37.7330   33.3280   37.9970 H   0  0  0  0  0  0  0  0  0  0  0  0
   40.3320   33.1060   38.7490 O   0  0  0  0  0  0  0  0  0  0  0  0
   40.9280   34.2680   39.2080 C   0  0  0  0  0  0  0  0  0  0  0  0
   40.6680   34.5220   40.2450 H   0  0  0  0  0  0  0  0  0  0  0  0
   40.6450   35.1550   38.5820 H   0  0  0  0  0  0  0  0  0  0  0  0
   43.0770   34.0020   37.8810 C   0  0  0  0  0  0  0  0  0  0  0  0
   42.4020   34.0850   39.0800 C   0  0  0  0  0  0  0  0  0  0  0  0
   43.1450   33.9890   40.2590 C   0  0  0  0  0  0  0  0  0  0  0  0
   42.6120   34.0530   41.2130 H   0  0  0  0  0  0  0  0  0  0  0  0
   44.5100   33.8170   40.3150 C   0  0  0  0  0  3  0  0  0  0  0  0
   45.1400   33.7400   39.0960 C   0  0  0  0  0  3  0  0  0  0  0  0
   44.4570   33.8280   37.8990 C   0  0  0  0  0  0  0  0  0  0  0  0
   42.2920   34.1040   36.7420 O   0  0  0  0  0  0  0  0  0  0  0  0
   42.0520   35.0150   36.3460 H   0  0  0  0  0  0  0  0  0  0  0  0
   45.0990   33.7510   36.6620 O   0  0  0  0  0  0  0  0  0  0  0  0
   45.8500   33.0850   36.4890 H   0  0  0  0  0  0  0  0  0  0  0  0
  1 16  1  0  0  0  0
  2  7  1  0  0  0  0
  2  1  1  0  0  0  0
  3  9  1  0  0  0  0
  3  2  1  0  0  0  0
  4  3  1  0  0  0  0
  4  5  1  0  0  0  0
  5 14  1  0  0  0  0
  5  6  1  0  0  0  0
  6 15  1  6  0  0  0
  6  1  1  0  0  0  0
  6 31  1  0  0  0  0
  8  2  1  0  0  0  0
 10  3  1  0  0  0  0
 11  4  1  0  0  0  0
 12  4  1  0  0  0  0
 13  5  1  0  0  0  0
 16 18  1  0  0  0  0
 16 19  1  0  0  0  0
 16 17  1  0  0  0  0
 19 24  1  0  0  0  0
 19 21  1  0  0  0  0
 20 19  1  0  0  0  0
 22 27  1  0  0  0  0
 23 24  1  0  0  0  0
 23 22  2  0  0  0  0
 24 25  2  0  0  0  0
 25 26  1  0  0  0  0
 26 30  1  0  0  0  0
 27 26  2  0  0  0  0
 28 22  1  0  0  0  0
 29 23  1  0  0  0  0
 33 31  1  0  0  0  0
 33 32  2  1  0  0  0
 34 33  1  0  0  0  0
 35 34  1  0  0  0  0
 36 37  1  0  0  0  0
 36 33  1  0  0  0  0
 37 38  1  0  0  0  0
 39 37  1  0  0  0  0
 40 46  2  0  0  0  0
 40 41  1  0  0  0  0
 41 37  1  0  0  0  0
 41 42  2  0  0  0  0
 42 44  1  0  0  0  0
 42 43  1  0  0  0  0
 45 44  2  0  0  0  0
 46 45  1  0  0  0  0
 47 40  1  0  0  0  0
 48 47  1  0  0  0  0
 49 46  1  0  0  0  0
 50 49  1  0  0  0  0
M  END
>  <minimizedAffinity>
-6.13831091

$$$$

 OpenBabel03252509063D

 50 52  0  0  1  0  0  0  0  0999 V2000
   37.2220   26.3610   41.7140 N   0  0  0  0  0  0  0  0  0  0  0  0
   37.1200   25.0240   42.1380 C   0  0  0  0  0  0  0  0  0  0  0  0
   36.5820   24.0710   41.0900 C   0  0  0  0  0  0  0  0  0  0  0  0
   37.0210   24.4050   39.6820 C   0  0  0  0  0  0  0  0  0  0  0  0
   37.9620   25.5970   39.6560 C   0  0  0  0  0  0  0  0  0  0  0  0
   37.1210   26.7190   40.3890 C   0  0  2  0  0  0  0  0  0  0  0  0
   36.5400   24.8400   43.0440 H   0  0  0  0  0  0  0  0  0  0  0  0
   38.1570   24.6490   42.3670 H   0  0  0  0  0  0  0  0  0  0  0  0
   35.4650   24.2080   41.1290 H   0  0  0  0  0  0  0  0  0  0  0  0
   36.7780   23.0300   41.3400 H   0  0  0  0  0  0  0  0  0  0  0  0
   36.1990   24.5930   38.9830 H   0  0  0  0  0  0  0  0  0  0  0  0
   37.6280   23.5380   39.2870 H   0  0  0  0  0  0  0  0  0  0  0  0
   38.1210   25.8890   38.6130 H   0  0  0  0  0  0  0  0  0  0  0  0
   38.8720   25.4240   40.2300 H   0  0  0  0  0  0  0  0  0  0  0  0
   36.1370   26.7320   39.9150 H   0  0  0  0  0  0  0  0  0  0  0  0
   36.8720   27.3330   42.7200 C   0  0  0  0  0  0  0  0  0  0  0  0
   36.5910   28.2820   42.2350 H   0  0  0  0  0  0  0  0  0  0  0  0
   35.9860   26.9490   43.2660 H   0  0  0  0  0  0  0  0  0  0  0  0
   38.0220   27.4800   43.6440 C   0  0  0  0  0  0  0  0  0  0  0  0
   38.6080   26.5280   43.7560 H   0  0  0  0  0  0  0  0  0  0  0  0
   37.7340   27.7520   44.6780 H   0  0  0  0  0  0  0  0  0  0  0  0
   41.1720   29.0410   42.3220 C   0  0  0  0  0  0  0  0  0  0  0  0
   40.2560   28.1050   42.8330 C   0  0  0  0  0  0  0  0  0  0  0  0
   38.9660   28.4860   43.1060 C   0  0  0  0  0  0  0  0  0  0  0  0
   38.6430   29.7610   42.8640 N   0  0  0  0  0  0  0  0  0  0  0  0
   39.5110   30.6540   42.3770 C   0  0  0  0  0  0  0  0  0  0  0  0
   40.7790   30.3160   42.1000 N   0  0  0  0  0  0  0  0  0  0  0  0
   42.1700   28.6290   42.1420 H   0  0  0  0  0  0  0  0  0  0  0  0
   40.5400   27.0640   43.0260 H   0  0  0  0  0  0  0  0  0  0  0  0
   39.2610   31.6970   42.1750 H   0  0  0  0  0  0  0  0  0  0  0  0
   37.8830   27.8430   40.0750 O   0  0  0  0  0  0  0  0  0  0  0  0
   36.1650   29.8730   40.2690 O   0  0  0  0  0  0  0  0  0  0  0  0
   36.9780   29.0210   39.2800 P   0  0  2  0  0  0  0  0  0  0  0  0
   35.8150   28.1860   38.3580 O   0  0  0  0  0  0  0  0  0  0  0  0
   36.3240   27.8540   37.5590 H   0  0  0  0  0  0  0  0  0  0  0  0
   37.8950   29.9590   38.2470 O   0  0  0  0  0  0  0  0  0  0  0  0
   37.3500   31.2300   38.1970 C   0  0  0  0  0  0  0  0  0  0  0  0
   36.3660   31.3120   38.6800 H   0  0  0  0  0  0  0  0  0  0  0  0
   37.2170   31.5830   37.1400 H   0  0  0  0  0  0  0  0  0  0  0  0
   38.0320   32.9370   39.9480 C   0  0  0  0  0  0  0  0  0  0  0  0
   38.3210   32.1490   38.8540 C   0  0  0  0  0  0  0  0  0  0  0  0
   39.6110   32.2160   38.3200 C   0  0  0  0  0  0  0  0  0  0  0  0
   39.8420   31.5930   37.4520 H   0  0  0  0  0  0  0  0  0  0  0  0
   40.6210   33.0140   38.8070 C   0  0  0  0  0  3  0  0  0  0  0  0
   40.2870   33.7810   39.8970 C   0  0  0  0  0  3  0  0  0  0  0  0
   39.0300   33.7570   40.4670 C   0  0  0  0  0  0  0  0  0  0  0  0
   36.7390   32.8330   40.4380 O   0  0  0  0  0  0  0  0  0  0  0  0
   36.4870   32.1070   41.1120 H   0  0  0  0  0  0  0  0  0  0  0  0
   38.6930   34.5360   41.5750 O   0  0  0  0  0  0  0  0  0  0  0  0
   39.0050   35.5010   41.6660 H   0  0  0  0  0  0  0  0  0  0  0  0
  1  2  1  0  0  0  0
  1 16  1  0  0  0  0
  2  8  1  0  0  0  0
  2  7  1  0  0  0  0
  3  9  1  0  0  0  0
  3 10  1  0  0  0  0
  3  2  1  0  0  0  0
  4  3  1  0  0  0  0
  5  4  1  0  0  0  0
  5 14  1  0  0  0  0
  5  6  1  0  0  0  0
  6 15  1  6  0  0  0
  6  1  1  0  0  0  0
 11  4  1  0  0  0  0
 12  4  1  0  0  0  0
 13  5  1  0  0  0  0
 16 18  1  0  0  0  0
 16 19  1  0  0  0  0
 17 16  1  0  0  0  0
 19 20  1  0  0  0  0
 19 21  1  0  0  0  0
 22 23  1  0  0  0  0
 23 29  1  0  0  0  0
 23 24  2  0  0  0  0
 24 19  1  0  0  0  0
 25 24  1  0  0  0  0
 26 25  2  0  0  0  0
 27 22  2  0  0  0  0
 27 26  1  0  0  0  0
 28 22  1  0  0  0  0
 30 26  1  0  0  0  0
 31  6  1  0  0  0  0
 33 31  1  0  0  0  0
 33 32  2  1  0  0  0
 34 33  1  0  0  0  0
 35 34  1  0  0  0  0
 36 33  1  0  0  0  0
 37 36  1  0  0  0  0
 37 38  1  0  0  0  0
 37 41  1  0  0  0  0
 39 37  1  0  0  0  0
 40 47  1  0  0  0  0
 40 46  1  0  0  0  0
 41 40  2  0  0  0  0
 42 44  2  0  0  0  0
 42 41  1  0  0  0  0
 43 42  1  0  0  0  0
 44 45  1  0  0  0  0
 45 46  2  0  0  0  0
 46 49  1  0  0  0  0
 47 48  1  0  0  0  0
 49 50  1  0  0  0  0
M  END
>  <minimizedAffinity>
-6.10741425

$$$$

 OpenBabel03252509063D

 50 52  0  0  1  0  0  0  0  0999 V2000
   39.7900   29.3340   42.1230 N   0  0  0  0  0  0  0  0  0  0  0  0
   40.6260   28.4570   42.8370 C   0  0  0  0  0  0  0  0  0  0  0  0
   42.0860   28.8650   42.8660 C   0  0  0  0  0  0  0  0  0  0  0  0
   42.2990   30.3600   42.9280 C   0  0  0  0  0  0  0  0  0  0  0  0
   40.9810   31.1120   43.0110 C   0  0  0  0  0  0  0  0  0  0  0  0
   40.2030   30.5890   41.7360 C   0  0  2  0  0  0  0  0  0  0  0  0
   40.6090   27.4090   42.5360 H   0  0  0  0  0  0  0  0  0  0  0  0
   40.3020   28.4640   43.9150 H   0  0  0  0  0  0  0  0  0  0  0  0
   42.4980   28.5130   41.8790 H   0  0  0  0  0  0  0  0  0  0  0  0
   42.6440   28.3420   43.6410 H   0  0  0  0  0  0  0  0  0  0  0  0
   42.8840   30.7690   42.0970 H   0  0  0  0  0  0  0  0  0  0  0  0
   42.8390   30.6000   43.8900 H   0  0  0  0  0  0  0  0  0  0  0  0
   41.1850   32.1810   42.8960 H   0  0  0  0  0  0  0  0  0  0  0  0
   40.4030   30.8450   43.8950 H   0  0  0  0  0  0  0  0  0  0  0  0
   40.8870   30.6860   40.8900 H   0  0  0  0  0  0  0  0  0  0  0  0
   38.7600   28.6800   41.3540 C   0  0  0  0  0  0  0  0  0  0  0  0
   38.2260   29.4250   40.7430 H   0  0  0  0  0  0  0  0  0  0  0  0
   39.2540   27.9620   40.6700 H   0  0  0  0  0  0  0  0  0  0  0  0
   37.8650   27.9630   42.2940 C   0  0  0  0  0  0  0  0  0  0  0  0
   36.8630   28.4600   42.3970 H   0  0  0  0  0  0  0  0  0  0  0  0
   38.2540   27.9050   43.3290 H   0  0  0  0  0  0  0  0  0  0  0  0
   37.9040   24.2200   41.9780 C   0  0  0  0  0  0  0  0  0  0  0  0
   38.1410   25.5250   42.4430 C   0  0  0  0  0  0  0  0  0  0  0  0
   37.5980   26.5990   41.7830 C   0  0  0  0  0  0  0  0  0  0  0  0
   36.8520   26.3370   40.7040 N   0  0  0  0  0  0  0  0  0  0  0  0
   36.6220   25.0970   40.2590 C   0  0  0  0  0  0  0  0  0  0  0  0
   37.1380   24.0250   40.8790 N   0  0  0  0  0  0  0  0  0  0  0  0
   38.3850   23.4420   42.5800 H   0  0  0  0  0  0  0  0  0  0  0  0
   38.7570   25.7200   43.3290 H   0  0  0  0  0  0  0  0  0  0  0  0
   36.0160   24.8700   39.3810 H   0  0  0  0  0  0  0  0  0  0  0  0
   39.1590   31.5100   41.6910 O   0  0  0  0  0  0  0  0  0  0  0  0
   41.0050   33.0930   40.5970 O   0  0  0  0  0  0  0  0  0  0  0  0
   39.4970   32.8030   40.6650 P   0  0  2  0  0  0  0  0  0  0  0  0
   38.8150   34.1810   41.3960 O   0  0  0  0  0  0  0  0  0  0  0  0
   37.8340   34.1100   41.1940 H   0  0  0  0  0  0  0  0  0  0  0  0
   38.8220   32.6230   39.1480 O   0  0  0  0  0  0  0  0  0  0  0  0
   37.4550   32.8130   39.2440 C   0  0  0  0  0  0  0  0  0  0  0  0
   37.0480   33.5050   38.4930 H   0  0  0  0  0  0  0  0  0  0  0  0
   37.1620   33.2210   40.2470 H   0  0  0  0  0  0  0  0  0  0  0  0
   36.1050   30.8400   40.1010 C   0  0  0  0  0  0  0  0  0  0  0  0
   36.8160   31.4730   39.1040 C   0  0  0  0  0  0  0  0  0  0  0  0
   36.9520   30.8170   37.8780 C   0  0  0  0  0  0  0  0  0  0  0  0
   37.5170   31.3170   37.0860 H   0  0  0  0  0  0  0  0  0  0  0  0
   36.4260   29.5790   37.5880 C   0  0  0  0  0  3  0  0  0  0  0  0
   35.7260   28.9870   38.6110 C   0  0  0  0  0  3  0  0  0  0  0  0
   35.5590   29.5870   39.8440 C   0  0  0  0  0  0  0  0  0  0  0  0
   36.0000   31.5350   41.2970 O   0  0  0  0  0  0  0  0  0  0  0  0
   35.2590   32.2240   41.4440 H   0  0  0  0  0  0  0  0  0  0  0  0
   34.8450   28.9840   40.8810 O   0  0  0  0  0  0  0  0  0  0  0  0
   34.9300   27.9890   41.0820 H   0  0  0  0  0  0  0  0  0  0  0  0
  1  2  1  0  0  0  0
  2  3  1  0  0  0  0
  2  8  1  0  0  0  0
  3  4  1  0  0  0  0
  3 10  1  0  0  0  0
  4  5  1  0  0  0  0
  4 12  1  0  0  0  0
  5 14  1  0  0  0  0
  6 15  1  6  0  0  0
  6  1  1  0  0  0  0
  6  5  1  0  0  0  0
  7  2  1  0  0  0  0
  9  3  1  0  0  0  0
 11  4  1  0  0  0  0
 13  5  1  0  0  0  0
 16  1  1  0  0  0  0
 16 19  1  0  0  0  0
 17 16  1  0  0  0  0
 18 16  1  0  0  0  0
 19 20  1  0  0  0  0
 19 21  1  0  0  0  0
 22 23  1  0  0  0  0
 22 28  1  0  0  0  0
 23 29  1  0  0  0  0
 24 19  1  0  0  0  0
 24 23  2  0  0  0  0
 25 24  1  0  0  0  0
 26 25  2  0  0  0  0
 26 27  1  0  0  0  0
 27 22  2  0  0  0  0
 30 26  1  0  0  0  0
 31  6  1  0  0  0  0
 33 32  2  6  0  0  0
 33 34  1  0  0  0  0
 33 31  1  0  0  0  0
 35 34  1  0  0  0  0
 36 37  1  0  0  0  0
 36 33  1  0  0  0  0
 37 39  1  0  0  0  0
 38 37  1  0  0  0  0
 40 47  1  0  0  0  0
 41 37  1  0  0  0  0
 41 40  2  0  0  0  0
 42 41  1  0  0  0  0
 43 42  1  0  0  0  0
 44 42  2  0  0  0  0
 44 45  1  0  0  0  0
 45 46  2  0  0  0  0
 46 40  1  0  0  0  0
 46 49  1  0  0  0  0
 47 48  1  0  0  0  0
 49 50  1  0  0  0  0
M  END
>  <minimizedAffinity>
-5.94305706

$$$$

 OpenBabel03252509063D

 50 52  0  0  1  0  0  0  0  0999 V2000
   37.2730   29.1400   42.1050 N   0  0  0  0  0  0  0  0  0  0  0  0
   36.4440   28.0050   42.1600 C   0  0  0  0  0  0  0  0  0  0  0  0
   37.1770   26.6850   42.0320 C   0  0  0  0  0  0  0  0  0  0  0  0
   38.5400   26.6800   42.6860 C   0  0  0  0  0  0  0  0  0  0  0  0
   38.8340   27.9990   43.3810 C   0  0  0  0  0  0  0  0  0  0  0  0
   38.6420   29.0540   42.2180 C   0  0  2  0  0  0  0  0  0  0  0  0
   35.6190   27.9660   41.4470 H   0  0  0  0  0  0  0  0  0  0  0  0
   35.9620   27.9720   43.1770 H   0  0  0  0  0  0  0  0  0  0  0  0
   37.3410   26.5580   40.9250 H   0  0  0  0  0  0  0  0  0  0  0  0
   36.5680   25.8420   42.3560 H   0  0  0  0  0  0  0  0  0  0  0  0
   39.3680   26.4510   42.0060 H   0  0  0  0  0  0  0  0  0  0  0  0
   38.5350   25.9050   43.5070 H   0  0  0  0  0  0  0  0  0  0  0  0
   39.8810   27.9970   43.6980 H   0  0  0  0  0  0  0  0  0  0  0  0
   38.1150   28.2250   44.1680 H   0  0  0  0  0  0  0  0  0  0  0  0
   39.2240   28.6920   41.3680 H   0  0  0  0  0  0  0  0  0  0  0  0
   36.7090   30.2550   41.3840 C   0  0  0  0  0  0  0  0  0  0  0  0
   36.2960   30.9850   42.0980 H   0  0  0  0  0  0  0  0  0  0  0  0
   37.5310   30.7440   40.8250 H   0  0  0  0  0  0  0  0  0  0  0  0
   35.6880   29.7310   40.4450 C   0  0  0  0  0  0  0  0  0  0  0  0
   34.7080   30.2730   40.5300 H   0  0  0  0  0  0  0  0  0  0  0  0
   35.4320   28.6660   40.6090 H   0  0  0  0  0  0  0  0  0  0  0  0
   36.0900   29.2600   36.7400 C   0  0  0  0  0  0  0  0  0  0  0  0
   35.6690   29.0960   38.0710 C   0  0  0  0  0  0  0  0  0  0  0  0
   36.1480   29.9270   39.0510 C   0  0  0  0  0  0  0  0  0  0  0  0
   37.0130   30.8760   38.6750 N   0  0  0  0  0  0  0  0  0  0  0  0
   37.4160   31.0370   37.4110 C   0  0  0  0  0  0  0  0  0  0  0  0
   36.9680   30.2410   36.4280 N   0  0  0  0  0  0  0  0  0  0  0  0
   35.6450   28.5420   36.0440 H   0  0  0  0  0  0  0  0  0  0  0  0
   34.9590   28.3110   38.3600 H   0  0  0  0  0  0  0  0  0  0  0  0
   38.1210   31.8060   37.0910 H   0  0  0  0  0  0  0  0  0  0  0  0
   39.2050   30.1810   42.8130 O   0  0  0  0  0  0  0  0  0  0  0  0
   41.5860   29.5450   41.7950 O   0  0  0  0  0  0  0  0  0  0  0  0
   40.5920   30.6980   42.0070 P   0  0  2  0  0  0  0  0  0  0  0  0
   41.3820   31.7750   43.0630 O   0  0  0  0  0  0  0  0  0  0  0  0
   40.8600   32.6290   42.9830 H   0  0  0  0  0  0  0  0  0  0  0  0
   40.2530   31.5070   40.5860 O   0  0  0  0  0  0  0  0  0  0  0  0
   40.5500   30.6760   39.5190 C   0  0  0  0  0  0  0  0  0  0  0  0
   39.6930   30.4690   38.8640 H   0  0  0  0  0  0  0  0  0  0  0  0
   40.9370   29.6800   39.8640 H   0  0  0  0  0  0  0  0  0  0  0  0
   41.5060   32.5240   38.0630 C   0  0  0  0  0  0  0  0  0  0  0  0
   41.6400   31.3320   38.7430 C   0  0  0  0  0  0  0  0  0  0  0  0
   42.8810   30.6910   38.7020 C   0  0  0  0  0  0  0  0  0  0  0  0
   42.9900   29.7440   39.2400 H   0  0  0  0  0  0  0  0  0  0  0  0
   43.9860   31.1620   38.0300 C   0  0  0  0  0  3  0  0  0  0  0  0
   43.8050   32.3510   37.3680 C   0  0  0  0  0  3  0  0  0  0  0  0
   42.6020   33.0300   37.3720 C   0  0  0  0  0  0  0  0  0  0  0  0
   40.2550   33.1190   38.1360 O   0  0  0  0  0  0  0  0  0  0  0  0
   40.0080   33.7340   38.9140 H   0  0  0  0  0  0  0  0  0  0  0  0
   42.4210   34.2400   36.6990 O   0  0  0  0  0  0  0  0  0  0  0  0
   42.8110   34.4000   35.7730 H   0  0  0  0  0  0  0  0  0  0  0  0
  1  2  1  0  0  0  0
  1  6  1  0  0  0  0
  2  8  1  0  0  0  0
  3  2  1  0  0  0  0
  3 10  1  0  0  0  0
  3  4  1  0  0  0  0
  4  5  1  0  0  0  0
  4 12  1  0  0  0  0
  5 13  1  0  0  0  0
  5 14  1  0  0  0  0
  6 15  1  6  0  0  0
  6 31  1  0  0  0  0
  6  5  1  0  0  0  0
  7  2  1  0  0  0  0
  9  3  1  0  0  0  0
 11  4  1  0  0  0  0
 16 17  1  0  0  0  0
 16  1  1  0  0  0  0
 18 16  1  0  0  0  0
 19 20  1  0  0  0  0
 19 21  1  0  0  0  0
 19 16  1  0  0  0  0
 22 23  1  0  0  0  0
 23 29  1  0  0  0  0
 23 24  2  0  0  0  0
 24 19  1  0  0  0  0
 25 24  1  0  0  0  0
 26 25  2  0  0  0  0
 27 22  2  0  0  0  0
 27 26  1  0  0  0  0
 28 22  1  0  0  0  0
 30 26  1  0  0  0  0
 33 32  2  6  0  0  0
 33 31  1  0  0  0  0
 33 34  1  0  0  0  0
 35 34  1  0  0  0  0
 36 33  1  0  0  0  0
 37 39  1  0  0  0  0
 37 36  1  0  0  0  0
 38 37  1  0  0  0  0
 40 47  1  0  0  0  0
 40 41  1  0  0  0  0
 41 37  1  0  0  0  0
 42 41  2  0  0  0  0
 42 43  1  0  0  0  0
 44 42  1  0  0  0  0
 45 46  1  0  0  0  0
 45 44  2  0  0  0  0
 46 40  2  0  0  0  0
 47 48  1  0  0  0  0
 49 46  1  0  0  0  0
 50 49  1  0  0  0  0
M  END
>  <minimizedAffinity>
-5.91034365

$$$$

 OpenBabel03252509063D

 50 52  0  0  1  0  0  0  0  0999 V2000
   36.7050   25.9410   40.1810 N   0  0  0  0  0  0  0  0  0  0  0  0
   36.6230   24.7280   39.4750 C   0  0  0  0  0  0  0  0  0  0  0  0
   37.5750   23.6530   39.9600 C   0  0  0  0  0  0  0  0  0  0  0  0
   37.7940   23.6640   41.4550 C   0  0  0  0  0  0  0  0  0  0  0  0
   36.9480   24.7260   42.1380 C   0  0  0  0  0  0  0  0  0  0  0  0
   37.3730   26.0480   41.3800 C   0  0  2  0  0  0  0  0  0  0  0  0
   36.7500   24.7820   38.3920 H   0  0  0  0  0  0  0  0  0  0  0  0
   35.5950   24.2980   39.6330 H   0  0  0  0  0  0  0  0  0  0  0  0
   38.5610   23.9100   39.4790 H   0  0  0  0  0  0  0  0  0  0  0  0
   37.2990   22.6640   39.5970 H   0  0  0  0  0  0  0  0  0  0  0  0
   38.8380   23.8000   41.7600 H   0  0  0  0  0  0  0  0  0  0  0  0
   37.4300   22.6810   41.8720 H   0  0  0  0  0  0  0  0  0  0  0  0
   37.2590   24.7950   43.1850 H   0  0  0  0  0  0  0  0  0  0  0  0
   35.8800   24.5730   41.9840 H   0  0  0  0  0  0  0  0  0  0  0  0
   38.4640   26.0730   41.3800 H   0  0  0  0  0  0  0  0  0  0  0  0
   36.5700   27.1190   39.3600 C   0  0  0  0  0  0  0  0  0  0  0  0
   36.2370   27.9670   39.9800 H   0  0  0  0  0  0  0  0  0  0  0  0
   37.5720   27.3620   38.9520 H   0  0  0  0  0  0  0  0  0  0  0  0
   35.6270   26.8110   38.2570 C   0  0  0  0  0  0  0  0  0  0  0  0
   34.5540   26.8520   38.5860 H   0  0  0  0  0  0  0  0  0  0  0  0
   35.7490   25.7950   37.8340 H   0  0  0  0  0  0  0  0  0  0  0  0
   34.9460   28.8100   35.1510 C   0  0  0  0  0  0  0  0  0  0  0  0
   34.8340   27.8610   36.1820 C   0  0  0  0  0  0  0  0  0  0  0  0
   35.7700   27.8210   37.1840 C   0  0  0  0  0  0  0  0  0  0  0  0
   36.7640   28.7140   37.1240 N   0  0  0  0  0  0  0  0  0  0  0  0
   36.8750   29.6190   36.1470 C   0  0  0  0  0  0  0  0  0  0  0  0
   35.9790   29.6850   35.1510 N   0  0  0  0  0  0  0  0  0  0  0  0
   34.1460   28.7510   34.4060 H   0  0  0  0  0  0  0  0  0  0  0  0
   34.0110   27.1370   36.2130 H   0  0  0  0  0  0  0  0  0  0  0  0
   37.6810   30.3520   36.0860 H   0  0  0  0  0  0  0  0  0  0  0  0
   36.8150   27.0060   42.2240 O   0  0  0  0  0  0  0  0  0  0  0  0
   38.9410   27.2960   43.8070 O   0  0  0  0  0  0  0  0  0  0  0  0
   37.9790   28.0410   42.8670 P   0  0  2  0  0  0  0  0  0  0  0  0
   37.1420   29.1350   43.8670 O   0  0  0  0  0  0  0  0  0  0  0  0
   36.7270   29.7890   43.2280 H   0  0  0  0  0  0  0  0  0  0  0  0
   38.7910   28.9120   41.6970 O   0  0  0  0  0  0  0  0  0  0  0  0
   38.9980   30.1990   42.1630 C   0  0  0  0  0  0  0  0  0  0  0  0
   40.0520   30.4360   42.3630 H   0  0  0  0  0  0  0  0  0  0  0  0
   38.4420   30.3880   43.1190 H   0  0  0  0  0  0  0  0  0  0  0  0
   38.9600   32.3820   40.8670 C   0  0  0  0  0  0  0  0  0  0  0  0
   38.4500   31.1300   41.1370 C   0  0  0  0  0  0  0  0  0  0  0  0
   37.3400   30.7030   40.4030 C   0  0  0  0  0  0  0  0  0  0  0  0
   36.9320   29.7100   40.6160 H   0  0  0  0  0  0  0  0  0  0  0  0
   36.7150   31.4410   39.4240 C   0  0  0  0  0  3  0  0  0  0  0  0
   37.2580   32.6810   39.1890 C   0  0  0  0  0  3  0  0  0  0  0  0
   38.3530   33.1560   39.8830 C   0  0  0  0  0  0  0  0  0  0  0  0
   40.0610   32.7570   41.6230 O   0  0  0  0  0  0  0  0  0  0  0  0
   41.0080   32.4990   41.3400 H   0  0  0  0  0  0  0  0  0  0  0  0
   38.9050   34.4160   39.6420 O   0  0  0  0  0  0  0  0  0  0  0  0
   38.3210   35.2340   39.4790 H   0  0  0  0  0  0  0  0  0  0  0  0
  1  6  1  0  0  0  0
  2  8  1  0  0  0  0
  2  3  1  0  0  0  0
  2  1  1  0  0  0  0
  3  4  1  0  0  0  0
  4 11  1  0  0  0  0
  4 12  1  0  0  0  0
  4  5  1  0  0  0  0
  5 13  1  0  0  0  0
  6 15  1  6  0  0  0
  6  5  1  0  0  0  0
  6 31  1  0  0  0  0
  7  2  1  0  0  0  0
  9  3  1  0  0  0  0
 10  3  1  0  0  0  0
 14  5  1  0  0  0  0
 16 17  1  0  0  0  0
 16  1  1  0  0  0  0
 18 16  1  0  0  0  0
 19 20  1  0  0  0  0
 19 16  1  0  0  0  0
 21 19  1  0  0  0  0
 22 23  1  0  0  0  0
 23 29  1  0  0  0  0
 23 24  2  0  0  0  0
 24 19  1  0  0  0  0
 25 24  1  0  0  0  0
 26 25  2  0  0  0  0
 27 22  2  0  0  0  0
 27 26  1  0  0  0  0
 28 22  1  0  0  0  0
 30 26  1  0  0  0  0
 31 33  1  0  0  0  0
 33 32  2  1  0  0  0
 33 34  1  0  0  0  0
 35 34  1  0  0  0  0
 36 37  1  0  0  0  0
 36 33  1  0  0  0  0
 37 38  1  0  0  0  0
 37 39  1  0  0  0  0
 40 41  1  0  0  0  0
 40 47  1  0  0  0  0
 41 37  1  0  0  0  0
 42 43  1  0  0  0  0
 42 41  2  0  0  0  0
 44 42  1  0  0  0  0
 45 44  2  0  0  0  0
 45 46  1  0  0  0  0
 46 40  2  0  0  0  0
 48 47  1  0  0  0  0
 49 46  1  0  0  0  0
 50 49  1  0  0  0  0
M  END
>  <minimizedAffinity>
-5.85773659

$$$$

 OpenBabel03252509063D

 50 52  0  0  1  0  0  0  0  0999 V2000
   37.4700   28.2970   38.4360 N   0  0  0  0  0  0  0  0  0  0  0  0
   36.7850   27.2540   37.7880 C   0  0  0  0  0  0  0  0  0  0  0  0
   35.2840   27.2600   38.0010 C   0  0  0  0  0  0  0  0  0  0  0  0
   34.6860   28.6460   38.0820 C   0  0  0  0  0  0  0  0  0  0  0  0
   35.7360   29.7230   37.8650 C   0  0  0  0  0  0  0  0  0  0  0  0
   36.8150   29.3830   38.9710 C   0  0  2  0  0  0  0  0  0  0  0  0
   37.1200   26.2380   38.0040 H   0  0  0  0  0  0  0  0  0  0  0  0
   36.9210   27.3830   36.6770 H   0  0  0  0  0  0  0  0  0  0  0  0
   35.1390   26.7780   39.0090 H   0  0  0  0  0  0  0  0  0  0  0  0
   34.7630   26.6340   37.2780 H   0  0  0  0  0  0  0  0  0  0  0  0
   34.1560   28.8570   39.0160 H   0  0  0  0  0  0  0  0  0  0  0  0
   33.9570   28.7650   37.2280 H   0  0  0  0  0  0  0  0  0  0  0  0
   35.2850   30.6950   38.0870 H   0  0  0  0  0  0  0  0  0  0  0  0
   36.2140   29.6500   36.8880 H   0  0  0  0  0  0  0  0  0  0  0  0
   36.2730   29.2670   39.9120 H   0  0  0  0  0  0  0  0  0  0  0  0
   38.7430   27.9150   38.9970 C   0  0  0  0  0  0  0  0  0  0  0  0
   39.4680   27.7460   38.1850 H   0  0  0  0  0  0  0  0  0  0  0  0
   39.1060   28.7610   39.6150 H   0  0  0  0  0  0  0  0  0  0  0  0
   38.5370   26.7140   39.8410 C   0  0  0  0  0  0  0  0  0  0  0  0
   39.4450   26.0550   39.8790 H   0  0  0  0  0  0  0  0  0  0  0  0
   37.7260   26.0490   39.4850 H   0  0  0  0  0  0  0  0  0  0  0  0
   36.7510   27.2590   43.1010 C   0  0  0  0  0  0  0  0  0  0  0  0
   37.0320   26.8750   41.7780 C   0  0  0  0  0  0  0  0  0  0  0  0
   38.2680   27.1280   41.2370 C   0  0  0  0  0  0  0  0  0  0  0  0
   39.1620   27.7400   42.0220 N   0  0  0  0  0  0  0  0  0  0  0  0
   38.9000   28.1050   43.2810 C   0  0  0  0  0  0  0  0  0  0  0  0
   37.7020   27.8750   43.8400 N   0  0  0  0  0  0  0  0  0  0  0  0
   35.7360   27.0090   43.4270 H   0  0  0  0  0  0  0  0  0  0  0  0
   36.2850   26.3750   41.1500 H   0  0  0  0  0  0  0  0  0  0  0  0
   39.6190   28.6050   43.9300 H   0  0  0  0  0  0  0  0  0  0  0  0
   37.5810   30.5470   38.9330 O   0  0  0  0  0  0  0  0  0  0  0  0
   36.9710   30.4680   41.5270 O   0  0  0  0  0  0  0  0  0  0  0  0
   37.6620   31.3020   40.4360 P   0  0  2  0  0  0  0  0  0  0  0  0
   36.7280   32.7200   40.3070 O   0  0  0  0  0  0  0  0  0  0  0  0
   37.3180   33.3620   39.8080 H   0  0  0  0  0  0  0  0  0  0  0  0
   39.2170   31.7340   40.8640 O   0  0  0  0  0  0  0  0  0  0  0  0
   39.3320   33.1110   40.7980 C   0  0  0  0  0  0  0  0  0  0  0  0
   39.3430   33.6050   41.7800 H   0  0  0  0  0  0  0  0  0  0  0  0
   38.4870   33.5710   40.2200 H   0  0  0  0  0  0  0  0  0  0  0  0
   40.7530   33.2670   38.6990 C   0  0  0  0  0  0  0  0  0  0  0  0
   40.5910   33.4120   40.0610 C   0  0  0  0  0  0  0  0  0  0  0  0
   41.6820   33.8690   40.8050 C   0  0  0  0  0  0  0  0  0  0  0  0
   41.5580   33.9840   41.8860 H   0  0  0  0  0  0  0  0  0  0  0  0
   42.9130   34.1880   40.2780 C   0  0  0  0  0  3  0  0  0  0  0  0
   43.0270   34.0280   38.9180 C   0  0  0  0  0  3  0  0  0  0  0  0
   41.9840   33.5800   38.1320 C   0  0  0  0  0  0  0  0  0  0  0  0
   39.6400   32.8100   38.0090 O   0  0  0  0  0  0  0  0  0  0  0  0
   38.9200   33.4570   37.6800 H   0  0  0  0  0  0  0  0  0  0  0  0
   42.1010   33.4190   36.7500 O   0  0  0  0  0  0  0  0  0  0  0  0
   42.9390   33.0260   36.3260 H   0  0  0  0  0  0  0  0  0  0  0  0
  1  6  1  0  0  0  0
  1 16  1  0  0  0  0
  2  3  1  0  0  0  0
  2  7  1  0  0  0  0
  2  1  1  0  0  0  0
  3  4  1  0  0  0  0
  3  9  1  0  0  0  0
  4 11  1  0  0  0  0
  5  4  1  0  0  0  0
  5 13  1  0  0  0  0
  5  6  1  0  0  0  0
  6 15  1  1  0  0  0
  8  2  1  0  0  0  0
 10  3  1  0  0  0  0
 12  4  1  0  0  0  0
 14  5  1  0  0  0  0
 16 18  1  0  0  0  0
 16 19  1  0  0  0  0
 17 16  1  0  0  0  0
 19 20  1  0  0  0  0
 19 24  1  0  0  0  0
 21 19  1  0  0  0  0
 22 28  1  0  0  0  0
 22 27  1  0  0  0  0
 23 22  2  0  0  0  0
 24 23  1  0  0  0  0
 24 25  2  0  0  0  0
 25 26  1  0  0  0  0
 26 27  2  0  0  0  0
 26 30  1  0  0  0  0
 29 23  1  0  0  0  0
 31  6  1  0  0  0  0
 31 33  1  0  0  0  0
 33 36  1  0  0  0  0
 33 32  2  1  0  0  0
 34 33  1  0  0  0  0
 35 34  1  0  0  0  0
 37 36  1  0  0  0  0
 37 38  1  0  0  0  0
 39 37  1  0  0  0  0
 40 41  1  0  0  0  0
 41 37  1  0  0  0  0
 41 42  2  0  0  0  0
 42 43  1  0  0  0  0
 44 42  1  0  0  0  0
 45 44  2  0  0  0  0
 46 40  2  0  0  0  0
 46 45  1  0  0  0  0
 47 40  1  0  0  0  0
 48 47  1  0  0  0  0
 49 46  1  0  0  0  0
 50 49  1  0  0  0  0
M  END
>  <minimizedAffinity>
-5.767838

$$$$

 OpenBabel03252509063D

 50 52  0  0  1  0  0  0  0  0999 V2000
   38.2270   29.3820   39.0530 N   0  0  0  0  0  0  0  0  0  0  0  0
   39.2240   30.3710   39.1260 C   0  0  0  0  0  0  0  0  0  0  0  0
   38.9890   31.5680   38.2270 C   0  0  0  0  0  0  0  0  0  0  0  0
   37.5320   31.9460   38.0850 C   0  0  0  0  0  0  0  0  0  0  0  0
   36.6380   31.0630   38.9400 C   0  0  0  0  0  0  0  0  0  0  0  0
   37.0140   29.6070   38.4450 C   0  0  2  0  0  0  0  0  0  0  0  0
   40.2500   30.0490   38.9430 H   0  0  0  0  0  0  0  0  0  0  0  0
   39.2250   30.7900   40.1720 H   0  0  0  0  0  0  0  0  0  0  0  0
   39.3440   31.2340   37.2120 H   0  0  0  0  0  0  0  0  0  0  0  0
   39.6040   32.4220   38.5070 H   0  0  0  0  0  0  0  0  0  0  0  0
   37.1580   31.9310   37.0560 H   0  0  0  0  0  0  0  0  0  0  0  0
   37.3960   32.9890   38.4940 H   0  0  0  0  0  0  0  0  0  0  0  0
   35.5950   31.2730   38.6810 H   0  0  0  0  0  0  0  0  0  0  0  0
   36.8730   31.1330   40.0010 H   0  0  0  0  0  0  0  0  0  0  0  0
   36.9600   29.6230   37.3540 H   0  0  0  0  0  0  0  0  0  0  0  0
   38.7260   28.0290   39.1160 C   0  0  0  0  0  0  0  0  0  0  0  0
   37.8850   27.3220   39.0420 H   0  0  0  0  0  0  0  0  0  0  0  0
   39.3880   27.8720   38.2410 H   0  0  0  0  0  0  0  0  0  0  0  0
   39.4940   27.8770   40.3750 C   0  0  0  0  0  0  0  0  0  0  0  0
   40.1790   28.7460   40.5690 H   0  0  0  0  0  0  0  0  0  0  0  0
   40.1580   26.9910   40.3910 H   0  0  0  0  0  0  0  0  0  0  0  0
   36.7900   26.6950   42.7000 C   0  0  0  0  0  0  0  0  0  0  0  0
   37.6870   26.7700   41.6200 C   0  0  0  0  0  0  0  0  0  0  0  0
   38.5600   27.8230   41.5240 C   0  0  0  0  0  0  0  0  0  0  0  0
   38.5100   28.7460   42.4910 N   0  0  0  0  0  0  0  0  0  0  0  0
   37.6600   28.6790   43.5200 C   0  0  0  0  0  0  0  0  0  0  0  0
   36.7920   27.6640   43.6450 N   0  0  0  0  0  0  0  0  0  0  0  0
   36.1410   25.8140   42.6750 H   0  0  0  0  0  0  0  0  0  0  0  0
   37.7120   26.0030   40.8360 H   0  0  0  0  0  0  0  0  0  0  0  0
   37.6080   29.4250   44.3150 H   0  0  0  0  0  0  0  0  0  0  0  0
   35.9780   28.8760   39.0220 O   0  0  0  0  0  0  0  0  0  0  0  0
   34.7330   26.9340   37.6840 O   0  0  0  0  0  0  0  0  0  0  0  0
   34.7950   28.4550   37.8980 P   0  0  2  0  0  0  0  0  0  0  0  0
   35.3100   29.0910   36.4050 O   0  0  0  0  0  0  0  0  0  0  0  0
   35.0910   30.0690   36.4630 H   0  0  0  0  0  0  0  0  0  0  0  0
   33.2980   29.1010   38.2570 O   0  0  0  0  0  0  0  0  0  0  0  0
   32.4320   28.8260   37.2130 C   0  0  0  0  0  0  0  0  0  0  0  0
   31.8630   27.8950   37.3410 H   0  0  0  0  0  0  0  0  0  0  0  0
   32.9760   28.7370   36.2360 H   0  0  0  0  0  0  0  0  0  0  0  0
   30.6890   30.4350   38.1200 C   0  0  0  0  0  0  0  0  0  0  0  0
   31.5000   29.9840   37.1010 C   0  0  0  0  0  0  0  0  0  0  0  0
   31.4450   30.6520   35.8750 C   0  0  0  0  0  0  0  0  0  0  0  0
   32.0870   30.2950   35.0640 H   0  0  0  0  0  0  0  0  0  0  0  0
   30.6390   31.7350   35.6060 C   0  0  0  0  0  3  0  0  0  0  0  0
   29.8490   32.1490   36.6510 C   0  0  0  0  0  3  0  0  0  0  0  0
   29.8600   31.5270   37.8840 C   0  0  0  0  0  0  0  0  0  0  0  0
   30.7810   29.7360   39.3140 O   0  0  0  0  0  0  0  0  0  0  0  0
   31.4930   29.9720   40.0090 H   0  0  0  0  0  0  0  0  0  0  0  0
   29.0570   31.9510   38.9450 O   0  0  0  0  0  0  0  0  0  0  0  0
   28.0910   32.2390   38.8030 H   0  0  0  0  0  0  0  0  0  0  0  0
  1 16  1  0  0  0  0
  1  2  1  0  0  0  0
  2  8  1  0  0  0  0
  3 10  1  0  0  0  0
  3  2  1  0  0  0  0
  4  3  1  0  0  0  0
  4 12  1  0  0  0  0
  4  5  1  0  0  0  0
  5 14  1  0  0  0  0
  6 15  1  6  0  0  0
  6  5  1  0  0  0  0
  6 31  1  0  0  0  0
  6  1  1  0  0  0  0
  7  2  1  0  0  0  0
  9  3  1  0  0  0  0
 11  4  1  0  0  0  0
 13  5  1  0  0  0  0
 16 19  1  0  0  0  0
 17 16  1  0  0  0  0
 18 16  1  0  0  0  0
 19 21  1  0  0  0  0
 19 20  1  0  0  0  0
 19 24  1  0  0  0  0
 22 27  1  0  0  0  0
 23 22  2  0  0  0  0
 24 23  1  0  0  0  0
 24 25  2  0  0  0  0
 25 26  1  0  0  0  0
 26 27  2  0  0  0  0
 26 30  1  0  0  0  0
 28 22  1  0  0  0  0
 29 23  1  0  0  0  0
 33 32  2  6  0  0  0
 33 36  1  0  0  0  0
 33 31  1  0  0  0  0
 34 35  1  0  0  0  0
 34 33  1  0  0  0  0
 37 38  1  0  0  0  0
 37 36  1  0  0  0  0
 39 37  1  0  0  0  0
 40 47  1  0  0  0  0
 41 37  1  0  0  0  0
 41 40  2  0  0  0  0
 42 41  1  0  0  0  0
 43 42  1  0  0  0  0
 44 42  2  0  0  0  0
 44 45  1  0  0  0  0
 45 46  2  0  0  0  0
 46 40  1  0  0  0  0
 46 49  1  0  0  0  0
 47 48  1  0  0  0  0
 50 49  1  0  0  0  0
M  END
>  <minimizedAffinity>
-5.72222471

$$$$

 OpenBabel03252509063D

 50 52  0  0  1  0  0  0  0  0999 V2000
   38.8710   29.0550   42.5230 N   0  0  0  0  0  0  0  0  0  0  0  0
   39.7380   28.1680   43.1850 C   0  0  0  0  0  0  0  0  0  0  0  0
   41.1880   28.2700   42.7570 C   0  0  0  0  0  0  0  0  0  0  0  0
   41.6270   29.6780   42.4260 C   0  0  0  0  0  0  0  0  0  0  0  0
   40.5120   30.6840   42.6630 C   0  0  0  0  0  0  0  0  0  0  0  0
   39.3350   30.1110   41.7730 C   0  0  2  0  0  0  0  0  0  0  0  0
   39.4820   27.1080   43.1420 H   0  0  0  0  0  0  0  0  0  0  0  0
   39.7390   28.4310   44.2800 H   0  0  0  0  0  0  0  0  0  0  0  0
   41.2450   27.6730   41.8040 H   0  0  0  0  0  0  0  0  0  0  0  0
   41.8620   27.7920   43.4660 H   0  0  0  0  0  0  0  0  0  0  0  0
   42.0030   29.8080   41.4060 H   0  0  0  0  0  0  0  0  0  0  0  0
   42.4480   29.9700   43.1440 H   0  0  0  0  0  0  0  0  0  0  0  0
   40.8290   31.6520   42.2630 H   0  0  0  0  0  0  0  0  0  0  0  0
   40.1780   30.7010   43.7000 H   0  0  0  0  0  0  0  0  0  0  0  0
   39.7560   29.9180   40.7840 H   0  0  0  0  0  0  0  0  0  0  0  0
   37.5790   28.4980   42.2030 C   0  0  0  0  0  0  0  0  0  0  0  0
   36.7860   29.1640   42.5770 H   0  0  0  0  0  0  0  0  0  0  0  0
   37.4980   28.4490   41.0980 H   0  0  0  0  0  0  0  0  0  0  0  0
   37.5050   27.1360   42.7840 C   0  0  0  0  0  0  0  0  0  0  0  0
   36.7260   27.0540   43.5880 H   0  0  0  0  0  0  0  0  0  0  0  0
   38.4430   26.8030   43.2710 H   0  0  0  0  0  0  0  0  0  0  0  0
   36.5450   25.7230   39.4380 C   0  0  0  0  0  0  0  0  0  0  0  0
   36.9150   26.6220   40.4540 C   0  0  0  0  0  0  0  0  0  0  0  0
   37.1160   26.1670   41.7330 C   0  0  0  0  0  0  0  0  0  0  0  0
   36.9460   24.8580   41.9480 N   0  0  0  0  0  0  0  0  0  0  0  0
   36.5960   23.9990   40.9850 C   0  0  0  0  0  0  0  0  0  0  0  0
   36.3900   24.4100   39.7240 N   0  0  0  0  0  0  0  0  0  0  0  0
   36.4110   26.1940   38.4590 H   0  0  0  0  0  0  0  0  0  0  0  0
   37.0490   27.6920   40.2580 H   0  0  0  0  0  0  0  0  0  0  0  0
   36.4530   22.9300   41.1460 H   0  0  0  0  0  0  0  0  0  0  0  0
   38.4670   31.2020   41.7830 O   0  0  0  0  0  0  0  0  0  0  0  0
   39.5190   32.7300   39.8680 O   0  0  0  0  0  0  0  0  0  0  0  0
   38.2930   31.8870   40.2540 P   0  0  2  0  0  0  0  0  0  0  0  0
   37.0120   33.0020   40.3760 O   0  0  0  0  0  0  0  0  0  0  0  0
   36.1850   32.4330   40.3570 H   0  0  0  0  0  0  0  0  0  0  0  0
   37.9050   30.7660   39.0790 O   0  0  0  0  0  0  0  0  0  0  0  0
   36.5400   30.8110   38.8540 C   0  0  0  0  0  0  0  0  0  0  0  0
   36.1620   31.8130   38.6080 H   0  0  0  0  0  0  0  0  0  0  0  0
   35.9600   30.4620   39.7490 H   0  0  0  0  0  0  0  0  0  0  0  0
   36.9010   29.8660   36.5240 C   0  0  0  0  0  0  0  0  0  0  0  0
   36.2480   29.8660   37.7390 C   0  0  0  0  0  0  0  0  0  0  0  0
   35.2420   28.9180   37.9420 C   0  0  0  0  0  0  0  0  0  0  0  0
   34.7220   28.9160   38.9050 H   0  0  0  0  0  0  0  0  0  0  0  0
   34.8500   27.9780   37.0160 C   0  0  0  0  0  3  0  0  0  0  0  0
   35.5280   28.0170   35.8210 C   0  0  0  0  0  3  0  0  0  0  0  0
   36.5310   28.9310   35.5640 C   0  0  0  0  0  0  0  0  0  0  0  0
   37.8900   30.8270   36.3750 O   0  0  0  0  0  0  0  0  0  0  0  0
   38.8460   30.6540   36.6930 H   0  0  0  0  0  0  0  0  0  0  0  0
   37.2190   28.9670   34.3500 O   0  0  0  0  0  0  0  0  0  0  0  0
   36.7410   28.8420   33.4600 H   0  0  0  0  0  0  0  0  0  0  0  0
  1  2  1  0  0  0  0
  2  8  1  0  0  0  0
  3  2  1  0  0  0  0
  3 10  1  0  0  0  0
  4  5  1  0  0  0  0
  4  3  1  0  0  0  0
  4 12  1  0  0  0  0
  5 14  1  0  0  0  0
  6 15  1  6  0  0  0
  6 31  1  0  0  0  0
  6  1  1  0  0  0  0
  6  5  1  0  0  0  0
  7  2  1  0  0  0  0
  9  3  1  0  0  0  0
 11  4  1  0  0  0  0
 13  5  1  0  0  0  0
 16  1  1  0  0  0  0
 16 17  1  0  0  0  0
 16 19  1  0  0  0  0
 18 16  1  0  0  0  0
 19 21  1  0  0  0  0
 19 20  1  0  0  0  0
 22 27  2  0  0  0  0
 22 23  1  0  0  0  0
 23 24  2  0  0  0  0
 24 25  1  0  0  0  0
 24 19  1  0  0  0  0
 26 30  1  0  0  0  0
 26 25  2  0  0  0  0
 27 26  1  0  0  0  0
 28 22  1  0  0  0  0
 29 23  1  0  0  0  0
 33 32  2  6  0  0  0
 33 34  1  0  0  0  0
 33 31  1  0  0  0  0
 35 34  1  0  0  0  0
 36 33  1  0  0  0  0
 37 36  1  0  0  0  0
 37 39  1  0  0  0  0
 38 37  1  0  0  0  0
 40 41  1  0  0  0  0
 41 42  2  0  0  0  0
 41 37  1  0  0  0  0
 42 43  1  0  0  0  0
 44 42  1  0  0  0  0
 45 44  2  0  0  0  0
 46 45  1  0  0  0  0
 46 40  2  0  0  0  0
 47 40  1  0  0  0  0
 47 48  1  0  0  0  0
 49 46  1  0  0  0  0
 50 49  1  0  0  0  0
M  END
>  <minimizedAffinity>
-5.69459677

$$$$

 OpenBabel03252509063D

 50 52  0  0  1  0  0  0  0  0999 V2000
   36.9020   26.3080   40.8560 N   0  0  0  0  0  0  0  0  0  0  0  0
   37.4310   25.1280   41.4080 C   0  0  0  0  0  0  0  0  0  0  0  0
   38.6160   25.3410   42.3280 C   0  0  0  0  0  0  0  0  0  0  0  0
   38.5300   26.6080   43.1480 C   0  0  0  0  0  0  0  0  0  0  0  0
   37.2270   27.3500   42.8990 C   0  0  0  0  0  0  0  0  0  0  0  0
   37.2400   27.5550   41.3300 C   0  0  2  0  0  0  0  0  0  0  0  0
   37.7270   24.3470   40.7060 H   0  0  0  0  0  0  0  0  0  0  0  0
   36.6400   24.6590   42.0580 H   0  0  0  0  0  0  0  0  0  0  0  0
   39.4960   25.4550   41.6350 H   0  0  0  0  0  0  0  0  0  0  0  0
   38.8190   24.4690   42.9490 H   0  0  0  0  0  0  0  0  0  0  0  0
   39.3630   27.3030   42.9960 H   0  0  0  0  0  0  0  0  0  0  0  0
   38.5050   26.3210   44.2400 H   0  0  0  0  0  0  0  0  0  0  0  0
   37.2860   28.3250   43.3910 H   0  0  0  0  0  0  0  0  0  0  0  0
   36.3520   26.7540   43.1580 H   0  0  0  0  0  0  0  0  0  0  0  0
   38.2150   27.9740   41.0770 H   0  0  0  0  0  0  0  0  0  0  0  0
   36.4770   26.1840   39.4830 C   0  0  0  0  0  0  0  0  0  0  0  0
   36.2610   25.1280   39.2570 H   0  0  0  0  0  0  0  0  0  0  0  0
   35.5380   26.7620   39.3680 H   0  0  0  0  0  0  0  0  0  0  0  0
   37.5380   26.7500   38.6160 C   0  0  0  0  0  0  0  0  0  0  0  0
   38.2100   25.9590   38.1870 H   0  0  0  0  0  0  0  0  0  0  0  0
   38.2260   27.4420   39.1420 H   0  0  0  0  0  0  0  0  0  0  0  0
   34.9900   28.4590   36.4500 C   0  0  0  0  0  0  0  0  0  0  0  0
   35.6000   27.8030   37.5330 C   0  0  0  0  0  0  0  0  0  0  0  0
   36.9210   27.4400   37.4600 C   0  0  0  0  0  0  0  0  0  0  0  0
   37.5730   27.7390   36.3320 N   0  0  0  0  0  0  0  0  0  0  0  0
   36.9980   28.3630   35.2990 C   0  0  0  0  0  0  0  0  0  0  0  0
   35.7080   28.7320   35.3360 N   0  0  0  0  0  0  0  0  0  0  0  0
   33.9350   28.7010   36.6170 H   0  0  0  0  0  0  0  0  0  0  0  0
   35.0470   27.5660   38.4500 H   0  0  0  0  0  0  0  0  0  0  0  0
   37.5180   28.6130   34.3730 H   0  0  0  0  0  0  0  0  0  0  0  0
   36.2070   28.4810   41.1960 O   0  0  0  0  0  0  0  0  0  0  0  0
   38.0200   30.3430   41.7910 O   0  0  0  0  0  0  0  0  0  0  0  0
   36.7840   30.0410   40.9280 P   0  0  2  0  0  0  0  0  0  0  0  0
   35.5780   31.0980   41.4990 O   0  0  0  0  0  0  0  0  0  0  0  0
   34.8810   31.0930   40.7760 H   0  0  0  0  0  0  0  0  0  0  0  0
   37.0490   30.3680   39.3120 O   0  0  0  0  0  0  0  0  0  0  0  0
   37.0150   31.7380   39.1240 C   0  0  0  0  0  0  0  0  0  0  0  0
   36.6010   32.2950   39.9760 H   0  0  0  0  0  0  0  0  0  0  0  0
   36.3990   32.0190   38.2290 H   0  0  0  0  0  0  0  0  0  0  0  0
   39.2260   31.6480   37.8780 C   0  0  0  0  0  0  0  0  0  0  0  0
   38.4140   32.1780   38.8570 C   0  0  0  0  0  0  0  0  0  0  0  0
   38.9350   33.1970   39.6600 C   0  0  0  0  0  0  0  0  0  0  0  0
   38.2930   33.6200   40.4380 H   0  0  0  0  0  0  0  0  0  0  0  0
   40.2050   33.7150   39.5450 C   0  0  0  0  0  3  0  0  0  0  0  0
   40.9770   33.1560   38.5560 C   0  0  0  0  0  3  0  0  0  0  0  0
   40.5170   32.1470   37.7330 C   0  0  0  0  0  0  0  0  0  0  0  0
   38.6610   30.6400   37.1110 O   0  0  0  0  0  0  0  0  0  0  0  0
   38.1000   30.8570   36.2850 H   0  0  0  0  0  0  0  0  0  0  0  0
   41.3040   31.5810   36.7280 O   0  0  0  0  0  0  0  0  0  0  0  0
   42.2900   31.3740   36.8730 H   0  0  0  0  0  0  0  0  0  0  0  0
  1  6  1  0  0  0  0
  1  2  1  0  0  0  0
  2  8  1  0  0  0  0
  2  3  1  0  0  0  0
  3 10  1  0  0  0  0
  3  4  1  0  0  0  0
  4 12  1  0  0  0  0
  5  4  1  0  0  0  0
  5 14  1  0  0  0  0
  5 13  1  0  0  0  0
  6 15  1  6  0  0  0
  6  5  1  0  0  0  0
  7  2  1  0  0  0  0
  9  3  1  0  0  0  0
 11  4  1  0  0  0  0
 16  1  1  0  0  0  0
 17 16  1  0  0  0  0
 18 16  1  0  0  0  0
 19 21  1  0  0  0  0
 19 16  1  0  0  0  0
 20 19  1  0  0  0  0
 22 28  1  0  0  0  0
 22 23  1  0  0  0  0
 23 29  1  0  0  0  0
 24 23  2  0  0  0  0
 24 19  1  0  0  0  0
 25 24  1  0  0  0  0
 26 27  1  0  0  0  0
 26 25  2  0  0  0  0
 27 22  2  0  0  0  0
 30 26  1  0  0  0  0
 31  6  1  0  0  0  0
 33 31  1  0  0  0  0
 33 34  1  0  0  0  0
 33 32  2  1  0  0  0
 35 34  1  0  0  0  0
 36 33  1  0  0  0  0
 37 36  1  0  0  0  0
 37 38  1  0  0  0  0
 39 37  1  0  0  0  0
 40 41  1  0  0  0  0
 41 37  1  0  0  0  0
 41 42  2  0  0  0  0
 42 43  1  0  0  0  0
 44 42  1  0  0  0  0
 45 44  2  0  0  0  0
 46 40  2  0  0  0  0
 46 45  1  0  0  0  0
 47 40  1  0  0  0  0
 48 47  1  0  0  0  0
 49 50  1  0  0  0  0
 49 46  1  0  0  0  0
M  END
>  <minimizedAffinity>
-5.6897707

$$$$
