
     RDKit          3D

 42 44  0  0  0  0  0  0  0  0999 V2000
   45.2885   35.6127   44.2133 C   0  0  0  0  0  0  0  0  0  0  0  0
   46.2450   34.8675   43.5188 C   0  0  0  0  0  0  0  0  0  0  0  0
   46.7097   33.6631   44.0840 C   0  0  0  0  0  0  0  0  0  0  0  0
   46.2042   33.3004   45.2602 N   0  0  0  0  0  0  0  0  0  0  0  0
   45.2781   34.0354   45.9172 C   0  0  0  0  0  0  0  0  0  0  0  0
   44.8186   35.1951   45.3927 N   0  0  0  0  0  0  0  0  0  0  0  0
   48.6869   33.7716   42.5805 C   0  0  2  0  0  0  0  0  0  0  0  0
   47.7005   32.9345   43.3155 C   0  0  2  0  0  0  0  0  0  0  0  0
   47.1609   32.1530   42.2525 O   0  0  0  0  0  0  0  0  0  0  0  0
   48.2947   31.6818   41.6293 C   0  0  0  0  0  0  0  0  0  0  0  0
   49.4254   32.6383   41.8368 C   0  0  1  0  0  0  0  0  0  0  0  0
   49.4920   34.5397   43.3638 O   0  0  0  0  0  0  0  0  0  0  0  0
   49.9494   33.1610   40.6563 O   0  0  0  0  0  0  0  0  0  0  0  0
   44.8077   36.9023   43.6048 C   0  0  0  0  0  0  0  0  0  0  0  0
   45.3133   39.2649   44.4605 C   0  0  0  0  0  0  0  0  0  0  0  0
   45.6448   39.6230   43.2979 O   0  0  0  0  0  0  0  0  0  0  0  0
   44.9102   37.9138   44.6278 N   0  0  0  0  0  0  0  0  0  0  0  0
   46.5845   35.2625   42.5655 H   0  0  0  0  0  0  0  0  0  0  0  0
   44.8671   33.7420   46.8716 H   0  0  0  0  0  0  0  0  0  0  0  0
   48.2285   34.3634   41.7535 H   0  0  0  0  0  0  0  0  0  0  0  0
   48.2708   32.2424   44.0004 H   0  0  0  0  0  0  0  0  0  0  0  0
   48.5212   30.6281   41.8642 H   0  0  0  0  0  0  0  0  0  0  0  0
   48.0744   31.6924   40.5306 H   0  0  0  0  0  0  0  0  0  0  0  0
   50.1720   32.1904   42.4967 H   0  0  0  0  0  0  0  0  0  0  0  0
   50.0812   33.9688   43.9123 H   0  0  0  0  0  0  0  0  0  0  0  0
   49.3013   32.8936   39.9371 H   0  0  0  0  0  0  0  0  0  0  0  0
   43.7365   36.7527   43.3200 H   0  0  0  0  0  0  0  0  0  0  0  0
   45.4021   37.1413   42.7186 H   0  0  0  0  0  0  0  0  0  0  0  0
   44.6593   37.6158   45.5963 H   0  0  0  0  0  0  0  0  0  0  0  0
   43.3801   41.2928   44.7218 O   0  0  0  0  0  0  0  0  0  0  0  0
   44.4142   41.2291   45.6497 C   0  0  0  0  0  0  0  0  0  0  0  0
   45.3650   40.2393   45.5292 C   0  0  0  0  0  0  0  0  0  0  0  0
   46.3386   40.2630   46.4903 C   0  0  0  0  0  0  0  0  0  0  0  0
   47.1277   39.5334   46.4863 H   0  0  0  0  0  0  0  0  0  0  0  0
   46.4224   41.1798   47.5296 C   0  0  0  0  0  0  0  0  0  0  0  0
   45.4474   42.1533   47.6099 C   0  0  0  0  0  0  0  0  0  0  0  0
   44.4356   42.1685   46.6528 C   0  0  0  0  0  0  0  0  0  0  0  0
   43.4664   43.1567   46.7539 O   0  0  0  0  0  0  0  0  0  0  0  0
   42.5195   41.7643   44.8786 H   0  0  0  0  0  0  0  0  0  0  0  0
   47.2224   41.1454   48.2631 H   0  0  0  0  0  0  0  0  0  0  0  0
   45.4556   42.8970   48.3955 H   0  0  0  0  0  0  0  0  0  0  0  0
   42.4829   42.8914   46.6462 H   0  0  0  0  0  0  0  0  0  0  0  0
  1  6  2  0
  2  3  2  0
  2  1  1  0
  3  4  1  0
  4  5  2  0
  6  5  1  0
  7  8  1  0
  7 12  1  0
  8  3  1  0
  9  8  1  0
 10 11  1  0
 10  9  1  0
 11  7  1  0
 13 11  1  0
 14  1  1  0
 14 17  1  0
 15 17  1  0
 16 15  2  0
  2 18  1  0
  5 19  1  0
  7 20  1  6
  8 21  1  1
 10 22  1  0
 10 23  1  0
 11 24  1  1
 12 25  1  0
 13 26  1  0
 14 27  1  0
 14 28  1  0
 17 29  1  0
 30 31  1  0
 31 32  2  0
 32 33  1  0
 33 34  1  0
 33 35  2  0
 35 36  1  0
 36 37  2  0
 37 38  1  0
 37 31  1  0
 30 39  1  0
 35 40  1  0
 36 41  1  0
 38 42  1  0
 15 32  1  0
M  ISO  8  18  14  19  14  20  13  21  13  22  13  23  13  24  13  25   3
M  ISO  4  26   3  27   8  28   8  34  16
M  END
>  <DihAtoms>  (1) 
16,14,31,30

>  <DihDeg>  (1) 
179.9984105178027

$$$$
