
 OpenBabel03242516413D

 34 35  0  0  0  0  0  0  0  0999 V2000
   46.5900   31.5010   43.7800 C   0  0  0  0  0  0  0  0  0  0  0  0
   46.1250   32.2850   44.4110 H   0  0  0  0  0  0  0  0  0  0  0  0
   45.7380   30.9160   43.3720 H   0  0  0  0  0  0  0  0  0  0  0  0
   47.4430   30.5580   44.5750 C   0  0  0  0  0  0  0  0  0  0  0  0
   48.4950   30.7090   44.3080 H   0  0  0  0  0  0  0  0  0  0  0  0
   47.1750   29.4930   44.3160 H   0  0  0  0  0  0  0  0  0  0  0  0
   45.7060   31.5360   47.7650 C   0  0  0  0  0  0  0  0  0  0  0  0
   45.9720   31.3590   46.3790 C   0  0  0  0  0  0  0  0  0  0  0  0
   47.1660   30.7440   46.0160 C   0  0  0  0  0  0  0  0  0  0  0  0
   48.0150   30.3450   46.9840 N   0  0  0  0  0  0  0  0  0  0  0  0
   47.7280   30.5320   48.2960 C   0  0  0  0  0  0  0  0  0  0  0  0
   46.5840   31.1220   48.6830 N   0  0  0  0  0  0  0  0  0  0  0  0
   44.5060   32.1550   48.1660 N   0  0  0  0  0  0  0  0  0  0  0  0
   45.2720   31.6880   45.6230 H   0  0  0  0  0  0  0  0  0  0  0  0
   48.4140   30.2100   49.0710 H   0  0  0  0  0  0  0  0  0  0  0  0
   44.3940   32.5370   49.1080 H   0  0  0  0  0  0  0  0  0  0  0  0
   43.7160   32.2180   47.4720 H   0  0  0  0  0  0  0  0  0  0  0  0
   47.3140   32.0180   42.7320 O   0  0  0  0  0  0  0  0  0  0  0  0
   49.3490   33.6600   42.8560 O   0  0  0  0  0  0  0  0  0  0  0  0
   47.8590   33.5930   43.0530 P   0  0  2  0  0  0  0  0  0  0  0  0
   47.3890   33.9720   44.6210 O   0  0  0  0  0  0  0  0  0  0  0  0
   46.6380   34.5830   44.6850 H   0  0  0  0  0  0  0  0  0  0  0  0
   47.0450   34.6670   42.0160 O   0  0  0  0  0  0  0  0  0  0  0  0
   44.8320   35.1280   42.4610 C   0  0  0  0  0  0  0  0  0  0  0  0
   45.7460   34.5260   41.5900 C   0  0  0  0  0  0  0  0  0  0  0  0
   45.2470   33.8950   40.4650 C   0  0  0  0  0  0  0  0  0  0  0  0
   46.0200   33.4580   39.8480 H   0  0  0  0  0  0  0  0  0  0  0  0
   43.8870   33.8700   40.2230 C   0  0  0  0  0  3  0  0  0  0  0  0
   42.9870   34.4630   41.0840 C   0  0  0  0  0  3  0  0  0  0  0  0
   43.4710   35.0900   42.1990 C   0  0  0  0  0  0  0  0  0  0  0  0
   45.1860   35.7990   43.6340 O   0  0  0  0  0  0  0  0  0  0  0  0
   46.1610   35.7030   43.9260 H   0  0  0  0  0  0  0  0  0  0  0  0
   42.5420   35.6860   43.0610 O   0  0  0  0  0  0  0  0  0  0  0  0
   42.7780   36.5640   43.5310 H   0  0  0  0  0  0  0  0  0  0  0  0
  1  2  1  0  0  0  0
  1  4  1  0  0  0  0
  3  1  1  0  0  0  0
  4  9  1  0  0  0  0
  5  4  1  0  0  0  0
  6  4  1  0  0  0  0
  7 13  1  0  0  0  0
  7 12  1  0  0  0  0
  8  7  2  0  0  0  0
  9  8  1  0  0  0  0
  9 10  2  0  0  0  0
 10 11  1  0  0  0  0
 11 12  2  0  0  0  0
 11 15  1  0  0  0  0
 13 16  1  0  0  0  0
 14  8  1  0  0  0  0
 17 13  1  0  0  0  0
 18 20  1  0  0  0  0
 18  1  1  0  0  0  0
 20 19  2  6  0  0  0
 20 21  1  0  0  0  0
 21 22  1  0  0  0  0
 23 20  1  0  0  0  0
 24 31  1  0  0  0  0
 25 23  1  0  0  0  0
 25 24  2  0  0  0  0
 26 25  1  0  0  0  0
 27 26  1  0  0  0  0
 28 26  2  0  0  0  0
 28 29  1  0  0  0  0
 29 30  2  0  0  0  0
 30 24  1  0  0  0  0
 30 33  1  0  0  0  0
 31 32  1  0  0  0  0
 33 34  1  0  0  0  0
M  END
>  <minimizedAffinity>
-5.09307575

>  <minimizedRMSD>
6.25325632

$$$$
