REMARK  Name = 
REMARK  9 active torsions:
REMARK  status: ('A' for Active; 'I' for Inactive)
REMARK    1  A    between atoms: C_1  and  C_4
REMARK    2  A    between atoms: C_1  and  C_9
REMARK    3  A    between atoms: C_9  and  O_10
REMARK    4  A    between atoms: O_10  and  P_12
REMARK    5  A    between atoms: P_12  and  O_13
REMARK    6  A    between atoms: P_12  and  O_14
REMARK    7  A    between atoms: O_14  and  C_26
REMARK    8  A    between atoms: O_24  and  C_25
REMARK    9  A    between atoms: C_31  and  O_32
REMARK                            x       y       z     vdW  Elec       q    Type
REMARK                         _______ _______ _______ _____ _____    ______ ____
ROOT
ATOM      1  C   UNL     1      49.175  33.593  42.732  0.00  0.00    +0.000 C 
ATOM      2  H   UNL     1      49.341  33.781  43.812  0.00  0.00    +0.000 HD
ATOM      3  H   UNL     1      49.981  34.156  42.214  0.00  0.00    +0.000 HD
ENDROOT
BRANCH   1   4
ATOM      4  C   UNL     1      47.864  34.141  42.252  0.00  0.00    +0.000 C 
ATOM      5  H   UNL     1      47.509  33.542  41.406  0.00  0.00    +0.000 HD
ATOM      6  H   UNL     1      48.006  35.199  41.885  0.00  0.00    +0.000 HD
BRANCH   4   9
ATOM      7  C   UNL     1      44.892  35.081  44.358  0.00  0.00    +0.000 A 
ATOM      8  C   UNL     1      45.808  35.033  43.271  0.00  0.00    +0.000 A 
ATOM      9  C   UNL     1      46.911  34.192  43.382  0.00  0.00    +0.000 A 
ATOM     10  N   UNL     1      47.065  33.464  44.505  0.00  0.00    +0.000 NA
ATOM     11  C   UNL     1      46.171  33.536  45.522  0.00  0.00    +0.000 A 
ATOM     12  N   UNL     1      45.094  34.337  45.449  0.00  0.00    +0.000 NA
ATOM     13  N   UNL     1      43.765  35.922  44.276  0.00  0.00    +0.000 N 
ATOM     14  H   UNL     1      45.659  35.628  42.380  0.00  0.00    +0.000 HD
ATOM     15  H   UNL     1      46.299  32.948  46.424  0.00  0.00    +0.000 HD
ATOM     16  H   UNL     1      43.239  36.188  45.112  0.00  0.00    +0.000 HD
ATOM     17  H   UNL     1      43.469  36.277  43.330  0.00  0.00    +0.000 HD
ENDBRANCH   4   9
ENDBRANCH   1   4
BRANCH   1  18
ATOM     18  O   UNL     1      49.278  32.264  42.398  0.00  0.00    +0.000 OA
BRANCH  18  20
ATOM     19  O   UNL     1      50.862  30.535  41.232  0.00  0.00    +0.000 OA
ATOM     20  P   UNL     1      50.488  31.993  41.239  0.00  0.00    +0.000 P 
BRANCH  20  21
ATOM     21  O   UNL     1      51.779  32.997  41.624  0.00  0.00    +0.000 OA
ATOM     22  H   UNL     1      51.878  33.773  41.050  0.00  0.00    +0.000 HD
ENDBRANCH  20  21
BRANCH  20  23
ATOM     23  O   UNL     1      49.904  32.493  39.722  0.00  0.00    +0.000 OA
BRANCH  23  25
ATOM     24  C   UNL     1      50.073  31.691  37.569  0.00  0.00    +0.000 A 
ATOM     25  C   UNL     1      50.634  32.506  38.558  0.00  0.00    +0.000 A 
ATOM     26  C   UNL     1      51.797  33.188  38.250  0.00  0.00    +0.000 A 
ATOM     27  H   UNL     1      52.162  33.792  39.069  0.00  0.00    +0.000 HD
ATOM     28  C   UNL     1      52.374  33.057  37.002  0.00  0.00    +0.000 A 
ATOM     29  C   UNL     1      51.819  32.253  36.028  0.00  0.00    +0.000 A 
ATOM     30  C   UNL     1      50.669  31.575  36.323  0.00  0.00    +0.000 A 
BRANCH  24  31
ATOM     31  O   UNL     1      48.903  30.944  37.734  0.00  0.00    +0.000 OA
ATOM     32  H   UNL     1      48.538  30.891  38.688  0.00  0.00    +0.000 HD
ENDBRANCH  24  31
BRANCH  30  33
ATOM     33  O   UNL     1      50.121  30.764  35.321  0.00  0.00    +0.000 OA
ATOM     34  H   UNL     1      49.105  30.695  35.225  0.00  0.00    +0.000 HD
ENDBRANCH  30  33
ENDBRANCH  23  25
ENDBRANCH  20  23
ENDBRANCH  18  20
ENDBRANCH   1  18
TORSDOF 9
