
 OpenBabel03252509273D

 32 34  0  0  1  0  0  0  0  0999 V2000
   46.8160   35.1400   41.8950 C   0  0  1  0  0  0  0  0  0  0  0  0
   48.3170   35.5470   41.9710 C   0  0  0  0  0  0  0  0  0  0  0  0
   47.7460   34.2830   41.2780 C   0  0  2  0  0  0  0  0  0  0  0  0
   46.2000   35.8670   41.3400 H   0  0  0  0  0  0  0  0  0  0  0  0
   48.8450   35.4380   42.9180 H   0  0  0  0  0  0  0  0  0  0  0  0
   48.5960   36.3810   41.3170 H   0  0  0  0  0  0  0  0  0  0  0  0
   48.1460   33.3470   41.7740 H   0  0  0  0  0  0  0  0  0  0  0  0
   44.8230   35.1350   45.0710 C   0  0  0  0  0  0  0  0  0  0  0  0
   45.2850   35.5650   43.7950 C   0  0  0  0  0  0  0  0  0  0  0  0
   46.2850   34.8160   43.2710 C   0  0  0  0  0  0  0  0  0  0  0  0
   46.8090   33.7220   43.9350 N   0  0  0  0  0  0  0  0  0  0  0  0
   46.3320   33.3560   45.1460 C   0  0  0  0  0  0  0  0  0  0  0  0
   45.3330   34.0680   45.7150 N   0  0  0  0  0  0  0  0  0  0  0  0
   44.0270   35.7020   45.5220 H   0  0  0  0  0  0  0  0  0  0  0  0
   46.8440   32.4850   45.5330 H   0  0  0  0  0  0  0  0  0  0  0  0
   44.7660   36.6940   43.1320 N   0  0  0  0  0  0  0  0  0  0  0  0
   43.7280   36.8600   43.1880 H   0  0  0  0  0  0  0  0  0  0  0  0
   45.4390   37.3230   42.6120 H   0  0  0  0  0  0  0  0  0  0  0  0
   47.8290   34.1780   39.7780 C   0  0  0  0  0  0  0  0  0  0  0  0
   46.8150   34.4430   39.4000 H   0  0  0  0  0  0  0  0  0  0  0  0
   48.5030   34.9890   39.4170 H   0  0  0  0  0  0  0  0  0  0  0  0
   48.9400   33.1010   38.0180 C   0  0  0  0  0  0  0  0  0  0  0  0
   48.3080   32.9020   39.2530 C   0  0  0  0  0  0  0  0  0  0  0  0
   48.2610   31.6070   39.7220 C   0  0  0  0  0  0  0  0  0  0  0  0
   47.7660   31.5380   40.6650 H   0  0  0  0  0  0  0  0  0  0  0  0
   48.8000   30.5510   39.0280 C   0  0  0  0  0  3  0  0  0  0  0  0
   49.4250   30.7600   37.8010 C   0  0  0  0  0  3  0  0  0  0  0  0
   49.4850   32.0400   37.3140 C   0  0  0  0  0  0  0  0  0  0  0  0
   49.1100   34.3150   37.3450 O   0  0  0  0  0  0  0  0  0  0  0  0
   49.7320   34.9850   37.7920 H   0  0  0  0  0  0  0  0  0  0  0  0
   50.1270   32.1430   36.0890 O   0  0  0  0  0  0  0  0  0  0  0  0
   50.3950   33.0970   35.8080 H   0  0  0  0  0  0  0  0  0  0  0  0
  1  4  1  6  0  0  0
  1  2  1  0  0  0  0
  1 10  1  0  0  0  0
  2  5  1  0  0  0  0
  3  7  1  1  0  0  0
  3  1  1  0  0  0  0
  3  2  1  0  0  0  0
  6  2  1  0  0  0  0
  8 14  1  0  0  0  0
  8 13  1  0  0  0  0
  9  8  2  0  0  0  0
 10  9  1  0  0  0  0
 10 11  2  0  0  0  0
 11 12  1  0  0  0  0
 12 15  1  0  0  0  0
 12 13  2  0  0  0  0
 16 17  1  0  0  0  0
 16  9  1  0  0  0  0
 18 16  1  0  0  0  0
 19  3  1  0  0  0  0
 20 19  1  0  0  0  0
 21 19  1  0  0  0  0
 22 23  1  0  0  0  0
 23 24  2  0  0  0  0
 23 19  1  0  0  0  0
 24 25  1  0  0  0  0
 26 24  1  0  0  0  0
 27 26  2  0  0  0  0
 28 27  1  0  0  0  0
 28 22  2  0  0  0  0
 29 30  1  0  0  0  0
 29 22  1  0  0  0  0
 31 28  1  0  0  0  0
 32 31  1  0  0  0  0
M  END
>  <minimizedAffinity>
-5.37004232

>  <minimizedRMSD>
0.438935786

$$$$
