
 OpenBabel03252507163D

 31 33  0  0  0  0  0  0  0  0999 V2000
   45.2450   36.0980   43.3110 C   0  0  0  0  0  0  0  0  0  0  0  0
   45.8730   34.8590   43.0320 C   0  0  0  0  0  0  0  0  0  0  0  0
   45.8520   33.8870   44.0330 C   0  0  0  0  0  0  0  0  0  0  0  0
   45.2510   34.1490   45.2040 N   0  0  0  0  0  0  0  0  0  0  0  0
   44.6490   35.3560   45.4490 C   0  0  0  0  0  0  0  0  0  0  0  0
   44.6600   36.2980   44.5010 N   0  0  0  0  0  0  0  0  0  0  0  0
   45.2420   36.8720   42.5570 H   0  0  0  0  0  0  0  0  0  0  0  0
   44.2150   35.3980   46.4400 H   0  0  0  0  0  0  0  0  0  0  0  0
   46.4930   32.6160   43.7570 C   0  0  0  0  0  0  0  0  0  0  0  0
   45.7240   31.4800   43.5760 C   0  0  0  0  0  0  0  0  0  0  0  0
   46.3610   30.2920   43.3160 C   0  0  0  0  0  0  0  0  0  0  0  0
   47.7350   30.1600   43.2220 C   0  0  0  0  0  0  0  0  0  0  0  0
   48.4510   31.3350   43.4120 C   0  0  0  0  0  0  0  0  0  0  0  0
   47.8180   32.5000   43.6680 N   0  0  0  0  0  0  0  0  0  0  0  0
   44.6600   31.4700   43.6270 H   0  0  0  0  0  0  0  0  0  0  0  0
   45.7990   29.3710   43.1670 H   0  0  0  0  0  0  0  0  0  0  0  0
   48.2930   29.2770   43.0240 H   0  0  0  0  0  0  0  0  0  0  0  0
   49.5370   31.3820   43.3670 H   0  0  0  0  0  0  0  0  0  0  0  0
   46.4880   34.6550   41.7700 C   0  0  0  0  0  0  0  0  0  0  0  0
   47.5910   35.2160   41.5470 O   0  0  0  0  0  0  0  0  0  0  0  0
   44.6670   34.1260   40.1620 C   0  0  0  0  0  0  0  0  0  0  0  0
   45.8840   33.8240   40.7340 C   0  0  0  0  0  0  0  0  0  0  0  0
   46.5240   32.6870   40.2870 C   0  0  0  0  0  0  0  0  0  0  0  0
   47.4740   32.4660   40.7450 H   0  0  0  0  0  0  0  0  0  0  0  0
   46.0220   31.8630   39.3240 C   0  0  0  0  0  3  0  0  0  0  0  0
   44.7900   32.1870   38.7610 C   0  0  0  0  0  3  0  0  0  0  0  0
   44.1340   33.3100   39.1860 C   0  0  0  0  0  0  0  0  0  0  0  0
   43.9720   35.2760   40.5830 O   0  0  0  0  0  0  0  0  0  0  0  0
   42.9840   35.2830   40.7720 H   0  0  0  0  0  0  0  0  0  0  0  0
   42.9050   33.6660   38.6460 O   0  0  0  0  0  0  0  0  0  0  0  0
   42.7590   33.7650   37.6470 H   0  0  0  0  0  0  0  0  0  0  0  0
  1  6  1  0  0  0  0
  2  1  2  0  0  0  0
  2  3  1  0  0  0  0
  3  4  2  0  0  0  0
  4  5  1  0  0  0  0
  5  8  1  0  0  0  0
  6  5  2  0  0  0  0
  7  1  1  0  0  0  0
  9  3  1  0  0  0  0
 10 15  1  0  0  0  0
 10  9  2  0  0  0  0
 11 10  1  0  0  0  0
 12 11  2  0  0  0  0
 12 13  1  0  0  0  0
 13 14  2  0  0  0  0
 14  9  1  0  0  0  0
 16 11  1  0  0  0  0
 17 12  1  0  0  0  0
 18 13  1  0  0  0  0
 19  2  1  0  0  0  0
 20 19  2  0  0  0  0
 21 28  1  0  0  0  0
 21 22  1  0  0  0  0
 22 19  1  0  0  0  0
 23 22  2  0  0  0  0
 23 24  1  0  0  0  0
 25 23  1  0  0  0  0
 26 27  1  0  0  0  0
 26 25  2  0  0  0  0
 27 21  2  0  0  0  0
 28 29  1  0  0  0  0
 30 27  1  0  0  0  0
 31 30  1  0  0  0  0
M  END
>  <minimizedAffinity>
-4.76871061

>  <minimizedRMSD>
0.288533479

$$$$
