
 OpenBabel03252509273D

 32 34  0  0  1  0  0  0  0  0999 V2000
   46.4740   34.9190   41.9740 C   0  0  1  0  0  0  0  0  0  0  0  0
   47.9290   35.4620   41.8660 C   0  0  0  0  0  0  0  0  0  0  0  0
   47.4050   34.1270   41.2770 C   0  0  2  0  0  0  0  0  0  0  0  0
   45.7340   35.5670   41.4730 H   0  0  0  0  0  0  0  0  0  0  0  0
   48.5670   35.4360   42.7480 H   0  0  0  0  0  0  0  0  0  0  0  0
   48.0540   36.2930   41.1610 H   0  0  0  0  0  0  0  0  0  0  0  0
   47.9440   33.2500   41.7490 H   0  0  0  0  0  0  0  0  0  0  0  0
   44.9080   34.9090   45.3800 C   0  0  0  0  0  0  0  0  0  0  0  0
   45.1910   35.3340   44.0510 C   0  0  0  0  0  0  0  0  0  0  0  0
   46.1320   34.6010   43.4090 C   0  0  0  0  0  0  0  0  0  0  0  0
   46.7630   33.5270   44.0100 N   0  0  0  0  0  0  0  0  0  0  0  0
   46.4560   33.1660   45.2770 C   0  0  0  0  0  0  0  0  0  0  0  0
   45.5220   33.8620   45.9620 N   0  0  0  0  0  0  0  0  0  0  0  0
   44.1640   35.4640   45.9250 H   0  0  0  0  0  0  0  0  0  0  0  0
   47.0330   32.3100   45.6020 H   0  0  0  0  0  0  0  0  0  0  0  0
   44.5650   36.4430   43.4500 N   0  0  0  0  0  0  0  0  0  0  0  0
   43.5390   36.5860   43.6380 H   0  0  0  0  0  0  0  0  0  0  0  0
   45.1490   37.0800   42.8420 H   0  0  0  0  0  0  0  0  0  0  0  0
   47.3300   33.9730   39.7810 C   0  0  0  0  0  0  0  0  0  0  0  0
   46.2940   33.6250   39.5650 H   0  0  0  0  0  0  0  0  0  0  0  0
   47.4000   34.9910   39.3310 H   0  0  0  0  0  0  0  0  0  0  0  0
   48.7560   32.1410   40.0890 C   0  0  0  0  0  0  0  0  0  0  0  0
   48.3480   33.1210   39.1740 C   0  0  0  0  0  0  0  0  0  0  0  0
   48.9480   33.0970   37.9350 C   0  0  0  0  0  0  0  0  0  0  0  0
   48.5850   33.8710   37.2950 H   0  0  0  0  0  0  0  0  0  0  0  0
   49.9010   32.1670   37.5930 C   0  0  0  0  0  3  0  0  0  0  0  0
   50.3010   31.1990   38.5120 C   0  0  0  0  0  3  0  0  0  0  0  0
   49.7170   31.2020   39.7520 C   0  0  0  0  0  0  0  0  0  0  0  0
   48.2930   31.9660   41.3990 O   0  0  0  0  0  0  0  0  0  0  0  0
   47.3240   31.6710   41.4880 H   0  0  0  0  0  0  0  0  0  0  0  0
   50.1800   30.2000   40.5920 O   0  0  0  0  0  0  0  0  0  0  0  0
   49.6090   30.0260   41.4310 H   0  0  0  0  0  0  0  0  0  0  0  0
  1  4  1  6  0  0  0
  1 10  1  0  0  0  0
  2  1  1  0  0  0  0
  2  5  1  0  0  0  0
  3  7  1  1  0  0  0
  3  2  1  0  0  0  0
  3  1  1  0  0  0  0
  6  2  1  0  0  0  0
  8 14  1  0  0  0  0
  8 13  1  0  0  0  0
  9  8  2  0  0  0  0
 10 11  2  0  0  0  0
 10  9  1  0  0  0  0
 11 12  1  0  0  0  0
 12 15  1  0  0  0  0
 12 13  2  0  0  0  0
 16 17  1  0  0  0  0
 16  9  1  0  0  0  0
 18 16  1  0  0  0  0
 19  3  1  0  0  0  0
 20 19  1  0  0  0  0
 21 19  1  0  0  0  0
 22 29  1  0  0  0  0
 23 19  1  0  0  0  0
 23 22  2  0  0  0  0
 24 23  1  0  0  0  0
 25 24  1  0  0  0  0
 26 24  2  0  0  0  0
 26 27  1  0  0  0  0
 27 28  2  0  0  0  0
 28 22  1  0  0  0  0
 28 31  1  0  0  0  0
 29 30  1  0  0  0  0
 31 32  1  0  0  0  0
M  END
>  <minimizedAffinity>
-4.8436842

>  <minimizedRMSD>
0.467719883

$$$$
