
     RDKit          3D

 34 36  0  0  0  0  0  0  0  0999 V2000
   44.6798   35.3726   45.1469 C   0  0  0  0  0  0  0  0  0  0  0  0
   45.1281   35.6963   43.8352 C   0  0  0  0  0  0  0  0  0  0  0  0
   46.0694   34.8599   43.3341 C   0  0  0  0  0  0  0  0  0  0  0  0
   46.5498   33.7809   44.0533 N   0  0  0  0  0  0  0  0  0  0  0  0
   46.0894   33.5186   45.2967 C   0  0  0  0  0  0  0  0  0  0  0  0
   45.1480   34.3214   45.8441 N   0  0  0  0  0  0  0  0  0  0  0  0
   46.5775   35.0671   41.9275 C   0  0  1  0  0  0  0  0  0  0  0  0
   48.1192   35.2865   41.9311 C   0  0  0  0  0  0  0  0  0  0  0  0
   47.3679   34.0800   41.3112 C   0  0  2  0  0  0  0  0  0  0  0  0
   47.3745   33.9134   39.8140 C   0  0  0  0  0  0  0  0  0  0  0  0
   44.6544   36.8103   43.1150 N   0  0  0  0  0  0  0  0  0  0  0  0
   43.9300   36.0124   45.5810 H   0  0  0  0  0  0  0  0  0  0  0  0
   46.5622   32.6451   45.7251 H   0  0  0  0  0  0  0  0  0  0  0  0
   46.0326   35.8465   41.3679 H   0  0  0  0  0  0  0  0  0  0  0  0
   48.6693   35.1452   42.8612 H   0  0  0  0  0  0  0  0  0  0  0  0
   48.4710   36.0558   41.2336 H   0  0  0  0  0  0  0  0  0  0  0  0
   47.6697   33.1188   41.8284 H   0  0  0  0  0  0  0  0  0  0  0  0
   46.3077   33.7781   39.5211 H   0  0  0  0  0  0  0  0  0  0  0  0
   47.6854   34.8848   39.3652 H   0  0  0  0  0  0  0  0  0  0  0  0
   43.6294   37.0377   43.1857 H   0  0  0  0  0  0  0  0  0  0  0  0
   45.3450   37.3659   42.5387 H   0  0  0  0  0  0  0  0  0  0  0  0
   47.3198   33.5939   37.0801 O   0  0  0  0  0  0  0  0  0  0  0  0
   48.1252   32.7940   37.8978 C   0  0  0  0  0  0  0  0  0  0  0  0
   48.2382   32.8578   39.2932 C   0  0  0  0  0  0  0  0  0  0  0  0
   49.1014   31.9616   39.8847 C   0  0  0  0  0  0  0  0  0  0  0  0
   49.1325   32.0726   40.9469 H   0  0  0  0  0  0  0  0  0  0  0  0
   49.8237   31.0441   39.1608 C   0  0  0  0  0  0  0  0  0  0  0  0
   49.7030   30.9896   37.7740 C   0  0  0  0  0  0  0  0  0  0  0  0
   48.8502   31.8713   37.1629 C   0  0  0  0  0  0  0  0  0  0  0  0
   48.8016   31.7371   35.7825 O   0  0  0  0  0  0  0  0  0  0  0  0
   47.5779   34.5772   37.0331 H   0  0  0  0  0  0  0  0  0  0  0  0
   50.4540   30.4209   39.7990 H   0  0  0  0  0  0  0  0  0  0  0  0
   50.3205   30.2266   37.3211 H   0  0  0  0  0  0  0  0  0  0  0  0
   48.3632   32.5189   35.2770 H   0  0  0  0  0  0  0  0  0  0  0  0
  1  6  2  0
  2  1  1  0
  3  2  2  0
  3  4  1  0
  4  5  2  0
  5  6  1  0
  7  3  1  0
  8  7  1  0
  9  8  1  0
  9  7  1  0
 10  9  1  0
 11  2  1  0
  1 12  1  0
  5 13  1  0
  7 14  1  6
  8 15  1  0
  8 16  1  0
  9 17  1  1
 10 18  1  0
 10 19  1  0
 11 20  1  0
 11 21  1  0
 22 23  1  0
 23 24  2  0
 24 25  1  0
 25 26  1  0
 25 27  2  0
 27 28  1  0
 28 29  2  0
 29 30  1  0
 29 23  1  0
 22 31  1  0
 27 32  1  0
 28 33  1  0
 30 34  1  0
 10 24  1  0
M  ISO  8  12  14  13  14  14  13  15  13  16  13  17  13  18   8  19   8
M  ISO  1  26  16
M  END
>  <DihAtoms>  (1) 
8,9,23,22

>  <DihDeg>  (1) 
178.68067712530848

$$$$
