
 OpenBabel03252507163D

 31 33  0  0  0  0  0  0  0  0999 V2000
   45.1060   36.0650   43.3030 C   0  0  0  0  0  0  0  0  0  0  0  0
   45.7420   34.8340   43.0080 C   0  0  0  0  0  0  0  0  0  0  0  0
   45.8080   33.8840   44.0280 C   0  0  0  0  0  0  0  0  0  0  0  0
   45.2780   34.1580   45.2300 N   0  0  0  0  0  0  0  0  0  0  0  0
   44.6660   35.3580   45.4890 C   0  0  0  0  0  0  0  0  0  0  0  0
   44.5940   36.2790   44.5240 N   0  0  0  0  0  0  0  0  0  0  0  0
   45.0370   36.8230   42.5340 H   0  0  0  0  0  0  0  0  0  0  0  0
   44.2960   35.4120   46.5060 H   0  0  0  0  0  0  0  0  0  0  0  0
   46.4580   32.6210   43.7360 C   0  0  0  0  0  0  0  0  0  0  0  0
   45.7020   31.4700   43.6050 C   0  0  0  0  0  0  0  0  0  0  0  0
   46.3470   30.2900   43.3290 C   0  0  0  0  0  0  0  0  0  0  0  0
   47.7180   30.1800   43.1720 C   0  0  0  0  0  0  0  0  0  0  0  0
   48.4210   31.3700   43.3150 C   0  0  0  0  0  0  0  0  0  0  0  0
   47.7790   32.5270   43.5870 N   0  0  0  0  0  0  0  0  0  0  0  0
   44.6420   31.4420   43.7060 H   0  0  0  0  0  0  0  0  0  0  0  0
   45.7950   29.3570   43.2160 H   0  0  0  0  0  0  0  0  0  0  0  0
   48.2810   29.3060   42.9580 H   0  0  0  0  0  0  0  0  0  0  0  0
   49.5020   31.4360   43.2180 H   0  0  0  0  0  0  0  0  0  0  0  0
   46.2790   34.6160   41.7130 C   0  0  0  0  0  0  0  0  0  0  0  0
   47.3890   35.1360   41.4320 O   0  0  0  0  0  0  0  0  0  0  0  0
   44.3860   34.2020   40.1540 C   0  0  0  0  0  0  0  0  0  0  0  0
   45.5880   33.8160   40.7080 C   0  0  0  0  0  0  0  0  0  0  0  0
   46.1230   32.6220   40.2720 C   0  0  0  0  0  0  0  0  0  0  0  0
   47.0640   32.3350   40.7170 H   0  0  0  0  0  0  0  0  0  0  0  0
   45.5370   31.8220   39.3390 C   0  0  0  0  0  3  0  0  0  0  0  0
   44.3230   32.2330   38.7930 C   0  0  0  0  0  3  0  0  0  0  0  0
   43.7680   33.4130   39.2070 C   0  0  0  0  0  0  0  0  0  0  0  0
   43.7950   35.4130   40.5650 O   0  0  0  0  0  0  0  0  0  0  0  0
   42.8150   35.5030   40.7730 H   0  0  0  0  0  0  0  0  0  0  0  0
   42.5600   33.8560   38.6850 O   0  0  0  0  0  0  0  0  0  0  0  0
   42.4000   33.9460   37.6870 H   0  0  0  0  0  0  0  0  0  0  0  0
  1  6  1  0  0  0  0
  2  1  2  0  0  0  0
  2  3  1  0  0  0  0
  3  4  2  0  0  0  0
  4  5  1  0  0  0  0
  5  8  1  0  0  0  0
  6  5  2  0  0  0  0
  7  1  1  0  0  0  0
  9  3  1  0  0  0  0
 10 15  1  0  0  0  0
 10  9  1  0  0  0  0
 11 10  2  0  0  0  0
 12 13  2  0  0  0  0
 12 11  1  0  0  0  0
 13 14  1  0  0  0  0
 14  9  2  0  0  0  0
 16 11  1  0  0  0  0
 17 12  1  0  0  0  0
 18 13  1  0  0  0  0
 19  2  1  0  0  0  0
 20 19  2  0  0  0  0
 21 28  1  0  0  0  0
 21 22  1  0  0  0  0
 22 19  1  0  0  0  0
 23 22  2  0  0  0  0
 23 24  1  0  0  0  0
 25 23  1  0  0  0  0
 26 27  1  0  0  0  0
 26 25  2  0  0  0  0
 27 21  2  0  0  0  0
 28 29  1  0  0  0  0
 30 27  1  0  0  0  0
 31 30  1  0  0  0  0
M  END
>  <minimizedAffinity>
-4.76366663

>  <minimizedRMSD>
0.429686069

$$$$
