
 OpenBabel03242513443D

 48 51  0  0  0  0  0  0  0  0999 V2000
   47.7600   31.1150   45.9120 C   0  0  0  0  0  0  0  0  0  0  0  0
   46.9970   32.1150   45.3890 C   0  0  0  0  0  0  0  0  0  0  0  0
   45.9380   32.5780   46.1350 C   0  0  0  0  0  0  0  0  0  0  0  0
   45.6160   32.0820   47.3780 C   0  0  0  0  0  0  0  0  0  0  0  0
   44.6810   32.3050   48.3300 N   0  0  0  0  0  0  0  0  0  0  0  0
   44.8830   31.4650   49.3850 C   0  0  0  0  0  0  0  0  0  0  0  0
   45.9560   30.7200   49.0690 N   0  0  0  0  0  0  0  0  0  0  0  0
   46.4050   31.0820   47.8650 C   0  0  0  0  0  0  0  0  0  0  0  0
   47.4720   30.5760   47.1750 C   0  0  0  0  0  0  0  0  0  0  0  0
   48.6200   30.6830   45.3960 H   0  0  0  0  0  0  0  0  0  0  0  0
   45.3000   33.3790   45.7530 H   0  0  0  0  0  0  0  0  0  0  0  0
   43.9390   33.0270   48.2190 H   0  0  0  0  0  0  0  0  0  0  0  0
   44.2710   31.4340   50.2910 H   0  0  0  0  0  0  0  0  0  0  0  0
   47.3020   34.4540   42.5970 C   0  0  0  0  0  0  0  0  0  0  0  0
   47.8870   33.6630   41.5900 C   0  0  0  0  0  0  0  0  0  0  0  0
   48.1580   32.3270   41.9200 C   0  0  0  0  0  0  0  0  0  0  0  0
   47.8570   31.8610   43.1590 N   0  0  0  0  0  0  0  0  0  0  0  0
   47.3000   32.6700   44.0740 C   0  0  0  0  0  0  0  0  0  0  0  0
   47.0180   33.9510   43.8180 N   0  0  0  0  0  0  0  0  0  0  0  0
   47.0730   35.4960   42.3850 H   0  0  0  0  0  0  0  0  0  0  0  0
   48.6110   31.7100   41.1430 H   0  0  0  0  0  0  0  0  0  0  0  0
   48.1720   34.2800   40.2740 C   0  0  0  0  0  0  0  0  0  0  0  0
   48.6860   35.5380   40.5800 F   0  0  0  0  0  0  0  0  0  0  0  0
   46.9880   34.4470   39.6120 F   0  0  0  0  0  0  0  0  0  0  0  0
   49.0700   33.4860   39.5920 F   0  0  0  0  0  0  0  0  0  0  0  0
   48.2490   29.5550   47.7130 O   0  0  0  0  0  0  0  0  0  0  0  0
   49.9300   28.3670   49.2930 O   0  0  0  0  0  0  0  0  0  0  0  0
   49.4430   29.7410   48.8790 P   0  0  2  0  0  0  0  0  0  0  0  0
   48.6930   30.4210   50.2530 O   0  0  0  0  0  0  0  0  0  0  0  0
   48.0960   29.7500   50.6650 H   0  0  0  0  0  0  0  0  0  0  0  0
   50.7220   30.6990   48.4030 O   0  0  0  0  0  0  0  0  0  0  0  0
   51.8130   30.6800   49.2300 C   0  0  0  0  0  0  0  0  0  0  0  0
   52.7860   30.5400   48.7720 H   0  0  0  0  0  0  0  0  0  0  0  0
   51.6720   29.7910   49.9120 H   0  0  0  0  0  0  0  0  0  0  0  0
   51.7270   31.9510   50.0970 C   0  0  0  0  0  0  0  0  0  0  0  0
   50.7430   32.4330   49.8670 H   0  0  0  0  0  0  0  0  0  0  0  0
   52.5320   32.6520   49.9010 H   0  0  0  0  0  0  0  0  0  0  0  0
   51.9310   32.6200   52.3970 C   0  0  0  0  0  0  0  0  0  0  0  0
   51.7910   31.5350   51.5280 C   0  0  0  0  0  0  0  0  0  0  0  0
   51.7310   30.2410   51.9970 C   0  0  0  0  0  0  0  0  0  0  0  0
   51.6210   29.4520   51.2510 H   0  0  0  0  0  0  0  0  0  0  0  0
   51.8130   30.0060   53.3740 C   0  0  0  0  0  3  0  0  0  0  0  0
   51.9530   31.0870   54.2360 C   0  0  0  0  0  3  0  0  0  0  0  0
   52.0130   32.3830   53.7690 C   0  0  0  0  0  0  0  0  0  0  0  0
   52.0050   33.9630   52.0770 O   0  0  0  0  0  0  0  0  0  0  0  0
   51.9370   34.3830   51.1830 H   0  0  0  0  0  0  0  0  0  0  0  0
   52.1550   33.4130   54.7190 O   0  0  0  0  0  0  0  0  0  0  0  0
   52.2290   34.3860   54.4080 H   0  0  0  0  0  0  0  0  0  0  0  0
  1  9  1  0  0  0  0
  2  1  2  0  0  0  0
  2  3  1  0  0  0  0
  3  4  2  0  0  0  0
  4  8  1  0  0  0  0
  4  5  1  0  0  0  0
  5  6  1  0  0  0  0
  6 13  1  0  0  0  0
  7  6  2  0  0  0  0
  8  7  1  0  0  0  0
  9 26  1  0  0  0  0
  9  8  2  0  0  0  0
 10  1  1  0  0  0  0
 11  3  1  0  0  0  0
 12  5  1  0  0  0  0
 14 19  1  0  0  0  0
 15 16  1  0  0  0  0
 15 14  2  0  0  0  0
 16 17  2  0  0  0  0
 17 18  1  0  0  0  0
 18  2  1  0  0  0  0
 19 18  2  0  0  0  0
 20 14  1  0  0  0  0
 21 16  1  0  0  0  0
 22 23  1  0  0  0  0
 22 15  1  0  0  0  0
 24 22  1  0  0  0  0
 25 22  1  0  0  0  0
 26 28  1  0  0  0  0
 28 27  2  1  0  0  0
 28 29  1  0  0  0  0
 29 30  1  0  0  0  0
 31 28  1  0  0  0  0
 31 32  1  0  0  0  0
 32 34  1  0  0  0  0
 32 35  1  0  0  0  0
 33 32  1  0  0  0  0
 35 39  1  0  0  0  0
 36 35  1  0  0  0  0
 37 35  1  0  0  0  0
 38 44  1  0  0  0  0
 39 40  1  0  0  0  0
 39 38  2  0  0  0  0
 40 42  2  0  0  0  0
 41 40  1  0  0  0  0
 42 43  1  0  0  0  0
 44 43  2  0  0  0  0
 44 47  1  0  0  0  0
 45 38  1  0  0  0  0
 46 45  1  0  0  0  0
 48 47  1  0  0  0  0
M  END
>  <minimizedAffinity>
-6.57767248

>  <minimizedRMSD>
1.32748961

$$$$
