
     RDKit          3D

 26 27  0  0  0  0  0  0  0  0999 V2000
   44.9043   35.0695   44.3461 C   0  0  0  0  0  0  0  0  0  0  0  0
   45.7722   34.9750   43.2547 C   0  0  0  0  0  0  0  0  0  0  0  0
   46.8876   34.1340   43.3551 C   0  0  0  0  0  0  0  0  0  0  0  0
   47.0585   33.4611   44.5069 N   0  0  0  0  0  0  0  0  0  0  0  0
   46.2224   33.5550   45.5528 C   0  0  0  0  0  0  0  0  0  0  0  0
   45.1474   34.3612   45.4649 N   0  0  0  0  0  0  0  0  0  0  0  0
   43.7756   35.9196   44.2457 N   0  0  0  0  0  0  0  0  0  0  0  0
   46.3582   32.8550   46.8155 C   0  0  0  0  0  0  0  0  0  0  0  0
   45.3489   32.5177   47.5213 O   0  0  0  0  0  0  0  0  0  0  0  0
   45.6280   35.5186   42.3331 H   0  0  0  0  0  0  0  0  0  0  0  0
   47.6031   34.0050   42.5621 H   0  0  0  0  0  0  0  0  0  0  0  0
   43.8172   36.8828   43.8094 H   0  0  0  0  0  0  0  0  0  0  0  0
   42.7823   35.7920   44.5446 H   0  0  0  0  0  0  0  0  0  0  0  0
   46.9093   33.2466   49.5987 O   0  0  0  0  0  0  0  0  0  0  0  0
   47.8719   32.6665   48.7512 C   0  0  0  0  0  0  0  0  0  0  0  0
   47.6339   32.4656   47.4100 C   0  0  0  0  0  0  0  0  0  0  0  0
   48.6820   31.8872   46.7264 C   0  0  0  0  0  0  0  0  0  0  0  0
   48.5748   31.6978   45.6708 H   0  0  0  0  0  0  0  0  0  0  0  0
   49.8862   31.5217   47.2888 C   0  0  0  0  0  0  0  0  0  0  0  0
   50.0824   31.7410   48.6361 C   0  0  0  0  0  0  0  0  0  0  0  0
   49.0646   32.3175   49.3660 C   0  0  0  0  0  0  0  0  0  0  0  0
   49.2659   32.5369   50.7227 O   0  0  0  0  0  0  0  0  0  0  0  0
   46.1505   32.5977   49.8402 H   0  0  0  0  0  0  0  0  0  0  0  0
   50.6660   31.0665   46.6686 H   0  0  0  0  0  0  0  0  0  0  0  0
   51.0248   31.4509   49.0575 H   0  0  0  0  0  0  0  0  0  0  0  0
   48.5301   32.9615   51.2698 H   0  0  0  0  0  0  0  0  0  0  0  0
  1  6  2  0
  2  3  2  0
  2  1  1  0
  3  4  1  0
  4  5  2  0
  5  8  1  0
  6  5  1  0
  7  1  1  0
  8  9  2  0
  2 10  1  0
  3 11  1  0
  7 12  1  0
  7 13  1  0
 14 15  1  0
 15 16  2  0
 16 17  1  0
 17 18  1  0
 17 19  2  0
 19 20  1  0
 20 21  2  0
 21 22  1  0
 21 15  1  0
 14 23  1  0
 19 24  1  0
 20 25  1  0
 22 26  1  0
  8 16  1  0
M  ISO  3  10  14  11  14  18  16
M  END
>  <DihAtoms>  (1) 
4,7,15,14

>  <DihDeg>  (1) 
-179.5175418231617

$$$$
