
     RDKit          3D

 30 31  0  0  0  0  0  0  0  0999 V2000
   46.5333   33.6183   44.3325 C   0  0  0  0  0  0  0  0  0  0  0  0
   46.2301   33.1913   45.6487 C   0  0  0  0  0  0  0  0  0  0  0  0
   45.2892   33.8998   46.3592 C   0  0  0  0  0  0  0  0  0  0  0  0
   44.7070   34.9606   45.7663 N   0  0  0  0  0  0  0  0  0  0  0  0
   44.9891   35.3675   44.5247 C   0  0  0  0  0  0  0  0  0  0  0  0
   45.9033   34.6978   43.8036 N   0  0  0  0  0  0  0  0  0  0  0  0
   45.0235   33.4509   47.6360 O   0  0  0  0  0  0  0  0  0  0  0  0
   45.3178   30.8615   47.4745 O   0  0  0  0  0  0  0  0  0  0  0  0
   45.8107   32.0987   48.2707 P   0  0  2  0  0  0  0  0  0  0  0  0
   45.3227   31.8296   49.8577 O   0  0  0  0  0  0  0  0  0  0  0  0
   47.4556   32.2182   48.1340 O   0  0  0  0  0  0  0  0  0  0  0  0
   48.4737   31.4295   48.5246 C   0  0  0  0  0  0  0  0  0  0  0  0
   49.2339   32.0183   49.4305 O   0  0  0  0  0  0  0  0  0  0  0  0
   47.2588   33.1255   43.6970 H   0  0  0  0  0  0  0  0  0  0  0  0
   46.7978   32.3388   45.9191 H   0  0  0  0  0  0  0  0  0  0  0  0
   44.4505   36.2398   44.1560 H   0  0  0  0  0  0  0  0  0  0  0  0
   46.0935   31.8894   50.4763 H   0  0  0  0  0  0  0  0  0  0  0  0
   48.7765   29.4488   50.6936 O   0  0  0  0  0  0  0  0  0  0  0  0
   49.2576   29.2599   49.4082 C   0  0  0  0  0  0  0  0  0  0  0  0
   49.1570   30.1001   48.3622 C   0  0  0  0  0  0  0  0  0  0  0  0
   49.7273   29.6885   47.1463 C   0  0  0  0  0  0  0  0  0  0  0  0
   49.5949   30.4420   46.3479 H   0  0  0  0  0  0  0  0  0  0  0  0
   50.3845   28.5152   46.8927 C   0  0  0  0  0  0  0  0  0  0  0  0
   50.4490   27.7194   47.9853 C   0  0  0  0  0  0  0  0  0  0  0  0
   49.9238   28.0397   49.2023 C   0  0  0  0  0  0  0  0  0  0  0  0
   50.0443   27.1515   50.2605 O   0  0  0  0  0  0  0  0  0  0  0  0
   48.2776   28.7481   51.2276 H   0  0  0  0  0  0  0  0  0  0  0  0
   50.7776   28.3189   45.9110 H   0  0  0  0  0  0  0  0  0  0  0  0
   50.9485   26.7654   47.8948 H   0  0  0  0  0  0  0  0  0  0  0  0
   50.2820   27.5289   51.1723 H   0  0  0  0  0  0  0  0  0  0  0  0
  1  2  2  0
  2  3  1  0
  3  7  1  0
  4  3  2  0
  5  4  1  0
  6  1  1  0
  6  5  2  0
  9  7  1  6
  9  8  2  0
  9 10  1  0
 11  9  1  0
 11 12  1  0
 12 13  2  0
  1 14  1  0
  2 15  1  0
  5 16  1  0
 10 17  1  0
 18 19  1  0
 19 20  2  0
 20 21  1  0
 21 22  1  0
 21 23  2  0
 23 24  1  0
 24 25  2  0
 25 26  1  0
 25 19  1  0
 18 27  1  0
 23 28  1  0
 24 29  1  0
 26 30  1  0
 12 20  1  0
M  ISO  5  14  14  15  14  16  14  17   3  22  16
M  END
>  <DihAtoms>  (1) 
10,11,19,18

>  <DihDeg>  (1) 
-178.68021094511428

$$$$
