
 OpenBabel03252507553D

 46 49  0  0  1  0  0  0  0  0999 V2000
   48.8590   32.2230   40.3410 C   0  0  2  0  0  0  0  0  0  0  0  0
   49.5820   31.3580   41.2580 C   0  0  0  0  0  0  0  0  0  0  0  0
   50.2080   31.7960   39.9710 C   0  0  1  0  0  0  0  0  0  0  0  0
   48.0250   31.7900   39.7580 H   0  0  0  0  0  0  0  0  0  0  0  0
   49.2820   30.3110   41.3830 H   0  0  0  0  0  0  0  0  0  0  0  0
   50.0870   31.7840   42.1660 H   0  0  0  0  0  0  0  0  0  0  0  0
   50.9330   32.6110   39.8740 H   0  0  0  0  0  0  0  0  0  0  0  0
   47.1670   34.7090   42.3250 C   0  0  2  0  0  0  0  0  0  0  0  0
   46.3300   34.4730   41.0660 C   0  0  0  0  0  0  0  0  0  0  0  0
   47.4980   34.3370   40.0660 C   0  0  0  0  0  0  0  0  0  0  0  0
   48.5770   33.6280   40.8270 C   0  0  1  0  0  0  0  0  0  0  0  0
   48.0790   33.5150   42.2370 C   0  0  0  0  0  0  0  0  0  0  0  0
   47.6780   35.6680   42.2430 H   0  0  0  0  0  0  0  0  0  0  0  0
   45.7840   33.5300   41.1810 H   0  0  0  0  0  0  0  0  0  0  0  0
   45.7180   35.3510   40.8480 H   0  0  0  0  0  0  0  0  0  0  0  0
   47.8240   35.3680   39.8540 H   0  0  0  0  0  0  0  0  0  0  0  0
   47.1320   33.7950   39.1730 H   0  0  0  0  0  0  0  0  0  0  0  0
   49.5400   34.1790   40.7880 H   0  0  0  0  0  0  0  0  0  0  0  0
   47.5400   32.5960   42.4670 H   0  0  0  0  0  0  0  0  0  0  0  0
   48.9450   33.6920   42.9180 H   0  0  0  0  0  0  0  0  0  0  0  0
   44.5710   35.4590   44.9500 C   0  0  0  0  0  0  0  0  0  0  0  0
   45.2770   35.5730   43.7570 C   0  0  0  0  0  0  0  0  0  0  0  0
   46.3200   34.6760   43.5500 C   0  0  0  0  0  0  0  0  0  0  0  0
   46.6260   33.7090   44.5190 N   0  0  0  0  0  0  0  0  0  0  0  0
   45.9000   33.6500   45.6640 C   0  0  0  0  0  0  0  0  0  0  0  0
   44.8820   34.5170   45.8730 N   0  0  0  0  0  0  0  0  0  0  0  0
   43.7570   36.1510   45.1190 H   0  0  0  0  0  0  0  0  0  0  0  0
   45.0540   36.3090   43.0030 H   0  0  0  0  0  0  0  0  0  0  0  0
   46.2150   32.8710   46.3450 H   0  0  0  0  0  0  0  0  0  0  0  0
   50.3220   30.8230   38.9470 O   0  0  0  0  0  0  0  0  0  0  0  0
   49.8110   32.6620   37.1700 O   0  0  0  0  0  0  0  0  0  0  0  0
   50.8130   31.5980   37.5390 P   0  0  1  0  0  0  0  0  0  0  0  0
   52.3190   32.3780   37.7920 O   0  0  0  0  0  0  0  0  0  0  0  0
   53.0020   31.6670   37.8220 H   0  0  0  0  0  0  0  0  0  0  0  0
   51.0100   30.5850   36.2360 O   0  0  0  0  0  0  0  0  0  0  0  0
   48.9790   30.0370   35.3370 C   0  0  0  0  0  0  0  0  0  0  0  0
   50.1890   30.6680   35.1310 C   0  0  0  0  0  0  0  0  0  0  0  0
   50.4120   31.2670   33.9100 C   0  0  0  0  0  0  0  0  0  0  0  0
   51.3930   31.7400   33.8390 H   0  0  0  0  0  0  0  0  0  0  0  0
   49.4550   31.2400   32.9240 C   0  0  0  0  0  3  0  0  0  0  0  0
   48.2410   30.5990   33.1500 C   0  0  0  0  0  3  0  0  0  0  0  0
   47.9970   30.0000   34.3480 C   0  0  0  0  0  0  0  0  0  0  0  0
   48.6010   29.3810   36.5240 O   0  0  0  0  0  0  0  0  0  0  0  0
   49.2150   28.6970   36.9510 H   0  0  0  0  0  0  0  0  0  0  0  0
   46.7680   29.3790   34.5100 O   0  0  0  0  0  0  0  0  0  0  0  0
   46.7080   28.3820   34.4300 H   0  0  0  0  0  0  0  0  0  0  0  0
  1  4  1  6  0  0  0
  1 11  1  0  0  0  0
  1  2  1  0  0  0  0
  2  5  1  0  0  0  0
  2  6  1  0  0  0  0
  3  7  1  1  0  0  0
  3  1  1  0  0  0  0
  3  2  1  0  0  0  0
  8 13  1  6  0  0  0
  8 23  1  0  0  0  0
  9 14  1  0  0  0  0
  9  8  1  0  0  0  0
 10 11  1  0  0  0  0
 10  9  1  0  0  0  0
 11 18  1  6  0  0  0
 11 12  1  0  0  0  0
 12  8  1  0  0  0  0
 12 19  1  0  0  0  0
 12 20  1  0  0  0  0
 15  9  1  0  0  0  0
 16 10  1  0  0  0  0
 17 10  1  0  0  0  0
 21 27  1  0  0  0  0
 21 26  1  0  0  0  0
 22 21  2  0  0  0  0
 23 22  1  0  0  0  0
 23 24  2  0  0  0  0
 24 25  1  0  0  0  0
 25 26  2  0  0  0  0
 25 29  1  0  0  0  0
 28 22  1  0  0  0  0
 30  3  1  0  0  0  0
 32 31  2  6  0  0  0
 32 33  1  0  0  0  0
 32 30  1  0  0  0  0
 33 34  1  0  0  0  0
 35 32  1  0  0  0  0
 36 43  1  0  0  0  0
 37 36  1  0  0  0  0
 37 35  1  0  0  0  0
 38 37  2  0  0  0  0
 39 38  1  0  0  0  0
 40 41  2  0  0  0  0
 40 38  1  0  0  0  0
 41 42  1  0  0  0  0
 42 45  1  0  0  0  0
 42 36  2  0  0  0  0
 43 44  1  0  0  0  0
 46 45  1  0  0  0  0
M  END
>  <minimizedAffinity>
-5.41136646

>  <minimizedRMSD>
4.38482285

$$$$
