
 OpenBabel03252509043D

 50 52  0  0  1  0  0  0  0  0999 V2000
   46.7460   34.3360   43.5070 N   0  0  0  0  0  0  0  0  0  0  0  0
   46.4540   34.9150   42.2600 C   0  0  0  0  0  0  0  0  0  0  0  0
   44.9810   34.9230   41.9000 C   0  0  0  0  0  0  0  0  0  0  0  0
   44.0670   35.1350   43.0840 C   0  0  0  0  0  0  0  0  0  0  0  0
   44.8510   35.3560   44.3670 C   0  0  0  0  0  0  0  0  0  0  0  0
   45.7680   34.0680   44.4380 C   0  0  2  0  0  0  0  0  0  0  0  0
   46.9770   34.5050   41.3940 H   0  0  0  0  0  0  0  0  0  0  0  0
   46.7480   36.0010   42.2990 H   0  0  0  0  0  0  0  0  0  0  0  0
   44.7800   33.8870   41.5080 H   0  0  0  0  0  0  0  0  0  0  0  0
   44.7590   35.6130   41.0870 H   0  0  0  0  0  0  0  0  0  0  0  0
   43.3450   34.3280   43.2510 H   0  0  0  0  0  0  0  0  0  0  0  0
   43.4920   36.0930   42.9190 H   0  0  0  0  0  0  0  0  0  0  0  0
   44.1500   35.3470   45.2070 H   0  0  0  0  0  0  0  0  0  0  0  0
   45.4980   36.2320   44.3160 H   0  0  0  0  0  0  0  0  0  0  0  0
   45.1120   33.2080   44.2880 H   0  0  0  0  0  0  0  0  0  0  0  0
   47.9540   33.5490   43.5300 C   0  0  0  0  0  0  0  0  0  0  0  0
   48.7940   34.1490   43.1460 H   0  0  0  0  0  0  0  0  0  0  0  0
   48.1680   33.2900   44.5870 H   0  0  0  0  0  0  0  0  0  0  0  0
   47.7200   32.3180   42.7370 C   0  0  0  0  0  0  0  0  0  0  0  0
   46.8060   32.3910   42.0890 H   0  0  0  0  0  0  0  0  0  0  0  0
   47.5510   31.4120   43.3530 H   0  0  0  0  0  0  0  0  0  0  0  0
   51.2300   32.1570   41.4110 C   0  0  0  0  0  0  0  0  0  0  0  0
   50.1310   32.3610   42.2630 C   0  0  0  0  0  0  0  0  0  0  0  0
   48.8600   32.0930   41.8190 C   0  0  0  0  0  0  0  0  0  0  0  0
   48.7350   31.6400   40.5670 N   0  0  0  0  0  0  0  0  0  0  0  0
   49.7780   31.4430   39.7540 C   0  0  0  0  0  0  0  0  0  0  0  0
   51.0330   31.6950   40.1550 N   0  0  0  0  0  0  0  0  0  0  0  0
   52.1950   32.4020   41.8680 H   0  0  0  0  0  0  0  0  0  0  0  0
   50.2540   32.7340   43.2860 H   0  0  0  0  0  0  0  0  0  0  0  0
   49.6890   31.0740   38.7310 H   0  0  0  0  0  0  0  0  0  0  0  0
   46.2300   34.1670   45.7490 O   0  0  0  0  0  0  0  0  0  0  0  0
   45.7390   31.5490   45.6390 O   0  0  0  0  0  0  0  0  0  0  0  0
   46.0900   32.7100   46.5830 P   0  0  2  0  0  0  0  0  0  0  0  0
   44.7370   32.8740   47.6030 O   0  0  0  0  0  0  0  0  0  0  0  0
   45.0700   33.4300   48.3700 H   0  0  0  0  0  0  0  0  0  0  0  0
   47.4240   32.3720   47.5280 O   0  0  0  0  0  0  0  0  0  0  0  0
   47.6160   31.0020   47.5540 C   0  0  0  0  0  0  0  0  0  0  0  0
   47.9240   30.5770   46.5890 H   0  0  0  0  0  0  0  0  0  0  0  0
   46.6830   30.4580   47.8590 H   0  0  0  0  0  0  0  0  0  0  0  0
   49.0530   29.4620   48.9730 C   0  0  0  0  0  0  0  0  0  0  0  0
   48.6520   30.7230   48.5890 C   0  0  0  0  0  0  0  0  0  0  0  0
   49.2530   31.8200   49.2120 C   0  0  0  0  0  0  0  0  0  0  0  0
   48.9360   32.8230   48.9100 H   0  0  0  0  0  0  0  0  0  0  0  0
   50.2220   31.7350   50.1860 C   0  0  0  0  0  0  0  0  0  0  0  0
   50.5900   30.4590   50.5360 C   0  0  0  0  0  0  0  0  0  0  0  0
   50.0310   29.3380   49.9550 C   0  0  0  0  0  0  0  0  0  0  0  0
   48.4250   28.4090   48.3230 O   0  0  0  0  0  0  0  0  0  0  0  0
   48.7720   28.0590   47.4280 H   0  0  0  0  0  0  0  0  0  0  0  0
   50.4070   28.0410   50.3110 O   0  0  0  0  0  0  0  0  0  0  0  0
   50.5750   27.7800   51.2810 H   0  0  0  0  0  0  0  0  0  0  0  0
  1 16  1  0  0  0  0
  1  6  1  0  0  0  0
  2  8  1  0  0  0  0
  2  1  1  0  0  0  0
  3  2  1  0  0  0  0
  3  4  1  0  0  0  0
  4 11  1  0  0  0  0
  4  5  1  0  0  0  0
  5  6  1  0  0  0  0
  5 13  1  0  0  0  0
  6 15  1  6  0  0  0
  6 31  1  0  0  0  0
  7  2  1  0  0  0  0
  9  3  1  0  0  0  0
 10  3  1  0  0  0  0
 12  4  1  0  0  0  0
 14  5  1  0  0  0  0
 16 18  1  0  0  0  0
 17 16  1  0  0  0  0
 19 21  1  0  0  0  0
 19 16  1  0  0  0  0
 20 19  1  0  0  0  0
 22 28  1  0  0  0  0
 22 23  1  0  0  0  0
 23 29  1  0  0  0  0
 24 23  2  0  0  0  0
 24 19  1  0  0  0  0
 25 24  1  0  0  0  0
 26 27  1  0  0  0  0
 26 25  2  0  0  0  0
 27 22  2  0  0  0  0
 30 26  1  0  0  0  0
 31 33  1  0  0  0  0
 33 32  2  6  0  0  0
 33 36  1  0  0  0  0
 33 34  1  0  0  0  0
 34 35  1  0  0  0  0
 36 37  1  0  0  0  0
 37 39  1  0  0  0  0
 37 41  1  0  0  0  0
 38 37  1  0  0  0  0
 40 46  1  0  0  0  0
 41 40  2  0  0  0  0
 41 42  1  0  0  0  0
 42 44  2  0  0  0  0
 43 42  1  0  0  0  0
 44 45  1  0  0  0  0
 46 49  1  0  0  0  0
 46 45  2  0  0  0  0
 47 40  1  0  0  0  0
 48 47  1  0  0  0  0
 49 50  1  0  0  0  0
M  END
>  <minimizedAffinity>
-5.49984598

>  <minimizedRMSD>
3.29917479

$$$$
