
 OpenBabel03242520133D

 36 38  0  0  0  0  0  0  0  0999 V2000
   46.2070   32.6450   46.7980 C   0  0  0  0  0  0  0  0  0  0  0  0
   45.3390   32.6650   47.8410 C   0  0  0  0  0  0  0  0  0  0  0  0
   45.5680   31.8380   48.9180 C   0  0  0  0  0  0  0  0  0  0  0  0
   46.6720   30.9970   48.9340 C   0  0  0  0  0  0  0  0  0  0  0  0
   47.5360   31.0070   47.8480 C   0  0  0  0  0  0  0  0  0  0  0  0
   47.2770   31.8100   46.8470 N   0  0  0  0  0  0  0  0  0  0  0  0
   44.4740   33.3410   47.8000 H   0  0  0  0  0  0  0  0  0  0  0  0
   44.8650   31.8660   49.7420 H   0  0  0  0  0  0  0  0  0  0  0  0
   46.8670   30.3410   49.7720 H   0  0  0  0  0  0  0  0  0  0  0  0
   44.8800   35.0940   44.4340 C   0  0  0  0  0  0  0  0  0  0  0  0
   45.8280   35.0190   43.3840 C   0  0  0  0  0  0  0  0  0  0  0  0
   46.9220   34.1200   43.4990 C   0  0  0  0  0  0  0  0  0  0  0  0
   46.9520   33.4070   44.6250 N   0  0  0  0  0  0  0  0  0  0  0  0
   46.0590   33.4820   45.6080 C   0  0  0  0  0  0  0  0  0  0  0  0
   45.0200   34.3320   45.5060 N   0  0  0  0  0  0  0  0  0  0  0  0
   43.8000   35.9960   44.3020 N   0  0  0  0  0  0  0  0  0  0  0  0
   45.7180   35.6430   42.5020 H   0  0  0  0  0  0  0  0  0  0  0  0
   47.6530   34.0530   42.7040 H   0  0  0  0  0  0  0  0  0  0  0  0
   43.7910   36.7160   43.5660 H   0  0  0  0  0  0  0  0  0  0  0  0
   43.0000   35.9250   44.9670 H   0  0  0  0  0  0  0  0  0  0  0  0
   48.7090   30.1390   47.8230 C   0  0  0  0  0  3  0  0  0  0  0  0
   49.6980   30.2360   48.7080 C   0  0  0  0  0  3  0  0  0  0  0  0
   49.6930   31.2320   49.7910 C   0  0  0  0  0  0  0  0  0  0  0  0
   48.6280   31.4020   50.0790 H   0  0  0  0  0  0  0  0  0  0  0  0
   50.0150   32.2100   49.3390 H   0  0  0  0  0  0  0  0  0  0  0  0
   50.5340   29.4810   51.1860 C   0  0  0  0  0  0  0  0  0  0  0  0
   50.5250   30.8480   50.9610 C   0  0  0  0  0  0  0  0  0  0  0  0
   51.2200   31.7460   51.7440 C   0  0  0  0  0  0  0  0  0  0  0  0
   51.1590   32.7940   51.5020 H   0  0  0  0  0  0  0  0  0  0  0  0
   51.9610   31.2290   52.8130 C   0  0  0  0  0  3  0  0  0  0  0  0
   51.9580   29.8680   53.0210 C   0  0  0  0  0  3  0  0  0  0  0  0
   51.2710   28.9570   52.2480 C   0  0  0  0  0  0  0  0  0  0  0  0
   49.8430   28.5550   50.4110 O   0  0  0  0  0  0  0  0  0  0  0  0
   50.3160   28.3050   49.5330 H   0  0  0  0  0  0  0  0  0  0  0  0
   51.2870   27.5930   52.4840 O   0  0  0  0  0  0  0  0  0  0  0  0
   51.8320   27.0210   51.8410 H   0  0  0  0  0  0  0  0  0  0  0  0
  1  6  2  0  0  0  0
  1  2  1  0  0  0  0
  2  3  2  0  0  0  0
  3  4  1  0  0  0  0
  3  8  1  0  0  0  0
  4  9  1  0  0  0  0
  5  4  2  0  0  0  0
  6  5  1  0  0  0  0
  7  2  1  0  0  0  0
 10 15  1  0  0  0  0
 11 12  1  0  0  0  0
 11 10  2  0  0  0  0
 12 13  2  0  0  0  0
 13 14  1  0  0  0  0
 14  1  1  0  0  0  0
 15 14  2  0  0  0  0
 16 10  1  0  0  0  0
 16 20  1  0  0  0  0
 17 11  1  0  0  0  0
 18 12  1  0  0  0  0
 19 16  1  0  0  0  0
 21  5  1  0  0  0  0
 21 22  2  0  0  0  0
 22 23  1  0  0  0  0
 23 24  1  0  0  0  0
 23 27  1  0  0  0  0
 25 23  1  0  0  0  0
 26 32  1  0  0  0  0
 27 26  2  0  0  0  0
 27 28  1  0  0  0  0
 28 30  2  0  0  0  0
 29 28  1  0  0  0  0
 30 31  1  0  0  0  0
 32 35  1  0  0  0  0
 32 31  2  0  0  0  0
 33 26  1  0  0  0  0
 34 33  1  0  0  0  0
 36 35  1  0  0  0  0
M  END
>  <minimizedAffinity>
-7.23587179

>  <minimizedRMSD>
0.856755316

$$$$
