REMARK  Name = 
REMARK  8 active torsions:
REMARK  status: ('A' for Active; 'I' for Inactive)
REMARK    1  A    between atoms: C_2  and  O_7
REMARK    2  A    between atoms: O_7  and  P_9
REMARK    3  A    between atoms: P_9  and  O_10
REMARK    4  A    between atoms: P_9  and  O_11
REMARK    5  A    between atoms: O_11  and  C_12
REMARK    6  A    between atoms: C_12  and  C_20
REMARK    7  A    between atoms: O_18  and  C_19
REMARK    8  A    between atoms: C_25  and  O_26
REMARK                            x       y       z     vdW  Elec       q    Type
REMARK                         _______ _______ _______ _____ _____    ______ ____
ROOT
ATOM      1  O   UNL     1      49.547  35.364  42.794  0.00  0.00    +0.000 OA
ATOM      2  P   UNL     1      48.978  34.304  41.900  0.00  0.00    +0.000 P 
ENDROOT
BRANCH   2   3
ATOM      3  O   UNL     1      50.220  33.244  41.509  0.00  0.00    +0.000 OA
ATOM      4  H   UNL     1      51.075  33.746  41.500  0.00  0.00    +0.000 HD
ENDBRANCH   2   3
BRANCH   2   5
ATOM      5  O   UNL     1      47.708  33.480  42.698  0.00  0.00    +0.000 OA
BRANCH   5   7
ATOM      6  C   UNL     1      46.137  35.280  42.701  0.00  0.00    +0.000 A 
ATOM      7  C   UNL     1      46.691  34.185  43.343  0.00  0.00    +0.000 A 
ATOM      8  C   UNL     1      46.205  33.840  44.606  0.00  0.00    +0.000 A 
ATOM      9  N   UNL     1      45.209  34.601  45.140  0.00  0.00    +0.000 NA
ATOM     10  C   UNL     1      44.696  35.651  44.494  0.00  0.00    +0.000 A 
ATOM     11  N   UNL     1      45.161  35.979  43.289  0.00  0.00    +0.000 NA
ATOM     12  H   UNL     1      46.464  35.610  41.715  0.00  0.00    +0.000 HD
ATOM     13  H   UNL     1      46.648  32.974  45.105  0.00  0.00    +0.000 HD
ATOM     14  H   UNL     1      43.917  36.139  45.062  0.00  0.00    +0.000 HD
ENDBRANCH   5   7
ENDBRANCH   2   5
BRANCH   2  15
ATOM     15  O   UNL     1      48.410  35.022  40.505  0.00  0.00    +0.000 OA
BRANCH  15  16
ATOM     16  C   UNL     1      48.049  34.410  39.360  0.00  0.00    +0.000 C 
ATOM     17  O   UNL     1      46.957  33.730  39.511  0.00  0.00    +0.000 OA
BRANCH  16  19
ATOM     18  C   UNL     1      49.327  33.269  37.560  0.00  0.00    +0.000 A 
ATOM     19  C   UNL     1      48.496  34.260  37.944  0.00  0.00    +0.000 A 
ATOM     20  C   UNL     1      48.025  35.185  37.004  0.00  0.00    +0.000 A 
ATOM     21  H   UNL     1      47.347  35.985  37.339  0.00  0.00    +0.000 HD
ATOM     22  C   UNL     1      48.354  35.159  35.677  0.00  0.00    +0.000 A 
ATOM     23  C   UNL     1      49.198  34.160  35.265  0.00  0.00    +0.000 A 
ATOM     24  C   UNL     1      49.656  33.255  36.198  0.00  0.00    +0.000 A 
BRANCH  18  25
ATOM     25  O   UNL     1      49.833  32.322  38.426  0.00  0.00    +0.000 OA
ATOM     26  H   UNL     1      49.223  31.585  38.803  0.00  0.00    +0.000 HD
ENDBRANCH  18  25
BRANCH  24  27
ATOM     27  O   UNL     1      50.523  32.217  35.813  0.00  0.00    +0.000 OA
ATOM     28  H   UNL     1      50.340  31.291  36.179  0.00  0.00    +0.000 HD
ENDBRANCH  24  27
ENDBRANCH  16  19
ENDBRANCH  15  16
ENDBRANCH   2  15
TORSDOF 8
