
 OpenBabel03252509273D

 32 34  0  0  1  0  0  0  0  0999 V2000
   47.3570   35.2980   41.8410 C   0  0  1  0  0  0  0  0  0  0  0  0
   48.8630   35.6170   42.0660 C   0  0  0  0  0  0  0  0  0  0  0  0
   48.2890   34.5570   41.0920 C   0  0  2  0  0  0  0  0  0  0  0  0
   46.7920   36.1530   41.4320 H   0  0  0  0  0  0  0  0  0  0  0  0
   49.3400   35.2840   42.9880 H   0  0  0  0  0  0  0  0  0  0  0  0
   49.2010   36.5610   41.6210 H   0  0  0  0  0  0  0  0  0  0  0  0
   48.6340   33.5200   41.3890 H   0  0  0  0  0  0  0  0  0  0  0  0
   45.0950   34.5740   44.7420 C   0  0  0  0  0  0  0  0  0  0  0  0
   45.6130   35.2460   43.5990 C   0  0  0  0  0  0  0  0  0  0  0  0
   46.7470   34.7080   43.0890 C   0  0  0  0  0  0  0  0  0  0  0  0
   47.3460   33.5940   43.6480 N   0  0  0  0  0  0  0  0  0  0  0  0
   46.8120   32.9940   44.7350 C   0  0  0  0  0  0  0  0  0  0  0  0
   45.6790   33.4890   45.2830 N   0  0  0  0  0  0  0  0  0  0  0  0
   44.1930   34.9690   45.1770 H   0  0  0  0  0  0  0  0  0  0  0  0
   47.3960   32.1390   45.0500 H   0  0  0  0  0  0  0  0  0  0  0  0
   45.0130   36.3950   43.0470 N   0  0  0  0  0  0  0  0  0  0  0  0
   43.9620   36.4280   43.0090 H   0  0  0  0  0  0  0  0  0  0  0  0
   45.6420   37.1700   42.6980 H   0  0  0  0  0  0  0  0  0  0  0  0
   48.4440   34.7740   39.6100 C   0  0  0  0  0  0  0  0  0  0  0  0
   48.2090   35.8490   39.4360 H   0  0  0  0  0  0  0  0  0  0  0  0
   49.5250   34.6620   39.3610 H   0  0  0  0  0  0  0  0  0  0  0  0
   48.3550   33.6650   37.5480 C   0  0  0  0  0  0  0  0  0  0  0  0
   47.6690   33.8840   38.7500 C   0  0  0  0  0  0  0  0  0  0  0  0
   46.4560   33.2470   38.8930 C   0  0  0  0  0  0  0  0  0  0  0  0
   45.9960   33.4620   39.8330 H   0  0  0  0  0  0  0  0  0  0  0  0
   45.9280   32.4350   37.9180 C   0  0  0  0  0  3  0  0  0  0  0  0
   46.6180   32.2270   36.7270 C   0  0  0  0  0  3  0  0  0  0  0  0
   47.8280   32.8500   36.5610 C   0  0  0  0  0  0  0  0  0  0  0  0
   49.5940   34.1990   37.1750 O   0  0  0  0  0  0  0  0  0  0  0  0
   50.3940   33.8720   37.7120 H   0  0  0  0  0  0  0  0  0  0  0  0
   48.4350   32.5770   35.3430 O   0  0  0  0  0  0  0  0  0  0  0  0
   49.4300   32.8300   35.2790 H   0  0  0  0  0  0  0  0  0  0  0  0
  1  4  1  6  0  0  0
  1  2  1  0  0  0  0
  1 10  1  0  0  0  0
  2  5  1  0  0  0  0
  3  7  1  1  0  0  0
  3  1  1  0  0  0  0
  3  2  1  0  0  0  0
  6  2  1  0  0  0  0
  8 14  1  0  0  0  0
  8 13  1  0  0  0  0
  9  8  2  0  0  0  0
 10  9  1  0  0  0  0
 10 11  2  0  0  0  0
 11 12  1  0  0  0  0
 12 15  1  0  0  0  0
 12 13  2  0  0  0  0
 16  9  1  0  0  0  0
 17 16  1  0  0  0  0
 18 16  1  0  0  0  0
 19  3  1  0  0  0  0
 20 19  1  0  0  0  0
 21 19  1  0  0  0  0
 22 23  1  0  0  0  0
 23 24  2  0  0  0  0
 23 19  1  0  0  0  0
 24 25  1  0  0  0  0
 26 24  1  0  0  0  0
 27 26  2  0  0  0  0
 28 27  1  0  0  0  0
 28 22  2  0  0  0  0
 29 22  1  0  0  0  0
 29 30  1  0  0  0  0
 31 28  1  0  0  0  0
 32 31  1  0  0  0  0
M  END
>  <minimizedAffinity>
-5.56321096

>  <minimizedRMSD>
2.25712848

$$$$
