
 OpenBabel03252509273D

 32 34  0  0  1  0  0  0  0  0999 V2000
   47.3220   35.3070   41.7690 C   0  0  1  0  0  0  0  0  0  0  0  0
   48.8270   35.6510   41.9700 C   0  0  0  0  0  0  0  0  0  0  0  0
   48.2550   34.5740   41.0130 C   0  0  2  0  0  0  0  0  0  0  0  0
   46.7380   36.1490   41.3610 H   0  0  0  0  0  0  0  0  0  0  0  0
   49.3210   35.3350   42.8880 H   0  0  0  0  0  0  0  0  0  0  0  0
   49.1430   36.5960   41.5130 H   0  0  0  0  0  0  0  0  0  0  0  0
   48.6210   33.5450   41.3140 H   0  0  0  0  0  0  0  0  0  0  0  0
   45.1230   34.5840   44.7180 C   0  0  0  0  0  0  0  0  0  0  0  0
   45.6150   35.2540   43.5630 C   0  0  0  0  0  0  0  0  0  0  0  0
   46.7400   34.7170   43.0310 C   0  0  0  0  0  0  0  0  0  0  0  0
   47.3530   33.6050   43.5790 N   0  0  0  0  0  0  0  0  0  0  0  0
   46.8420   33.0060   44.6780 C   0  0  0  0  0  0  0  0  0  0  0  0
   45.7200   33.5000   45.2490 N   0  0  0  0  0  0  0  0  0  0  0  0
   44.2290   34.9780   45.1710 H   0  0  0  0  0  0  0  0  0  0  0  0
   47.4340   32.1530   44.9820 H   0  0  0  0  0  0  0  0  0  0  0  0
   45.0020   36.4010   43.0220 N   0  0  0  0  0  0  0  0  0  0  0  0
   43.9510   36.4320   43.0060 H   0  0  0  0  0  0  0  0  0  0  0  0
   45.6230   37.1770   42.6590 H   0  0  0  0  0  0  0  0  0  0  0  0
   48.3860   34.7810   39.5270 C   0  0  0  0  0  0  0  0  0  0  0  0
   48.0730   35.8330   39.3400 H   0  0  0  0  0  0  0  0  0  0  0  0
   49.4710   34.7430   39.2730 H   0  0  0  0  0  0  0  0  0  0  0  0
   48.4110   33.5730   37.5200 C   0  0  0  0  0  0  0  0  0  0  0  0
   47.6730   33.8250   38.6850 C   0  0  0  0  0  0  0  0  0  0  0  0
   46.4770   33.1540   38.8150 C   0  0  0  0  0  0  0  0  0  0  0  0
   45.9760   33.3980   39.7260 H   0  0  0  0  0  0  0  0  0  0  0  0
   46.0130   32.2800   37.8620 C   0  0  0  0  0  3  0  0  0  0  0  0
   46.7540   32.0390   36.7080 C   0  0  0  0  0  3  0  0  0  0  0  0
   47.9470   32.6940   36.5560 C   0  0  0  0  0  0  0  0  0  0  0  0
   49.6440   34.1300   37.1660 O   0  0  0  0  0  0  0  0  0  0  0  0
   50.4340   33.8570   37.7480 H   0  0  0  0  0  0  0  0  0  0  0  0
   48.6090   32.3850   35.3750 O   0  0  0  0  0  0  0  0  0  0  0  0
   49.5970   32.6690   35.3340 H   0  0  0  0  0  0  0  0  0  0  0  0
  1  4  1  6  0  0  0
  1  2  1  0  0  0  0
  1 10  1  0  0  0  0
  2  5  1  0  0  0  0
  3  7  1  1  0  0  0
  3  1  1  0  0  0  0
  3  2  1  0  0  0  0
  6  2  1  0  0  0  0
  8 14  1  0  0  0  0
  8 13  1  0  0  0  0
  9  8  2  0  0  0  0
 10  9  1  0  0  0  0
 10 11  2  0  0  0  0
 11 12  1  0  0  0  0
 12 15  1  0  0  0  0
 12 13  2  0  0  0  0
 16  9  1  0  0  0  0
 17 16  1  0  0  0  0
 18 16  1  0  0  0  0
 19  3  1  0  0  0  0
 20 19  1  0  0  0  0
 21 19  1  0  0  0  0
 22 23  1  0  0  0  0
 23 24  2  0  0  0  0
 23 19  1  0  0  0  0
 24 25  1  0  0  0  0
 26 24  1  0  0  0  0
 27 26  2  0  0  0  0
 28 27  1  0  0  0  0
 28 22  2  0  0  0  0
 29 22  1  0  0  0  0
 29 30  1  0  0  0  0
 31 28  1  0  0  0  0
 32 31  1  0  0  0  0
M  END
>  <minimizedAffinity>
-5.57079649

>  <minimizedRMSD>
2.64056396

$$$$
