
 OpenBabel03242513443D

 48 51  0  0  0  0  0  0  0  0999 V2000
   47.8320   31.1580   45.9120 C   0  0  0  0  0  0  0  0  0  0  0  0
   47.0200   32.1080   45.3700 C   0  0  0  0  0  0  0  0  0  0  0  0
   45.9360   32.5280   46.1040 C   0  0  0  0  0  0  0  0  0  0  0  0
   45.6340   32.0370   47.3530 C   0  0  0  0  0  0  0  0  0  0  0  0
   44.6850   32.2270   48.2980 N   0  0  0  0  0  0  0  0  0  0  0  0
   44.9240   31.4160   49.3670 C   0  0  0  0  0  0  0  0  0  0  0  0
   46.0360   30.7220   49.0690 N   0  0  0  0  0  0  0  0  0  0  0  0
   46.4710   31.0860   47.8600 C   0  0  0  0  0  0  0  0  0  0  0  0
   47.5660   30.6250   47.1830 C   0  0  0  0  0  0  0  0  0  0  0  0
   48.7150   30.7630   45.4060 H   0  0  0  0  0  0  0  0  0  0  0  0
   45.2590   33.2890   45.7060 H   0  0  0  0  0  0  0  0  0  0  0  0
   43.9060   32.9080   48.1720 H   0  0  0  0  0  0  0  0  0  0  0  0
   44.3110   31.3680   50.2720 H   0  0  0  0  0  0  0  0  0  0  0  0
   47.2890   34.4370   42.5650 C   0  0  0  0  0  0  0  0  0  0  0  0
   47.8440   33.6380   41.5480 C   0  0  0  0  0  0  0  0  0  0  0  0
   48.1100   32.3000   41.8760 C   0  0  0  0  0  0  0  0  0  0  0  0
   47.8300   31.8400   43.1230 N   0  0  0  0  0  0  0  0  0  0  0  0
   47.3010   32.6570   44.0470 C   0  0  0  0  0  0  0  0  0  0  0  0
   47.0250   33.9400   43.7930 N   0  0  0  0  0  0  0  0  0  0  0  0
   47.0650   35.4800   42.3550 H   0  0  0  0  0  0  0  0  0  0  0  0
   48.5400   31.6760   41.0920 H   0  0  0  0  0  0  0  0  0  0  0  0
   48.1070   34.2480   40.2250 C   0  0  0  0  0  0  0  0  0  0  0  0
   48.5960   35.5190   40.5160 F   0  0  0  0  0  0  0  0  0  0  0  0
   46.9150   34.3840   39.5690 F   0  0  0  0  0  0  0  0  0  0  0  0
   49.0170   33.4670   39.5440 F   0  0  0  0  0  0  0  0  0  0  0  0
   48.3920   29.6550   47.7400 O   0  0  0  0  0  0  0  0  0  0  0  0
   49.9550   28.5480   49.4920 O   0  0  0  0  0  0  0  0  0  0  0  0
   49.4920   29.8990   48.9860 P   0  0  2  0  0  0  0  0  0  0  0  0
   48.6330   30.6270   50.2700 O   0  0  0  0  0  0  0  0  0  0  0  0
   48.0110   29.9680   50.6620 H   0  0  0  0  0  0  0  0  0  0  0  0
   50.7970   30.8500   48.5700 O   0  0  0  0  0  0  0  0  0  0  0  0
   51.6190   31.2090   49.6050 C   0  0  0  0  0  0  0  0  0  0  0  0
   52.6850   31.2480   49.4070 H   0  0  0  0  0  0  0  0  0  0  0  0
   51.4900   30.4130   50.3950 H   0  0  0  0  0  0  0  0  0  0  0  0
   51.0580   32.5270   50.1730 C   0  0  0  0  0  0  0  0  0  0  0  0
   49.9450   32.4140   50.2120 H   0  0  0  0  0  0  0  0  0  0  0  0
   51.3170   33.3910   49.5690 H   0  0  0  0  0  0  0  0  0  0  0  0
   51.3410   31.6320   52.3860 C   0  0  0  0  0  0  0  0  0  0  0  0
   51.6190   32.7110   51.5420 C   0  0  0  0  0  0  0  0  0  0  0  0
   52.3340   33.8040   51.9830 C   0  0  0  0  0  0  0  0  0  0  0  0
   52.5060   34.6030   51.2590 H   0  0  0  0  0  0  0  0  0  0  0  0
   52.7910   33.8360   53.3040 C   0  0  0  0  0  0  0  0  0  0  0  0
   52.5130   32.7630   54.1420 C   0  0  0  0  0  0  0  0  0  0  0  0
   51.7990   31.6680   53.7040 C   0  0  0  0  0  0  0  0  0  0  0  0
   50.6430   30.4780   52.0890 O   0  0  0  0  0  0  0  0  0  0  0  0
   50.2510   30.2040   51.2220 H   0  0  0  0  0  0  0  0  0  0  0  0
   51.5660   30.6280   54.6260 O   0  0  0  0  0  0  0  0  0  0  0  0
   51.0180   29.8110   54.3430 H   0  0  0  0  0  0  0  0  0  0  0  0
  1  9  1  0  0  0  0
  2  1  2  0  0  0  0
  2  3  1  0  0  0  0
  3  4  2  0  0  0  0
  4  8  1  0  0  0  0
  4  5  1  0  0  0  0
  5  6  1  0  0  0  0
  6 13  1  0  0  0  0
  7  6  2  0  0  0  0
  8  7  1  0  0  0  0
  9 26  1  0  0  0  0
  9  8  2  0  0  0  0
 10  1  1  0  0  0  0
 11  3  1  0  0  0  0
 12  5  1  0  0  0  0
 14 19  1  0  0  0  0
 15 16  1  0  0  0  0
 15 14  2  0  0  0  0
 16 17  2  0  0  0  0
 17 18  1  0  0  0  0
 18  2  1  0  0  0  0
 19 18  2  0  0  0  0
 20 14  1  0  0  0  0
 21 16  1  0  0  0  0
 22 23  1  0  0  0  0
 22 15  1  0  0  0  0
 24 22  1  0  0  0  0
 25 22  1  0  0  0  0
 26 28  1  0  0  0  0
 28 27  2  1  0  0  0
 28 29  1  0  0  0  0
 29 30  1  0  0  0  0
 31 28  1  0  0  0  0
 31 32  1  0  0  0  0
 32 35  1  0  0  0  0
 32 34  1  0  0  0  0
 33 32  1  0  0  0  0
 35 36  1  0  0  0  0
 35 39  1  0  0  0  0
 37 35  1  0  0  0  0
 38 44  1  0  0  0  0
 39 40  1  0  0  0  0
 39 38  2  0  0  0  0
 40 42  2  0  0  0  0
 41 40  1  0  0  0  0
 42 43  1  0  0  0  0
 44 43  2  0  0  0  0
 44 47  1  0  0  0  0
 45 38  1  0  0  0  0
 46 45  1  0  0  0  0
 48 47  1  0  0  0  0
M  END
>  <minimizedAffinity>
-6.9732132

>  <minimizedRMSD>
1.5326941

$$$$
