
 OpenBabel03252506343D

 35 37  0  0  1  0  0  0  0  0999 V2000
   44.4560   35.9230   44.9800 C   0  0  0  0  0  0  0  0  0  0  0  0
   45.0690   35.9060   43.7070 C   0  0  0  0  0  0  0  0  0  0  0  0
   45.9320   34.8980   43.3980 C   0  0  0  0  0  0  0  0  0  0  0  0
   46.1510   33.9560   44.3520 N   0  0  0  0  0  0  0  0  0  0  0  0
   45.5740   33.9770   45.5430 C   0  0  0  0  0  0  0  0  0  0  0  0
   44.7180   34.9590   45.8760 N   0  0  0  0  0  0  0  0  0  0  0  0
   45.8780   32.9430   46.4620 N   0  0  0  0  0  0  0  0  0  0  0  0
   45.1060   32.6300   47.6630 C   0  0  0  0  0  0  0  0  0  0  0  0
   46.2180   32.2820   48.6540 C   0  0  0  0  0  0  0  0  0  0  0  0
   47.4810   32.1440   47.8710 C   0  0  0  0  0  0  0  0  0  0  0  0
   46.9630   31.9910   46.4500 C   0  0  1  0  0  0  0  0  0  0  0  0
   43.7670   36.7160   45.2440 H   0  0  0  0  0  0  0  0  0  0  0  0
   46.3980   34.8910   42.4220 H   0  0  0  0  0  0  0  0  0  0  0  0
   44.5460   31.7110   47.4320 H   0  0  0  0  0  0  0  0  0  0  0  0
   44.4890   33.4600   48.0060 H   0  0  0  0  0  0  0  0  0  0  0  0
   45.9120   31.3580   49.2050 H   0  0  0  0  0  0  0  0  0  0  0  0
   46.3040   33.0930   49.4060 H   0  0  0  0  0  0  0  0  0  0  0  0
   48.1510   31.3520   48.1930 H   0  0  0  0  0  0  0  0  0  0  0  0
   48.0330   33.1290   47.8920 H   0  0  0  0  0  0  0  0  0  0  0  0
   47.7880   32.2890   45.7850 H   0  0  0  0  0  0  0  0  0  0  0  0
   44.7220   36.9830   42.8170 N   0  0  0  0  0  0  0  0  0  0  0  0
   45.6300   37.5120   42.7270 H   0  0  0  0  0  0  0  0  0  0  0  0
   43.7550   37.0850   42.4340 H   0  0  0  0  0  0  0  0  0  0  0  0
   46.3980   30.3080   46.1870 S   0  0  0  0  0  0  0  0  0  0  0  0
   47.5500   28.0990   47.6200 C   0  0  0  0  0  0  0  0  0  0  0  0
   47.6320   29.1390   46.7250 C   0  0  0  0  0  0  0  0  0  0  0  0
   48.8550   29.3780   46.0860 C   0  0  0  0  0  0  0  0  0  0  0  0
   49.0860   30.1610   45.3520 H   0  0  0  0  0  0  0  0  0  0  0  0
   49.9700   28.5780   46.3530 C   0  0  0  0  0  3  0  0  0  0  0  0
   49.8600   27.5420   47.2550 C   0  0  0  0  0  3  0  0  0  0  0  0
   48.6380   27.3230   47.8750 C   0  0  0  0  0  0  0  0  0  0  0  0
   46.2910   27.9760   48.1720 O   0  0  0  0  0  0  0  0  0  0  0  0
   46.1760   27.8440   49.1810 H   0  0  0  0  0  0  0  0  0  0  0  0
   48.3830   26.3060   48.8130 O   0  0  0  0  0  0  0  0  0  0  0  0
   49.0230   25.5380   48.9370 H   0  0  0  0  0  0  0  0  0  0  0  0
  1 12  1  0  0  0  0
  1  6  1  0  0  0  0
  2  1  2  0  0  0  0
  3  2  1  0  0  0  0
  3  4  2  0  0  0  0
  4  5  1  0  0  0  0
  5  6  2  0  0  0  0
  5  7  1  0  0  0  0
  7  8  1  0  0  0  0
  8 15  1  0  0  0  0
  8  9  1  0  0  0  0
  9 16  1  0  0  0  0
  9 17  1  0  0  0  0
 10 19  1  0  0  0  0
 10 18  1  0  0  0  0
 10  9  1  0  0  0  0
 11 20  1  6  0  0  0
 11  7  1  0  0  0  0
 11 10  1  0  0  0  0
 13  3  1  0  0  0  0
 14  8  1  0  0  0  0
 21  2  1  0  0  0  0
 22 21  1  0  0  0  0
 23 21  1  0  0  0  0
 24 11  1  0  0  0  0
 24 26  1  0  0  0  0
 25 31  1  0  0  0  0
 25 32  1  0  0  0  0
 26 25  2  0  0  0  0
 27 29  2  0  0  0  0
 27 26  1  0  0  0  0
 28 27  1  0  0  0  0
 29 30  1  0  0  0  0
 30 31  2  0  0  0  0
 31 34  1  0  0  0  0
 32 33  1  0  0  0  0
 34 35  1  0  0  0  0
M  END
>  <minimizedAffinity>
-5.76035976

>  <minimizedRMSD>
0.68855685

$$$$
