
 OpenBabel03242512273D

 24 25  0  0  0  0  0  0  0  0999 V2000
   45.8970   32.8610   46.5800 C   0  0  0  0  0  0  0  0  0  0  0  0
   44.9990   33.1120   47.4520 O   0  0  0  0  0  0  0  0  0  0  0  0
   44.9310   35.1650   43.9580 C   0  0  0  0  0  0  0  0  0  0  0  0
   45.9850   35.0980   43.0430 C   0  0  0  0  0  0  0  0  0  0  0  0
   47.0610   34.2450   43.3200 C   0  0  0  0  0  0  0  0  0  0  0  0
   47.0150   33.5340   44.4620 N   0  0  0  0  0  0  0  0  0  0  0  0
   45.9990   33.6020   45.3370 C   0  0  0  0  0  0  0  0  0  0  0  0
   44.9610   34.4190   45.0790 N   0  0  0  0  0  0  0  0  0  0  0  0
   43.8430   36.0280   43.6790 N   0  0  0  0  0  0  0  0  0  0  0  0
   46.0160   35.6720   42.1290 H   0  0  0  0  0  0  0  0  0  0  0  0
   47.9100   34.1350   42.6690 H   0  0  0  0  0  0  0  0  0  0  0  0
   43.9660   37.0040   43.2890 H   0  0  0  0  0  0  0  0  0  0  0  0
   42.8100   35.8990   43.7850 H   0  0  0  0  0  0  0  0  0  0  0  0
   47.2380   31.6590   48.2620 C   0  0  0  0  0  0  0  0  0  0  0  0
   46.7890   31.7710   46.9660 C   0  0  0  0  0  0  0  0  0  0  0  0
   47.2530   30.7890   46.1160 C   0  0  0  0  0  0  0  0  0  0  0  0
   46.9470   30.8070   45.0830 H   0  0  0  0  0  0  0  0  0  0  0  0
   48.0950   29.7610   46.4820 C   0  0  0  0  0  3  0  0  0  0  0  0
   48.5210   29.6870   47.7910 C   0  0  0  0  0  3  0  0  0  0  0  0
   48.0860   30.6460   48.6820 C   0  0  0  0  0  0  0  0  0  0  0  0
   46.8630   32.5780   49.2610 O   0  0  0  0  0  0  0  0  0  0  0  0
   45.9020   32.4330   49.5920 H   0  0  0  0  0  0  0  0  0  0  0  0
   48.5180   30.5680   50.0000 O   0  0  0  0  0  0  0  0  0  0  0  0
   48.2090   31.2660   50.6630 H   0  0  0  0  0  0  0  0  0  0  0  0
  1 15  1  0  0  0  0
  1  2  2  0  0  0  0
  3  8  1  0  0  0  0
  4  5  1  0  0  0  0
  4  3  2  0  0  0  0
  5  6  2  0  0  0  0
  6  7  1  0  0  0  0
  7  1  1  0  0  0  0
  8  7  2  0  0  0  0
  9 13  1  0  0  0  0
  9  3  1  0  0  0  0
 10  4  1  0  0  0  0
 11  5  1  0  0  0  0
 12  9  1  0  0  0  0
 14 20  1  0  0  0  0
 14 21  1  0  0  0  0
 15 14  2  0  0  0  0
 16 18  2  0  0  0  0
 16 15  1  0  0  0  0
 17 16  1  0  0  0  0
 18 19  1  0  0  0  0
 19 20  2  0  0  0  0
 20 23  1  0  0  0  0
 21 22  1  0  0  0  0
 23 24  1  0  0  0  0
M  END
>  <minimizedAffinity>
-5.52656364

>  <minimizedRMSD>
1.46097124

$$$$
