
 OpenBabel03252509273D

 32 34  0  0  1  0  0  0  0  0999 V2000
   46.4750   34.9180   41.9720 C   0  0  1  0  0  0  0  0  0  0  0  0
   47.9300   35.4620   41.8640 C   0  0  0  0  0  0  0  0  0  0  0  0
   47.4070   34.1260   41.2770 C   0  0  2  0  0  0  0  0  0  0  0  0
   45.7350   35.5640   41.4710 H   0  0  0  0  0  0  0  0  0  0  0  0
   48.5680   35.4380   42.7470 H   0  0  0  0  0  0  0  0  0  0  0  0
   48.0540   36.2930   41.1590 H   0  0  0  0  0  0  0  0  0  0  0  0
   47.9470   33.2500   41.7490 H   0  0  0  0  0  0  0  0  0  0  0  0
   44.9090   34.9080   45.3790 C   0  0  0  0  0  0  0  0  0  0  0  0
   45.1920   35.3330   44.0500 C   0  0  0  0  0  0  0  0  0  0  0  0
   46.1330   34.5990   43.4070 C   0  0  0  0  0  0  0  0  0  0  0  0
   46.7640   33.5260   44.0090 N   0  0  0  0  0  0  0  0  0  0  0  0
   46.4570   33.1650   45.2750 C   0  0  0  0  0  0  0  0  0  0  0  0
   45.5230   33.8620   45.9610 N   0  0  0  0  0  0  0  0  0  0  0  0
   44.1650   35.4640   45.9230 H   0  0  0  0  0  0  0  0  0  0  0  0
   47.0340   32.3090   45.6010 H   0  0  0  0  0  0  0  0  0  0  0  0
   44.5660   36.4420   43.4480 N   0  0  0  0  0  0  0  0  0  0  0  0
   43.5400   36.5850   43.6360 H   0  0  0  0  0  0  0  0  0  0  0  0
   45.1510   37.0790   42.8400 H   0  0  0  0  0  0  0  0  0  0  0  0
   47.3320   33.9720   39.7800 C   0  0  0  0  0  0  0  0  0  0  0  0
   46.2970   33.6230   39.5640 H   0  0  0  0  0  0  0  0  0  0  0  0
   47.4040   34.9890   39.3290 H   0  0  0  0  0  0  0  0  0  0  0  0
   48.7590   32.1400   40.0910 C   0  0  0  0  0  0  0  0  0  0  0  0
   48.3500   33.1180   39.1750 C   0  0  0  0  0  0  0  0  0  0  0  0
   48.9500   33.0920   37.9350 C   0  0  0  0  0  0  0  0  0  0  0  0
   48.5880   33.8660   37.2950 H   0  0  0  0  0  0  0  0  0  0  0  0
   49.9030   32.1620   37.5950 C   0  0  0  0  0  3  0  0  0  0  0  0
   50.3020   31.1940   38.5150 C   0  0  0  0  0  3  0  0  0  0  0  0
   49.7190   31.2000   39.7550 C   0  0  0  0  0  0  0  0  0  0  0  0
   48.2970   31.9650   41.4000 O   0  0  0  0  0  0  0  0  0  0  0  0
   47.3260   31.6720   41.4910 H   0  0  0  0  0  0  0  0  0  0  0  0
   50.1830   30.1980   40.5950 O   0  0  0  0  0  0  0  0  0  0  0  0
   49.6120   30.0260   41.4350 H   0  0  0  0  0  0  0  0  0  0  0  0
  1  4  1  6  0  0  0
  1 10  1  0  0  0  0
  2  1  1  0  0  0  0
  2  5  1  0  0  0  0
  3  7  1  1  0  0  0
  3  2  1  0  0  0  0
  3  1  1  0  0  0  0
  6  2  1  0  0  0  0
  8 14  1  0  0  0  0
  8 13  1  0  0  0  0
  9  8  2  0  0  0  0
 10 11  2  0  0  0  0
 10  9  1  0  0  0  0
 11 12  1  0  0  0  0
 12 15  1  0  0  0  0
 12 13  2  0  0  0  0
 16 17  1  0  0  0  0
 16  9  1  0  0  0  0
 18 16  1  0  0  0  0
 19  3  1  0  0  0  0
 20 19  1  0  0  0  0
 21 19  1  0  0  0  0
 22 29  1  0  0  0  0
 23 19  1  0  0  0  0
 23 22  2  0  0  0  0
 24 23  1  0  0  0  0
 25 24  1  0  0  0  0
 26 24  2  0  0  0  0
 26 27  1  0  0  0  0
 27 28  2  0  0  0  0
 28 22  1  0  0  0  0
 28 31  1  0  0  0  0
 29 30  1  0  0  0  0
 31 32  1  0  0  0  0
M  END
>  <minimizedAffinity>
-4.84372044

>  <minimizedRMSD>
0.525747836

$$$$
