REMARK  Name = 
REMARK  6 active torsions:
REMARK  status: ('A' for Active; 'I' for Inactive)
REMARK    1  A    between atoms: C_1  and  C_11
REMARK    2  A    between atoms: C_5  and  C_14
REMARK    3  A    between atoms: C_15  and  C_16
REMARK    4  A    between atoms: C_16  and  C_30
REMARK    5  A    between atoms: O_28  and  C_29
REMARK    6  A    between atoms: C_35  and  O_36
REMARK                            x       y       z     vdW  Elec       q    Type
REMARK                         _______ _______ _______ _____ _____    ______ ____
ROOT
ATOM      1  C   UNL     1      46.171  32.548  46.999  0.00  0.00    +0.000 A 
ATOM      2  C   UNL     1      45.243  32.558  47.989  0.00  0.00    +0.000 A 
ATOM      3  C   UNL     1      45.431  31.754  49.091  0.00  0.00    +0.000 A 
ATOM      4  C   UNL     1      46.555  30.946  49.185  0.00  0.00    +0.000 A 
ATOM      5  C   UNL     1      47.481  30.965  48.151  0.00  0.00    +0.000 A 
ATOM      6  N   UNL     1      47.259  31.745  47.124  0.00  0.00    +0.000 NA
ATOM      7  H   UNL     1      44.363  33.208  47.886  0.00  0.00    +0.000 HD
ATOM      8  H   UNL     1      44.680  31.774  49.871  0.00  0.00    +0.000 HD
ATOM      9  H   UNL     1      46.718  30.308  50.043  0.00  0.00    +0.000 HD
ENDROOT
BRANCH   1  14
ATOM     10  C   UNL     1      44.971  34.995  44.565  0.00  0.00    +0.000 A 
ATOM     11  C   UNL     1      45.926  34.857  43.529  0.00  0.00    +0.000 A 
ATOM     12  C   UNL     1      46.981  33.918  43.676  0.00  0.00    +0.000 A 
ATOM     13  N   UNL     1      46.970  33.230  44.818  0.00  0.00    +0.000 NA
ATOM     14  C   UNL     1      46.070  33.363  45.789  0.00  0.00    +0.000 A 
ATOM     15  N   UNL     1      45.068  34.252  45.656  0.00  0.00    +0.000 NA
ATOM     16  N   UNL     1      43.930  35.936  44.401  0.00  0.00    +0.000 N 
ATOM     17  H   UNL     1      45.851  35.465  42.632  0.00  0.00    +0.000 HD
ATOM     18  H   UNL     1      47.718  33.803  42.892  0.00  0.00    +0.000 HD
ATOM     19  H   UNL     1      43.958  36.639  43.649  0.00  0.00    +0.000 HD
ATOM     20  H   UNL     1      43.120  35.913  45.058  0.00  0.00    +0.000 HD
ENDBRANCH   1  14
BRANCH   5  21
ATOM     21  C   UNL     1      48.677  30.131  48.209  0.00  0.00    +0.000 C 
ATOM     22  C   UNL     1      49.781  30.495  48.857  0.00  0.00    +0.000 C 
BRANCH  22  23
ATOM     23  C   UNL     1      49.889  31.776  49.573  0.00  0.00    +0.000 C 
ATOM     24  H   UNL     1      48.940  32.336  49.394  0.00  0.00    +0.000 HD
ATOM     25  H   UNL     1      50.672  32.384  49.042  0.00  0.00    +0.000 HD
BRANCH  23  27
ATOM     26  C   UNL     1      50.306  30.304  51.412  0.00  0.00    +0.000 A 
ATOM     27  C   UNL     1      50.175  31.628  51.024  0.00  0.00    +0.000 A 
ATOM     28  C   UNL     1      50.301  32.687  51.899  0.00  0.00    +0.000 A 
ATOM     29  H   UNL     1      50.184  33.687  51.517  0.00  0.00    +0.000 HD
ATOM     30  C   UNL     1      50.574  32.385  53.239  0.00  0.00    +0.000 A 
ATOM     31  C   UNL     1      50.700  31.063  53.605  0.00  0.00    +0.000 A 
ATOM     32  C   UNL     1      50.578  29.995  52.744  0.00  0.00    +0.000 A 
BRANCH  26  33
ATOM     33  O   UNL     1      50.185  29.220  50.550  0.00  0.00    +0.000 OA
ATOM     34  H   UNL     1      51.028  29.029  49.993  0.00  0.00    +0.000 HD
ENDBRANCH  26  33
BRANCH  32  35
ATOM     35  O   UNL     1      50.712  28.677  53.145  0.00  0.00    +0.000 OA
ATOM     36  H   UNL     1      51.567  28.197  52.873  0.00  0.00    +0.000 HD
ENDBRANCH  32  35
ENDBRANCH  23  27
ENDBRANCH  22  23
ENDBRANCH   5  21
TORSDOF 6
