
 OpenBabel03252500273D

 45 47  0  0  1  0  0  0  0  0999 V2000
   47.6740   32.6770   47.7670 O   0  0  0  0  0  0  0  0  0  0  0  0
   46.9250   31.6640   46.9720 P   0  0  1  0  0  0  0  0  0  0  0  0
   48.0040   30.8390   45.9680 O   0  0  0  0  0  0  0  0  0  0  0  0
   47.6600   30.6490   45.0700 H   0  0  0  0  0  0  0  0  0  0  0  0
   46.2420   30.6120   48.0440 O   0  0  0  0  0  0  0  0  0  0  0  0
   48.5040   30.0320   48.5490 C   0  0  2  0  0  0  0  0  0  0  0  0
   47.1070   29.5850   48.3170 C   0  0  2  0  0  0  0  0  0  0  0  0
   47.1720   28.5890   47.2700 C   0  0  0  0  0  0  0  0  0  0  0  0
   48.4670   28.0570   47.2280 O   0  0  0  0  0  0  0  0  0  0  0  0
   49.1290   28.6080   48.2720 C   0  0  0  0  0  0  0  0  0  0  0  0
   49.0410   30.5180   47.7180 H   0  0  0  0  0  0  0  0  0  0  0  0
   46.7870   29.2570   49.3490 H   0  0  0  0  0  0  0  0  0  0  0  0
   46.5920   28.5810   46.3730 H   0  0  0  0  0  0  0  0  0  0  0  0
   46.6750   27.6780   47.7620 H   0  0  0  0  0  0  0  0  0  0  0  0
   50.2130   28.6720   48.2260 H   0  0  0  0  0  0  0  0  0  0  0  0
   48.8780   28.0620   49.2190 H   0  0  0  0  0  0  0  0  0  0  0  0
   48.8360   30.3830   49.8030 O   0  0  0  0  0  0  0  0  0  0  0  0
   49.8410   31.1460   50.1360 C   0  0  0  0  0  0  0  0  0  0  0  0
   49.7450   32.1980   50.1930 H   0  0  0  0  0  0  0  0  0  0  0  0
   50.5670   31.0920   49.1670 H   0  0  0  0  0  0  0  0  0  0  0  0
   50.6650   30.4180   51.1920 C   0  0  0  0  0  0  0  0  0  0  0  0
   51.5810   31.0000   51.4350 H   0  0  0  0  0  0  0  0  0  0  0  0
   50.0220   30.2350   52.0650 H   0  0  0  0  0  0  0  0  0  0  0  0
   51.0100   29.4640   50.7000 H   0  0  0  0  0  0  0  0  0  0  0  0
   45.7690   32.5320   46.0700 O   0  0  0  0  0  0  0  0  0  0  0  0
   45.5320   35.1270   43.6010 C   0  0  0  0  0  0  0  0  0  0  0  0
   46.7180   34.9630   42.8270 C   0  0  0  0  0  0  0  0  0  0  0  0
   47.5760   33.9220   43.2130 C   0  0  0  0  0  0  0  0  0  0  0  0
   47.2430   33.1500   44.2680 N   0  0  0  0  0  0  0  0  0  0  0  0
   46.1170   33.3330   44.9740 C   0  0  0  0  0  0  0  0  0  0  0  0
   45.2750   34.3140   44.6390 N   0  0  0  0  0  0  0  0  0  0  0  0
   47.0190   35.5500   42.0010 H   0  0  0  0  0  0  0  0  0  0  0  0
   48.4910   33.7660   42.6450 H   0  0  0  0  0  0  0  0  0  0  0  0
   44.6660   36.1220   43.2730 O   0  0  0  0  0  0  0  0  0  0  0  0
   44.8000   37.7150   44.9510 C   0  0  0  0  0  0  0  0  0  0  0  0
   44.9380   37.4310   43.6080 C   0  0  0  0  0  0  0  0  0  0  0  0
   45.3240   38.4370   42.7460 C   0  0  0  0  0  0  0  0  0  0  0  0
   45.4110   38.1310   41.6980 H   0  0  0  0  0  0  0  0  0  0  0  0
   45.5780   39.7240   43.1710 C   0  0  0  0  0  3  0  0  0  0  0  0
   45.4400   40.0040   44.5130 C   0  0  0  0  0  3  0  0  0  0  0  0
   45.0540   39.0140   45.3980 C   0  0  0  0  0  0  0  0  0  0  0  0
   44.4310   36.8840   46.0040 O   0  0  0  0  0  0  0  0  0  0  0  0
   45.0400   36.7640   46.8280 H   0  0  0  0  0  0  0  0  0  0  0  0
   44.9520   39.4370   46.7360 O   0  0  0  0  0  0  0  0  0  0  0  0
   44.4000   40.2740   46.8840 H   0  0  0  0  0  0  0  0  0  0  0  0
  2  1  2  1  0  0  0
  2  5  1  0  0  0  0
  3  2  1  0  0  0  0
  4  3  1  0  0  0  0
  5  7  1  0  0  0  0
  6 11  1  6  0  0  0
  6 17  1  0  0  0  0
  7  6  1  0  0  0  0
  7 12  1  1  0  0  0
  8 14  1  0  0  0  0
  8  7  1  0  0  0  0
  9  8  1  0  0  0  0
  9 10  1  0  0  0  0
 10  6  1  0  0  0  0
 10 16  1  0  0  0  0
 13  8  1  0  0  0  0
 15 10  1  0  0  0  0
 17 18  1  0  0  0  0
 18 19  1  0  0  0  0
 18 21  1  0  0  0  0
 20 18  1  0  0  0  0
 21 22  1  0  0  0  0
 21 23  1  0  0  0  0
 24 21  1  0  0  0  0
 25  2  1  0  0  0  0
 26 31  1  0  0  0  0
 27 28  1  0  0  0  0
 27 26  2  0  0  0  0
 28 29  2  0  0  0  0
 29 30  1  0  0  0  0
 30 25  1  0  0  0  0
 31 30  2  0  0  0  0
 32 27  1  0  0  0  0
 33 28  1  0  0  0  0
 34 26  1  0  0  0  0
 34 36  1  0  0  0  0
 35 41  1  0  0  0  0
 35 42  1  0  0  0  0
 36 35  2  0  0  0  0
 37 39  2  0  0  0  0
 37 36  1  0  0  0  0
 38 37  1  0  0  0  0
 39 40  1  0  0  0  0
 40 41  2  0  0  0  0
 41 44  1  0  0  0  0
 42 43  1  0  0  0  0
 44 45  1  0  0  0  0
M  END
>  <minimizedAffinity>
-2.53553367

>  <minimizedRMSD>
2.84737468

$$$$
