
 OpenBabel03242514333D

 28 29  0  0  0  0  0  0  0  0999 V2000
   49.5570   35.4270   42.7910 O   0  0  0  0  0  0  0  0  0  0  0  0
   49.1150   34.2280   42.0070 P   0  0  1  0  0  0  0  0  0  0  0  0
   50.4690   33.2790   41.7170 O   0  0  0  0  0  0  0  0  0  0  0  0
   51.2630   33.8700   41.6550 H   0  0  0  0  0  0  0  0  0  0  0  0
   47.9380   33.3510   42.8870 O   0  0  0  0  0  0  0  0  0  0  0  0
   46.2700   35.0610   42.8510 C   0  0  0  0  0  0  0  0  0  0  0  0
   46.8760   34.0050   43.5120 C   0  0  0  0  0  0  0  0  0  0  0  0
   46.3940   33.6470   44.7730 C   0  0  0  0  0  0  0  0  0  0  0  0
   45.3510   34.3570   45.2860 N   0  0  0  0  0  0  0  0  0  0  0  0
   44.7890   35.3710   44.6230 C   0  0  0  0  0  0  0  0  0  0  0  0
   45.2500   35.7110   43.4200 N   0  0  0  0  0  0  0  0  0  0  0  0
   46.5910   35.3980   41.8660 H   0  0  0  0  0  0  0  0  0  0  0  0
   46.8780   32.8120   45.2870 H   0  0  0  0  0  0  0  0  0  0  0  0
   43.9770   35.8210   45.1760 H   0  0  0  0  0  0  0  0  0  0  0  0
   48.4800   34.7390   40.5510 O   0  0  0  0  0  0  0  0  0  0  0  0
   48.0140   33.9690   39.5480 C   0  0  0  0  0  0  0  0  0  0  0  0
   46.7290   33.8220   39.6240 O   0  0  0  0  0  0  0  0  0  0  0  0
   48.1550   33.5870   37.0970 C   0  0  0  0  0  0  0  0  0  0  0  0
   48.4960   33.2220   38.3500 C   0  0  0  0  0  0  0  0  0  0  0  0
   49.3280   32.1150   38.5570 C   0  0  0  0  0  0  0  0  0  0  0  0
   49.5940   31.8340   39.5880 H   0  0  0  0  0  0  0  0  0  0  0  0
   49.8400   31.3460   37.5490 C   0  0  0  0  0  0  0  0  0  0  0  0
   49.5060   31.6990   36.2670 C   0  0  0  0  0  0  0  0  0  0  0  0
   48.6870   32.7900   36.0730 C   0  0  0  0  0  0  0  0  0  0  0  0
   47.3420   34.6650   36.8130 O   0  0  0  0  0  0  0  0  0  0  0  0
   47.6900   35.6230   36.9340 H   0  0  0  0  0  0  0  0  0  0  0  0
   48.3230   33.1830   34.7730 O   0  0  0  0  0  0  0  0  0  0  0  0
   48.3540   34.1700   34.5540 H   0  0  0  0  0  0  0  0  0  0  0  0
  2  1  2  1  0  0  0
  2  5  1  0  0  0  0
  3  2  1  0  0  0  0
  4  3  1  0  0  0  0
  5  7  1  0  0  0  0
  6 11  2  0  0  0  0
  6  7  1  0  0  0  0
  7  8  2  0  0  0  0
  8  9  1  0  0  0  0
  8 13  1  0  0  0  0
 10 14  1  0  0  0  0
 10  9  2  0  0  0  0
 11 10  1  0  0  0  0
 12  6  1  0  0  0  0
 15  2  1  0  0  0  0
 16 17  2  0  0  0  0
 16 15  1  0  0  0  0
 18 19  1  0  0  0  0
 19 20  2  0  0  0  0
 19 16  1  0  0  0  0
 20 21  1  0  0  0  0
 22 20  1  0  0  0  0
 23 22  2  0  0  0  0
 24 23  1  0  0  0  0
 24 18  2  0  0  0  0
 25 26  1  0  0  0  0
 25 18  1  0  0  0  0
 27 24  1  0  0  0  0
 28 27  1  0  0  0  0
M  END
>  <minimizedAffinity>
-5.39107227

>  <minimizedRMSD>
1.19195914

$$$$
