
 OpenBabel03242523133D

 48 52  0  0  1  0  0  0  0  0999 V2000
   40.8130   35.2510   40.4710 C   0  0  0  0  0  0  0  0  0  0  0  0
   41.6030   34.0930   40.6300 C   0  0  0  0  0  0  0  0  0  0  0  0
   40.8330   32.9550   40.5850 C   0  0  0  0  0  0  0  0  0  0  0  0
   39.4830   32.9060   40.4150 C   0  0  0  0  0  0  0  0  0  0  0  0
   38.7790   34.0980   40.2710 C   0  0  0  0  0  0  0  0  0  0  0  0
   39.4560   35.2860   40.2980 C   0  0  0  0  0  0  0  0  0  0  0  0
   37.4550   33.7100   40.1260 O   0  0  0  0  0  0  0  0  0  0  0  0
   37.3540   32.3000   40.1230 C   0  0  2  0  0  0  0  0  0  0  0  0
   38.6640   31.7940   40.3610 O   0  0  0  0  0  0  0  0  0  0  0  0
   41.1190   36.3190   40.4470 H   0  0  0  0  0  0  0  0  0  0  0  0
   41.4000   32.0850   40.7000 H   0  0  0  0  0  0  0  0  0  0  0  0
   38.8160   36.1250   40.1760 H   0  0  0  0  0  0  0  0  0  0  0  0
   36.6380   31.9580   40.8880 H   0  0  0  0  0  0  0  0  0  0  0  0
   45.3180   34.5770   40.6180 C   0  0  0  0  0  0  0  0  0  0  0  0
   44.0820   34.1940   40.0910 C   0  0  0  0  0  0  0  0  0  0  0  0
   42.9590   34.3640   40.8440 C   0  0  0  0  0  0  0  0  0  0  0  0
   43.1160   34.9070   42.0930 N   0  0  0  0  0  0  0  0  0  0  0  0
   44.3000   35.2710   42.5910 C   0  0  0  0  0  0  0  0  0  0  0  0
   45.3810   35.1060   41.8600 N   0  0  0  0  0  0  0  0  0  0  0  0
   46.2190   34.4500   40.0360 H   0  0  0  0  0  0  0  0  0  0  0  0
   44.4800   35.7030   43.5670 H   0  0  0  0  0  0  0  0  0  0  0  0
   44.0770   33.6420   38.8150 N   0  0  0  0  0  0  0  0  0  0  0  0
   44.9440   32.5730   38.4470 C   0  0  0  0  0  0  0  0  0  0  0  0
   44.6760   31.9880   37.0840 C   0  0  0  0  0  0  0  0  0  0  0  0
   43.3370   31.8520   36.7470 N   0  0  0  0  0  0  0  0  0  0  0  0
   42.5130   32.9090   37.0670 C   0  0  0  0  0  0  0  0  0  0  0  0
   43.2550   34.0420   37.7420 C   0  0  0  0  0  0  0  0  0  0  0  0
   44.9960   31.7540   39.1980 H   0  0  0  0  0  0  0  0  0  0  0  0
   45.9750   33.0000   38.4160 H   0  0  0  0  0  0  0  0  0  0  0  0
   45.2100   32.5970   36.3210 H   0  0  0  0  0  0  0  0  0  0  0  0
   45.1810   30.9950   37.0610 H   0  0  0  0  0  0  0  0  0  0  0  0
   42.9260   30.9250   37.0480 H   0  0  0  0  0  0  0  0  0  0  0  0
   41.6230   32.6160   37.6600 H   0  0  0  0  0  0  0  0  0  0  0  0
   42.0750   33.3630   36.1310 H   0  0  0  0  0  0  0  0  0  0  0  0
   42.4920   34.7660   38.0910 H   0  0  0  0  0  0  0  0  0  0  0  0
   43.8640   34.5720   36.9620 H   0  0  0  0  0  0  0  0  0  0  0  0
   36.9430   31.9170   38.8410 O   0  0  0  0  0  0  0  0  0  0  0  0
   37.2580   30.4040   37.1540 C   0  0  0  0  0  0  0  0  0  0  0  0
   36.6750   30.6510   38.3990 C   0  0  0  0  0  0  0  0  0  0  0  0
   35.9430   29.6530   38.9980 C   0  0  0  0  0  0  0  0  0  0  0  0
   35.5250   29.9230   39.9570 H   0  0  0  0  0  0  0  0  0  0  0  0
   35.7580   28.4150   38.4200 C   0  0  0  0  0  3  0  0  0  0  0  0
   36.3460   28.1890   37.1840 C   0  0  0  0  0  3  0  0  0  0  0  0
   37.0910   29.1570   36.5420 C   0  0  0  0  0  0  0  0  0  0  0  0
   38.0200   31.3100   36.4340 O   0  0  0  0  0  0  0  0  0  0  0  0
   39.0320   31.2690   36.5220 H   0  0  0  0  0  0  0  0  0  0  0  0
   37.6680   28.8830   35.2870 O   0  0  0  0  0  0  0  0  0  0  0  0
   38.1900   28.0230   35.1810 H   0  0  0  0  0  0  0  0  0  0  0  0
  1  2  1  0  0  0  0
  2 16  1  0  0  0  0
  3  2  2  0  0  0  0
  3 11  1  0  0  0  0
  4  3  1  0  0  0  0
  5  6  1  0  0  0  0
  5  4  2  0  0  0  0
  6  1  2  0  0  0  0
  7  5  1  0  0  0  0
  8  7  1  0  0  0  0
  8  9  1  0  0  0  0
  8 13  1  1  0  0  0
  9  4  1  0  0  0  0
 10  1  1  0  0  0  0
 12  6  1  0  0  0  0
 14 19  1  0  0  0  0
 15 14  2  0  0  0  0
 15 16  1  0  0  0  0
 16 17  2  0  0  0  0
 17 18  1  0  0  0  0
 18 21  1  0  0  0  0
 19 18  2  0  0  0  0
 20 14  1  0  0  0  0
 22 15  1  0  0  0  0
 23 22  1  0  0  0  0
 23 28  1  0  0  0  0
 24 23  1  0  0  0  0
 25 32  1  0  0  0  0
 25 26  1  0  0  0  0
 25 24  1  0  0  0  0
 26 33  1  0  0  0  0
 26 27  1  0  0  0  0
 27 35  1  0  0  0  0
 27 22  1  0  0  0  0
 29 23  1  0  0  0  0
 30 24  1  0  0  0  0
 31 24  1  0  0  0  0
 34 26  1  0  0  0  0
 36 27  1  0  0  0  0
 37  8  1  0  0  0  0
 38 39  1  0  0  0  0
 39 37  1  0  0  0  0
 39 40  2  0  0  0  0
 40 41  1  0  0  0  0
 42 40  1  0  0  0  0
 43 42  2  0  0  0  0
 44 38  2  0  0  0  0
 44 43  1  0  0  0  0
 45 46  1  0  0  0  0
 45 38  1  0  0  0  0
 47 44  1  0  0  0  0
 48 47  1  0  0  0  0
M  END
>  <minimizedAffinity>
-7.19004679

$$$$

 OpenBabel03242523133D

 48 52  0  0  1  0  0  0  0  0999 V2000
   40.4040   29.4760   37.4320 C   0  0  0  0  0  0  0  0  0  0  0  0
   40.2220   30.8120   37.8470 C   0  0  0  0  0  0  0  0  0  0  0  0
   38.8920   31.0960   38.0440 C   0  0  0  0  0  0  0  0  0  0  0  0
   37.8530   30.2330   37.8690 C   0  0  0  0  0  0  0  0  0  0  0  0
   38.1210   28.9330   37.4530 C   0  0  0  0  0  0  0  0  0  0  0  0
   39.4160   28.5500   37.2330 C   0  0  0  0  0  0  0  0  0  0  0  0
   36.8770   28.3260   37.3670 O   0  0  0  0  0  0  0  0  0  0  0  0
   35.8640   29.2220   37.7810 C   0  0  2  0  0  0  0  0  0  0  0  0
   36.5030   30.4650   38.0540 O   0  0  0  0  0  0  0  0  0  0  0  0
   41.3430   28.9280   37.2020 H   0  0  0  0  0  0  0  0  0  0  0  0
   38.7350   32.0820   38.3530 H   0  0  0  0  0  0  0  0  0  0  0  0
   39.4970   27.5380   36.9210 H   0  0  0  0  0  0  0  0  0  0  0  0
   35.0900   29.3230   37.0030 H   0  0  0  0  0  0  0  0  0  0  0  0
   43.1210   33.0940   38.4990 C   0  0  0  0  0  0  0  0  0  0  0  0
   41.8410   32.5720   38.7010 C   0  0  0  0  0  0  0  0  0  0  0  0
   41.4120   31.5450   37.9130 C   0  0  0  0  0  0  0  0  0  0  0  0
   42.2780   31.0840   36.9560 N   0  0  0  0  0  0  0  0  0  0  0  0
   43.5000   31.5870   36.7670 C   0  0  0  0  0  0  0  0  0  0  0  0
   43.9090   32.5770   37.5300 N   0  0  0  0  0  0  0  0  0  0  0  0
   43.4790   33.9080   39.1130 H   0  0  0  0  0  0  0  0  0  0  0  0
   44.2210   31.2610   36.0290 H   0  0  0  0  0  0  0  0  0  0  0  0
   41.0680   33.1520   39.6990 N   0  0  0  0  0  0  0  0  0  0  0  0
   40.4870   34.4460   39.5570 C   0  0  0  0  0  0  0  0  0  0  0  0
   39.5400   34.8340   40.6630 C   0  0  0  0  0  0  0  0  0  0  0  0
   38.7070   33.8210   41.1180 N   0  0  0  0  0  0  0  0  0  0  0  0
   39.2870   32.5830   41.2950 C   0  0  0  0  0  0  0  0  0  0  0  0
   40.7600   32.5750   40.9490 C   0  0  0  0  0  0  0  0  0  0  0  0
   39.9980   34.6150   38.5730 H   0  0  0  0  0  0  0  0  0  0  0  0
   41.3330   35.1740   39.5860 H   0  0  0  0  0  0  0  0  0  0  0  0
   40.1290   35.2620   41.5050 H   0  0  0  0  0  0  0  0  0  0  0  0
   38.9340   35.6850   40.2760 H   0  0  0  0  0  0  0  0  0  0  0  0
   37.7990   33.7590   40.5790 H   0  0  0  0  0  0  0  0  0  0  0  0
   38.7570   31.7650   40.7680 H   0  0  0  0  0  0  0  0  0  0  0  0
   39.2400   32.2800   42.3820 H   0  0  0  0  0  0  0  0  0  0  0  0
   41.0920   31.5180   40.9780 H   0  0  0  0  0  0  0  0  0  0  0  0
   41.3120   33.1050   41.7700 H   0  0  0  0  0  0  0  0  0  0  0  0
   35.3240   28.7170   38.9680 O   0  0  0  0  0  0  0  0  0  0  0  0
   36.1340   28.9470   41.0950 C   0  0  0  0  0  0  0  0  0  0  0  0
   35.9930   28.1040   39.9900 C   0  0  0  0  0  0  0  0  0  0  0  0
   36.5140   26.8330   40.0570 C   0  0  0  0  0  0  0  0  0  0  0  0
   36.3640   26.2450   39.1620 H   0  0  0  0  0  0  0  0  0  0  0  0
   37.1710   26.3530   41.1690 C   0  0  0  0  0  3  0  0  0  0  0  0
   37.3000   27.2060   42.2560 C   0  0  0  0  0  3  0  0  0  0  0  0
   36.7950   28.4900   42.2410 C   0  0  0  0  0  0  0  0  0  0  0  0
   35.6630   30.2470   41.1740 O   0  0  0  0  0  0  0  0  0  0  0  0
   34.7590   30.4090   41.6100 H   0  0  0  0  0  0  0  0  0  0  0  0
   36.9510   29.3200   43.3670 O   0  0  0  0  0  0  0  0  0  0  0  0
   36.7070   28.9430   44.2740 H   0  0  0  0  0  0  0  0  0  0  0  0
  1  2  1  0  0  0  0
  2 16  1  0  0  0  0
  2  3  2  0  0  0  0
  3 11  1  0  0  0  0
  4  3  1  0  0  0  0
  4  9  1  0  0  0  0
  5  4  2  0  0  0  0
  6  1  2  0  0  0  0
  6  5  1  0  0  0  0
  7  5  1  0  0  0  0
  7  8  1  0  0  0  0
  8 13  1  6  0  0  0
  8  9  1  0  0  0  0
  8 37  1  0  0  0  0
 10  1  1  0  0  0  0
 12  6  1  0  0  0  0
 14 15  1  0  0  0  0
 14 20  1  0  0  0  0
 15 22  1  0  0  0  0
 16 15  2  0  0  0  0
 17 16  1  0  0  0  0
 18 17  2  0  0  0  0
 18 19  1  0  0  0  0
 19 14  2  0  0  0  0
 21 18  1  0  0  0  0
 22 27  1  0  0  0  0
 23 29  1  0  0  0  0
 23 22  1  0  0  0  0
 23 24  1  0  0  0  0
 24 25  1  0  0  0  0
 24 30  1  0  0  0  0
 25 26  1  0  0  0  0
 26 34  1  0  0  0  0
 27 35  1  0  0  0  0
 27 26  1  0  0  0  0
 27 36  1  0  0  0  0
 28 23  1  0  0  0  0
 31 24  1  0  0  0  0
 32 25  1  0  0  0  0
 33 26  1  0  0  0  0
 37 39  1  0  0  0  0
 38 45  1  0  0  0  0
 38 44  1  0  0  0  0
 39 40  1  0  0  0  0
 39 38  2  0  0  0  0
 40 42  2  0  0  0  0
 41 40  1  0  0  0  0
 42 43  1  0  0  0  0
 44 43  2  0  0  0  0
 44 47  1  0  0  0  0
 45 46  1  0  0  0  0
 47 48  1  0  0  0  0
M  END
>  <minimizedAffinity>
-7.1197443

$$$$

 OpenBabel03242523133D

 48 52  0  0  1  0  0  0  0  0999 V2000
   37.6650   31.2110   40.2900 C   0  0  0  0  0  0  0  0  0  0  0  0
   38.8760   31.5480   40.9310 C   0  0  0  0  0  0  0  0  0  0  0  0
   39.1650   30.6670   41.9450 C   0  0  0  0  0  0  0  0  0  0  0  0
   38.4090   29.5970   42.3180 C   0  0  0  0  0  0  0  0  0  0  0  0
   37.2250   29.3390   41.6340 C   0  0  0  0  0  0  0  0  0  0  0  0
   36.8510   30.1580   40.6040 C   0  0  0  0  0  0  0  0  0  0  0  0
   36.7010   28.2110   42.2480 O   0  0  0  0  0  0  0  0  0  0  0  0
   37.5790   27.7490   43.2560 C   0  0  2  0  0  0  0  0  0  0  0  0
   38.6530   28.6810   43.3240 O   0  0  0  0  0  0  0  0  0  0  0  0
   37.1570   31.7040   39.4340 H   0  0  0  0  0  0  0  0  0  0  0  0
   40.0600   30.8980   42.4330 H   0  0  0  0  0  0  0  0  0  0  0  0
   35.9330   29.8620   40.1580 H   0  0  0  0  0  0  0  0  0  0  0  0
   37.0540   27.6590   44.2210 H   0  0  0  0  0  0  0  0  0  0  0  0
   40.8740   34.2670   39.3010 C   0  0  0  0  0  0  0  0  0  0  0  0
   40.5320   32.9480   39.6090 C   0  0  0  0  0  0  0  0  0  0  0  0
   39.4710   32.7120   40.4310 C   0  0  0  0  0  0  0  0  0  0  0  0
   38.7960   33.8030   40.9150 N   0  0  0  0  0  0  0  0  0  0  0  0
   39.1280   35.0620   40.6170 C   0  0  0  0  0  0  0  0  0  0  0  0
   40.1530   35.2840   39.8230 N   0  0  0  0  0  0  0  0  0  0  0  0
   41.7120   34.4730   38.6510 H   0  0  0  0  0  0  0  0  0  0  0  0
   38.6320   35.9570   40.9700 H   0  0  0  0  0  0  0  0  0  0  0  0
   41.3170   31.9410   39.0580 N   0  0  0  0  0  0  0  0  0  0  0  0
   42.4000   31.3480   39.7680 C   0  0  0  0  0  0  0  0  0  0  0  0
   43.0220   30.1570   39.0840 C   0  0  0  0  0  0  0  0  0  0  0  0
   42.1310   29.2920   38.4660 N   0  0  0  0  0  0  0  0  0  0  0  0
   41.1110   29.8740   37.7450 C   0  0  0  0  0  0  0  0  0  0  0  0
   41.1680   31.3860   37.7700 C   0  0  0  0  0  0  0  0  0  0  0  0
   42.1600   31.0870   40.8220 H   0  0  0  0  0  0  0  0  0  0  0  0
   43.1950   32.1290   39.8390 H   0  0  0  0  0  0  0  0  0  0  0  0
   43.7820   30.5190   38.3560 H   0  0  0  0  0  0  0  0  0  0  0  0
   43.6070   29.6160   39.8630 H   0  0  0  0  0  0  0  0  0  0  0  0
   41.7750   28.5330   39.1120 H   0  0  0  0  0  0  0  0  0  0  0  0
   40.1020   29.5160   38.0330 H   0  0  0  0  0  0  0  0  0  0  0  0
   41.1940   29.5970   36.6530 H   0  0  0  0  0  0  0  0  0  0  0  0
   40.2360   31.7520   37.2970 H   0  0  0  0  0  0  0  0  0  0  0  0
   42.0120   31.7120   37.1060 H   0  0  0  0  0  0  0  0  0  0  0  0
   38.0770   26.5110   42.8350 O   0  0  0  0  0  0  0  0  0  0  0  0
   38.0410   24.4200   41.9060 C   0  0  0  0  0  0  0  0  0  0  0  0
   37.6380   25.7530   41.7850 C   0  0  0  0  0  0  0  0  0  0  0  0
   36.8940   26.1230   40.6900 C   0  0  0  0  0  0  0  0  0  0  0  0
   36.6230   27.1690   40.6710 H   0  0  0  0  0  0  0  0  0  0  0  0
   36.5260   25.2350   39.7030 C   0  0  0  0  0  3  0  0  0  0  0  0
   36.9350   23.9150   39.8410 C   0  0  0  0  0  3  0  0  0  0  0  0
   37.6830   23.4930   40.9210 C   0  0  0  0  0  0  0  0  0  0  0  0
   38.7910   23.9030   42.9490 O   0  0  0  0  0  0  0  0  0  0  0  0
   38.3020   23.4570   43.7220 H   0  0  0  0  0  0  0  0  0  0  0  0
   38.0760   22.1440   41.0180 O   0  0  0  0  0  0  0  0  0  0  0  0
   37.3720   21.4320   40.8800 H   0  0  0  0  0  0  0  0  0  0  0  0
  1  6  2  0  0  0  0
  1  2  1  0  0  0  0
  2  3  2  0  0  0  0
  3  4  1  0  0  0  0
  3 11  1  0  0  0  0
  4  9  1  0  0  0  0
  5  7  1  0  0  0  0
  5  4  2  0  0  0  0
  6  5  1  0  0  0  0
  7  8  1  0  0  0  0
  8  9  1  0  0  0  0
  8 13  1  1  0  0  0
 10  1  1  0  0  0  0
 12  6  1  0  0  0  0
 14 15  2  0  0  0  0
 14 19  1  0  0  0  0
 15 16  1  0  0  0  0
 16 17  2  0  0  0  0
 16  2  1  0  0  0  0
 18 17  1  0  0  0  0
 18 21  1  0  0  0  0
 19 18  2  0  0  0  0
 20 14  1  0  0  0  0
 22 15  1  0  0  0  0
 22 23  1  0  0  0  0
 23 29  1  0  0  0  0
 23 28  1  0  0  0  0
 24 23  1  0  0  0  0
 24 31  1  0  0  0  0
 25 24  1  0  0  0  0
 25 32  1  0  0  0  0
 26 27  1  0  0  0  0
 26 33  1  0  0  0  0
 26 25  1  0  0  0  0
 27 22  1  0  0  0  0
 30 24  1  0  0  0  0
 34 26  1  0  0  0  0
 35 27  1  0  0  0  0
 36 27  1  0  0  0  0
 37  8  1  0  0  0  0
 38 45  1  0  0  0  0
 39 38  1  0  0  0  0
 39 37  1  0  0  0  0
 40 39  2  0  0  0  0
 41 40  1  0  0  0  0
 42 43  2  0  0  0  0
 42 40  1  0  0  0  0
 43 44  1  0  0  0  0
 44 47  1  0  0  0  0
 44 38  2  0  0  0  0
 45 46  1  0  0  0  0
 48 47  1  0  0  0  0
M  END
>  <minimizedAffinity>
-6.99310446

$$$$

 OpenBabel03242523133D

 48 52  0  0  1  0  0  0  0  0999 V2000
   37.1810   28.2890   41.8350 C   0  0  0  0  0  0  0  0  0  0  0  0
   38.3180   27.6990   41.2430 C   0  0  0  0  0  0  0  0  0  0  0  0
   38.5370   28.1940   39.9800 C   0  0  0  0  0  0  0  0  0  0  0  0
   37.7780   29.1290   39.3430 C   0  0  0  0  0  0  0  0  0  0  0  0
   36.6700   29.6570   39.9970 C   0  0  0  0  0  0  0  0  0  0  0  0
   36.3700   29.2310   41.2620 C   0  0  0  0  0  0  0  0  0  0  0  0
   36.1230   30.5570   39.0950 O   0  0  0  0  0  0  0  0  0  0  0  0
   36.9170   30.6250   37.9270 C   0  0  2  0  0  0  0  0  0  0  0  0
   37.9540   29.6610   38.0790 O   0  0  0  0  0  0  0  0  0  0  0  0
   36.7400   28.1240   42.8410 H   0  0  0  0  0  0  0  0  0  0  0  0
   39.3760   27.7710   39.5250 H   0  0  0  0  0  0  0  0  0  0  0  0
   35.5050   29.7040   41.6590 H   0  0  0  0  0  0  0  0  0  0  0  0
   36.3080   30.4310   37.0280 H   0  0  0  0  0  0  0  0  0  0  0  0
   39.6350   24.6710   43.0130 C   0  0  0  0  0  0  0  0  0  0  0  0
   38.9000   25.3620   42.0470 C   0  0  0  0  0  0  0  0  0  0  0  0
   38.9240   26.7250   42.0440 C   0  0  0  0  0  0  0  0  0  0  0  0
   39.6780   27.3420   43.0080 N   0  0  0  0  0  0  0  0  0  0  0  0
   40.3790   26.6760   43.9300 C   0  0  0  0  0  0  0  0  0  0  0  0
   40.3530   25.3610   43.9270 N   0  0  0  0  0  0  0  0  0  0  0  0
   39.6280   23.5900   43.0310 H   0  0  0  0  0  0  0  0  0  0  0  0
   40.9880   27.1110   44.7110 H   0  0  0  0  0  0  0  0  0  0  0  0
   38.1680   24.6030   41.1410 N   0  0  0  0  0  0  0  0  0  0  0  0
   36.7810   24.3320   41.3230 C   0  0  0  0  0  0  0  0  0  0  0  0
   36.1160   23.6470   40.1560 C   0  0  0  0  0  0  0  0  0  0  0  0
   36.5070   24.0930   38.9020 N   0  0  0  0  0  0  0  0  0  0  0  0
   37.8560   24.3110   38.7210 C   0  0  0  0  0  0  0  0  0  0  0  0
   38.6660   24.0100   39.9630 C   0  0  0  0  0  0  0  0  0  0  0  0
   36.1830   25.2220   41.6210 H   0  0  0  0  0  0  0  0  0  0  0  0
   36.7080   23.6330   42.1910 H   0  0  0  0  0  0  0  0  0  0  0  0
   36.2760   22.5500   40.2470 H   0  0  0  0  0  0  0  0  0  0  0  0
   35.0190   23.7890   40.2900 H   0  0  0  0  0  0  0  0  0  0  0  0
   35.9250   24.9040   38.5500 H   0  0  0  0  0  0  0  0  0  0  0  0
   38.0950   25.3210   38.3320 H   0  0  0  0  0  0  0  0  0  0  0  0
   38.2630   23.6140   37.9310 H   0  0  0  0  0  0  0  0  0  0  0  0
   39.7000   24.3560   39.7650 H   0  0  0  0  0  0  0  0  0  0  0  0
   38.7200   22.8950   40.0800 H   0  0  0  0  0  0  0  0  0  0  0  0
   37.4850   31.9030   37.8850 O   0  0  0  0  0  0  0  0  0  0  0  0
   38.1460   33.1560   39.6810 C   0  0  0  0  0  0  0  0  0  0  0  0
   38.5520   32.3610   38.6060 C   0  0  0  0  0  0  0  0  0  0  0  0
   39.8960   32.1460   38.4110 C   0  0  0  0  0  0  0  0  0  0  0  0
   40.1270   31.5220   37.5600 H   0  0  0  0  0  0  0  0  0  0  0  0
   40.8640   32.6830   39.2320 C   0  0  0  0  0  3  0  0  0  0  0  0
   40.4410   33.4700   40.2950 C   0  0  0  0  0  3  0  0  0  0  0  0
   39.1050   33.7150   40.5340 C   0  0  0  0  0  0  0  0  0  0  0  0
   36.8330   33.4590   40.0010 O   0  0  0  0  0  0  0  0  0  0  0  0
   36.3620   32.8900   40.7010 H   0  0  0  0  0  0  0  0  0  0  0  0
   38.7220   34.5210   41.6240 O   0  0  0  0  0  0  0  0  0  0  0  0
   39.1280   34.3210   42.5290 H   0  0  0  0  0  0  0  0  0  0  0  0
  1 10  1  0  0  0  0
  2  1  2  0  0  0  0
  2 16  1  0  0  0  0
  3  2  1  0  0  0  0
  4  3  2  0  0  0  0
  4  5  1  0  0  0  0
  5  6  2  0  0  0  0
  6 12  1  0  0  0  0
  6  1  1  0  0  0  0
  7  5  1  0  0  0  0
  8 13  1  6  0  0  0
  8  9  1  0  0  0  0
  8  7  1  0  0  0  0
  9  4  1  0  0  0  0
 11  3  1  0  0  0  0
 14 20  1  0  0  0  0
 14 19  1  0  0  0  0
 15 14  2  0  0  0  0
 16 15  1  0  0  0  0
 16 17  2  0  0  0  0
 17 18  1  0  0  0  0
 18 21  1  0  0  0  0
 19 18  2  0  0  0  0
 22 23  1  0  0  0  0
 22 15  1  0  0  0  0
 23 28  1  0  0  0  0
 23 29  1  0  0  0  0
 24 30  1  0  0  0  0
 24 31  1  0  0  0  0
 24 23  1  0  0  0  0
 25 24  1  0  0  0  0
 26 25  1  0  0  0  0
 26 27  1  0  0  0  0
 27 36  1  0  0  0  0
 27 22  1  0  0  0  0
 32 25  1  0  0  0  0
 33 26  1  0  0  0  0
 34 26  1  0  0  0  0
 35 27  1  0  0  0  0
 37  8  1  0  0  0  0
 37 39  1  0  0  0  0
 38 45  1  0  0  0  0
 38 44  1  0  0  0  0
 39 38  2  0  0  0  0
 40 39  1  0  0  0  0
 40 42  2  0  0  0  0
 41 40  1  0  0  0  0
 42 43  1  0  0  0  0
 43 44  2  0  0  0  0
 44 47  1  0  0  0  0
 45 46  1  0  0  0  0
 47 48  1  0  0  0  0
M  END
>  <minimizedAffinity>
-6.96516991

$$$$

 OpenBabel03242523133D

 48 52  0  0  1  0  0  0  0  0999 V2000
   37.0100   26.6020   42.1520 C   0  0  0  0  0  0  0  0  0  0  0  0
   37.1060   26.2500   40.7890 C   0  0  0  0  0  0  0  0  0  0  0  0
   36.8920   27.3380   39.9770 C   0  0  0  0  0  0  0  0  0  0  0  0
   36.6180   28.6060   40.3910 C   0  0  0  0  0  0  0  0  0  0  0  0
   36.5380   28.8670   41.7550 C   0  0  0  0  0  0  0  0  0  0  0  0
   36.7390   27.8490   42.6470 C   0  0  0  0  0  0  0  0  0  0  0  0
   36.2460   30.2200   41.8400 O   0  0  0  0  0  0  0  0  0  0  0  0
   36.2060   30.7950   40.5480 C   0  0  2  0  0  0  0  0  0  0  0  0
   36.3980   29.7330   39.6200 O   0  0  0  0  0  0  0  0  0  0  0  0
   37.1400   25.9710   43.0570 H   0  0  0  0  0  0  0  0  0  0  0  0
   36.9600   27.0990   38.9620 H   0  0  0  0  0  0  0  0  0  0  0  0
   36.6540   28.1660   43.6570 H   0  0  0  0  0  0  0  0  0  0  0  0
   35.2490   31.3150   40.3820 H   0  0  0  0  0  0  0  0  0  0  0  0
   38.2930   22.7070   40.5190 C   0  0  0  0  0  0  0  0  0  0  0  0
   38.3730   24.0520   40.8870 C   0  0  0  0  0  0  0  0  0  0  0  0
   37.3410   24.8870   40.5780 C   0  0  0  0  0  0  0  0  0  0  0  0
   36.2720   24.3450   39.9120 N   0  0  0  0  0  0  0  0  0  0  0  0
   36.2000   23.0580   39.5630 C   0  0  0  0  0  0  0  0  0  0  0  0
   37.1990   22.2570   39.8640 N   0  0  0  0  0  0  0  0  0  0  0  0
   39.1010   22.0300   40.7550 H   0  0  0  0  0  0  0  0  0  0  0  0
   35.3840   22.5800   39.0390 H   0  0  0  0  0  0  0  0  0  0  0  0
   39.5260   24.4640   41.5440 N   0  0  0  0  0  0  0  0  0  0  0  0
   40.6080   25.0920   40.8600 C   0  0  0  0  0  0  0  0  0  0  0  0
   41.6920   25.6270   41.7590 C   0  0  0  0  0  0  0  0  0  0  0  0
   41.2540   26.2360   42.9260 N   0  0  0  0  0  0  0  0  0  0  0  0
   40.2370   25.5990   43.6050 C   0  0  0  0  0  0  0  0  0  0  0  0
   39.7900   24.3240   42.9220 C   0  0  0  0  0  0  0  0  0  0  0  0
   40.2910   25.8850   40.1470 H   0  0  0  0  0  0  0  0  0  0  0  0
   41.0770   24.3030   40.2230 H   0  0  0  0  0  0  0  0  0  0  0  0
   42.4040   24.8040   41.9920 H   0  0  0  0  0  0  0  0  0  0  0  0
   42.2820   26.3490   41.1470 H   0  0  0  0  0  0  0  0  0  0  0  0
   41.0630   27.2700   42.8080 H   0  0  0  0  0  0  0  0  0  0  0  0
   39.3690   26.2530   43.8210 H   0  0  0  0  0  0  0  0  0  0  0  0
   40.5910   25.2740   44.6270 H   0  0  0  0  0  0  0  0  0  0  0  0
   38.8830   23.9750   43.4540 H   0  0  0  0  0  0  0  0  0  0  0  0
   40.5790   23.5450   43.0910 H   0  0  0  0  0  0  0  0  0  0  0  0
   37.2840   31.6810   40.4560 O   0  0  0  0  0  0  0  0  0  0  0  0
   38.6180   32.0070   38.6260 C   0  0  0  0  0  0  0  0  0  0  0  0
   38.5100   31.4430   39.9000 C   0  0  0  0  0  0  0  0  0  0  0  0
   39.5850   30.7550   40.4130 C   0  0  0  0  0  0  0  0  0  0  0  0
   39.4210   30.3490   41.4010 H   0  0  0  0  0  0  0  0  0  0  0  0
   40.7670   30.5960   39.7230 C   0  0  0  0  0  3  0  0  0  0  0  0
   40.8550   31.1640   38.4600 C   0  0  0  0  0  3  0  0  0  0  0  0
   39.8060   31.8640   37.9000 C   0  0  0  0  0  0  0  0  0  0  0  0
   37.6240   32.7240   37.9820 O   0  0  0  0  0  0  0  0  0  0  0  0
   37.6400   33.7390   38.0470 H   0  0  0  0  0  0  0  0  0  0  0  0
   39.9410   32.4220   36.6140 O   0  0  0  0  0  0  0  0  0  0  0  0
   40.7690   32.9690   36.4170 H   0  0  0  0  0  0  0  0  0  0  0  0
  1  6  1  0  0  0  0
  1 10  1  0  0  0  0
  2  1  2  0  0  0  0
  3  4  2  0  0  0  0
  3  2  1  0  0  0  0
  4  5  1  0  0  0  0
  5  7  1  0  0  0  0
  5  6  2  0  0  0  0
  6 12  1  0  0  0  0
  8 13  1  6  0  0  0
  8  7  1  0  0  0  0
  9  4  1  0  0  0  0
  9  8  1  0  0  0  0
 11  3  1  0  0  0  0
 14 20  1  0  0  0  0
 14 15  1  0  0  0  0
 15 22  1  0  0  0  0
 16  2  1  0  0  0  0
 16 15  2  0  0  0  0
 17 16  1  0  0  0  0
 18 19  1  0  0  0  0
 18 17  2  0  0  0  0
 19 14  2  0  0  0  0
 21 18  1  0  0  0  0
 22 27  1  0  0  0  0
 23 22  1  0  0  0  0
 23 24  1  0  0  0  0
 24 30  1  0  0  0  0
 24 25  1  0  0  0  0
 25 26  1  0  0  0  0
 26 33  1  0  0  0  0
 26 34  1  0  0  0  0
 27 36  1  0  0  0  0
 27 35  1  0  0  0  0
 27 26  1  0  0  0  0
 28 23  1  0  0  0  0
 29 23  1  0  0  0  0
 31 24  1  0  0  0  0
 32 25  1  0  0  0  0
 37  8  1  0  0  0  0
 38 39  1  0  0  0  0
 39 40  2  0  0  0  0
 39 37  1  0  0  0  0
 40 41  1  0  0  0  0
 42 40  1  0  0  0  0
 43 42  2  0  0  0  0
 44 43  1  0  0  0  0
 44 38  2  0  0  0  0
 45 46  1  0  0  0  0
 45 38  1  0  0  0  0
 47 44  1  0  0  0  0
 48 47  1  0  0  0  0
M  END
>  <minimizedAffinity>
-6.89092827

$$$$

 OpenBabel03242523133D

 48 52  0  0  1  0  0  0  0  0999 V2000
   37.5500   31.4060   40.5230 C   0  0  0  0  0  0  0  0  0  0  0  0
   38.8680   31.6120   40.9830 C   0  0  0  0  0  0  0  0  0  0  0  0
   39.2280   30.6600   41.9060 C   0  0  0  0  0  0  0  0  0  0  0  0
   38.4460   29.6370   42.3500 C   0  0  0  0  0  0  0  0  0  0  0  0
   37.1550   29.5090   41.8480 C   0  0  0  0  0  0  0  0  0  0  0  0
   36.7030   30.4070   40.9200 C   0  0  0  0  0  0  0  0  0  0  0  0
   36.6330   28.3980   42.4930 O   0  0  0  0  0  0  0  0  0  0  0  0
   37.6090   27.8160   43.3350 C   0  0  2  0  0  0  0  0  0  0  0  0
   38.7580   28.6550   43.2720 O   0  0  0  0  0  0  0  0  0  0  0  0
   36.9640   31.9810   39.7750 H   0  0  0  0  0  0  0  0  0  0  0  0
   40.2020   30.7930   42.2580 H   0  0  0  0  0  0  0  0  0  0  0  0
   35.7070   30.2090   40.6090 H   0  0  0  0  0  0  0  0  0  0  0  0
   37.2290   27.7200   44.3650 H   0  0  0  0  0  0  0  0  0  0  0  0
   40.8930   34.2390   39.2410 C   0  0  0  0  0  0  0  0  0  0  0  0
   40.5250   32.9360   39.5870 C   0  0  0  0  0  0  0  0  0  0  0  0
   39.4790   32.7480   40.4410 C   0  0  0  0  0  0  0  0  0  0  0  0
   38.8460   33.8670   40.9160 N   0  0  0  0  0  0  0  0  0  0  0  0
   39.2030   35.1090   40.5810 C   0  0  0  0  0  0  0  0  0  0  0  0
   40.2120   35.2860   39.7560 N   0  0  0  0  0  0  0  0  0  0  0  0
   41.7200   34.4080   38.5650 H   0  0  0  0  0  0  0  0  0  0  0  0
   38.7400   36.0250   40.9250 H   0  0  0  0  0  0  0  0  0  0  0  0
   41.2690   31.8970   39.0400 N   0  0  0  0  0  0  0  0  0  0  0  0
   40.8960   31.2530   37.8250 C   0  0  0  0  0  0  0  0  0  0  0  0
   41.9130   30.2740   37.2960 C   0  0  0  0  0  0  0  0  0  0  0  0
   43.2380   30.6690   37.4140 N   0  0  0  0  0  0  0  0  0  0  0  0
   43.6010   31.2520   38.6090 C   0  0  0  0  0  0  0  0  0  0  0  0
   42.4480   31.3470   39.5840 C   0  0  0  0  0  0  0  0  0  0  0  0
   40.6000   31.9550   37.0150 H   0  0  0  0  0  0  0  0  0  0  0  0
   39.9730   30.6670   38.0510 H   0  0  0  0  0  0  0  0  0  0  0  0
   41.7540   29.2900   37.7910 H   0  0  0  0  0  0  0  0  0  0  0  0
   41.6570   30.1010   36.2260 H   0  0  0  0  0  0  0  0  0  0  0  0
   43.5800   31.2260   36.5820 H   0  0  0  0  0  0  0  0  0  0  0  0
   44.0960   32.2360   38.4910 H   0  0  0  0  0  0  0  0  0  0  0  0
   44.3760   30.6200   39.1340 H   0  0  0  0  0  0  0  0  0  0  0  0
   42.7990   31.9570   40.4400 H   0  0  0  0  0  0  0  0  0  0  0  0
   42.2480   30.3180   39.9870 H   0  0  0  0  0  0  0  0  0  0  0  0
   37.9280   26.5650   42.7960 O   0  0  0  0  0  0  0  0  0  0  0  0
   40.0270   25.6560   42.8520 C   0  0  0  0  0  0  0  0  0  0  0  0
   39.0320   26.2350   42.0600 C   0  0  0  0  0  0  0  0  0  0  0  0
   39.2660   26.3950   40.7150 C   0  0  0  0  0  0  0  0  0  0  0  0
   38.4490   26.8500   40.1740 H   0  0  0  0  0  0  0  0  0  0  0  0
   40.4440   26.0090   40.1120 C   0  0  0  0  0  3  0  0  0  0  0  0
   41.4190   25.4360   40.9150 C   0  0  0  0  0  3  0  0  0  0  0  0
   41.2340   25.2520   42.2700 C   0  0  0  0  0  0  0  0  0  0  0  0
   39.9340   25.4310   44.2160 O   0  0  0  0  0  0  0  0  0  0  0  0
   39.6380   24.5120   44.5360 H   0  0  0  0  0  0  0  0  0  0  0  0
   42.2530   24.6660   43.0460 O   0  0  0  0  0  0  0  0  0  0  0  0
   42.6740   23.8100   42.7100 H   0  0  0  0  0  0  0  0  0  0  0  0
  1  6  2  0  0  0  0
  1  2  1  0  0  0  0
  2  3  2  0  0  0  0
  3 11  1  0  0  0  0
  3  4  1  0  0  0  0
  4  9  1  0  0  0  0
  5  4  2  0  0  0  0
  5  7  1  0  0  0  0
  6  5  1  0  0  0  0
  7  8  1  0  0  0  0
  8 13  1  1  0  0  0
  9  8  1  0  0  0  0
 10  1  1  0  0  0  0
 12  6  1  0  0  0  0
 14 15  2  0  0  0  0
 14 19  1  0  0  0  0
 15 16  1  0  0  0  0
 16 17  2  0  0  0  0
 16  2  1  0  0  0  0
 18 17  1  0  0  0  0
 18 21  1  0  0  0  0
 19 18  2  0  0  0  0
 20 14  1  0  0  0  0
 22 27  1  0  0  0  0
 22 15  1  0  0  0  0
 23 29  1  0  0  0  0
 23 22  1  0  0  0  0
 24 25  1  0  0  0  0
 24 30  1  0  0  0  0
 24 23  1  0  0  0  0
 25 26  1  0  0  0  0
 26 34  1  0  0  0  0
 26 27  1  0  0  0  0
 27 36  1  0  0  0  0
 27 35  1  0  0  0  0
 28 23  1  0  0  0  0
 31 24  1  0  0  0  0
 32 25  1  0  0  0  0
 33 26  1  0  0  0  0
 37  8  1  0  0  0  0
 38 45  1  0  0  0  0
 39 37  1  0  0  0  0
 39 38  2  0  0  0  0
 40 39  1  0  0  0  0
 41 40  1  0  0  0  0
 42 40  2  0  0  0  0
 42 43  1  0  0  0  0
 43 44  2  0  0  0  0
 44 38  1  0  0  0  0
 44 47  1  0  0  0  0
 45 46  1  0  0  0  0
 48 47  1  0  0  0  0
M  END
>  <minimizedAffinity>
-6.84459352

$$$$

 OpenBabel03242523133D

 48 52  0  0  1  0  0  0  0  0999 V2000
   38.7100   28.1500   43.5390 C   0  0  0  0  0  0  0  0  0  0  0  0
   39.7450   28.0120   42.5910 C   0  0  0  0  0  0  0  0  0  0  0  0
   39.2430   27.8850   41.3190 C   0  0  0  0  0  0  0  0  0  0  0  0
   37.9250   27.8830   40.9730 C   0  0  0  0  0  0  0  0  0  0  0  0
   36.9670   28.0200   41.9730 C   0  0  0  0  0  0  0  0  0  0  0  0
   37.3670   28.1560   43.2740 C   0  0  0  0  0  0  0  0  0  0  0  0
   35.7520   27.9730   41.3060 O   0  0  0  0  0  0  0  0  0  0  0  0
   35.9610   27.8690   39.9110 C   0  0  2  0  0  0  0  0  0  0  0  0
   37.3670   27.7610   39.7140 O   0  0  0  0  0  0  0  0  0  0  0  0
   38.7720   28.2840   44.6400 H   0  0  0  0  0  0  0  0  0  0  0  0
   39.9940   27.7830   40.6000 H   0  0  0  0  0  0  0  0  0  0  0  0
   36.5510   28.2540   43.9460 H   0  0  0  0  0  0  0  0  0  0  0  0
   35.4230   27.0000   39.4990 H   0  0  0  0  0  0  0  0  0  0  0  0
   43.2650   28.4850   43.7850 C   0  0  0  0  0  0  0  0  0  0  0  0
   42.1060   28.8120   43.0770 C   0  0  0  0  0  0  0  0  0  0  0  0
   41.0240   27.9860   43.1580 C   0  0  0  0  0  0  0  0  0  0  0  0
   41.1450   26.8670   43.9400 N   0  0  0  0  0  0  0  0  0  0  0  0
   42.2560   26.5600   44.6150 C   0  0  0  0  0  0  0  0  0  0  0  0
   43.2960   27.3600   44.5340 N   0  0  0  0  0  0  0  0  0  0  0  0
   44.1320   29.1280   43.7340 H   0  0  0  0  0  0  0  0  0  0  0  0
   42.4050   25.6930   45.2450 H   0  0  0  0  0  0  0  0  0  0  0  0
   42.1340   29.9710   42.3110 N   0  0  0  0  0  0  0  0  0  0  0  0
   42.8750   30.0620   41.0970 C   0  0  0  0  0  0  0  0  0  0  0  0
   42.6450   31.3300   40.3150 C   0  0  0  0  0  0  0  0  0  0  0  0
   41.3340   31.7810   40.2820 N   0  0  0  0  0  0  0  0  0  0  0  0
   40.6370   31.7310   41.4710 C   0  0  0  0  0  0  0  0  0  0  0  0
   41.4680   31.1780   42.6090 C   0  0  0  0  0  0  0  0  0  0  0  0
   42.7500   29.1840   40.4250 H   0  0  0  0  0  0  0  0  0  0  0  0
   43.9530   30.0530   41.3850 H   0  0  0  0  0  0  0  0  0  0  0  0
   43.3200   32.1220   40.7100 H   0  0  0  0  0  0  0  0  0  0  0  0
   43.0100   31.1330   39.2800 H   0  0  0  0  0  0  0  0  0  0  0  0
   40.7760   31.3760   39.4800 H   0  0  0  0  0  0  0  0  0  0  0  0
   39.6690   31.1960   41.3970 H   0  0  0  0  0  0  0  0  0  0  0  0
   40.3470   32.7710   41.8000 H   0  0  0  0  0  0  0  0  0  0  0  0
   40.7830   31.0380   43.4690 H   0  0  0  0  0  0  0  0  0  0  0  0
   42.2070   31.9660   42.9140 H   0  0  0  0  0  0  0  0  0  0  0  0
   35.5100   29.0610   39.3350 O   0  0  0  0  0  0  0  0  0  0  0  0
   36.3660   31.1110   39.8810 C   0  0  0  0  0  0  0  0  0  0  0  0
   36.2680   30.1150   38.9060 C   0  0  0  0  0  0  0  0  0  0  0  0
   36.9070   30.3000   37.7030 C   0  0  0  0  0  0  0  0  0  0  0  0
   36.7830   29.4850   37.0040 H   0  0  0  0  0  0  0  0  0  0  0  0
   37.6420   31.4300   37.4150 C   0  0  0  0  0  3  0  0  0  0  0  0
   37.7270   32.4080   38.3960 C   0  0  0  0  0  3  0  0  0  0  0  0
   37.1050   32.2700   39.6200 C   0  0  0  0  0  0  0  0  0  0  0  0
   35.7780   31.0650   41.1340 O   0  0  0  0  0  0  0  0  0  0  0  0
   36.3370   30.7360   41.9180 H   0  0  0  0  0  0  0  0  0  0  0  0
   37.2190   33.2900   40.5840 O   0  0  0  0  0  0  0  0  0  0  0  0
   38.1410   33.6530   40.7880 H   0  0  0  0  0  0  0  0  0  0  0  0
  1 10  1  0  0  0  0
  2 16  1  0  0  0  0
  2  1  2  0  0  0  0
  3  2  1  0  0  0  0
  4  3  2  0  0  0  0
  4  5  1  0  0  0  0
  5  6  2  0  0  0  0
  6  1  1  0  0  0  0
  6 12  1  0  0  0  0
  7  5  1  0  0  0  0
  8 13  1  6  0  0  0
  8  7  1  0  0  0  0
  9  8  1  0  0  0  0
  9  4  1  0  0  0  0
 11  3  1  0  0  0  0
 14 19  1  0  0  0  0
 15 16  1  0  0  0  0
 15 14  2  0  0  0  0
 16 17  2  0  0  0  0
 17 18  1  0  0  0  0
 18 21  1  0  0  0  0
 19 18  2  0  0  0  0
 20 14  1  0  0  0  0
 22 27  1  0  0  0  0
 22 15  1  0  0  0  0
 23 29  1  0  0  0  0
 23 22  1  0  0  0  0
 24 30  1  0  0  0  0
 24 23  1  0  0  0  0
 25 24  1  0  0  0  0
 25 26  1  0  0  0  0
 26 34  1  0  0  0  0
 26 27  1  0  0  0  0
 27 36  1  0  0  0  0
 27 35  1  0  0  0  0
 28 23  1  0  0  0  0
 31 24  1  0  0  0  0
 32 25  1  0  0  0  0
 33 26  1  0  0  0  0
 37  8  1  0  0  0  0
 38 45  1  0  0  0  0
 39 37  1  0  0  0  0
 39 38  2  0  0  0  0
 40 39  1  0  0  0  0
 41 40  1  0  0  0  0
 42 40  2  0  0  0  0
 42 43  1  0  0  0  0
 43 44  2  0  0  0  0
 44 38  1  0  0  0  0
 44 47  1  0  0  0  0
 45 46  1  0  0  0  0
 47 48  1  0  0  0  0
M  END
>  <minimizedAffinity>
-6.82620001

$$$$

 OpenBabel03242523133D

 48 52  0  0  1  0  0  0  0  0999 V2000
   41.5700   29.6000   40.9300 C   0  0  0  0  0  0  0  0  0  0  0  0
   40.8160   29.5530   42.1220 C   0  0  0  0  0  0  0  0  0  0  0  0
   39.9500   30.6160   42.2070 C   0  0  0  0  0  0  0  0  0  0  0  0
   39.8080   31.6100   41.2870 C   0  0  0  0  0  0  0  0  0  0  0  0
   40.5940   31.5830   40.1400 C   0  0  0  0  0  0  0  0  0  0  0  0
   41.4860   30.5620   39.9600 C   0  0  0  0  0  0  0  0  0  0  0  0
   40.2180   32.7120   39.4280 O   0  0  0  0  0  0  0  0  0  0  0  0
   39.1750   33.3910   40.0990 C   0  0  2  0  0  0  0  0  0  0  0  0
   38.9540   32.6970   41.3220 O   0  0  0  0  0  0  0  0  0  0  0  0
   42.3400   28.8950   40.5510 H   0  0  0  0  0  0  0  0  0  0  0  0
   39.3810   30.5990   43.0830 H   0  0  0  0  0  0  0  0  0  0  0  0
   42.0280   30.6460   39.0500 H   0  0  0  0  0  0  0  0  0  0  0  0
   39.4420   34.4460   40.2700 H   0  0  0  0  0  0  0  0  0  0  0  0
   41.1190   26.4840   44.2510 C   0  0  0  0  0  0  0  0  0  0  0  0
   40.4730   27.3870   43.4030 C   0  0  0  0  0  0  0  0  0  0  0  0
   41.1530   28.4800   42.9550 C   0  0  0  0  0  0  0  0  0  0  0  0
   42.4500   28.6280   43.3750 N   0  0  0  0  0  0  0  0  0  0  0  0
   43.0620   27.7620   44.1860 C   0  0  0  0  0  0  0  0  0  0  0  0
   42.4010   26.7090   44.6150 N   0  0  0  0  0  0  0  0  0  0  0  0
   40.5960   25.6120   44.6160 H   0  0  0  0  0  0  0  0  0  0  0  0
   44.0800   27.8300   44.5470 H   0  0  0  0  0  0  0  0  0  0  0  0
   39.1500   27.1160   43.0730 N   0  0  0  0  0  0  0  0  0  0  0  0
   38.0580   27.6280   43.8310 C   0  0  0  0  0  0  0  0  0  0  0  0
   36.7010   27.3780   43.2250 C   0  0  0  0  0  0  0  0  0  0  0  0
   36.6270   27.5220   41.8470 N   0  0  0  0  0  0  0  0  0  0  0  0
   37.6670   26.9850   41.1180 C   0  0  0  0  0  0  0  0  0  0  0  0
   38.7100   26.3240   41.9920 C   0  0  0  0  0  0  0  0  0  0  0  0
   38.1550   28.7060   44.0920 H   0  0  0  0  0  0  0  0  0  0  0  0
   38.0760   27.0930   44.8110 H   0  0  0  0  0  0  0  0  0  0  0  0
   36.3530   26.3660   43.5310 H   0  0  0  0  0  0  0  0  0  0  0  0
   35.9970   28.0850   43.7230 H   0  0  0  0  0  0  0  0  0  0  0  0
   36.4020   28.5110   41.5450 H   0  0  0  0  0  0  0  0  0  0  0  0
   38.1390   27.7040   40.4200 H   0  0  0  0  0  0  0  0  0  0  0  0
   37.2880   26.1620   40.4430 H   0  0  0  0  0  0  0  0  0  0  0  0
   39.5630   26.0630   41.3340 H   0  0  0  0  0  0  0  0  0  0  0  0
   38.2870   25.3540   42.3660 H   0  0  0  0  0  0  0  0  0  0  0  0
   38.0300   33.2840   39.3010 O   0  0  0  0  0  0  0  0  0  0  0  0
   36.6190   31.5160   39.6450 C   0  0  0  0  0  0  0  0  0  0  0  0
   37.4990   32.1460   38.7610 C   0  0  0  0  0  0  0  0  0  0  0  0
   37.7140   31.5810   37.5260 C   0  0  0  0  0  0  0  0  0  0  0  0
   38.4070   32.1280   36.9020 H   0  0  0  0  0  0  0  0  0  0  0  0
   37.0980   30.4170   37.1200 C   0  0  0  0  0  3  0  0  0  0  0  0
   36.2270   29.8060   38.0130 C   0  0  0  0  0  3  0  0  0  0  0  0
   35.9770   30.3330   39.2630 C   0  0  0  0  0  0  0  0  0  0  0  0
   36.3050   31.9660   40.9160 O   0  0  0  0  0  0  0  0  0  0  0  0
   35.4660   32.5280   41.0370 H   0  0  0  0  0  0  0  0  0  0  0  0
   35.0860   29.6780   40.1350 O   0  0  0  0  0  0  0  0  0  0  0  0
   34.1840   29.3980   39.7730 H   0  0  0  0  0  0  0  0  0  0  0  0
  1  2  1  0  0  0  0
  2  3  2  0  0  0  0
  2 16  1  0  0  0  0
  3 11  1  0  0  0  0
  4  9  1  0  0  0  0
  4  3  1  0  0  0  0
  5  4  2  0  0  0  0
  6  5  1  0  0  0  0
  6  1  2  0  0  0  0
  7  8  1  0  0  0  0
  7  5  1  0  0  0  0
  8 13  1  1  0  0  0
  8  9  1  0  0  0  0
 10  1  1  0  0  0  0
 12  6  1  0  0  0  0
 14 19  1  0  0  0  0
 14 20  1  0  0  0  0
 15 14  2  0  0  0  0
 16 17  2  0  0  0  0
 16 15  1  0  0  0  0
 17 18  1  0  0  0  0
 18 21  1  0  0  0  0
 18 19  2  0  0  0  0
 22 15  1  0  0  0  0
 22 23  1  0  0  0  0
 23 28  1  0  0  0  0
 23 29  1  0  0  0  0
 24 30  1  0  0  0  0
 24 31  1  0  0  0  0
 24 23  1  0  0  0  0
 25 24  1  0  0  0  0
 26 25  1  0  0  0  0
 26 27  1  0  0  0  0
 27 36  1  0  0  0  0
 27 22  1  0  0  0  0
 32 25  1  0  0  0  0
 33 26  1  0  0  0  0
 34 26  1  0  0  0  0
 35 27  1  0  0  0  0
 37  8  1  0  0  0  0
 38 45  1  0  0  0  0
 39 37  1  0  0  0  0
 39 38  2  0  0  0  0
 40 39  1  0  0  0  0
 41 40  1  0  0  0  0
 42 40  2  0  0  0  0
 42 43  1  0  0  0  0
 43 44  2  0  0  0  0
 44 38  1  0  0  0  0
 44 47  1  0  0  0  0
 45 46  1  0  0  0  0
 48 47  1  0  0  0  0
M  END
>  <minimizedAffinity>
-6.8256855

$$$$

 OpenBabel03242523133D

 48 52  0  0  1  0  0  0  0  0999 V2000
   36.1690   27.1400   39.3430 C   0  0  0  0  0  0  0  0  0  0  0  0
   36.2700   28.5120   39.6570 C   0  0  0  0  0  0  0  0  0  0  0  0
   35.7590   29.2930   38.6490 C   0  0  0  0  0  0  0  0  0  0  0  0
   35.2200   28.8440   37.4810 C   0  0  0  0  0  0  0  0  0  0  0  0
   35.1630   27.4740   37.2490 C   0  0  0  0  0  0  0  0  0  0  0  0
   35.6430   26.6110   38.1960 C   0  0  0  0  0  0  0  0  0  0  0  0
   34.5780   27.3520   35.9970 O   0  0  0  0  0  0  0  0  0  0  0  0
   34.2270   28.6260   35.4940 C   0  0  2  0  0  0  0  0  0  0  0  0
   34.6920   29.5840   36.4390 O   0  0  0  0  0  0  0  0  0  0  0  0
   36.4720   26.2530   39.9390 H   0  0  0  0  0  0  0  0  0  0  0  0
   35.8230   30.3140   38.8620 H   0  0  0  0  0  0  0  0  0  0  0  0
   35.5450   25.5930   37.9090 H   0  0  0  0  0  0  0  0  0  0  0  0
   34.6680   28.7870   34.4970 H   0  0  0  0  0  0  0  0  0  0  0  0
   38.2000   29.6980   42.6420 C   0  0  0  0  0  0  0  0  0  0  0  0
   37.7270   29.7500   41.3280 C   0  0  0  0  0  0  0  0  0  0  0  0
   36.9020   28.7610   40.8800 C   0  0  0  0  0  0  0  0  0  0  0  0
   36.5850   27.7600   41.7610 N   0  0  0  0  0  0  0  0  0  0  0  0
   37.0410   27.7150   43.0160 C   0  0  0  0  0  0  0  0  0  0  0  0
   37.8360   28.6720   43.4430 N   0  0  0  0  0  0  0  0  0  0  0  0
   38.8550   30.4720   43.0140 H   0  0  0  0  0  0  0  0  0  0  0  0
   36.8230   26.9510   43.7510 H   0  0  0  0  0  0  0  0  0  0  0  0
   38.1450   30.8180   40.5430 N   0  0  0  0  0  0  0  0  0  0  0  0
   39.2520   30.7180   39.6510 C   0  0  0  0  0  0  0  0  0  0  0  0
   39.4470   31.9150   38.7570 C   0  0  0  0  0  0  0  0  0  0  0  0
   38.2850   32.4770   38.2490 N   0  0  0  0  0  0  0  0  0  0  0  0
   37.2330   32.6100   39.1300 C   0  0  0  0  0  0  0  0  0  0  0  0
   37.5670   32.1040   40.5170 C   0  0  0  0  0  0  0  0  0  0  0  0
   39.2540   29.7910   39.0360 H   0  0  0  0  0  0  0  0  0  0  0  0
   40.1650   30.6410   40.2900 H   0  0  0  0  0  0  0  0  0  0  0  0
   40.0420   32.6790   39.3050 H   0  0  0  0  0  0  0  0  0  0  0  0
   40.1090   31.5820   37.9240 H   0  0  0  0  0  0  0  0  0  0  0  0
   37.9810   32.0430   37.3330 H   0  0  0  0  0  0  0  0  0  0  0  0
   36.2880   32.1600   38.7660 H   0  0  0  0  0  0  0  0  0  0  0  0
   36.9760   33.7010   39.2720 H   0  0  0  0  0  0  0  0  0  0  0  0
   36.6240   32.1140   41.0990 H   0  0  0  0  0  0  0  0  0  0  0  0
   38.2500   32.8490   41.0030 H   0  0  0  0  0  0  0  0  0  0  0  0
   32.8300   28.6800   35.4410 O   0  0  0  0  0  0  0  0  0  0  0  0
   31.5140   30.0010   36.7660 C   0  0  0  0  0  0  0  0  0  0  0  0
   32.0400   29.7940   35.4880 C   0  0  0  0  0  0  0  0  0  0  0  0
   31.7190   30.6820   34.4880 C   0  0  0  0  0  0  0  0  0  0  0  0
   32.1650   30.4530   33.5310 H   0  0  0  0  0  0  0  0  0  0  0  0
   30.8990   31.7710   34.6930 C   0  0  0  0  0  3  0  0  0  0  0  0
   30.3870   31.9590   35.9690 C   0  0  0  0  0  3  0  0  0  0  0  0
   30.6780   31.0980   37.0060 C   0  0  0  0  0  0  0  0  0  0  0  0
   31.7470   29.1940   37.8670 O   0  0  0  0  0  0  0  0  0  0  0  0
   32.4870   29.4580   38.5130 H   0  0  0  0  0  0  0  0  0  0  0  0
   30.1350   31.3280   38.2850 O   0  0  0  0  0  0  0  0  0  0  0  0
   30.2120   32.2580   38.6740 H   0  0  0  0  0  0  0  0  0  0  0  0
  1  2  1  0  0  0  0
  1 10  1  0  0  0  0
  2 16  1  0  0  0  0
  3 11  1  0  0  0  0
  3  2  2  0  0  0  0
  4  3  1  0  0  0  0
  5  4  2  0  0  0  0
  5  6  1  0  0  0  0
  6  1  2  0  0  0  0
  7  5  1  0  0  0  0
  8 13  1  6  0  0  0
  8  7  1  0  0  0  0
  8  9  1  0  0  0  0
  9  4  1  0  0  0  0
 12  6  1  0  0  0  0
 14 20  1  0  0  0  0
 14 19  1  0  0  0  0
 15 14  2  0  0  0  0
 16 15  1  0  0  0  0
 16 17  2  0  0  0  0
 17 18  1  0  0  0  0
 18 19  2  0  0  0  0
 18 21  1  0  0  0  0
 22 15  1  0  0  0  0
 23 29  1  0  0  0  0
 23 22  1  0  0  0  0
 24 30  1  0  0  0  0
 24 23  1  0  0  0  0
 25 24  1  0  0  0  0
 25 26  1  0  0  0  0
 26 34  1  0  0  0  0
 26 27  1  0  0  0  0
 27 22  1  0  0  0  0
 27 36  1  0  0  0  0
 27 35  1  0  0  0  0
 28 23  1  0  0  0  0
 31 24  1  0  0  0  0
 32 25  1  0  0  0  0
 33 26  1  0  0  0  0
 37 39  1  0  0  0  0
 37  8  1  0  0  0  0
 38 44  1  0  0  0  0
 38 45  1  0  0  0  0
 39 38  2  0  0  0  0
 40 42  2  0  0  0  0
 40 39  1  0  0  0  0
 41 40  1  0  0  0  0
 42 43  1  0  0  0  0
 43 44  2  0  0  0  0
 44 47  1  0  0  0  0
 45 46  1  0  0  0  0
 47 48  1  0  0  0  0
M  END
>  <minimizedAffinity>
-6.80331135

$$$$
