REMARK  Name = 
REMARK  11 active torsions:
REMARK  status: ('A' for Active; 'I' for Inactive)
REMARK    1  A    between atoms: C_2  and  C_14
REMARK    2  A    between atoms: C_9  and  O_20
REMARK    3  A    between atoms: C_11  and  C_16
REMARK    4  A    between atoms: O_20  and  P_22
REMARK    5  A    between atoms: P_22  and  O_23
REMARK    6  A    between atoms: P_22  and  O_24
REMARK    7  A    between atoms: O_24  and  C_25
REMARK    8  A    between atoms: C_25  and  C_26
REMARK    9  A    between atoms: C_26  and  C_40
REMARK   10  A    between atoms: O_38  and  C_39
REMARK   11  A    between atoms: C_45  and  O_46
REMARK                            x       y       z     vdW  Elec       q    Type
REMARK                         _______ _______ _______ _____ _____    ______ ____
ROOT
ATOM      1  C   UNL     1      47.731  31.023  45.972  0.00  0.00    +0.000 A 
ATOM      2  C   UNL     1      46.981  32.040  45.463  0.00  0.00    +0.000 A 
ATOM      3  C   UNL     1      45.931  32.509  46.218  0.00  0.00    +0.000 A 
ATOM      4  C   UNL     1      45.605  32.003  47.455  0.00  0.00    +0.000 A 
ATOM      5  N   UNL     1      44.676  32.228  48.412  0.00  0.00    +0.000 N 
ATOM      6  C   UNL     1      44.868  31.372  49.456  0.00  0.00    +0.000 A 
ATOM      7  N   UNL     1      45.929  30.615  49.129  0.00  0.00    +0.000 NA
ATOM      8  C   UNL     1      46.380  30.985  47.928  0.00  0.00    +0.000 A 
ATOM      9  C   UNL     1      47.438  30.472  47.229  0.00  0.00    +0.000 A 
ATOM     10  H   UNL     1      48.583  30.585  45.448  0.00  0.00    +0.000 HD
ATOM     11  H   UNL     1      45.304  33.324  45.847  0.00  0.00    +0.000 HD
ATOM     12  H   UNL     1      43.944  32.962  48.312  0.00  0.00    +0.000 HD
ATOM     13  H   UNL     1      44.258  31.339  50.364  0.00  0.00    +0.000 HD
ENDROOT
BRANCH   2  18
ATOM     14  C   UNL     1      47.300  34.405  42.694  0.00  0.00    +0.000 A 
ATOM     15  C   UNL     1      47.885  33.622  41.681  0.00  0.00    +0.000 A 
ATOM     16  C   UNL     1      48.152  32.282  41.999  0.00  0.00    +0.000 A 
ATOM     17  N   UNL     1      47.846  31.805  43.233  0.00  0.00    +0.000 NA
ATOM     18  C   UNL     1      47.289  32.607  44.154  0.00  0.00    +0.000 A 
ATOM     19  N   UNL     1      47.011  33.891  43.910  0.00  0.00    +0.000 NA
ATOM     20  H   UNL     1      47.074  35.449  42.492  0.00  0.00    +0.000 HD
ATOM     21  H   UNL     1      48.605  31.671  41.218  0.00  0.00    +0.000 HD
BRANCH  15  22
ATOM     22  C   UNL     1      48.175  34.250  40.372  0.00  0.00    +0.000 C 
ATOM     23  F   UNL     1      48.719  35.492  40.692  0.00  0.00    +0.000 F 
ATOM     24  F   UNL     1      46.991  34.453  39.720  0.00  0.00    +0.000 F 
ATOM     25  F   UNL     1      49.051  33.446  39.673  0.00  0.00    +0.000 F 
ENDBRANCH  15  22
ENDBRANCH   2  18
BRANCH   9  26
ATOM     26  O   UNL     1      48.201  29.434  47.752  0.00  0.00    +0.000 OA
BRANCH  26  28
ATOM     27  O   UNL     1      49.829  28.215  49.365  0.00  0.00    +0.000 OA
ATOM     28  P   UNL     1      49.442  29.595  48.873  0.00  0.00    +0.000 P 
BRANCH  28  29
ATOM     29  O   UNL     1      48.791  30.422  50.217  0.00  0.00    +0.000 OA
ATOM     30  H   UNL     1      48.155  29.831  50.688  0.00  0.00    +0.000 HD
ENDBRANCH  28  29
BRANCH  28  31
ATOM     31  O   UNL     1      50.779  30.412  48.302  0.00  0.00    +0.000 OA
BRANCH  31  32
ATOM     32  C   UNL     1      51.812  30.546  49.190  0.00  0.00    +0.000 C 
ATOM     33  H   UNL     1      52.764  30.100  48.922  0.00  0.00    +0.000 HD
ATOM     34  H   UNL     1      51.486  30.012  50.130  0.00  0.00    +0.000 HD
BRANCH  32  35
ATOM     35  C   UNL     1      51.915  32.048  49.518  0.00  0.00    +0.000 C 
ATOM     36  H   UNL     1      50.941  32.345  49.982  0.00  0.00    +0.000 HD
ATOM     37  H   UNL     1      52.104  32.660  48.641  0.00  0.00    +0.000 HD
BRANCH  35  39
ATOM     38  C   UNL     1      52.695  33.057  51.556  0.00  0.00    +0.000 A 
ATOM     39  C   UNL     1      53.038  32.230  50.482  0.00  0.00    +0.000 A 
ATOM     40  C   UNL     1      54.295  31.677  50.374  0.00  0.00    +0.000 A 
ATOM     41  H   UNL     1      54.480  31.043  49.505  0.00  0.00    +0.000 HD
ATOM     42  C   UNL     1      55.251  31.948  51.359  0.00  0.00    +0.000 A 
ATOM     43  C   UNL     1      54.907  32.770  52.425  0.00  0.00    +0.000 A 
ATOM     44  C   UNL     1      53.650  33.325  52.536  0.00  0.00    +0.000 A 
BRANCH  38  45
ATOM     45  O   UNL     1      51.485  33.679  51.798  0.00  0.00    +0.000 OA
ATOM     46  H   UNL     1      50.649  33.617  51.271  0.00  0.00    +0.000 HD
ENDBRANCH  38  45
BRANCH  44  47
ATOM     47  O   UNL     1      53.395  34.146  53.652  0.00  0.00    +0.000 OA
ATOM     48  H   UNL     1      52.481  34.596  53.755  0.00  0.00    +0.000 HD
ENDBRANCH  44  47
ENDBRANCH  35  39
ENDBRANCH  32  35
ENDBRANCH  31  32
ENDBRANCH  28  31
ENDBRANCH  26  28
ENDBRANCH   9  26
TORSDOF 11
