
 OpenBabel03252507553D

 46 49  0  0  1  0  0  0  0  0999 V2000
   48.4170   33.1950   41.6150 C   0  0  2  0  0  0  0  0  0  0  0  0
   48.2730   33.2930   43.0580 C   0  0  0  0  0  0  0  0  0  0  0  0
   47.0970   33.5130   42.1590 C   0  0  1  0  0  0  0  0  0  0  0  0
   48.9430   34.0090   41.0830 H   0  0  0  0  0  0  0  0  0  0  0  0
   48.7050   34.1430   43.6010 H   0  0  0  0  0  0  0  0  0  0  0  0
   48.1860   32.3670   43.6870 H   0  0  0  0  0  0  0  0  0  0  0  0
   46.3250   32.7660   41.9460 H   0  0  0  0  0  0  0  0  0  0  0  0
   50.2610   30.1050   41.4320 C   0  0  2  0  0  0  0  0  0  0  0  0
   50.9990   31.1370   40.5770 C   0  0  0  0  0  0  0  0  0  0  0  0
   49.7580   31.8230   39.9670 C   0  0  0  0  0  0  0  0  0  0  0  0
   48.7380   31.8230   41.0650 C   0  0  1  0  0  0  0  0  0  0  0  0
   49.3420   31.0290   42.1860 C   0  0  0  0  0  0  0  0  0  0  0  0
   49.7470   29.3990   40.7810 H   0  0  0  0  0  0  0  0  0  0  0  0
   51.5500   31.8120   41.2410 H   0  0  0  0  0  0  0  0  0  0  0  0
   51.5950   30.6360   39.8100 H   0  0  0  0  0  0  0  0  0  0  0  0
   49.4200   31.1540   39.1600 H   0  0  0  0  0  0  0  0  0  0  0  0
   50.0540   32.8300   39.6140 H   0  0  0  0  0  0  0  0  0  0  0  0
   47.7770   31.3770   40.7350 H   0  0  0  0  0  0  0  0  0  0  0  0
   49.8940   31.6120   42.9220 H   0  0  0  0  0  0  0  0  0  0  0  0
   48.5310   30.4130   42.6400 H   0  0  0  0  0  0  0  0  0  0  0  0
   52.3530   27.4670   43.1210 C   0  0  0  0  0  0  0  0  0  0  0  0
   51.4790   28.0320   42.1990 C   0  0  0  0  0  0  0  0  0  0  0  0
   51.1990   29.3870   42.3410 C   0  0  0  0  0  0  0  0  0  0  0  0
   51.7850   30.1280   43.3770 N   0  0  0  0  0  0  0  0  0  0  0  0
   52.6290   29.5180   44.2470 C   0  0  0  0  0  0  0  0  0  0  0  0
   52.9090   28.2000   44.1160 N   0  0  0  0  0  0  0  0  0  0  0  0
   52.5780   26.4130   43.0190 H   0  0  0  0  0  0  0  0  0  0  0  0
   51.0210   27.4780   41.3970 H   0  0  0  0  0  0  0  0  0  0  0  0
   53.0270   30.1740   45.0090 H   0  0  0  0  0  0  0  0  0  0  0  0
   46.6400   34.8460   42.0130 O   0  0  0  0  0  0  0  0  0  0  0  0
   44.5660   34.0510   43.3810 O   0  0  0  0  0  0  0  0  0  0  0  0
   44.9660   34.8470   42.1640 P   0  0  1  0  0  0  0  0  0  0  0  0
   44.3970   36.4490   42.3910 O   0  0  0  0  0  0  0  0  0  0  0  0
   44.4730   36.9000   41.5160 H   0  0  0  0  0  0  0  0  0  0  0  0
   44.1610   34.2340   40.8460 O   0  0  0  0  0  0  0  0  0  0  0  0
   41.9910   33.6470   41.2770 C   0  0  0  0  0  0  0  0  0  0  0  0
   42.8320   34.5220   40.6170 C   0  0  0  0  0  0  0  0  0  0  0  0
   42.2650   35.5200   39.8550 C   0  0  0  0  0  0  0  0  0  0  0  0
   43.0050   36.1610   39.3720 H   0  0  0  0  0  0  0  0  0  0  0  0
   40.8990   35.6410   39.7520 C   0  0  0  0  0  3  0  0  0  0  0  0
   40.0690   34.7500   40.4230 C   0  0  0  0  0  3  0  0  0  0  0  0
   40.6050   33.7560   41.1830 C   0  0  0  0  0  0  0  0  0  0  0  0
   42.4150   32.5800   42.0910 O   0  0  0  0  0  0  0  0  0  0  0  0
   43.1060   31.9190   41.7550 H   0  0  0  0  0  0  0  0  0  0  0  0
   39.7240   32.9020   41.8260 O   0  0  0  0  0  0  0  0  0  0  0  0
   39.5500   31.9940   41.4400 H   0  0  0  0  0  0  0  0  0  0  0  0
  1  4  1  6  0  0  0
  1  3  1  0  0  0  0
  1  2  1  0  0  0  0
  2  5  1  0  0  0  0
  2  6  1  0  0  0  0
  3  7  1  6  0  0  0
  3  2  1  0  0  0  0
  8 13  1  6  0  0  0
  8 12  1  0  0  0  0
  8 23  1  0  0  0  0
  9 14  1  0  0  0  0
  9  8  1  0  0  0  0
 10  9  1  0  0  0  0
 10 11  1  0  0  0  0
 11 18  1  6  0  0  0
 11  1  1  0  0  0  0
 11 12  1  0  0  0  0
 12 20  1  0  0  0  0
 12 19  1  0  0  0  0
 15  9  1  0  0  0  0
 16 10  1  0  0  0  0
 17 10  1  0  0  0  0
 21 26  1  0  0  0  0
 22 23  1  0  0  0  0
 22 21  2  0  0  0  0
 23 24  2  0  0  0  0
 24 25  1  0  0  0  0
 25 29  1  0  0  0  0
 26 25  2  0  0  0  0
 27 21  1  0  0  0  0
 28 22  1  0  0  0  0
 30  3  1  0  0  0  0
 30 32  1  0  0  0  0
 32 33  1  0  0  0  0
 32 31  2  1  0  0  0
 34 33  1  0  0  0  0
 35 32  1  0  0  0  0
 36 43  1  0  0  0  0
 37 35  1  0  0  0  0
 37 36  2  0  0  0  0
 38 37  1  0  0  0  0
 39 38  1  0  0  0  0
 40 38  2  0  0  0  0
 40 41  1  0  0  0  0
 41 42  2  0  0  0  0
 42 36  1  0  0  0  0
 42 45  1  0  0  0  0
 44 43  1  0  0  0  0
 46 45  1  0  0  0  0
M  END
>  <minimizedAffinity>
-4.69713116

>  <minimizedRMSD>
10.276186

$$$$
