
 OpenBabel03242512283D

 24 25  0  0  0  0  0  0  0  0999 V2000
   39.1400   30.7530   41.2930 C   0  0  0  0  0  0  0  0  0  0  0  0
   39.8170   31.6450   41.9060 O   0  0  0  0  0  0  0  0  0  0  0  0
   39.1800   31.7750   37.8190 C   0  0  0  0  0  0  0  0  0  0  0  0
   37.9190   31.4080   37.3430 C   0  0  0  0  0  0  0  0  0  0  0  0
   37.0210   30.7930   38.2260 C   0  0  0  0  0  0  0  0  0  0  0  0
   37.4320   30.5920   39.4910 N   0  0  0  0  0  0  0  0  0  0  0  0
   38.6460   30.9470   39.9430 C   0  0  0  0  0  0  0  0  0  0  0  0
   39.5140   31.5380   39.1010 N   0  0  0  0  0  0  0  0  0  0  0  0
   40.0890   32.3960   36.9260 N   0  0  0  0  0  0  0  0  0  0  0  0
   37.5960   31.5730   36.3260 H   0  0  0  0  0  0  0  0  0  0  0  0
   36.0330   30.4810   37.9410 H   0  0  0  0  0  0  0  0  0  0  0  0
   40.2240   32.0760   35.9270 H   0  0  0  0  0  0  0  0  0  0  0  0
   40.7390   33.2060   37.0500 H   0  0  0  0  0  0  0  0  0  0  0  0
   37.6620   29.2040   42.5120 C   0  0  0  0  0  0  0  0  0  0  0  0
   38.9250   29.5450   42.0850 C   0  0  0  0  0  0  0  0  0  0  0  0
   39.9140   28.6640   42.4690 C   0  0  0  0  0  0  0  0  0  0  0  0
   40.9310   28.8610   42.1750 H   0  0  0  0  0  0  0  0  0  0  0  0
   39.7080   27.5250   43.2180 C   0  0  0  0  0  3  0  0  0  0  0  0
   38.4260   27.2210   43.6250 C   0  0  0  0  0  3  0  0  0  0  0  0
   37.4010   28.0710   43.2670 C   0  0  0  0  0  0  0  0  0  0  0  0
   36.5350   29.9930   42.2080 O   0  0  0  0  0  0  0  0  0  0  0  0
   36.2260   29.8840   41.2360 H   0  0  0  0  0  0  0  0  0  0  0  0
   36.1110   27.7610   43.6790 O   0  0  0  0  0  0  0  0  0  0  0  0
   35.3500   28.3760   43.4260 H   0  0  0  0  0  0  0  0  0  0  0  0
  1  2  2  0  0  0  0
  1 15  1  0  0  0  0
  3  8  1  0  0  0  0
  4  3  2  0  0  0  0
  4  5  1  0  0  0  0
  5  6  2  0  0  0  0
  6  7  1  0  0  0  0
  7  1  1  0  0  0  0
  8  7  2  0  0  0  0
  9 13  1  0  0  0  0
  9  3  1  0  0  0  0
 10  4  1  0  0  0  0
 11  5  1  0  0  0  0
 12  9  1  0  0  0  0
 14 20  1  0  0  0  0
 15 16  1  0  0  0  0
 15 14  2  0  0  0  0
 16 18  2  0  0  0  0
 17 16  1  0  0  0  0
 18 19  1  0  0  0  0
 20 19  2  0  0  0  0
 20 23  1  0  0  0  0
 21 14  1  0  0  0  0
 22 21  1  0  0  0  0
 24 23  1  0  0  0  0
M  END
>  <minimizedAffinity>
-5.8409338

$$$$

 OpenBabel03242512283D

 24 25  0  0  0  0  0  0  0  0999 V2000
   35.6090   28.8580   39.5160 C   0  0  0  0  0  0  0  0  0  0  0  0
   34.3740   28.8650   39.1950 O   0  0  0  0  0  0  0  0  0  0  0  0
   37.0920   27.1370   42.3370 C   0  0  0  0  0  0  0  0  0  0  0  0
   37.3560   25.8540   41.8490 C   0  0  0  0  0  0  0  0  0  0  0  0
   37.0230   25.5580   40.5210 C   0  0  0  0  0  0  0  0  0  0  0  0
   36.4620   26.5370   39.7870 N   0  0  0  0  0  0  0  0  0  0  0  0
   36.2110   27.7680   40.2610 C   0  0  0  0  0  0  0  0  0  0  0  0
   36.5280   28.0600   41.5360 N   0  0  0  0  0  0  0  0  0  0  0  0
   37.4290   27.4360   43.6800 N   0  0  0  0  0  0  0  0  0  0  0  0
   37.8060   25.0730   42.4450 H   0  0  0  0  0  0  0  0  0  0  0  0
   37.1930   24.5970   40.0690 H   0  0  0  0  0  0  0  0  0  0  0  0
   37.2540   26.7670   44.4810 H   0  0  0  0  0  0  0  0  0  0  0  0
   37.8700   28.2800   44.1130 H   0  0  0  0  0  0  0  0  0  0  0  0
   36.4070   31.1650   39.8550 C   0  0  0  0  0  0  0  0  0  0  0  0
   36.3310   30.0430   39.0610 C   0  0  0  0  0  0  0  0  0  0  0  0
   36.9800   30.1580   37.8500 C   0  0  0  0  0  0  0  0  0  0  0  0
   36.9670   29.3230   37.1700 H   0  0  0  0  0  0  0  0  0  0  0  0
   37.6600   31.2780   37.4220 C   0  0  0  0  0  3  0  0  0  0  0  0
   37.7110   32.3800   38.2490 C   0  0  0  0  0  3  0  0  0  0  0  0
   37.0770   32.3170   39.4720 C   0  0  0  0  0  0  0  0  0  0  0  0
   35.8000   31.2200   41.1250 O   0  0  0  0  0  0  0  0  0  0  0  0
   36.3210   30.6930   41.8360 H   0  0  0  0  0  0  0  0  0  0  0  0
   37.1300   33.4290   40.3030 O   0  0  0  0  0  0  0  0  0  0  0  0
   36.6680   33.3980   41.2010 H   0  0  0  0  0  0  0  0  0  0  0  0
  1  7  1  0  0  0  0
  2  1  2  0  0  0  0
  3  9  1  0  0  0  0
  4  3  1  0  0  0  0
  4 10  1  0  0  0  0
  5  4  2  0  0  0  0
  6  7  2  0  0  0  0
  6  5  1  0  0  0  0
  7  8  1  0  0  0  0
  8  3  2  0  0  0  0
  9 13  1  0  0  0  0
  9 12  1  0  0  0  0
 11  5  1  0  0  0  0
 14 21  1  0  0  0  0
 15  1  1  0  0  0  0
 15 14  2  0  0  0  0
 16 15  1  0  0  0  0
 17 16  1  0  0  0  0
 18 16  2  0  0  0  0
 18 19  1  0  0  0  0
 19 20  2  0  0  0  0
 20 14  1  0  0  0  0
 20 23  1  0  0  0  0
 21 22  1  0  0  0  0
 23 24  1  0  0  0  0
M  END
>  <minimizedAffinity>
-5.56665611

$$$$

 OpenBabel03242512283D

 24 25  0  0  0  0  0  0  0  0999 V2000
   35.5900   28.9200   40.0840 C   0  0  0  0  0  0  0  0  0  0  0  0
   34.3230   29.0020   39.9520 O   0  0  0  0  0  0  0  0  0  0  0  0
   37.0820   25.6510   40.5350 C   0  0  0  0  0  0  0  0  0  0  0  0
   37.4320   25.6230   41.8880 C   0  0  0  0  0  0  0  0  0  0  0  0
   37.1540   26.7470   42.6770 C   0  0  0  0  0  0  0  0  0  0  0  0
   36.5620   27.7960   42.0790 N   0  0  0  0  0  0  0  0  0  0  0  0
   36.2280   27.8190   40.7790 C   0  0  0  0  0  0  0  0  0  0  0  0
   36.4910   26.7430   40.0130 N   0  0  0  0  0  0  0  0  0  0  0  0
   37.3630   24.5160   39.7360 N   0  0  0  0  0  0  0  0  0  0  0  0
   37.9080   24.7760   42.3600 H   0  0  0  0  0  0  0  0  0  0  0  0
   37.3910   26.8050   43.7250 H   0  0  0  0  0  0  0  0  0  0  0  0
   38.2700   23.9750   39.8020 H   0  0  0  0  0  0  0  0  0  0  0  0
   36.8010   24.0280   39.0010 H   0  0  0  0  0  0  0  0  0  0  0  0
   36.4140   31.2420   40.1240 C   0  0  0  0  0  0  0  0  0  0  0  0
   36.3070   30.0350   39.4710 C   0  0  0  0  0  0  0  0  0  0  0  0
   36.9220   29.9980   38.2380 C   0  0  0  0  0  0  0  0  0  0  0  0
   36.8820   29.0890   37.6620 H   0  0  0  0  0  0  0  0  0  0  0  0
   37.5970   31.0520   37.6610 C   0  0  0  0  0  3  0  0  0  0  0  0
   37.6800   32.2440   38.3500 C   0  0  0  0  0  3  0  0  0  0  0  0
   37.0820   32.3330   39.5880 C   0  0  0  0  0  0  0  0  0  0  0  0
   35.8450   31.4540   41.3950 O   0  0  0  0  0  0  0  0  0  0  0  0
   36.3820   31.0100   42.1480 H   0  0  0  0  0  0  0  0  0  0  0  0
   37.1670   33.5350   40.2800 O   0  0  0  0  0  0  0  0  0  0  0  0
   36.7300   33.6160   41.1880 H   0  0  0  0  0  0  0  0  0  0  0  0
  1  7  1  0  0  0  0
  2  1  2  0  0  0  0
  3  4  1  0  0  0  0
  4 10  1  0  0  0  0
  4  5  2  0  0  0  0
  5 11  1  0  0  0  0
  6  5  1  0  0  0  0
  7  6  2  0  0  0  0
  8  3  2  0  0  0  0
  8  7  1  0  0  0  0
  9 12  1  0  0  0  0
  9  3  1  0  0  0  0
 13  9  1  0  0  0  0
 14 21  1  0  0  0  0
 15  1  1  0  0  0  0
 15 14  2  0  0  0  0
 16 15  1  0  0  0  0
 17 16  1  0  0  0  0
 18 16  2  0  0  0  0
 18 19  1  0  0  0  0
 19 20  2  0  0  0  0
 20 14  1  0  0  0  0
 20 23  1  0  0  0  0
 21 22  1  0  0  0  0
 23 24  1  0  0  0  0
M  END
>  <minimizedAffinity>
-5.56135702

$$$$

 OpenBabel03242512283D

 24 25  0  0  0  0  0  0  0  0999 V2000
   36.9110   27.6610   42.6100 C   0  0  0  0  0  0  0  0  0  0  0  0
   36.1610   27.7990   43.6340 O   0  0  0  0  0  0  0  0  0  0  0  0
   36.5680   30.5980   40.5180 C   0  0  0  0  0  0  0  0  0  0  0  0
   36.3670   30.0780   39.2370 C   0  0  0  0  0  0  0  0  0  0  0  0
   36.3450   28.6870   39.0710 C   0  0  0  0  0  0  0  0  0  0  0  0
   36.5220   27.9270   40.1670 N   0  0  0  0  0  0  0  0  0  0  0  0
   36.7150   28.4310   41.3970 C   0  0  0  0  0  0  0  0  0  0  0  0
   36.7370   29.7670   41.5640 N   0  0  0  0  0  0  0  0  0  0  0  0
   36.5910   32.0040   40.6860 N   0  0  0  0  0  0  0  0  0  0  0  0
   36.2260   30.6950   38.3610 H   0  0  0  0  0  0  0  0  0  0  0  0
   36.1960   28.2080   38.1200 H   0  0  0  0  0  0  0  0  0  0  0  0
   37.0840   32.6570   40.0150 H   0  0  0  0  0  0  0  0  0  0  0  0
   36.1740   32.6220   41.4190 H   0  0  0  0  0  0  0  0  0  0  0  0
   37.8420   25.4100   42.2420 C   0  0  0  0  0  0  0  0  0  0  0  0
   37.9630   26.6650   42.7940 C   0  0  0  0  0  0  0  0  0  0  0  0
   39.1280   26.8660   43.5030 C   0  0  0  0  0  0  0  0  0  0  0  0
   39.2980   27.8230   43.9670 H   0  0  0  0  0  0  0  0  0  0  0  0
   40.1190   25.9230   43.6750 C   0  0  0  0  0  3  0  0  0  0  0  0
   39.9570   24.6780   43.1050 C   0  0  0  0  0  3  0  0  0  0  0  0
   38.8080   24.4260   42.3860 C   0  0  0  0  0  0  0  0  0  0  0  0
   36.7150   25.0340   41.4860 O   0  0  0  0  0  0  0  0  0  0  0  0
   36.7180   25.4390   40.5420 H   0  0  0  0  0  0  0  0  0  0  0  0
   38.6490   23.1700   41.8130 O   0  0  0  0  0  0  0  0  0  0  0  0
   37.8100   22.9700   41.2850 H   0  0  0  0  0  0  0  0  0  0  0  0
  1 15  1  0  0  0  0
  1  2  2  0  0  0  0
  3  9  1  0  0  0  0
  3  8  1  0  0  0  0
  4  3  2  0  0  0  0
  5  4  1  0  0  0  0
  5  6  2  0  0  0  0
  6  7  1  0  0  0  0
  7  8  2  0  0  0  0
  7  1  1  0  0  0  0
  9 13  1  0  0  0  0
 10  4  1  0  0  0  0
 11  5  1  0  0  0  0
 12  9  1  0  0  0  0
 14 20  2  0  0  0  0
 14 15  1  0  0  0  0
 15 16  2  0  0  0  0
 16 18  1  0  0  0  0
 16 17  1  0  0  0  0
 19 18  2  0  0  0  0
 20 19  1  0  0  0  0
 21 14  1  0  0  0  0
 22 21  1  0  0  0  0
 23 20  1  0  0  0  0
 24 23  1  0  0  0  0
M  END
>  <minimizedAffinity>
-5.47575474

$$$$

 OpenBabel03242512283D

 24 25  0  0  0  0  0  0  0  0999 V2000
   37.3030   28.5510   41.9590 C   0  0  0  0  0  0  0  0  0  0  0  0
   36.9590   28.7750   43.1670 O   0  0  0  0  0  0  0  0  0  0  0  0
   37.4930   24.9520   41.6050 C   0  0  0  0  0  0  0  0  0  0  0  0
   36.9320   24.7050   40.3500 C   0  0  0  0  0  0  0  0  0  0  0  0
   36.4730   25.7920   39.5940 C   0  0  0  0  0  0  0  0  0  0  0  0
   36.6010   27.0200   40.1280 N   0  0  0  0  0  0  0  0  0  0  0  0
   37.1410   27.2510   41.3360 C   0  0  0  0  0  0  0  0  0  0  0  0
   37.5850   26.2120   42.0680 N   0  0  0  0  0  0  0  0  0  0  0  0
   37.9570   23.8530   42.3700 N   0  0  0  0  0  0  0  0  0  0  0  0
   36.8320   23.7160   39.9270 H   0  0  0  0  0  0  0  0  0  0  0  0
   36.0290   25.6890   38.6200 H   0  0  0  0  0  0  0  0  0  0  0  0
   37.4250   22.9410   42.4510 H   0  0  0  0  0  0  0  0  0  0  0  0
   38.8200   23.7240   42.9470 H   0  0  0  0  0  0  0  0  0  0  0  0
   37.0900   30.8360   41.0620 C   0  0  0  0  0  0  0  0  0  0  0  0
   37.8650   29.7220   41.2920 C   0  0  0  0  0  0  0  0  0  0  0  0
   39.1650   29.8300   40.8440 C   0  0  0  0  0  0  0  0  0  0  0  0
   39.8360   28.9990   40.9850 H   0  0  0  0  0  0  0  0  0  0  0  0
   39.6930   30.9360   40.2130 C   0  0  0  0  0  3  0  0  0  0  0  0
   38.8810   32.0300   40.0020 C   0  0  0  0  0  3  0  0  0  0  0  0
   37.5720   31.9730   40.4310 C   0  0  0  0  0  0  0  0  0  0  0  0
   35.7390   30.8960   41.4540 O   0  0  0  0  0  0  0  0  0  0  0  0
   35.6270   31.0380   42.4650 H   0  0  0  0  0  0  0  0  0  0  0  0
   36.7570   33.0770   40.2170 O   0  0  0  0  0  0  0  0  0  0  0  0
   35.7940   33.0480   40.5240 H   0  0  0  0  0  0  0  0  0  0  0  0
  1  2  2  0  0  0  0
  3  8  1  0  0  0  0
  3  9  1  0  0  0  0
  4  3  2  0  0  0  0
  5  6  2  0  0  0  0
  5  4  1  0  0  0  0
  6  7  1  0  0  0  0
  7  1  1  0  0  0  0
  7  8  2  0  0  0  0
  9 12  1  0  0  0  0
  9 13  1  0  0  0  0
 10  4  1  0  0  0  0
 11  5  1  0  0  0  0
 14 15  1  0  0  0  0
 14 21  1  0  0  0  0
 15  1  1  0  0  0  0
 16 17  1  0  0  0  0
 16 15  2  0  0  0  0
 18 16  1  0  0  0  0
 19 18  2  0  0  0  0
 19 20  1  0  0  0  0
 20 14  2  0  0  0  0
 21 22  1  0  0  0  0
 23 20  1  0  0  0  0
 23 24  1  0  0  0  0
M  END
>  <minimizedAffinity>
-5.44110537

$$$$

 OpenBabel03242512283D

 24 25  0  0  0  0  0  0  0  0999 V2000
   38.6830   27.2990   42.4130 C   0  0  0  0  0  0  0  0  0  0  0  0
   37.8900   26.4400   42.9240 O   0  0  0  0  0  0  0  0  0  0  0  0
   41.9980   26.0970   43.2410 C   0  0  0  0  0  0  0  0  0  0  0  0
   42.7390   27.2640   43.4450 C   0  0  0  0  0  0  0  0  0  0  0  0
   42.0990   28.5010   43.2990 C   0  0  0  0  0  0  0  0  0  0  0  0
   40.7950   28.4920   42.9670 N   0  0  0  0  0  0  0  0  0  0  0  0
   40.0870   27.3670   42.7720 C   0  0  0  0  0  0  0  0  0  0  0  0
   40.6950   26.1740   42.9100 N   0  0  0  0  0  0  0  0  0  0  0  0
   42.6460   24.8460   43.3880 N   0  0  0  0  0  0  0  0  0  0  0  0
   43.7860   27.2630   43.7110 H   0  0  0  0  0  0  0  0  0  0  0  0
   42.5970   29.4440   43.4390 H   0  0  0  0  0  0  0  0  0  0  0  0
   43.6190   24.6530   43.0190 H   0  0  0  0  0  0  0  0  0  0  0  0
   42.3370   23.9540   43.8390 H   0  0  0  0  0  0  0  0  0  0  0  0
   37.1610   29.1590   41.8720 C   0  0  0  0  0  0  0  0  0  0  0  0
   38.0340   28.1830   41.4490 C   0  0  0  0  0  0  0  0  0  0  0  0
   38.2180   28.1360   40.0830 C   0  0  0  0  0  0  0  0  0  0  0  0
   38.8860   27.3990   39.6720 H   0  0  0  0  0  0  0  0  0  0  0  0
   37.6030   28.9720   39.1750 C   0  0  0  0  0  3  0  0  0  0  0  0
   36.7350   29.9360   39.6430 C   0  0  0  0  0  3  0  0  0  0  0  0
   36.5160   30.0240   41.0010 C   0  0  0  0  0  0  0  0  0  0  0  0
   36.8580   29.3470   43.2350 O   0  0  0  0  0  0  0  0  0  0  0  0
   37.6140   29.8140   43.7480 H   0  0  0  0  0  0  0  0  0  0  0  0
   35.6410   30.9970   41.4680 O   0  0  0  0  0  0  0  0  0  0  0  0
   35.4690   31.0710   42.4620 H   0  0  0  0  0  0  0  0  0  0  0  0
  1  7  1  0  0  0  0
  1  2  2  0  0  0  0
  3  9  1  0  0  0  0
  3  4  1  0  0  0  0
  4 10  1  0  0  0  0
  5 11  1  0  0  0  0
  5  4  2  0  0  0  0
  6  5  1  0  0  0  0
  7  8  1  0  0  0  0
  7  6  2  0  0  0  0
  8  3  2  0  0  0  0
  9 13  1  0  0  0  0
 12  9  1  0  0  0  0
 14 21  1  0  0  0  0
 15 14  1  0  0  0  0
 15  1  1  0  0  0  0
 16 15  2  0  0  0  0
 17 16  1  0  0  0  0
 18 19  2  0  0  0  0
 18 16  1  0  0  0  0
 19 20  1  0  0  0  0
 20 23  1  0  0  0  0
 20 14  2  0  0  0  0
 21 22  1  0  0  0  0
 23 24  1  0  0  0  0
M  END
>  <minimizedAffinity>
-5.32788372

$$$$

 OpenBabel03242512283D

 24 25  0  0  0  0  0  0  0  0999 V2000
   36.0090   29.2220   40.5500 C   0  0  0  0  0  0  0  0  0  0  0  0
   34.7710   28.9160   40.5730 O   0  0  0  0  0  0  0  0  0  0  0  0
   37.1080   32.4550   39.3430 C   0  0  0  0  0  0  0  0  0  0  0  0
   37.5400   32.2010   38.0390 C   0  0  0  0  0  0  0  0  0  0  0  0
   37.4580   30.8910   37.5470 C   0  0  0  0  0  0  0  0  0  0  0  0
   36.9630   29.9480   38.3690 N   0  0  0  0  0  0  0  0  0  0  0  0
   36.5490   30.1980   39.6220 C   0  0  0  0  0  0  0  0  0  0  0  0
   36.6250   31.4540   40.1020 N   0  0  0  0  0  0  0  0  0  0  0  0
   37.1930   33.7790   39.8410 N   0  0  0  0  0  0  0  0  0  0  0  0
   37.9370   32.9630   37.3850 H   0  0  0  0  0  0  0  0  0  0  0  0
   37.7680   30.6120   36.5560 H   0  0  0  0  0  0  0  0  0  0  0  0
   38.0280   34.4070   39.6710 H   0  0  0  0  0  0  0  0  0  0  0  0
   36.5270   34.3490   40.4110 H   0  0  0  0  0  0  0  0  0  0  0  0
   37.0460   27.1510   41.3900 C   0  0  0  0  0  0  0  0  0  0  0  0
   36.8030   28.4980   41.5380 C   0  0  0  0  0  0  0  0  0  0  0  0
   37.3640   29.0570   42.6670 C   0  0  0  0  0  0  0  0  0  0  0  0
   37.2180   30.1070   42.8560 H   0  0  0  0  0  0  0  0  0  0  0  0
   38.1110   28.3700   43.6000 C   0  0  0  0  0  3  0  0  0  0  0  0
   38.3290   27.0210   43.4120 C   0  0  0  0  0  3  0  0  0  0  0  0
   37.7900   26.4140   42.2990 C   0  0  0  0  0  0  0  0  0  0  0  0
   36.5470   26.4210   40.2940 O   0  0  0  0  0  0  0  0  0  0  0  0
   37.0690   26.6010   39.4280 H   0  0  0  0  0  0  0  0  0  0  0  0
   38.0120   25.0550   42.1130 O   0  0  0  0  0  0  0  0  0  0  0  0
   37.6200   24.5960   41.3030 H   0  0  0  0  0  0  0  0  0  0  0  0
  1  2  2  0  0  0  0
  1 15  1  0  0  0  0
  3  9  1  0  0  0  0
  3  8  1  0  0  0  0
  4  3  2  0  0  0  0
  5  4  1  0  0  0  0
  5  6  2  0  0  0  0
  6  7  1  0  0  0  0
  7  8  2  0  0  0  0
  7  1  1  0  0  0  0
  9 13  1  0  0  0  0
 10  4  1  0  0  0  0
 11  5  1  0  0  0  0
 12  9  1  0  0  0  0
 14 15  2  0  0  0  0
 14 20  1  0  0  0  0
 15 16  1  0  0  0  0
 16 17  1  0  0  0  0
 16 18  2  0  0  0  0
 19 18  1  0  0  0  0
 20 19  2  0  0  0  0
 21 14  1  0  0  0  0
 22 21  1  0  0  0  0
 23 20  1  0  0  0  0
 24 23  1  0  0  0  0
M  END
>  <minimizedAffinity>
-5.27128839

$$$$

 OpenBabel03242512283D

 24 25  0  0  0  0  0  0  0  0999 V2000
   38.1560   29.8360   40.0350 C   0  0  0  0  0  0  0  0  0  0  0  0
   37.3010   29.4180   39.1840 O   0  0  0  0  0  0  0  0  0  0  0  0
   40.0930   32.2560   38.1610 C   0  0  0  0  0  0  0  0  0  0  0  0
   40.5180   33.1700   39.1280 C   0  0  0  0  0  0  0  0  0  0  0  0
   40.1380   32.9640   40.4610 C   0  0  0  0  0  0  0  0  0  0  0  0
   39.3800   31.8870   40.7320 N   0  0  0  0  0  0  0  0  0  0  0  0
   38.9730   31.0110   39.7990 C   0  0  0  0  0  0  0  0  0  0  0  0
   39.3340   31.2020   38.5160 N   0  0  0  0  0  0  0  0  0  0  0  0
   40.4760   32.4640   36.8130 N   0  0  0  0  0  0  0  0  0  0  0  0
   41.1270   34.0330   38.9020 H   0  0  0  0  0  0  0  0  0  0  0  0
   40.4240   33.6200   41.2640 H   0  0  0  0  0  0  0  0  0  0  0  0
   40.4670   33.4170   36.3520 H   0  0  0  0  0  0  0  0  0  0  0  0
   40.8100   31.8010   36.0760 H   0  0  0  0  0  0  0  0  0  0  0  0
   37.0620   28.6490   41.8960 C   0  0  0  0  0  0  0  0  0  0  0  0
   38.2160   29.0190   41.2430 C   0  0  0  0  0  0  0  0  0  0  0  0
   39.3750   28.5540   41.8280 C   0  0  0  0  0  0  0  0  0  0  0  0
   40.3220   28.8020   41.3780 H   0  0  0  0  0  0  0  0  0  0  0  0
   39.4290   27.7840   42.9700 C   0  0  0  0  0  3  0  0  0  0  0  0
   38.2480   27.4370   43.5920 C   0  0  0  0  0  3  0  0  0  0  0  0
   37.0610   27.8760   43.0470 C   0  0  0  0  0  0  0  0  0  0  0  0
   35.7890   29.0370   41.4350 O   0  0  0  0  0  0  0  0  0  0  0  0
   35.4850   28.5010   40.6140 H   0  0  0  0  0  0  0  0  0  0  0  0
   35.8740   27.5240   43.6770 O   0  0  0  0  0  0  0  0  0  0  0  0
   34.9950   27.8420   43.2910 H   0  0  0  0  0  0  0  0  0  0  0  0
  1 15  1  0  0  0  0
  2  1  2  0  0  0  0
  3  8  2  0  0  0  0
  3  4  1  0  0  0  0
  4  5  2  0  0  0  0
  5  6  1  0  0  0  0
  5 11  1  0  0  0  0
  7  1  1  0  0  0  0
  7  6  2  0  0  0  0
  8  7  1  0  0  0  0
  9  3  1  0  0  0  0
 10  4  1  0  0  0  0
 12  9  1  0  0  0  0
 13  9  1  0  0  0  0
 14 20  1  0  0  0  0
 15 16  1  0  0  0  0
 15 14  2  0  0  0  0
 16 18  2  0  0  0  0
 17 16  1  0  0  0  0
 18 19  1  0  0  0  0
 20 19  2  0  0  0  0
 20 23  1  0  0  0  0
 21 14  1  0  0  0  0
 22 21  1  0  0  0  0
 24 23  1  0  0  0  0
M  END
>  <minimizedAffinity>
-5.268713

$$$$

 OpenBabel03242512283D

 24 25  0  0  0  0  0  0  0  0999 V2000
   35.2920   28.9720   39.3230 C   0  0  0  0  0  0  0  0  0  0  0  0
   34.0930   29.2130   39.6900 O   0  0  0  0  0  0  0  0  0  0  0  0
   37.0960   30.6820   36.6890 C   0  0  0  0  0  0  0  0  0  0  0  0
   36.7700   29.9640   35.5350 C   0  0  0  0  0  0  0  0  0  0  0  0
   35.9110   28.8640   35.6490 C   0  0  0  0  0  0  0  0  0  0  0  0
   35.4460   28.5610   36.8740 N   0  0  0  0  0  0  0  0  0  0  0  0
   35.7620   29.2540   37.9800 C   0  0  0  0  0  0  0  0  0  0  0  0
   36.5870   30.3130   37.8790 N   0  0  0  0  0  0  0  0  0  0  0  0
   37.9650   31.7940   36.5750 N   0  0  0  0  0  0  0  0  0  0  0  0
   37.1480   30.2130   34.5540 H   0  0  0  0  0  0  0  0  0  0  0  0
   35.6110   28.2590   34.8110 H   0  0  0  0  0  0  0  0  0  0  0  0
   38.8330   31.7890   35.9680 H   0  0  0  0  0  0  0  0  0  0  0  0
   37.9370   32.7440   37.0110 H   0  0  0  0  0  0  0  0  0  0  0  0
   36.4180   29.1250   41.5090 C   0  0  0  0  0  0  0  0  0  0  0  0
   36.1160   28.3960   40.3810 C   0  0  0  0  0  0  0  0  0  0  0  0
   36.6520   27.1250   40.3650 C   0  0  0  0  0  0  0  0  0  0  0  0
   36.4620   26.4910   39.5150 H   0  0  0  0  0  0  0  0  0  0  0  0
   37.4310   26.5840   41.3650 C   0  0  0  0  0  3  0  0  0  0  0  0
   37.7090   27.3500   42.4770 C   0  0  0  0  0  3  0  0  0  0  0  0
   37.1980   28.6290   42.5430 C   0  0  0  0  0  0  0  0  0  0  0  0
   35.9530   30.4420   41.6900 O   0  0  0  0  0  0  0  0  0  0  0  0
   34.9590   30.4790   41.9440 H   0  0  0  0  0  0  0  0  0  0  0  0
   37.4810   29.3980   43.6650 O   0  0  0  0  0  0  0  0  0  0  0  0
   37.1150   30.3380   43.7250 H   0  0  0  0  0  0  0  0  0  0  0  0
  1  2  2  0  0  0  0
  1 15  1  0  0  0  0
  3  8  1  0  0  0  0
  4  5  1  0  0  0  0
  4  3  2  0  0  0  0
  5  6  2  0  0  0  0
  6  7  1  0  0  0  0
  7  1  1  0  0  0  0
  8  7  2  0  0  0  0
  9  3  1  0  0  0  0
  9 13  1  0  0  0  0
 10  4  1  0  0  0  0
 11  5  1  0  0  0  0
 12  9  1  0  0  0  0
 14 21  1  0  0  0  0
 14 20  1  0  0  0  0
 15 14  2  0  0  0  0
 16 15  1  0  0  0  0
 16 18  2  0  0  0  0
 17 16  1  0  0  0  0
 18 19  1  0  0  0  0
 19 20  2  0  0  0  0
 20 23  1  0  0  0  0
 21 22  1  0  0  0  0
 23 24  1  0  0  0  0
M  END
>  <minimizedAffinity>
-5.25317144

$$$$
