
 OpenBabel03242517193D

 41 43  0  0  0  0  0  0  0  0999 V2000
   44.5700   35.6730   42.8810 C   0  0  0  0  0  0  0  0  0  0  0  0
   44.1490   35.2540   41.5800 C   0  0  0  0  0  0  0  0  0  0  0  0
   44.9500   34.3990   40.8570 C   0  0  0  0  0  0  0  0  0  0  0  0
   46.1130   33.9990   41.4410 N   0  0  0  0  0  0  0  0  0  0  0  0
   46.5070   34.3900   42.6550 C   0  0  0  0  0  0  0  0  0  0  0  0
   45.7240   35.2290   43.3690 N   0  0  0  0  0  0  0  0  0  0  0  0
   43.9120   36.3440   43.4140 H   0  0  0  0  0  0  0  0  0  0  0  0
   44.6740   34.0620   39.8820 H   0  0  0  0  0  0  0  0  0  0  0  0
   47.7460   33.9950   43.3420 C   0  0  0  0  0  0  0  0  0  0  0  0
   47.6830   34.2300   44.4210 H   0  0  0  0  0  0  0  0  0  0  0  0
   48.6280   34.4790   42.8720 H   0  0  0  0  0  0  0  0  0  0  0  0
   47.9780   32.5060   43.2030 C   0  0  0  0  0  0  0  0  0  0  0  0
   47.9170   32.1700   42.1620 H   0  0  0  0  0  0  0  0  0  0  0  0
   49.0220   32.3280   43.5960 H   0  0  0  0  0  0  0  0  0  0  0  0
   46.6240   32.0370   45.3340 C   0  0  0  0  0  0  0  0  0  0  0  0
   47.1030   31.7220   44.1090 C   0  0  0  0  0  0  0  0  0  0  0  0
   46.7210   30.4740   43.6070 C   0  0  0  0  0  0  0  0  0  0  0  0
   47.0510   30.1140   42.6200 H   0  0  0  0  0  0  0  0  0  0  0  0
   45.9060   29.5930   44.2930 C   0  0  0  0  0  0  0  0  0  0  0  0
   45.4750   30.0090   45.5290 C   0  0  0  0  0  0  0  0  0  0  0  0
   45.8090   31.2250   46.0910 C   0  0  0  0  0  0  0  0  0  0  0  0
   47.0300   33.2980   45.8040 O   0  0  0  0  0  0  0  0  0  0  0  0
   46.3100   34.0260   45.7250 H   0  0  0  0  0  0  0  0  0  0  0  0
   45.3730   31.6420   47.3410 O   0  0  0  0  0  0  0  0  0  0  0  0
   44.5030   32.1300   47.4940 H   0  0  0  0  0  0  0  0  0  0  0  0
   42.8670   35.7460   41.0430 C   0  0  0  0  0  0  0  0  0  0  0  0
   41.6870   35.4490   41.5450 C   0  0  0  0  0  0  0  0  0  0  0  0
   40.4080   35.9560   40.9900 C   0  0  0  0  0  0  0  0  0  0  0  0
   40.5850   36.9380   40.5130 H   0  0  0  0  0  0  0  0  0  0  0  0
   39.7110   36.0270   41.8610 H   0  0  0  0  0  0  0  0  0  0  0  0
   41.0090   36.1260   38.2640 F   0  0  0  0  0  0  0  0  0  0  0  0
   40.1650   35.1590   38.6680 C   0  0  0  0  0  0  0  0  0  0  0  0
   39.8350   35.0340   40.0160 C   0  0  0  0  0  0  0  0  0  0  0  0
   38.9690   34.0130   40.2930 C   0  0  0  0  0  0  0  0  0  0  0  0
   38.4160   33.1310   39.3940 C   0  0  0  0  0  0  0  0  0  0  0  0
   38.7870   33.3110   38.0640 C   0  0  0  0  0  0  0  0  0  0  0  0
   39.6480   34.3050   37.6830 C   0  0  0  0  0  0  0  0  0  0  0  0
   38.6880   33.8870   41.3490 H   0  0  0  0  0  0  0  0  0  0  0  0
   37.7370   32.3560   39.7280 H   0  0  0  0  0  0  0  0  0  0  0  0
   38.3800   32.6420   37.3090 H   0  0  0  0  0  0  0  0  0  0  0  0
   39.9280   34.4320   36.6400 H   0  0  0  0  0  0  0  0  0  0  0  0
  1  6  1  0  0  0  0
  1  7  1  0  0  0  0
  2  1  2  0  0  0  0
  3  4  2  0  0  0  0
  3  2  1  0  0  0  0
  4  5  1  0  0  0  0
  5  9  1  0  0  0  0
  5  6  2  0  0  0  0
  8  3  1  0  0  0  0
  9 10  1  0  0  0  0
 11  9  1  0  0  0  0
 12  9  1  0  0  0  0
 12 14  1  0  0  0  0
 12 16  1  0  0  0  0
 13 12  1  0  0  0  0
 15 22  1  0  0  0  0
 15 21  1  0  0  0  0
 16 15  2  0  0  0  0
 17 16  1  0  0  0  0
 17 19  2  0  0  0  0
 18 17  1  0  0  0  0
 19 20  1  0  0  0  0
 20 21  2  0  0  0  0
 21 24  1  0  0  0  0
 23 22  1  0  0  0  0
 24 25  1  0  0  0  0
 26 27  2  0  0  0  0
 26  2  1  0  0  0  0
 28 27  1  0  0  0  0
 28 30  1  0  0  0  0
 29 28  1  0  0  0  0
 31 32  1  0  0  0  0
 32 33  1  0  0  0  0
 33 34  2  0  0  0  0
 33 28  1  0  0  0  0
 34 38  1  0  0  0  0
 35 39  1  0  0  0  0
 35 34  1  0  0  0  0
 36 35  2  0  0  0  0
 37 36  1  0  0  0  0
 37 32  2  0  0  0  0
 40 36  1  0  0  0  0
 41 37  1  0  0  0  0
M  END
>  <minimizedAffinity>
-6.5615406

>  <minimizedRMSD>
3.24608755

$$$$
