
 OpenBabel03242517263D

 37 39  0  0  1  0  0  0  0  0999 V2000
   38.0110   28.4450   43.2700 C   0  0  0  0  0  0  0  0  0  0  0  0
   37.4900   27.3370   42.5290 C   0  0  0  0  0  0  0  0  0  0  0  0
   37.1360   27.5640   41.1860 C   0  0  0  0  0  0  0  0  0  0  0  0
   37.3120   28.8010   40.6970 N   0  0  0  0  0  0  0  0  0  0  0  0
   37.7980   29.8330   41.3930 C   0  0  0  0  0  0  0  0  0  0  0  0
   38.1450   29.6440   42.6800 N   0  0  0  0  0  0  0  0  0  0  0  0
   37.9360   31.0700   40.7810 N   0  0  0  0  0  0  0  0  0  0  0  0
   36.7920   31.7310   40.2210 C   0  0  0  0  0  0  0  0  0  0  0  0
   37.1070   32.8510   39.2820 C   0  0  0  0  0  0  0  0  0  0  0  0
   38.3160   33.5700   39.5430 N   0  0  0  0  0  0  0  0  0  0  0  0
   38.9700   33.1790   40.7510 C   0  0  0  0  0  0  0  0  0  0  0  0
   39.2290   31.7120   40.6960 C   0  0  2  0  0  0  0  0  0  0  0  0
   38.2780   28.2450   44.3080 H   0  0  0  0  0  0  0  0  0  0  0  0
   37.3870   26.3720   43.0190 H   0  0  0  0  0  0  0  0  0  0  0  0
   36.7420   26.7310   40.6120 H   0  0  0  0  0  0  0  0  0  0  0  0
   36.1160   32.1030   41.0430 H   0  0  0  0  0  0  0  0  0  0  0  0
   36.1700   30.9890   39.6720 H   0  0  0  0  0  0  0  0  0  0  0  0
   37.1700   32.4650   38.2340 H   0  0  0  0  0  0  0  0  0  0  0  0
   36.2600   33.5690   39.3010 H   0  0  0  0  0  0  0  0  0  0  0  0
   38.2730   34.5980   39.3830 H   0  0  0  0  0  0  0  0  0  0  0  0
   38.3060   33.3720   41.6270 H   0  0  0  0  0  0  0  0  0  0  0  0
   39.9200   33.7260   40.8520 H   0  0  0  0  0  0  0  0  0  0  0  0
   39.7760   31.4370   41.6430 H   0  0  0  0  0  0  0  0  0  0  0  0
   40.0130   31.3210   39.4930 C   0  0  0  0  0  0  0  0  0  0  0  0
   40.1170   30.1960   39.5370 H   0  0  0  0  0  0  0  0  0  0  0  0
   39.3280   31.4640   38.6090 H   0  0  0  0  0  0  0  0  0  0  0  0
   41.3680   32.7260   38.1120 C   0  0  0  0  0  0  0  0  0  0  0  0
   41.2940   31.9910   39.3040 C   0  0  0  0  0  0  0  0  0  0  0  0
   42.4140   31.9880   40.1350 C   0  0  0  0  0  0  0  0  0  0  0  0
   42.2920   31.4090   41.0230 H   0  0  0  0  0  0  0  0  0  0  0  0
   43.5590   32.6940   39.7800 C   0  0  0  0  0  3  0  0  0  0  0  0
   43.6150   33.4160   38.5950 C   0  0  0  0  0  3  0  0  0  0  0  0
   42.5200   33.4360   37.7540 C   0  0  0  0  0  0  0  0  0  0  0  0
   40.3140   32.8080   37.1980 O   0  0  0  0  0  0  0  0  0  0  0  0
   40.0410   31.9660   36.7070 H   0  0  0  0  0  0  0  0  0  0  0  0
   42.5700   34.1570   36.5700 O   0  0  0  0  0  0  0  0  0  0  0  0
   43.0160   35.0300   36.4250 H   0  0  0  0  0  0  0  0  0  0  0  0
  1 13  1  0  0  0  0
  2 14  1  0  0  0  0
  2  1  2  0  0  0  0
  3  2  1  0  0  0  0
  4  3  2  0  0  0  0
  4  5  1  0  0  0  0
  5  6  2  0  0  0  0
  6  1  1  0  0  0  0
  7  5  1  0  0  0  0
  8  7  1  0  0  0  0
  8 16  1  0  0  0  0
  9 19  1  0  0  0  0
  9 10  1  0  0  0  0
  9  8  1  0  0  0  0
 10 11  1  0  0  0  0
 11 22  1  0  0  0  0
 11 21  1  0  0  0  0
 12 11  1  0  0  0  0
 12  7  1  0  0  0  0
 12 23  1  1  0  0  0
 15  3  1  0  0  0  0
 17  8  1  0  0  0  0
 18  9  1  0  0  0  0
 20 10  1  0  0  0  0
 24 25  1  0  0  0  0
 24 12  1  0  0  0  0
 26 24  1  0  0  0  0
 27 28  1  0  0  0  0
 28 24  1  0  0  0  0
 28 29  2  0  0  0  0
 29 30  1  0  0  0  0
 31 29  1  0  0  0  0
 32 31  2  0  0  0  0
 33 27  2  0  0  0  0
 33 32  1  0  0  0  0
 34 27  1  0  0  0  0
 35 34  1  0  0  0  0
 36 33  1  0  0  0  0
 37 36  1  0  0  0  0
M  END
>  <minimizedAffinity>
-6.29341602

$$$$

 OpenBabel03242517263D

 37 39  0  0  1  0  0  0  0  0999 V2000
   42.3250   29.7460   38.1280 C   0  0  0  0  0  0  0  0  0  0  0  0
   43.5440   30.2490   38.6840 C   0  0  0  0  0  0  0  0  0  0  0  0
   43.4500   31.3340   39.5750 C   0  0  0  0  0  0  0  0  0  0  0  0
   42.2280   31.8190   39.8390 N   0  0  0  0  0  0  0  0  0  0  0  0
   41.0920   31.3460   39.3160 C   0  0  0  0  0  0  0  0  0  0  0  0
   41.1510   30.3090   38.4610 N   0  0  0  0  0  0  0  0  0  0  0  0
   39.8820   31.9290   39.6630 N   0  0  0  0  0  0  0  0  0  0  0  0
   39.6510   33.3220   39.4080 C   0  0  0  0  0  0  0  0  0  0  0  0
   38.4900   33.9150   40.1410 C   0  0  0  0  0  0  0  0  0  0  0  0
   37.4020   33.0280   40.4160 N   0  0  0  0  0  0  0  0  0  0  0  0
   37.5460   31.7360   39.8240 C   0  0  0  0  0  0  0  0  0  0  0  0
   38.8360   31.1470   40.2840 C   0  0  2  0  0  0  0  0  0  0  0  0
   42.4220   28.9060   37.4400 H   0  0  0  0  0  0  0  0  0  0  0  0
   44.4860   29.7840   38.4060 H   0  0  0  0  0  0  0  0  0  0  0  0
   44.3670   31.7230   40.0060 H   0  0  0  0  0  0  0  0  0  0  0  0
   39.5340   33.5030   38.3020 H   0  0  0  0  0  0  0  0  0  0  0  0
   40.5610   33.9020   39.6830 H   0  0  0  0  0  0  0  0  0  0  0  0
   38.8310   34.3360   41.1200 H   0  0  0  0  0  0  0  0  0  0  0  0
   38.1050   34.7710   39.5490 H   0  0  0  0  0  0  0  0  0  0  0  0
   36.4500   33.4430   40.3320 H   0  0  0  0  0  0  0  0  0  0  0  0
   37.5920   31.8260   38.7130 H   0  0  0  0  0  0  0  0  0  0  0  0
   36.7080   31.0920   40.1300 H   0  0  0  0  0  0  0  0  0  0  0  0
   38.9080   30.1160   39.8320 H   0  0  0  0  0  0  0  0  0  0  0  0
   38.9350   31.0880   41.7670 C   0  0  0  0  0  0  0  0  0  0  0  0
   39.8350   31.7120   42.0480 H   0  0  0  0  0  0  0  0  0  0  0  0
   38.0810   31.7060   42.1660 H   0  0  0  0  0  0  0  0  0  0  0  0
   37.7030   29.2640   42.7000 C   0  0  0  0  0  0  0  0  0  0  0  0
   38.9710   29.7590   42.3660 C   0  0  0  0  0  0  0  0  0  0  0  0
   40.0760   28.9520   42.6380 C   0  0  0  0  0  0  0  0  0  0  0  0
   41.0090   29.3880   42.3610 H   0  0  0  0  0  0  0  0  0  0  0  0
   39.9090   27.7000   43.2210 C   0  0  0  0  0  3  0  0  0  0  0  0
   38.6450   27.2250   43.5460 C   0  0  0  0  0  3  0  0  0  0  0  0
   37.5340   28.0040   43.2870 C   0  0  0  0  0  0  0  0  0  0  0  0
   36.5210   29.9760   42.4770 O   0  0  0  0  0  0  0  0  0  0  0  0
   36.3700   30.8260   43.0040 H   0  0  0  0  0  0  0  0  0  0  0  0
   36.2700   27.5330   43.6090 O   0  0  0  0  0  0  0  0  0  0  0  0
   35.9470   26.6000   43.5330 H   0  0  0  0  0  0  0  0  0  0  0  0
  1  6  2  0  0  0  0
  1  2  1  0  0  0  0
  2  3  2  0  0  0  0
  3  4  1  0  0  0  0
  3 15  1  0  0  0  0
  5  7  1  0  0  0  0
  5  4  2  0  0  0  0
  6  5  1  0  0  0  0
  7 12  1  0  0  0  0
  8  7  1  0  0  0  0
  8 17  1  0  0  0  0
  8  9  1  0  0  0  0
  9 10  1  0  0  0  0
  9 18  1  0  0  0  0
 11 22  1  0  0  0  0
 11 12  1  0  0  0  0
 11 10  1  0  0  0  0
 12 23  1  6  0  0  0
 12 24  1  0  0  0  0
 13  1  1  0  0  0  0
 14  2  1  0  0  0  0
 16  8  1  0  0  0  0
 19  9  1  0  0  0  0
 20 10  1  0  0  0  0
 21 11  1  0  0  0  0
 24 25  1  0  0  0  0
 24 26  1  0  0  0  0
 24 28  1  0  0  0  0
 27 33  1  0  0  0  0
 28 29  1  0  0  0  0
 28 27  2  0  0  0  0
 29 31  2  0  0  0  0
 30 29  1  0  0  0  0
 31 32  1  0  0  0  0
 33 32  2  0  0  0  0
 33 36  1  0  0  0  0
 34 27  1  0  0  0  0
 34 35  1  0  0  0  0
 37 36  1  0  0  0  0
M  END
>  <minimizedAffinity>
-5.93622684

$$$$

 OpenBabel03242517263D

 37 39  0  0  1  0  0  0  0  0999 V2000
   35.9810   28.5200   37.8480 C   0  0  0  0  0  0  0  0  0  0  0  0
   34.6400   28.9390   38.1200 C   0  0  0  0  0  0  0  0  0  0  0  0
   34.2820   29.1310   39.4670 C   0  0  0  0  0  0  0  0  0  0  0  0
   35.2220   28.9080   40.3980 N   0  0  0  0  0  0  0  0  0  0  0  0
   36.4730   28.5170   40.1390 C   0  0  0  0  0  0  0  0  0  0  0  0
   36.8430   28.3260   38.8590 N   0  0  0  0  0  0  0  0  0  0  0  0
   37.3610   28.3190   41.1860 N   0  0  0  0  0  0  0  0  0  0  0  0
   37.0650   27.3620   42.2140 C   0  0  0  0  0  0  0  0  0  0  0  0
   37.8870   27.4940   43.4560 C   0  0  0  0  0  0  0  0  0  0  0  0
   39.2150   27.9960   43.2800 N   0  0  0  0  0  0  0  0  0  0  0  0
   39.5900   28.1700   41.9130 C   0  0  0  0  0  0  0  0  0  0  0  0
   38.5950   29.0680   41.2600 C   0  0  2  0  0  0  0  0  0  0  0  0
   36.2350   28.3780   36.7970 H   0  0  0  0  0  0  0  0  0  0  0  0
   33.9530   29.0910   37.2920 H   0  0  0  0  0  0  0  0  0  0  0  0
   33.2680   29.4500   39.6870 H   0  0  0  0  0  0  0  0  0  0  0  0
   37.1540   26.3140   41.8080 H   0  0  0  0  0  0  0  0  0  0  0  0
   35.9930   27.4510   42.5020 H   0  0  0  0  0  0  0  0  0  0  0  0
   37.3710   28.1670   44.1860 H   0  0  0  0  0  0  0  0  0  0  0  0
   37.9490   26.4960   43.9390 H   0  0  0  0  0  0  0  0  0  0  0  0
   39.9450   27.5590   43.8810 H   0  0  0  0  0  0  0  0  0  0  0  0
   39.5620   27.1900   41.3790 H   0  0  0  0  0  0  0  0  0  0  0  0
   40.5940   28.6170   41.8580 H   0  0  0  0  0  0  0  0  0  0  0  0
   38.9340   29.2180   40.1950 H   0  0  0  0  0  0  0  0  0  0  0  0
   38.4620   30.3720   41.9660 C   0  0  0  0  0  0  0  0  0  0  0  0
   37.3850   30.4370   42.3040 H   0  0  0  0  0  0  0  0  0  0  0  0
   39.0130   30.2610   42.9420 H   0  0  0  0  0  0  0  0  0  0  0  0
   37.8250   32.2650   40.6520 C   0  0  0  0  0  0  0  0  0  0  0  0
   38.8880   31.5580   41.2310 C   0  0  0  0  0  0  0  0  0  0  0  0
   40.1780   32.0530   41.0420 C   0  0  0  0  0  0  0  0  0  0  0  0
   40.9380   31.4670   41.5060 H   0  0  0  0  0  0  0  0  0  0  0  0
   40.3880   33.2100   40.3000 C   0  0  0  0  0  3  0  0  0  0  0  0
   39.3230   33.8990   39.7320 C   0  0  0  0  0  3  0  0  0  0  0  0
   38.0350   33.4300   39.9050 C   0  0  0  0  0  0  0  0  0  0  0  0
   36.4890   31.8710   40.7710 O   0  0  0  0  0  0  0  0  0  0  0  0
   36.2050   31.0070   40.3280 H   0  0  0  0  0  0  0  0  0  0  0  0
   36.9690   34.1150   39.3410 O   0  0  0  0  0  0  0  0  0  0  0  0
   36.8710   35.0970   39.2590 H   0  0  0  0  0  0  0  0  0  0  0  0
  1  2  2  0  0  0  0
  1  6  1  0  0  0  0
  2  3  1  0  0  0  0
  3 15  1  0  0  0  0
  3  4  2  0  0  0  0
  5  4  1  0  0  0  0
  5  7  1  0  0  0  0
  6  5  2  0  0  0  0
  7 12  1  0  0  0  0
  7  8  1  0  0  0  0
  8 17  1  0  0  0  0
  8  9  1  0  0  0  0
  9 19  1  0  0  0  0
  9 18  1  0  0  0  0
 10  9  1  0  0  0  0
 10 20  1  0  0  0  0
 11 10  1  0  0  0  0
 12 23  1  6  0  0  0
 12 11  1  0  0  0  0
 12 24  1  0  0  0  0
 13  1  1  0  0  0  0
 14  2  1  0  0  0  0
 16  8  1  0  0  0  0
 21 11  1  0  0  0  0
 22 11  1  0  0  0  0
 24 25  1  0  0  0  0
 24 26  1  0  0  0  0
 27 34  1  0  0  0  0
 27 28  1  0  0  0  0
 28 24  1  0  0  0  0
 29 28  2  0  0  0  0
 29 30  1  0  0  0  0
 31 29  1  0  0  0  0
 32 33  1  0  0  0  0
 32 31  2  0  0  0  0
 33 27  2  0  0  0  0
 35 34  1  0  0  0  0
 36 33  1  0  0  0  0
 37 36  1  0  0  0  0
M  END
>  <minimizedAffinity>
-5.85296249

$$$$

 OpenBabel03242517263D

 37 39  0  0  1  0  0  0  0  0999 V2000
   40.1880   25.9880   39.0850 C   0  0  0  0  0  0  0  0  0  0  0  0
   39.3130   25.1560   38.3180 C   0  0  0  0  0  0  0  0  0  0  0  0
   37.9600   25.1080   38.7020 C   0  0  0  0  0  0  0  0  0  0  0  0
   37.5880   25.8460   39.7590 N   0  0  0  0  0  0  0  0  0  0  0  0
   38.4090   26.6220   40.4730 C   0  0  0  0  0  0  0  0  0  0  0  0
   39.7080   26.6870   40.1270 N   0  0  0  0  0  0  0  0  0  0  0  0
   37.9100   27.3420   41.5490 N   0  0  0  0  0  0  0  0  0  0  0  0
   37.2790   26.6630   42.6440 C   0  0  0  0  0  0  0  0  0  0  0  0
   36.4670   27.5370   43.5460 C   0  0  0  0  0  0  0  0  0  0  0  0
   36.9130   28.8890   43.6800 N   0  0  0  0  0  0  0  0  0  0  0  0
   38.1530   29.1550   43.0230 C   0  0  0  0  0  0  0  0  0  0  0  0
   38.0170   28.7840   41.5850 C   0  0  2  0  0  0  0  0  0  0  0  0
   41.2310   26.0090   38.7680 H   0  0  0  0  0  0  0  0  0  0  0  0
   39.7140   24.5960   37.4770 H   0  0  0  0  0  0  0  0  0  0  0  0
   37.2850   24.4820   38.1270 H   0  0  0  0  0  0  0  0  0  0  0  0
   38.0470   26.1020   43.2490 H   0  0  0  0  0  0  0  0  0  0  0  0
   36.6110   25.8660   42.2460 H   0  0  0  0  0  0  0  0  0  0  0  0
   35.4060   27.5700   43.1920 H   0  0  0  0  0  0  0  0  0  0  0  0
   36.4470   27.0720   44.5540 H   0  0  0  0  0  0  0  0  0  0  0  0
   36.8270   29.3000   44.6330 H   0  0  0  0  0  0  0  0  0  0  0  0
   38.9630   28.5240   43.4590 H   0  0  0  0  0  0  0  0  0  0  0  0
   38.3990   30.2250   43.1140 H   0  0  0  0  0  0  0  0  0  0  0  0
   38.9950   29.0370   41.0840 H   0  0  0  0  0  0  0  0  0  0  0  0
   36.8810   29.4840   40.9260 C   0  0  0  0  0  0  0  0  0  0  0  0
   36.0420   28.7290   40.8590 H   0  0  0  0  0  0  0  0  0  0  0  0
   36.4820   30.2200   41.6800 H   0  0  0  0  0  0  0  0  0  0  0  0
   37.0570   31.5140   39.6760 C   0  0  0  0  0  0  0  0  0  0  0  0
   37.1630   30.1170   39.6420 C   0  0  0  0  0  0  0  0  0  0  0  0
   37.5110   29.5210   38.4300 C   0  0  0  0  0  0  0  0  0  0  0  0
   37.5730   28.4570   38.4730 H   0  0  0  0  0  0  0  0  0  0  0  0
   37.7410   30.2990   37.3010 C   0  0  0  0  0  3  0  0  0  0  0  0
   37.6310   31.6830   37.3510 C   0  0  0  0  0  3  0  0  0  0  0  0
   37.2880   32.2990   38.5390 C   0  0  0  0  0  0  0  0  0  0  0  0
   36.7160   32.2290   40.8280 O   0  0  0  0  0  0  0  0  0  0  0  0
   35.7840   32.1100   41.2050 H   0  0  0  0  0  0  0  0  0  0  0  0
   37.1780   33.6810   38.5950 O   0  0  0  0  0  0  0  0  0  0  0  0
   37.7460   34.3410   38.1240 H   0  0  0  0  0  0  0  0  0  0  0  0
  1  6  1  0  0  0  0
  2  3  1  0  0  0  0
  2  1  2  0  0  0  0
  3  4  2  0  0  0  0
  4  5  1  0  0  0  0
  5  7  1  0  0  0  0
  6  5  2  0  0  0  0
  7 12  1  0  0  0  0
  7  8  1  0  0  0  0
  8 16  1  0  0  0  0
  8  9  1  0  0  0  0
  9 10  1  0  0  0  0
  9 19  1  0  0  0  0
 10 20  1  0  0  0  0
 11 22  1  0  0  0  0
 11 21  1  0  0  0  0
 11 10  1  0  0  0  0
 12 23  1  6  0  0  0
 12 11  1  0  0  0  0
 13  1  1  0  0  0  0
 14  2  1  0  0  0  0
 15  3  1  0  0  0  0
 17  8  1  0  0  0  0
 18  9  1  0  0  0  0
 24 12  1  0  0  0  0
 24 26  1  0  0  0  0
 25 24  1  0  0  0  0
 27 34  1  0  0  0  0
 28 27  1  0  0  0  0
 28 24  1  0  0  0  0
 29 30  1  0  0  0  0
 29 28  2  0  0  0  0
 31 32  2  0  0  0  0
 31 29  1  0  0  0  0
 32 33  1  0  0  0  0
 33 36  1  0  0  0  0
 33 27  2  0  0  0  0
 34 35  1  0  0  0  0
 37 36  1  0  0  0  0
M  END
>  <minimizedAffinity>
-5.84480762

$$$$

 OpenBabel03242517263D

 37 39  0  0  1  0  0  0  0  0999 V2000
   39.4900   27.7500   41.6550 C   0  0  0  0  0  0  0  0  0  0  0  0
   38.6340   27.8320   42.7990 C   0  0  0  0  0  0  0  0  0  0  0  0
   38.0940   29.0930   43.1150 C   0  0  0  0  0  0  0  0  0  0  0  0
   38.4190   30.1250   42.3220 N   0  0  0  0  0  0  0  0  0  0  0  0
   39.2190   30.0430   41.2550 C   0  0  0  0  0  0  0  0  0  0  0  0
   39.7490   28.8500   40.9290 N   0  0  0  0  0  0  0  0  0  0  0  0
   39.4840   31.1810   40.5070 N   0  0  0  0  0  0  0  0  0  0  0  0
   40.0930   32.3250   41.1230 C   0  0  0  0  0  0  0  0  0  0  0  0
   39.9940   33.5940   40.3370 C   0  0  0  0  0  0  0  0  0  0  0  0
   39.9690   33.4510   38.9140 N   0  0  0  0  0  0  0  0  0  0  0  0
   40.1780   32.1120   38.4640 C   0  0  0  0  0  0  0  0  0  0  0  0
   39.1530   31.2340   39.1010 C   0  0  2  0  0  0  0  0  0  0  0  0
   39.8970   26.7640   41.4300 H   0  0  0  0  0  0  0  0  0  0  0  0
   38.4330   26.9340   43.3770 H   0  0  0  0  0  0  0  0  0  0  0  0
   37.4410   29.1680   43.9790 H   0  0  0  0  0  0  0  0  0  0  0  0
   41.1740   32.1100   41.3620 H   0  0  0  0  0  0  0  0  0  0  0  0
   39.6250   32.5010   42.1170 H   0  0  0  0  0  0  0  0  0  0  0  0
   39.0710   34.1540   40.6310 H   0  0  0  0  0  0  0  0  0  0  0  0
   40.8530   34.2400   40.6110 H   0  0  0  0  0  0  0  0  0  0  0  0
   40.4910   34.1770   38.3800 H   0  0  0  0  0  0  0  0  0  0  0  0
   41.1820   31.7490   38.7890 H   0  0  0  0  0  0  0  0  0  0  0  0
   40.0820   32.0690   37.3690 H   0  0  0  0  0  0  0  0  0  0  0  0
   39.3170   30.1920   38.7020 H   0  0  0  0  0  0  0  0  0  0  0  0
   37.7650   31.6980   38.8300 C   0  0  0  0  0  0  0  0  0  0  0  0
   37.4500   32.2930   39.7380 H   0  0  0  0  0  0  0  0  0  0  0  0
   37.8460   32.4940   38.0370 H   0  0  0  0  0  0  0  0  0  0  0  0
   35.8770   30.3920   39.4970 C   0  0  0  0  0  0  0  0  0  0  0  0
   36.7930   30.6710   38.4740 C   0  0  0  0  0  0  0  0  0  0  0  0
   36.6700   29.9590   37.2810 C   0  0  0  0  0  0  0  0  0  0  0  0
   37.3980   30.2180   36.5460 H   0  0  0  0  0  0  0  0  0  0  0  0
   35.6690   29.0060   37.1270 C   0  0  0  0  0  3  0  0  0  0  0  0
   34.7700   28.7410   38.1520 C   0  0  0  0  0  3  0  0  0  0  0  0
   34.8690   29.4330   39.3440 C   0  0  0  0  0  0  0  0  0  0  0  0
   35.8950   31.0380   40.7370 O   0  0  0  0  0  0  0  0  0  0  0  0
   36.6850   30.8770   41.3480 H   0  0  0  0  0  0  0  0  0  0  0  0
   33.9720   29.1730   40.3700 O   0  0  0  0  0  0  0  0  0  0  0  0
   33.0080   28.9660   40.2780 H   0  0  0  0  0  0  0  0  0  0  0  0
  1  2  1  0  0  0  0
  2  3  2  0  0  0  0
  2 14  1  0  0  0  0
  3 15  1  0  0  0  0
  4  3  1  0  0  0  0
  5  4  2  0  0  0  0
  6  5  1  0  0  0  0
  6  1  2  0  0  0  0
  7  8  1  0  0  0  0
  7  5  1  0  0  0  0
  8 16  1  0  0  0  0
  8 17  1  0  0  0  0
  9 19  1  0  0  0  0
  9 18  1  0  0  0  0
  9  8  1  0  0  0  0
 10  9  1  0  0  0  0
 11 21  1  0  0  0  0
 11 10  1  0  0  0  0
 11 12  1  0  0  0  0
 12 23  1  6  0  0  0
 12  7  1  0  0  0  0
 13  1  1  0  0  0  0
 20 10  1  0  0  0  0
 22 11  1  0  0  0  0
 24 12  1  0  0  0  0
 24 25  1  0  0  0  0
 26 24  1  0  0  0  0
 27 34  1  0  0  0  0
 28 24  1  0  0  0  0
 28 27  2  0  0  0  0
 29 28  1  0  0  0  0
 30 29  1  0  0  0  0
 31 29  2  0  0  0  0
 31 32  1  0  0  0  0
 32 33  2  0  0  0  0
 33 27  1  0  0  0  0
 33 36  1  0  0  0  0
 34 35  1  0  0  0  0
 37 36  1  0  0  0  0
M  END
>  <minimizedAffinity>
-5.76069069

$$$$

 OpenBabel03242517263D

 37 39  0  0  1  0  0  0  0  0999 V2000
   41.8440   25.9260   40.7820 C   0  0  0  0  0  0  0  0  0  0  0  0
   41.3830   25.0370   39.7600 C   0  0  0  0  0  0  0  0  0  0  0  0
   39.9940   24.9610   39.5460 C   0  0  0  0  0  0  0  0  0  0  0  0
   39.2040   25.7250   40.3150 N   0  0  0  0  0  0  0  0  0  0  0  0
   39.6390   26.5530   41.2690 C   0  0  0  0  0  0  0  0  0  0  0  0
   40.9630   26.6470   41.4940 N   0  0  0  0  0  0  0  0  0  0  0  0
   38.7260   27.2970   42.0020 N   0  0  0  0  0  0  0  0  0  0  0  0
   37.7040   26.6390   42.7650 C   0  0  0  0  0  0  0  0  0  0  0  0
   36.5770   27.5190   43.2020 C   0  0  0  0  0  0  0  0  0  0  0  0
   36.9070   28.8890   43.4460 N   0  0  0  0  0  0  0  0  0  0  0  0
   38.3050   29.1710   43.3550 C   0  0  0  0  0  0  0  0  0  0  0  0
   38.7880   28.7420   42.0110 C   0  0  2  0  0  0  0  0  0  0  0  0
   42.9240   25.9690   40.9290 H   0  0  0  0  0  0  0  0  0  0  0  0
   42.1070   24.4600   39.1910 H   0  0  0  0  0  0  0  0  0  0  0  0
   39.6310   24.2920   38.7720 H   0  0  0  0  0  0  0  0  0  0  0  0
   38.1560   26.1260   43.6610 H   0  0  0  0  0  0  0  0  0  0  0  0
   37.2750   25.8060   42.1630 H   0  0  0  0  0  0  0  0  0  0  0  0
   35.7610   27.5040   42.4370 H   0  0  0  0  0  0  0  0  0  0  0  0
   36.1430   27.0920   44.1310 H   0  0  0  0  0  0  0  0  0  0  0  0
   36.4240   29.3320   44.2550 H   0  0  0  0  0  0  0  0  0  0  0  0
   38.8660   28.5830   44.1190 H   0  0  0  0  0  0  0  0  0  0  0  0
   38.4750   30.2500   43.4890 H   0  0  0  0  0  0  0  0  0  0  0  0
   39.8820   29.0070   41.9530 H   0  0  0  0  0  0  0  0  0  0  0  0
   38.0230   29.3790   40.9050 C   0  0  0  0  0  0  0  0  0  0  0  0
   37.9590   28.6080   40.0810 H   0  0  0  0  0  0  0  0  0  0  0  0
   36.9540   29.4450   41.2560 H   0  0  0  0  0  0  0  0  0  0  0  0
   37.5220   31.6450   40.3280 C   0  0  0  0  0  0  0  0  0  0  0  0
   38.5190   30.6650   40.4270 C   0  0  0  0  0  0  0  0  0  0  0  0
   39.8190   31.0220   40.0670 C   0  0  0  0  0  0  0  0  0  0  0  0
   40.5270   30.2310   40.1630 H   0  0  0  0  0  0  0  0  0  0  0  0
   40.1010   32.3110   39.6270 C   0  0  0  0  0  3  0  0  0  0  0  0
   39.1000   33.2700   39.5350 C   0  0  0  0  0  3  0  0  0  0  0  0
   37.8040   32.9420   39.8850 C   0  0  0  0  0  0  0  0  0  0  0  0
   36.1840   31.4110   40.6590 O   0  0  0  0  0  0  0  0  0  0  0  0
   35.6570   30.7630   40.0880 H   0  0  0  0  0  0  0  0  0  0  0  0
   36.8020   33.8970   39.7960 O   0  0  0  0  0  0  0  0  0  0  0  0
   36.8820   34.8630   40.0000 H   0  0  0  0  0  0  0  0  0  0  0  0
  1 13  1  0  0  0  0
  1  6  1  0  0  0  0
  2  1  2  0  0  0  0
  3  2  1  0  0  0  0
  3  4  2  0  0  0  0
  4  5  1  0  0  0  0
  5  6  2  0  0  0  0
  5  7  1  0  0  0  0
  7 12  1  0  0  0  0
  7  8  1  0  0  0  0
  8  9  1  0  0  0  0
  8 16  1  0  0  0  0
  9 10  1  0  0  0  0
  9 19  1  0  0  0  0
 10 20  1  0  0  0  0
 11 10  1  0  0  0  0
 11 22  1  0  0  0  0
 11 21  1  0  0  0  0
 12 23  1  6  0  0  0
 12 11  1  0  0  0  0
 14  2  1  0  0  0  0
 15  3  1  0  0  0  0
 17  8  1  0  0  0  0
 18  9  1  0  0  0  0
 24 26  1  0  0  0  0
 24 12  1  0  0  0  0
 25 24  1  0  0  0  0
 27 28  1  0  0  0  0
 27 34  1  0  0  0  0
 28 24  1  0  0  0  0
 29 30  1  0  0  0  0
 29 28  2  0  0  0  0
 31 29  1  0  0  0  0
 32 31  2  0  0  0  0
 32 33  1  0  0  0  0
 33 27  2  0  0  0  0
 35 34  1  0  0  0  0
 36 33  1  0  0  0  0
 36 37  1  0  0  0  0
M  END
>  <minimizedAffinity>
-5.68087339

$$$$

 OpenBabel03242517263D

 37 39  0  0  1  0  0  0  0  0999 V2000
   37.0550   30.3440   36.8700 C   0  0  0  0  0  0  0  0  0  0  0  0
   37.6840   29.0720   36.6830 C   0  0  0  0  0  0  0  0  0  0  0  0
   38.8970   28.8430   37.3590 C   0  0  0  0  0  0  0  0  0  0  0  0
   39.3750   29.8320   38.1290 N   0  0  0  0  0  0  0  0  0  0  0  0
   38.7850   31.0180   38.3000 C   0  0  0  0  0  0  0  0  0  0  0  0
   37.6230   31.2640   37.6660 N   0  0  0  0  0  0  0  0  0  0  0  0
   39.3740   31.9670   39.1230 N   0  0  0  0  0  0  0  0  0  0  0  0
   40.6980   32.4450   38.8430 C   0  0  0  0  0  0  0  0  0  0  0  0
   41.3620   33.1650   39.9730 C   0  0  0  0  0  0  0  0  0  0  0  0
   40.4950   33.8790   40.8590 N   0  0  0  0  0  0  0  0  0  0  0  0
   39.1290   33.8960   40.4410 C   0  0  0  0  0  0  0  0  0  0  0  0
   38.6690   32.4880   40.2730 C   0  0  2  0  0  0  0  0  0  0  0  0
   36.1170   30.4980   36.3360 H   0  0  0  0  0  0  0  0  0  0  0  0
   37.2130   28.3360   36.0360 H   0  0  0  0  0  0  0  0  0  0  0  0
   39.3830   27.8820   37.2270 H   0  0  0  0  0  0  0  0  0  0  0  0
   40.6900   33.1010   37.9270 H   0  0  0  0  0  0  0  0  0  0  0  0
   41.3460   31.5860   38.5560 H   0  0  0  0  0  0  0  0  0  0  0  0
   41.9500   32.4430   40.5930 H   0  0  0  0  0  0  0  0  0  0  0  0
   42.0950   33.8810   39.5460 H   0  0  0  0  0  0  0  0  0  0  0  0
   40.8580   34.7920   41.2050 H   0  0  0  0  0  0  0  0  0  0  0  0
   39.0360   34.4030   39.4510 H   0  0  0  0  0  0  0  0  0  0  0  0
   38.5160   34.4050   41.2000 H   0  0  0  0  0  0  0  0  0  0  0  0
   37.5810   32.5290   39.9780 H   0  0  0  0  0  0  0  0  0  0  0  0
   38.8580   31.6800   41.5080 C   0  0  0  0  0  0  0  0  0  0  0  0
   39.9740   31.6120   41.6710 H   0  0  0  0  0  0  0  0  0  0  0  0
   38.5290   32.3310   42.3660 H   0  0  0  0  0  0  0  0  0  0  0  0
   36.8590   30.4130   41.1700 C   0  0  0  0  0  0  0  0  0  0  0  0
   38.2110   30.3720   41.5360 C   0  0  0  0  0  0  0  0  0  0  0  0
   38.7570   29.1340   41.8730 C   0  0  0  0  0  0  0  0  0  0  0  0
   39.7880   29.1740   42.1420 H   0  0  0  0  0  0  0  0  0  0  0  0
   37.9730   27.9850   41.8430 C   0  0  0  0  0  3  0  0  0  0  0  0
   36.6340   28.0420   41.4780 C   0  0  0  0  0  3  0  0  0  0  0  0
   36.0690   29.2570   41.1400 C   0  0  0  0  0  0  0  0  0  0  0  0
   36.1980   31.5910   40.8120 O   0  0  0  0  0  0  0  0  0  0  0  0
   36.0660   32.2990   41.5220 H   0  0  0  0  0  0  0  0  0  0  0  0
   34.7320   29.3200   40.7740 O   0  0  0  0  0  0  0  0  0  0  0  0
   34.2300   28.6510   40.2440 H   0  0  0  0  0  0  0  0  0  0  0  0
  1  6  1  0  0  0  0
  2  1  2  0  0  0  0
  2  3  1  0  0  0  0
  3  4  2  0  0  0  0
  4  5  1  0  0  0  0
  5  7  1  0  0  0  0
  6  5  2  0  0  0  0
  7 12  1  0  0  0  0
  8  7  1  0  0  0  0
  8  9  1  0  0  0  0
  9 18  1  0  0  0  0
  9 10  1  0  0  0  0
 10 20  1  0  0  0  0
 11 10  1  0  0  0  0
 11 22  1  0  0  0  0
 12 23  1  6  0  0  0
 12 11  1  0  0  0  0
 12 24  1  0  0  0  0
 13  1  1  0  0  0  0
 14  2  1  0  0  0  0
 15  3  1  0  0  0  0
 16  8  1  0  0  0  0
 17  8  1  0  0  0  0
 19  9  1  0  0  0  0
 21 11  1  0  0  0  0
 24 28  1  0  0  0  0
 24 25  1  0  0  0  0
 24 26  1  0  0  0  0
 27 28  1  0  0  0  0
 28 29  2  0  0  0  0
 29 30  1  0  0  0  0
 31 29  1  0  0  0  0
 32 31  2  0  0  0  0
 33 27  2  0  0  0  0
 33 32  1  0  0  0  0
 34 27  1  0  0  0  0
 34 35  1  0  0  0  0
 36 33  1  0  0  0  0
 37 36  1  0  0  0  0
M  END
>  <minimizedAffinity>
-5.63425303

$$$$

 OpenBabel03242517263D

 37 39  0  0  1  0  0  0  0  0999 V2000
   40.5280   27.2350   38.5210 C   0  0  0  0  0  0  0  0  0  0  0  0
   41.6700   27.6040   39.3010 C   0  0  0  0  0  0  0  0  0  0  0  0
   41.4570   28.4640   40.3950 C   0  0  0  0  0  0  0  0  0  0  0  0
   40.2010   28.8740   40.6270 N   0  0  0  0  0  0  0  0  0  0  0  0
   39.1380   28.5270   39.8950 C   0  0  0  0  0  0  0  0  0  0  0  0
   39.3130   27.7060   38.8440 N   0  0  0  0  0  0  0  0  0  0  0  0
   37.8840   29.0150   40.2320 N   0  0  0  0  0  0  0  0  0  0  0  0
   37.6440   30.4290   40.2690 C   0  0  0  0  0  0  0  0  0  0  0  0
   36.3980   30.8400   40.9870 C   0  0  0  0  0  0  0  0  0  0  0  0
   35.3110   29.9120   40.9420 N   0  0  0  0  0  0  0  0  0  0  0  0
   35.5500   28.7840   40.0980 C   0  0  0  0  0  0  0  0  0  0  0  0
   36.8010   28.1110   40.5500 C   0  0  2  0  0  0  0  0  0  0  0  0
   40.7180   26.5690   37.6790 H   0  0  0  0  0  0  0  0  0  0  0  0
   42.6480   27.2160   39.0280 H   0  0  0  0  0  0  0  0  0  0  0  0
   42.3140   28.7500   40.9960 H   0  0  0  0  0  0  0  0  0  0  0  0
   37.6360   30.8510   39.2230 H   0  0  0  0  0  0  0  0  0  0  0  0
   38.5050   30.9360   40.7600 H   0  0  0  0  0  0  0  0  0  0  0  0
   36.6250   31.0340   42.0650 H   0  0  0  0  0  0  0  0  0  0  0  0
   36.0540   31.8060   40.5610 H   0  0  0  0  0  0  0  0  0  0  0  0
   34.3630   30.3320   40.8510 H   0  0  0  0  0  0  0  0  0  0  0  0
   35.7080   29.1190   39.0450 H   0  0  0  0  0  0  0  0  0  0  0  0
   34.7020   28.0860   40.1630 H   0  0  0  0  0  0  0  0  0  0  0  0
   36.9460   27.2070   39.8920 H   0  0  0  0  0  0  0  0  0  0  0  0
   36.7480   27.7240   41.9860 C   0  0  0  0  0  0  0  0  0  0  0  0
   36.6810   28.6900   42.5700 H   0  0  0  0  0  0  0  0  0  0  0  0
   35.7300   27.2710   42.1540 H   0  0  0  0  0  0  0  0  0  0  0  0
   37.7360   25.5480   41.9700 C   0  0  0  0  0  0  0  0  0  0  0  0
   37.8170   26.8560   42.4670 C   0  0  0  0  0  0  0  0  0  0  0  0
   38.8690   27.1600   43.3310 C   0  0  0  0  0  0  0  0  0  0  0  0
   38.8700   28.1700   43.6720 H   0  0  0  0  0  0  0  0  0  0  0  0
   39.7990   26.1870   43.6800 C   0  0  0  0  0  3  0  0  0  0  0  0
   39.7050   24.8950   43.1790 C   0  0  0  0  0  3  0  0  0  0  0  0
   38.6730   24.5670   42.3210 C   0  0  0  0  0  0  0  0  0  0  0  0
   36.7310   25.1200   41.0980 O   0  0  0  0  0  0  0  0  0  0  0  0
   35.7810   25.0880   41.4440 H   0  0  0  0  0  0  0  0  0  0  0  0
   38.5750   23.2780   41.8180 O   0  0  0  0  0  0  0  0  0  0  0  0
   39.3230   22.6880   41.5490 H   0  0  0  0  0  0  0  0  0  0  0  0
  1  6  2  0  0  0  0
  1  2  1  0  0  0  0
  2  3  2  0  0  0  0
  3  4  1  0  0  0  0
  3 15  1  0  0  0  0
  5  7  1  0  0  0  0
  5  4  2  0  0  0  0
  6  5  1  0  0  0  0
  7  8  1  0  0  0  0
  7 12  1  0  0  0  0
  8 17  1  0  0  0  0
  8  9  1  0  0  0  0
  9 18  1  0  0  0  0
 10  9  1  0  0  0  0
 11 22  1  0  0  0  0
 11 12  1  0  0  0  0
 11 10  1  0  0  0  0
 12 23  1  6  0  0  0
 12 24  1  0  0  0  0
 13  1  1  0  0  0  0
 14  2  1  0  0  0  0
 16  8  1  0  0  0  0
 19  9  1  0  0  0  0
 20 10  1  0  0  0  0
 21 11  1  0  0  0  0
 24 26  1  0  0  0  0
 24 28  1  0  0  0  0
 24 25  1  0  0  0  0
 27 33  2  0  0  0  0
 27 28  1  0  0  0  0
 28 29  2  0  0  0  0
 29 30  1  0  0  0  0
 29 31  1  0  0  0  0
 32 31  2  0  0  0  0
 33 32  1  0  0  0  0
 34 35  1  0  0  0  0
 34 27  1  0  0  0  0
 36 33  1  0  0  0  0
 37 36  1  0  0  0  0
M  END
>  <minimizedAffinity>
-5.58841705

$$$$

 OpenBabel03242517263D

 37 39  0  0  1  0  0  0  0  0999 V2000
   39.2450   28.4400   37.3150 C   0  0  0  0  0  0  0  0  0  0  0  0
   40.5980   27.9730   37.2790 C   0  0  0  0  0  0  0  0  0  0  0  0
   41.5530   28.6950   38.0180 C   0  0  0  0  0  0  0  0  0  0  0  0
   41.1280   29.7680   38.7030 N   0  0  0  0  0  0  0  0  0  0  0  0
   39.8640   30.2000   38.7330 C   0  0  0  0  0  0  0  0  0  0  0  0
   38.9290   29.5290   38.0360 N   0  0  0  0  0  0  0  0  0  0  0  0
   39.5400   31.3250   39.4790 N   0  0  0  0  0  0  0  0  0  0  0  0
   40.1720   32.5820   39.2010 C   0  0  0  0  0  0  0  0  0  0  0  0
   40.0320   33.6110   40.2780 C   0  0  0  0  0  0  0  0  0  0  0  0
   38.8330   33.5470   41.0560 N   0  0  0  0  0  0  0  0  0  0  0  0
   37.8930   32.5790   40.5880 C   0  0  0  0  0  0  0  0  0  0  0  0
   38.5650   31.2490   40.5440 C   0  0  2  0  0  0  0  0  0  0  0  0
   38.5240   27.8650   36.7350 H   0  0  0  0  0  0  0  0  0  0  0  0
   40.8400   27.0910   36.6910 H   0  0  0  0  0  0  0  0  0  0  0  0
   42.5820   28.3500   38.0010 H   0  0  0  0  0  0  0  0  0  0  0  0
   39.7960   33.0010   38.2250 H   0  0  0  0  0  0  0  0  0  0  0  0
   41.2590   32.4170   39.0260 H   0  0  0  0  0  0  0  0  0  0  0  0
   40.8930   33.5410   40.9880 H   0  0  0  0  0  0  0  0  0  0  0  0
   40.0930   34.6160   39.8090 H   0  0  0  0  0  0  0  0  0  0  0  0
   38.4190   34.4650   41.3220 H   0  0  0  0  0  0  0  0  0  0  0  0
   37.5680   32.8280   39.5500 H   0  0  0  0  0  0  0  0  0  0  0  0
   37.0290   32.5420   41.2700 H   0  0  0  0  0  0  0  0  0  0  0  0
   37.7930   30.4990   40.2070 H   0  0  0  0  0  0  0  0  0  0  0  0
   39.1460   30.8650   41.8590 C   0  0  0  0  0  0  0  0  0  0  0  0
   40.2210   31.2130   41.8430 H   0  0  0  0  0  0  0  0  0  0  0  0
   38.6830   31.5520   42.6220 H   0  0  0  0  0  0  0  0  0  0  0  0
   37.7270   29.1090   42.6480 C   0  0  0  0  0  0  0  0  0  0  0  0
   39.0210   29.4630   42.2420 C   0  0  0  0  0  0  0  0  0  0  0  0
   40.0000   28.4690   42.2530 C   0  0  0  0  0  0  0  0  0  0  0  0
   40.9610   28.8040   41.9350 H   0  0  0  0  0  0  0  0  0  0  0  0
   39.6880   27.1750   42.6570 C   0  0  0  0  0  3  0  0  0  0  0  0
   38.4000   26.8420   43.0570 C   0  0  0  0  0  3  0  0  0  0  0  0
   37.4120   27.8070   43.0550 C   0  0  0  0  0  0  0  0  0  0  0  0
   36.6610   30.0130   42.6800 O   0  0  0  0  0  0  0  0  0  0  0  0
   36.7020   30.7760   43.3430 H   0  0  0  0  0  0  0  0  0  0  0  0
   36.1230   27.4790   43.4520 O   0  0  0  0  0  0  0  0  0  0  0  0
   35.6460   26.6290   43.2750 H   0  0  0  0  0  0  0  0  0  0  0  0
  1  6  1  0  0  0  0
  2  1  2  0  0  0  0
  2  3  1  0  0  0  0
  3  4  2  0  0  0  0
  4  5  1  0  0  0  0
  5  7  1  0  0  0  0
  6  5  2  0  0  0  0
  7 12  1  0  0  0  0
  8  7  1  0  0  0  0
  8  9  1  0  0  0  0
  9 18  1  0  0  0  0
  9 10  1  0  0  0  0
 10 20  1  0  0  0  0
 11 10  1  0  0  0  0
 11 22  1  0  0  0  0
 12 23  1  6  0  0  0
 12 11  1  0  0  0  0
 12 24  1  0  0  0  0
 13  1  1  0  0  0  0
 14  2  1  0  0  0  0
 15  3  1  0  0  0  0
 16  8  1  0  0  0  0
 17  8  1  0  0  0  0
 19  9  1  0  0  0  0
 21 11  1  0  0  0  0
 24 28  1  0  0  0  0
 24 26  1  0  0  0  0
 25 24  1  0  0  0  0
 27 34  1  0  0  0  0
 27 33  1  0  0  0  0
 28 29  1  0  0  0  0
 28 27  2  0  0  0  0
 29 31  2  0  0  0  0
 30 29  1  0  0  0  0
 31 32  1  0  0  0  0
 33 32  2  0  0  0  0
 33 36  1  0  0  0  0
 34 35  1  0  0  0  0
 37 36  1  0  0  0  0
M  END
>  <minimizedAffinity>
-5.52752733

$$$$
