
 OpenBabel03252509273D

 32 34  0  0  1  0  0  0  0  0999 V2000
   46.4820   35.0600   42.0430 C   0  0  1  0  0  0  0  0  0  0  0  0
   48.0190   35.2950   41.9630 C   0  0  0  0  0  0  0  0  0  0  0  0
   47.2390   34.1200   41.3190 C   0  0  2  0  0  0  0  0  0  0  0  0
   45.8980   35.8650   41.5670 H   0  0  0  0  0  0  0  0  0  0  0  0
   48.6270   35.1030   42.8470 H   0  0  0  0  0  0  0  0  0  0  0  0
   48.3210   36.1090   41.2940 H   0  0  0  0  0  0  0  0  0  0  0  0
   47.5790   33.1330   41.7560 H   0  0  0  0  0  0  0  0  0  0  0  0
   44.7690   35.1320   45.3780 C   0  0  0  0  0  0  0  0  0  0  0  0
   45.1280   35.5380   44.0610 C   0  0  0  0  0  0  0  0  0  0  0  0
   46.0640   34.7620   43.4630 C   0  0  0  0  0  0  0  0  0  0  0  0
   46.6210   33.6650   44.0940 N   0  0  0  0  0  0  0  0  0  0  0  0
   46.2430   33.3230   45.3460 C   0  0  0  0  0  0  0  0  0  0  0  0
   45.3110   34.0620   45.9890 N   0  0  0  0  0  0  0  0  0  0  0  0
   44.0270   35.7210   45.8880 H   0  0  0  0  0  0  0  0  0  0  0  0
   46.7680   32.4450   45.6990 H   0  0  0  0  0  0  0  0  0  0  0  0
   44.5770   36.6700   43.4310 N   0  0  0  0  0  0  0  0  0  0  0  0
   43.5520   36.8580   43.5730 H   0  0  0  0  0  0  0  0  0  0  0  0
   45.2150   37.2790   42.8470 H   0  0  0  0  0  0  0  0  0  0  0  0
   47.1510   34.0450   39.8170 C   0  0  0  0  0  0  0  0  0  0  0  0
   46.1220   33.6850   39.5920 H   0  0  0  0  0  0  0  0  0  0  0  0
   47.1960   35.0860   39.4210 H   0  0  0  0  0  0  0  0  0  0  0  0
   48.1720   33.5030   37.7790 C   0  0  0  0  0  0  0  0  0  0  0  0
   48.1820   33.2480   39.1570 C   0  0  0  0  0  0  0  0  0  0  0  0
   49.1160   32.3420   39.6110 C   0  0  0  0  0  0  0  0  0  0  0  0
   49.0610   32.2020   40.6690 H   0  0  0  0  0  0  0  0  0  0  0  0
   50.0010   31.7110   38.7720 C   0  0  0  0  0  3  0  0  0  0  0  0
   49.9820   31.9730   37.4040 C   0  0  0  0  0  3  0  0  0  0  0  0
   49.0610   32.8690   36.9280 C   0  0  0  0  0  0  0  0  0  0  0  0
   47.3230   34.3760   37.0900 O   0  0  0  0  0  0  0  0  0  0  0  0
   47.4490   35.3650   37.2910 H   0  0  0  0  0  0  0  0  0  0  0  0
   49.1240   33.0600   35.5550 O   0  0  0  0  0  0  0  0  0  0  0  0
   48.6200   33.8840   35.1990 H   0  0  0  0  0  0  0  0  0  0  0  0
  1  4  1  6  0  0  0
  1 10  1  0  0  0  0
  2  1  1  0  0  0  0
  2  5  1  0  0  0  0
  3  7  1  1  0  0  0
  3  2  1  0  0  0  0
  3  1  1  0  0  0  0
  6  2  1  0  0  0  0
  8 14  1  0  0  0  0
  8 13  1  0  0  0  0
  9  8  2  0  0  0  0
 10  9  1  0  0  0  0
 10 11  2  0  0  0  0
 11 12  1  0  0  0  0
 12 15  1  0  0  0  0
 12 13  2  0  0  0  0
 16 17  1  0  0  0  0
 16  9  1  0  0  0  0
 18 16  1  0  0  0  0
 19  3  1  0  0  0  0
 20 19  1  0  0  0  0
 21 19  1  0  0  0  0
 22 23  1  0  0  0  0
 23 24  2  0  0  0  0
 23 19  1  0  0  0  0
 24 25  1  0  0  0  0
 26 24  1  0  0  0  0
 27 26  2  0  0  0  0
 28 27  1  0  0  0  0
 28 22  2  0  0  0  0
 29 30  1  0  0  0  0
 29 22  1  0  0  0  0
 31 28  1  0  0  0  0
 32 31  1  0  0  0  0
M  END
>  <minimizedAffinity>
-5.91371012

>  <minimizedRMSD>
2.121629

$$$$
