
 OpenBabel03242522513D

 28 29  0  0  0  0  0  0  0  0999 V2000
   45.2280   30.6490   47.6900 O   0  0  0  0  0  0  0  0  0  0  0  0
   45.7840   31.9100   48.4050 P   0  0  2  0  0  0  0  0  0  0  0  0
   45.1880   31.8300   49.9760 O   0  0  0  0  0  0  0  0  0  0  0  0
   45.9260   31.8810   50.6340 H   0  0  0  0  0  0  0  0  0  0  0  0
   45.1540   33.2580   47.6070 O   0  0  0  0  0  0  0  0  0  0  0  0
   47.0250   33.1400   44.4920 C   0  0  0  0  0  0  0  0  0  0  0  0
   46.5880   32.8430   45.8060 C   0  0  0  0  0  0  0  0  0  0  0  0
   45.5500   33.5800   46.3250 C   0  0  0  0  0  0  0  0  0  0  0  0
   45.0050   34.5450   45.5580 N   0  0  0  0  0  0  0  0  0  0  0  0
   45.4130   34.8290   44.3180 C   0  0  0  0  0  0  0  0  0  0  0  0
   46.4250   34.1280   43.7810 N   0  0  0  0  0  0  0  0  0  0  0  0
   47.8350   32.6160   43.9980 H   0  0  0  0  0  0  0  0  0  0  0  0
   47.1490   32.0510   46.2300 H   0  0  0  0  0  0  0  0  0  0  0  0
   44.8920   35.6320   43.7980 H   0  0  0  0  0  0  0  0  0  0  0  0
   47.4380   31.8790   48.3610 O   0  0  0  0  0  0  0  0  0  0  0  0
   48.3500   30.9210   48.6070 C   0  0  0  0  0  0  0  0  0  0  0  0
   48.7930   30.9670   49.8500 O   0  0  0  0  0  0  0  0  0  0  0  0
   50.4660   29.7240   48.1640 C   0  0  0  0  0  0  0  0  0  0  0  0
   49.1260   29.7620   48.0430 C   0  0  0  0  0  0  0  0  0  0  0  0
   48.5090   28.6990   47.3630 C   0  0  0  0  0  0  0  0  0  0  0  0
   47.4100   28.8180   47.3150 H   0  0  0  0  0  0  0  0  0  0  0  0
   49.1150   27.6100   46.7990 C   0  0  0  0  0  3  0  0  0  0  0  0
   50.4590   27.6350   46.9570 C   0  0  0  0  0  3  0  0  0  0  0  0
   51.1390   28.6270   47.6020 C   0  0  0  0  0  0  0  0  0  0  0  0
   51.2860   30.6500   48.7870 O   0  0  0  0  0  0  0  0  0  0  0  0
   52.0410   30.4160   49.4190 H   0  0  0  0  0  0  0  0  0  0  0  0
   52.5200   28.5570   47.7090 O   0  0  0  0  0  0  0  0  0  0  0  0
   53.0510   29.4080   47.5560 H   0  0  0  0  0  0  0  0  0  0  0  0
  2  1  2  6  0  0  0
  2  3  1  0  0  0  0
  3  4  1  0  0  0  0
  5  2  1  0  0  0  0
  6  7  1  0  0  0  0
  7 13  1  0  0  0  0
  7  8  2  0  0  0  0
  8  5  1  0  0  0  0
  9  8  1  0  0  0  0
 10  9  2  0  0  0  0
 11 10  1  0  0  0  0
 11  6  2  0  0  0  0
 12  6  1  0  0  0  0
 14 10  1  0  0  0  0
 15  2  1  0  0  0  0
 15 16  1  0  0  0  0
 16 17  2  0  0  0  0
 18 25  1  0  0  0  0
 19 18  1  0  0  0  0
 19 16  1  0  0  0  0
 20 19  2  0  0  0  0
 21 20  1  0  0  0  0
 22 23  2  0  0  0  0
 22 20  1  0  0  0  0
 23 24  1  0  0  0  0
 24 27  1  0  0  0  0
 24 18  2  0  0  0  0
 25 26  1  0  0  0  0
 28 27  1  0  0  0  0
M  END
>  <minimizedAffinity>
-4.59004259

>  <minimizedRMSD>
0.751128495

$$$$
