
 OpenBabel03242513453D

 48 51  0  0  0  0  0  0  0  0999 V2000
   40.8310   31.8120   40.5920 C   0  0  0  0  0  0  0  0  0  0  0  0
   40.8670   31.0510   41.7210 C   0  0  0  0  0  0  0  0  0  0  0  0
   41.8380   31.3260   42.6560 C   0  0  0  0  0  0  0  0  0  0  0  0
   42.7680   32.3290   42.5050 C   0  0  0  0  0  0  0  0  0  0  0  0
   43.8090   32.8370   43.2030 N   0  0  0  0  0  0  0  0  0  0  0  0
   44.3730   33.8680   42.5110 C   0  0  0  0  0  0  0  0  0  0  0  0
   43.6650   33.9880   41.3750 N   0  0  0  0  0  0  0  0  0  0  0  0
   42.6980   33.0670   41.3610 C   0  0  0  0  0  0  0  0  0  0  0  0
   41.7580   32.8460   40.3920 C   0  0  0  0  0  0  0  0  0  0  0  0
   40.0980   31.6700   39.7950 H   0  0  0  0  0  0  0  0  0  0  0  0
   41.9020   30.7400   43.5760 H   0  0  0  0  0  0  0  0  0  0  0  0
   44.0930   32.4570   44.1300 H   0  0  0  0  0  0  0  0  0  0  0  0
   45.2320   34.4570   42.8470 H   0  0  0  0  0  0  0  0  0  0  0  0
   38.9740   27.9570   41.2670 C   0  0  0  0  0  0  0  0  0  0  0  0
   38.0690   27.9840   42.3450 C   0  0  0  0  0  0  0  0  0  0  0  0
   38.1490   29.0900   43.2040 C   0  0  0  0  0  0  0  0  0  0  0  0
   39.0670   30.0630   42.9710 N   0  0  0  0  0  0  0  0  0  0  0  0
   39.9010   29.9750   41.9230 C   0  0  0  0  0  0  0  0  0  0  0  0
   39.8730   28.9460   41.0710 N   0  0  0  0  0  0  0  0  0  0  0  0
   38.9470   27.1190   40.5750 H   0  0  0  0  0  0  0  0  0  0  0  0
   37.4500   29.1160   44.0400 H   0  0  0  0  0  0  0  0  0  0  0  0
   37.1110   26.8660   42.5000 C   0  0  0  0  0  0  0  0  0  0  0  0
   37.8970   25.7810   42.8820 F   0  0  0  0  0  0  0  0  0  0  0  0
   36.5650   26.5940   41.2770 F   0  0  0  0  0  0  0  0  0  0  0  0
   36.1730   27.2080   43.4520 F   0  0  0  0  0  0  0  0  0  0  0  0
   41.7250   33.6260   39.2410 O   0  0  0  0  0  0  0  0  0  0  0  0
   43.0070   31.9760   37.7000 O   0  0  0  0  0  0  0  0  0  0  0  0
   41.9610   33.0730   37.6720 P   0  0  2  0  0  0  0  0  0  0  0  0
   42.6410   34.3650   36.7880 O   0  0  0  0  0  0  0  0  0  0  0  0
   43.5650   34.5240   37.0990 H   0  0  0  0  0  0  0  0  0  0  0  0
   40.5730   32.5420   36.9160 O   0  0  0  0  0  0  0  0  0  0  0  0
   39.8520   31.6000   37.6010 C   0  0  0  0  0  0  0  0  0  0  0  0
   40.3410   31.1010   38.4300 H   0  0  0  0  0  0  0  0  0  0  0  0
   39.6190   30.7840   36.8560 H   0  0  0  0  0  0  0  0  0  0  0  0
   38.5200   32.2690   37.9930 C   0  0  0  0  0  0  0  0  0  0  0  0
   38.0920   32.7100   37.0580 H   0  0  0  0  0  0  0  0  0  0  0  0
   38.6420   33.0460   38.7420 H   0  0  0  0  0  0  0  0  0  0  0  0
   37.0490   31.5720   39.7620 C   0  0  0  0  0  0  0  0  0  0  0  0
   37.6210   31.2120   38.5390 C   0  0  0  0  0  0  0  0  0  0  0  0
   37.3520   29.9950   37.9500 C   0  0  0  0  0  0  0  0  0  0  0  0
   37.8400   29.7930   36.9940 H   0  0  0  0  0  0  0  0  0  0  0  0
   36.4890   29.0990   38.5890 C   0  0  0  0  0  3  0  0  0  0  0  0
   35.9220   29.4590   39.8060 C   0  0  0  0  0  3  0  0  0  0  0  0
   36.1890   30.6750   40.3970 C   0  0  0  0  0  0  0  0  0  0  0  0
   37.2220   32.7460   40.4690 O   0  0  0  0  0  0  0  0  0  0  0  0
   37.7520   33.5420   40.2130 H   0  0  0  0  0  0  0  0  0  0  0  0
   35.5680   30.9520   41.6310 O   0  0  0  0  0  0  0  0  0  0  0  0
   35.7620   31.8350   42.1120 H   0  0  0  0  0  0  0  0  0  0  0  0
  1  2  1  0  0  0  0
  2 18  1  0  0  0  0
  2  3  2  0  0  0  0
  3 11  1  0  0  0  0
  4  3  1  0  0  0  0
  4  5  1  0  0  0  0
  5 12  1  0  0  0  0
  6 13  1  0  0  0  0
  6  5  1  0  0  0  0
  7  6  2  0  0  0  0
  8  7  1  0  0  0  0
  8  4  2  0  0  0  0
  9  1  2  0  0  0  0
  9  8  1  0  0  0  0
 10  1  1  0  0  0  0
 14 15  1  0  0  0  0
 15 22  1  0  0  0  0
 15 16  2  0  0  0  0
 16 21  1  0  0  0  0
 17 16  1  0  0  0  0
 18 17  2  0  0  0  0
 19 14  2  0  0  0  0
 19 18  1  0  0  0  0
 20 14  1  0  0  0  0
 22 23  1  0  0  0  0
 22 25  1  0  0  0  0
 24 22  1  0  0  0  0
 26  9  1  0  0  0  0
 28 27  2  1  0  0  0
 28 26  1  0  0  0  0
 29 30  1  0  0  0  0
 29 28  1  0  0  0  0
 31 32  1  0  0  0  0
 31 28  1  0  0  0  0
 32 35  1  0  0  0  0
 32 33  1  0  0  0  0
 34 32  1  0  0  0  0
 35 39  1  0  0  0  0
 35 37  1  0  0  0  0
 36 35  1  0  0  0  0
 38 44  1  0  0  0  0
 38 45  1  0  0  0  0
 39 38  2  0  0  0  0
 40 39  1  0  0  0  0
 40 42  2  0  0  0  0
 41 40  1  0  0  0  0
 42 43  1  0  0  0  0
 43 44  2  0  0  0  0
 44 47  1  0  0  0  0
 46 45  1  0  0  0  0
 47 48  1  0  0  0  0
M  END
>  <minimizedAffinity>
-7.61806488

$$$$

 OpenBabel03242513453D

 48 51  0  0  0  0  0  0  0  0999 V2000
   39.6260   28.6660   40.6300 C   0  0  0  0  0  0  0  0  0  0  0  0
   39.5810   29.9540   41.0720 C   0  0  0  0  0  0  0  0  0  0  0  0
   38.8460   30.2240   42.2030 C   0  0  0  0  0  0  0  0  0  0  0  0
   38.1590   29.2610   42.9050 C   0  0  0  0  0  0  0  0  0  0  0  0
   37.3760   29.1970   44.0060 N   0  0  0  0  0  0  0  0  0  0  0  0
   36.9680   27.9120   44.2120 C   0  0  0  0  0  0  0  0  0  0  0  0
   37.5110   27.1840   43.2210 N   0  0  0  0  0  0  0  0  0  0  0  0
   38.2290   27.9840   42.4300 C   0  0  0  0  0  0  0  0  0  0  0  0
   38.9410   27.6470   41.3110 C   0  0  0  0  0  0  0  0  0  0  0  0
   40.1820   28.3540   39.7440 H   0  0  0  0  0  0  0  0  0  0  0  0
   38.7840   31.2440   42.5910 H   0  0  0  0  0  0  0  0  0  0  0  0
   37.1500   30.0390   44.5750 H   0  0  0  0  0  0  0  0  0  0  0  0
   36.3260   27.5780   45.0330 H   0  0  0  0  0  0  0  0  0  0  0  0
   41.5890   31.7050   38.5690 C   0  0  0  0  0  0  0  0  0  0  0  0
   41.6150   33.0250   39.0580 C   0  0  0  0  0  0  0  0  0  0  0  0
   40.9250   33.2640   40.2560 C   0  0  0  0  0  0  0  0  0  0  0  0
   40.2780   32.2460   40.8790 N   0  0  0  0  0  0  0  0  0  0  0  0
   40.2930   31.0090   40.3580 C   0  0  0  0  0  0  0  0  0  0  0  0
   40.9330   30.7200   39.2210 N   0  0  0  0  0  0  0  0  0  0  0  0
   42.1120   31.4720   37.6450 H   0  0  0  0  0  0  0  0  0  0  0  0
   40.9420   34.2840   40.6390 H   0  0  0  0  0  0  0  0  0  0  0  0
   42.3540   34.0540   38.2920 C   0  0  0  0  0  0  0  0  0  0  0  0
   42.2890   33.6210   36.9700 F   0  0  0  0  0  0  0  0  0  0  0  0
   43.6620   34.0310   38.6900 F   0  0  0  0  0  0  0  0  0  0  0  0
   41.7480   35.2780   38.4860 F   0  0  0  0  0  0  0  0  0  0  0  0
   38.9840   26.3320   40.8640 O   0  0  0  0  0  0  0  0  0  0  0  0
   37.8050   24.1430   40.1160 O   0  0  0  0  0  0  0  0  0  0  0  0
   37.9000   25.6210   39.7950 P   0  0  2  0  0  0  0  0  0  0  0  0
   38.5930   25.7340   38.2390 O   0  0  0  0  0  0  0  0  0  0  0  0
   39.3720   25.1300   38.1830 H   0  0  0  0  0  0  0  0  0  0  0  0
   36.3860   26.3200   39.7900 O   0  0  0  0  0  0  0  0  0  0  0  0
   36.2020   27.3220   38.8760 C   0  0  0  0  0  0  0  0  0  0  0  0
   35.5850   27.1040   38.0110 H   0  0  0  0  0  0  0  0  0  0  0  0
   37.2260   27.5570   38.4610 H   0  0  0  0  0  0  0  0  0  0  0  0
   35.7250   28.5550   39.6680 C   0  0  0  0  0  0  0  0  0  0  0  0
   36.0270   28.3910   40.7330 H   0  0  0  0  0  0  0  0  0  0  0  0
   34.6510   28.7040   39.6110 H   0  0  0  0  0  0  0  0  0  0  0  0
   36.3070   30.8720   39.9370 C   0  0  0  0  0  0  0  0  0  0  0  0
   36.4080   29.7540   39.1030 C   0  0  0  0  0  0  0  0  0  0  0  0
   37.0720   29.8140   37.8970 C   0  0  0  0  0  0  0  0  0  0  0  0
   37.1040   28.8950   37.3080 H   0  0  0  0  0  0  0  0  0  0  0  0
   37.6590   31.0180   37.4970 C   0  0  0  0  0  3  0  0  0  0  0  0
   37.5580   32.1280   38.3260 C   0  0  0  0  0  3  0  0  0  0  0  0
   36.8940   32.0720   39.5330 C   0  0  0  0  0  0  0  0  0  0  0  0
   35.6790   30.9650   41.1630 O   0  0  0  0  0  0  0  0  0  0  0  0
   35.2240   30.2490   41.6740 H   0  0  0  0  0  0  0  0  0  0  0  0
   36.8430   33.2490   40.3060 O   0  0  0  0  0  0  0  0  0  0  0  0
   36.3370   33.2520   41.1970 H   0  0  0  0  0  0  0  0  0  0  0  0
  1  2  2  0  0  0  0
  1  9  1  0  0  0  0
  2  3  1  0  0  0  0
  3 11  1  0  0  0  0
  3  4  2  0  0  0  0
  4  5  1  0  0  0  0
  5  6  1  0  0  0  0
  5 12  1  0  0  0  0
  6 13  1  0  0  0  0
  7  6  2  0  0  0  0
  8  4  1  0  0  0  0
  8  7  1  0  0  0  0
  9  8  2  0  0  0  0
 10  1  1  0  0  0  0
 14 15  2  0  0  0  0
 14 19  1  0  0  0  0
 15 16  1  0  0  0  0
 16 21  1  0  0  0  0
 16 17  2  0  0  0  0
 18 17  1  0  0  0  0
 18  2  1  0  0  0  0
 19 18  2  0  0  0  0
 20 14  1  0  0  0  0
 22 25  1  0  0  0  0
 22 24  1  0  0  0  0
 22 15  1  0  0  0  0
 23 22  1  0  0  0  0
 26  9  1  0  0  0  0
 28 27  2  1  0  0  0
 28 26  1  0  0  0  0
 29 28  1  0  0  0  0
 30 29  1  0  0  0  0
 31 28  1  0  0  0  0
 32 35  1  0  0  0  0
 32 31  1  0  0  0  0
 33 32  1  0  0  0  0
 34 32  1  0  0  0  0
 35 36  1  0  0  0  0
 37 35  1  0  0  0  0
 38 45  1  0  0  0  0
 39 35  1  0  0  0  0
 39 38  2  0  0  0  0
 40 39  1  0  0  0  0
 41 40  1  0  0  0  0
 42 40  2  0  0  0  0
 42 43  1  0  0  0  0
 43 44  2  0  0  0  0
 44 38  1  0  0  0  0
 44 47  1  0  0  0  0
 45 46  1  0  0  0  0
 47 48  1  0  0  0  0
M  END
>  <minimizedAffinity>
-7.18918991

$$$$

 OpenBabel03242513453D

 48 51  0  0  0  0  0  0  0  0999 V2000
   41.3700   31.6650   41.8350 C   0  0  0  0  0  0  0  0  0  0  0  0
   40.1480   31.4160   41.2850 C   0  0  0  0  0  0  0  0  0  0  0  0
   39.6060   32.3710   40.4570 C   0  0  0  0  0  0  0  0  0  0  0  0
   40.2340   33.5580   40.1580 C   0  0  0  0  0  0  0  0  0  0  0  0
   39.9850   34.6600   39.4150 N   0  0  0  0  0  0  0  0  0  0  0  0
   41.0240   35.5360   39.5200 C   0  0  0  0  0  0  0  0  0  0  0  0
   41.9190   34.9580   40.3390 N   0  0  0  0  0  0  0  0  0  0  0  0
   41.4550   33.7690   40.7300 C   0  0  0  0  0  0  0  0  0  0  0  0
   42.0510   32.8620   41.5620 C   0  0  0  0  0  0  0  0  0  0  0  0
   41.8800   30.9690   42.5030 H   0  0  0  0  0  0  0  0  0  0  0  0
   38.6280   32.2110   39.9950 H   0  0  0  0  0  0  0  0  0  0  0  0
   39.1080   34.7690   38.8630 H   0  0  0  0  0  0  0  0  0  0  0  0
   41.0830   36.5070   39.0200 H   0  0  0  0  0  0  0  0  0  0  0  0
   38.7210   28.0710   40.9180 C   0  0  0  0  0  0  0  0  0  0  0  0
   38.1080   27.8550   42.1670 C   0  0  0  0  0  0  0  0  0  0  0  0
   38.2130   28.8920   43.1050 C   0  0  0  0  0  0  0  0  0  0  0  0
   38.8810   30.0300   42.7850 N   0  0  0  0  0  0  0  0  0  0  0  0
   39.4440   30.1710   41.5740 C   0  0  0  0  0  0  0  0  0  0  0  0
   39.3770   29.2190   40.6390 N   0  0  0  0  0  0  0  0  0  0  0  0
   38.6640   27.2950   40.1590 H   0  0  0  0  0  0  0  0  0  0  0  0
   37.7400   28.7300   44.0740 H   0  0  0  0  0  0  0  0  0  0  0  0
   37.4070   26.5730   42.4050 C   0  0  0  0  0  0  0  0  0  0  0  0
   36.4900   26.8570   43.4140 F   0  0  0  0  0  0  0  0  0  0  0  0
   38.3120   25.6690   42.8870 F   0  0  0  0  0  0  0  0  0  0  0  0
   36.8040   26.1670   41.2320 F   0  0  0  0  0  0  0  0  0  0  0  0
   43.2980   33.1200   42.1210 O   0  0  0  0  0  0  0  0  0  0  0  0
   45.8930   33.0620   42.0980 O   0  0  0  0  0  0  0  0  0  0  0  0
   44.6980   33.4910   41.2700 P   0  0  2  0  0  0  0  0  0  0  0  0
   44.7730   35.1920   41.1580 O   0  0  0  0  0  0  0  0  0  0  0  0
   44.9610   35.5710   42.0510 H   0  0  0  0  0  0  0  0  0  0  0  0
   44.7700   32.8210   39.7440 O   0  0  0  0  0  0  0  0  0  0  0  0
   44.9610   33.7090   38.7200 C   0  0  0  0  0  0  0  0  0  0  0  0
   45.8550   34.3230   38.7490 H   0  0  0  0  0  0  0  0  0  0  0  0
   44.0970   34.4340   38.7710 H   0  0  0  0  0  0  0  0  0  0  0  0
   44.8180   32.9050   37.4130 C   0  0  0  0  0  0  0  0  0  0  0  0
   45.7420   32.2810   37.3150 H   0  0  0  0  0  0  0  0  0  0  0  0
   44.7100   33.5380   36.5370 H   0  0  0  0  0  0  0  0  0  0  0  0
   42.4400   32.6960   37.1300 C   0  0  0  0  0  0  0  0  0  0  0  0
   43.6070   32.0430   37.5350 C   0  0  0  0  0  0  0  0  0  0  0  0
   43.5820   30.7440   37.9960 C   0  0  0  0  0  0  0  0  0  0  0  0
   44.5390   30.3100   38.2920 H   0  0  0  0  0  0  0  0  0  0  0  0
   42.3620   30.0640   38.0610 C   0  0  0  0  0  3  0  0  0  0  0  0
   41.2030   30.7150   37.6580 C   0  0  0  0  0  3  0  0  0  0  0  0
   41.2240   32.0140   37.1960 C   0  0  0  0  0  0  0  0  0  0  0  0
   42.3090   33.9850   36.6490 O   0  0  0  0  0  0  0  0  0  0  0  0
   43.0220   34.6500   36.4800 H   0  0  0  0  0  0  0  0  0  0  0  0
   39.9990   32.5910   36.8110 O   0  0  0  0  0  0  0  0  0  0  0  0
   39.9730   33.5620   36.4860 H   0  0  0  0  0  0  0  0  0  0  0  0
  1 10  1  0  0  0  0
  2 18  1  0  0  0  0
  2  1  2  0  0  0  0
  3  2  1  0  0  0  0
  4  3  2  0  0  0  0
  4  8  1  0  0  0  0
  5  6  1  0  0  0  0
  5  4  1  0  0  0  0
  6  7  2  0  0  0  0
  7  8  1  0  0  0  0
  8  9  2  0  0  0  0
  9  1  1  0  0  0  0
  9 26  1  0  0  0  0
 11  3  1  0  0  0  0
 12  5  1  0  0  0  0
 13  6  1  0  0  0  0
 14 15  1  0  0  0  0
 15 22  1  0  0  0  0
 15 16  2  0  0  0  0
 16 21  1  0  0  0  0
 17 16  1  0  0  0  0
 18 17  2  0  0  0  0
 19 14  2  0  0  0  0
 19 18  1  0  0  0  0
 20 14  1  0  0  0  0
 22 24  1  0  0  0  0
 22 23  1  0  0  0  0
 25 22  1  0  0  0  0
 28 27  2  1  0  0  0
 28 26  1  0  0  0  0
 29 28  1  0  0  0  0
 29 30  1  0  0  0  0
 31 28  1  0  0  0  0
 32 33  1  0  0  0  0
 32 34  1  0  0  0  0
 32 31  1  0  0  0  0
 35 39  1  0  0  0  0
 35 32  1  0  0  0  0
 36 35  1  0  0  0  0
 37 35  1  0  0  0  0
 38 44  2  0  0  0  0
 38 39  1  0  0  0  0
 39 40  2  0  0  0  0
 40 42  1  0  0  0  0
 40 41  1  0  0  0  0
 43 42  2  0  0  0  0
 44 43  1  0  0  0  0
 45 38  1  0  0  0  0
 46 45  1  0  0  0  0
 47 44  1  0  0  0  0
 48 47  1  0  0  0  0
M  END
>  <minimizedAffinity>
-7.10009766

$$$$

 OpenBabel03242513453D

 48 51  0  0  0  0  0  0  0  0999 V2000
   36.7550   26.9050   37.8120 C   0  0  0  0  0  0  0  0  0  0  0  0
   36.4280   26.1020   38.8630 C   0  0  0  0  0  0  0  0  0  0  0  0
   35.8950   24.8640   38.5890 C   0  0  0  0  0  0  0  0  0  0  0  0
   35.6770   24.4010   37.3120 C   0  0  0  0  0  0  0  0  0  0  0  0
   35.1890   23.2840   36.7250 N   0  0  0  0  0  0  0  0  0  0  0  0
   35.2250   23.4190   35.3690 C   0  0  0  0  0  0  0  0  0  0  0  0
   35.7420   24.6360   35.1270 N   0  0  0  0  0  0  0  0  0  0  0  0
   36.0170   25.2350   36.2880 C   0  0  0  0  0  0  0  0  0  0  0  0
   36.5520   26.4780   36.4900 C   0  0  0  0  0  0  0  0  0  0  0  0
   37.1840   27.9020   37.9280 H   0  0  0  0  0  0  0  0  0  0  0  0
   35.6190   24.1890   39.4030 H   0  0  0  0  0  0  0  0  0  0  0  0
   34.8490   22.4710   37.2790 H   0  0  0  0  0  0  0  0  0  0  0  0
   34.8900   22.6630   34.6520 H   0  0  0  0  0  0  0  0  0  0  0  0
   36.5690   28.2250   41.8350 C   0  0  0  0  0  0  0  0  0  0  0  0
   37.0560   27.3470   42.8230 C   0  0  0  0  0  0  0  0  0  0  0  0
   37.3220   26.0310   42.4160 C   0  0  0  0  0  0  0  0  0  0  0  0
   37.1070   25.6640   41.1270 N   0  0  0  0  0  0  0  0  0  0  0  0
   36.6400   26.5520   40.2350 C   0  0  0  0  0  0  0  0  0  0  0  0
   36.3690   27.8190   40.5620 N   0  0  0  0  0  0  0  0  0  0  0  0
   36.3510   29.2550   42.1040 H   0  0  0  0  0  0  0  0  0  0  0  0
   37.6990   25.3470   43.1770 H   0  0  0  0  0  0  0  0  0  0  0  0
   37.2520   27.8590   44.1980 C   0  0  0  0  0  0  0  0  0  0  0  0
   37.5770   29.2030   44.0290 F   0  0  0  0  0  0  0  0  0  0  0  0
   38.3290   27.2210   44.7460 F   0  0  0  0  0  0  0  0  0  0  0  0
   36.0880   27.6760   44.9150 F   0  0  0  0  0  0  0  0  0  0  0  0
   36.8840   27.2940   35.4150 O   0  0  0  0  0  0  0  0  0  0  0  0
   34.7570   28.4260   34.4490 O   0  0  0  0  0  0  0  0  0  0  0  0
   36.1300   28.7390   35.0080 P   0  0  2  0  0  0  0  0  0  0  0  0
   37.0280   29.4230   33.7280 O   0  0  0  0  0  0  0  0  0  0  0  0
   36.9000   28.8810   32.9120 H   0  0  0  0  0  0  0  0  0  0  0  0
   36.0190   29.8310   36.2640 O   0  0  0  0  0  0  0  0  0  0  0  0
   37.2100   30.3210   36.7260 C   0  0  0  0  0  0  0  0  0  0  0  0
   37.7190   31.0590   36.1150 H   0  0  0  0  0  0  0  0  0  0  0  0
   37.9130   29.4390   36.7750 H   0  0  0  0  0  0  0  0  0  0  0  0
   36.9570   30.7970   38.1700 C   0  0  0  0  0  0  0  0  0  0  0  0
   36.9020   29.8800   38.8080 H   0  0  0  0  0  0  0  0  0  0  0  0
   36.0400   31.3690   38.2710 H   0  0  0  0  0  0  0  0  0  0  0  0
   37.8200   32.4400   39.6980 C   0  0  0  0  0  0  0  0  0  0  0  0
   38.1060   31.6560   38.5770 C   0  0  0  0  0  0  0  0  0  0  0  0
   39.3330   31.7160   37.9510 C   0  0  0  0  0  0  0  0  0  0  0  0
   39.4730   31.0700   37.0820 H   0  0  0  0  0  0  0  0  0  0  0  0
   40.3140   32.5810   38.4470 C   0  0  0  0  0  3  0  0  0  0  0  0
   40.0270   33.3590   39.5610 C   0  0  0  0  0  3  0  0  0  0  0  0
   38.8020   33.3020   40.1900 C   0  0  0  0  0  0  0  0  0  0  0  0
   36.6470   32.4880   40.4250 O   0  0  0  0  0  0  0  0  0  0  0  0
   35.8240   31.9530   40.2970 H   0  0  0  0  0  0  0  0  0  0  0  0
   38.6030   34.1290   41.3130 O   0  0  0  0  0  0  0  0  0  0  0  0
   37.6970   34.1320   41.7900 H   0  0  0  0  0  0  0  0  0  0  0  0
  1 10  1  0  0  0  0
  1  2  1  0  0  0  0
  2 18  1  0  0  0  0
  3  2  2  0  0  0  0
  3 11  1  0  0  0  0
  4  3  1  0  0  0  0
  5 12  1  0  0  0  0
  5  4  1  0  0  0  0
  6  5  1  0  0  0  0
  7  6  2  0  0  0  0
  7  8  1  0  0  0  0
  8  9  1  0  0  0  0
  8  4  2  0  0  0  0
  9  1  2  0  0  0  0
 13  6  1  0  0  0  0
 14 20  1  0  0  0  0
 14 15  1  0  0  0  0
 15 22  1  0  0  0  0
 16 15  2  0  0  0  0
 16 21  1  0  0  0  0
 17 16  1  0  0  0  0
 18 19  1  0  0  0  0
 18 17  2  0  0  0  0
 19 14  2  0  0  0  0
 22 24  1  0  0  0  0
 22 25  1  0  0  0  0
 23 22  1  0  0  0  0
 26  9  1  0  0  0  0
 28 27  2  6  0  0  0
 28 26  1  0  0  0  0
 28 31  1  0  0  0  0
 29 28  1  0  0  0  0
 30 29  1  0  0  0  0
 31 32  1  0  0  0  0
 32 34  1  0  0  0  0
 32 35  1  0  0  0  0
 33 32  1  0  0  0  0
 35 37  1  0  0  0  0
 35 39  1  0  0  0  0
 35 36  1  0  0  0  0
 38 44  1  0  0  0  0
 38 45  1  0  0  0  0
 39 38  2  0  0  0  0
 40 42  2  0  0  0  0
 40 39  1  0  0  0  0
 41 40  1  0  0  0  0
 42 43  1  0  0  0  0
 43 44  2  0  0  0  0
 44 47  1  0  0  0  0
 46 45  1  0  0  0  0
 47 48  1  0  0  0  0
M  END
>  <minimizedAffinity>
-6.9129262

$$$$

 OpenBabel03242513453D

 48 51  0  0  0  0  0  0  0  0999 V2000
   40.7500   30.9070   39.5090 C   0  0  0  0  0  0  0  0  0  0  0  0
   40.4190   29.5910   39.3840 C   0  0  0  0  0  0  0  0  0  0  0  0
   40.9310   28.8950   38.3130 C   0  0  0  0  0  0  0  0  0  0  0  0
   41.7570   29.4620   37.3700 C   0  0  0  0  0  0  0  0  0  0  0  0
   42.4010   29.0730   36.2460 N   0  0  0  0  0  0  0  0  0  0  0  0
   43.0930   30.1250   35.7200 C   0  0  0  0  0  0  0  0  0  0  0  0
   42.8650   31.1680   36.5360 N   0  0  0  0  0  0  0  0  0  0  0  0
   42.0630   30.7810   37.5310 C   0  0  0  0  0  0  0  0  0  0  0  0
   41.5870   31.5310   38.5720 C   0  0  0  0  0  0  0  0  0  0  0  0
   40.3930   31.5400   40.3240 H   0  0  0  0  0  0  0  0  0  0  0  0
   40.6910   27.8380   38.1750 H   0  0  0  0  0  0  0  0  0  0  0  0
   42.3420   28.1000   35.8810 H   0  0  0  0  0  0  0  0  0  0  0  0
   43.7020   30.0870   34.8120 H   0  0  0  0  0  0  0  0  0  0  0  0
   38.4070   28.9950   42.3770 C   0  0  0  0  0  0  0  0  0  0  0  0
   37.9030   27.6980   42.1610 C   0  0  0  0  0  0  0  0  0  0  0  0
   38.2850   27.0680   40.9670 C   0  0  0  0  0  0  0  0  0  0  0  0
   39.1000   27.7110   40.0920 N   0  0  0  0  0  0  0  0  0  0  0  0
   39.5450   28.9490   40.3600 C   0  0  0  0  0  0  0  0  0  0  0  0
   39.2160   29.6000   41.4790 N   0  0  0  0  0  0  0  0  0  0  0  0
   38.1380   29.5220   43.2890 H   0  0  0  0  0  0  0  0  0  0  0  0
   37.8980   26.0630   40.7950 H   0  0  0  0  0  0  0  0  0  0  0  0
   37.0210   27.0960   43.1860 C   0  0  0  0  0  0  0  0  0  0  0  0
   36.9170   25.7570   42.8150 F   0  0  0  0  0  0  0  0  0  0  0  0
   35.7850   27.6690   43.0810 F   0  0  0  0  0  0  0  0  0  0  0  0
   37.5970   27.2640   44.4280 F   0  0  0  0  0  0  0  0  0  0  0  0
   41.9270   32.8730   38.6960 O   0  0  0  0  0  0  0  0  0  0  0  0
   41.6350   35.3890   39.2660 O   0  0  0  0  0  0  0  0  0  0  0  0
   41.1080   34.0130   39.6190 P   0  0  2  0  0  0  0  0  0  0  0  0
   41.5390   33.7340   41.2470 O   0  0  0  0  0  0  0  0  0  0  0  0
   42.4830   33.9900   41.3840 H   0  0  0  0  0  0  0  0  0  0  0  0
   39.4490   33.9590   39.4590 O   0  0  0  0  0  0  0  0  0  0  0  0
   38.7890   33.2090   40.3950 C   0  0  0  0  0  0  0  0  0  0  0  0
   38.9260   33.4760   41.4370 H   0  0  0  0  0  0  0  0  0  0  0  0
   39.1970   32.1610   40.2980 H   0  0  0  0  0  0  0  0  0  0  0  0
   37.3100   33.1760   39.9650 C   0  0  0  0  0  0  0  0  0  0  0  0
   37.1560   34.0390   39.2690 H   0  0  0  0  0  0  0  0  0  0  0  0
   36.6240   33.2560   40.8040 H   0  0  0  0  0  0  0  0  0  0  0  0
   36.2990   30.9950   40.0290 C   0  0  0  0  0  0  0  0  0  0  0  0
   37.0650   31.8820   39.2660 C   0  0  0  0  0  0  0  0  0  0  0  0
   37.5240   31.5400   38.0120 C   0  0  0  0  0  0  0  0  0  0  0  0
   38.1150   32.2910   37.4840 H   0  0  0  0  0  0  0  0  0  0  0  0
   37.2170   30.2800   37.4900 C   0  0  0  0  0  3  0  0  0  0  0  0
   36.4570   29.4000   38.2500 C   0  0  0  0  0  3  0  0  0  0  0  0
   35.9960   29.7380   39.5050 C   0  0  0  0  0  0  0  0  0  0  0  0
   35.7740   31.1940   41.2910 O   0  0  0  0  0  0  0  0  0  0  0  0
   35.8210   32.0080   41.8530 H   0  0  0  0  0  0  0  0  0  0  0  0
   35.2330   28.7810   40.2010 O   0  0  0  0  0  0  0  0  0  0  0  0
   34.8950   28.9870   41.1450 H   0  0  0  0  0  0  0  0  0  0  0  0
  1 10  1  0  0  0  0
  2  1  1  0  0  0  0
  2 18  1  0  0  0  0
  3  2  2  0  0  0  0
  4  8  2  0  0  0  0
  4  3  1  0  0  0  0
  5  4  1  0  0  0  0
  6  5  1  0  0  0  0
  6  7  2  0  0  0  0
  7  8  1  0  0  0  0
  8  9  1  0  0  0  0
  9 26  1  0  0  0  0
  9  1  2  0  0  0  0
 11  3  1  0  0  0  0
 12  5  1  0  0  0  0
 13  6  1  0  0  0  0
 14 20  1  0  0  0  0
 15 14  1  0  0  0  0
 15 22  1  0  0  0  0
 16 15  2  0  0  0  0
 17 18  2  0  0  0  0
 17 16  1  0  0  0  0
 18 19  1  0  0  0  0
 19 14  2  0  0  0  0
 21 16  1  0  0  0  0
 22 25  1  0  0  0  0
 23 22  1  0  0  0  0
 24 22  1  0  0  0  0
 26 28  1  0  0  0  0
 28 27  2  6  0  0  0
 28 29  1  0  0  0  0
 29 30  1  0  0  0  0
 31 28  1  0  0  0  0
 31 32  1  0  0  0  0
 32 33  1  0  0  0  0
 34 32  1  0  0  0  0
 35 32  1  0  0  0  0
 35 37  1  0  0  0  0
 36 35  1  0  0  0  0
 38 45  1  0  0  0  0
 39 35  1  0  0  0  0
 39 38  2  0  0  0  0
 40 39  1  0  0  0  0
 41 40  1  0  0  0  0
 42 40  2  0  0  0  0
 42 43  1  0  0  0  0
 43 44  2  0  0  0  0
 44 38  1  0  0  0  0
 44 47  1  0  0  0  0
 45 46  1  0  0  0  0
 47 48  1  0  0  0  0
M  END
>  <minimizedAffinity>
-6.88951254

$$$$

 OpenBabel03242513453D

 48 51  0  0  0  0  0  0  0  0999 V2000
   37.4560   29.2750   38.2010 C   0  0  0  0  0  0  0  0  0  0  0  0
   37.4370   27.9600   37.8460 C   0  0  0  0  0  0  0  0  0  0  0  0
   37.1380   27.6470   36.5400 C   0  0  0  0  0  0  0  0  0  0  0  0
   36.8590   28.5940   35.5820 C   0  0  0  0  0  0  0  0  0  0  0  0
   36.5400   28.6200   34.2680 N   0  0  0  0  0  0  0  0  0  0  0  0
   36.3740   29.9090   33.8560 C   0  0  0  0  0  0  0  0  0  0  0  0
   36.5950   30.6790   34.9350 N   0  0  0  0  0  0  0  0  0  0  0  0
   36.8870   29.8990   35.9790 C   0  0  0  0  0  0  0  0  0  0  0  0
   37.1770   30.2780   37.2610 C   0  0  0  0  0  0  0  0  0  0  0  0
   37.6820   29.6210   39.2120 H   0  0  0  0  0  0  0  0  0  0  0  0
   37.1130   26.6050   36.2140 H   0  0  0  0  0  0  0  0  0  0  0  0
   36.4480   27.7500   33.7030 H   0  0  0  0  0  0  0  0  0  0  0  0
   36.1130   30.2170   32.8380 H   0  0  0  0  0  0  0  0  0  0  0  0
   39.2270   25.4950   39.8670 C   0  0  0  0  0  0  0  0  0  0  0  0
   38.2120   24.9700   40.6890 C   0  0  0  0  0  0  0  0  0  0  0  0
   36.9250   25.4970   40.5110 C   0  0  0  0  0  0  0  0  0  0  0  0
   36.7110   26.4640   39.5820 N   0  0  0  0  0  0  0  0  0  0  0  0
   37.7250   26.9210   38.8300 C   0  0  0  0  0  0  0  0  0  0  0  0
   38.9720   26.4570   38.9530 N   0  0  0  0  0  0  0  0  0  0  0  0
   40.2400   25.1150   39.9690 H   0  0  0  0  0  0  0  0  0  0  0  0
   36.1350   25.0940   41.1460 H   0  0  0  0  0  0  0  0  0  0  0  0
   38.5620   23.9170   41.6690 C   0  0  0  0  0  0  0  0  0  0  0  0
   39.8430   24.2530   42.1030 F   0  0  0  0  0  0  0  0  0  0  0  0
   38.6300   22.7210   41.0100 F   0  0  0  0  0  0  0  0  0  0  0  0
   37.6320   23.9250   42.6880 F   0  0  0  0  0  0  0  0  0  0  0  0
   37.1950   31.6220   37.6190 O   0  0  0  0  0  0  0  0  0  0  0  0
   36.4290   31.5220   40.0970 O   0  0  0  0  0  0  0  0  0  0  0  0
   37.4070   32.2210   39.1740 P   0  0  2  0  0  0  0  0  0  0  0  0
   36.9470   33.8650   39.1380 O   0  0  0  0  0  0  0  0  0  0  0  0
   35.9680   33.9280   39.0180 H   0  0  0  0  0  0  0  0  0  0  0  0
   38.9640   32.0840   39.7550 O   0  0  0  0  0  0  0  0  0  0  0  0
   39.2910   30.8650   40.2850 C   0  0  0  0  0  0  0  0  0  0  0  0
   40.2060   30.3970   39.9380 H   0  0  0  0  0  0  0  0  0  0  0  0
   38.4620   30.1610   39.9810 H   0  0  0  0  0  0  0  0  0  0  0  0
   39.2310   31.0230   41.8160 C   0  0  0  0  0  0  0  0  0  0  0  0
   38.3340   31.6530   42.0410 H   0  0  0  0  0  0  0  0  0  0  0  0
   40.1200   31.4930   42.2270 H   0  0  0  0  0  0  0  0  0  0  0  0
   37.7530   29.3240   42.6570 C   0  0  0  0  0  0  0  0  0  0  0  0
   39.0860   29.6640   42.4120 C   0  0  0  0  0  0  0  0  0  0  0  0
   40.1160   28.7990   42.7140 C   0  0  0  0  0  0  0  0  0  0  0  0
   41.1280   29.1430   42.4900 H   0  0  0  0  0  0  0  0  0  0  0  0
   39.8230   27.5540   43.2790 C   0  0  0  0  0  3  0  0  0  0  0  0
   38.4970   27.2190   43.5220 C   0  0  0  0  0  3  0  0  0  0  0  0
   37.4640   28.0810   43.2210 C   0  0  0  0  0  0  0  0  0  0  0  0
   36.6230   30.0790   42.4100 O   0  0  0  0  0  0  0  0  0  0  0  0
   36.5640   30.9730   41.9870 H   0  0  0  0  0  0  0  0  0  0  0  0
   36.1520   27.6540   43.5040 O   0  0  0  0  0  0  0  0  0  0  0  0
   35.3620   28.2770   43.3170 H   0  0  0  0  0  0  0  0  0  0  0  0
  1 10  1  0  0  0  0
  2  1  1  0  0  0  0
  2 18  1  0  0  0  0
  3  2  2  0  0  0  0
  4  8  2  0  0  0  0
  4  3  1  0  0  0  0
  5  4  1  0  0  0  0
  6  5  1  0  0  0  0
  6  7  2  0  0  0  0
  7  8  1  0  0  0  0
  8  9  1  0  0  0  0
  9 26  1  0  0  0  0
  9  1  2  0  0  0  0
 11  3  1  0  0  0  0
 12  5  1  0  0  0  0
 13  6  1  0  0  0  0
 14 20  1  0  0  0  0
 14 15  1  0  0  0  0
 15 22  1  0  0  0  0
 16 15  2  0  0  0  0
 16 21  1  0  0  0  0
 17 16  1  0  0  0  0
 18 19  1  0  0  0  0
 18 17  2  0  0  0  0
 19 14  2  0  0  0  0
 22 23  1  0  0  0  0
 22 25  1  0  0  0  0
 24 22  1  0  0  0  0
 26 28  1  0  0  0  0
 28 31  1  0  0  0  0
 28 27  2  1  0  0  0
 29 28  1  0  0  0  0
 30 29  1  0  0  0  0
 31 32  1  0  0  0  0
 32 35  1  0  0  0  0
 33 32  1  0  0  0  0
 34 32  1  0  0  0  0
 35 36  1  0  0  0  0
 35 37  1  0  0  0  0
 35 39  1  0  0  0  0
 38 44  1  0  0  0  0
 39 38  2  0  0  0  0
 39 40  1  0  0  0  0
 40 42  2  0  0  0  0
 41 40  1  0  0  0  0
 42 43  1  0  0  0  0
 44 47  1  0  0  0  0
 44 43  2  0  0  0  0
 45 38  1  0  0  0  0
 46 45  1  0  0  0  0
 48 47  1  0  0  0  0
M  END
>  <minimizedAffinity>
-6.82864952

$$$$

 OpenBabel03242513453D

 48 51  0  0  0  0  0  0  0  0999 V2000
   40.2440   32.2280   40.0790 C   0  0  0  0  0  0  0  0  0  0  0  0
   39.6470   31.9570   38.8840 C   0  0  0  0  0  0  0  0  0  0  0  0
   40.2500   32.4260   37.7400 C   0  0  0  0  0  0  0  0  0  0  0  0
   41.4200   33.1490   37.7440 C   0  0  0  0  0  0  0  0  0  0  0  0
   42.2360   33.7320   36.8370 N   0  0  0  0  0  0  0  0  0  0  0  0
   43.2850   34.3300   37.4710 C   0  0  0  0  0  0  0  0  0  0  0  0
   43.1030   34.1080   38.7840 N   0  0  0  0  0  0  0  0  0  0  0  0
   41.9850   33.4000   38.9600 C   0  0  0  0  0  0  0  0  0  0  0  0
   41.4380   32.9640   40.1360 C   0  0  0  0  0  0  0  0  0  0  0  0
   39.8420   31.8990   41.0390 H   0  0  0  0  0  0  0  0  0  0  0  0
   39.8040   32.2310   36.7610 H   0  0  0  0  0  0  0  0  0  0  0  0
   42.0430   33.6970   35.8140 H   0  0  0  0  0  0  0  0  0  0  0  0
   44.0950   34.8730   36.9750 H   0  0  0  0  0  0  0  0  0  0  0  0
   36.7470   30.1340   37.6100 C   0  0  0  0  0  0  0  0  0  0  0  0
   36.0690   29.7640   38.7870 C   0  0  0  0  0  0  0  0  0  0  0  0
   36.6510   30.1670   39.9990 C   0  0  0  0  0  0  0  0  0  0  0  0
   37.8090   30.8750   39.9910 N   0  0  0  0  0  0  0  0  0  0  0  0
   38.4040   31.1940   38.8310 C   0  0  0  0  0  0  0  0  0  0  0  0
   37.8990   30.8400   37.6470 N   0  0  0  0  0  0  0  0  0  0  0  0
   36.3320   29.8450   36.6470 H   0  0  0  0  0  0  0  0  0  0  0  0
   36.1300   29.8830   40.9130 H   0  0  0  0  0  0  0  0  0  0  0  0
   34.8120   28.9910   38.6730 C   0  0  0  0  0  0  0  0  0  0  0  0
   35.2230   27.6610   38.6150 F   0  0  0  0  0  0  0  0  0  0  0  0
   34.2160   29.3100   37.4850 F   0  0  0  0  0  0  0  0  0  0  0  0
   34.0190   29.2590   39.7690 F   0  0  0  0  0  0  0  0  0  0  0  0
   42.0510   33.2420   41.3530 O   0  0  0  0  0  0  0  0  0  0  0  0
   43.9410   32.9700   43.1110 O   0  0  0  0  0  0  0  0  0  0  0  0
   42.9810   32.1710   42.2520 P   0  0  2  0  0  0  0  0  0  0  0  0
   43.9400   31.2960   41.1430 O   0  0  0  0  0  0  0  0  0  0  0  0
   44.6220   31.8960   40.7550 H   0  0  0  0  0  0  0  0  0  0  0  0
   42.0950   31.1140   43.1890 O   0  0  0  0  0  0  0  0  0  0  0  0
   42.4130   29.7900   43.0440 C   0  0  0  0  0  0  0  0  0  0  0  0
   42.4170   29.1760   43.9380 H   0  0  0  0  0  0  0  0  0  0  0  0
   43.4730   29.7640   42.6580 H   0  0  0  0  0  0  0  0  0  0  0  0
   41.4980   29.2400   41.9330 C   0  0  0  0  0  0  0  0  0  0  0  0
   42.1380   28.5990   41.2760 H   0  0  0  0  0  0  0  0  0  0  0  0
   41.0340   30.0230   41.3410 H   0  0  0  0  0  0  0  0  0  0  0  0
   39.2750   29.1760   42.8480 C   0  0  0  0  0  0  0  0  0  0  0  0
   40.4270   28.4290   42.5810 C   0  0  0  0  0  0  0  0  0  0  0  0
   40.5100   27.0940   42.9100 C   0  0  0  0  0  0  0  0  0  0  0  0
   41.4450   26.5850   42.6670 H   0  0  0  0  0  0  0  0  0  0  0  0
   39.4190   26.4700   43.5240 C   0  0  0  0  0  3  0  0  0  0  0  0
   38.2760   27.2140   43.7880 C   0  0  0  0  0  3  0  0  0  0  0  0
   38.1900   28.5500   43.4610 C   0  0  0  0  0  0  0  0  0  0  0  0
   39.0470   30.5110   42.5780 O   0  0  0  0  0  0  0  0  0  0  0  0
   39.6440   31.1560   42.1220 H   0  0  0  0  0  0  0  0  0  0  0  0
   36.9900   29.2220   43.7680 O   0  0  0  0  0  0  0  0  0  0  0  0
   36.8990   30.2210   43.5620 H   0  0  0  0  0  0  0  0  0  0  0  0
  1  9  1  0  0  0  0
  1 10  1  0  0  0  0
  2  1  2  0  0  0  0
  3  4  2  0  0  0  0
  3  2  1  0  0  0  0
  4  8  1  0  0  0  0
  5  6  1  0  0  0  0
  5  4  1  0  0  0  0
  6  7  2  0  0  0  0
  7  8  1  0  0  0  0
  8  9  2  0  0  0  0
  9 26  1  0  0  0  0
 11  3  1  0  0  0  0
 12  5  1  0  0  0  0
 13  6  1  0  0  0  0
 14 19  2  0  0  0  0
 14 15  1  0  0  0  0
 15 16  2  0  0  0  0
 16 21  1  0  0  0  0
 17 16  1  0  0  0  0
 18  2  1  0  0  0  0
 18 17  2  0  0  0  0
 19 18  1  0  0  0  0
 20 14  1  0  0  0  0
 22 15  1  0  0  0  0
 22 25  1  0  0  0  0
 23 22  1  0  0  0  0
 24 22  1  0  0  0  0
 26 28  1  0  0  0  0
 28 27  2  1  0  0  0
 28 31  1  0  0  0  0
 29 28  1  0  0  0  0
 30 29  1  0  0  0  0
 32 31  1  0  0  0  0
 32 33  1  0  0  0  0
 34 32  1  0  0  0  0
 35 39  1  0  0  0  0
 35 32  1  0  0  0  0
 36 35  1  0  0  0  0
 37 35  1  0  0  0  0
 38 44  1  0  0  0  0
 39 38  2  0  0  0  0
 39 40  1  0  0  0  0
 40 42  2  0  0  0  0
 41 40  1  0  0  0  0
 42 43  1  0  0  0  0
 44 47  1  0  0  0  0
 44 43  2  0  0  0  0
 45 38  1  0  0  0  0
 46 45  1  0  0  0  0
 48 47  1  0  0  0  0
M  END
>  <minimizedAffinity>
-6.71249819

$$$$

 OpenBabel03242513453D

 48 51  0  0  0  0  0  0  0  0999 V2000
   40.3320   29.1940   41.3130 C   0  0  0  0  0  0  0  0  0  0  0  0
   39.2570   28.4170   41.6240 C   0  0  0  0  0  0  0  0  0  0  0  0
   39.3690   27.5590   42.6940 C   0  0  0  0  0  0  0  0  0  0  0  0
   40.5070   27.4490   43.4590 C   0  0  0  0  0  0  0  0  0  0  0  0
   40.9250   26.7350   44.5290 N   0  0  0  0  0  0  0  0  0  0  0  0
   42.2070   27.0770   44.8430 C   0  0  0  0  0  0  0  0  0  0  0  0
   42.5740   28.0120   43.9500 N   0  0  0  0  0  0  0  0  0  0  0  0
   41.5600   28.2440   43.1130 C   0  0  0  0  0  0  0  0  0  0  0  0
   41.5160   29.1180   42.0620 C   0  0  0  0  0  0  0  0  0  0  0  0
   40.3390   29.9040   40.4830 H   0  0  0  0  0  0  0  0  0  0  0  0
   38.5300   26.9180   42.9780 H   0  0  0  0  0  0  0  0  0  0  0  0
   40.3130   26.0390   45.0040 H   0  0  0  0  0  0  0  0  0  0  0  0
   42.7890   26.6520   45.6660 H   0  0  0  0  0  0  0  0  0  0  0  0
   36.8840   28.1500   38.8570 C   0  0  0  0  0  0  0  0  0  0  0  0
   35.7000   28.6740   39.4090 C   0  0  0  0  0  0  0  0  0  0  0  0
   35.7690   29.1090   40.7420 C   0  0  0  0  0  0  0  0  0  0  0  0
   36.9370   29.0100   41.4270 N   0  0  0  0  0  0  0  0  0  0  0  0
   38.0300   28.4980   40.8390 C   0  0  0  0  0  0  0  0  0  0  0  0
   38.0260   28.0690   39.5740 N   0  0  0  0  0  0  0  0  0  0  0  0
   36.8780   27.8020   37.8270 H   0  0  0  0  0  0  0  0  0  0  0  0
   34.8550   29.5160   41.1750 H   0  0  0  0  0  0  0  0  0  0  0  0
   34.4850   28.7330   38.5670 C   0  0  0  0  0  0  0  0  0  0  0  0
   34.7740   29.6940   37.6000 F   0  0  0  0  0  0  0  0  0  0  0  0
   33.4500   29.1910   39.3340 F   0  0  0  0  0  0  0  0  0  0  0  0
   34.2520   27.4850   38.0270 F   0  0  0  0  0  0  0  0  0  0  0  0
   42.6160   29.9090   41.7470 O   0  0  0  0  0  0  0  0  0  0  0  0
   44.3300   31.8420   41.9960 O   0  0  0  0  0  0  0  0  0  0  0  0
   42.8930   31.4700   42.3010 P   0  0  2  0  0  0  0  0  0  0  0  0
   42.7570   31.4240   44.0020 O   0  0  0  0  0  0  0  0  0  0  0  0
   43.5230   30.9260   44.3780 H   0  0  0  0  0  0  0  0  0  0  0  0
   41.8470   32.6130   41.6830 O   0  0  0  0  0  0  0  0  0  0  0  0
   42.3420   33.3720   40.6580 C   0  0  0  0  0  0  0  0  0  0  0  0
   42.8830   32.8590   39.8700 H   0  0  0  0  0  0  0  0  0  0  0  0
   43.0910   34.0770   41.1250 H   0  0  0  0  0  0  0  0  0  0  0  0
   41.1660   34.2210   40.1350 C   0  0  0  0  0  0  0  0  0  0  0  0
   41.5740   34.8710   39.3210 H   0  0  0  0  0  0  0  0  0  0  0  0
   40.7150   34.8380   40.9060 H   0  0  0  0  0  0  0  0  0  0  0  0
   38.9320   33.3520   40.3120 C   0  0  0  0  0  0  0  0  0  0  0  0
   40.1330   33.2890   39.5990 C   0  0  0  0  0  0  0  0  0  0  0  0
   40.2900   32.4350   38.5290 C   0  0  0  0  0  0  0  0  0  0  0  0
   41.2600   32.4490   38.0280 H   0  0  0  0  0  0  0  0  0  0  0  0
   39.2260   31.6110   38.1470 C   0  0  0  0  0  3  0  0  0  0  0  0
   38.0340   31.6750   38.8580 C   0  0  0  0  0  3  0  0  0  0  0  0
   37.8730   32.5280   39.9280 C   0  0  0  0  0  0  0  0  0  0  0  0
   38.6270   34.1510   41.3970 O   0  0  0  0  0  0  0  0  0  0  0  0
   39.1950   34.8370   41.8310 H   0  0  0  0  0  0  0  0  0  0  0  0
   36.6280   32.5230   40.5870 O   0  0  0  0  0  0  0  0  0  0  0  0
   36.4800   33.1250   41.4020 H   0  0  0  0  0  0  0  0  0  0  0  0
  1  2  2  0  0  0  0
  1  9  1  0  0  0  0
  2  3  1  0  0  0  0
  3 11  1  0  0  0  0
  3  4  2  0  0  0  0
  4  5  1  0  0  0  0
  5  6  1  0  0  0  0
  5 12  1  0  0  0  0
  6 13  1  0  0  0  0
  7  6  2  0  0  0  0
  8  4  1  0  0  0  0
  8  7  1  0  0  0  0
  9  8  2  0  0  0  0
 10  1  1  0  0  0  0
 14 15  2  0  0  0  0
 14 19  1  0  0  0  0
 15 16  1  0  0  0  0
 16 21  1  0  0  0  0
 16 17  2  0  0  0  0
 18 17  1  0  0  0  0
 18  2  1  0  0  0  0
 19 18  2  0  0  0  0
 20 14  1  0  0  0  0
 22 24  1  0  0  0  0
 22 15  1  0  0  0  0
 23 22  1  0  0  0  0
 25 22  1  0  0  0  0
 26  9  1  0  0  0  0
 26 28  1  0  0  0  0
 28 27  2  6  0  0  0
 28 29  1  0  0  0  0
 29 30  1  0  0  0  0
 31 28  1  0  0  0  0
 32 34  1  0  0  0  0
 32 31  1  0  0  0  0
 33 32  1  0  0  0  0
 35 32  1  0  0  0  0
 35 37  1  0  0  0  0
 36 35  1  0  0  0  0
 38 45  1  0  0  0  0
 39 35  1  0  0  0  0
 39 38  2  0  0  0  0
 40 39  1  0  0  0  0
 41 40  1  0  0  0  0
 42 40  2  0  0  0  0
 42 43  1  0  0  0  0
 43 44  2  0  0  0  0
 44 38  1  0  0  0  0
 44 47  1  0  0  0  0
 45 46  1  0  0  0  0
 47 48  1  0  0  0  0
M  END
>  <minimizedAffinity>
-6.69065094

$$$$

 OpenBabel03242513453D

 48 51  0  0  0  0  0  0  0  0999 V2000
   41.5510   32.1950   40.9730 C   0  0  0  0  0  0  0  0  0  0  0  0
   40.3960   31.6430   41.4400 C   0  0  0  0  0  0  0  0  0  0  0  0
   39.2410   32.3850   41.3460 C   0  0  0  0  0  0  0  0  0  0  0  0
   39.1980   33.6500   40.8070 C   0  0  0  0  0  0  0  0  0  0  0  0
   38.2690   34.6060   40.5770 N   0  0  0  0  0  0  0  0  0  0  0  0
   38.8530   35.6910   39.9930 C   0  0  0  0  0  0  0  0  0  0  0  0
   40.1570   35.3910   39.8660 N   0  0  0  0  0  0  0  0  0  0  0  0
   40.3760   34.1670   40.3520 C   0  0  0  0  0  0  0  0  0  0  0  0
   41.5590   33.4830   40.4150 C   0  0  0  0  0  0  0  0  0  0  0  0
   42.5150   31.6840   41.0040 H   0  0  0  0  0  0  0  0  0  0  0  0
   38.2930   31.9800   41.7080 H   0  0  0  0  0  0  0  0  0  0  0  0
   37.2670   34.4770   40.8310 H   0  0  0  0  0  0  0  0  0  0  0  0
   38.3310   36.6070   39.7000 H   0  0  0  0  0  0  0  0  0  0  0  0
   41.5180   28.3680   42.6110 C   0  0  0  0  0  0  0  0  0  0  0  0
   40.3370   27.7980   43.1220 C   0  0  0  0  0  0  0  0  0  0  0  0
   39.1760   28.5810   43.0410 C   0  0  0  0  0  0  0  0  0  0  0  0
   39.2330   29.8210   42.4910 N   0  0  0  0  0  0  0  0  0  0  0  0
   40.3940   30.3050   42.0220 C   0  0  0  0  0  0  0  0  0  0  0  0
   41.5320   29.6060   42.0710 N   0  0  0  0  0  0  0  0  0  0  0  0
   42.4420   27.7960   42.6510 H   0  0  0  0  0  0  0  0  0  0  0  0
   38.2580   28.1450   43.4360 H   0  0  0  0  0  0  0  0  0  0  0  0
   40.3940   26.4360   43.7000 C   0  0  0  0  0  0  0  0  0  0  0  0
   39.3100   26.3800   44.5730 F   0  0  0  0  0  0  0  0  0  0  0  0
   41.5430   26.3270   44.4330 F   0  0  0  0  0  0  0  0  0  0  0  0
   40.3090   25.5110   42.6800 F   0  0  0  0  0  0  0  0  0  0  0  0
   42.7350   34.0490   39.9380 O   0  0  0  0  0  0  0  0  0  0  0  0
   44.7030   34.1730   38.2490 O   0  0  0  0  0  0  0  0  0  0  0  0
   43.1890   34.1580   38.3240 P   0  0  2  0  0  0  0  0  0  0  0  0
   42.6630   35.6820   37.7630 O   0  0  0  0  0  0  0  0  0  0  0  0
   43.2070   36.3910   38.1850 H   0  0  0  0  0  0  0  0  0  0  0  0
   42.5640   32.9540   37.3540 O   0  0  0  0  0  0  0  0  0  0  0  0
   42.9770   31.6840   37.6510 C   0  0  0  0  0  0  0  0  0  0  0  0
   42.9680   31.3850   38.6940 H   0  0  0  0  0  0  0  0  0  0  0  0
   44.0590   31.6250   37.3330 H   0  0  0  0  0  0  0  0  0  0  0  0
   42.1710   30.7380   36.7400 C   0  0  0  0  0  0  0  0  0  0  0  0
   42.8610   29.9070   36.4460 H   0  0  0  0  0  0  0  0  0  0  0  0
   41.7910   31.2300   35.8500 H   0  0  0  0  0  0  0  0  0  0  0  0
   39.9100   31.0650   37.4870 C   0  0  0  0  0  0  0  0  0  0  0  0
   41.0190   30.2150   37.5280 C   0  0  0  0  0  0  0  0  0  0  0  0
   40.9950   29.0360   38.2420 C   0  0  0  0  0  0  0  0  0  0  0  0
   41.9040   28.4310   38.2210 H   0  0  0  0  0  0  0  0  0  0  0  0
   39.8380   28.6810   38.9420 C   0  0  0  0  0  3  0  0  0  0  0  0
   38.7370   29.5280   38.9000 C   0  0  0  0  0  3  0  0  0  0  0  0
   38.7570   30.7080   38.1880 C   0  0  0  0  0  0  0  0  0  0  0  0
   39.7850   32.2680   36.8210 O   0  0  0  0  0  0  0  0  0  0  0  0
   40.4460   32.7150   36.2340 H   0  0  0  0  0  0  0  0  0  0  0  0
   37.5930   31.5010   38.2050 O   0  0  0  0  0  0  0  0  0  0  0  0
   37.5800   32.3960   37.7070 H   0  0  0  0  0  0  0  0  0  0  0  0
  1 10  1  0  0  0  0
  1  2  1  0  0  0  0
  2 18  1  0  0  0  0
  3  2  2  0  0  0  0
  3 11  1  0  0  0  0
  4  3  1  0  0  0  0
  5  4  1  0  0  0  0
  5 12  1  0  0  0  0
  6  5  1  0  0  0  0
  7  6  2  0  0  0  0
  7  8  1  0  0  0  0
  8  9  1  0  0  0  0
  8  4  2  0  0  0  0
  9  1  2  0  0  0  0
 13  6  1  0  0  0  0
 14 20  1  0  0  0  0
 14 15  1  0  0  0  0
 15 22  1  0  0  0  0
 16 15  2  0  0  0  0
 16 21  1  0  0  0  0
 17 16  1  0  0  0  0
 18 19  1  0  0  0  0
 18 17  2  0  0  0  0
 19 14  2  0  0  0  0
 22 24  1  0  0  0  0
 22 23  1  0  0  0  0
 25 22  1  0  0  0  0
 26  9  1  0  0  0  0
 28 27  2  6  0  0  0
 28 26  1  0  0  0  0
 29 30  1  0  0  0  0
 29 28  1  0  0  0  0
 31 32  1  0  0  0  0
 31 28  1  0  0  0  0
 32 33  1  0  0  0  0
 34 32  1  0  0  0  0
 35 39  1  0  0  0  0
 35 32  1  0  0  0  0
 36 35  1  0  0  0  0
 37 35  1  0  0  0  0
 38 39  2  0  0  0  0
 38 44  1  0  0  0  0
 39 40  1  0  0  0  0
 40 42  2  0  0  0  0
 41 40  1  0  0  0  0
 43 42  1  0  0  0  0
 44 47  1  0  0  0  0
 44 43  2  0  0  0  0
 45 38  1  0  0  0  0
 46 45  1  0  0  0  0
 48 47  1  0  0  0  0
M  END
>  <minimizedAffinity>
-6.6884594

$$$$
