
 OpenBabel03242516473D

 44 48  0  0  1  0  0  0  0  0999 V2000
   37.0710   28.9670   41.9590 C   0  0  0  0  0  0  0  0  0  0  0  0
   35.9470   28.7780   41.2410 N   0  0  0  0  0  0  0  0  0  0  0  0
   36.0520   29.3060   40.0270 C   0  0  0  0  0  0  0  0  0  0  0  0
   37.2930   29.8560   39.9620 N   0  0  0  0  0  0  0  0  0  0  0  0
   37.9220   29.6640   41.1120 N   0  0  0  0  0  0  0  0  0  0  0  0
   35.3840   29.3650   39.1720 H   0  0  0  0  0  0  0  0  0  0  0  0
   40.2570   29.9780   39.0740 O   0  0  0  0  0  0  0  0  0  0  0  0
   39.3350   30.8530   39.0980 C   0  0  0  0  0  0  0  0  0  0  0  0
   37.9010   30.5570   38.8340 C   0  0  2  0  0  0  0  0  0  0  0  0
   37.3000   31.9370   38.6610 C   0  0  0  0  0  0  0  0  0  0  0  0
   38.1240   32.7590   39.6480 C   0  0  0  0  0  0  0  0  0  0  0  0
   39.4620   32.2650   39.3720 N   0  0  0  0  0  0  0  0  0  0  0  0
   37.7690   29.9340   37.9370 H   0  0  0  0  0  0  0  0  0  0  0  0
   37.5630   32.2700   37.6300 H   0  0  0  0  0  0  0  0  0  0  0  0
   36.2250   31.9920   38.8840 H   0  0  0  0  0  0  0  0  0  0  0  0
   38.0270   33.8380   39.5100 H   0  0  0  0  0  0  0  0  0  0  0  0
   37.7870   32.4020   40.6560 H   0  0  0  0  0  0  0  0  0  0  0  0
   41.1740   33.2800   38.0740 C   0  0  0  0  0  0  0  0  0  0  0  0
   40.7080   32.9540   39.3510 C   0  0  0  0  0  0  0  0  0  0  0  0
   41.4550   33.3040   40.4550 C   0  0  0  0  0  0  0  0  0  0  0  0
   41.0620   33.0350   41.4110 H   0  0  0  0  0  0  0  0  0  0  0  0
   42.6620   33.9820   40.2570 C   0  0  0  0  0  3  0  0  0  0  0  0
   43.1100   34.2990   38.9790 C   0  0  0  0  0  3  0  0  0  0  0  0
   42.3640   33.9490   37.8690 C   0  0  0  0  0  0  0  0  0  0  0  0
   40.4530   32.9470   36.9270 O   0  0  0  0  0  0  0  0  0  0  0  0
   39.6780   33.5240   36.5980 H   0  0  0  0  0  0  0  0  0  0  0  0
   42.7950   34.2580   36.5730 O   0  0  0  0  0  0  0  0  0  0  0  0
   42.0980   34.7690   36.0080 H   0  0  0  0  0  0  0  0  0  0  0  0
   38.0200   27.2620   43.7190 C   0  0  1  0  0  0  0  0  0  0  0  0
   37.4370   28.5720   43.3220 C   0  0  2  0  0  0  0  0  0  0  0  0
   36.6080   27.6000   43.9990 C   0  0  0  0  0  0  0  0  0  0  0  0
   38.7760   27.3320   44.5260 H   0  0  0  0  0  0  0  0  0  0  0  0
   37.7640   29.4750   43.9230 H   0  0  0  0  0  0  0  0  0  0  0  0
   35.7760   27.0630   43.4840 H   0  0  0  0  0  0  0  0  0  0  0  0
   36.3070   27.8120   45.0670 H   0  0  0  0  0  0  0  0  0  0  0  0
   39.6950   26.1180   42.2820 C   0  0  0  0  0  0  0  0  0  0  0  0
   38.3750   26.2270   42.7150 C   0  0  0  0  0  0  0  0  0  0  0  0
   37.4670   25.3400   42.1850 C   0  0  0  0  0  0  0  0  0  0  0  0
   37.9100   24.4250   41.2830 N   0  0  0  0  0  0  0  0  0  0  0  0
   39.1710   24.3430   40.8860 C   0  0  0  0  0  0  0  0  0  0  0  0
   40.0690   25.2050   41.3980 N   0  0  0  0  0  0  0  0  0  0  0  0
   40.4440   26.8090   42.6840 H   0  0  0  0  0  0  0  0  0  0  0  0
   36.4430   25.3830   42.4850 H   0  0  0  0  0  0  0  0  0  0  0  0
   39.5520   23.6250   40.1700 H   0  0  0  0  0  0  0  0  0  0  0  0
  1 30  1  0  0  0  0
  2  1  1  0  0  0  0
  3  2  2  0  0  0  0
  4  3  1  0  0  0  0
  4  5  1  0  0  0  0
  5  1  2  0  0  0  0
  6  3  1  0  0  0  0
  7  8  2  0  0  0  0
  8 12  1  0  0  0  0
  9 13  1  6  0  0  0
  9  8  1  0  0  0  0
  9  4  1  0  0  0  0
 10  9  1  0  0  0  0
 10 15  1  0  0  0  0
 10 11  1  0  0  0  0
 11 17  1  0  0  0  0
 12 11  1  0  0  0  0
 14 10  1  0  0  0  0
 16 11  1  0  0  0  0
 18 19  1  0  0  0  0
 19 12  1  0  0  0  0
 19 20  2  0  0  0  0
 20 21  1  0  0  0  0
 22 20  1  0  0  0  0
 23 22  2  0  0  0  0
 24 18  2  0  0  0  0
 24 23  1  0  0  0  0
 25 18  1  0  0  0  0
 26 25  1  0  0  0  0
 27 24  1  0  0  0  0
 28 27  1  0  0  0  0
 29 31  1  0  0  0  0
 29 32  1  1  0  0  0
 30 29  1  0  0  0  0
 30 33  1  1  0  0  0
 30 31  1  0  0  0  0
 31 35  1  0  0  0  0
 34 31  1  0  0  0  0
 36 42  1  0  0  0  0
 36 37  1  0  0  0  0
 37 29  1  0  0  0  0
 38 43  1  0  0  0  0
 38 37  2  0  0  0  0
 39 38  1  0  0  0  0
 40 39  2  0  0  0  0
 40 41  1  0  0  0  0
 41 36  2  0  0  0  0
 44 40  1  0  0  0  0
M  END
>  <minimizedAffinity>
-7.36374187

$$$$

 OpenBabel03242516473D

 44 48  0  0  1  0  0  0  0  0999 V2000
   36.9560   28.9190   41.8000 C   0  0  0  0  0  0  0  0  0  0  0  0
   35.8860   28.7290   41.0040 N   0  0  0  0  0  0  0  0  0  0  0  0
   36.0640   29.2870   39.8110 C   0  0  0  0  0  0  0  0  0  0  0  0
   37.2970   29.8570   39.8430 N   0  0  0  0  0  0  0  0  0  0  0  0
   37.8500   29.6480   41.0280 N   0  0  0  0  0  0  0  0  0  0  0  0
   35.4540   29.3550   38.9140 H   0  0  0  0  0  0  0  0  0  0  0  0
   40.3120   30.0490   39.1650 O   0  0  0  0  0  0  0  0  0  0  0  0
   39.3750   30.9070   39.1420 C   0  0  0  0  0  0  0  0  0  0  0  0
   37.9680   30.5930   38.7740 C   0  0  2  0  0  0  0  0  0  0  0  0
   37.3540   31.9650   38.5890 C   0  0  0  0  0  0  0  0  0  0  0  0
   38.0930   32.7800   39.6470 C   0  0  0  0  0  0  0  0  0  0  0  0
   39.4560   32.3150   39.4540 N   0  0  0  0  0  0  0  0  0  0  0  0
   37.9090   29.9870   37.8570 H   0  0  0  0  0  0  0  0  0  0  0  0
   37.6820   32.3250   37.5850 H   0  0  0  0  0  0  0  0  0  0  0  0
   36.2660   31.9960   38.7370 H   0  0  0  0  0  0  0  0  0  0  0  0
   37.9850   33.8590   39.5240 H   0  0  0  0  0  0  0  0  0  0  0  0
   37.6940   32.3950   40.6210 H   0  0  0  0  0  0  0  0  0  0  0  0
   41.2490   33.0800   40.8120 C   0  0  0  0  0  0  0  0  0  0  0  0
   40.6870   33.0250   39.5330 C   0  0  0  0  0  0  0  0  0  0  0  0
   41.3350   33.6370   38.4820 C   0  0  0  0  0  0  0  0  0  0  0  0
   40.8710   33.5700   37.5220 H   0  0  0  0  0  0  0  0  0  0  0  0
   42.5420   34.2950   38.7330 C   0  0  0  0  0  3  0  0  0  0  0  0
   43.0870   34.3400   40.0120 C   0  0  0  0  0  3  0  0  0  0  0  0
   42.4410   33.7270   41.0700 C   0  0  0  0  0  0  0  0  0  0  0  0
   40.6310   32.4760   41.9070 O   0  0  0  0  0  0  0  0  0  0  0  0
   40.7380   31.4780   42.0960 H   0  0  0  0  0  0  0  0  0  0  0  0
   42.9700   33.7590   42.3650 O   0  0  0  0  0  0  0  0  0  0  0  0
   43.0680   32.8290   42.8030 H   0  0  0  0  0  0  0  0  0  0  0  0
   37.7750   27.1730   43.5860 C   0  0  1  0  0  0  0  0  0  0  0  0
   37.2360   28.4980   43.1760 C   0  0  2  0  0  0  0  0  0  0  0  0
   36.3550   27.5280   43.7880 C   0  0  0  0  0  0  0  0  0  0  0  0
   38.4840   27.2200   44.4360 H   0  0  0  0  0  0  0  0  0  0  0  0
   37.5400   29.3860   43.8090 H   0  0  0  0  0  0  0  0  0  0  0  0
   35.5460   27.0130   43.2170 H   0  0  0  0  0  0  0  0  0  0  0  0
   35.9950   27.7290   44.8400 H   0  0  0  0  0  0  0  0  0  0  0  0
   39.4870   26.1200   42.1220 C   0  0  0  0  0  0  0  0  0  0  0  0
   38.1740   26.1480   42.5870 C   0  0  0  0  0  0  0  0  0  0  0  0
   37.3140   25.1950   42.0940 C   0  0  0  0  0  0  0  0  0  0  0  0
   37.7940   24.2960   41.1950 N   0  0  0  0  0  0  0  0  0  0  0  0
   39.0470   24.2910   40.7670 C   0  0  0  0  0  0  0  0  0  0  0  0
   39.8980   25.2190   41.2430 N   0  0  0  0  0  0  0  0  0  0  0  0
   40.1980   26.8650   42.4950 H   0  0  0  0  0  0  0  0  0  0  0  0
   36.2970   25.1740   42.4200 H   0  0  0  0  0  0  0  0  0  0  0  0
   39.4580   23.5880   40.0520 H   0  0  0  0  0  0  0  0  0  0  0  0
  1 30  1  0  0  0  0
  2  1  1  0  0  0  0
  3  4  1  0  0  0  0
  3  2  2  0  0  0  0
  4  5  1  0  0  0  0
  5  1  2  0  0  0  0
  6  3  1  0  0  0  0
  8  7  2  0  0  0  0
  8 12  1  0  0  0  0
  9 13  1  6  0  0  0
  9  8  1  0  0  0  0
  9  4  1  0  0  0  0
 10 15  1  0  0  0  0
 10  9  1  0  0  0  0
 10 11  1  0  0  0  0
 11 17  1  0  0  0  0
 12 19  1  0  0  0  0
 12 11  1  0  0  0  0
 14 10  1  0  0  0  0
 16 11  1  0  0  0  0
 18 24  1  0  0  0  0
 18 25  1  0  0  0  0
 19 18  2  0  0  0  0
 20 22  2  0  0  0  0
 20 19  1  0  0  0  0
 21 20  1  0  0  0  0
 22 23  1  0  0  0  0
 23 24  2  0  0  0  0
 24 27  1  0  0  0  0
 25 26  1  0  0  0  0
 27 28  1  0  0  0  0
 29 31  1  0  0  0  0
 29 32  1  1  0  0  0
 30 29  1  0  0  0  0
 30 31  1  0  0  0  0
 30 33  1  1  0  0  0
 31 35  1  0  0  0  0
 34 31  1  0  0  0  0
 36 42  1  0  0  0  0
 36 37  1  0  0  0  0
 37 29  1  0  0  0  0
 38 43  1  0  0  0  0
 38 37  2  0  0  0  0
 39 38  1  0  0  0  0
 40 39  2  0  0  0  0
 40 41  1  0  0  0  0
 41 36  2  0  0  0  0
 44 40  1  0  0  0  0
M  END
>  <minimizedAffinity>
-6.58563948

$$$$

 OpenBabel03242516473D

 44 48  0  0  1  0  0  0  0  0999 V2000
   36.3800   28.3710   41.2980 C   0  0  0  0  0  0  0  0  0  0  0  0
   35.2980   28.9160   40.7110 N   0  0  0  0  0  0  0  0  0  0  0  0
   35.6120   29.4980   39.5590 C   0  0  0  0  0  0  0  0  0  0  0  0
   36.9500   29.3200   39.4010 N   0  0  0  0  0  0  0  0  0  0  0  0
   37.4310   28.6450   40.4340 N   0  0  0  0  0  0  0  0  0  0  0  0
   35.0400   30.0340   38.8060 H   0  0  0  0  0  0  0  0  0  0  0  0
   40.0290   29.5950   39.2270 O   0  0  0  0  0  0  0  0  0  0  0  0
   39.0810   30.3130   38.7810 C   0  0  0  0  0  0  0  0  0  0  0  0
   37.7850   29.7700   38.2900 C   0  0  2  0  0  0  0  0  0  0  0  0
   37.1650   30.9610   37.5890 C   0  0  0  0  0  0  0  0  0  0  0  0
   37.6520   32.1180   38.4570 C   0  0  0  0  0  0  0  0  0  0  0  0
   39.0440   31.7520   38.6540 N   0  0  0  0  0  0  0  0  0  0  0  0
   37.9300   28.9180   37.6080 H   0  0  0  0  0  0  0  0  0  0  0  0
   37.6660   31.0400   36.5960 H   0  0  0  0  0  0  0  0  0  0  0  0
   36.0680   30.9290   37.5310 H   0  0  0  0  0  0  0  0  0  0  0  0
   37.5270   33.0980   37.9920 H   0  0  0  0  0  0  0  0  0  0  0  0
   37.0870   32.0010   39.4180 H   0  0  0  0  0  0  0  0  0  0  0  0
   40.4560   33.1290   39.9800 C   0  0  0  0  0  0  0  0  0  0  0  0
   40.2070   32.5700   38.7230 C   0  0  0  0  0  0  0  0  0  0  0  0
   41.0680   32.8370   37.6800 C   0  0  0  0  0  0  0  0  0  0  0  0
   40.8400   32.3900   36.7370 H   0  0  0  0  0  0  0  0  0  0  0  0
   42.1690   33.6650   37.9190 C   0  0  0  0  0  3  0  0  0  0  0  0
   42.4010   34.2120   39.1760 C   0  0  0  0  0  3  0  0  0  0  0  0
   41.5400   33.9460   40.2250 C   0  0  0  0  0  0  0  0  0  0  0  0
   39.6130   32.8860   41.0650 O   0  0  0  0  0  0  0  0  0  0  0  0
   39.6960   32.0360   41.6240 H   0  0  0  0  0  0  0  0  0  0  0  0
   41.7540   34.4860   41.4990 O   0  0  0  0  0  0  0  0  0  0  0  0
   41.7680   33.7840   42.2570 H   0  0  0  0  0  0  0  0  0  0  0  0
   37.7530   27.6350   43.4160 C   0  0  1  0  0  0  0  0  0  0  0  0
   36.5410   27.6290   42.5530 C   0  0  2  0  0  0  0  0  0  0  0  0
   37.4160   26.4780   42.5600 C   0  0  0  0  0  0  0  0  0  0  0  0
   37.5320   27.6040   44.5010 H   0  0  0  0  0  0  0  0  0  0  0  0
   35.5450   27.5190   43.0790 H   0  0  0  0  0  0  0  0  0  0  0  0
   38.0520   26.2060   41.6840 H   0  0  0  0  0  0  0  0  0  0  0  0
   37.0440   25.5330   43.0550 H   0  0  0  0  0  0  0  0  0  0  0  0
   40.1450   27.9040   42.7930 C   0  0  0  0  0  0  0  0  0  0  0  0
   38.9250   28.4960   43.1130 C   0  0  0  0  0  0  0  0  0  0  0  0
   38.8770   29.8710   43.1120 C   0  0  0  0  0  0  0  0  0  0  0  0
   40.0090   30.5560   42.8050 N   0  0  0  0  0  0  0  0  0  0  0  0
   41.1580   29.9690   42.5060 C   0  0  0  0  0  0  0  0  0  0  0  0
   41.2180   28.6240   42.5020 N   0  0  0  0  0  0  0  0  0  0  0  0
   40.2180   26.8110   42.7840 H   0  0  0  0  0  0  0  0  0  0  0  0
   37.9640   30.3720   43.3500 H   0  0  0  0  0  0  0  0  0  0  0  0
   42.0760   30.4880   42.2570 H   0  0  0  0  0  0  0  0  0  0  0  0
  1 30  1  0  0  0  0
  2  1  1  0  0  0  0
  3  2  2  0  0  0  0
  4  3  1  0  0  0  0
  4  5  1  0  0  0  0
  5  1  2  0  0  0  0
  6  3  1  0  0  0  0
  8  7  2  0  0  0  0
  9 13  1  6  0  0  0
  9  8  1  0  0  0  0
  9  4  1  0  0  0  0
 10  9  1  0  0  0  0
 10 11  1  0  0  0  0
 11 12  1  0  0  0  0
 11 17  1  0  0  0  0
 12 19  1  0  0  0  0
 12  8  1  0  0  0  0
 14 10  1  0  0  0  0
 15 10  1  0  0  0  0
 16 11  1  0  0  0  0
 18 24  1  0  0  0  0
 18 25  1  0  0  0  0
 19 18  2  0  0  0  0
 20 22  2  0  0  0  0
 20 19  1  0  0  0  0
 21 20  1  0  0  0  0
 22 23  1  0  0  0  0
 23 24  2  0  0  0  0
 24 27  1  0  0  0  0
 25 26  1  0  0  0  0
 27 28  1  0  0  0  0
 29 32  1  1  0  0  0
 30 31  1  0  0  0  0
 30 33  1  1  0  0  0
 30 29  1  0  0  0  0
 31 35  1  0  0  0  0
 31 29  1  0  0  0  0
 34 31  1  0  0  0  0
 36 37  1  0  0  0  0
 37 29  1  0  0  0  0
 38 37  2  0  0  0  0
 38 43  1  0  0  0  0
 39 38  1  0  0  0  0
 40 39  2  0  0  0  0
 41 40  1  0  0  0  0
 41 36  2  0  0  0  0
 42 36  1  0  0  0  0
 44 40  1  0  0  0  0
M  END
>  <minimizedAffinity>
-6.54600382

$$$$

 OpenBabel03242516473D

 44 48  0  0  1  0  0  0  0  0999 V2000
   36.9250   26.3250   41.6400 C   0  0  0  0  0  0  0  0  0  0  0  0
   36.5530   26.8960   40.4780 N   0  0  0  0  0  0  0  0  0  0  0  0
   36.7690   28.2070   40.4900 C   0  0  0  0  0  0  0  0  0  0  0  0
   37.3020   28.4880   41.7090 N   0  0  0  0  0  0  0  0  0  0  0  0
   37.4040   27.3720   42.4140 N   0  0  0  0  0  0  0  0  0  0  0  0
   36.6080   29.0020   39.7680 H   0  0  0  0  0  0  0  0  0  0  0  0
   37.1530   31.2780   40.3730 O   0  0  0  0  0  0  0  0  0  0  0  0
   38.0330   30.7270   41.1060 C   0  0  0  0  0  0  0  0  0  0  0  0
   37.7210   29.7910   42.2200 C   0  0  2  0  0  0  0  0  0  0  0  0
   39.0420   29.6890   42.9540 C   0  0  0  0  0  0  0  0  0  0  0  0
   40.0420   29.7900   41.8050 C   0  0  0  0  0  0  0  0  0  0  0  0
   39.4680   30.8760   41.0310 N   0  0  0  0  0  0  0  0  0  0  0  0
   36.9180   30.1760   42.8660 H   0  0  0  0  0  0  0  0  0  0  0  0
   39.1330   30.6130   43.5720 H   0  0  0  0  0  0  0  0  0  0  0  0
   39.1700   28.7590   43.5250 H   0  0  0  0  0  0  0  0  0  0  0  0
   41.0660   29.9870   42.1300 H   0  0  0  0  0  0  0  0  0  0  0  0
   39.9260   28.8230   41.2510 H   0  0  0  0  0  0  0  0  0  0  0  0
   40.0570   31.7900   38.9180 C   0  0  0  0  0  0  0  0  0  0  0  0
   40.1050   31.9250   40.3090 C   0  0  0  0  0  0  0  0  0  0  0  0
   40.7390   33.0160   40.8620 C   0  0  0  0  0  0  0  0  0  0  0  0
   40.7520   33.0790   41.9280 H   0  0  0  0  0  0  0  0  0  0  0  0
   41.3160   33.9580   40.0050 C   0  0  0  0  0  3  0  0  0  0  0  0
   41.2580   33.8080   38.6230 C   0  0  0  0  0  3  0  0  0  0  0  0
   40.6230   32.7150   38.0640 C   0  0  0  0  0  0  0  0  0  0  0  0
   39.4250   30.7030   38.3120 O   0  0  0  0  0  0  0  0  0  0  0  0
   38.4150   30.6840   38.1710 H   0  0  0  0  0  0  0  0  0  0  0  0
   40.5520   32.5430   36.6770 O   0  0  0  0  0  0  0  0  0  0  0  0
   39.5940   32.3960   36.3190 H   0  0  0  0  0  0  0  0  0  0  0  0
   38.0610   24.0190   42.1880 C   0  0  1  0  0  0  0  0  0  0  0  0
   36.8900   24.9330   42.0990 C   0  0  2  0  0  0  0  0  0  0  0  0
   37.0510   23.8850   41.1170 C   0  0  0  0  0  0  0  0  0  0  0  0
   38.0350   23.3390   43.0620 H   0  0  0  0  0  0  0  0  0  0  0  0
   36.0760   24.7910   42.8730 H   0  0  0  0  0  0  0  0  0  0  0  0
   37.3100   24.0970   40.0520 H   0  0  0  0  0  0  0  0  0  0  0  0
   36.3390   23.0080   41.1560 H   0  0  0  0  0  0  0  0  0  0  0  0
   40.3280   24.7150   42.9360 C   0  0  0  0  0  0  0  0  0  0  0  0
   39.4400   24.4820   41.8870 C   0  0  0  0  0  0  0  0  0  0  0  0
   39.9100   24.6850   40.6110 C   0  0  0  0  0  0  0  0  0  0  0  0
   41.1960   25.0960   40.4550 N   0  0  0  0  0  0  0  0  0  0  0  0
   42.0210   25.3110   41.4680 C   0  0  0  0  0  0  0  0  0  0  0  0
   41.5720   25.1150   42.7220 N   0  0  0  0  0  0  0  0  0  0  0  0
   39.9850   24.5620   43.9640 H   0  0  0  0  0  0  0  0  0  0  0  0
   39.2680   24.5200   39.7730 H   0  0  0  0  0  0  0  0  0  0  0  0
   43.0500   25.6380   41.3750 H   0  0  0  0  0  0  0  0  0  0  0  0
  1 30  1  0  0  0  0
  1  5  2  0  0  0  0
  2  3  2  0  0  0  0
  2  1  1  0  0  0  0
  3  4  1  0  0  0  0
  4  9  1  0  0  0  0
  4  5  1  0  0  0  0
  6  3  1  0  0  0  0
  7  8  2  0  0  0  0
  8  9  1  0  0  0  0
  9 13  1  1  0  0  0
  9 10  1  0  0  0  0
 10 15  1  0  0  0  0
 10 14  1  0  0  0  0
 11 16  1  0  0  0  0
 11 10  1  0  0  0  0
 12  8  1  0  0  0  0
 12 11  1  0  0  0  0
 17 11  1  0  0  0  0
 18 19  1  0  0  0  0
 19 20  2  0  0  0  0
 19 12  1  0  0  0  0
 20 21  1  0  0  0  0
 22 20  1  0  0  0  0
 23 22  2  0  0  0  0
 24 23  1  0  0  0  0
 24 18  2  0  0  0  0
 25 18  1  0  0  0  0
 26 25  1  0  0  0  0
 27 24  1  0  0  0  0
 28 27  1  0  0  0  0
 29 32  1  1  0  0  0
 30 29  1  0  0  0  0
 30 33  1  1  0  0  0
 31 35  1  0  0  0  0
 31 30  1  0  0  0  0
 31 29  1  0  0  0  0
 34 31  1  0  0  0  0
 36 42  1  0  0  0  0
 37 29  1  0  0  0  0
 37 36  2  0  0  0  0
 38 37  1  0  0  0  0
 39 38  2  0  0  0  0
 39 40  1  0  0  0  0
 40 41  2  0  0  0  0
 41 36  1  0  0  0  0
 43 38  1  0  0  0  0
 44 40  1  0  0  0  0
M  END
>  <minimizedAffinity>
-6.42891359

$$$$

 OpenBabel03242516473D

 44 48  0  0  1  0  0  0  0  0999 V2000
   38.3640   29.4800   42.4530 C   0  0  0  0  0  0  0  0  0  0  0  0
   39.3330   30.4120   42.5360 N   0  0  0  0  0  0  0  0  0  0  0  0
   39.7380   30.7990   41.3320 C   0  0  0  0  0  0  0  0  0  0  0  0
   38.9990   30.0880   40.4400 N   0  0  0  0  0  0  0  0  0  0  0  0
   38.1670   29.2900   41.0920 N   0  0  0  0  0  0  0  0  0  0  0  0
   40.4800   31.5120   40.9810 H   0  0  0  0  0  0  0  0  0  0  0  0
   37.0480   31.4160   38.4350 O   0  0  0  0  0  0  0  0  0  0  0  0
   37.7020   30.3260   38.3980 C   0  0  0  0  0  0  0  0  0  0  0  0
   39.0590   30.1500   38.9820 C   0  0  2  0  0  0  0  0  0  0  0  0
   39.5070   28.8260   38.3980 C   0  0  0  0  0  0  0  0  0  0  0  0
   38.1910   28.0550   38.3360 C   0  0  0  0  0  0  0  0  0  0  0  0
   37.2970   29.0710   37.8090 N   0  0  0  0  0  0  0  0  0  0  0  0
   39.7350   30.9730   38.7050 H   0  0  0  0  0  0  0  0  0  0  0  0
   39.8330   29.0350   37.3520 H   0  0  0  0  0  0  0  0  0  0  0  0
   40.2600   28.2990   39.0000 H   0  0  0  0  0  0  0  0  0  0  0  0
   38.2370   27.1580   37.7160 H   0  0  0  0  0  0  0  0  0  0  0  0
   37.9410   27.8470   39.4090 H   0  0  0  0  0  0  0  0  0  0  0  0
   36.5910   28.7070   35.5700 C   0  0  0  0  0  0  0  0  0  0  0  0
   36.2140   28.9540   36.8930 C   0  0  0  0  0  0  0  0  0  0  0  0
   34.8760   29.0630   37.2070 C   0  0  0  0  0  0  0  0  0  0  0  0
   34.6330   29.2510   38.2300 H   0  0  0  0  0  0  0  0  0  0  0  0
   33.9360   28.9200   36.1830 C   0  0  0  0  0  3  0  0  0  0  0  0
   34.3290   28.6750   34.8710 C   0  0  0  0  0  3  0  0  0  0  0  0
   35.6700   28.5650   34.5520 C   0  0  0  0  0  0  0  0  0  0  0  0
   37.9320   28.5880   35.2030 O   0  0  0  0  0  0  0  0  0  0  0  0
   38.4420   27.7120   35.3240 H   0  0  0  0  0  0  0  0  0  0  0  0
   36.0890   28.3180   33.2390 O   0  0  0  0  0  0  0  0  0  0  0  0
   36.7220   27.5080   33.1440 H   0  0  0  0  0  0  0  0  0  0  0  0
   37.8930   27.3870   43.9710 C   0  0  1  0  0  0  0  0  0  0  0  0
   37.6070   28.7640   43.4850 C   0  0  2  0  0  0  0  0  0  0  0  0
   36.7540   27.6720   43.0730 C   0  0  0  0  0  0  0  0  0  0  0  0
   37.7200   27.2490   45.0570 H   0  0  0  0  0  0  0  0  0  0  0  0
   37.1820   29.4910   44.2410 H   0  0  0  0  0  0  0  0  0  0  0  0
   36.7380   27.2880   42.0250 H   0  0  0  0  0  0  0  0  0  0  0  0
   35.7080   27.6270   43.4980 H   0  0  0  0  0  0  0  0  0  0  0  0
   38.9260   25.7420   42.4200 C   0  0  0  0  0  0  0  0  0  0  0  0
   39.0700   26.6170   43.4940 C   0  0  0  0  0  0  0  0  0  0  0  0
   40.3240   26.7270   44.0480 C   0  0  0  0  0  0  0  0  0  0  0  0
   41.3310   25.9840   43.5200 N   0  0  0  0  0  0  0  0  0  0  0  0
   41.1680   25.1570   42.4970 C   0  0  0  0  0  0  0  0  0  0  0  0
   39.9450   25.0410   41.9460 N   0  0  0  0  0  0  0  0  0  0  0  0
   37.9410   25.6300   41.9550 H   0  0  0  0  0  0  0  0  0  0  0  0
   40.4860   27.3860   44.8740 H   0  0  0  0  0  0  0  0  0  0  0  0
   41.9510   24.5530   42.0550 H   0  0  0  0  0  0  0  0  0  0  0  0
  1  2  1  0  0  0  0
  1 30  1  0  0  0  0
  3  2  2  0  0  0  0
  4  5  1  0  0  0  0
  4  3  1  0  0  0  0
  5  1  2  0  0  0  0
  6  3  1  0  0  0  0
  8  7  2  0  0  0  0
  8  9  1  0  0  0  0
  9 13  1  6  0  0  0
  9  4  1  0  0  0  0
 10  9  1  0  0  0  0
 10 15  1  0  0  0  0
 11 10  1  0  0  0  0
 11 17  1  0  0  0  0
 12 11  1  0  0  0  0
 12  8  1  0  0  0  0
 14 10  1  0  0  0  0
 16 11  1  0  0  0  0
 18 19  1  0  0  0  0
 19 20  2  0  0  0  0
 19 12  1  0  0  0  0
 20 21  1  0  0  0  0
 22 20  1  0  0  0  0
 23 22  2  0  0  0  0
 24 23  1  0  0  0  0
 24 18  2  0  0  0  0
 25 26  1  0  0  0  0
 25 18  1  0  0  0  0
 27 24  1  0  0  0  0
 28 27  1  0  0  0  0
 29 32  1  1  0  0  0
 30 29  1  0  0  0  0
 30 33  1  1  0  0  0
 31 30  1  0  0  0  0
 31 35  1  0  0  0  0
 31 29  1  0  0  0  0
 34 31  1  0  0  0  0
 36 37  1  0  0  0  0
 37 29  1  0  0  0  0
 37 38  2  0  0  0  0
 38 43  1  0  0  0  0
 39 38  1  0  0  0  0
 40 39  2  0  0  0  0
 41 36  2  0  0  0  0
 41 40  1  0  0  0  0
 42 36  1  0  0  0  0
 44 40  1  0  0  0  0
M  END
>  <minimizedAffinity>
-6.40172672

$$$$

 OpenBabel03242516473D

 44 48  0  0  1  0  0  0  0  0999 V2000
   36.8200   25.4240   39.6760 C   0  0  0  0  0  0  0  0  0  0  0  0
   37.5720   25.3290   38.5620 N   0  0  0  0  0  0  0  0  0  0  0  0
   37.4740   26.4240   37.8160 C   0  0  0  0  0  0  0  0  0  0  0  0
   36.6250   27.2550   38.4780 N   0  0  0  0  0  0  0  0  0  0  0  0
   36.2210   26.6730   39.5970 N   0  0  0  0  0  0  0  0  0  0  0  0
   37.9110   26.7320   36.8700 H   0  0  0  0  0  0  0  0  0  0  0  0
   38.3070   29.7020   37.6010 O   0  0  0  0  0  0  0  0  0  0  0  0
   37.2600   29.5950   38.3150 C   0  0  0  0  0  0  0  0  0  0  0  0
   36.1900   28.5900   38.0770 C   0  0  2  0  0  0  0  0  0  0  0  0
   35.0620   29.0840   38.9600 C   0  0  0  0  0  0  0  0  0  0  0  0
   35.8290   29.6630   40.1450 C   0  0  0  0  0  0  0  0  0  0  0  0
   36.8890   30.3870   39.4650 N   0  0  0  0  0  0  0  0  0  0  0  0
   35.8960   28.5470   37.0170 H   0  0  0  0  0  0  0  0  0  0  0  0
   34.5800   29.9300   38.4140 H   0  0  0  0  0  0  0  0  0  0  0  0
   34.3580   28.3010   39.2730 H   0  0  0  0  0  0  0  0  0  0  0  0
   35.2220   30.2990   40.7930 H   0  0  0  0  0  0  0  0  0  0  0  0
   36.2540   28.7660   40.6650 H   0  0  0  0  0  0  0  0  0  0  0  0
   38.6160   31.5320   40.6270 C   0  0  0  0  0  0  0  0  0  0  0  0
   37.5040   31.6300   39.7860 C   0  0  0  0  0  0  0  0  0  0  0  0
   37.0960   32.8700   39.3450 C   0  0  0  0  0  0  0  0  0  0  0  0
   36.2420   32.8990   38.7040 H   0  0  0  0  0  0  0  0  0  0  0  0
   37.8150   33.9960   39.7570 C   0  0  0  0  0  3  0  0  0  0  0  0
   38.9200   33.8790   40.5940 C   0  0  0  0  0  3  0  0  0  0  0  0
   39.3330   32.6370   41.0390 C   0  0  0  0  0  0  0  0  0  0  0  0
   39.0670   30.2990   41.0990 O   0  0  0  0  0  0  0  0  0  0  0  0
   39.6660   29.6980   40.5320 H   0  0  0  0  0  0  0  0  0  0  0  0
   40.4420   32.4960   41.8820 O   0  0  0  0  0  0  0  0  0  0  0  0
   41.1500   31.8280   41.5380 H   0  0  0  0  0  0  0  0  0  0  0  0
   37.2780   24.5620   42.1160 C   0  0  1  0  0  0  0  0  0  0  0  0
   36.6060   24.4960   40.7910 C   0  0  2  0  0  0  0  0  0  0  0  0
   37.6540   23.5510   41.1060 C   0  0  0  0  0  0  0  0  0  0  0  0
   36.6260   24.2790   42.9660 H   0  0  0  0  0  0  0  0  0  0  0  0
   35.5450   24.1010   40.7800 H   0  0  0  0  0  0  0  0  0  0  0  0
   38.6530   23.5790   40.6080 H   0  0  0  0  0  0  0  0  0  0  0  0
   37.3610   22.4750   41.2860 H   0  0  0  0  0  0  0  0  0  0  0  0
   39.5780   25.4640   42.3990 C   0  0  0  0  0  0  0  0  0  0  0  0
   38.2020   25.6710   42.4710 C   0  0  0  0  0  0  0  0  0  0  0  0
   37.7750   26.9190   42.8590 C   0  0  0  0  0  0  0  0  0  0  0  0
   38.7110   27.8610   43.1450 N   0  0  0  0  0  0  0  0  0  0  0  0
   40.0150   27.6400   43.0710 C   0  0  0  0  0  0  0  0  0  0  0  0
   40.4450   26.4220   42.6920 N   0  0  0  0  0  0  0  0  0  0  0  0
   39.9520   24.4810   42.0930 H   0  0  0  0  0  0  0  0  0  0  0  0
   36.7290   27.1270   42.9290 H   0  0  0  0  0  0  0  0  0  0  0  0
   40.7840   28.3700   43.2920 H   0  0  0  0  0  0  0  0  0  0  0  0
  1 30  1  0  0  0  0
  2  1  1  0  0  0  0
  3  4  1  0  0  0  0
  3  2  2  0  0  0  0
  4  5  1  0  0  0  0
  5  1  2  0  0  0  0
  6  3  1  0  0  0  0
  7  8  2  0  0  0  0
  8 12  1  0  0  0  0
  9 13  1  6  0  0  0
  9  8  1  0  0  0  0
  9  4  1  0  0  0  0
  9 10  1  0  0  0  0
 10 15  1  0  0  0  0
 10 11  1  0  0  0  0
 11 17  1  0  0  0  0
 11 16  1  0  0  0  0
 12 19  1  0  0  0  0
 12 11  1  0  0  0  0
 14 10  1  0  0  0  0
 18 24  1  0  0  0  0
 18 25  1  0  0  0  0
 19 18  2  0  0  0  0
 20 22  2  0  0  0  0
 20 19  1  0  0  0  0
 21 20  1  0  0  0  0
 22 23  1  0  0  0  0
 23 24  2  0  0  0  0
 24 27  1  0  0  0  0
 26 25  1  0  0  0  0
 28 27  1  0  0  0  0
 29 37  1  0  0  0  0
 29 32  1  1  0  0  0
 30 33  1  1  0  0  0
 30 31  1  0  0  0  0
 30 29  1  0  0  0  0
 31 35  1  0  0  0  0
 31 29  1  0  0  0  0
 34 31  1  0  0  0  0
 36 37  2  0  0  0  0
 36 41  1  0  0  0  0
 37 38  1  0  0  0  0
 38 43  1  0  0  0  0
 38 39  2  0  0  0  0
 40 39  1  0  0  0  0
 40 44  1  0  0  0  0
 41 40  2  0  0  0  0
 42 36  1  0  0  0  0
M  END
>  <minimizedAffinity>
-6.36034441

$$$$

 OpenBabel03242516473D

 44 48  0  0  1  0  0  0  0  0999 V2000
   38.6620   24.7100   42.3390 C   0  0  0  0  0  0  0  0  0  0  0  0
   39.8430   24.4290   42.9230 N   0  0  0  0  0  0  0  0  0  0  0  0
   40.4620   25.5340   43.3230 C   0  0  0  0  0  0  0  0  0  0  0  0
   39.6450   26.5660   42.9830 N   0  0  0  0  0  0  0  0  0  0  0  0
   38.5590   26.0930   42.3910 N   0  0  0  0  0  0  0  0  0  0  0  0
   41.4080   25.7280   43.8220 H   0  0  0  0  0  0  0  0  0  0  0  0
   37.6000   28.8850   43.1430 O   0  0  0  0  0  0  0  0  0  0  0  0
   38.7620   28.8040   42.6330 C   0  0  0  0  0  0  0  0  0  0  0  0
   39.8670   27.9920   43.2090 C   0  0  2  0  0  0  0  0  0  0  0  0
   41.0790   28.4830   42.4450 C   0  0  0  0  0  0  0  0  0  0  0  0
   40.4810   28.7700   41.0700 C   0  0  0  0  0  0  0  0  0  0  0  0
   39.2510   29.4490   41.4370 N   0  0  0  0  0  0  0  0  0  0  0  0
   39.9710   28.1500   44.2940 H   0  0  0  0  0  0  0  0  0  0  0  0
   41.3700   29.4570   42.9040 H   0  0  0  0  0  0  0  0  0  0  0  0
   41.9020   27.7570   42.3880 H   0  0  0  0  0  0  0  0  0  0  0  0
   41.1280   29.3690   40.4260 H   0  0  0  0  0  0  0  0  0  0  0  0
   40.2470   27.7560   40.6530 H   0  0  0  0  0  0  0  0  0  0  0  0
   38.9570   31.8020   41.2800 C   0  0  0  0  0  0  0  0  0  0  0  0
   38.5830   30.5390   40.8110 C   0  0  0  0  0  0  0  0  0  0  0  0
   37.6320   30.4390   39.8190 C   0  0  0  0  0  0  0  0  0  0  0  0
   37.3760   29.4560   39.4910 H   0  0  0  0  0  0  0  0  0  0  0  0
   37.0720   31.6150   39.3100 C   0  0  0  0  0  3  0  0  0  0  0  0
   37.4570   32.8630   39.7880 C   0  0  0  0  0  3  0  0  0  0  0  0
   38.4110   32.9680   40.7840 C   0  0  0  0  0  0  0  0  0  0  0  0
   39.9160   31.9520   42.2830 O   0  0  0  0  0  0  0  0  0  0  0  0
   40.9150   31.9300   42.0730 H   0  0  0  0  0  0  0  0  0  0  0  0
   38.8140   34.2130   41.2800 O   0  0  0  0  0  0  0  0  0  0  0  0
   39.8350   34.3640   41.2590 H   0  0  0  0  0  0  0  0  0  0  0  0
   37.4870   23.5260   40.3080 C   0  0  1  0  0  0  0  0  0  0  0  0
   37.6320   23.8460   41.7530 C   0  0  2  0  0  0  0  0  0  0  0  0
   36.5730   24.4660   40.9900 C   0  0  0  0  0  0  0  0  0  0  0  0
   37.1640   22.4860   40.1080 H   0  0  0  0  0  0  0  0  0  0  0  0
   37.3320   23.0360   42.4850 H   0  0  0  0  0  0  0  0  0  0  0  0
   36.5740   25.5540   40.7400 H   0  0  0  0  0  0  0  0  0  0  0  0
   35.5110   24.1340   41.1900 H   0  0  0  0  0  0  0  0  0  0  0  0
   38.2410   25.2210   38.6520 C   0  0  0  0  0  0  0  0  0  0  0  0
   38.4650   24.0070   39.2980 C   0  0  0  0  0  0  0  0  0  0  0  0
   39.6100   23.3220   38.9640 C   0  0  0  0  0  0  0  0  0  0  0  0
   40.4400   23.8650   38.0360 N   0  0  0  0  0  0  0  0  0  0  0  0
   40.2040   25.0220   37.4350 C   0  0  0  0  0  0  0  0  0  0  0  0
   39.0870   25.7020   37.7540 N   0  0  0  0  0  0  0  0  0  0  0  0
   37.3390   25.7930   38.8950 H   0  0  0  0  0  0  0  0  0  0  0  0
   39.8260   22.3860   39.4310 H   0  0  0  0  0  0  0  0  0  0  0  0
   40.8470   25.4800   36.6930 H   0  0  0  0  0  0  0  0  0  0  0  0
  1  5  2  0  0  0  0
  1  2  1  0  0  0  0
  2  3  2  0  0  0  0
  3  6  1  0  0  0  0
  4  9  1  0  0  0  0
  4  3  1  0  0  0  0
  5  4  1  0  0  0  0
  8  7  2  0  0  0  0
  8  9  1  0  0  0  0
  9 13  1  1  0  0  0
 10 14  1  0  0  0  0
 10  9  1  0  0  0  0
 11 12  1  0  0  0  0
 11 10  1  0  0  0  0
 12  8  1  0  0  0  0
 15 10  1  0  0  0  0
 16 11  1  0  0  0  0
 17 11  1  0  0  0  0
 18 25  1  0  0  0  0
 19 18  1  0  0  0  0
 19 12  1  0  0  0  0
 20 19  2  0  0  0  0
 21 20  1  0  0  0  0
 22 23  2  0  0  0  0
 22 20  1  0  0  0  0
 23 24  1  0  0  0  0
 24 27  1  0  0  0  0
 24 18  2  0  0  0  0
 26 25  1  0  0  0  0
 28 27  1  0  0  0  0
 29 32  1  6  0  0  0
 29 31  1  0  0  0  0
 29 30  1  0  0  0  0
 30  1  1  0  0  0  0
 30 33  1  1  0  0  0
 31 35  1  0  0  0  0
 31 30  1  0  0  0  0
 34 31  1  0  0  0  0
 36 42  1  0  0  0  0
 36 37  1  0  0  0  0
 37 29  1  0  0  0  0
 38 37  2  0  0  0  0
 38 43  1  0  0  0  0
 39 38  1  0  0  0  0
 40 41  1  0  0  0  0
 40 39  2  0  0  0  0
 41 36  2  0  0  0  0
 44 40  1  0  0  0  0
M  END
>  <minimizedAffinity>
-6.35419703

$$$$

 OpenBabel03242516473D

 44 48  0  0  1  0  0  0  0  0999 V2000
   37.2670   26.1730   39.1620 C   0  0  0  0  0  0  0  0  0  0  0  0
   36.0100   26.6100   38.9550 N   0  0  0  0  0  0  0  0  0  0  0  0
   35.9970   27.7310   38.2430 C   0  0  0  0  0  0  0  0  0  0  0  0
   37.2990   28.0260   37.9830 N   0  0  0  0  0  0  0  0  0  0  0  0
   38.0770   27.1030   38.5260 N   0  0  0  0  0  0  0  0  0  0  0  0
   35.2070   28.3800   37.8750 H   0  0  0  0  0  0  0  0  0  0  0  0
   40.2280   28.7760   37.3190 O   0  0  0  0  0  0  0  0  0  0  0  0
   39.2170   29.4780   37.6370 C   0  0  0  0  0  0  0  0  0  0  0  0
   37.8230   29.1610   37.2270 C   0  0  2  0  0  0  0  0  0  0  0  0
   37.0750   30.4340   37.5660 C   0  0  0  0  0  0  0  0  0  0  0  0
   37.8090   30.8990   38.8200 C   0  0  0  0  0  0  0  0  0  0  0  0
   39.1910   30.6850   38.4290 N   0  0  0  0  0  0  0  0  0  0  0  0
   37.7560   28.9150   36.1560 H   0  0  0  0  0  0  0  0  0  0  0  0
   37.2970   31.1590   36.7470 H   0  0  0  0  0  0  0  0  0  0  0  0
   36.0010   30.2910   37.7510 H   0  0  0  0  0  0  0  0  0  0  0  0
   37.5950   31.9330   39.0970 H   0  0  0  0  0  0  0  0  0  0  0  0
   37.5160   30.1540   39.6050 H   0  0  0  0  0  0  0  0  0  0  0  0
   40.7380   32.3380   37.7040 C   0  0  0  0  0  0  0  0  0  0  0  0
   40.3550   31.4530   38.7170 C   0  0  0  0  0  0  0  0  0  0  0  0
   41.0990   31.3870   39.8750 C   0  0  0  0  0  0  0  0  0  0  0  0
   40.7720   30.6980   40.6220 H   0  0  0  0  0  0  0  0  0  0  0  0
   42.2190   32.2150   39.9980 C   0  0  0  0  0  3  0  0  0  0  0  0
   42.5850   33.0890   38.9790 C   0  0  0  0  0  3  0  0  0  0  0  0
   41.8420   33.1590   37.8160 C   0  0  0  0  0  0  0  0  0  0  0  0
   40.0160   32.4400   36.5150 O   0  0  0  0  0  0  0  0  0  0  0  0
   39.1720   33.0120   36.4500 H   0  0  0  0  0  0  0  0  0  0  0  0
   42.1900   34.0310   36.7780 O   0  0  0  0  0  0  0  0  0  0  0  0
   41.4230   34.6510   36.4730 H   0  0  0  0  0  0  0  0  0  0  0  0
   38.1660   24.9530   41.3100 C   0  0  1  0  0  0  0  0  0  0  0  0
   37.7890   25.0000   39.8710 C   0  0  2  0  0  0  0  0  0  0  0  0
   39.1860   24.9900   40.2410 C   0  0  0  0  0  0  0  0  0  0  0  0
   37.9200   23.9930   41.8070 H   0  0  0  0  0  0  0  0  0  0  0  0
   37.3690   24.0480   39.4250 H   0  0  0  0  0  0  0  0  0  0  0  0
   39.8460   25.8800   40.1070 H   0  0  0  0  0  0  0  0  0  0  0  0
   39.7830   24.0530   40.0330 H   0  0  0  0  0  0  0  0  0  0  0  0
   39.0220   26.9760   42.4720 C   0  0  0  0  0  0  0  0  0  0  0  0
   37.9580   26.1140   42.2120 C   0  0  0  0  0  0  0  0  0  0  0  0
   36.7540   26.4070   42.8080 C   0  0  0  0  0  0  0  0  0  0  0  0
   36.6780   27.5060   43.6030 N   0  0  0  0  0  0  0  0  0  0  0  0
   37.7040   28.3100   43.8360 C   0  0  0  0  0  0  0  0  0  0  0  0
   38.8880   28.0340   43.2580 N   0  0  0  0  0  0  0  0  0  0  0  0
   39.9950   26.7720   42.0140 H   0  0  0  0  0  0  0  0  0  0  0  0
   35.9080   25.7760   42.6390 H   0  0  0  0  0  0  0  0  0  0  0  0
   37.6730   29.1920   44.4640 H   0  0  0  0  0  0  0  0  0  0  0  0
  1 30  1  0  0  0  0
  2  1  1  0  0  0  0
  3  2  2  0  0  0  0
  4  3  1  0  0  0  0
  4  5  1  0  0  0  0
  5  1  2  0  0  0  0
  6  3  1  0  0  0  0
  7  8  2  0  0  0  0
  8 12  1  0  0  0  0
  9 13  1  6  0  0  0
  9 10  1  0  0  0  0
  9  8  1  0  0  0  0
  9  4  1  0  0  0  0
 10 15  1  0  0  0  0
 10 11  1  0  0  0  0
 11 16  1  0  0  0  0
 11 17  1  0  0  0  0
 12 19  1  0  0  0  0
 12 11  1  0  0  0  0
 14 10  1  0  0  0  0
 18 24  2  0  0  0  0
 18 19  1  0  0  0  0
 19 20  2  0  0  0  0
 20 22  1  0  0  0  0
 20 21  1  0  0  0  0
 23 22  2  0  0  0  0
 24 23  1  0  0  0  0
 25 18  1  0  0  0  0
 26 25  1  0  0  0  0
 27 24  1  0  0  0  0
 28 27  1  0  0  0  0
 29 32  1  1  0  0  0
 29 37  1  0  0  0  0
 30 33  1  6  0  0  0
 30 31  1  0  0  0  0
 30 29  1  0  0  0  0
 31 29  1  0  0  0  0
 34 31  1  0  0  0  0
 35 31  1  0  0  0  0
 36 41  1  0  0  0  0
 37 36  2  0  0  0  0
 37 38  1  0  0  0  0
 38 39  2  0  0  0  0
 39 40  1  0  0  0  0
 40 44  1  0  0  0  0
 41 40  2  0  0  0  0
 42 36  1  0  0  0  0
 43 38  1  0  0  0  0
M  END
>  <minimizedAffinity>
-6.26382351

$$$$

 OpenBabel03242516473D

 44 48  0  0  1  0  0  0  0  0999 V2000
   36.2930   28.8820   39.9080 C   0  0  0  0  0  0  0  0  0  0  0  0
   35.8760   29.7230   40.8750 N   0  0  0  0  0  0  0  0  0  0  0  0
   36.2290   30.9770   40.6130 C   0  0  0  0  0  0  0  0  0  0  0  0
   36.9000   30.9390   39.4310 N   0  0  0  0  0  0  0  0  0  0  0  0
   36.9500   29.6910   38.9910 N   0  0  0  0  0  0  0  0  0  0  0  0
   36.0870   31.9220   41.1300 H   0  0  0  0  0  0  0  0  0  0  0  0
   39.6150   31.1230   37.9530 O   0  0  0  0  0  0  0  0  0  0  0  0
   38.9770   31.9520   38.6750 C   0  0  0  0  0  0  0  0  0  0  0  0
   37.4930   32.0590   38.7060 C   0  0  2  0  0  0  0  0  0  0  0  0
   37.2650   33.3650   39.4380 C   0  0  0  0  0  0  0  0  0  0  0  0
   38.4210   33.3670   40.4340 C   0  0  0  0  0  0  0  0  0  0  0  0
   39.5190   32.9320   39.5870 N   0  0  0  0  0  0  0  0  0  0  0  0
   37.0620   32.0730   37.6930 H   0  0  0  0  0  0  0  0  0  0  0  0
   37.4460   34.1800   38.6980 H   0  0  0  0  0  0  0  0  0  0  0  0
   36.2920   33.4350   39.9440 H   0  0  0  0  0  0  0  0  0  0  0  0
   38.5970   34.3380   40.9010 H   0  0  0  0  0  0  0  0  0  0  0  0
   38.1600   32.5570   41.1640 H   0  0  0  0  0  0  0  0  0  0  0  0
   41.6030   32.9840   40.7260 C   0  0  0  0  0  0  0  0  0  0  0  0
   40.8850   33.3320   39.5790 C   0  0  0  0  0  0  0  0  0  0  0  0
   41.5210   34.0100   38.5620 C   0  0  0  0  0  0  0  0  0  0  0  0
   40.9350   34.2560   37.7040 H   0  0  0  0  0  0  0  0  0  0  0  0
   42.8740   34.3270   38.7140 C   0  0  0  0  0  3  0  0  0  0  0  0
   43.5730   33.9720   39.8630 C   0  0  0  0  0  3  0  0  0  0  0  0
   42.9390   33.2920   40.8860 C   0  0  0  0  0  0  0  0  0  0  0  0
   41.0020   32.2960   41.7820 O   0  0  0  0  0  0  0  0  0  0  0  0
   40.8880   31.2820   41.7620 H   0  0  0  0  0  0  0  0  0  0  0  0
   43.6220   32.9240   42.0510 O   0  0  0  0  0  0  0  0  0  0  0  0
   43.5470   31.9210   42.2850 H   0  0  0  0  0  0  0  0  0  0  0  0
   36.9250   26.3930   40.4680 C   0  0  1  0  0  0  0  0  0  0  0  0
   36.1440   27.4330   39.7440 C   0  0  2  0  0  0  0  0  0  0  0  0
   37.1870   26.7130   39.0490 C   0  0  0  0  0  0  0  0  0  0  0  0
   36.3360   25.4920   40.7320 H   0  0  0  0  0  0  0  0  0  0  0  0
   35.0750   27.1720   39.4790 H   0  0  0  0  0  0  0  0  0  0  0  0
   38.1420   27.1980   38.7360 H   0  0  0  0  0  0  0  0  0  0  0  0
   36.8790   25.9620   38.2620 H   0  0  0  0  0  0  0  0  0  0  0  0
   39.2470   26.9120   41.1870 C   0  0  0  0  0  0  0  0  0  0  0  0
   37.9050   26.7460   41.5260 C   0  0  0  0  0  0  0  0  0  0  0  0
   37.5640   26.9380   42.8440 C   0  0  0  0  0  0  0  0  0  0  0  0
   38.5440   27.2730   43.7230 N   0  0  0  0  0  0  0  0  0  0  0  0
   39.8130   27.4240   43.3770 C   0  0  0  0  0  0  0  0  0  0  0  0
   40.1600   27.2390   42.0890 N   0  0  0  0  0  0  0  0  0  0  0  0
   39.5540   26.7670   40.1460 H   0  0  0  0  0  0  0  0  0  0  0  0
   36.5470   26.8220   43.1530 H   0  0  0  0  0  0  0  0  0  0  0  0
   40.6160   27.6900   44.0540 H   0  0  0  0  0  0  0  0  0  0  0  0
  1  2  1  0  0  0  0
  3  2  2  0  0  0  0
  3  6  1  0  0  0  0
  4  3  1  0  0  0  0
  5  4  1  0  0  0  0
  5  1  2  0  0  0  0
  7  8  2  0  0  0  0
  8  9  1  0  0  0  0
  8 12  1  0  0  0  0
  9 13  1  6  0  0  0
  9  4  1  0  0  0  0
  9 10  1  0  0  0  0
 10 15  1  0  0  0  0
 10 11  1  0  0  0  0
 11 16  1  0  0  0  0
 11 17  1  0  0  0  0
 12 11  1  0  0  0  0
 14 10  1  0  0  0  0
 18 24  1  0  0  0  0
 18 25  1  0  0  0  0
 19 12  1  0  0  0  0
 19 18  2  0  0  0  0
 20 22  2  0  0  0  0
 20 19  1  0  0  0  0
 21 20  1  0  0  0  0
 22 23  1  0  0  0  0
 23 24  2  0  0  0  0
 24 27  1  0  0  0  0
 26 25  1  0  0  0  0
 27 28  1  0  0  0  0
 29 32  1  1  0  0  0
 29 37  1  0  0  0  0
 30 33  1  6  0  0  0
 30  1  1  0  0  0  0
 30 29  1  0  0  0  0
 31 30  1  0  0  0  0
 31 29  1  0  0  0  0
 34 31  1  0  0  0  0
 35 31  1  0  0  0  0
 36 37  2  0  0  0  0
 36 41  1  0  0  0  0
 37 38  1  0  0  0  0
 38 43  1  0  0  0  0
 38 39  2  0  0  0  0
 40 39  1  0  0  0  0
 40 44  1  0  0  0  0
 41 40  2  0  0  0  0
 42 36  1  0  0  0  0
M  END
>  <minimizedAffinity>
-6.25958967

$$$$
