
 OpenBabel03252503473D

 46 49  0  0  1  0  0  0  0  0999 V2000
   46.4200   35.1320   42.3990 C   0  0  0  0  0  0  0  0  0  0  0  0
   46.4580   36.2020   42.6000 H   0  0  0  0  0  0  0  0  0  0  0  0
   47.4240   34.8610   41.9480 H   0  0  0  0  0  0  0  0  0  0  0  0
   45.3260   34.8080   41.4630 C   0  0  0  0  0  0  0  0  0  0  0  0
   44.1360   35.4830   41.3550 C   0  0  0  0  0  0  0  0  0  0  0  0
   43.1680   35.1260   40.4520 C   0  0  0  0  0  0  0  0  0  0  0  0
   43.4100   34.0390   39.6210 C   0  0  0  0  0  0  0  0  0  0  0  0
   44.6210   33.3420   39.7210 C   0  0  0  0  0  0  0  0  0  0  0  0
   45.5880   33.7310   40.6510 C   0  0  0  0  0  0  0  0  0  0  0  0
   44.0820   36.3080   42.0650 H   0  0  0  0  0  0  0  0  0  0  0  0
   42.3040   35.7490   40.4920 H   0  0  0  0  0  0  0  0  0  0  0  0
   42.5530   33.8770   38.9610 H   0  0  0  0  0  0  0  0  0  0  0  0
   44.5470   32.5560   38.9710 H   0  0  0  0  0  0  0  0  0  0  0  0
   47.5850   33.3050   39.5460 C   0  0  0  0  0  0  0  0  0  0  0  0
   46.6390   32.7550   40.4220 C   0  0  0  0  0  0  0  0  0  0  0  0
   46.8240   31.4650   40.8550 C   0  0  0  0  0  0  0  0  0  0  0  0
   46.0160   31.1760   41.5240 H   0  0  0  0  0  0  0  0  0  0  0  0
   47.9130   30.7340   40.4350 C   0  0  0  0  0  3  0  0  0  0  0  0
   48.8400   31.2800   39.5740 C   0  0  0  0  0  3  0  0  0  0  0  0
   48.6920   32.5720   39.1160 C   0  0  0  0  0  0  0  0  0  0  0  0
   47.5810   34.5990   38.9910 O   0  0  0  0  0  0  0  0  0  0  0  0
   47.2150   34.7790   38.0670 H   0  0  0  0  0  0  0  0  0  0  0  0
   49.6660   33.0490   38.2530 O   0  0  0  0  0  0  0  0  0  0  0  0
   49.7190   34.0540   38.0580 H   0  0  0  0  0  0  0  0  0  0  0  0
   45.2810   34.5980   44.5520 C   0  0  0  0  0  0  0  0  0  0  0  0
   46.2840   34.3660   43.6190 C   0  0  0  0  0  0  0  0  0  0  0  0
   47.1690   33.3300   43.9110 C   0  0  0  0  0  0  0  0  0  0  0  0
   47.0590   32.5880   45.0380 N   0  0  0  0  0  0  0  0  0  0  0  0
   46.0600   32.8540   45.9180 C   0  0  0  0  0  0  0  0  0  0  0  0
   45.1760   33.8530   45.6780 N   0  0  0  0  0  0  0  0  0  0  0  0
   44.6160   35.4090   44.2880 H   0  0  0  0  0  0  0  0  0  0  0  0
   48.0160   33.0450   43.3210 H   0  0  0  0  0  0  0  0  0  0  0  0
   47.3710   31.6990   47.6860 C   0  0  2  0  0  0  0  0  0  0  0  0
   45.9600   32.0360   47.1170 C   0  0  1  0  0  0  0  0  0  0  0  0
   45.4340   32.6370   48.2100 O   0  0  0  0  0  0  0  0  0  0  0  0
   45.7240   31.8650   49.2980 C   0  0  0  0  0  0  0  0  0  0  0  0
   46.9010   30.9740   48.9510 C   0  0  2  0  0  0  0  0  0  0  0  0
   47.8980   31.0240   46.9960 H   0  0  0  0  0  0  0  0  0  0  0  0
   45.4630   31.0640   46.9110 H   0  0  0  0  0  0  0  0  0  0  0  0
   44.8440   31.3140   49.6570 H   0  0  0  0  0  0  0  0  0  0  0  0
   46.0070   32.5730   50.1290 H   0  0  0  0  0  0  0  0  0  0  0  0
   46.5050   29.9800   48.7410 H   0  0  0  0  0  0  0  0  0  0  0  0
   47.9970   32.8260   48.0670 O   0  0  0  0  0  0  0  0  0  0  0  0
   48.9600   32.7540   47.8720 H   0  0  0  0  0  0  0  0  0  0  0  0
   47.8560   30.9170   49.9250 O   0  0  0  0  0  0  0  0  0  0  0  0
   48.6850   31.3710   49.6420 H   0  0  0  0  0  0  0  0  0  0  0  0
  1  2  1  0  0  0  0
  1 26  1  0  0  0  0
  3  1  1  0  0  0  0
  4  1  1  0  0  0  0
  5  4  1  0  0  0  0
  5 10  1  0  0  0  0
  6 11  1  0  0  0  0
  6  5  2  0  0  0  0
  7  8  2  0  0  0  0
  7  6  1  0  0  0  0
  8  9  1  0  0  0  0
  9  4  2  0  0  0  0
 12  7  1  0  0  0  0
 13  8  1  0  0  0  0
 14 15  1  0  0  0  0
 15  9  1  0  0  0  0
 15 16  2  0  0  0  0
 16 17  1  0  0  0  0
 18 16  1  0  0  0  0
 19 18  2  0  0  0  0
 20 14  2  0  0  0  0
 20 19  1  0  0  0  0
 21 14  1  0  0  0  0
 22 21  1  0  0  0  0
 23 20  1  0  0  0  0
 24 23  1  0  0  0  0
 25 30  1  0  0  0  0
 26 27  1  0  0  0  0
 26 25  2  0  0  0  0
 27 28  2  0  0  0  0
 28 29  1  0  0  0  0
 29 34  1  0  0  0  0
 30 29  2  0  0  0  0
 31 25  1  0  0  0  0
 32 27  1  0  0  0  0
 33 38  1  6  0  0  0
 33 43  1  0  0  0  0
 33 37  1  0  0  0  0
 34 39  1  6  0  0  0
 34 33  1  0  0  0  0
 34 35  1  0  0  0  0
 35 36  1  0  0  0  0
 36 40  1  0  0  0  0
 36 41  1  0  0  0  0
 37 42  1  6  0  0  0
 37 36  1  0  0  0  0
 37 45  1  0  0  0  0
 44 43  1  0  0  0  0
 46 45  1  0  0  0  0
M  END
>  <minimizedAffinity>
-7.01750517

>  <minimizedRMSD>
0.986624897

$$$$
