
 OpenBabel03252508153D

 39 42  0  0  1  0  0  0  0  0999 V2000
   45.6990   33.0930   46.1760 C   0  0  0  0  0  3  0  0  0  0  0  0
   46.0630   31.9550   45.7330 C   0  0  0  0  0  3  0  0  0  0  0  0
   44.5200   36.2000   44.5890 C   0  0  0  0  0  0  0  0  0  0  0  0
   45.1320   36.1500   43.3430 C   0  0  0  0  0  0  0  0  0  0  0  0
   45.9380   35.0890   43.0770 C   0  0  0  0  0  0  0  0  0  0  0  0
   46.0860   34.1540   44.0480 N   0  0  0  0  0  0  0  0  0  0  0  0
   45.5050   34.1870   45.2450 C   0  0  0  0  0  0  0  0  0  0  0  0
   44.7160   35.2410   45.4890 N   0  0  0  0  0  0  0  0  0  0  0  0
   43.8650   37.0280   44.8580 H   0  0  0  0  0  0  0  0  0  0  0  0
   44.9860   36.9090   42.6090 H   0  0  0  0  0  0  0  0  0  0  0  0
   46.3080   34.0390   40.7970 C   0  0  0  0  0  0  0  0  0  0  0  0
   46.6780   34.8240   41.8540 C   0  0  0  0  0  0  0  0  0  0  0  0
   47.9210   35.4050   41.6660 C   0  0  0  0  0  0  0  0  0  0  0  0
   48.3790   36.0690   42.4170 H   0  0  0  0  0  0  0  0  0  0  0  0
   48.6950   35.2140   40.5420 C   0  0  0  0  0  3  0  0  0  0  0  0
   48.2550   34.4080   39.5170 C   0  0  0  0  0  3  0  0  0  0  0  0
   47.0290   33.8110   39.6580 C   0  0  0  0  0  0  0  0  0  0  0  0
   45.0950   33.4110   40.8680 O   0  0  0  0  0  0  0  0  0  0  0  0
   44.3120   33.8480   40.3820 H   0  0  0  0  0  0  0  0  0  0  0  0
   46.5800   33.0070   38.6440 O   0  0  0  0  0  0  0  0  0  0  0  0
   46.2010   33.4750   37.8180 H   0  0  0  0  0  0  0  0  0  0  0  0
   46.2160   30.8670   46.7860 C   0  0  0  0  0  0  0  0  0  0  0  0
   45.3620   30.1750   46.5540 H   0  0  0  0  0  0  0  0  0  0  0  0
   47.1550   30.3230   46.6620 H   0  0  0  0  0  0  0  0  0  0  0  0
   45.9560   31.4320   48.1420 C   0  0  1  0  0  0  0  0  0  0  0  0
   45.7170   30.4600   49.2500 C   0  0  0  0  0  0  0  0  0  0  0  0
   46.9470   31.2290   49.2310 C   0  0  1  0  0  0  0  0  0  0  0  0
   45.3550   32.3820   48.1870 H   0  0  0  0  0  0  0  0  0  0  0  0
   45.7700   29.3750   48.9930 H   0  0  0  0  0  0  0  0  0  0  0  0
   44.9010   30.6770   49.9610 H   0  0  0  0  0  0  0  0  0  0  0  0
   46.9950   32.0600   49.9990 H   0  0  0  0  0  0  0  0  0  0  0  0
   48.2830   30.7140   48.8610 C   0  0  0  0  0  0  0  0  0  0  0  0
   49.2070   30.4240   50.0740 C   0  0  0  0  0  0  0  0  0  0  0  0
   49.4840   31.6130   49.2180 C   0  0  0  0  0  0  0  0  0  0  0  0
   48.4050   30.0120   48.0130 H   0  0  0  0  0  0  0  0  0  0  0  0
   49.8510   29.5460   50.0020 H   0  0  0  0  0  0  0  0  0  0  0  0
   48.8190   30.6640   51.0820 H   0  0  0  0  0  0  0  0  0  0  0  0
   50.3660   31.5150   48.5630 H   0  0  0  0  0  0  0  0  0  0  0  0
   49.2250   32.6240   49.5410 H   0  0  0  0  0  0  0  0  0  0  0  0
  2  1  2  0  0  0  0
  2 22  1  0  0  0  0
  3  9  1  0  0  0  0
  3  8  1  0  0  0  0
  4  3  2  0  0  0  0
  5  4  1  0  0  0  0
  5  6  2  0  0  0  0
  6  7  1  0  0  0  0
  7  8  2  0  0  0  0
  7  1  1  0  0  0  0
 10  4  1  0  0  0  0
 11 18  1  0  0  0  0
 11 12  1  0  0  0  0
 12  5  1  0  0  0  0
 13 12  2  0  0  0  0
 13 14  1  0  0  0  0
 15 13  1  0  0  0  0
 16 17  1  0  0  0  0
 16 15  2  0  0  0  0
 17 11  2  0  0  0  0
 19 18  1  0  0  0  0
 20 17  1  0  0  0  0
 21 20  1  0  0  0  0
 22 25  1  0  0  0  0
 23 22  1  0  0  0  0
 24 22  1  0  0  0  0
 25 28  1  1  0  0  0
 25 27  1  0  0  0  0
 25 26  1  0  0  0  0
 26 30  1  0  0  0  0
 27 26  1  0  0  0  0
 27 31  1  1  0  0  0
 29 26  1  0  0  0  0
 32 34  1  0  0  0  0
 32 27  1  0  0  0  0
 32 33  1  0  0  0  0
 33 37  1  0  0  0  0
 34 39  1  0  0  0  0
 34 33  1  0  0  0  0
 35 32  1  0  0  0  0
 36 33  1  0  0  0  0
 38 34  1  0  0  0  0
M  END
>  <minimizedAffinity>
-6.42193127

>  <minimizedRMSD>
0.913273931

$$$$
