
 OpenBabel03252500513D

 37 39  0  0  0  0  0  0  0  0999 V2000
   44.8470   35.0760   42.4450 C   0  0  0  0  0  0  0  0  0  0  0  0
   45.7650   35.2720   41.6230 O   0  0  0  0  0  0  0  0  0  0  0  0
   44.9070   34.9640   44.8820 C   0  0  0  0  0  0  0  0  0  0  0  0
   45.1580   34.3640   43.6740 C   0  0  0  0  0  0  0  0  0  0  0  0
   45.7140   33.0670   43.6040 C   0  0  0  0  0  0  0  0  0  0  0  0
   45.9800   32.4580   44.8050 N   0  0  0  0  0  0  0  0  0  0  0  0
   45.7330   33.0480   45.9700 C   0  0  0  0  0  0  0  0  0  0  0  0
   45.2020   34.2890   46.0060 N   0  0  0  0  0  0  0  0  0  0  0  0
   44.4910   35.9350   45.0100 H   0  0  0  0  0  0  0  0  0  0  0  0
   45.9180   32.5790   42.6690 H   0  0  0  0  0  0  0  0  0  0  0  0
   46.0320   32.3680   47.2210 C   0  0  0  0  0  0  0  0  0  0  0  0
   47.2970   32.0340   47.5900 C   0  0  0  0  0  0  0  0  0  0  0  0
   47.5930   31.3950   48.7630 C   0  0  0  0  0  0  0  0  0  0  0  0
   46.5560   31.0940   49.5750 N   0  0  0  0  0  0  0  0  0  0  0  0
   45.3180   31.4220   49.2090 C   0  0  0  0  0  0  0  0  0  0  0  0
   45.0010   32.0480   48.0680 N   0  0  0  0  0  0  0  0  0  0  0  0
   48.1300   32.2730   46.9430 H   0  0  0  0  0  0  0  0  0  0  0  0
   48.5930   31.1230   49.0700 H   0  0  0  0  0  0  0  0  0  0  0  0
   44.4690   31.1880   49.8480 H   0  0  0  0  0  0  0  0  0  0  0  0
   43.7010   35.6190   41.9400 O   0  0  0  0  0  0  0  0  0  0  0  0
   42.6460   34.8840   41.4680 C   0  0  0  0  0  0  0  0  0  0  0  0
   42.7850   34.8330   40.3440 H   0  0  0  0  0  0  0  0  0  0  0  0
   42.5910   33.8140   41.7470 H   0  0  0  0  0  0  0  0  0  0  0  0
   41.2930   35.5700   41.6060 C   0  0  0  0  0  0  0  0  0  0  0  0
   41.2900   36.5690   41.1600 H   0  0  0  0  0  0  0  0  0  0  0  0
   41.0090   35.5270   42.6640 H   0  0  0  0  0  0  0  0  0  0  0  0
   40.0480   34.9380   39.5010 C   0  0  0  0  0  0  0  0  0  0  0  0
   40.3180   34.7270   40.8440 C   0  0  0  0  0  0  0  0  0  0  0  0
   39.6390   33.6860   41.4700 C   0  0  0  0  0  0  0  0  0  0  0  0
   39.8690   33.5410   42.5200 H   0  0  0  0  0  0  0  0  0  0  0  0
   38.7240   32.8640   40.8280 C   0  0  0  0  0  3  0  0  0  0  0  0
   38.4820   33.1070   39.4840 C   0  0  0  0  0  3  0  0  0  0  0  0
   39.1320   34.1230   38.8410 C   0  0  0  0  0  0  0  0  0  0  0  0
   40.6890   35.9560   38.8260 O   0  0  0  0  0  0  0  0  0  0  0  0
   40.3480   36.3460   37.9550 H   0  0  0  0  0  0  0  0  0  0  0  0
   38.8280   34.2940   37.4980 O   0  0  0  0  0  0  0  0  0  0  0  0
   38.6010   33.5060   36.8890 H   0  0  0  0  0  0  0  0  0  0  0  0
  1  4  1  0  0  0  0
  2  1  2  0  0  0  0
  3  9  1  0  0  0  0
  3  8  1  0  0  0  0
  4  3  2  0  0  0  0
  5  4  1  0  0  0  0
  5  6  2  0  0  0  0
  6  7  1  0  0  0  0
  7  8  2  0  0  0  0
  7 11  1  0  0  0  0
 10  5  1  0  0  0  0
 11 12  2  0  0  0  0
 11 16  1  0  0  0  0
 12 13  1  0  0  0  0
 13 18  1  0  0  0  0
 13 14  2  0  0  0  0
 15 14  1  0  0  0  0
 15 19  1  0  0  0  0
 16 15  2  0  0  0  0
 17 12  1  0  0  0  0
 20  1  1  0  0  0  0
 21 24  1  0  0  0  0
 21 23  1  0  0  0  0
 21 20  1  0  0  0  0
 22 21  1  0  0  0  0
 24 26  1  0  0  0  0
 25 24  1  0  0  0  0
 27 28  1  0  0  0  0
 28 29  2  0  0  0  0
 28 24  1  0  0  0  0
 29 30  1  0  0  0  0
 31 29  1  0  0  0  0
 32 31  2  0  0  0  0
 33 32  1  0  0  0  0
 33 27  2  0  0  0  0
 34 27  1  0  0  0  0
 35 34  1  0  0  0  0
 36 33  1  0  0  0  0
 37 36  1  0  0  0  0
M  END
>  <minimizedAffinity>
-6.22916889

>  <minimizedRMSD>
0.689469874

$$$$
