REMARK  Name = 
REMARK  5 active torsions:
REMARK  status: ('A' for Active; 'I' for Inactive)
REMARK    1  A    between atoms: C_1  and  C_6
REMARK    2  A    between atoms: C_1  and  C_10
REMARK    3  A    between atoms: C_14  and  C_25
REMARK    4  A    between atoms: O_23  and  C_24
REMARK    5  A    between atoms: C_30  and  O_31
REMARK                            x       y       z     vdW  Elec       q    Type
REMARK                         _______ _______ _______ _____ _____    ______ ____
ROOT
ATOM      1 BR   UNL     1      45.440  29.760  45.125  0.00  0.00    +0.000 Br
ATOM      2  C   UNL     1      45.592  30.650  46.836  0.00  0.00    +0.000 A 
ATOM      3  C   UNL     1      46.291  31.826  46.847  0.00  0.00    +0.000 A 
ATOM      4  C   UNL     1      46.370  32.423  48.101  0.00  0.00    +0.000 A 
ATOM      5  C   UNL     1      45.809  31.905  49.240  0.00  0.00    +0.000 A 
ATOM      6  C   UNL     1      45.127  30.727  49.145  0.00  0.00    +0.000 A 
ATOM      7  C   UNL     1      44.999  30.067  47.942  0.00  0.00    +0.000 A 
ATOM      8  H   UNL     1      46.907  33.369  48.223  0.00  0.00    +0.000 HD
ATOM      9  H   UNL     1      45.893  32.402  50.199  0.00  0.00    +0.000 HD
ATOM     10  H   UNL     1      44.661  30.258  49.989  0.00  0.00    +0.000 HD
ENDROOT
BRANCH   7  12
ATOM     11  C   UNL     1      44.987  27.727  48.312  0.00  0.00    +0.000 A 
ATOM     12  C   UNL     1      44.269  28.792  47.805  0.00  0.00    +0.000 A 
ATOM     13  C   UNL     1      43.021  28.582  47.255  0.00  0.00    +0.000 A 
ATOM     14  H   UNL     1      42.551  29.480  46.891  0.00  0.00    +0.000 HD
ATOM     15  C   UNL     1      42.526  27.295  47.230  0.00  0.00    +0.000 A 
ATOM     16  C   UNL     1      43.240  26.228  47.735  0.00  0.00    +0.000 A 
ATOM     17  C   UNL     1      44.503  26.453  48.290  0.00  0.00    +0.000 A 
BRANCH  11  18
ATOM     18  O   UNL     1      46.262  27.823  48.893  0.00  0.00    +0.000 OA
ATOM     19  H   UNL     1      46.839  28.650  48.748  0.00  0.00    +0.000 HD
ENDBRANCH  11  18
BRANCH  17  20
ATOM     20  O   UNL     1      45.127  25.306  48.766  0.00  0.00    +0.000 OA
ATOM     21  H   UNL     1      45.794  24.864  48.116  0.00  0.00    +0.000 HD
ENDBRANCH  17  20
ENDBRANCH   7  12
BRANCH   3  22
ATOM     22  C   UNL     1      46.935  32.481  45.704  0.00  0.00    +0.000 C 
ATOM     23  H   UNL     1      47.944  32.826  46.008  0.00  0.00    +0.000 HD
ATOM     24  H   UNL     1      47.090  31.717  44.904  0.00  0.00    +0.000 HD
BRANCH  22  29
ATOM     25  C   UNL     1      44.573  35.339  45.343  0.00  0.00    +0.000 A 
ATOM     26  C   UNL     1      44.842  35.764  44.035  0.00  0.00    +0.000 A 
ATOM     27  C   UNL     1      45.811  35.075  43.314  0.00  0.00    +0.000 A 
ATOM     28  N   UNL     1      46.458  34.026  43.891  0.00  0.00    +0.000 NA
ATOM     29  C   UNL     1      46.171  33.637  45.173  0.00  0.00    +0.000 A 
ATOM     30  N   UNL     1      45.232  34.306  45.868  0.00  0.00    +0.000 NA
ATOM     31  H   UNL     1      43.812  35.905  45.865  0.00  0.00    +0.000 HD
ATOM     32  H   UNL     1      44.331  36.600  43.566  0.00  0.00    +0.000 HD
ATOM     33  H   UNL     1      46.091  35.325  42.299  0.00  0.00    +0.000 HD
ENDBRANCH  22  29
ENDBRANCH   3  22
TORSDOF 5
