
 OpenBabel03252500513D

 37 39  0  0  0  0  0  0  0  0999 V2000
   44.9110   34.9850   42.3520 C   0  0  0  0  0  0  0  0  0  0  0  0
   45.8250   35.1170   41.5120 O   0  0  0  0  0  0  0  0  0  0  0  0
   44.9550   34.9200   44.7910 C   0  0  0  0  0  0  0  0  0  0  0  0
   45.2100   34.2950   43.5960 C   0  0  0  0  0  0  0  0  0  0  0  0
   45.7580   32.9940   43.5550 C   0  0  0  0  0  0  0  0  0  0  0  0
   46.0130   32.4070   44.7700 N   0  0  0  0  0  0  0  0  0  0  0  0
   45.7620   33.0210   45.9210 C   0  0  0  0  0  0  0  0  0  0  0  0
   45.2380   34.2660   45.9290 N   0  0  0  0  0  0  0  0  0  0  0  0
   44.5440   35.8960   44.8960 H   0  0  0  0  0  0  0  0  0  0  0  0
   45.9650   32.4860   42.6320 H   0  0  0  0  0  0  0  0  0  0  0  0
   46.0480   32.3650   47.1880 C   0  0  0  0  0  0  0  0  0  0  0  0
   47.3080   32.0280   47.5710 C   0  0  0  0  0  0  0  0  0  0  0  0
   47.5930   31.4110   48.7580 C   0  0  0  0  0  0  0  0  0  0  0  0
   46.5480   31.1330   49.5700 N   0  0  0  0  0  0  0  0  0  0  0  0
   45.3160   31.4640   49.1900 C   0  0  0  0  0  0  0  0  0  0  0  0
   45.0090   32.0690   48.0350 N   0  0  0  0  0  0  0  0  0  0  0  0
   48.1470   32.2480   46.9240 H   0  0  0  0  0  0  0  0  0  0  0  0
   48.5890   31.1370   49.0770 H   0  0  0  0  0  0  0  0  0  0  0  0
   44.4610   31.2490   49.8290 H   0  0  0  0  0  0  0  0  0  0  0  0
   43.7830   35.5630   41.8470 O   0  0  0  0  0  0  0  0  0  0  0  0
   42.7100   34.8610   41.3650 C   0  0  0  0  0  0  0  0  0  0  0  0
   42.8110   34.8810   40.2360 H   0  0  0  0  0  0  0  0  0  0  0  0
   42.6600   33.7760   41.5770 H   0  0  0  0  0  0  0  0  0  0  0  0
   41.3640   35.5400   41.5920 C   0  0  0  0  0  0  0  0  0  0  0  0
   41.3400   36.5520   41.1800 H   0  0  0  0  0  0  0  0  0  0  0  0
   41.1330   35.4600   42.6610 H   0  0  0  0  0  0  0  0  0  0  0  0
   40.0500   34.9490   39.5180 C   0  0  0  0  0  0  0  0  0  0  0  0
   40.3540   34.7200   40.8500 C   0  0  0  0  0  0  0  0  0  0  0  0
   39.6750   33.6850   41.4870 C   0  0  0  0  0  0  0  0  0  0  0  0
   39.9310   33.5260   42.5280 H   0  0  0  0  0  0  0  0  0  0  0  0
   38.7280   32.8850   40.8630 C   0  0  0  0  0  3  0  0  0  0  0  0
   38.4510   33.1450   39.5300 C   0  0  0  0  0  3  0  0  0  0  0  0
   39.1010   34.1550   38.8770 C   0  0  0  0  0  0  0  0  0  0  0  0
   40.6890   35.9610   38.8340 O   0  0  0  0  0  0  0  0  0  0  0  0
   40.3310   36.3660   37.9760 H   0  0  0  0  0  0  0  0  0  0  0  0
   38.7620   34.3450   37.5450 O   0  0  0  0  0  0  0  0  0  0  0  0
   38.5050   33.5660   36.9350 H   0  0  0  0  0  0  0  0  0  0  0  0
  1  4  1  0  0  0  0
  2  1  2  0  0  0  0
  3  9  1  0  0  0  0
  3  8  1  0  0  0  0
  4  3  2  0  0  0  0
  5  4  1  0  0  0  0
  5  6  2  0  0  0  0
  6  7  1  0  0  0  0
  7  8  2  0  0  0  0
  7 11  1  0  0  0  0
 10  5  1  0  0  0  0
 11 12  2  0  0  0  0
 11 16  1  0  0  0  0
 12 13  1  0  0  0  0
 13 18  1  0  0  0  0
 13 14  2  0  0  0  0
 15 14  1  0  0  0  0
 15 19  1  0  0  0  0
 16 15  2  0  0  0  0
 17 12  1  0  0  0  0
 20  1  1  0  0  0  0
 21 23  1  0  0  0  0
 21 24  1  0  0  0  0
 21 20  1  0  0  0  0
 22 21  1  0  0  0  0
 24 26  1  0  0  0  0
 25 24  1  0  0  0  0
 27 28  1  0  0  0  0
 28 29  2  0  0  0  0
 28 24  1  0  0  0  0
 29 30  1  0  0  0  0
 31 29  1  0  0  0  0
 32 31  2  0  0  0  0
 33 27  2  0  0  0  0
 33 32  1  0  0  0  0
 34 27  1  0  0  0  0
 35 34  1  0  0  0  0
 36 33  1  0  0  0  0
 37 36  1  0  0  0  0
M  END
>  <minimizedAffinity>
-6.24416208

>  <minimizedRMSD>
0.882263541

$$$$
