REMARK  Name = 
REMARK  8 active torsions:
REMARK  status: ('A' for Active; 'I' for Inactive)
REMARK    1  A    between atoms: C_5  and  O_7
REMARK    2  A    between atoms: O_7  and  P_9
REMARK    3  A    between atoms: P_9  and  O_10
REMARK    4  A    between atoms: P_9  and  O_11
REMARK    5  A    between atoms: O_11  and  C_12
REMARK    6  A    between atoms: C_12  and  C_21
REMARK    7  A    between atoms: O_19  and  C_20
REMARK    8  A    between atoms: C_26  and  O_27
REMARK                            x       y       z     vdW  Elec       q    Type
REMARK                         _______ _______ _______ _____ _____    ______ ____
ROOT
ATOM      1  O   UNL     1      45.325  30.834  47.092  0.00  0.00    +0.000 OA
ENDROOT
BRANCH   1   2
ATOM      2  C   UNL     1      45.123  30.255  48.310  0.00  0.00    +0.000 C 
ATOM      3  H   UNL     1      44.369  30.840  48.904  0.00  0.00    +0.000 HD
ATOM      4  H   UNL     1      46.048  30.298  48.945  0.00  0.00    +0.000 HD
BRANCH   2   6
ATOM      5  C   UNL     1      45.235  27.822  47.636  0.00  0.00    +0.000 A 
ATOM      6  C   UNL     1      44.597  28.868  48.265  0.00  0.00    +0.000 A 
ATOM      7  C   UNL     1      43.386  28.607  48.890  0.00  0.00    +0.000 A 
ATOM      8  H   UNL     1      42.830  29.376  49.400  0.00  0.00    +0.000 HD
ATOM      9  C   UNL     1      42.778  27.360  48.923  0.00  0.00    +0.000 A 
ATOM     10  C   UNL     1      43.436  26.321  48.284  0.00  0.00    +0.000 A 
ATOM     11  C   UNL     1      44.652  26.591  47.658  0.00  0.00    +0.000 A 
BRANCH   5  12
ATOM     12  O   UNL     1      46.445  28.086  47.013  0.00  0.00    +0.000 OA
ATOM     13  H   UNL     1      46.580  28.211  46.021  0.00  0.00    +0.000 HD
ENDBRANCH   5  12
BRANCH  11  14
ATOM     14  O   UNL     1      45.316  25.559  47.017  0.00  0.00    +0.000 OA
ATOM     15  H   UNL     1      46.073  25.115  47.517  0.00  0.00    +0.000 HD
ENDBRANCH  11  14
ENDBRANCH   2   6
ENDBRANCH   1   2
BRANCH   1  17
ATOM     16  O   UNL     1      46.988  32.289  48.435  0.00  0.00    +0.000 OA
ATOM     17  P   UNL     1      45.919  32.402  47.348  0.00  0.00    +0.000 P 
BRANCH  17  18
ATOM     18  O   UNL     1      44.620  33.356  47.846  0.00  0.00    +0.000 OA
ATOM     19  H   UNL     1      44.974  33.925  48.602  0.00  0.00    +0.000 HD
ENDBRANCH  17  18
BRANCH  17  20
ATOM     20  O   UNL     1      46.653  33.050  45.984  0.00  0.00    +0.000 OA
BRANCH  20  25
ATOM     21  C   UNL     1      44.519  35.610  44.792  0.00  0.00    +0.000 A 
ATOM     22  C   UNL     1      44.909  35.834  43.450  0.00  0.00    +0.000 A 
ATOM     23  C   UNL     1      45.973  35.026  42.984  0.00  0.00    +0.000 A 
ATOM     24  N   UNL     1      46.529  34.114  43.849  0.00  0.00    +0.000 NA
ATOM     25  C   UNL     1      46.108  33.958  45.103  0.00  0.00    +0.000 A 
ATOM     26  N   UNL     1      45.112  34.703  45.563  0.00  0.00    +0.000 NA
ATOM     27  H   UNL     1      43.693  36.256  45.108  0.00  0.00    +0.000 HD
ATOM     28  H   UNL     1      44.437  36.565  42.807  0.00  0.00    +0.000 HD
ATOM     29  H   UNL     1      46.326  35.138  41.970  0.00  0.00    +0.000 HD
ENDBRANCH  20  25
ENDBRANCH  17  20
ENDBRANCH   1  17
TORSDOF 8
