
 OpenBabel03252506323D

 34 36  0  0  1  0  0  0  0  0999 V2000
   44.6190   35.7940   44.7190 C   0  0  0  0  0  0  0  0  0  0  0  0
   44.5300   35.3960   43.3670 C   0  0  0  0  0  0  0  0  0  0  0  0
   44.8180   34.0740   43.0330 C   0  0  0  0  0  0  0  0  0  0  0  0
   45.1690   33.2510   44.0450 N   0  0  0  0  0  0  0  0  0  0  0  0
   45.2480   33.6450   45.3160 C   0  0  0  0  0  0  0  0  0  0  0  0
   44.9780   34.9100   45.6760 N   0  0  0  0  0  0  0  0  0  0  0  0
   45.6420   32.6760   46.2830 N   0  0  0  0  0  0  0  0  0  0  0  0
   45.4700   32.8390   47.7350 C   0  0  0  0  0  0  0  0  0  0  0  0
   46.7320   32.2030   48.2530 C   0  0  0  0  0  0  0  0  0  0  0  0
   47.3680   31.4630   47.1090 C   0  0  0  0  0  0  0  0  0  0  0  0
   46.2540   31.4000   46.1130 C   0  0  2  0  0  0  0  0  0  0  0  0
   44.3950   36.8270   44.9930 H   0  0  0  0  0  0  0  0  0  0  0  0
   44.7400   33.8050   41.9890 H   0  0  0  0  0  0  0  0  0  0  0  0
   45.3640   33.8890   48.0300 H   0  0  0  0  0  0  0  0  0  0  0  0
   44.6200   32.1890   48.0040 H   0  0  0  0  0  0  0  0  0  0  0  0
   47.3620   33.0210   48.6560 H   0  0  0  0  0  0  0  0  0  0  0  0
   46.5310   31.4930   49.0800 H   0  0  0  0  0  0  0  0  0  0  0  0
   47.7340   30.4600   47.3930 H   0  0  0  0  0  0  0  0  0  0  0  0
   48.2280   32.0900   46.7550 H   0  0  0  0  0  0  0  0  0  0  0  0
   45.5180   30.6520   46.5520 H   0  0  0  0  0  0  0  0  0  0  0  0
   45.7970   30.3350   43.9260 C   0  0  0  0  0  0  0  0  0  0  0  0
   46.6790   31.0110   44.7780 C   0  0  0  0  0  0  0  0  0  0  0  0
   47.9100   31.2070   44.2220 C   0  0  0  0  0  0  0  0  0  0  0  0
   48.6690   31.7100   44.8080 H   0  0  0  0  0  0  0  0  0  0  0  0
   48.3160   30.8160   42.9740 C   0  0  0  0  0  3  0  0  0  0  0  0
   47.4060   30.1530   42.1760 C   0  0  0  0  0  3  0  0  0  0  0  0
   46.1400   29.9100   42.6520 C   0  0  0  0  0  0  0  0  0  0  0  0
   44.5030   30.0590   44.3460 O   0  0  0  0  0  0  0  0  0  0  0  0
   43.7780   30.7830   44.3620 H   0  0  0  0  0  0  0  0  0  0  0  0
   45.2020   29.2410   41.8620 O   0  0  0  0  0  0  0  0  0  0  0  0
   45.2900   29.2670   40.8560 H   0  0  0  0  0  0  0  0  0  0  0  0
   44.1440   36.4100   42.4390 N   0  0  0  0  0  0  0  0  0  0  0  0
   44.4320   37.3800   42.5920 H   0  0  0  0  0  0  0  0  0  0  0  0
   43.5640   36.1270   41.6090 H   0  0  0  0  0  0  0  0  0  0  0  0
  1 12  1  0  0  0  0
  1  6  1  0  0  0  0
  2  1  2  0  0  0  0
  3  2  1  0  0  0  0
  3  4  2  0  0  0  0
  4  5  1  0  0  0  0
  5  6  2  0  0  0  0
  5  7  1  0  0  0  0
  7  8  1  0  0  0  0
  8 15  1  0  0  0  0
  8 14  1  0  0  0  0
  8  9  1  0  0  0  0
  9 16  1  0  0  0  0
  9 17  1  0  0  0  0
 10 18  1  0  0  0  0
 10  9  1  0  0  0  0
 11  7  1  0  0  0  0
 11 20  1  1  0  0  0
 11 10  1  0  0  0  0
 13  3  1  0  0  0  0
 19 10  1  0  0  0  0
 21 28  1  0  0  0  0
 21 22  1  0  0  0  0
 22 11  1  0  0  0  0
 23 22  2  0  0  0  0
 23 24  1  0  0  0  0
 25 23  1  0  0  0  0
 26 27  1  0  0  0  0
 26 25  2  0  0  0  0
 27 21  2  0  0  0  0
 28 29  1  0  0  0  0
 30 27  1  0  0  0  0
 31 30  1  0  0  0  0
 32 33  1  0  0  0  0
 32  2  1  0  0  0  0
 34 32  1  0  0  0  0
M  END
>  <minimizedAffinity>
-4.73639584

>  <minimizedRMSD>
2.67638755

$$$$
