REMARK  Name = 
REMARK  4 active torsions:
REMARK  status: ('A' for Active; 'I' for Inactive)
REMARK    1  A    between atoms: C_2  and  C_7
REMARK    2  A    between atoms: C_3  and  C_15
REMARK    3  A    between atoms: O_13  and  C_14
REMARK    4  A    between atoms: C_20  and  O_21
REMARK                            x       y       z     vdW  Elec       q    Type
REMARK                         _______ _______ _______ _____ _____    ______ ____
ROOT
ATOM      1  C   UNL     1      44.377  35.770  44.433  0.00  0.00    +0.000 A 
ATOM      2  C   UNL     1      44.661  35.047  43.264  0.00  0.00    +0.000 A 
ATOM      3  C   UNL     1      45.287  33.820  43.404  0.00  0.00    +0.000 A 
ATOM      4  N   UNL     1      45.585  33.404  44.627  0.00  0.00    +0.000 NA
ATOM      5  C   UNL     1      45.317  34.091  45.745  0.00  0.00    +0.000 A 
ATOM      6  N   UNL     1      44.704  35.297  45.670  0.00  0.00    +0.000 NA
ATOM      7  H   UNL     1      43.885  36.727  44.388  0.00  0.00    +0.000 HD
ATOM      8  H   UNL     1      45.610  33.653  46.703  0.00  0.00    +0.000 HD
ENDROOT
BRANCH   3  10
ATOM      9  C   UNL     1      46.213  33.586  41.034  0.00  0.00    +0.000 A 
ATOM     10  C   UNL     1      45.549  33.171  42.147  0.00  0.00    +0.000 A 
ATOM     11  C   UNL     1      45.040  31.859  42.123  0.00  0.00    +0.000 A 
ATOM     12  H   UNL     1      44.474  31.383  42.918  0.00  0.00    +0.000 HD
ATOM     13  C   UNL     1      45.194  31.027  41.046  0.00  0.00    +0.000 A 
ATOM     14  C   UNL     1      45.888  31.519  39.938  0.00  0.00    +0.000 A 
ATOM     15  C   UNL     1      46.409  32.790  39.896  0.00  0.00    +0.000 A 
BRANCH   9  16
ATOM     16  O   UNL     1      46.682  34.903  41.151  0.00  0.00    +0.000 OA
ATOM     17  H   UNL     1      46.086  35.653  41.514  0.00  0.00    +0.000 HD
ENDBRANCH   9  16
BRANCH  15  18
ATOM     18  O   UNL     1      47.109  33.398  38.871  0.00  0.00    +0.000 OA
ATOM     19  H   UNL     1      46.653  33.937  38.124  0.00  0.00    +0.000 HD
ENDBRANCH  15  18
ENDBRANCH   3  10
BRANCH   2  20
ATOM     20  C   UNL     1      44.269  35.737  41.995  0.00  0.00    +0.000 C 
ATOM     21  H   UNL     1      45.069  36.530  41.831  0.00  0.00    +0.000 HD
ATOM     22  H   UNL     1      44.189  35.100  41.125  0.00  0.00    +0.000 HD
ATOM     23  H   UNL     1      43.353  36.331  42.201  0.00  0.00    +0.000 HD
ENDBRANCH   2  20
TORSDOF 4
