REMARK  Name = 
REMARK  8 active torsions:
REMARK  status: ('A' for Active; 'I' for Inactive)
REMARK    1  A    between atoms: C_2  and  C_13
REMARK    2  A    between atoms: C_5  and  C_7
REMARK    3  A    between atoms: C_13  and  O_15
REMARK    4  A    between atoms: O_15  and  C_16
REMARK    5  A    between atoms: C_16  and  C_17
REMARK    6  A    between atoms: C_17  and  C_29
REMARK    7  A    between atoms: O_27  and  C_28
REMARK    8  A    between atoms: C_34  and  O_35
REMARK                            x       y       z     vdW  Elec       q    Type
REMARK                         _______ _______ _______ _____ _____    ______ ____
ROOT
ATOM      1  C   UNL     1      44.619  34.937  42.082  0.00  0.00    +0.000 C 
ATOM      2  O   UNL     1      45.322  34.714  41.075  0.00  0.00    +0.000 OA
ENDROOT
BRANCH   1   4
ATOM      3  C   UNL     1      44.908  35.032  44.503  0.00  0.00    +0.000 A 
ATOM      4  C   UNL     1      44.992  34.310  43.339  0.00  0.00    +0.000 A 
ATOM      5  C   UNL     1      45.434  32.968  43.342  0.00  0.00    +0.000 A 
ATOM      6  N   UNL     1      45.768  32.445  44.567  0.00  0.00    +0.000 NA
ATOM      7  C   UNL     1      45.683  33.153  45.688  0.00  0.00    +0.000 A 
ATOM      8  N   UNL     1      45.257  34.434  45.654  0.00  0.00    +0.000 NA
ATOM      9  H   UNL     1      44.584  36.043  44.575  0.00  0.00    +0.000 HD
ATOM     10  H   UNL     1      45.507  32.385  42.443  0.00  0.00    +0.000 HD
BRANCH   7  11
ATOM     11  C   UNL     1      46.048  32.561  46.966  0.00  0.00    +0.000 A 
ATOM     12  C   UNL     1      47.326  32.218  47.277  0.00  0.00    +0.000 A 
ATOM     13  C   UNL     1      47.685  31.661  48.474  0.00  0.00    +0.000 A 
ATOM     14  N   UNL     1      46.697  31.452  49.372  0.00  0.00    +0.000 NA
ATOM     15  C   UNL     1      45.446  31.788  49.063  0.00  0.00    +0.000 A 
ATOM     16  N   UNL     1      45.068  32.335  47.900  0.00  0.00    +0.000 NA
ATOM     17  H   UNL     1      48.120  32.384  46.561  0.00  0.00    +0.000 HD
ATOM     18  H   UNL     1      48.696  31.384  48.736  0.00  0.00    +0.000 HD
ATOM     19  H   UNL     1      44.636  31.628  49.772  0.00  0.00    +0.000 HD
ENDBRANCH   7  11
ENDBRANCH   1   4
BRANCH   1  20
ATOM     20  O   UNL     1      43.605  35.773  41.715  0.00  0.00    +0.000 OA
BRANCH  20  21
ATOM     21  C   UNL     1      42.548  35.399  40.927  0.00  0.00    +0.000 C 
ATOM     22  H   UNL     1      42.403  36.245  40.186  0.00  0.00    +0.000 HD
ATOM     23  H   UNL     1      42.679  34.524  40.262  0.00  0.00    +0.000 HD
BRANCH  21  24
ATOM     24  C   UNL     1      41.209  35.358  41.653  0.00  0.00    +0.000 C 
ATOM     25  H   UNL     1      40.913  36.342  42.027  0.00  0.00    +0.000 HD
ATOM     26  H   UNL     1      41.270  34.566  42.409  0.00  0.00    +0.000 HD
BRANCH  24  28
ATOM     27  C   UNL     1      40.558  34.390  39.413  0.00  0.00    +0.000 A 
ATOM     28  C   UNL     1      40.196  34.932  40.636  0.00  0.00    +0.000 A 
ATOM     29  C   UNL     1      38.834  35.067  40.892  0.00  0.00    +0.000 A 
ATOM     30  H   UNL     1      38.578  35.493  41.855  0.00  0.00    +0.000 HD
ATOM     31  C   UNL     1      37.841  34.693  39.997  0.00  0.00    +0.000 A 
ATOM     32  C   UNL     1      38.243  34.155  38.784  0.00  0.00    +0.000 A 
ATOM     33  C   UNL     1      39.573  34.010  38.504  0.00  0.00    +0.000 A 
BRANCH  27  34
ATOM     34  O   UNL     1      41.892  34.231  39.103  0.00  0.00    +0.000 OA
ATOM     35  H   UNL     1      42.233  34.118  38.154  0.00  0.00    +0.000 HD
ENDBRANCH  27  34
BRANCH  33  36
ATOM     36  O   UNL     1      39.885  33.463  37.267  0.00  0.00    +0.000 OA
ATOM     37  H   UNL     1      39.295  32.757  36.823  0.00  0.00    +0.000 HD
ENDBRANCH  33  36
ENDBRANCH  24  28
ENDBRANCH  21  24
ENDBRANCH  20  21
ENDBRANCH   1  20
TORSDOF 8
