REMARK  Name = 
REMARK  8 active torsions:
REMARK  status: ('A' for Active; 'I' for Inactive)
REMARK    1  A    between atoms: C_2  and  C_14
REMARK    2  A    between atoms: C_5  and  C_8
REMARK    3  A    between atoms: C_7  and  O_12
REMARK    4  A    between atoms: C_11  and  O_13
REMARK    5  A    between atoms: C_14  and  C_15
REMARK    6  A    between atoms: C_20  and  C_38
REMARK    7  A    between atoms: O_36  and  C_37
REMARK    8  A    between atoms: C_43  and  O_44
REMARK                            x       y       z     vdW  Elec       q    Type
REMARK                         _______ _______ _______ _____ _____    ______ ____
ROOT
ATOM      1  C   UNL     1      45.938  35.594  42.699  0.00  0.00    +0.000 C 
ATOM      2  H   UNL     1      45.800  36.640  42.970  0.00  0.00    +0.000 HD
ATOM      3  H   UNL     1      46.980  35.518  42.259  0.00  0.00    +0.000 HD
ENDROOT
BRANCH   1   4
ATOM      4  C   UNL     1      44.926  35.167  41.713  0.00  0.00    +0.000 A 
ATOM      5  C   UNL     1      43.659  35.678  41.590  0.00  0.00    +0.000 A 
ATOM      6  C   UNL     1      42.775  35.234  40.641  0.00  0.00    +0.000 A 
ATOM      7  C   UNL     1      43.188  34.227  39.776  0.00  0.00    +0.000 A 
ATOM      8  C   UNL     1      44.480  33.697  39.890  0.00  0.00    +0.000 A 
ATOM      9  C   UNL     1      45.357  34.172  40.868  0.00  0.00    +0.000 A 
ATOM     10  H   UNL     1      43.471  36.456  42.330  0.00  0.00    +0.000 HD
ATOM     11  H   UNL     1      41.833  35.731  40.675  0.00  0.00    +0.000 HD
ATOM     12  H   UNL     1      42.381  33.980  39.080  0.00  0.00    +0.000 HD
ATOM     13  H   UNL     1      44.536  32.943  39.107  0.00  0.00    +0.000 HD
BRANCH   9  15
ATOM     14  C   UNL     1      47.678  34.150  40.835  0.00  0.00    +0.000 A 
ATOM     15  C   UNL     1      46.538  33.359  40.637  0.00  0.00    +0.000 A 
ATOM     16  C   UNL     1      46.709  32.054  40.245  0.00  0.00    +0.000 A 
ATOM     17  H   UNL     1      45.742  31.568  40.132  0.00  0.00    +0.000 HD
ATOM     18  C   UNL     1      47.972  31.540  40.052  0.00  0.00    +0.000 A 
ATOM     19  C   UNL     1      49.090  32.322  40.248  0.00  0.00    +0.000 A 
ATOM     20  C   UNL     1      48.962  33.637  40.642  0.00  0.00    +0.000 A 
BRANCH  14  21
ATOM     21  O   UNL     1      47.720  35.499  41.234  0.00  0.00    +0.000 OA
ATOM     22  H   UNL     1      47.810  36.249  40.563  0.00  0.00    +0.000 HD
ENDBRANCH  14  21
BRANCH  20  23
ATOM     23  O   UNL     1      50.133  34.358  40.818  0.00  0.00    +0.000 OA
ATOM     24  H   UNL     1      50.102  35.258  41.309  0.00  0.00    +0.000 HD
ENDBRANCH  20  23
ENDBRANCH   9  15
ENDBRANCH   1   4
BRANCH   1  26
ATOM     25  C   UNL     1      45.002  34.903  44.904  0.00  0.00    +0.000 A 
ATOM     26  C   UNL     1      45.905  34.734  43.861  0.00  0.00    +0.000 A 
ATOM     27  C   UNL     1      46.792  33.666  43.981  0.00  0.00    +0.000 A 
ATOM     28  N   UNL     1      46.776  32.836  45.051  0.00  0.00    +0.000 NA
ATOM     29  C   UNL     1      45.874  33.043  46.043  0.00  0.00    +0.000 A 
ATOM     30  N   UNL     1      44.992  34.070  45.972  0.00  0.00    +0.000 NA
ATOM     31  H   UNL     1      44.332  35.741  44.773  0.00  0.00    +0.000 HD
ATOM     32  H   UNL     1      47.571  33.418  43.290  0.00  0.00    +0.000 HD
BRANCH  29  34
ATOM     33  C   UNL     1      47.325  31.835  47.659  0.00  0.00    +0.000 C 
ATOM     34  C   UNL     1      45.873  32.132  47.178  0.00  0.00    +0.000 C 
ATOM     35  O   UNL     1      45.366  32.616  48.335  0.00  0.00    +0.000 OA
ATOM     36  C   UNL     1      45.748  31.782  49.346  0.00  0.00    +0.000 C 
ATOM     37  C   UNL     1      46.954  30.990  48.882  0.00  0.00    +0.000 C 
ATOM     38  H   UNL     1      47.856  31.246  46.897  0.00  0.00    +0.000 HD
ATOM     39  H   UNL     1      45.421  31.151  46.917  0.00  0.00    +0.000 HD
ATOM     40  H   UNL     1      44.916  31.155  49.697  0.00  0.00    +0.000 HD
ATOM     41  H   UNL     1      46.029  32.440  50.218  0.00  0.00    +0.000 HD
ATOM     42  H   UNL     1      46.604  29.993  48.611  0.00  0.00    +0.000 HD
BRANCH  33  43
ATOM     43  O   UNL     1      47.906  32.964  48.101  0.00  0.00    +0.000 OA
ATOM     44  H   UNL     1      48.861  32.963  47.861  0.00  0.00    +0.000 HD
ENDBRANCH  33  43
BRANCH  37  45
ATOM     45  O   UNL     1      47.955  30.914  49.808  0.00  0.00    +0.000 OA
ATOM     46  H   UNL     1      48.744  31.435  49.527  0.00  0.00    +0.000 HD
ENDBRANCH  37  45
ENDBRANCH  29  34
ENDBRANCH   1  26
TORSDOF 8
