
 OpenBabel03252501383D

 37 39  0  0  0  0  0  0  0  0999 V2000
   42.6480   32.7800   38.2170 Cl  0  0  0  0  0  0  0  0  0  0  0  0
   41.6560   33.2590   39.5670 C   0  0  0  0  0  0  0  0  0  0  0  0
   41.9870   34.3090   40.4290 C   0  0  0  0  0  0  0  0  0  0  0  0
   41.1550   34.6250   41.4650 C   0  0  0  0  0  0  0  0  0  0  0  0
   39.9800   33.9710   41.7380 C   0  0  0  0  0  0  0  0  0  0  0  0
   39.6240   32.9210   40.8950 C   0  0  0  0  0  0  0  0  0  0  0  0
   38.1380   32.0040   41.1410 Cl  0  0  0  0  0  0  0  0  0  0  0  0
   40.4790   32.6110   39.8450 C   0  0  0  0  0  0  0  0  0  0  0  0
   41.4810   35.4550   42.0930 H   0  0  0  0  0  0  0  0  0  0  0  0
   39.3360   34.2320   42.5580 H   0  0  0  0  0  0  0  0  0  0  0  0
   40.4820   30.1790   39.0800 C   0  0  0  0  0  0  0  0  0  0  0  0
   40.1090   31.5050   38.9550 C   0  0  0  0  0  0  0  0  0  0  0  0
   39.2950   31.9370   37.9030 C   0  0  0  0  0  0  0  0  0  0  0  0
   38.9650   32.9450   37.7410 H   0  0  0  0  0  0  0  0  0  0  0  0
   38.8570   31.0020   36.9660 C   0  0  0  0  0  3  0  0  0  0  0  0
   39.2250   29.6930   37.0880 C   0  0  0  0  0  3  0  0  0  0  0  0
   40.0280   29.2870   38.1320 C   0  0  0  0  0  0  0  0  0  0  0  0
   41.2920   29.8960   40.1710 O   0  0  0  0  0  0  0  0  0  0  0  0
   41.8270   29.0480   40.2800 H   0  0  0  0  0  0  0  0  0  0  0  0
   40.4300   27.9640   38.3000 O   0  0  0  0  0  0  0  0  0  0  0  0
   39.7000   27.2490   38.3550 H   0  0  0  0  0  0  0  0  0  0  0  0
   43.1870   34.9610   40.1330 O   0  0  0  0  0  0  0  0  0  0  0  0
   44.3320   34.5920   40.8480 C   0  0  0  0  0  0  0  0  0  0  0  0
   45.0630   33.5750   40.6190 O   0  0  0  0  0  0  0  0  0  0  0  0
   44.7960   35.3680   41.9510 N   0  0  0  0  0  0  0  0  0  0  0  0
   44.3130   36.2200   42.2500 H   0  0  0  0  0  0  0  0  0  0  0  0
   45.9890   34.7330   42.4950 C   0  0  0  0  0  0  0  0  0  0  0  0
   45.9850   33.7360   43.4450 C   0  0  0  0  0  0  0  0  0  0  0  0
   47.2160   33.2580   43.8370 C   0  0  0  0  0  0  0  0  0  0  0  0
   48.3110   33.7880   43.2740 N   0  0  0  0  0  0  0  0  0  0  0  0
   48.2780   34.7640   42.3460 C   0  0  0  0  0  0  0  0  0  0  0  0
   47.0780   35.2590   41.9370 N   0  0  0  0  0  0  0  0  0  0  0  0
   47.2150   32.4760   44.5820 H   0  0  0  0  0  0  0  0  0  0  0  0
   49.2250   35.1140   41.9630 H   0  0  0  0  0  0  0  0  0  0  0  0
   44.7250   33.3020   43.9240 N   0  0  0  0  0  0  0  0  0  0  0  0
   44.6740   33.2470   44.9610 H   0  0  0  0  0  0  0  0  0  0  0  0
   44.0090   33.0940   43.1930 H   0  0  0  0  0  0  0  0  0  0  0  0
  1  2  1  0  0  0  0
  2  8  2  0  0  0  0
  2  3  1  0  0  0  0
  3  4  2  0  0  0  0
  4  5  1  0  0  0  0
  4  9  1  0  0  0  0
  5 10  1  0  0  0  0
  6  7  1  0  0  0  0
  6  5  2  0  0  0  0
  8  6  1  0  0  0  0
 11 18  1  0  0  0  0
 12 11  1  0  0  0  0
 12  8  1  0  0  0  0
 13 12  2  0  0  0  0
 14 13  1  0  0  0  0
 15 16  2  0  0  0  0
 15 13  1  0  0  0  0
 16 17  1  0  0  0  0
 17 20  1  0  0  0  0
 17 11  2  0  0  0  0
 18 19  1  0  0  0  0
 20 21  1  0  0  0  0
 22  3  1  0  0  0  0
 22 23  1  0  0  0  0
 23 25  1  0  0  0  0
 24 23  2  0  0  0  0
 25 26  1  0  0  0  0
 25 27  1  0  0  0  0
 27 28  1  0  0  0  0
 28 29  2  0  0  0  0
 28 35  1  0  0  0  0
 29 33  1  0  0  0  0
 30 29  1  0  0  0  0
 31 30  2  0  0  0  0
 32 31  1  0  0  0  0
 32 27  2  0  0  0  0
 34 31  1  0  0  0  0
 35 36  1  0  0  0  0
 37 35  1  0  0  0  0
M  END
>  <minimizedAffinity>
-5.55558491

>  <minimizedRMSD>
2.09440398

$$$$
