
 OpenBabel03252503243D

 49 54  0  0  1  0  0  0  0  0999 V2000
   45.6380   33.4840   45.0930 C   0  0  0  0  0  0  0  0  0  0  0  0
   46.7050   32.9010   44.3220 C   0  0  0  0  0  0  0  0  0  0  0  0
   47.6170   32.1120   44.9730 C   0  0  0  0  0  0  0  0  0  0  0  0
   47.4570   31.9270   46.3130 N   0  0  0  0  0  0  0  0  0  0  0  0
   46.4430   32.4850   47.0260 C   0  0  0  0  0  0  0  0  0  0  0  0
   45.5360   33.2620   46.4140 N   0  0  0  0  0  0  0  0  0  0  0  0
   44.9220   34.1040   44.5750 H   0  0  0  0  0  0  0  0  0  0  0  0
   48.4250   31.6600   44.4290 H   0  0  0  0  0  0  0  0  0  0  0  0
   46.7680   33.1920   42.8580 C   0  0  1  0  0  0  0  0  0  0  0  0
   46.8090   34.5690   42.3800 C   0  0  0  0  0  0  0  0  0  0  0  0
   48.0690   33.7880   42.3450 C   0  0  2  0  0  0  0  0  0  0  0  0
   46.3590   32.3620   42.2540 H   0  0  0  0  0  0  0  0  0  0  0  0
   46.7980   35.3620   43.1840 H   0  0  0  0  0  0  0  0  0  0  0  0
   46.1760   34.8260   41.5480 H   0  0  0  0  0  0  0  0  0  0  0  0
   48.8830   33.9090   43.0830 H   0  0  0  0  0  0  0  0  0  0  0  0
   48.5000   33.2560   41.0240 C   0  0  0  0  0  0  0  0  0  0  0  0
   49.4030   32.2280   40.8590 C   0  0  0  0  0  0  0  0  0  0  0  0
   49.7600   31.7890   39.5970 C   0  0  0  0  0  0  0  0  0  0  0  0
   49.2180   32.3730   38.4720 C   0  0  0  0  0  0  0  0  0  0  0  0
   49.5450   31.9620   37.2240 N   0  0  0  0  0  0  0  0  0  0  0  0
   48.9900   32.5540   36.1390 C   0  0  0  0  0  0  0  0  0  0  0  0
   48.0560   33.6150   36.2130 C   0  0  0  0  0  0  0  0  0  0  0  0
   47.7160   34.0410   37.4740 C   0  0  0  0  0  0  0  0  0  0  0  0
   48.2950   33.4210   38.5870 C   0  0  0  0  0  0  0  0  0  0  0  0
   47.9700   33.8240   39.8650 C   0  0  0  0  0  0  0  0  0  0  0  0
   49.8260   31.7760   41.7480 H   0  0  0  0  0  0  0  0  0  0  0  0
   50.4760   30.9760   39.4880 H   0  0  0  0  0  0  0  0  0  0  0  0
   49.3090   32.1610   35.1950 H   0  0  0  0  0  0  0  0  0  0  0  0
   47.6630   34.0310   35.2950 H   0  0  0  0  0  0  0  0  0  0  0  0
   47.0080   34.8470   37.5900 H   0  0  0  0  0  0  0  0  0  0  0  0
   47.2600   34.6390   39.8720 H   0  0  0  0  0  0  0  0  0  0  0  0
   46.3730   32.1980   48.4850 C   0  0  2  0  0  0  0  0  0  0  0  0
   47.4130   31.4480   49.1670 C   0  0  0  0  0  0  0  0  0  0  0  0
   46.1770   30.6860   48.8140 C   0  0  2  0  0  0  0  0  0  0  0  0
   45.6150   32.8410   49.0120 H   0  0  0  0  0  0  0  0  0  0  0  0
   48.3670   31.3340   48.6530 H   0  0  0  0  0  0  0  0  0  0  0  0
   47.5560   31.7200   50.2560 H   0  0  0  0  0  0  0  0  0  0  0  0
   45.5030   30.4610   49.6590 H   0  0  0  0  0  0  0  0  0  0  0  0
   45.2700   29.3760   46.7520 C   0  0  0  0  0  0  0  0  0  0  0  0
   46.2110   29.7550   47.6820 C   0  0  0  0  0  0  0  0  0  0  0  0
   47.4780   29.1660   47.5820 C   0  0  0  0  0  0  0  0  0  0  0  0
   48.3520   29.3430   48.2300 H   0  0  0  0  0  0  0  0  0  0  0  0
   47.7680   28.2330   46.5790 C   0  0  0  0  0  3  0  0  0  0  0  0
   46.8090   27.8700   45.6610 C   0  0  0  0  0  3  0  0  0  0  0  0
   45.5770   28.4550   45.7720 C   0  0  0  0  0  0  0  0  0  0  0  0
   44.0570   30.0190   46.9420 O   0  0  0  0  0  0  0  0  0  0  0  0
   43.8020   30.8830   46.4840 H   0  0  0  0  0  0  0  0  0  0  0  0
   44.5520   28.1570   44.9020 O   0  0  0  0  0  0  0  0  0  0  0  0
   43.9480   28.9040   44.5470 H   0  0  0  0  0  0  0  0  0  0  0  0
  1  6  1  0  0  0  0
  2  3  1  0  0  0  0
  2  1  2  0  0  0  0
  3  4  2  0  0  0  0
  4  5  1  0  0  0  0
  5 32  1  0  0  0  0
  6  5  2  0  0  0  0
  7  1  1  0  0  0  0
  8  3  1  0  0  0  0
  9 12  1  6  0  0  0
  9  2  1  0  0  0  0
 10  9  1  0  0  0  0
 10 13  1  0  0  0  0
 11 10  1  0  0  0  0
 11  9  1  0  0  0  0
 11 15  1  1  0  0  0
 14 10  1  0  0  0  0
 16 11  1  0  0  0  0
 17 16  1  0  0  0  0
 17 26  1  0  0  0  0
 18 17  2  0  0  0  0
 19 24  1  0  0  0  0
 19 18  1  0  0  0  0
 20 19  2  0  0  0  0
 21 22  2  0  0  0  0
 21 20  1  0  0  0  0
 22 23  1  0  0  0  0
 23 30  1  0  0  0  0
 23 24  2  0  0  0  0
 24 25  1  0  0  0  0
 25 31  1  0  0  0  0
 25 16  2  0  0  0  0
 27 18  1  0  0  0  0
 28 21  1  0  0  0  0
 29 22  1  0  0  0  0
 32 34  1  0  0  0  0
 32 35  1  1  0  0  0
 32 33  1  0  0  0  0
 33 37  1  0  0  0  0
 34 33  1  0  0  0  0
 34 38  1  1  0  0  0
 36 33  1  0  0  0  0
 39 46  1  0  0  0  0
 39 40  1  0  0  0  0
 40 34  1  0  0  0  0
 41 40  2  0  0  0  0
 41 42  1  0  0  0  0
 43 41  1  0  0  0  0
 44 45  1  0  0  0  0
 44 43  2  0  0  0  0
 45 39  2  0  0  0  0
 47 46  1  0  0  0  0
 48 45  1  0  0  0  0
 49 48  1  0  0  0  0
M  END
>  <minimizedAffinity>
-5.61367655

>  <minimizedRMSD>
1.45821011

$$$$
