
 OpenBabel03242521403D

 23 24  0  0  0  0  0  0  0  0999 V2000
   44.9710   36.0100   43.3380 C   0  0  0  0  0  0  0  0  0  0  0  0
   44.2770   35.6820   42.1760 C   0  0  0  0  0  0  0  0  0  0  0  0
   44.0210   34.3360   41.9010 C   0  0  0  0  0  0  0  0  0  0  0  0
   44.4680   33.4280   42.7920 N   0  0  0  0  0  0  0  0  0  0  0  0
   45.1380   33.7750   43.9110 C   0  0  0  0  0  0  0  0  0  0  0  0
   45.3880   35.0740   44.1820 N   0  0  0  0  0  0  0  0  0  0  0  0
   43.9620   36.4620   41.5300 H   0  0  0  0  0  0  0  0  0  0  0  0
   45.4760   32.9970   44.5970 H   0  0  0  0  0  0  0  0  0  0  0  0
   41.9460   33.7390   40.7790 C   0  0  0  0  0  0  0  0  0  0  0  0
   43.3110   33.9350   40.7180 C   0  0  0  0  0  0  0  0  0  0  0  0
   43.8660   33.7140   39.4760 C   0  0  0  0  0  0  0  0  0  0  0  0
   44.9330   33.8520   39.3660 H   0  0  0  0  0  0  0  0  0  0  0  0
   43.1240   33.3250   38.3670 C   0  0  0  0  0  3  0  0  0  0  0  0
   41.7620   33.1380   38.4630 C   0  0  0  0  0  3  0  0  0  0  0  0
   41.1820   33.3540   39.6960 C   0  0  0  0  0  0  0  0  0  0  0  0
   41.2190   33.9210   41.9710 O   0  0  0  0  0  0  0  0  0  0  0  0
   41.1510   34.8990   42.2680 H   0  0  0  0  0  0  0  0  0  0  0  0
   39.7960   33.1630   39.7910 O   0  0  0  0  0  0  0  0  0  0  0  0
   39.1650   33.9500   39.6580 H   0  0  0  0  0  0  0  0  0  0  0  0
   45.2270   37.4580   43.6020 C   0  0  0  0  0  0  0  0  0  0  0  0
   46.2900   37.6300   43.2650 H   0  0  0  0  0  0  0  0  0  0  0  0
   44.5510   38.0990   43.0030 H   0  0  0  0  0  0  0  0  0  0  0  0
   45.1790   37.7230   44.6670 H   0  0  0  0  0  0  0  0  0  0  0  0
  1 20  1  0  0  0  0
  1  6  1  0  0  0  0
  2  1  2  0  0  0  0
  3  2  1  0  0  0  0
  3  4  2  0  0  0  0
  4  5  1  0  0  0  0
  5  6  2  0  0  0  0
  5  8  1  0  0  0  0
  7  2  1  0  0  0  0
  9 16  1  0  0  0  0
 10  9  1  0  0  0  0
 10  3  1  0  0  0  0
 11 10  2  0  0  0  0
 12 11  1  0  0  0  0
 13 14  2  0  0  0  0
 13 11  1  0  0  0  0
 14 15  1  0  0  0  0
 15 18  1  0  0  0  0
 15  9  2  0  0  0  0
 16 17  1  0  0  0  0
 19 18  1  0  0  0  0
 20 23  1  0  0  0  0
 21 20  1  0  0  0  0
 22 20  1  0  0  0  0
M  END
>  <minimizedAffinity>
-3.96366215

>  <minimizedRMSD>
6.16780281

$$$$
