
 OpenBabel03252501553D

 23 24  0  0  0  0  0  0  0  0999 V2000
   44.5280   35.5210   44.7280 C   0  0  0  0  0  0  0  0  0  0  0  0
   45.0100   35.2760   43.4330 C   0  0  0  0  0  0  0  0  0  0  0  0
   45.9230   34.2480   43.2720 C   0  0  0  0  0  0  0  0  0  0  0  0
   46.2910   33.5620   44.3450 N   0  0  0  0  0  0  0  0  0  0  0  0
   45.8360   33.7940   45.5830 C   0  0  0  0  0  0  0  0  0  0  0  0
   44.9390   34.7860   45.8010 N   0  0  0  0  0  0  0  0  0  0  0  0
   43.8110   36.3030   44.9150 H   0  0  0  0  0  0  0  0  0  0  0  0
   46.2100   33.1680   46.3970 H   0  0  0  0  0  0  0  0  0  0  0  0
   47.3970   34.6560   41.2250 C   0  0  0  0  0  0  0  0  0  0  0  0
   46.3660   34.0920   41.9120 C   0  0  0  0  0  0  0  0  0  0  0  0
   45.5870   33.1500   41.2150 C   0  0  0  0  0  0  0  0  0  0  0  0
   44.7230   32.6240   41.6110 H   0  0  0  0  0  0  0  0  0  0  0  0
   45.8350   32.8030   39.9140 C   0  0  0  0  0  3  0  0  0  0  0  0
   46.9110   33.4220   39.2700 C   0  0  0  0  0  3  0  0  0  0  0  0
   47.7100   34.3500   39.8920 C   0  0  0  0  0  0  0  0  0  0  0  0
   48.1140   35.5800   41.9990 O   0  0  0  0  0  0  0  0  0  0  0  0
   47.6370   36.2830   42.5710 H   0  0  0  0  0  0  0  0  0  0  0  0
   48.7950   35.0320   39.3750 O   0  0  0  0  0  0  0  0  0  0  0  0
   48.7120   35.9390   38.8990 H   0  0  0  0  0  0  0  0  0  0  0  0
   44.4820   36.2060   42.3860 C   0  0  0  0  0  0  0  0  0  0  0  0
   45.0580   37.1760   42.5360 H   0  0  0  0  0  0  0  0  0  0  0  0
   44.5830   35.8630   41.3660 H   0  0  0  0  0  0  0  0  0  0  0  0
   43.4410   36.4760   42.6660 H   0  0  0  0  0  0  0  0  0  0  0  0
  1  7  1  0  0  0  0
  1  6  1  0  0  0  0
  2  1  2  0  0  0  0
  3  2  1  0  0  0  0
  3  4  2  0  0  0  0
  4  5  1  0  0  0  0
  5  6  2  0  0  0  0
  5  8  1  0  0  0  0
  9 10  1  0  0  0  0
  9 16  1  0  0  0  0
 10  3  1  0  0  0  0
 11 12  1  0  0  0  0
 11 10  2  0  0  0  0
 13 11  1  0  0  0  0
 14 15  1  0  0  0  0
 14 13  2  0  0  0  0
 15  9  2  0  0  0  0
 16 17  1  0  0  0  0
 18 15  1  0  0  0  0
 19 18  1  0  0  0  0
 20 21  1  0  0  0  0
 20 23  1  0  0  0  0
 20  2  1  0  0  0  0
 22 20  1  0  0  0  0
M  END
>  <minimizedAffinity>
-4.6826005

>  <minimizedRMSD>
1.42412269

$$$$
