
 OpenBabel03252503243D

 49 54  0  0  1  0  0  0  0  0999 V2000
   45.6000   33.5290   45.3320 C   0  0  0  0  0  0  0  0  0  0  0  0
   46.6600   32.9110   44.5790 C   0  0  0  0  0  0  0  0  0  0  0  0
   47.5130   32.0660   45.2380 C   0  0  0  0  0  0  0  0  0  0  0  0
   47.3050   31.8610   46.5680 N   0  0  0  0  0  0  0  0  0  0  0  0
   46.3000   32.4530   47.2640 C   0  0  0  0  0  0  0  0  0  0  0  0
   45.4490   33.2860   46.6440 N   0  0  0  0  0  0  0  0  0  0  0  0
   44.9300   34.1950   44.8080 H   0  0  0  0  0  0  0  0  0  0  0  0
   48.3140   31.5870   44.7070 H   0  0  0  0  0  0  0  0  0  0  0  0
   46.7790   33.2290   43.1240 C   0  0  1  0  0  0  0  0  0  0  0  0
   46.9210   34.6100   42.6790 C   0  0  0  0  0  0  0  0  0  0  0  0
   48.1290   33.7500   42.6570 C   0  0  2  0  0  0  0  0  0  0  0  0
   46.3330   32.4400   42.4910 H   0  0  0  0  0  0  0  0  0  0  0  0
   46.9410   35.3840   43.5000 H   0  0  0  0  0  0  0  0  0  0  0  0
   46.3290   34.9260   41.8380 H   0  0  0  0  0  0  0  0  0  0  0  0
   48.9300   33.8010   43.4160 H   0  0  0  0  0  0  0  0  0  0  0  0
   48.5580   33.2190   41.3350 C   0  0  0  0  0  0  0  0  0  0  0  0
   49.4290   32.1640   41.1680 C   0  0  0  0  0  0  0  0  0  0  0  0
   49.7870   31.7270   39.9050 C   0  0  0  0  0  0  0  0  0  0  0  0
   49.2790   32.3430   38.7810 C   0  0  0  0  0  0  0  0  0  0  0  0
   49.6080   31.9350   37.5320 N   0  0  0  0  0  0  0  0  0  0  0  0
   49.0870   32.5590   36.4480 C   0  0  0  0  0  0  0  0  0  0  0  0
   48.1880   33.6490   36.5240 C   0  0  0  0  0  0  0  0  0  0  0  0
   47.8460   34.0720   37.7850 C   0  0  0  0  0  0  0  0  0  0  0  0
   48.3900   33.4190   38.8970 C   0  0  0  0  0  0  0  0  0  0  0  0
   48.0630   33.8180   40.1760 C   0  0  0  0  0  0  0  0  0  0  0  0
   49.8250   31.6870   42.0560 H   0  0  0  0  0  0  0  0  0  0  0  0
   50.4770   30.8920   39.7950 H   0  0  0  0  0  0  0  0  0  0  0  0
   49.4040   32.1670   35.5030 H   0  0  0  0  0  0  0  0  0  0  0  0
   47.8200   34.0890   35.6060 H   0  0  0  0  0  0  0  0  0  0  0  0
   47.1650   34.8990   37.9020 H   0  0  0  0  0  0  0  0  0  0  0  0
   47.3800   34.6560   40.1840 H   0  0  0  0  0  0  0  0  0  0  0  0
   46.1730   32.1410   48.7150 C   0  0  2  0  0  0  0  0  0  0  0  0
   47.1250   31.2800   49.3960 C   0  0  0  0  0  0  0  0  0  0  0  0
   45.8290   30.6460   49.0010 C   0  0  2  0  0  0  0  0  0  0  0  0
   45.4680   32.8390   49.2440 H   0  0  0  0  0  0  0  0  0  0  0  0
   48.0730   31.0890   48.8960 H   0  0  0  0  0  0  0  0  0  0  0  0
   47.2700   31.5120   50.4940 H   0  0  0  0  0  0  0  0  0  0  0  0
   45.1210   30.4660   49.8280 H   0  0  0  0  0  0  0  0  0  0  0  0
   46.7430   28.9150   47.2800 C   0  0  0  0  0  0  0  0  0  0  0  0
   45.8000   29.7430   47.8470 C   0  0  0  0  0  0  0  0  0  0  0  0
   44.5370   29.7770   47.2420 C   0  0  0  0  0  0  0  0  0  0  0  0
   43.6630   30.3730   47.5490 H   0  0  0  0  0  0  0  0  0  0  0  0
   44.2540   29.0010   46.1110 C   0  0  0  0  0  0  0  0  0  0  0  0
   45.2140   28.1820   45.5640 C   0  0  0  0  0  0  0  0  0  0  0  0
   46.4420   28.1610   46.1670 C   0  0  0  0  0  0  0  0  0  0  0  0
   47.9520   28.9580   47.9570 O   0  0  0  0  0  0  0  0  0  0  0  0
   48.2010   28.3230   48.7030 H   0  0  0  0  0  0  0  0  0  0  0  0
   47.4670   27.3730   45.6940 O   0  0  0  0  0  0  0  0  0  0  0  0
   48.0670   26.8630   46.3490 H   0  0  0  0  0  0  0  0  0  0  0  0
  1  6  1  0  0  0  0
  2  3  1  0  0  0  0
  2  1  2  0  0  0  0
  3  4  2  0  0  0  0
  4  5  1  0  0  0  0
  5 32  1  0  0  0  0
  6  5  2  0  0  0  0
  7  1  1  0  0  0  0
  8  3  1  0  0  0  0
  9 12  1  6  0  0  0
  9  2  1  0  0  0  0
 10  9  1  0  0  0  0
 10 13  1  0  0  0  0
 11 10  1  0  0  0  0
 11  9  1  0  0  0  0
 11 15  1  1  0  0  0
 14 10  1  0  0  0  0
 16 11  1  0  0  0  0
 17 16  1  0  0  0  0
 17 26  1  0  0  0  0
 18 17  2  0  0  0  0
 19 24  1  0  0  0  0
 19 18  1  0  0  0  0
 20 19  2  0  0  0  0
 21 22  2  0  0  0  0
 21 20  1  0  0  0  0
 22 23  1  0  0  0  0
 23 30  1  0  0  0  0
 23 24  2  0  0  0  0
 24 25  1  0  0  0  0
 25 31  1  0  0  0  0
 25 16  2  0  0  0  0
 27 18  1  0  0  0  0
 28 21  1  0  0  0  0
 29 22  1  0  0  0  0
 32 34  1  0  0  0  0
 32 35  1  1  0  0  0
 32 33  1  0  0  0  0
 33 37  1  0  0  0  0
 34 33  1  0  0  0  0
 34 38  1  1  0  0  0
 36 33  1  0  0  0  0
 39 40  1  0  0  0  0
 39 46  1  0  0  0  0
 40 34  1  0  0  0  0
 41 42  1  0  0  0  0
 41 40  2  0  0  0  0
 43 41  1  0  0  0  0
 44 43  2  0  0  0  0
 44 45  1  0  0  0  0
 45 39  2  0  0  0  0
 46 47  1  0  0  0  0
 48 45  1  0  0  0  0
 48 49  1  0  0  0  0
M  END
>  <minimizedAffinity>
-6.00890732

>  <minimizedRMSD>
1.19107318

$$$$
