
 OpenBabel03252500583D

 40 42  0  0  0  0  0  0  0  0999 V2000
   43.3170   34.5500   39.2790 O   0  0  0  0  0  0  0  0  0  0  0  0
   43.4090   34.1880   40.7520 P   0  0  1  0  0  0  0  0  0  0  0  0
   43.5730   32.5030   40.8940 O   0  0  0  0  0  0  0  0  0  0  0  0
   44.5140   32.2190   40.7030 H   0  0  0  0  0  0  0  0  0  0  0  0
   44.7940   34.8870   41.4390 O   0  0  0  0  0  0  0  0  0  0  0  0
   46.8670   34.2710   42.3510 C   0  0  0  0  0  0  0  0  0  0  0  0
   45.5130   34.4090   42.5140 C   0  0  0  0  0  0  0  0  0  0  0  0
   44.9660   34.0500   43.7660 C   0  0  0  0  0  0  0  0  0  0  0  0
   45.8130   33.5990   44.7080 N   0  0  0  0  0  0  0  0  0  0  0  0
   47.1320   33.4750   44.5230 C   0  0  0  0  0  0  0  0  0  0  0  0
   47.6540   33.8140   43.3400 N   0  0  0  0  0  0  0  0  0  0  0  0
   43.8990   34.1670   43.8670 H   0  0  0  0  0  0  0  0  0  0  0  0
   47.6920   33.1000   45.3660 H   0  0  0  0  0  0  0  0  0  0  0  0
   47.5110   34.6200   41.0880 C   0  0  0  0  0  0  0  0  0  0  0  0
   47.9110   33.7320   40.5170 H   0  0  0  0  0  0  0  0  0  0  0  0
   46.8280   35.1500   40.3900 H   0  0  0  0  0  0  0  0  0  0  0  0
   48.7040   35.4990   41.3640 C   0  0  0  0  0  0  0  0  0  0  0  0
   48.8920   35.5680   42.4570 H   0  0  0  0  0  0  0  0  0  0  0  0
   48.4730   36.5500   41.0350 H   0  0  0  0  0  0  0  0  0  0  0  0
   49.6290   35.1980   40.8730 H   0  0  0  0  0  0  0  0  0  0  0  0
   41.9840   34.6310   41.5460 O   0  0  0  0  0  0  0  0  0  0  0  0
   40.7670   34.2240   41.0000 C   0  0  0  0  0  0  0  0  0  0  0  0
   40.0220   35.2210   40.3630 C   0  0  0  0  0  0  0  0  0  0  0  0
   38.7950   34.9380   39.7820 C   0  0  0  0  0  0  0  0  0  0  0  0
   38.3390   33.6660   39.8500 N   0  0  0  0  0  0  0  0  0  0  0  0
   39.0530   32.7220   40.4580 C   0  0  0  0  0  0  0  0  0  0  0  0
   40.2360   32.9910   41.0190 N   0  0  0  0  0  0  0  0  0  0  0  0
   40.3040   36.2630   40.2590 H   0  0  0  0  0  0  0  0  0  0  0  0
   38.1890   35.6910   39.2780 H   0  0  0  0  0  0  0  0  0  0  0  0
   38.2550   30.6520   39.3580 C   0  0  0  0  0  0  0  0  0  0  0  0
   38.5360   31.3590   40.5150 C   0  0  0  0  0  0  0  0  0  0  0  0
   38.2910   30.6840   41.6930 C   0  0  0  0  0  0  0  0  0  0  0  0
   38.4940   31.1910   42.6450 H   0  0  0  0  0  0  0  0  0  0  0  0
   37.8020   29.3930   41.7380 C   0  0  0  0  0  3  0  0  0  0  0  0
   37.5320   28.7160   40.5470 C   0  0  0  0  0  3  0  0  0  0  0  0
   37.7650   29.3630   39.3450 C   0  0  0  0  0  0  0  0  0  0  0  0
   38.4750   31.2670   38.1220 O   0  0  0  0  0  0  0  0  0  0  0  0
   37.7490   31.7490   37.6110 H   0  0  0  0  0  0  0  0  0  0  0  0
   37.5140   28.7350   38.1100 O   0  0  0  0  0  0  0  0  0  0  0  0
   37.0830   29.2190   37.3270 H   0  0  0  0  0  0  0  0  0  0  0  0
  2  1  2  6  0  0  0
  2  3  1  0  0  0  0
  2  5  1  0  0  0  0
  2 21  1  0  0  0  0
  4  3  1  0  0  0  0
  5  7  1  0  0  0  0
  6  7  2  0  0  0  0
  6 11  1  0  0  0  0
  7  8  1  0  0  0  0
  8 12  1  0  0  0  0
  8  9  2  0  0  0  0
 10  9  1  0  0  0  0
 10 13  1  0  0  0  0
 11 10  2  0  0  0  0
 14 17  1  0  0  0  0
 14  6  1  0  0  0  0
 15 14  1  0  0  0  0
 16 14  1  0  0  0  0
 17 18  1  0  0  0  0
 19 17  1  0  0  0  0
 20 17  1  0  0  0  0
 22 27  1  0  0  0  0
 22 21  1  0  0  0  0
 23 22  2  0  0  0  0
 24 25  2  0  0  0  0
 24 23  1  0  0  0  0
 25 26  1  0  0  0  0
 26 31  1  0  0  0  0
 26 27  2  0  0  0  0
 28 23  1  0  0  0  0
 29 24  1  0  0  0  0
 30 31  1  0  0  0  0
 31 32  2  0  0  0  0
 32 34  1  0  0  0  0
 32 33  1  0  0  0  0
 35 34  2  0  0  0  0
 36 30  2  0  0  0  0
 36 35  1  0  0  0  0
 37 30  1  0  0  0  0
 38 37  1  0  0  0  0
 39 36  1  0  0  0  0
 40 39  1  0  0  0  0
M  END
>  <minimizedAffinity>
-5.61617041

>  <minimizedRMSD>
1.25952733

$$$$
