
 OpenBabel03252506323D

 34 36  0  0  1  0  0  0  0  0999 V2000
   44.6170   35.7950   44.7170 C   0  0  0  0  0  0  0  0  0  0  0  0
   44.5290   35.3960   43.3650 C   0  0  0  0  0  0  0  0  0  0  0  0
   44.8180   34.0750   43.0320 C   0  0  0  0  0  0  0  0  0  0  0  0
   45.1700   33.2520   44.0440 N   0  0  0  0  0  0  0  0  0  0  0  0
   45.2480   33.6470   45.3150 C   0  0  0  0  0  0  0  0  0  0  0  0
   44.9760   34.9120   45.6740 N   0  0  0  0  0  0  0  0  0  0  0  0
   45.6420   32.6790   46.2820 N   0  0  0  0  0  0  0  0  0  0  0  0
   45.4680   32.8410   47.7340 C   0  0  0  0  0  0  0  0  0  0  0  0
   46.7310   32.2060   48.2540 C   0  0  0  0  0  0  0  0  0  0  0  0
   47.3680   31.4670   47.1100 C   0  0  0  0  0  0  0  0  0  0  0  0
   46.2550   31.4020   46.1140 C   0  0  2  0  0  0  0  0  0  0  0  0
   44.3920   36.8280   44.9910 H   0  0  0  0  0  0  0  0  0  0  0  0
   44.7410   33.8060   41.9880 H   0  0  0  0  0  0  0  0  0  0  0  0
   45.3610   33.8920   48.0290 H   0  0  0  0  0  0  0  0  0  0  0  0
   44.6190   32.1910   48.0040 H   0  0  0  0  0  0  0  0  0  0  0  0
   47.3600   33.0250   48.6570 H   0  0  0  0  0  0  0  0  0  0  0  0
   46.5300   31.4970   49.0800 H   0  0  0  0  0  0  0  0  0  0  0  0
   47.7350   30.4650   47.3950 H   0  0  0  0  0  0  0  0  0  0  0  0
   48.2280   32.0950   46.7560 H   0  0  0  0  0  0  0  0  0  0  0  0
   45.5190   30.6540   46.5520 H   0  0  0  0  0  0  0  0  0  0  0  0
   45.7990   30.3370   43.9270 C   0  0  0  0  0  0  0  0  0  0  0  0
   46.6800   31.0140   44.7790 C   0  0  0  0  0  0  0  0  0  0  0  0
   47.9120   31.2100   44.2240 C   0  0  0  0  0  0  0  0  0  0  0  0
   48.6710   31.7130   44.8100 H   0  0  0  0  0  0  0  0  0  0  0  0
   48.3200   30.8180   42.9760 C   0  0  0  0  0  3  0  0  0  0  0  0
   47.4090   30.1550   42.1790 C   0  0  0  0  0  3  0  0  0  0  0  0
   46.1440   29.9110   42.6530 C   0  0  0  0  0  0  0  0  0  0  0  0
   44.5050   30.0610   44.3460 O   0  0  0  0  0  0  0  0  0  0  0  0
   43.7810   30.7850   44.3610 H   0  0  0  0  0  0  0  0  0  0  0  0
   45.2060   29.2420   41.8620 O   0  0  0  0  0  0  0  0  0  0  0  0
   45.2950   29.2670   40.8560 H   0  0  0  0  0  0  0  0  0  0  0  0
   44.1420   36.4100   42.4370 N   0  0  0  0  0  0  0  0  0  0  0  0
   44.4300   37.3800   42.5900 H   0  0  0  0  0  0  0  0  0  0  0  0
   43.5630   36.1270   41.6070 H   0  0  0  0  0  0  0  0  0  0  0  0
  1 12  1  0  0  0  0
  1  6  1  0  0  0  0
  2  1  2  0  0  0  0
  3  2  1  0  0  0  0
  3  4  2  0  0  0  0
  4  5  1  0  0  0  0
  5  6  2  0  0  0  0
  5  7  1  0  0  0  0
  7  8  1  0  0  0  0
  8 15  1  0  0  0  0
  8 14  1  0  0  0  0
  8  9  1  0  0  0  0
  9 16  1  0  0  0  0
  9 17  1  0  0  0  0
 10 18  1  0  0  0  0
 10  9  1  0  0  0  0
 11  7  1  0  0  0  0
 11 20  1  1  0  0  0
 11 10  1  0  0  0  0
 13  3  1  0  0  0  0
 19 10  1  0  0  0  0
 21 28  1  0  0  0  0
 21 22  1  0  0  0  0
 22 11  1  0  0  0  0
 23 22  2  0  0  0  0
 23 24  1  0  0  0  0
 25 23  1  0  0  0  0
 26 27  1  0  0  0  0
 26 25  2  0  0  0  0
 27 21  2  0  0  0  0
 28 29  1  0  0  0  0
 30 27  1  0  0  0  0
 31 30  1  0  0  0  0
 32 33  1  0  0  0  0
 32  2  1  0  0  0  0
 34 32  1  0  0  0  0
M  END
>  <minimizedAffinity>
-4.74596024

>  <minimizedRMSD>
2.12919354

$$$$
