
 OpenBabel03252501393D

 37 39  0  0  0  0  0  0  0  0999 V2000
   38.1330   32.0100   38.9550 Cl  0  0  0  0  0  0  0  0  0  0  0  0
   38.7780   31.3880   40.4500 C   0  0  0  0  0  0  0  0  0  0  0  0
   39.8220   32.0010   41.1500 C   0  0  0  0  0  0  0  0  0  0  0  0
   40.2720   31.4520   42.3170 C   0  0  0  0  0  0  0  0  0  0  0  0
   39.7640   30.3070   42.8760 C   0  0  0  0  0  0  0  0  0  0  0  0
   38.7230   29.6740   42.2010 C   0  0  0  0  0  0  0  0  0  0  0  0
   37.9860   28.1970   42.8190 Cl  0  0  0  0  0  0  0  0  0  0  0  0
   38.2760   30.2440   41.0160 C   0  0  0  0  0  0  0  0  0  0  0  0
   41.0880   31.9870   42.8040 H   0  0  0  0  0  0  0  0  0  0  0  0
   40.1300   29.8870   43.7960 H   0  0  0  0  0  0  0  0  0  0  0  0
   35.8270   29.8300   40.4400 C   0  0  0  0  0  0  0  0  0  0  0  0
   37.1790   29.5820   40.3000 C   0  0  0  0  0  0  0  0  0  0  0  0
   37.6540   28.6150   39.4080 C   0  0  0  0  0  0  0  0  0  0  0  0
   38.6840   28.3660   39.2440 H   0  0  0  0  0  0  0  0  0  0  0  0
   36.7320   27.8940   38.6480 C   0  0  0  0  0  3  0  0  0  0  0  0
   35.3970   28.1390   38.7860 C   0  0  0  0  0  3  0  0  0  0  0  0
   34.9490   29.0950   39.6710 C   0  0  0  0  0  0  0  0  0  0  0  0
   35.5010   30.8160   41.3620 O   0  0  0  0  0  0  0  0  0  0  0  0
   34.5800   30.9590   41.7460 H   0  0  0  0  0  0  0  0  0  0  0  0
   33.5980   29.3830   39.8480 O   0  0  0  0  0  0  0  0  0  0  0  0
   33.0560   29.6450   39.0210 H   0  0  0  0  0  0  0  0  0  0  0  0
   40.3240   33.1660   40.5620 O   0  0  0  0  0  0  0  0  0  0  0  0
   41.5760   33.1040   39.9400 C   0  0  0  0  0  0  0  0  0  0  0  0
   42.1800   32.0440   39.5750 O   0  0  0  0  0  0  0  0  0  0  0  0
   42.3150   34.2890   39.6490 N   0  0  0  0  0  0  0  0  0  0  0  0
   41.9540   35.2180   39.8790 H   0  0  0  0  0  0  0  0  0  0  0  0
   43.5720   33.9060   39.0170 C   0  0  0  0  0  0  0  0  0  0  0  0
   43.7990   33.9000   37.6600 C   0  0  0  0  0  0  0  0  0  0  0  0
   45.0530   33.5070   37.2500 C   0  0  0  0  0  0  0  0  0  0  0  0
   45.9490   33.1640   38.1870 N   0  0  0  0  0  0  0  0  0  0  0  0
   45.6920   33.1810   39.5090 C   0  0  0  0  0  0  0  0  0  0  0  0
   44.4620   33.5640   39.9470 N   0  0  0  0  0  0  0  0  0  0  0  0
   45.2340   33.5020   36.1840 H   0  0  0  0  0  0  0  0  0  0  0  0
   46.4910   32.8830   40.1710 H   0  0  0  0  0  0  0  0  0  0  0  0
   42.7280   34.2970   36.8220 N   0  0  0  0  0  0  0  0  0  0  0  0
   42.5600   33.6440   36.0300 H   0  0  0  0  0  0  0  0  0  0  0  0
   42.2430   35.1800   37.0930 H   0  0  0  0  0  0  0  0  0  0  0  0
  1  2  1  0  0  0  0
  2  8  2  0  0  0  0
  2  3  1  0  0  0  0
  3  4  2  0  0  0  0
  4  9  1  0  0  0  0
  4  5  1  0  0  0  0
  5 10  1  0  0  0  0
  6  7  1  0  0  0  0
  6  5  2  0  0  0  0
  8  6  1  0  0  0  0
 11 18  1  0  0  0  0
 12 11  1  0  0  0  0
 12  8  1  0  0  0  0
 13 12  2  0  0  0  0
 14 13  1  0  0  0  0
 15 16  2  0  0  0  0
 15 13  1  0  0  0  0
 16 17  1  0  0  0  0
 17 20  1  0  0  0  0
 17 11  2  0  0  0  0
 18 19  1  0  0  0  0
 21 20  1  0  0  0  0
 22  3  1  0  0  0  0
 23 22  1  0  0  0  0
 24 23  2  0  0  0  0
 25 26  1  0  0  0  0
 25 23  1  0  0  0  0
 27 25  1  0  0  0  0
 27 32  1  0  0  0  0
 28 27  2  0  0  0  0
 29 28  1  0  0  0  0
 29 30  2  0  0  0  0
 30 31  1  0  0  0  0
 31 32  2  0  0  0  0
 31 34  1  0  0  0  0
 33 29  1  0  0  0  0
 35 37  1  0  0  0  0
 35 28  1  0  0  0  0
 36 35  1  0  0  0  0
M  END
>  <minimizedAffinity>
-6.86595869

$$$$

 OpenBabel03252501393D

 37 39  0  0  0  0  0  0  0  0999 V2000
   39.3230   31.2660   41.5730 Cl  0  0  0  0  0  0  0  0  0  0  0  0
   38.5630   31.0650   40.0180 C   0  0  0  0  0  0  0  0  0  0  0  0
   38.6260   32.0240   39.0030 C   0  0  0  0  0  0  0  0  0  0  0  0
   38.0030   31.7910   37.8090 C   0  0  0  0  0  0  0  0  0  0  0  0
   37.2960   30.6530   37.5170 C   0  0  0  0  0  0  0  0  0  0  0  0
   37.2160   29.6790   38.5100 C   0  0  0  0  0  0  0  0  0  0  0  0
   36.3370   28.1730   38.2560 Cl  0  0  0  0  0  0  0  0  0  0  0  0
   37.8540   29.9290   39.7190 C   0  0  0  0  0  0  0  0  0  0  0  0
   38.0980   32.5860   37.0680 H   0  0  0  0  0  0  0  0  0  0  0  0
   36.8110   30.4850   36.5720 H   0  0  0  0  0  0  0  0  0  0  0  0
   36.8170   28.8120   41.7630 C   0  0  0  0  0  0  0  0  0  0  0  0
   37.7730   28.9070   40.7680 C   0  0  0  0  0  0  0  0  0  0  0  0
   38.8130   27.9780   40.6670 C   0  0  0  0  0  0  0  0  0  0  0  0
   39.5880   27.9840   39.9260 H   0  0  0  0  0  0  0  0  0  0  0  0
   38.8760   26.9380   41.5960 C   0  0  0  0  0  3  0  0  0  0  0  0
   37.9340   26.8450   42.5770 C   0  0  0  0  0  3  0  0  0  0  0  0
   36.9160   27.7700   42.6610 C   0  0  0  0  0  0  0  0  0  0  0  0
   35.8450   29.8030   41.7410 O   0  0  0  0  0  0  0  0  0  0  0  0
   35.2250   30.0130   42.5080 H   0  0  0  0  0  0  0  0  0  0  0  0
   35.9310   27.7190   43.6430 O   0  0  0  0  0  0  0  0  0  0  0  0
   35.3870   26.8560   43.7250 H   0  0  0  0  0  0  0  0  0  0  0  0
   39.3520   33.1760   39.3220 O   0  0  0  0  0  0  0  0  0  0  0  0
   40.7360   33.1590   39.1220 C   0  0  0  0  0  0  0  0  0  0  0  0
   41.4290   32.1530   38.7600 O   0  0  0  0  0  0  0  0  0  0  0  0
   41.5250   34.3300   39.3200 N   0  0  0  0  0  0  0  0  0  0  0  0
   41.1060   35.2190   39.6060 H   0  0  0  0  0  0  0  0  0  0  0  0
   42.9190   34.0010   39.0490 C   0  0  0  0  0  0  0  0  0  0  0  0
   43.5020   34.0170   37.8030 C   0  0  0  0  0  0  0  0  0  0  0  0
   44.8350   33.6740   37.7450 C   0  0  0  0  0  0  0  0  0  0  0  0
   45.4580   33.3560   38.8890 N   0  0  0  0  0  0  0  0  0  0  0  0
   44.8560   33.3510   40.0930 C   0  0  0  0  0  0  0  0  0  0  0  0
   43.5390   33.6840   40.1850 N   0  0  0  0  0  0  0  0  0  0  0  0
   45.2950   33.6860   36.7670 H   0  0  0  0  0  0  0  0  0  0  0  0
   45.4580   33.0770   40.9460 H   0  0  0  0  0  0  0  0  0  0  0  0
   42.6820   34.3810   36.7080 N   0  0  0  0  0  0  0  0  0  0  0  0
   42.7570   33.7300   35.9010 H   0  0  0  0  0  0  0  0  0  0  0  0
   42.1070   35.2430   36.8380 H   0  0  0  0  0  0  0  0  0  0  0  0
  2  1  1  0  0  0  0
  3 22  1  0  0  0  0
  3  2  2  0  0  0  0
  4  3  1  0  0  0  0
  5  4  2  0  0  0  0
  5  6  1  0  0  0  0
  6  8  2  0  0  0  0
  7  6  1  0  0  0  0
  8  2  1  0  0  0  0
  8 12  1  0  0  0  0
  9  4  1  0  0  0  0
 10  5  1  0  0  0  0
 11 17  1  0  0  0  0
 12 11  2  0  0  0  0
 13 12  1  0  0  0  0
 13 15  2  0  0  0  0
 14 13  1  0  0  0  0
 15 16  1  0  0  0  0
 16 17  2  0  0  0  0
 17 20  1  0  0  0  0
 18 11  1  0  0  0  0
 18 19  1  0  0  0  0
 20 21  1  0  0  0  0
 23 25  1  0  0  0  0
 23 22  1  0  0  0  0
 24 23  2  0  0  0  0
 25 26  1  0  0  0  0
 27 25  1  0  0  0  0
 27 32  1  0  0  0  0
 28 27  2  0  0  0  0
 29 28  1  0  0  0  0
 29 30  2  0  0  0  0
 30 31  1  0  0  0  0
 31 32  2  0  0  0  0
 31 34  1  0  0  0  0
 33 29  1  0  0  0  0
 35 37  1  0  0  0  0
 35 28  1  0  0  0  0
 36 35  1  0  0  0  0
M  END
>  <minimizedAffinity>
-6.76310587

$$$$

 OpenBabel03252501393D

 37 39  0  0  0  0  0  0  0  0999 V2000
   40.7700   29.7490   38.4580 Cl  0  0  0  0  0  0  0  0  0  0  0  0
   39.2730   30.4550   39.0030 C   0  0  0  0  0  0  0  0  0  0  0  0
   38.1050   29.7150   39.2070 C   0  0  0  0  0  0  0  0  0  0  0  0
   36.9700   30.3430   39.6370 C   0  0  0  0  0  0  0  0  0  0  0  0
   36.8820   31.6880   39.8920 C   0  0  0  0  0  0  0  0  0  0  0  0
   38.0310   32.4510   39.6970 C   0  0  0  0  0  0  0  0  0  0  0  0
   38.0450   34.1890   39.9900 Cl  0  0  0  0  0  0  0  0  0  0  0  0
   39.1780   31.8000   39.2600 C   0  0  0  0  0  0  0  0  0  0  0  0
   36.1000   29.7000   39.7730 H   0  0  0  0  0  0  0  0  0  0  0  0
   35.9800   32.1680   40.2290 H   0  0  0  0  0  0  0  0  0  0  0  0
   40.9010   33.0340   37.8440 C   0  0  0  0  0  0  0  0  0  0  0  0
   40.3910   32.5980   39.0520 C   0  0  0  0  0  0  0  0  0  0  0  0
   41.0260   32.8980   40.2620 C   0  0  0  0  0  0  0  0  0  0  0  0
   40.6920   32.5970   41.2350 H   0  0  0  0  0  0  0  0  0  0  0  0
   42.1980   33.6550   40.2340 C   0  0  0  0  0  3  0  0  0  0  0  0
   42.7010   34.0850   39.0410 C   0  0  0  0  0  3  0  0  0  0  0  0
   42.0620   33.7790   37.8600 C   0  0  0  0  0  0  0  0  0  0  0  0
   40.1660   32.6620   36.7260 O   0  0  0  0  0  0  0  0  0  0  0  0
   40.5090   32.6970   35.7780 H   0  0  0  0  0  0  0  0  0  0  0  0
   42.5350   34.1940   36.6180 O   0  0  0  0  0  0  0  0  0  0  0  0
   42.6850   35.1960   36.4790 H   0  0  0  0  0  0  0  0  0  0  0  0
   38.2160   28.3470   38.9420 O   0  0  0  0  0  0  0  0  0  0  0  0
   38.6590   27.5100   39.9720 C   0  0  0  0  0  0  0  0  0  0  0  0
   39.8120   26.9750   40.0600 O   0  0  0  0  0  0  0  0  0  0  0  0
   37.8090   27.1710   41.0650 N   0  0  0  0  0  0  0  0  0  0  0  0
   36.8540   27.5330   41.1360 H   0  0  0  0  0  0  0  0  0  0  0  0
   38.5390   26.2840   41.9620 C   0  0  0  0  0  0  0  0  0  0  0  0
   39.3590   26.7030   42.9850 C   0  0  0  0  0  0  0  0  0  0  0  0
   39.9670   25.7140   43.7270 C   0  0  0  0  0  0  0  0  0  0  0  0
   39.7180   24.4360   43.4060 N   0  0  0  0  0  0  0  0  0  0  0  0
   38.9090   24.0620   42.3970 C   0  0  0  0  0  0  0  0  0  0  0  0
   38.2940   25.0140   41.6440 N   0  0  0  0  0  0  0  0  0  0  0  0
   40.6110   26.0400   44.5310 H   0  0  0  0  0  0  0  0  0  0  0  0
   38.7840   23.0030   42.2300 H   0  0  0  0  0  0  0  0  0  0  0  0
   39.4990   28.0990   43.1740 N   0  0  0  0  0  0  0  0  0  0  0  0
   40.4870   28.4060   43.2730 H   0  0  0  0  0  0  0  0  0  0  0  0
   38.6100   28.6460   43.1910 H   0  0  0  0  0  0  0  0  0  0  0  0
  1  2  1  0  0  0  0
  2  3  2  0  0  0  0
  2  8  1  0  0  0  0
  3  4  1  0  0  0  0
  4  9  1  0  0  0  0
  4  5  2  0  0  0  0
  5 10  1  0  0  0  0
  6  5  1  0  0  0  0
  6  7  1  0  0  0  0
  8  6  2  0  0  0  0
 11 17  2  0  0  0  0
 11 12  1  0  0  0  0
 12  8  1  0  0  0  0
 12 13  2  0  0  0  0
 13 14  1  0  0  0  0
 15 13  1  0  0  0  0
 16 15  2  0  0  0  0
 17 16  1  0  0  0  0
 18 11  1  0  0  0  0
 19 18  1  0  0  0  0
 20 17  1  0  0  0  0
 21 20  1  0  0  0  0
 22  3  1  0  0  0  0
 22 23  1  0  0  0  0
 23 24  2  0  0  0  0
 23 25  1  0  0  0  0
 25 26  1  0  0  0  0
 25 27  1  0  0  0  0
 27 28  1  0  0  0  0
 28 35  1  0  0  0  0
 28 29  2  0  0  0  0
 29 33  1  0  0  0  0
 30 29  1  0  0  0  0
 31 30  2  0  0  0  0
 32 27  2  0  0  0  0
 32 31  1  0  0  0  0
 34 31  1  0  0  0  0
 35 37  1  0  0  0  0
 35 36  1  0  0  0  0
M  END
>  <minimizedAffinity>
-6.68970251

$$$$

 OpenBabel03252501393D

 37 39  0  0  0  0  0  0  0  0999 V2000
   36.9530   32.0840   39.0780 Cl  0  0  0  0  0  0  0  0  0  0  0  0
   37.5660   30.8330   40.1250 C   0  0  0  0  0  0  0  0  0  0  0  0
   38.4680   31.0760   41.1650 C   0  0  0  0  0  0  0  0  0  0  0  0
   38.9020   30.0400   41.9430 C   0  0  0  0  0  0  0  0  0  0  0  0
   38.5110   28.7360   41.7800 C   0  0  0  0  0  0  0  0  0  0  0  0
   37.6120   28.4640   40.7510 C   0  0  0  0  0  0  0  0  0  0  0  0
   37.0340   26.8280   40.4400 Cl  0  0  0  0  0  0  0  0  0  0  0  0
   37.1790   29.5260   39.9680 C   0  0  0  0  0  0  0  0  0  0  0  0
   39.6050   30.3090   42.7340 H   0  0  0  0  0  0  0  0  0  0  0  0
   38.8630   27.9310   42.4010 H   0  0  0  0  0  0  0  0  0  0  0  0
   34.8560   29.1630   38.9820 C   0  0  0  0  0  0  0  0  0  0  0  0
   36.2330   29.2450   38.8830 C   0  0  0  0  0  0  0  0  0  0  0  0
   36.8870   29.0560   37.6620 C   0  0  0  0  0  0  0  0  0  0  0  0
   37.9470   29.1030   37.5050 H   0  0  0  0  0  0  0  0  0  0  0  0
   36.1240   28.7790   36.5270 C   0  0  0  0  0  3  0  0  0  0  0  0
   34.7660   28.6970   36.6250 C   0  0  0  0  0  3  0  0  0  0  0  0
   34.1390   28.8870   37.8370 C   0  0  0  0  0  0  0  0  0  0  0  0
   34.3440   29.3730   40.2550 O   0  0  0  0  0  0  0  0  0  0  0  0
   33.4090   29.1300   40.5430 H   0  0  0  0  0  0  0  0  0  0  0  0
   32.7560   28.8150   37.9890 O   0  0  0  0  0  0  0  0  0  0  0  0
   32.1820   29.4230   37.4000 H   0  0  0  0  0  0  0  0  0  0  0  0
   38.8540   32.4110   41.3140 O   0  0  0  0  0  0  0  0  0  0  0  0
   39.8920   32.8920   40.5090 C   0  0  0  0  0  0  0  0  0  0  0  0
   40.0860   34.1070   40.1810 O   0  0  0  0  0  0  0  0  0  0  0  0
   40.8700   32.0100   39.9620 N   0  0  0  0  0  0  0  0  0  0  0  0
   40.8490   31.0030   40.1440 H   0  0  0  0  0  0  0  0  0  0  0  0
   41.8070   32.7940   39.1660 C   0  0  0  0  0  0  0  0  0  0  0  0
   41.6180   33.1430   37.8480 C   0  0  0  0  0  0  0  0  0  0  0  0
   42.6160   33.8890   37.2620 C   0  0  0  0  0  0  0  0  0  0  0  0
   43.6830   34.2180   38.0060 N   0  0  0  0  0  0  0  0  0  0  0  0
   43.8340   33.8590   39.2950 C   0  0  0  0  0  0  0  0  0  0  0  0
   42.8670   33.1210   39.9040 N   0  0  0  0  0  0  0  0  0  0  0  0
   42.4700   34.1640   36.2270 H   0  0  0  0  0  0  0  0  0  0  0  0
   44.7360   34.1810   39.7950 H   0  0  0  0  0  0  0  0  0  0  0  0
   40.4240   32.7030   37.2260 N   0  0  0  0  0  0  0  0  0  0  0  0
   40.5810   32.2620   36.2980 H   0  0  0  0  0  0  0  0  0  0  0  0
   39.5440   32.8700   37.7620 H   0  0  0  0  0  0  0  0  0  0  0  0
  1  2  1  0  0  0  0
  2  3  1  0  0  0  0
  3 22  1  0  0  0  0
  3  4  2  0  0  0  0
  4  9  1  0  0  0  0
  5  4  1  0  0  0  0
  5 10  1  0  0  0  0
  6  5  2  0  0  0  0
  7  6  1  0  0  0  0
  8  2  2  0  0  0  0
  8  6  1  0  0  0  0
 11 18  1  0  0  0  0
 12 11  1  0  0  0  0
 12  8  1  0  0  0  0
 13 12  2  0  0  0  0
 14 13  1  0  0  0  0
 15 16  2  0  0  0  0
 15 13  1  0  0  0  0
 16 17  1  0  0  0  0
 17 20  1  0  0  0  0
 17 11  2  0  0  0  0
 18 19  1  0  0  0  0
 21 20  1  0  0  0  0
 23 22  1  0  0  0  0
 24 23  2  0  0  0  0
 25 26  1  0  0  0  0
 25 23  1  0  0  0  0
 27 32  1  0  0  0  0
 27 25  1  0  0  0  0
 28 27  2  0  0  0  0
 29 28  1  0  0  0  0
 29 30  2  0  0  0  0
 30 31  1  0  0  0  0
 31 34  1  0  0  0  0
 31 32  2  0  0  0  0
 33 29  1  0  0  0  0
 35 37  1  0  0  0  0
 35 28  1  0  0  0  0
 36 35  1  0  0  0  0
M  END
>  <minimizedAffinity>
-6.47735357

$$$$

 OpenBabel03252501393D

 37 39  0  0  0  0  0  0  0  0999 V2000
   39.1030   27.2320   38.8660 Cl  0  0  0  0  0  0  0  0  0  0  0  0
   38.2440   28.2480   39.9910 C   0  0  0  0  0  0  0  0  0  0  0  0
   38.0540   29.6190   39.7990 C   0  0  0  0  0  0  0  0  0  0  0  0
   37.3680   30.3470   40.7290 C   0  0  0  0  0  0  0  0  0  0  0  0
   36.8310   29.8220   41.8770 C   0  0  0  0  0  0  0  0  0  0  0  0
   37.0040   28.4580   42.0960 C   0  0  0  0  0  0  0  0  0  0  0  0
   36.3610   27.6650   43.5330 Cl  0  0  0  0  0  0  0  0  0  0  0  0
   37.7040   27.7300   41.1420 C   0  0  0  0  0  0  0  0  0  0  0  0
   37.2610   31.4100   40.5080 H   0  0  0  0  0  0  0  0  0  0  0  0
   36.2940   30.4090   42.6000 H   0  0  0  0  0  0  0  0  0  0  0  0
   38.8670   25.6920   42.1390 C   0  0  0  0  0  0  0  0  0  0  0  0
   37.8900   26.2920   41.3670 C   0  0  0  0  0  0  0  0  0  0  0  0
   36.9290   25.5340   40.6900 C   0  0  0  0  0  0  0  0  0  0  0  0
   36.1430   25.9250   40.0750 H   0  0  0  0  0  0  0  0  0  0  0  0
   36.9700   24.1440   40.8040 C   0  0  0  0  0  3  0  0  0  0  0  0
   37.9350   23.5520   41.5650 C   0  0  0  0  0  3  0  0  0  0  0  0
   38.8720   24.3160   42.2250 C   0  0  0  0  0  0  0  0  0  0  0  0
   39.7530   26.5680   42.7530 O   0  0  0  0  0  0  0  0  0  0  0  0
   40.6390   26.2990   43.1520 H   0  0  0  0  0  0  0  0  0  0  0  0
   39.8760   23.7600   43.0140 O   0  0  0  0  0  0  0  0  0  0  0  0
   39.5920   23.1390   43.7750 H   0  0  0  0  0  0  0  0  0  0  0  0
   38.6080   30.1340   38.6230 O   0  0  0  0  0  0  0  0  0  0  0  0
   39.6690   31.0390   38.7350 C   0  0  0  0  0  0  0  0  0  0  0  0
   40.8420   30.7720   39.1520 O   0  0  0  0  0  0  0  0  0  0  0  0
   39.5120   32.4090   38.3710 N   0  0  0  0  0  0  0  0  0  0  0  0
   38.6250   32.7720   38.0110 H   0  0  0  0  0  0  0  0  0  0  0  0
   40.7740   33.0990   38.6070 C   0  0  0  0  0  0  0  0  0  0  0  0
   41.1790   33.6030   39.8210 C   0  0  0  0  0  0  0  0  0  0  0  0
   42.4080   34.2240   39.8480 C   0  0  0  0  0  0  0  0  0  0  0  0
   43.1110   34.2900   38.7080 N   0  0  0  0  0  0  0  0  0  0  0  0
   42.6830   33.7850   37.5360 C   0  0  0  0  0  0  0  0  0  0  0  0
   41.4730   33.1660   37.4740 N   0  0  0  0  0  0  0  0  0  0  0  0
   42.7290   34.6210   40.8010 H   0  0  0  0  0  0  0  0  0  0  0  0
   43.3350   33.8970   36.6820 H   0  0  0  0  0  0  0  0  0  0  0  0
   40.2990   33.4370   40.9180 N   0  0  0  0  0  0  0  0  0  0  0  0
   40.1480   34.3100   41.4620 H   0  0  0  0  0  0  0  0  0  0  0  0
   39.9130   32.4760   41.0490 H   0  0  0  0  0  0  0  0  0  0  0  0
  1  2  1  0  0  0  0
  2  8  1  0  0  0  0
  3  2  2  0  0  0  0
  3  4  1  0  0  0  0
  4  5  2  0  0  0  0
  5  6  1  0  0  0  0
  5 10  1  0  0  0  0
  6  7  1  0  0  0  0
  8 12  1  0  0  0  0
  8  6  2  0  0  0  0
  9  4  1  0  0  0  0
 11 17  1  0  0  0  0
 11 18  1  0  0  0  0
 12 11  2  0  0  0  0
 13 15  2  0  0  0  0
 13 12  1  0  0  0  0
 14 13  1  0  0  0  0
 15 16  1  0  0  0  0
 16 17  2  0  0  0  0
 17 20  1  0  0  0  0
 18 19  1  0  0  0  0
 20 21  1  0  0  0  0
 22 23  1  0  0  0  0
 22  3  1  0  0  0  0
 23 24  2  0  0  0  0
 25 27  1  0  0  0  0
 25 23  1  0  0  0  0
 26 25  1  0  0  0  0
 27 28  1  0  0  0  0
 28 29  2  0  0  0  0
 28 35  1  0  0  0  0
 29 33  1  0  0  0  0
 30 29  1  0  0  0  0
 31 30  2  0  0  0  0
 32 31  1  0  0  0  0
 32 27  2  0  0  0  0
 34 31  1  0  0  0  0
 35 37  1  0  0  0  0
 35 36  1  0  0  0  0
M  END
>  <minimizedAffinity>
-6.34152746

$$$$

 OpenBabel03252501393D

 37 39  0  0  0  0  0  0  0  0999 V2000
   39.2860   30.0690   42.4870 Cl  0  0  0  0  0  0  0  0  0  0  0  0
   38.1800   30.4470   41.1950 C   0  0  0  0  0  0  0  0  0  0  0  0
   38.0650   31.7220   40.6320 C   0  0  0  0  0  0  0  0  0  0  0  0
   37.1740   31.9390   39.6190 C   0  0  0  0  0  0  0  0  0  0  0  0
   36.3550   30.9720   39.0920 C   0  0  0  0  0  0  0  0  0  0  0  0
   36.4480   29.6930   39.6340 C   0  0  0  0  0  0  0  0  0  0  0  0
   35.4500   28.3660   39.0420 Cl  0  0  0  0  0  0  0  0  0  0  0  0
   37.3580   29.4870   40.6620 C   0  0  0  0  0  0  0  0  0  0  0  0
   37.1410   32.9580   39.2320 H   0  0  0  0  0  0  0  0  0  0  0  0
   35.6580   31.1600   38.2950 H   0  0  0  0  0  0  0  0  0  0  0  0
   38.2850   27.1160   40.8090 C   0  0  0  0  0  0  0  0  0  0  0  0
   37.4610   28.1400   41.2360 C   0  0  0  0  0  0  0  0  0  0  0  0
   36.5960   27.9740   42.3230 C   0  0  0  0  0  0  0  0  0  0  0  0
   35.9290   28.7180   42.7120 H   0  0  0  0  0  0  0  0  0  0  0  0
   36.5740   26.7440   42.9810 C   0  0  0  0  0  3  0  0  0  0  0  0
   37.3880   25.7330   42.5590 C   0  0  0  0  0  3  0  0  0  0  0  0
   38.2330   25.9160   41.4870 C   0  0  0  0  0  0  0  0  0  0  0  0
   39.0900   27.4230   39.7210 O   0  0  0  0  0  0  0  0  0  0  0  0
   39.5690   26.7420   39.1530 H   0  0  0  0  0  0  0  0  0  0  0  0
   39.0820   24.9170   41.0190 O   0  0  0  0  0  0  0  0  0  0  0  0
   39.7370   24.4990   41.6850 H   0  0  0  0  0  0  0  0  0  0  0  0
   38.9080   32.6910   41.1830 O   0  0  0  0  0  0  0  0  0  0  0  0
   39.9970   33.1270   40.4210 C   0  0  0  0  0  0  0  0  0  0  0  0
   40.2250   34.3270   40.0560 O   0  0  0  0  0  0  0  0  0  0  0  0
   40.9940   32.2140   39.9660 N   0  0  0  0  0  0  0  0  0  0  0  0
   40.9490   31.2150   40.1870 H   0  0  0  0  0  0  0  0  0  0  0  0
   41.9840   32.9550   39.1950 C   0  0  0  0  0  0  0  0  0  0  0  0
   41.8640   33.2740   37.8620 C   0  0  0  0  0  0  0  0  0  0  0  0
   42.9070   33.9820   37.3050 C   0  0  0  0  0  0  0  0  0  0  0  0
   43.9460   34.3030   38.0890 N   0  0  0  0  0  0  0  0  0  0  0  0
   44.0310   33.9740   39.3910 C   0  0  0  0  0  0  0  0  0  0  0  0
   43.0180   33.2750   39.9730 N   0  0  0  0  0  0  0  0  0  0  0  0
   42.8140   34.2340   36.2580 H   0  0  0  0  0  0  0  0  0  0  0  0
   44.9160   34.2860   39.9240 H   0  0  0  0  0  0  0  0  0  0  0  0
   40.6890   32.8490   37.1970 N   0  0  0  0  0  0  0  0  0  0  0  0
   40.8760   32.3800   36.2880 H   0  0  0  0  0  0  0  0  0  0  0  0
   39.7900   33.0500   37.6880 H   0  0  0  0  0  0  0  0  0  0  0  0
  2  1  1  0  0  0  0
  3 22  1  0  0  0  0
  3  2  2  0  0  0  0
  4  3  1  0  0  0  0
  5  4  2  0  0  0  0
  5  6  1  0  0  0  0
  6  8  2  0  0  0  0
  7  6  1  0  0  0  0
  8  2  1  0  0  0  0
  8 12  1  0  0  0  0
  9  4  1  0  0  0  0
 10  5  1  0  0  0  0
 11 12  2  0  0  0  0
 11 17  1  0  0  0  0
 12 13  1  0  0  0  0
 13 14  1  0  0  0  0
 13 15  2  0  0  0  0
 16 15  1  0  0  0  0
 17 16  2  0  0  0  0
 18 11  1  0  0  0  0
 19 18  1  0  0  0  0
 20 17  1  0  0  0  0
 20 21  1  0  0  0  0
 23 22  1  0  0  0  0
 24 23  2  0  0  0  0
 25 26  1  0  0  0  0
 25 23  1  0  0  0  0
 27 25  1  0  0  0  0
 27 32  1  0  0  0  0
 28 27  2  0  0  0  0
 29 28  1  0  0  0  0
 29 30  2  0  0  0  0
 30 31  1  0  0  0  0
 31 34  1  0  0  0  0
 31 32  2  0  0  0  0
 33 29  1  0  0  0  0
 35 37  1  0  0  0  0
 35 28  1  0  0  0  0
 36 35  1  0  0  0  0
M  END
>  <minimizedAffinity>
-6.2848177

$$$$

 OpenBabel03252501393D

 37 39  0  0  0  0  0  0  0  0999 V2000
   36.8230   27.7670   39.8110 Cl  0  0  0  0  0  0  0  0  0  0  0  0
   37.7090   27.5240   41.2920 C   0  0  0  0  0  0  0  0  0  0  0  0
   37.9860   28.5520   42.1990 C   0  0  0  0  0  0  0  0  0  0  0  0
   38.6860   28.2800   43.3400 C   0  0  0  0  0  0  0  0  0  0  0  0
   39.1580   27.0370   43.6780 C   0  0  0  0  0  0  0  0  0  0  0  0
   38.8970   25.9930   42.7930 C   0  0  0  0  0  0  0  0  0  0  0  0
   39.4490   24.3510   43.1150 Cl  0  0  0  0  0  0  0  0  0  0  0  0
   38.1840   26.2840   41.6370 C   0  0  0  0  0  0  0  0  0  0  0  0
   38.8620   29.1320   43.9970 H   0  0  0  0  0  0  0  0  0  0  0  0
   39.7080   26.8390   44.5800 H   0  0  0  0  0  0  0  0  0  0  0  0
   38.7010   24.7760   39.6480 C   0  0  0  0  0  0  0  0  0  0  0  0
   37.9070   25.1890   40.7010 C   0  0  0  0  0  0  0  0  0  0  0  0
   36.6910   24.5590   40.9860 C   0  0  0  0  0  0  0  0  0  0  0  0
   36.0220   24.8200   41.7830 H   0  0  0  0  0  0  0  0  0  0  0  0
   36.2830   23.4930   40.1840 C   0  0  0  0  0  3  0  0  0  0  0  0
   37.0670   23.0860   39.1440 C   0  0  0  0  0  3  0  0  0  0  0  0
   38.2620   23.7190   38.8790 C   0  0  0  0  0  0  0  0  0  0  0  0
   39.8790   25.4920   39.4830 O   0  0  0  0  0  0  0  0  0  0  0  0
   40.4470   25.4750   38.6500 H   0  0  0  0  0  0  0  0  0  0  0  0
   39.0970   23.3410   37.8310 O   0  0  0  0  0  0  0  0  0  0  0  0
   39.4070   22.3660   37.7980 H   0  0  0  0  0  0  0  0  0  0  0  0
   37.4960   29.8090   41.8350 O   0  0  0  0  0  0  0  0  0  0  0  0
   38.3550   30.6800   41.1550 C   0  0  0  0  0  0  0  0  0  0  0  0
   39.6120   30.7830   41.3330 O   0  0  0  0  0  0  0  0  0  0  0  0
   37.8650   31.5690   40.1540 N   0  0  0  0  0  0  0  0  0  0  0  0
   36.8740   31.5950   39.8970 H   0  0  0  0  0  0  0  0  0  0  0  0
   38.9830   32.3490   39.6390 C   0  0  0  0  0  0  0  0  0  0  0  0
   39.4400   33.5250   40.1900 C   0  0  0  0  0  0  0  0  0  0  0  0
   40.5120   34.1200   39.5610 C   0  0  0  0  0  0  0  0  0  0  0  0
   41.0250   33.5190   38.4770 N   0  0  0  0  0  0  0  0  0  0  0  0
   40.5520   32.3680   37.9650 C   0  0  0  0  0  0  0  0  0  0  0  0
   39.4930   31.7540   38.5620 N   0  0  0  0  0  0  0  0  0  0  0  0
   40.8740   35.0430   39.9910 H   0  0  0  0  0  0  0  0  0  0  0  0
   41.0450   31.9770   37.0870 H   0  0  0  0  0  0  0  0  0  0  0  0
   38.7700   34.0060   41.3400 N   0  0  0  0  0  0  0  0  0  0  0  0
   38.5220   35.0140   41.2820 H   0  0  0  0  0  0  0  0  0  0  0  0
   38.6050   33.3050   42.0960 H   0  0  0  0  0  0  0  0  0  0  0  0
  1  2  1  0  0  0  0
  2  8  2  0  0  0  0
  2  3  1  0  0  0  0
  3  4  2  0  0  0  0
  4  5  1  0  0  0  0
  4  9  1  0  0  0  0
  5 10  1  0  0  0  0
  6  7  1  0  0  0  0
  6  5  2  0  0  0  0
  8  6  1  0  0  0  0
 11 12  1  0  0  0  0
 12 13  2  0  0  0  0
 12  8  1  0  0  0  0
 13 14  1  0  0  0  0
 15 13  1  0  0  0  0
 16 15  2  0  0  0  0
 17 16  1  0  0  0  0
 17 11  2  0  0  0  0
 18 11  1  0  0  0  0
 19 18  1  0  0  0  0
 20 17  1  0  0  0  0
 21 20  1  0  0  0  0
 22  3  1  0  0  0  0
 23 24  2  0  0  0  0
 23 22  1  0  0  0  0
 25 23  1  0  0  0  0
 26 25  1  0  0  0  0
 27 25  1  0  0  0  0
 27 28  1  0  0  0  0
 28 35  1  0  0  0  0
 29 33  1  0  0  0  0
 29 28  2  0  0  0  0
 30 29  1  0  0  0  0
 31 30  2  0  0  0  0
 31 32  1  0  0  0  0
 32 27  2  0  0  0  0
 34 31  1  0  0  0  0
 35 37  1  0  0  0  0
 36 35  1  0  0  0  0
M  END
>  <minimizedAffinity>
-6.2340126

$$$$

 OpenBabel03252501393D

 37 39  0  0  0  0  0  0  0  0999 V2000
   41.1180   30.2900   41.0870 Cl  0  0  0  0  0  0  0  0  0  0  0  0
   39.4090   30.6190   40.9850 C   0  0  0  0  0  0  0  0  0  0  0  0
   38.4330   29.7890   41.5440 C   0  0  0  0  0  0  0  0  0  0  0  0
   37.1120   30.1170   41.4220 C   0  0  0  0  0  0  0  0  0  0  0  0
   36.6520   31.2340   40.7710 C   0  0  0  0  0  0  0  0  0  0  0  0
   37.6020   32.0790   40.2050 C   0  0  0  0  0  0  0  0  0  0  0  0
   37.1360   33.5450   39.3430 Cl  0  0  0  0  0  0  0  0  0  0  0  0
   38.9410   31.7340   40.3370 C   0  0  0  0  0  0  0  0  0  0  0  0
   36.4110   29.4210   41.8840 H   0  0  0  0  0  0  0  0  0  0  0  0
   35.6080   31.4770   40.6840 H   0  0  0  0  0  0  0  0  0  0  0  0
   40.4720   32.5410   38.4640 C   0  0  0  0  0  0  0  0  0  0  0  0
   39.9460   32.6200   39.7410 C   0  0  0  0  0  0  0  0  0  0  0  0
   40.3530   33.6160   40.6350 C   0  0  0  0  0  0  0  0  0  0  0  0
   39.9930   33.7430   41.6370 H   0  0  0  0  0  0  0  0  0  0  0  0
   41.3090   34.5430   40.2170 C   0  0  0  0  0  3  0  0  0  0  0  0
   41.8270   34.4650   38.9580 C   0  0  0  0  0  3  0  0  0  0  0  0
   41.4140   33.4760   38.0920 C   0  0  0  0  0  0  0  0  0  0  0  0
   39.9760   31.5030   37.6880 O   0  0  0  0  0  0  0  0  0  0  0  0
   40.4050   31.1690   36.8380 H   0  0  0  0  0  0  0  0  0  0  0  0
   41.9120   33.3540   36.7970 O   0  0  0  0  0  0  0  0  0  0  0  0
   41.8360   34.1670   36.1810 H   0  0  0  0  0  0  0  0  0  0  0  0
   38.9240   28.6580   42.2020 O   0  0  0  0  0  0  0  0  0  0  0  0
   38.6440   27.4020   41.6520 C   0  0  0  0  0  0  0  0  0  0  0  0
   39.2180   26.8820   40.6410 O   0  0  0  0  0  0  0  0  0  0  0  0
   37.6390   26.5580   42.2120 N   0  0  0  0  0  0  0  0  0  0  0  0
   37.0970   26.8390   43.0330 H   0  0  0  0  0  0  0  0  0  0  0  0
   37.5710   25.3340   41.4230 C   0  0  0  0  0  0  0  0  0  0  0  0
   38.2890   24.1890   41.6870 C   0  0  0  0  0  0  0  0  0  0  0  0
   38.0920   23.1310   40.8280 C   0  0  0  0  0  0  0  0  0  0  0  0
   37.2290   23.2900   39.8130 N   0  0  0  0  0  0  0  0  0  0  0  0
   36.5440   24.4260   39.5840 C   0  0  0  0  0  0  0  0  0  0  0  0
   36.7160   25.4900   40.4140 N   0  0  0  0  0  0  0  0  0  0  0  0
   38.6530   22.2310   41.0330 H   0  0  0  0  0  0  0  0  0  0  0  0
   35.8770   24.4380   38.7350 H   0  0  0  0  0  0  0  0  0  0  0  0
   39.1530   24.2100   42.8080 N   0  0  0  0  0  0  0  0  0  0  0  0
   40.1060   23.8510   42.6010 H   0  0  0  0  0  0  0  0  0  0  0  0
   38.7390   24.5770   43.6940 H   0  0  0  0  0  0  0  0  0  0  0  0
  2  1  1  0  0  0  0
  2  3  1  0  0  0  0
  3 22  1  0  0  0  0
  4  3  2  0  0  0  0
  4  9  1  0  0  0  0
  5  4  1  0  0  0  0
  6  8  1  0  0  0  0
  6  5  2  0  0  0  0
  7  6  1  0  0  0  0
  8  2  2  0  0  0  0
 10  5  1  0  0  0  0
 11 12  1  0  0  0  0
 12  8  1  0  0  0  0
 12 13  2  0  0  0  0
 13 14  1  0  0  0  0
 15 13  1  0  0  0  0
 16 15  2  0  0  0  0
 17 11  2  0  0  0  0
 17 16  1  0  0  0  0
 18 11  1  0  0  0  0
 19 18  1  0  0  0  0
 20 17  1  0  0  0  0
 21 20  1  0  0  0  0
 23 22  1  0  0  0  0
 23 25  1  0  0  0  0
 24 23  2  0  0  0  0
 25 26  1  0  0  0  0
 27 28  1  0  0  0  0
 27 25  1  0  0  0  0
 28 35  1  0  0  0  0
 29 33  1  0  0  0  0
 29 28  2  0  0  0  0
 30 29  1  0  0  0  0
 31 30  2  0  0  0  0
 31 32  1  0  0  0  0
 32 27  2  0  0  0  0
 34 31  1  0  0  0  0
 35 37  1  0  0  0  0
 36 35  1  0  0  0  0
M  END
>  <minimizedAffinity>
-6.23079538

$$$$

 OpenBabel03252501393D

 37 39  0  0  0  0  0  0  0  0999 V2000
   40.0500   28.4250   39.9500 Cl  0  0  0  0  0  0  0  0  0  0  0  0
   38.6550   29.1230   39.1750 C   0  0  0  0  0  0  0  0  0  0  0  0
   38.7230   29.8530   37.9840 C   0  0  0  0  0  0  0  0  0  0  0  0
   37.5820   30.3690   37.4380 C   0  0  0  0  0  0  0  0  0  0  0  0
   36.3310   30.2240   37.9840 C   0  0  0  0  0  0  0  0  0  0  0  0
   36.2330   29.5020   39.1700 C   0  0  0  0  0  0  0  0  0  0  0  0
   34.6820   29.2460   39.9690 Cl  0  0  0  0  0  0  0  0  0  0  0  0
   37.4010   28.9830   39.7140 C   0  0  0  0  0  0  0  0  0  0  0  0
   37.7150   30.9250   36.5090 H   0  0  0  0  0  0  0  0  0  0  0  0
   35.4420   30.6370   37.5410 H   0  0  0  0  0  0  0  0  0  0  0  0
   37.0910   26.8620   41.0940 C   0  0  0  0  0  0  0  0  0  0  0  0
   37.3030   28.2220   40.9650 C   0  0  0  0  0  0  0  0  0  0  0  0
   37.4520   29.0450   42.0850 C   0  0  0  0  0  0  0  0  0  0  0  0
   37.6190   30.1050   42.0660 H   0  0  0  0  0  0  0  0  0  0  0  0
   37.3840   28.4700   43.3550 C   0  0  0  0  0  3  0  0  0  0  0  0
   37.1750   27.1280   43.4820 C   0  0  0  0  0  3  0  0  0  0  0  0
   37.0300   26.3330   42.3670 C   0  0  0  0  0  0  0  0  0  0  0  0
   36.9610   26.1700   39.8980 O   0  0  0  0  0  0  0  0  0  0  0  0
   36.5840   25.2380   39.8140 H   0  0  0  0  0  0  0  0  0  0  0  0
   36.8160   24.9600   42.4440 O   0  0  0  0  0  0  0  0  0  0  0  0
   37.4950   24.4020   42.9670 H   0  0  0  0  0  0  0  0  0  0  0  0
   40.0050   29.9880   37.4450 O   0  0  0  0  0  0  0  0  0  0  0  0
   40.8650   30.9320   38.0170 C   0  0  0  0  0  0  0  0  0  0  0  0
   42.0920   30.7510   38.3060 O   0  0  0  0  0  0  0  0  0  0  0  0
   40.4090   32.2450   38.3400 N   0  0  0  0  0  0  0  0  0  0  0  0
   39.4460   32.5390   38.1590 H   0  0  0  0  0  0  0  0  0  0  0  0
   41.5180   32.9880   38.9260 C   0  0  0  0  0  0  0  0  0  0  0  0
   42.4250   33.7380   38.2130 C   0  0  0  0  0  0  0  0  0  0  0  0
   43.4070   34.3700   38.9440 C   0  0  0  0  0  0  0  0  0  0  0  0
   43.4070   34.2130   40.2760 N   0  0  0  0  0  0  0  0  0  0  0  0
   42.5030   33.4700   40.9410 C   0  0  0  0  0  0  0  0  0  0  0  0
   41.5200   32.8320   40.2490 N   0  0  0  0  0  0  0  0  0  0  0  0
   44.1200   34.9600   38.3860 H   0  0  0  0  0  0  0  0  0  0  0  0
   42.6020   33.4160   42.0150 H   0  0  0  0  0  0  0  0  0  0  0  0
   42.2630   33.7860   36.8070 N   0  0  0  0  0  0  0  0  0  0  0  0
   43.1440   33.6100   36.2840 H   0  0  0  0  0  0  0  0  0  0  0  0
   41.2970   33.9890   36.4680 H   0  0  0  0  0  0  0  0  0  0  0  0
  2  8  1  0  0  0  0
  2  1  1  0  0  0  0
  3  2  2  0  0  0  0
  4  5  2  0  0  0  0
  4  3  1  0  0  0  0
  5  6  1  0  0  0  0
  6  8  2  0  0  0  0
  6  7  1  0  0  0  0
  8 12  1  0  0  0  0
  9  4  1  0  0  0  0
 10  5  1  0  0  0  0
 11 17  1  0  0  0  0
 12 11  2  0  0  0  0
 12 13  1  0  0  0  0
 13 15  2  0  0  0  0
 14 13  1  0  0  0  0
 15 16  1  0  0  0  0
 17 20  1  0  0  0  0
 17 16  2  0  0  0  0
 18 11  1  0  0  0  0
 19 18  1  0  0  0  0
 20 21  1  0  0  0  0
 22  3  1  0  0  0  0
 22 23  1  0  0  0  0
 23 24  2  0  0  0  0
 23 25  1  0  0  0  0
 25 27  1  0  0  0  0
 26 25  1  0  0  0  0
 27 32  1  0  0  0  0
 28 27  2  0  0  0  0
 28 29  1  0  0  0  0
 29 30  2  0  0  0  0
 30 31  1  0  0  0  0
 31 34  1  0  0  0  0
 32 31  2  0  0  0  0
 33 29  1  0  0  0  0
 35 28  1  0  0  0  0
 36 35  1  0  0  0  0
 37 35  1  0  0  0  0
M  END
>  <minimizedAffinity>
-6.09977055

$$$$
