
     RDKit          3D

 36 38  0  0  0  0  0  0  0  0999 V2000
   44.4811   35.7481   45.0182 C   0  0  0  0  0  0  0  0  0  0  0  0
   45.1164   35.7104   43.7567 C   0  0  0  0  0  0  0  0  0  0  0  0
   46.0235   34.6872   43.4889 C   0  0  0  0  0  0  0  0  0  0  0  0
   46.2358   33.7862   44.4730 N   0  0  0  0  0  0  0  0  0  0  0  0
   45.6269   33.8383   45.6585 C   0  0  0  0  0  0  0  0  0  0  0  0
   44.7469   34.8092   45.9519 N   0  0  0  0  0  0  0  0  0  0  0  0
   45.9519   32.8297   46.6103 N   0  0  0  0  0  0  0  0  0  0  0  0
   45.1583   32.5430   47.8154 C   0  0  0  0  0  0  0  0  0  0  0  0
   46.2408   32.2342   48.8143 C   0  0  0  0  0  0  0  0  0  0  0  0
   47.5253   32.0642   48.0504 C   0  0  0  0  0  0  0  0  0  0  0  0
   47.0397   31.9091   46.6443 C   0  0  2  0  0  0  0  0  0  0  0  0
   44.7633   36.7522   42.8461 N   0  0  0  0  0  0  0  0  0  0  0  0
   43.7683   36.5449   45.2393 H   0  0  0  0  0  0  0  0  0  0  0  0
   46.4905   34.6895   42.5142 H   0  0  0  0  0  0  0  0  0  0  0  0
   44.5262   33.3875   48.1119 H   0  0  0  0  0  0  0  0  0  0  0  0
   44.6161   31.6080   47.5943 H   0  0  0  0  0  0  0  0  0  0  0  0
   46.2627   33.0762   49.5351 H   0  0  0  0  0  0  0  0  0  0  0  0
   46.0300   31.3083   49.3828 H   0  0  0  0  0  0  0  0  0  0  0  0
   48.1171   31.1952   48.3877 H   0  0  0  0  0  0  0  0  0  0  0  0
   48.1188   33.0040   48.1998 H   0  0  0  0  0  0  0  0  0  0  0  0
   46.5616   30.8770   46.6161 H   0  0  0  0  0  0  0  0  0  0  0  0
   44.5442   37.6867   43.1989 H   0  0  0  0  0  0  0  0  0  0  0  0
   44.7382   36.5249   41.8198 H   0  0  0  0  0  0  0  0  0  0  0  0
   47.8668   29.7025   45.0834 O   0  0  0  0  0  0  0  0  0  0  0  0
   48.4872   30.9290   44.8912 C   0  0  0  0  0  0  0  0  0  0  0  0
   48.0850   32.0406   45.6420 C   0  0  0  0  0  0  0  0  0  0  0  0
   48.7895   33.1701   45.3380 C   0  0  0  0  0  0  0  0  0  0  0  0
   48.5624   34.0825   45.8761 H   0  0  0  0  0  0  0  0  0  0  0  0
   49.7929   33.2860   44.4132 C   0  0  0  0  0  0  0  0  0  0  0  0
   50.1479   32.1576   43.7018 C   0  0  0  0  0  0  0  0  0  0  0  0
   49.4948   30.9730   43.9393 C   0  0  0  0  0  0  0  0  0  0  0  0
   49.8377   29.8189   43.2312 O   0  0  0  0  0  0  0  0  0  0  0  0
   46.9379   29.5057   44.6969 H   0  0  0  0  0  0  0  0  0  0  0  0
   50.3083   34.2250   44.2274 H   0  0  0  0  0  0  0  0  0  0  0  0
   50.9221   32.1391   42.9528 H   0  0  0  0  0  0  0  0  0  0  0  0
   50.2642   29.9036   42.3187 H   0  0  0  0  0  0  0  0  0  0  0  0
  1  6  2  0
  2  1  1  0
  3  2  2  0
  3  4  1  0
  4  5  2  0
  5  6  1  0
  5  7  1  0
  7 11  1  0
  7  8  1  0
  8  9  1  0
 10  9  1  0
 11 10  1  0
 12  2  1  0
  1 13  1  0
  3 14  1  0
  8 15  1  0
  8 16  1  0
  9 17  1  0
  9 18  1  0
 10 19  1  0
 10 20  1  0
 11 21  1  1
 12 22  1  0
 12 23  1  0
 24 25  1  0
 25 26  2  0
 26 27  1  0
 27 28  1  0
 27 29  2  0
 29 30  1  0
 30 31  2  0
 31 32  1  0
 31 25  1  0
 24 33  1  0
 29 34  1  0
 30 35  1  0
 32 36  1  0
 11 26  1  0
M  ISO  8  13  14  14  14  15  13  16  13  17  13  18  13  19  13  20  13
M  ISO  2  21  13  28  16
M  END
>  <DihAtoms>  (1) 
6,10,25,24

>  <DihDeg>  (1) 
-129.1469504909089

$$$$
