
 OpenBabel03252501383D

 37 39  0  0  0  0  0  0  0  0999 V2000
   42.7190   31.7320   39.5710 Cl  0  0  0  0  0  0  0  0  0  0  0  0
   41.8850   33.2210   39.9190 C   0  0  0  0  0  0  0  0  0  0  0  0
   42.5330   34.3790   40.3620 C   0  0  0  0  0  0  0  0  0  0  0  0
   41.8070   35.5090   40.6120 C   0  0  0  0  0  0  0  0  0  0  0  0
   40.4470   35.6020   40.4610 C   0  0  0  0  0  0  0  0  0  0  0  0
   39.7750   34.4640   40.0210 C   0  0  0  0  0  0  0  0  0  0  0  0
   38.0280   34.4580   39.7870 Cl  0  0  0  0  0  0  0  0  0  0  0  0
   40.5250   33.3220   39.7700 C   0  0  0  0  0  0  0  0  0  0  0  0
   42.3830   36.3700   40.9540 H   0  0  0  0  0  0  0  0  0  0  0  0
   39.8900   36.5000   40.6630 H   0  0  0  0  0  0  0  0  0  0  0  0
   39.3050   31.1070   40.0920 C   0  0  0  0  0  0  0  0  0  0  0  0
   39.8220   32.1210   39.3070 C   0  0  0  0  0  0  0  0  0  0  0  0
   39.7140   32.0890   37.9130 C   0  0  0  0  0  0  0  0  0  0  0  0
   40.0880   32.8350   37.2390 H   0  0  0  0  0  0  0  0  0  0  0  0
   39.0690   31.0060   37.3150 C   0  0  0  0  0  0  0  0  0  0  0  0
   38.5590   30.0060   38.0900 C   0  0  0  0  0  0  0  0  0  0  0  0
   38.6750   30.0550   39.4620 C   0  0  0  0  0  0  0  0  0  0  0  0
   39.4860   31.2710   41.4590 O   0  0  0  0  0  0  0  0  0  0  0  0
   39.3790   30.5370   42.1420 H   0  0  0  0  0  0  0  0  0  0  0  0
   38.1720   29.0600   40.2960 O   0  0  0  0  0  0  0  0  0  0  0  0
   37.1780   28.8300   40.2140 H   0  0  0  0  0  0  0  0  0  0  0  0
   43.9180   34.2620   40.5090 O   0  0  0  0  0  0  0  0  0  0  0  0
   44.4230   33.9690   41.7800 C   0  0  0  0  0  0  0  0  0  0  0  0
   44.0610   33.0020   42.5260 O   0  0  0  0  0  0  0  0  0  0  0  0
   45.4400   34.7730   42.3740 N   0  0  0  0  0  0  0  0  0  0  0  0
   45.8370   35.5830   41.8900 H   0  0  0  0  0  0  0  0  0  0  0  0
   45.7490   34.2300   43.6910 C   0  0  0  0  0  0  0  0  0  0  0  0
   45.1020   34.5760   44.8550 C   0  0  0  0  0  0  0  0  0  0  0  0
   45.5360   33.9550   46.0060 C   0  0  0  0  0  0  0  0  0  0  0  0
   46.5400   33.0710   45.9100 N   0  0  0  0  0  0  0  0  0  0  0  0
   47.1520   32.7570   44.7530 C   0  0  0  0  0  0  0  0  0  0  0  0
   46.7480   33.3530   43.5980 N   0  0  0  0  0  0  0  0  0  0  0  0
   45.0290   34.2240   46.9210 H   0  0  0  0  0  0  0  0  0  0  0  0
   47.9500   32.0310   44.7970 H   0  0  0  0  0  0  0  0  0  0  0  0
   44.0600   35.5300   44.7590 N   0  0  0  0  0  0  0  0  0  0  0  0
   44.1300   36.2900   45.4650 H   0  0  0  0  0  0  0  0  0  0  0  0
   43.3590   35.3620   44.0040 H   0  0  0  0  0  0  0  0  0  0  0  0
  1  2  1  0  0  0  0
  2  3  1  0  0  0  0
  3 22  1  0  0  0  0
  3  4  2  0  0  0  0
  4  9  1  0  0  0  0
  5  4  1  0  0  0  0
  5 10  1  0  0  0  0
  6  5  2  0  0  0  0
  7  6  1  0  0  0  0
  8  2  2  0  0  0  0
  8  6  1  0  0  0  0
 11 18  1  0  0  0  0
 12  8  1  0  0  0  0
 12 11  2  0  0  0  0
 13 12  1  0  0  0  0
 14 13  1  0  0  0  0
 15 13  2  0  0  0  0
 15 16  1  0  0  0  0
 16 17  2  0  0  0  0
 17 11  1  0  0  0  0
 17 20  1  0  0  0  0
 18 19  1  0  0  0  0
 21 20  1  0  0  0  0
 22 23  1  0  0  0  0
 23 25  1  0  0  0  0
 23 24  2  0  0  0  0
 25 27  1  0  0  0  0
 26 25  1  0  0  0  0
 27 28  1  0  0  0  0
 28 29  2  0  0  0  0
 29 33  1  0  0  0  0
 30 29  1  0  0  0  0
 31 34  1  0  0  0  0
 31 30  2  0  0  0  0
 32 27  2  0  0  0  0
 32 31  1  0  0  0  0
 35 28  1  0  0  0  0
 35 36  1  0  0  0  0
 37 35  1  0  0  0  0
M  END
>  <minimizedAffinity>
-6.13111734

>  <minimizedRMSD>
1.84424913

$$$$
