
 OpenBabel03242518363D

 37 40  0  0  1  0  0  0  0  0999 V2000
   47.4030   33.6630   39.8790 C   0  0  0  0  0  0  0  0  0  0  0  0
   48.3170   34.2550   39.0090 C   0  0  0  0  0  0  0  0  0  0  0  0
   47.8800   34.0650   37.7070 C   0  0  0  0  0  0  0  0  0  0  0  0
   46.7130   33.3620   37.8540 C   0  0  0  0  0  0  0  0  0  0  0  0
   46.4420   33.1310   39.1190 O   0  0  0  0  0  0  0  0  0  0  0  0
   49.2050   34.7620   39.3980 H   0  0  0  0  0  0  0  0  0  0  0  0
   48.4030   34.4240   36.8310 H   0  0  0  0  0  0  0  0  0  0  0  0
   45.8630   32.9220   36.7330 C   0  0  2  0  0  0  0  0  0  0  0  0
   44.4980   32.4250   37.0050 C   0  0  0  0  0  0  0  0  0  0  0  0
   45.5610   31.4070   36.7380 C   0  0  1  0  0  0  0  0  0  0  0  0
   46.2040   33.3260   35.7580 H   0  0  0  0  0  0  0  0  0  0  0  0
   44.0920   32.4720   38.0220 H   0  0  0  0  0  0  0  0  0  0  0  0
   43.7250   32.6490   36.2180 H   0  0  0  0  0  0  0  0  0  0  0  0
   45.9270   30.8110   37.6050 H   0  0  0  0  0  0  0  0  0  0  0  0
   44.4270   30.2280   34.8960 C   0  0  0  0  0  0  0  0  0  0  0  0
   45.5830   30.7950   35.3870 C   0  0  0  0  0  0  0  0  0  0  0  0
   46.7000   30.7550   34.5780 C   0  0  0  0  0  0  0  0  0  0  0  0
   47.6220   31.1920   34.9370 H   0  0  0  0  0  0  0  0  0  0  0  0
   46.6450   30.1670   33.3310 C   0  0  0  0  0  3  0  0  0  0  0  0
   45.4940   29.5970   32.8310 C   0  0  0  0  0  3  0  0  0  0  0  0
   44.3710   29.6310   33.6320 C   0  0  0  0  0  0  0  0  0  0  0  0
   43.2850   30.2550   35.6930 O   0  0  0  0  0  0  0  0  0  0  0  0
   42.4770   29.7290   35.4150 H   0  0  0  0  0  0  0  0  0  0  0  0
   43.1890   29.0650   33.1600 O   0  0  0  0  0  0  0  0  0  0  0  0
   43.1190   28.0560   33.3100 H   0  0  0  0  0  0  0  0  0  0  0  0
   47.3830   33.5770   41.2840 O   0  0  0  0  0  0  0  0  0  0  0  0
   47.4020   34.7550   42.0570 C   0  0  0  0  0  0  0  0  0  0  0  0
   48.2330   35.6310   41.6950 O   0  0  0  0  0  0  0  0  0  0  0  0
   46.4900   34.8170   43.1450 C   0  0  0  0  0  0  0  0  0  0  0  0
   45.5960   35.8510   43.0880 C   0  0  0  0  0  0  0  0  0  0  0  0
   44.6720   35.9740   44.1240 C   0  0  0  0  0  0  0  0  0  0  0  0
   44.7070   35.0710   45.1190 N   0  0  0  0  0  0  0  0  0  0  0  0
   45.5920   34.0720   45.1450 C   0  0  0  0  0  0  0  0  0  0  0  0
   46.4850   33.9560   44.1430 N   0  0  0  0  0  0  0  0  0  0  0  0
   45.4970   36.6270   42.3210 H   0  0  0  0  0  0  0  0  0  0  0  0
   43.9350   36.7720   44.1400 H   0  0  0  0  0  0  0  0  0  0  0  0
   45.5400   33.3910   45.9970 H   0  0  0  0  0  0  0  0  0  0  0  0
  1 26  1  0  0  0  0
  2  6  1  0  0  0  0
  2  1  2  0  0  0  0
  3  4  2  0  0  0  0
  3  2  1  0  0  0  0
  4  5  1  0  0  0  0
  5  1  1  0  0  0  0
  7  3  1  0  0  0  0
  8 11  1  6  0  0  0
  8 10  1  0  0  0  0
  8  9  1  0  0  0  0
  8  4  1  0  0  0  0
  9 12  1  0  0  0  0
 10  9  1  0  0  0  0
 10 14  1  1  0  0  0
 13  9  1  0  0  0  0
 15 16  1  0  0  0  0
 15 22  1  0  0  0  0
 16 10  1  0  0  0  0
 17 18  1  0  0  0  0
 17 16  2  0  0  0  0
 19 17  1  0  0  0  0
 20 19  2  0  0  0  0
 20 21  1  0  0  0  0
 21 15  2  0  0  0  0
 23 22  1  0  0  0  0
 24 25  1  0  0  0  0
 24 21  1  0  0  0  0
 26 27  1  0  0  0  0
 27 29  1  0  0  0  0
 28 27  2  0  0  0  0
 29 34  1  0  0  0  0
 30 29  2  0  0  0  0
 30 31  1  0  0  0  0
 31 36  1  0  0  0  0
 31 32  2  0  0  0  0
 32 33  1  0  0  0  0
 33 37  1  0  0  0  0
 34 33  2  0  0  0  0
 35 30  1  0  0  0  0
M  END
>  <minimizedAffinity>
-5.24039507

>  <minimizedRMSD>
1.10274982

$$$$
