
 OpenBabel03242522343D

 23 24  0  0  0  0  0  0  0  0999 V2000
   35.8450   28.4610   40.2590 C   0  0  0  0  0  0  0  0  0  0  0  0
   34.8950   28.6960   40.7970 H   0  0  0  0  0  0  0  0  0  0  0  0
   35.5580   27.7250   39.4580 H   0  0  0  0  0  0  0  0  0  0  0  0
   38.6290   26.4900   41.7520 C   0  0  0  0  0  0  0  0  0  0  0  0
   38.5070   26.8150   43.1050 C   0  0  0  0  0  0  0  0  0  0  0  0
   37.4860   27.6910   43.4670 C   0  0  0  0  0  0  0  0  0  0  0  0
   36.6550   28.1940   42.5190 N   0  0  0  0  0  0  0  0  0  0  0  0
   36.8130   27.8460   41.2010 C   0  0  0  0  0  0  0  0  0  0  0  0
   37.7950   27.0050   40.8570 N   0  0  0  0  0  0  0  0  0  0  0  0
   39.3790   25.8210   41.3250 H   0  0  0  0  0  0  0  0  0  0  0  0
   39.2110   26.3640   43.7770 H   0  0  0  0  0  0  0  0  0  0  0  0
   37.3920   27.9430   44.5220 H   0  0  0  0  0  0  0  0  0  0  0  0
   36.3630   30.9210   40.2200 C   0  0  0  0  0  0  0  0  0  0  0  0
   36.4010   29.6750   39.6340 C   0  0  0  0  0  0  0  0  0  0  0  0
   37.0010   29.5810   38.3910 C   0  0  0  0  0  0  0  0  0  0  0  0
   37.0350   28.6020   37.9210 H   0  0  0  0  0  0  0  0  0  0  0  0
   37.5590   30.6580   37.7040 C   0  0  0  0  0  3  0  0  0  0  0  0
   37.5060   31.9000   38.3190 C   0  0  0  0  0  3  0  0  0  0  0  0
   36.9110   32.0060   39.5600 C   0  0  0  0  0  0  0  0  0  0  0  0
   35.7790   31.0710   41.4560 O   0  0  0  0  0  0  0  0  0  0  0  0
   35.3920   32.0000   41.6740 H   0  0  0  0  0  0  0  0  0  0  0  0
   36.8680   33.2550   40.1530 O   0  0  0  0  0  0  0  0  0  0  0  0
   37.6310   33.9270   40.1070 H   0  0  0  0  0  0  0  0  0  0  0  0
  1  2  1  0  0  0  0
  1  8  1  0  0  0  0
  3  1  1  0  0  0  0
  4  5  1  0  0  0  0
  5  6  2  0  0  0  0
  5 11  1  0  0  0  0
  6 12  1  0  0  0  0
  7  6  1  0  0  0  0
  8  7  2  0  0  0  0
  9  8  1  0  0  0  0
  9  4  2  0  0  0  0
 10  4  1  0  0  0  0
 13 20  1  0  0  0  0
 14 13  1  0  0  0  0
 14  1  1  0  0  0  0
 15 14  2  0  0  0  0
 16 15  1  0  0  0  0
 17 18  2  0  0  0  0
 17 15  1  0  0  0  0
 18 19  1  0  0  0  0
 19 22  1  0  0  0  0
 19 13  2  0  0  0  0
 20 21  1  0  0  0  0
 23 22  1  0  0  0  0
M  END
>  <minimizedAffinity>
-5.44238806

$$$$

 OpenBabel03242522343D

 23 24  0  0  0  0  0  0  0  0999 V2000
   39.1980   27.8560   42.5570 C   0  0  0  0  0  0  0  0  0  0  0  0
   40.3050   27.8700   42.4050 H   0  0  0  0  0  0  0  0  0  0  0  0
   39.0440   28.1240   43.6390 H   0  0  0  0  0  0  0  0  0  0  0  0
   37.0000   24.8730   42.1920 C   0  0  0  0  0  0  0  0  0  0  0  0
   37.9020   23.9200   41.7110 C   0  0  0  0  0  0  0  0  0  0  0  0
   39.2230   24.3190   41.5260 C   0  0  0  0  0  0  0  0  0  0  0  0
   39.5930   25.5930   41.8110 N   0  0  0  0  0  0  0  0  0  0  0  0
   38.6740   26.4950   42.2830 C   0  0  0  0  0  0  0  0  0  0  0  0
   37.4040   26.1090   42.4590 N   0  0  0  0  0  0  0  0  0  0  0  0
   35.9390   24.7040   42.3830 H   0  0  0  0  0  0  0  0  0  0  0  0
   37.5110   22.9390   41.5180 H   0  0  0  0  0  0  0  0  0  0  0  0
   39.9240   23.5760   41.1510 H   0  0  0  0  0  0  0  0  0  0  0  0
   37.3660   29.4960   42.0340 C   0  0  0  0  0  0  0  0  0  0  0  0
   38.5450   28.8660   41.7040 C   0  0  0  0  0  0  0  0  0  0  0  0
   39.1310   29.2160   40.5010 C   0  0  0  0  0  0  0  0  0  0  0  0
   40.0630   28.7230   40.2320 H   0  0  0  0  0  0  0  0  0  0  0  0
   38.6070   30.1540   39.6140 C   0  0  0  0  0  3  0  0  0  0  0  0
   37.4180   30.7720   39.9730 C   0  0  0  0  0  3  0  0  0  0  0  0
   36.8230   30.4320   41.1710 C   0  0  0  0  0  0  0  0  0  0  0  0
   36.7390   29.1850   43.2190 O   0  0  0  0  0  0  0  0  0  0  0  0
   35.7200   29.3220   43.2510 H   0  0  0  0  0  0  0  0  0  0  0  0
   35.6380   31.0610   41.5080 O   0  0  0  0  0  0  0  0  0  0  0  0
   35.4520   32.0450   41.3280 H   0  0  0  0  0  0  0  0  0  0  0  0
  1  3  1  0  0  0  0
  2  1  1  0  0  0  0
  4 10  1  0  0  0  0
  4  9  1  0  0  0  0
  5  4  2  0  0  0  0
  6  5  1  0  0  0  0
  6  7  2  0  0  0  0
  7  8  1  0  0  0  0
  8  9  2  0  0  0  0
  8  1  1  0  0  0  0
 11  5  1  0  0  0  0
 12  6  1  0  0  0  0
 13 20  1  0  0  0  0
 14 13  1  0  0  0  0
 14  1  1  0  0  0  0
 15 14  2  0  0  0  0
 16 15  1  0  0  0  0
 17 18  2  0  0  0  0
 17 15  1  0  0  0  0
 18 19  1  0  0  0  0
 19 22  1  0  0  0  0
 19 13  2  0  0  0  0
 20 21  1  0  0  0  0
 23 22  1  0  0  0  0
M  END
>  <minimizedAffinity>
-4.94638014

$$$$

 OpenBabel03242522343D

 23 24  0  0  0  0  0  0  0  0999 V2000
   39.3940   29.3510   40.7390 C   0  0  0  0  0  0  0  0  0  0  0  0
   39.6780   28.7970   39.8110 H   0  0  0  0  0  0  0  0  0  0  0  0
   40.3580   29.5040   41.2990 H   0  0  0  0  0  0  0  0  0  0  0  0
   37.0280   26.7180   41.8940 C   0  0  0  0  0  0  0  0  0  0  0  0
   36.7480   27.1460   43.1940 C   0  0  0  0  0  0  0  0  0  0  0  0
   37.3700   28.3120   43.6370 C   0  0  0  0  0  0  0  0  0  0  0  0
   38.2110   28.9860   42.8130 N   0  0  0  0  0  0  0  0  0  0  0  0
   38.4560   28.5290   41.5430 C   0  0  0  0  0  0  0  0  0  0  0  0
   37.8580   27.4080   41.1210 N   0  0  0  0  0  0  0  0  0  0  0  0
   36.6170   25.8270   41.4160 H   0  0  0  0  0  0  0  0  0  0  0  0
   36.0680   26.5440   43.7660 H   0  0  0  0  0  0  0  0  0  0  0  0
   37.1510   28.6440   44.6500 H   0  0  0  0  0  0  0  0  0  0  0  0
   39.0630   31.8150   41.1100 C   0  0  0  0  0  0  0  0  0  0  0  0
   38.8080   30.6610   40.4030 C   0  0  0  0  0  0  0  0  0  0  0  0
   37.9530   30.7620   39.3200 C   0  0  0  0  0  0  0  0  0  0  0  0
   37.7460   29.8560   38.7550 H   0  0  0  0  0  0  0  0  0  0  0  0
   37.3410   31.9440   38.9090 C   0  0  0  0  0  3  0  0  0  0  0  0
   37.6160   33.0900   39.6410 C   0  0  0  0  0  3  0  0  0  0  0  0
   38.4680   33.0020   40.7230 C   0  0  0  0  0  0  0  0  0  0  0  0
   39.9060   31.7730   42.1970 O   0  0  0  0  0  0  0  0  0  0  0  0
   39.7570   32.4850   42.9240 H   0  0  0  0  0  0  0  0  0  0  0  0
   38.7270   34.1580   41.4380 O   0  0  0  0  0  0  0  0  0  0  0  0
   38.8510   35.0710   41.0070 H   0  0  0  0  0  0  0  0  0  0  0  0
  1  3  1  0  0  0  0
  1  8  1  0  0  0  0
  2  1  1  0  0  0  0
  4  5  1  0  0  0  0
  5  6  2  0  0  0  0
  5 11  1  0  0  0  0
  6 12  1  0  0  0  0
  7  6  1  0  0  0  0
  8  7  2  0  0  0  0
  9  8  1  0  0  0  0
  9  4  2  0  0  0  0
 10  4  1  0  0  0  0
 13 20  1  0  0  0  0
 14  1  1  0  0  0  0
 14 13  2  0  0  0  0
 15 14  1  0  0  0  0
 16 15  1  0  0  0  0
 17 15  2  0  0  0  0
 17 18  1  0  0  0  0
 18 19  2  0  0  0  0
 19 13  1  0  0  0  0
 19 22  1  0  0  0  0
 20 21  1  0  0  0  0
 23 22  1  0  0  0  0
M  END
>  <minimizedAffinity>
-4.90537882

$$$$

 OpenBabel03242522343D

 23 24  0  0  0  0  0  0  0  0999 V2000
   36.6630   28.4950   42.5400 C   0  0  0  0  0  0  0  0  0  0  0  0
   36.9300   28.3270   43.6120 H   0  0  0  0  0  0  0  0  0  0  0  0
   35.5610   28.7240   42.5410 H   0  0  0  0  0  0  0  0  0  0  0  0
   36.9310   25.9660   39.8210 C   0  0  0  0  0  0  0  0  0  0  0  0
   37.5110   24.8900   40.4970 C   0  0  0  0  0  0  0  0  0  0  0  0
   37.7930   25.0570   41.8510 C   0  0  0  0  0  0  0  0  0  0  0  0
   37.5030   26.2310   42.4650 N   0  0  0  0  0  0  0  0  0  0  0  0
   36.9320   27.2610   41.7610 C   0  0  0  0  0  0  0  0  0  0  0  0
   36.6630   27.0980   40.4590 N   0  0  0  0  0  0  0  0  0  0  0  0
   36.6590   25.9790   38.7630 H   0  0  0  0  0  0  0  0  0  0  0  0
   37.7010   24.0030   39.9230 H   0  0  0  0  0  0  0  0  0  0  0  0
   38.2450   24.2170   42.3760 H   0  0  0  0  0  0  0  0  0  0  0  0
   36.8010   30.7070   41.3540 C   0  0  0  0  0  0  0  0  0  0  0  0
   37.4030   29.6470   41.9950 C   0  0  0  0  0  0  0  0  0  0  0  0
   38.7800   29.6880   42.1240 C   0  0  0  0  0  0  0  0  0  0  0  0
   39.2640   28.8560   42.6300 H   0  0  0  0  0  0  0  0  0  0  0  0
   39.5830   30.7230   41.6500 C   0  0  0  0  0  3  0  0  0  0  0  0
   38.9480   31.7770   41.0080 C   0  0  0  0  0  3  0  0  0  0  0  0
   37.5750   31.7470   40.8730 C   0  0  0  0  0  0  0  0  0  0  0  0
   35.4340   30.7170   41.1970 O   0  0  0  0  0  0  0  0  0  0  0  0
   35.0650   31.2490   40.3970 H   0  0  0  0  0  0  0  0  0  0  0  0
   36.9640   32.8080   40.2280 O   0  0  0  0  0  0  0  0  0  0  0  0
   37.2530   33.7770   40.3420 H   0  0  0  0  0  0  0  0  0  0  0  0
  1  3  1  0  0  0  0
  1  2  1  0  0  0  0
  4  9  2  0  0  0  0
  4  5  1  0  0  0  0
  5  6  2  0  0  0  0
  6 12  1  0  0  0  0
  6  7  1  0  0  0  0
  8  7  2  0  0  0  0
  8  1  1  0  0  0  0
  9  8  1  0  0  0  0
 10  4  1  0  0  0  0
 11  5  1  0  0  0  0
 13 14  1  0  0  0  0
 14 15  2  0  0  0  0
 14  1  1  0  0  0  0
 15 16  1  0  0  0  0
 17 15  1  0  0  0  0
 18 17  2  0  0  0  0
 19 18  1  0  0  0  0
 19 13  2  0  0  0  0
 20 13  1  0  0  0  0
 21 20  1  0  0  0  0
 22 23  1  0  0  0  0
 22 19  1  0  0  0  0
M  END
>  <minimizedAffinity>
-4.82824039

$$$$

 OpenBabel03242522343D

 23 24  0  0  0  0  0  0  0  0999 V2000
   37.4730   32.9730   40.0340 C   0  0  0  0  0  0  0  0  0  0  0  0
   37.3000   33.8270   39.3340 H   0  0  0  0  0  0  0  0  0  0  0  0
   36.8780   33.2220   40.9570 H   0  0  0  0  0  0  0  0  0  0  0  0
   40.7820   31.8900   41.3520 C   0  0  0  0  0  0  0  0  0  0  0  0
   41.6220   32.8890   40.8530 C   0  0  0  0  0  0  0  0  0  0  0  0
   41.0390   33.8960   40.0860 C   0  0  0  0  0  0  0  0  0  0  0  0
   39.7030   33.8820   39.8500 N   0  0  0  0  0  0  0  0  0  0  0  0
   38.9170   32.8810   40.3620 C   0  0  0  0  0  0  0  0  0  0  0  0
   39.4800   31.9140   41.0970 N   0  0  0  0  0  0  0  0  0  0  0  0
   41.0980   31.0420   41.9640 H   0  0  0  0  0  0  0  0  0  0  0  0
   42.6640   32.8110   41.0960 H   0  0  0  0  0  0  0  0  0  0  0  0
   41.6950   34.6730   39.6970 H   0  0  0  0  0  0  0  0  0  0  0  0
   36.1480   30.8390   40.1220 C   0  0  0  0  0  0  0  0  0  0  0  0
   36.9720   31.7150   39.4520 C   0  0  0  0  0  0  0  0  0  0  0  0
   37.3360   31.3760   38.1610 C   0  0  0  0  0  0  0  0  0  0  0  0
   37.9860   32.0620   37.6240 H   0  0  0  0  0  0  0  0  0  0  0  0
   36.9250   30.2160   37.5080 C   0  0  0  0  0  3  0  0  0  0  0  0
   36.0960   29.3520   38.2080 C   0  0  0  0  0  3  0  0  0  0  0  0
   35.7260   29.6790   39.4960 C   0  0  0  0  0  0  0  0  0  0  0  0
   35.7560   31.1260   41.4090 O   0  0  0  0  0  0  0  0  0  0  0  0
   35.5210   30.3240   42.0100 H   0  0  0  0  0  0  0  0  0  0  0  0
   34.9000   28.8020   40.1760 O   0  0  0  0  0  0  0  0  0  0  0  0
   34.1280   28.3030   39.7390 H   0  0  0  0  0  0  0  0  0  0  0  0
  1  8  1  0  0  0  0
  1  3  1  0  0  0  0
  2  1  1  0  0  0  0
  4 10  1  0  0  0  0
  5 11  1  0  0  0  0
  5  4  2  0  0  0  0
  6  5  1  0  0  0  0
  7  6  2  0  0  0  0
  7  8  1  0  0  0  0
  8  9  2  0  0  0  0
  9  4  1  0  0  0  0
 12  6  1  0  0  0  0
 13 20  1  0  0  0  0
 14  1  1  0  0  0  0
 14 13  2  0  0  0  0
 15 14  1  0  0  0  0
 16 15  1  0  0  0  0
 17 15  2  0  0  0  0
 17 18  1  0  0  0  0
 18 19  2  0  0  0  0
 19 13  1  0  0  0  0
 19 22  1  0  0  0  0
 20 21  1  0  0  0  0
 23 22  1  0  0  0  0
M  END
>  <minimizedAffinity>
-4.81459761

$$$$

 OpenBabel03242522343D

 23 24  0  0  0  0  0  0  0  0999 V2000
   35.3640   28.6960   39.4250 C   0  0  0  0  0  0  0  0  0  0  0  0
   36.0420   27.8350   39.6410 H   0  0  0  0  0  0  0  0  0  0  0  0
   34.7700   28.8490   40.3690 H   0  0  0  0  0  0  0  0  0  0  0  0
   32.6780   28.7390   36.8470 C   0  0  0  0  0  0  0  0  0  0  0  0
   32.9070   27.5290   36.1860 C   0  0  0  0  0  0  0  0  0  0  0  0
   33.9640   26.7400   36.6350 C   0  0  0  0  0  0  0  0  0  0  0  0
   34.7250   27.1550   37.6790 N   0  0  0  0  0  0  0  0  0  0  0  0
   34.4620   28.3500   38.2990 C   0  0  0  0  0  0  0  0  0  0  0  0
   33.4470   29.1070   37.8640 N   0  0  0  0  0  0  0  0  0  0  0  0
   31.8910   29.4560   36.6050 H   0  0  0  0  0  0  0  0  0  0  0  0
   32.2490   27.2900   35.3730 H   0  0  0  0  0  0  0  0  0  0  0  0
   34.1410   25.7980   36.1190 H   0  0  0  0  0  0  0  0  0  0  0  0
   36.2640   30.9690   40.0090 C   0  0  0  0  0  0  0  0  0  0  0  0
   36.1450   29.9120   39.1350 C   0  0  0  0  0  0  0  0  0  0  0  0
   36.8050   30.0180   37.9240 C   0  0  0  0  0  0  0  0  0  0  0  0
   36.7170   29.1880   37.2280 H   0  0  0  0  0  0  0  0  0  0  0  0
   37.5720   31.1170   37.5400 C   0  0  0  0  0  3  0  0  0  0  0  0
   37.6730   32.1670   38.4410 C   0  0  0  0  0  3  0  0  0  0  0  0
   37.0190   32.0720   39.6530 C   0  0  0  0  0  0  0  0  0  0  0  0
   35.6280   30.9170   41.2280 O   0  0  0  0  0  0  0  0  0  0  0  0
   35.3790   31.8180   41.6570 H   0  0  0  0  0  0  0  0  0  0  0  0
   37.1340   33.1320   40.5350 O   0  0  0  0  0  0  0  0  0  0  0  0
   37.9940   33.6560   40.6760 H   0  0  0  0  0  0  0  0  0  0  0  0
  1  2  1  0  0  0  0
  1  3  1  0  0  0  0
  4  9  1  0  0  0  0
  5  6  1  0  0  0  0
  5  4  2  0  0  0  0
  6  7  2  0  0  0  0
  7  8  1  0  0  0  0
  8  1  1  0  0  0  0
  9  8  2  0  0  0  0
 10  4  1  0  0  0  0
 11  5  1  0  0  0  0
 12  6  1  0  0  0  0
 13 20  1  0  0  0  0
 14  1  1  0  0  0  0
 14 13  2  0  0  0  0
 15 14  1  0  0  0  0
 16 15  1  0  0  0  0
 17 15  2  0  0  0  0
 17 18  1  0  0  0  0
 18 19  2  0  0  0  0
 19 13  1  0  0  0  0
 19 22  1  0  0  0  0
 20 21  1  0  0  0  0
 22 23  1  0  0  0  0
M  END
>  <minimizedAffinity>
-4.77283573

$$$$

 OpenBabel03242522343D

 23 24  0  0  0  0  0  0  0  0999 V2000
   37.6640   28.4150   43.6780 C   0  0  0  0  0  0  0  0  0  0  0  0
   36.6170   28.4610   44.0640 H   0  0  0  0  0  0  0  0  0  0  0  0
   38.3180   28.6220   44.5710 H   0  0  0  0  0  0  0  0  0  0  0  0
   37.1730   30.8060   40.8670 C   0  0  0  0  0  0  0  0  0  0  0  0
   38.4280   31.4160   40.7970 C   0  0  0  0  0  0  0  0  0  0  0  0
   39.3990   30.9980   41.7050 C   0  0  0  0  0  0  0  0  0  0  0  0
   39.1080   30.0310   42.6110 N   0  0  0  0  0  0  0  0  0  0  0  0
   37.8610   29.4590   42.6420 C   0  0  0  0  0  0  0  0  0  0  0  0
   36.9310   29.8640   41.7700 N   0  0  0  0  0  0  0  0  0  0  0  0
   36.3200   31.0320   40.2240 H   0  0  0  0  0  0  0  0  0  0  0  0
   38.5580   32.1690   40.0440 H   0  0  0  0  0  0  0  0  0  0  0  0
   40.3750   31.4750   41.6490 H   0  0  0  0  0  0  0  0  0  0  0  0
   39.2230   26.5130   43.1590 C   0  0  0  0  0  0  0  0  0  0  0  0
   37.9650   27.0710   43.1510 C   0  0  0  0  0  0  0  0  0  0  0  0
   36.9410   26.3110   42.6160 C   0  0  0  0  0  0  0  0  0  0  0  0
   35.9430   26.7440   42.6060 H   0  0  0  0  0  0  0  0  0  0  0  0
   37.1040   25.0310   42.0890 C   0  0  0  0  0  3  0  0  0  0  0  0
   38.3830   24.4950   42.1090 C   0  0  0  0  0  3  0  0  0  0  0  0
   39.4130   25.2430   42.6420 C   0  0  0  0  0  0  0  0  0  0  0  0
   40.2790   27.2250   43.6790 O   0  0  0  0  0  0  0  0  0  0  0  0
   41.2130   27.0000   43.3110 H   0  0  0  0  0  0  0  0  0  0  0  0
   40.6800   24.6880   42.6510 O   0  0  0  0  0  0  0  0  0  0  0  0
   40.8640   23.7070   42.8490 H   0  0  0  0  0  0  0  0  0  0  0  0
  1  2  1  0  0  0  0
  1  3  1  0  0  0  0
  4  9  1  0  0  0  0
  5  4  2  0  0  0  0
  5  6  1  0  0  0  0
  6  7  2  0  0  0  0
  7  8  1  0  0  0  0
  8  1  1  0  0  0  0
  9  8  2  0  0  0  0
 10  4  1  0  0  0  0
 11  5  1  0  0  0  0
 12  6  1  0  0  0  0
 13 20  1  0  0  0  0
 14 13  1  0  0  0  0
 14  1  1  0  0  0  0
 15 14  2  0  0  0  0
 16 15  1  0  0  0  0
 17 18  2  0  0  0  0
 17 15  1  0  0  0  0
 18 19  1  0  0  0  0
 19 22  1  0  0  0  0
 19 13  2  0  0  0  0
 21 20  1  0  0  0  0
 22 23  1  0  0  0  0
M  END
>  <minimizedAffinity>
-4.69014311

$$$$

 OpenBabel03242522343D

 23 24  0  0  0  0  0  0  0  0999 V2000
   37.8960   32.3370   40.5380 C   0  0  0  0  0  0  0  0  0  0  0  0
   36.9100   32.3410   40.0110 H   0  0  0  0  0  0  0  0  0  0  0  0
   37.8650   33.2230   41.2310 H   0  0  0  0  0  0  0  0  0  0  0  0
   40.1500   31.9490   37.6000 C   0  0  0  0  0  0  0  0  0  0  0  0
   41.0910   32.9550   37.8350 C   0  0  0  0  0  0  0  0  0  0  0  0
   40.9300   33.7320   38.9800 C   0  0  0  0  0  0  0  0  0  0  0  0
   39.8890   33.4960   39.8190 N   0  0  0  0  0  0  0  0  0  0  0  0
   38.9900   32.4960   39.5480 C   0  0  0  0  0  0  0  0  0  0  0  0
   39.1460   31.7530   38.4460 N   0  0  0  0  0  0  0  0  0  0  0  0
   40.1490   31.2680   36.7460 H   0  0  0  0  0  0  0  0  0  0  0  0
   41.8770   33.0600   37.1130 H   0  0  0  0  0  0  0  0  0  0  0  0
   41.6630   34.5150   39.1620 H   0  0  0  0  0  0  0  0  0  0  0  0
   37.0190   30.2550   41.6390 C   0  0  0  0  0  0  0  0  0  0  0  0
   38.0590   31.1020   41.3250 C   0  0  0  0  0  0  0  0  0  0  0  0
   39.3160   30.7540   41.7850 C   0  0  0  0  0  0  0  0  0  0  0  0
   40.1430   31.4170   41.5420 H   0  0  0  0  0  0  0  0  0  0  0  0
   39.5910   29.6140   42.5360 C   0  0  0  0  0  3  0  0  0  0  0  0
   38.5240   28.7790   42.8370 C   0  0  0  0  0  3  0  0  0  0  0  0
   37.2650   29.1150   42.3840 C   0  0  0  0  0  0  0  0  0  0  0  0
   35.7470   30.5530   41.2080 O   0  0  0  0  0  0  0  0  0  0  0  0
   34.9710   30.1810   41.7710 H   0  0  0  0  0  0  0  0  0  0  0  0
   36.2160   28.2680   42.6970 O   0  0  0  0  0  0  0  0  0  0  0  0
   36.2940   27.2540   42.7000 H   0  0  0  0  0  0  0  0  0  0  0  0
  1  3  1  0  0  0  0
  1 14  1  0  0  0  0
  2  1  1  0  0  0  0
  4  5  2  0  0  0  0
  4  9  1  0  0  0  0
  5  6  1  0  0  0  0
  6 12  1  0  0  0  0
  6  7  2  0  0  0  0
  8  7  1  0  0  0  0
  8  1  1  0  0  0  0
  9  8  2  0  0  0  0
 10  4  1  0  0  0  0
 11  5  1  0  0  0  0
 13 19  1  0  0  0  0
 14 13  2  0  0  0  0
 14 15  1  0  0  0  0
 15 17  2  0  0  0  0
 16 15  1  0  0  0  0
 17 18  1  0  0  0  0
 19 22  1  0  0  0  0
 19 18  2  0  0  0  0
 20 13  1  0  0  0  0
 20 21  1  0  0  0  0
 22 23  1  0  0  0  0
M  END
>  <minimizedAffinity>
-4.68026733

$$$$

 OpenBabel03242522343D

 23 24  0  0  0  0  0  0  0  0999 V2000
   36.5750   27.5750   43.0840 C   0  0  0  0  0  0  0  0  0  0  0  0
   36.7290   28.0230   44.0960 H   0  0  0  0  0  0  0  0  0  0  0  0
   35.5380   27.1410   43.1060 H   0  0  0  0  0  0  0  0  0  0  0  0
   38.3050   24.4670   41.9820 C   0  0  0  0  0  0  0  0  0  0  0  0
   39.5720   24.6380   42.5460 C   0  0  0  0  0  0  0  0  0  0  0  0
   39.7980   25.8010   43.2790 C   0  0  0  0  0  0  0  0  0  0  0  0
   38.8060   26.7150   43.4260 N   0  0  0  0  0  0  0  0  0  0  0  0
   37.5770   26.5040   42.8550 C   0  0  0  0  0  0  0  0  0  0  0  0
   37.3620   25.3870   42.1500 N   0  0  0  0  0  0  0  0  0  0  0  0
   37.9860   23.6110   41.3840 H   0  0  0  0  0  0  0  0  0  0  0  0
   40.2870   23.8570   42.3740 H   0  0  0  0  0  0  0  0  0  0  0  0
   40.7860   25.9320   43.7170 H   0  0  0  0  0  0  0  0  0  0  0  0
   37.5120   29.6870   42.0930 C   0  0  0  0  0  0  0  0  0  0  0  0
   36.6510   28.6130   42.0400 C   0  0  0  0  0  0  0  0  0  0  0  0
   35.8210   28.5240   40.9370 C   0  0  0  0  0  0  0  0  0  0  0  0
   35.1380   27.6790   40.8870 H   0  0  0  0  0  0  0  0  0  0  0  0
   35.8030   29.4440   39.8900 C   0  0  0  0  0  3  0  0  0  0  0  0
   36.6810   30.5150   39.9710 C   0  0  0  0  0  3  0  0  0  0  0  0
   37.5140   30.6140   41.0660 C   0  0  0  0  0  0  0  0  0  0  0  0
   38.3590   29.8250   43.1670 O   0  0  0  0  0  0  0  0  0  0  0  0
   38.6610   30.7820   43.3970 H   0  0  0  0  0  0  0  0  0  0  0  0
   38.3810   31.6920   41.1250 O   0  0  0  0  0  0  0  0  0  0  0  0
   38.8720   32.0640   40.3160 H   0  0  0  0  0  0  0  0  0  0  0  0
  1  3  1  0  0  0  0
  1  2  1  0  0  0  0
  4  9  2  0  0  0  0
  4  5  1  0  0  0  0
  5  6  2  0  0  0  0
  6  7  1  0  0  0  0
  6 12  1  0  0  0  0
  8  1  1  0  0  0  0
  8  7  2  0  0  0  0
  9  8  1  0  0  0  0
 10  4  1  0  0  0  0
 11  5  1  0  0  0  0
 13 20  1  0  0  0  0
 14 13  1  0  0  0  0
 14  1  1  0  0  0  0
 15 14  2  0  0  0  0
 16 15  1  0  0  0  0
 17 18  2  0  0  0  0
 17 15  1  0  0  0  0
 18 19  1  0  0  0  0
 19 22  1  0  0  0  0
 19 13  2  0  0  0  0
 20 21  1  0  0  0  0
 23 22  1  0  0  0  0
M  END
>  <minimizedAffinity>
-4.6615572

$$$$
