REMARK  Name = 
REMARK  4 active torsions:
REMARK  status: ('A' for Active; 'I' for Inactive)
REMARK    1  A    between atoms: C_1  and  C_7
REMARK    2  A    between atoms: C_2  and  C_15
REMARK    3  A    between atoms: O_13  and  C_14
REMARK    4  A    between atoms: C_20  and  O_21
REMARK                            x       y       z     vdW  Elec       q    Type
REMARK                         _______ _______ _______ _____ _____    ______ ____
ROOT
ATOM      1  C   UNL     1      45.436  35.067  44.001  0.00  0.00    +0.000 A 
ATOM      2  C   UNL     1      46.491  34.303  43.508  0.00  0.00    +0.000 A 
ATOM      3  C   UNL     1      47.019  33.290  44.331  0.00  0.00    +0.000 A 
ATOM      4  N   UNL     1      46.461  33.120  45.564  0.00  0.00    +0.000 NA
ATOM      5  C   UNL     1      45.428  33.898  45.996  0.00  0.00    +0.000 A 
ATOM      6  N   UNL     1      44.925  34.865  45.208  0.00  0.00    +0.000 NA
ATOM      7  H   UNL     1      47.832  32.643  44.050  0.00  0.00    +0.000 HD
ATOM      8  H   UNL     1      45.066  33.669  46.996  0.00  0.00    +0.000 HD
ENDROOT
BRANCH   2  10
ATOM      9  C   UNL     1      47.645  33.346  41.578  0.00  0.00    +0.000 A 
ATOM     10  C   UNL     1      47.101  34.471  42.189  0.00  0.00    +0.000 A 
ATOM     11  C   UNL     1      47.106  35.728  41.623  0.00  0.00    +0.000 A 
ATOM     12  H   UNL     1      46.662  36.569  42.156  0.00  0.00    +0.000 HD
ATOM     13  C   UNL     1      47.687  35.857  40.380  0.00  0.00    +0.000 A 
ATOM     14  C   UNL     1      48.237  34.763  39.743  0.00  0.00    +0.000 A 
ATOM     15  C   UNL     1      48.223  33.513  40.325  0.00  0.00    +0.000 A 
BRANCH   9  16
ATOM     16  O   UNL     1      47.617  32.102  42.187  0.00  0.00    +0.000 OA
ATOM     17  H   UNL     1      46.787  31.533  42.024  0.00  0.00    +0.000 HD
ENDBRANCH   9  16
BRANCH  15  18
ATOM     18  O   UNL     1      48.770  32.368  39.716  0.00  0.00    +0.000 OA
ATOM     19  H   UNL     1      49.715  32.495  39.341  0.00  0.00    +0.000 HD
ENDBRANCH  15  18
ENDBRANCH   2  10
BRANCH   1  20
ATOM     20  C   UNL     1      44.904  36.131  43.096  0.00  0.00    +0.000 C 
ATOM     21  H   UNL     1      45.220  35.974  42.051  0.00  0.00    +0.000 HD
ATOM     22  H   UNL     1      43.799  36.098  43.133  0.00  0.00    +0.000 HD
ATOM     23  H   UNL     1      45.256  37.123  43.488  0.00  0.00    +0.000 HD
ENDBRANCH   1  20
TORSDOF 4
