
 OpenBabel03252507133D

 44 46  0  0  1  0  0  0  0  0999 V2000
   47.2600   33.0670   42.4390 C   0  0  2  0  0  0  0  0  0  0  0  0
   47.5170   33.5030   43.8330 C   0  0  0  0  0  0  0  0  0  0  0  0
   46.2900   34.1690   44.3860 C   0  0  0  0  0  0  0  0  0  0  0  0
   45.2420   33.2750   44.5830 O   0  0  0  0  0  0  0  0  0  0  0  0
   45.3140   32.2250   43.6940 C   0  0  0  0  0  0  0  0  0  0  0  0
   45.8010   32.6800   42.3370 C   0  0  1  0  0  0  0  0  0  0  0  0
   47.4520   33.9610   41.7840 H   0  0  0  0  0  0  0  0  0  0  0  0
   47.8030   32.6770   44.5200 H   0  0  0  0  0  0  0  0  0  0  0  0
   48.3640   34.2420   43.9090 H   0  0  0  0  0  0  0  0  0  0  0  0
   46.0210   35.1130   43.9200 H   0  0  0  0  0  0  0  0  0  0  0  0
   46.6170   34.4900   45.4430 H   0  0  0  0  0  0  0  0  0  0  0  0
   44.3290   31.7370   43.6520 H   0  0  0  0  0  0  0  0  0  0  0  0
   46.0410   31.4740   44.0810 H   0  0  0  0  0  0  0  0  0  0  0  0
   45.8420   31.7020   41.7490 H   0  0  0  0  0  0  0  0  0  0  0  0
   44.1810   32.8850   40.5820 C   0  0  0  0  0  0  0  0  0  0  0  0
   44.8780   33.5090   41.6390 C   0  0  0  0  0  0  0  0  0  0  0  0
   44.5180   34.8340   41.7590 C   0  0  0  0  0  0  0  0  0  0  0  0
   45.0140   35.3670   42.5270 H   0  0  0  0  0  0  0  0  0  0  0  0
   43.6120   35.5270   40.9900 C   0  0  0  0  0  3  0  0  0  0  0  0
   42.9760   34.8420   39.9790 C   0  0  0  0  0  3  0  0  0  0  0  0
   43.2760   33.5290   39.7950 C   0  0  0  0  0  0  0  0  0  0  0  0
   44.3870   31.5270   40.2710 O   0  0  0  0  0  0  0  0  0  0  0  0
   44.3860   31.1800   39.3400 H   0  0  0  0  0  0  0  0  0  0  0  0
   42.6050   32.8920   38.7600 O   0  0  0  0  0  0  0  0  0  0  0  0
   41.7800   32.3420   38.8600 H   0  0  0  0  0  0  0  0  0  0  0  0
   48.0660   32.1070   41.9530 O   0  0  0  0  0  0  0  0  0  0  0  0
   50.4090   32.3580   40.7960 O   0  0  0  0  0  0  0  0  0  0  0  0
   48.9460   32.4170   40.5910 P   0  0  2  0  0  0  0  0  0  0  0  0
   48.5750   33.9950   40.0660 O   0  0  0  0  0  0  0  0  0  0  0  0
   48.4320   34.0420   39.0890 H   0  0  0  0  0  0  0  0  0  0  0  0
   48.4750   31.3480   39.3230 O   0  0  0  0  0  0  0  0  0  0  0  0
   49.3330   32.2930   37.3410 C   0  0  0  0  0  0  0  0  0  0  0  0
   48.2550   31.8010   38.0390 C   0  0  0  0  0  0  0  0  0  0  0  0
   46.9800   31.7830   37.4170 C   0  0  0  0  0  0  0  0  0  0  0  0
   46.9100   32.2600   36.1490 N   0  0  0  0  0  0  0  0  0  0  0  0
   47.9740   32.7280   35.5050 C   0  0  0  0  0  0  0  0  0  0  0  0
   49.1840   32.7370   36.1180 N   0  0  0  0  0  0  0  0  0  0  0  0
   51.6280   31.3640   37.5900 C   0  0  0  0  0  0  0  0  0  0  0  0
   51.2330   30.1490   37.5460 O   0  0  0  0  0  0  0  0  0  0  0  0
   50.7240   32.5190   37.4990 N   0  0  0  0  0  0  0  0  0  0  0  0
   46.1430   31.3880   37.9910 H   0  0  0  0  0  0  0  0  0  0  0  0
   47.9250   33.1120   34.4900 H   0  0  0  0  0  0  0  0  0  0  0  0
   52.7080   31.5120   37.7030 H   0  0  0  0  0  0  0  0  0  0  0  0
   51.2170   33.4300   37.5670 H   0  0  0  0  0  0  0  0  0  0  0  0
  1  7  1  6  0  0  0
  1  2  1  0  0  0  0
  2  9  1  0  0  0  0
  2  3  1  0  0  0  0
  2  8  1  0  0  0  0
  3  4  1  0  0  0  0
  3 11  1  0  0  0  0
  5 13  1  0  0  0  0
  5  4  1  0  0  0  0
  6 14  1  6  0  0  0
  6  1  1  0  0  0  0
  6  5  1  0  0  0  0
 10  3  1  0  0  0  0
 12  5  1  0  0  0  0
 15 16  1  0  0  0  0
 16 17  2  0  0  0  0
 16  6  1  0  0  0  0
 17 18  1  0  0  0  0
 19 17  1  0  0  0  0
 20 19  2  0  0  0  0
 21 20  1  0  0  0  0
 21 15  2  0  0  0  0
 22 15  1  0  0  0  0
 23 22  1  0  0  0  0
 24 25  1  0  0  0  0
 24 21  1  0  0  0  0
 26  1  1  0  0  0  0
 28 27  2  1  0  0  0
 28 26  1  0  0  0  0
 29 28  1  0  0  0  0
 30 29  1  0  0  0  0
 31 28  1  0  0  0  0
 32 40  1  0  0  0  0
 32 33  1  0  0  0  0
 33 31  1  0  0  0  0
 34 41  1  0  0  0  0
 34 33  2  0  0  0  0
 35 34  1  0  0  0  0
 36 37  1  0  0  0  0
 36 35  2  0  0  0  0
 37 32  2  0  0  0  0
 38 43  1  0  0  0  0
 39 38  2  0  0  0  0
 40 44  1  0  0  0  0
 40 38  1  0  0  0  0
 42 36  1  0  0  0  0
M  END
>  <minimizedAffinity>
-4.91401291

>  <minimizedRMSD>
4.66133499

$$$$
