
     RDKit          3D

 38 41  0  0  0  0  0  0  0  0999 V2000
   44.5180   35.8299   44.6621 C   0  0  0  0  0  0  0  0  0  0  0  0
   45.1599   35.7893   43.4110 C   0  0  0  0  0  0  0  0  0  0  0  0
   46.1030   34.7952   43.2432 C   0  0  0  0  0  0  0  0  0  0  0  0
   46.3856   33.9030   44.2555 N   0  0  0  0  0  0  0  0  0  0  0  0
   45.7347   33.9833   45.4515 C   0  0  0  0  0  0  0  0  0  0  0  0
   44.8084   34.9512   45.6326 N   0  0  0  0  0  0  0  0  0  0  0  0
   46.8213   34.6375   41.9397 C   0  0  0  0  0  0  0  0  0  0  0  0
   48.1798   35.3371   41.9087 C   0  0  0  0  0  0  0  0  0  0  0  0
   47.9751   33.7852   41.8648 C   0  0  0  0  0  0  0  0  0  0  0  0
   46.0463   33.0019   46.4876 C   0  0  0  0  0  0  0  0  0  0  0  0
   45.2043   32.9440   47.5916 C   0  0  0  0  0  0  0  0  0  0  0  0
   45.4640   32.0143   48.5785 C   0  0  0  0  0  0  0  0  0  0  0  0
   46.5572   31.1862   48.4103 C   0  0  0  0  0  0  0  0  0  0  0  0
   47.3651   31.2862   47.2895 C   0  0  0  0  0  0  0  0  0  0  0  0
   47.1043   32.2056   46.3186 N   0  0  0  0  0  0  0  0  0  0  0  0
   43.7700   36.5926   44.8424 H   0  0  0  0  0  0  0  0  0  0  0  0
   44.9471   36.4771   42.6203 H   0  0  0  0  0  0  0  0  0  0  0  0
   46.1475   34.8654   41.0782 H   0  0  0  0  0  0  0  0  0  0  0  0
   48.4089   35.8171   40.9598 H   0  0  0  0  0  0  0  0  0  0  0  0
   48.6221   35.7194   42.8314 H   0  0  0  0  0  0  0  0  0  0  0  0
   48.3212   33.2195   42.7421 H   0  0  0  0  0  0  0  0  0  0  0  0
   48.2127   33.3430   40.8661 H   0  0  0  0  0  0  0  0  0  0  0  0
   44.3696   33.6281   47.6476 H   0  0  0  0  0  0  0  0  0  0  0  0
   44.8092   31.9691   49.4371 H   0  0  0  0  0  0  0  0  0  0  0  0
   46.7295   30.4806   49.1889 H   0  0  0  0  0  0  0  0  0  0  0  0
   47.3472   29.1336   45.4665 O   0  0  0  0  0  0  0  0  0  0  0  0
   48.4935   29.3691   46.2109 C   0  0  0  0  0  0  0  0  0  0  0  0
   48.5191   30.4170   47.1063 C   0  0  0  0  0  0  0  0  0  0  0  0
   49.7108   30.5472   47.7836 C   0  0  0  0  0  0  0  0  0  0  0  0
   49.8207   31.3413   48.5052 H   0  0  0  0  0  0  0  0  0  0  0  0
   50.7926   29.7123   47.5950 C   0  0  0  0  0  0  0  0  0  0  0  0
   50.7030   28.6788   46.6813 C   0  0  0  0  0  0  0  0  0  0  0  0
   49.5472   28.5091   45.9879 C   0  0  0  0  0  0  0  0  0  0  0  0
   49.4423   27.4673   45.0599 O   0  0  0  0  0  0  0  0  0  0  0  0
   46.6457   28.4878   45.8096 H   0  0  0  0  0  0  0  0  0  0  0  0
   51.7173   29.8477   48.1494 H   0  0  0  0  0  0  0  0  0  0  0  0
   51.5708   28.0367   46.5533 H   0  0  0  0  0  0  0  0  0  0  0  0
   49.7036   26.5268   45.3150 H   0  0  0  0  0  0  0  0  0  0  0  0
  1  6  2  0
  2  1  1  0
  3  2  2  0
  3  4  1  0
  4  5  2  0
  5  6  1  0
  5 10  1  0
  7  3  1  0
  8  7  1  0
  9  8  1  0
  9  7  1  0
 10 11  2  0
 11 12  1  0
 13 12  2  0
 14 13  1  0
 15 10  1  0
 15 14  2  0
  1 16  1  0
  2 17  1  0
  7 18  1  0
  8 19  1  0
  8 20  1  0
  9 21  1  0
  9 22  1  0
 11 23  1  0
 12 24  1  0
 13 25  1  0
 26 27  1  0
 27 28  2  0
 28 29  1  0
 29 30  1  0
 29 31  2  0
 31 32  1  0
 32 33  2  0
 33 34  1  0
 33 27  1  0
 26 35  1  0
 31 36  1  0
 32 37  1  0
 34 38  1  0
 14 28  1  0
M  ISO  8  16  14  17  14  18  13  19  13  20  13  21  13  22  13  23  14
M  ISO  3  24  14  25  14  30  16
M  END
>  <DihAtoms>  (1) 
12,13,27,26

>  <DihDeg>  (1) 
179.99833666200456

$$$$
