
     RDKit          3D

 25 26  0  0  0  0  0  0  0  0999 V2000
   44.5645   36.0062   44.4934 C   0  0  0  0  0  0  0  0  0  0  0  0
   45.3068   35.9194   43.2975 C   0  0  0  0  0  0  0  0  0  0  0  0
   46.1928   34.8548   43.1777 C   0  0  0  0  0  0  0  0  0  0  0  0
   46.3045   33.9630   44.1935 N   0  0  0  0  0  0  0  0  0  0  0  0
   45.5698   34.0853   45.3277 C   0  0  0  0  0  0  0  0  0  0  0  0
   44.7091   35.1056   45.4628 N   0  0  0  0  0  0  0  0  0  0  0  0
   46.9545   34.7807   41.9305 C   0  0  0  0  0  0  0  0  0  0  0  0
   43.8763   36.8544   44.5575 H   0  0  0  0  0  0  0  0  0  0  0  0
   45.1903   36.6610   42.4947 H   0  0  0  0  0  0  0  0  0  0  0  0
   45.6488   33.3808   46.1463 H   0  0  0  0  0  0  0  0  0  0  0  0
   46.3743   35.1889   41.0764 H   0  0  0  0  0  0  0  0  0  0  0  0
   47.1950   33.7315   41.6252 H   0  0  0  0  0  0  0  0  0  0  0  0
   48.5739   35.5526   39.6827 O   0  0  0  0  0  0  0  0  0  0  0  0
   48.9534   35.8891   40.9904 C   0  0  0  0  0  0  0  0  0  0  0  0
   48.2215   35.5506   42.1272 C   0  0  0  0  0  0  0  0  0  0  0  0
   48.6656   35.9208   43.3793 C   0  0  0  0  0  0  0  0  0  0  0  0
   48.0426   35.6211   44.2110 H   0  0  0  0  0  0  0  0  0  0  0  0
   49.8433   36.6332   43.5232 C   0  0  0  0  0  0  0  0  0  0  0  0
   50.5763   36.9723   42.3852 C   0  0  0  0  0  0  0  0  0  0  0  0
   50.1288   36.5991   41.1238 C   0  0  0  0  0  0  0  0  0  0  0  0
   50.9504   36.9998   40.0890 O   0  0  0  0  0  0  0  0  0  0  0  0
   47.7250   34.9979   39.6250 H   0  0  0  0  0  0  0  0  0  0  0  0
   50.1661   36.9107   44.5325 H   0  0  0  0  0  0  0  0  0  0  0  0
   51.4795   37.5246   42.5669 H   0  0  0  0  0  0  0  0  0  0  0  0
   51.3804   36.2999   39.4928 H   0  0  0  0  0  0  0  0  0  0  0  0
  1  6  2  0
  2  1  1  0
  3  2  2  0
  3  4  1  0
  4  5  2  0
  5  6  1  0
  7  3  1  0
  1  8  1  0
  2  9  1  0
  5 10  1  0
  7 11  1  0
  7 12  1  0
 13 14  1  0
 14 15  2  0
 15 16  1  0
 16 17  1  0
 16 18  2  0
 18 19  1  0
 19 20  2  0
 20 21  1  0
 20 14  1  0
 13 22  1  0
 18 23  1  0
 19 24  1  0
 21 25  1  0
  7 15  1  0
M  ISO  6   8  14   9  14  10  14  11   8  12   8  17  16
M  END
>  <DihAtoms>  (1) 
2,6,14,13

>  <DihDeg>  (1) 
179.99854555503097

$$$$
