
     RDKit          3D

 39 41  0  0  0  0  0  0  0  0999 V2000
   44.9076   35.0323   44.5034 C   0  0  0  0  0  0  0  0  0  0  0  0
   44.9918   34.3097   43.3393 C   0  0  0  0  0  0  0  0  0  0  0  0
   45.4342   32.9677   43.3418 C   0  0  0  0  0  0  0  0  0  0  0  0
   45.7683   32.4448   44.5668 N   0  0  0  0  0  0  0  0  0  0  0  0
   45.6832   33.1532   45.6880 C   0  0  0  0  0  0  0  0  0  0  0  0
   45.2570   34.4337   45.6544 N   0  0  0  0  0  0  0  0  0  0  0  0
   46.0478   32.5606   46.9660 C   0  0  0  0  0  0  0  0  0  0  0  0
   47.3259   32.2184   47.2772 C   0  0  0  0  0  0  0  0  0  0  0  0
   47.6847   31.6610   48.4739 C   0  0  0  0  0  0  0  0  0  0  0  0
   46.6972   31.4519   49.3720 N   0  0  0  0  0  0  0  0  0  0  0  0
   45.4455   31.7885   49.0633 C   0  0  0  0  0  0  0  0  0  0  0  0
   45.0681   32.3353   47.8995 N   0  0  0  0  0  0  0  0  0  0  0  0
   44.6187   34.9366   42.0823 C   0  0  0  0  0  0  0  0  0  0  0  0
   45.3221   34.7140   41.0751 O   0  0  0  0  0  0  0  0  0  0  0  0
   43.6054   35.7734   41.7153 O   0  0  0  0  0  0  0  0  0  0  0  0
   42.5481   35.3990   40.9271 C   0  0  0  0  0  0  0  0  0  0  0  0
   41.2093   35.3579   41.6526 C   0  0  0  0  0  0  0  0  0  0  0  0
   44.5842   36.0430   44.5750 H   0  0  0  0  0  0  0  0  0  0  0  0
   45.5070   32.3853   42.4426 H   0  0  0  0  0  0  0  0  0  0  0  0
   48.1202   32.3841   46.5613 H   0  0  0  0  0  0  0  0  0  0  0  0
   48.6963   31.3836   48.7363 H   0  0  0  0  0  0  0  0  0  0  0  0
   44.6355   31.6285   49.7723 H   0  0  0  0  0  0  0  0  0  0  0  0
   42.4031   36.2446   40.1861 H   0  0  0  0  0  0  0  0  0  0  0  0
   42.6791   34.5236   40.2620 H   0  0  0  0  0  0  0  0  0  0  0  0
   40.9131   36.3423   42.0272 H   0  0  0  0  0  0  0  0  0  0  0  0
   41.2700   34.5659   42.4091 H   0  0  0  0  0  0  0  0  0  0  0  0
   39.2883   37.1388   40.4800 O   0  0  0  0  0  0  0  0  0  0  0  0
   39.2814   35.8162   40.0879 C   0  0  0  0  0  0  0  0  0  0  0  0
   40.1959   34.9317   40.6360 C   0  0  0  0  0  0  0  0  0  0  0  0
   40.1398   33.6107   40.2010 C   0  0  0  0  0  0  0  0  0  0  0  0
   40.8656   32.9392   40.6447 H   0  0  0  0  0  0  0  0  0  0  0  0
   39.2289   33.1460   39.2622 C   0  0  0  0  0  0  0  0  0  0  0  0
   38.3297   34.0614   38.7367 C   0  0  0  0  0  0  0  0  0  0  0  0
   38.3601   35.3659   39.1445 C   0  0  0  0  0  0  0  0  0  0  0  0
   37.4244   36.2127   38.5672 O   0  0  0  0  0  0  0  0  0  0  0  0
   38.4980   37.7613   40.3505 H   0  0  0  0  0  0  0  0  0  0  0  0
   39.2881   32.0911   39.0060 H   0  0  0  0  0  0  0  0  0  0  0  0
   37.6364   33.6631   38.0094 H   0  0  0  0  0  0  0  0  0  0  0  0
   37.1100   36.0944   37.6022 H   0  0  0  0  0  0  0  0  0  0  0  0
  1  6  2  0
  2  3  2  0
  2  1  1  0
  3  4  1  0
  4  5  2  0
  5  7  1  0
  6  5  1  0
  7  8  2  0
  7 12  1  0
  8  9  1  0
  9 10  2  0
 11 10  1  0
 12 11  2  0
 13  2  1  0
 14 13  2  0
 15 13  1  0
 16 17  1  0
 16 15  1  0
  1 18  1  0
  3 19  1  0
  8 20  1  0
  9 21  1  0
 11 22  1  0
 16 23  1  0
 16 24  1  0
 17 25  1  0
 17 26  1  0
 27 28  1  0
 28 29  2  0
 29 30  1  0
 30 31  1  0
 30 32  2  0
 32 33  1  0
 33 34  2  0
 34 35  1  0
 34 28  1  0
 27 36  1  0
 32 37  1  0
 33 38  1  0
 35 39  1  0
 17 29  1  0
M  ISO  8  18  14  19  14  20  14  21  14  22  14  23   8  24   8  25   8
M  ISO  2  26   8  31  16
M  END
>  <DihAtoms>  (1) 
15,16,28,27

>  <DihDeg>  (1) 
-76.12725472883022

$$$$
