
     RDKit          3D

 25 26  0  0  0  0  0  0  0  0999 V2000
   45.4356   35.0669   44.0007 C   0  0  0  0  0  0  0  0  0  0  0  0
   46.4911   34.3027   43.5082 C   0  0  0  0  0  0  0  0  0  0  0  0
   47.0194   33.2896   44.3309 C   0  0  0  0  0  0  0  0  0  0  0  0
   46.4612   33.1201   45.5641 N   0  0  0  0  0  0  0  0  0  0  0  0
   45.4282   33.8975   45.9962 C   0  0  0  0  0  0  0  0  0  0  0  0
   44.9250   34.8649   45.2082 N   0  0  0  0  0  0  0  0  0  0  0  0
   44.9044   36.1314   43.0957 C   0  0  0  0  0  0  0  0  0  0  0  0
   47.8322   32.6429   44.0504 H   0  0  0  0  0  0  0  0  0  0  0  0
   45.0662   33.6695   46.9961 H   0  0  0  0  0  0  0  0  0  0  0  0
   45.2199   35.9743   42.0512 H   0  0  0  0  0  0  0  0  0  0  0  0
   43.7994   36.0984   43.1334 H   0  0  0  0  0  0  0  0  0  0  0  0
   45.2559   37.1229   43.4880 H   0  0  0  0  0  0  0  0  0  0  0  0
   47.6166   32.1016   42.1873 O   0  0  0  0  0  0  0  0  0  0  0  0
   47.6448   33.3459   41.5782 C   0  0  0  0  0  0  0  0  0  0  0  0
   47.1013   34.4710   42.1887 C   0  0  0  0  0  0  0  0  0  0  0  0
   47.1056   35.7280   41.6231 C   0  0  0  0  0  0  0  0  0  0  0  0
   46.6620   36.5691   42.1557 H   0  0  0  0  0  0  0  0  0  0  0  0
   47.6871   35.8568   40.3795 C   0  0  0  0  0  0  0  0  0  0  0  0
   48.2367   34.7630   39.7428 C   0  0  0  0  0  0  0  0  0  0  0  0
   48.2226   33.5134   40.3253 C   0  0  0  0  0  0  0  0  0  0  0  0
   48.7698   32.3680   39.7164 O   0  0  0  0  0  0  0  0  0  0  0  0
   46.7872   31.5329   42.0244 H   0  0  0  0  0  0  0  0  0  0  0  0
   47.7178   36.8367   39.8827 H   0  0  0  0  0  0  0  0  0  0  0  0
   48.7083   34.8313   38.7503 H   0  0  0  0  0  0  0  0  0  0  0  0
   49.7155   32.4954   39.3409 H   0  0  0  0  0  0  0  0  0  0  0  0
  1  6  2  0
  2  1  1  0
  2  3  2  0
  3  4  1  0
  4  5  2  0
  6  5  1  0
  7  1  1  0
  3  8  1  0
  5  9  1  0
  7 10  1  0
  7 11  1  0
  7 12  1  0
 13 14  1  0
 14 15  2  0
 15 16  1  0
 16 17  1  0
 16 18  2  0
 18 19  1  0
 19 20  2  0
 20 21  1  0
 20 14  1  0
 13 22  1  0
 18 23  1  0
 19 24  1  0
 21 25  1  0
  2 15  1  0
M  ISO  6   8  14   9  14  10   8  11   8  12   8  17  16
M  END
>  <DihAtoms>  (1) 
0,1,14,13

>  <DihDeg>  (1) 
-90.01668997755868

$$$$
