
     RDKit          3D

 43 46  0  0  0  0  0  0  0  0999 V2000
   47.1528   31.2874   46.7167 C   0  0  0  0  0  0  0  0  0  0  0  0
   46.7795   31.7625   48.0803 C   0  0  1  0  0  0  0  0  0  0  0  0
   46.1774   30.7601   49.0087 C   0  0  0  0  0  0  0  0  0  0  0  0
   47.5151   31.2560   49.2679 C   0  0  1  0  0  0  0  0  0  0  0  0
   48.7721   30.5117   49.0358 C   0  0  0  0  0  0  0  0  0  0  0  0
   49.5853   30.2261   50.3258 C   0  0  0  0  0  0  0  0  0  0  0  0
   50.0792   31.2591   49.3723 C   0  0  0  0  0  0  0  0  0  0  0  0
   45.9386   33.1499   45.9115 C   0  0  0  0  0  0  0  0  0  0  0  0
   46.9529   32.4049   45.7045 C   0  0  0  0  0  0  0  0  0  0  0  0
   44.5100   36.1632   44.3491 C   0  0  0  0  0  0  0  0  0  0  0  0
   45.1139   36.1661   43.0982 C   0  0  0  0  0  0  0  0  0  0  0  0
   45.9966   35.1723   42.8199 C   0  0  0  0  0  0  0  0  0  0  0  0
   46.2248   34.2468   43.7845 N   0  0  0  0  0  0  0  0  0  0  0  0
   45.6525   34.2297   44.9871 C   0  0  0  0  0  0  0  0  0  0  0  0
   44.7873   35.2183   45.2416 N   0  0  0  0  0  0  0  0  0  0  0  0
   46.3758   30.5339   46.4117 H   0  0  0  0  0  0  0  0  0  0  0  0
   48.1422   30.8326   46.6179 H   0  0  0  0  0  0  0  0  0  0  0  0
   46.3702   32.8066   48.1573 H   0  0  0  0  0  0  0  0  0  0  0  0
   46.0664   29.7171   48.6273 H   0  0  0  0  0  0  0  0  0  0  0  0
   45.3082   31.0728   49.6152 H   0  0  0  0  0  0  0  0  0  0  0  0
   47.5893   31.9818   50.1344 H   0  0  0  0  0  0  0  0  0  0  0  0
   48.8235   29.7100   48.2735 H   0  0  0  0  0  0  0  0  0  0  0  0
   50.0898   29.2602   50.3852 H   0  0  0  0  0  0  0  0  0  0  0  0
   49.1926   30.6296   51.2793 H   0  0  0  0  0  0  0  0  0  0  0  0
   50.9644   30.9606   48.7853 H   0  0  0  0  0  0  0  0  0  0  0  0
   49.9629   32.3268   49.5728 H   0  0  0  0  0  0  0  0  0  0  0  0
   45.1790   33.1123   46.7114 H   0  0  0  0  0  0  0  0  0  0  0  0
   47.6029   32.5853   44.8583 H   0  0  0  0  0  0  0  0  0  0  0  0
   43.7947   36.9366   44.6265 H   0  0  0  0  0  0  0  0  0  0  0  0
   44.9031   36.9151   42.3692 H   0  0  0  0  0  0  0  0  0  0  0  0
   47.3718   32.7524   42.0023 O   0  0  0  0  0  0  0  0  0  0  0  0
   47.4026   33.8433   41.1767 C   0  0  0  0  0  0  0  0  0  0  0  0
   46.7453   34.9698   41.5900 C   0  0  0  0  0  0  0  0  0  0  0  0
   46.8475   36.0025   40.6736 C   0  0  0  0  0  0  0  0  0  0  0  0
   46.3790   36.9862   40.8407 H   0  0  0  0  0  0  0  0  0  0  0  0
   47.5328   35.9066   39.4816 C   0  0  0  0  0  0  0  0  0  0  0  0
   48.1713   34.7376   39.1328 C   0  0  0  0  0  0  0  0  0  0  0  0
   48.0972   33.6863   40.0106 C   0  0  0  0  0  0  0  0  0  0  0  0
   48.7284   32.5173   39.6752 O   0  0  0  0  0  0  0  0  0  0  0  0
   46.6901   32.0238   41.7904 H   0  0  0  0  0  0  0  0  0  0  0  0
   47.5861   36.7392   38.7964 H   0  0  0  0  0  0  0  0  0  0  0  0
   48.6972   34.6990   38.1936 H   0  0  0  0  0  0  0  0  0  0  0  0
   48.2562   31.9179   38.9934 H   0  0  0  0  0  0  0  0  0  0  0  0
  1  2  1  0
  2  3  1  0
  2  4  1  0
  3  4  1  0
  5  4  1  0
  5  7  1  0
  5  6  1  0
  7  6  1  0
  9  8  2  0
  9  1  1  0
 10 15  2  0
 11 10  1  0
 12 11  2  0
 12 13  1  0
 13 14  2  0
 14 15  1  0
 14  8  1  0
  1 16  1  0
  1 17  1  0
  2 18  1  6
  3 19  1  0
  3 20  1  0
  4 21  1  1
  5 22  1  0
  6 23  1  0
  6 24  1  0
  7 25  1  0
  7 26  1  0
  8 27  1  0
  9 28  1  0
 10 29  1  0
 11 30  1  0
 31 32  1  0
 32 33  2  0
 33 34  1  0
 34 35  1  0
 34 36  2  0
 36 37  1  0
 37 38  2  0
 38 39  1  0
 38 32  1  0
 31 40  1  0
 36 41  1  0
 37 42  1  0
 39 43  1  0
 12 33  1  0
M  ISO  8  16   8  17   8  18  13  19  13  20  13  21  13  22  13  23  13
M  ISO  6  24  13  25  13  26  13  29  14  30  14  35  16
M  END
>  <DihAtoms>  (1) 
10,11,32,31

>  <DihDeg>  (1) 
0.6977079207264334

$$$$
