
 OpenBabel03252505193D

 36 39  0  0  0  0  0  0  0  0999 V2000
   46.0940   32.7400   47.1080 C   0  0  0  0  0  0  0  0  0  0  0  0
   44.9780   32.4360   47.8790 C   0  0  0  0  0  0  0  0  0  0  0  0
   45.1340   31.6170   48.9790 C   0  0  0  0  0  0  0  0  0  0  0  0
   46.4020   31.1430   49.2550 C   0  0  0  0  0  0  0  0  0  0  0  0
   47.4810   31.4780   48.4530 C   0  0  0  0  0  0  0  0  0  0  0  0
   47.3220   32.2860   47.3690 N   0  0  0  0  0  0  0  0  0  0  0  0
   44.0210   32.8480   47.5960 H   0  0  0  0  0  0  0  0  0  0  0  0
   44.2660   31.3800   49.5790 H   0  0  0  0  0  0  0  0  0  0  0  0
   46.4870   30.5150   50.1110 H   0  0  0  0  0  0  0  0  0  0  0  0
   44.7450   35.2970   44.8030 C   0  0  0  0  0  0  0  0  0  0  0  0
   45.5450   35.1480   43.6560 C   0  0  0  0  0  0  0  0  0  0  0  0
   46.5260   34.1790   43.7190 C   0  0  0  0  0  0  0  0  0  0  0  0
   46.6980   33.4120   44.8500 N   0  0  0  0  0  0  0  0  0  0  0  0
   45.8950   33.5930   45.9400 C   0  0  0  0  0  0  0  0  0  0  0  0
   44.9290   34.5380   45.8940 N   0  0  0  0  0  0  0  0  0  0  0  0
   43.9620   36.0450   44.8020 H   0  0  0  0  0  0  0  0  0  0  0  0
   45.4190   35.7390   42.7730 H   0  0  0  0  0  0  0  0  0  0  0  0
   47.4110   33.9130   42.5420 C   0  0  0  0  0  0  0  0  0  0  0  0
   48.7600   34.6270   42.6240 C   0  0  0  0  0  0  0  0  0  0  0  0
   48.5670   33.0750   42.7000 C   0  0  0  0  0  0  0  0  0  0  0  0
   46.8570   34.0480   41.5810 H   0  0  0  0  0  0  0  0  0  0  0  0
   49.1110   35.0200   41.6720 H   0  0  0  0  0  0  0  0  0  0  0  0
   49.0750   35.1010   43.5560 H   0  0  0  0  0  0  0  0  0  0  0  0
   48.7960   32.5990   43.6640 H   0  0  0  0  0  0  0  0  0  0  0  0
   48.9370   32.5460   41.7870 H   0  0  0  0  0  0  0  0  0  0  0  0
   49.3740   29.9520   48.0100 C   0  0  0  0  0  0  0  0  0  0  0  0
   48.8200   30.9820   48.7390 C   0  0  0  0  0  0  0  0  0  0  0  0
   49.6400   31.4720   49.7300 C   0  0  0  0  0  0  0  0  0  0  0  0
   49.2880   32.2800   50.3520 H   0  0  0  0  0  0  0  0  0  0  0  0
   50.9060   30.9890   49.9840 C   0  0  0  0  0  3  0  0  0  0  0  0
   51.4060   29.9530   49.2160 C   0  0  0  0  0  3  0  0  0  0  0  0
   50.6340   29.4360   48.2250 C   0  0  0  0  0  0  0  0  0  0  0  0
   48.6470   29.3730   46.9810 O   0  0  0  0  0  0  0  0  0  0  0  0
   48.0730   28.5570   47.1650 H   0  0  0  0  0  0  0  0  0  0  0  0
   51.1260   28.3870   47.4400 O   0  0  0  0  0  0  0  0  0  0  0  0
   51.5320   27.5710   47.8710 H   0  0  0  0  0  0  0  0  0  0  0  0
  1  6  2  0  0  0  0
  1  2  1  0  0  0  0
  2  3  2  0  0  0  0
  3  4  1  0  0  0  0
  3  8  1  0  0  0  0
  4  9  1  0  0  0  0
  5 27  1  0  0  0  0
  5  4  2  0  0  0  0
  6  5  1  0  0  0  0
  7  2  1  0  0  0  0
 10 15  1  0  0  0  0
 11 12  1  0  0  0  0
 11 10  2  0  0  0  0
 12 13  2  0  0  0  0
 13 14  1  0  0  0  0
 14  1  1  0  0  0  0
 15 14  2  0  0  0  0
 16 10  1  0  0  0  0
 17 11  1  0  0  0  0
 18 19  1  0  0  0  0
 18 20  1  0  0  0  0
 18 12  1  0  0  0  0
 19 20  1  0  0  0  0
 19 23  1  0  0  0  0
 20 24  1  0  0  0  0
 21 18  1  0  0  0  0
 22 19  1  0  0  0  0
 25 20  1  0  0  0  0
 26 32  2  0  0  0  0
 26 27  1  0  0  0  0
 27 28  2  0  0  0  0
 28 30  1  0  0  0  0
 28 29  1  0  0  0  0
 31 30  2  0  0  0  0
 32 31  1  0  0  0  0
 33 34  1  0  0  0  0
 33 26  1  0  0  0  0
 35 36  1  0  0  0  0
 35 32  1  0  0  0  0
M  END
>  <minimizedAffinity>
-6.30763817

>  <minimizedRMSD>
1.62435198

$$$$
