
 OpenBabel03252503253D

 49 54  0  0  1  0  0  0  0  0999 V2000
   35.4650   29.1120   40.2910 C   0  0  0  0  0  0  0  0  0  0  0  0
   35.7130   28.2920   39.1340 C   0  0  0  0  0  0  0  0  0  0  0  0
   36.3850   27.1110   39.3100 C   0  0  0  0  0  0  0  0  0  0  0  0
   36.7770   26.7840   40.5720 N   0  0  0  0  0  0  0  0  0  0  0  0
   36.5350   27.5700   41.6540 C   0  0  0  0  0  0  0  0  0  0  0  0
   35.8790   28.7320   41.5110 N   0  0  0  0  0  0  0  0  0  0  0  0
   34.9350   30.0410   40.1470 H   0  0  0  0  0  0  0  0  0  0  0  0
   36.5860   26.4740   38.4690 H   0  0  0  0  0  0  0  0  0  0  0  0
   35.2340   28.7750   37.8040 C   0  0  1  0  0  0  0  0  0  0  0  0
   35.3460   27.9250   36.6250 C   0  0  0  0  0  0  0  0  0  0  0  0
   34.0050   28.0790   37.2380 C   0  0  2  0  0  0  0  0  0  0  0  0
   35.2190   29.8790   37.7460 H   0  0  0  0  0  0  0  0  0  0  0  0
   35.8030   26.9080   36.8020 H   0  0  0  0  0  0  0  0  0  0  0  0
   35.7060   28.3780   35.7170 H   0  0  0  0  0  0  0  0  0  0  0  0
   33.5330   27.3110   37.8760 H   0  0  0  0  0  0  0  0  0  0  0  0
   33.0510   28.9960   36.5570 C   0  0  0  0  0  0  0  0  0  0  0  0
   33.1020   29.3130   35.2180 C   0  0  0  0  0  0  0  0  0  0  0  0
   32.1820   30.1800   34.6540 C   0  0  0  0  0  0  0  0  0  0  0  0
   31.1890   30.7460   35.4260 C   0  0  0  0  0  0  0  0  0  0  0  0
   30.2720   31.5940   34.9020 N   0  0  0  0  0  0  0  0  0  0  0  0
   29.3070   32.1300   35.6870 C   0  0  0  0  0  0  0  0  0  0  0  0
   29.1790   31.8620   37.0700 C   0  0  0  0  0  0  0  0  0  0  0  0
   30.1030   31.0040   37.6140 C   0  0  0  0  0  0  0  0  0  0  0  0
   31.0950   30.4550   36.7930 C   0  0  0  0  0  0  0  0  0  0  0  0
   32.0340   29.5870   37.3090 C   0  0  0  0  0  0  0  0  0  0  0  0
   33.8850   28.8650   34.6190 H   0  0  0  0  0  0  0  0  0  0  0  0
   32.2400   30.4180   33.5940 H   0  0  0  0  0  0  0  0  0  0  0  0
   28.6280   32.7880   35.1840 H   0  0  0  0  0  0  0  0  0  0  0  0
   28.3770   32.3350   37.6230 H   0  0  0  0  0  0  0  0  0  0  0  0
   30.0520   30.7640   38.6640 H   0  0  0  0  0  0  0  0  0  0  0  0
   31.9000   29.4170   38.3680 H   0  0  0  0  0  0  0  0  0  0  0  0
   37.0090   27.0960   42.9840 C   0  0  2  0  0  0  0  0  0  0  0  0
   37.2320   28.0130   44.0870 C   0  0  0  0  0  0  0  0  0  0  0  0
   38.4510   27.5760   43.3390 C   0  0  2  0  0  0  0  0  0  0  0  0
   36.8990   25.9820   43.1060 H   0  0  0  0  0  0  0  0  0  0  0  0
   36.7930   29.0070   44.0080 H   0  0  0  0  0  0  0  0  0  0  0  0
   37.0720   27.5670   45.1140 H   0  0  0  0  0  0  0  0  0  0  0  0
   39.0870   26.8410   43.8620 H   0  0  0  0  0  0  0  0  0  0  0  0
   39.7740   28.3280   41.2230 C   0  0  0  0  0  0  0  0  0  0  0  0
   39.0840   28.5080   42.4010 C   0  0  0  0  0  0  0  0  0  0  0  0
   38.9240   29.8250   42.8510 C   0  0  0  0  0  0  0  0  0  0  0  0
   38.4070   30.1640   43.7620 H   0  0  0  0  0  0  0  0  0  0  0  0
   39.4470   30.9060   42.1290 C   0  0  0  0  0  3  0  0  0  0  0  0
   40.1330   30.6990   40.9540 C   0  0  0  0  0  3  0  0  0  0  0  0
   40.2790   29.4060   40.5300 C   0  0  0  0  0  0  0  0  0  0  0  0
   39.8730   26.9900   40.8730 O   0  0  0  0  0  0  0  0  0  0  0  0
   39.2120   26.5180   40.2710 H   0  0  0  0  0  0  0  0  0  0  0  0
   40.9500   29.0980   39.3670 O   0  0  0  0  0  0  0  0  0  0  0  0
   40.5820   28.3790   38.7380 H   0  0  0  0  0  0  0  0  0  0  0  0
  1  6  1  0  0  0  0
  2  3  1  0  0  0  0
  2  1  2  0  0  0  0
  3  4  2  0  0  0  0
  4  5  1  0  0  0  0
  5 32  1  0  0  0  0
  6  5  2  0  0  0  0
  7  1  1  0  0  0  0
  8  3  1  0  0  0  0
  9 12  1  6  0  0  0
  9  2  1  0  0  0  0
 10 13  1  0  0  0  0
 10 11  1  0  0  0  0
 10  9  1  0  0  0  0
 11  9  1  0  0  0  0
 11 15  1  1  0  0  0
 14 10  1  0  0  0  0
 16 11  1  0  0  0  0
 16 25  1  0  0  0  0
 17 16  2  0  0  0  0
 18 17  1  0  0  0  0
 18 19  2  0  0  0  0
 19 24  1  0  0  0  0
 20 19  1  0  0  0  0
 20 21  2  0  0  0  0
 21 22  1  0  0  0  0
 22 23  2  0  0  0  0
 22 29  1  0  0  0  0
 23 30  1  0  0  0  0
 24 25  2  0  0  0  0
 24 23  1  0  0  0  0
 25 31  1  0  0  0  0
 26 17  1  0  0  0  0
 27 18  1  0  0  0  0
 28 21  1  0  0  0  0
 32 35  1  1  0  0  0
 32 34  1  0  0  0  0
 32 33  1  0  0  0  0
 33 37  1  0  0  0  0
 34 38  1  1  0  0  0
 34 33  1  0  0  0  0
 36 33  1  0  0  0  0
 39 40  1  0  0  0  0
 40 41  2  0  0  0  0
 40 34  1  0  0  0  0
 41 42  1  0  0  0  0
 43 41  1  0  0  0  0
 44 43  2  0  0  0  0
 45 44  1  0  0  0  0
 45 39  2  0  0  0  0
 46 39  1  0  0  0  0
 47 46  1  0  0  0  0
 48 45  1  0  0  0  0
 49 48  1  0  0  0  0
M  END
>  <minimizedAffinity>
-7.17850399

$$$$

 OpenBabel03252503253D

 49 54  0  0  1  0  0  0  0  0999 V2000
   35.2560   29.1260   40.3800 C   0  0  0  0  0  0  0  0  0  0  0  0
   35.3810   28.5340   39.0730 C   0  0  0  0  0  0  0  0  0  0  0  0
   36.1660   27.4190   38.9420 C   0  0  0  0  0  0  0  0  0  0  0  0
   36.7810   26.9380   40.0570 N   0  0  0  0  0  0  0  0  0  0  0  0
   36.6520   27.5100   41.2830 C   0  0  0  0  0  0  0  0  0  0  0  0
   35.8890   28.6030   41.4420 N   0  0  0  0  0  0  0  0  0  0  0  0
   34.6350   30.0050   40.4780 H   0  0  0  0  0  0  0  0  0  0  0  0
   36.2810   26.9510   37.9820 H   0  0  0  0  0  0  0  0  0  0  0  0
   34.6570   29.1700   37.9310 C   0  0  1  0  0  0  0  0  0  0  0  0
   34.5760   28.4970   36.6410 C   0  0  0  0  0  0  0  0  0  0  0  0
   33.3640   28.4970   37.4960 C   0  0  2  0  0  0  0  0  0  0  0  0
   34.6040   30.2690   38.0360 H   0  0  0  0  0  0  0  0  0  0  0  0
   35.0830   27.4890   36.5880 H   0  0  0  0  0  0  0  0  0  0  0  0
   34.7540   29.0870   35.7590 H   0  0  0  0  0  0  0  0  0  0  0  0
   33.0350   27.6260   38.0900 H   0  0  0  0  0  0  0  0  0  0  0  0
   32.2800   29.4490   37.1320 C   0  0  0  0  0  0  0  0  0  0  0  0
   31.3120   29.8930   38.0070 C   0  0  0  0  0  0  0  0  0  0  0  0
   30.3290   30.7750   37.5950 C   0  0  0  0  0  0  0  0  0  0  0  0
   30.2970   31.2310   36.2940 C   0  0  0  0  0  0  0  0  0  0  0  0
   29.3500   32.0970   35.8630 N   0  0  0  0  0  0  0  0  0  0  0  0
   29.3490   32.5290   34.5780 C   0  0  0  0  0  0  0  0  0  0  0  0
   30.3010   32.1260   33.6120 C   0  0  0  0  0  0  0  0  0  0  0  0
   31.2670   31.2460   34.0370 C   0  0  0  0  0  0  0  0  0  0  0  0
   31.2580   30.8080   35.3660 C   0  0  0  0  0  0  0  0  0  0  0  0
   32.2170   29.9290   35.8230 C   0  0  0  0  0  0  0  0  0  0  0  0
   31.3440   29.5290   39.0260 H   0  0  0  0  0  0  0  0  0  0  0  0
   29.5740   31.1140   38.3010 H   0  0  0  0  0  0  0  0  0  0  0  0
   28.5630   33.2130   34.3300 H   0  0  0  0  0  0  0  0  0  0  0  0
   30.2260   32.5200   32.6070 H   0  0  0  0  0  0  0  0  0  0  0  0
   32.0180   30.9060   33.3420 H   0  0  0  0  0  0  0  0  0  0  0  0
   32.9180   29.6450   35.0500 H   0  0  0  0  0  0  0  0  0  0  0  0
   37.3700   26.8820   42.4270 C   0  0  2  0  0  0  0  0  0  0  0  0
   37.6790   27.6260   43.6360 C   0  0  0  0  0  0  0  0  0  0  0  0
   38.7990   27.4630   42.6590 C   0  0  2  0  0  0  0  0  0  0  0  0
   37.3820   25.7590   42.3610 H   0  0  0  0  0  0  0  0  0  0  0  0
   37.1440   28.5610   43.7980 H   0  0  0  0  0  0  0  0  0  0  0  0
   37.7230   27.0010   44.5780 H   0  0  0  0  0  0  0  0  0  0  0  0
   39.5740   26.7320   42.9480 H   0  0  0  0  0  0  0  0  0  0  0  0
   39.6750   28.7040   40.5410 C   0  0  0  0  0  0  0  0  0  0  0  0
   39.1910   28.6040   41.8260 C   0  0  0  0  0  0  0  0  0  0  0  0
   39.0180   29.7990   42.5370 C   0  0  0  0  0  0  0  0  0  0  0  0
   38.6450   29.9190   43.5660 H   0  0  0  0  0  0  0  0  0  0  0  0
   39.3270   31.0370   41.9580 C   0  0  0  0  0  3  0  0  0  0  0  0
   39.8100   31.1100   40.6720 C   0  0  0  0  0  3  0  0  0  0  0  0
   39.9720   29.9330   39.9930 C   0  0  0  0  0  0  0  0  0  0  0  0
   39.8050   27.4650   39.9330 O   0  0  0  0  0  0  0  0  0  0  0  0
   39.0850   27.0400   39.3660 H   0  0  0  0  0  0  0  0  0  0  0  0
   40.4480   29.9020   38.7010 O   0  0  0  0  0  0  0  0  0  0  0  0
   40.0280   29.2700   38.0150 H   0  0  0  0  0  0  0  0  0  0  0  0
  1  7  1  0  0  0  0
  1  6  1  0  0  0  0
  2  1  2  0  0  0  0
  3  2  1  0  0  0  0
  3  4  2  0  0  0  0
  4  5  1  0  0  0  0
  5  6  2  0  0  0  0
  5 32  1  0  0  0  0
  8  3  1  0  0  0  0
  9 12  1  6  0  0  0
  9  2  1  0  0  0  0
 10 11  1  0  0  0  0
 10  9  1  0  0  0  0
 11  9  1  0  0  0  0
 11 15  1  1  0  0  0
 13 10  1  0  0  0  0
 14 10  1  0  0  0  0
 16 11  1  0  0  0  0
 16 17  1  0  0  0  0
 17 26  1  0  0  0  0
 18 17  2  0  0  0  0
 18 27  1  0  0  0  0
 19 18  1  0  0  0  0
 20 19  1  0  0  0  0
 21 20  2  0  0  0  0
 22 23  2  0  0  0  0
 22 21  1  0  0  0  0
 23 24  1  0  0  0  0
 24 25  1  0  0  0  0
 24 19  2  0  0  0  0
 25 16  2  0  0  0  0
 28 21  1  0  0  0  0
 29 22  1  0  0  0  0
 30 23  1  0  0  0  0
 31 25  1  0  0  0  0
 32 35  1  1  0  0  0
 32 34  1  0  0  0  0
 32 33  1  0  0  0  0
 33 36  1  0  0  0  0
 33 37  1  0  0  0  0
 34 38  1  1  0  0  0
 34 33  1  0  0  0  0
 39 40  1  0  0  0  0
 40 41  2  0  0  0  0
 40 34  1  0  0  0  0
 41 42  1  0  0  0  0
 43 41  1  0  0  0  0
 44 43  2  0  0  0  0
 45 39  2  0  0  0  0
 45 44  1  0  0  0  0
 46 39  1  0  0  0  0
 47 46  1  0  0  0  0
 48 45  1  0  0  0  0
 49 48  1  0  0  0  0
M  END
>  <minimizedAffinity>
-7.06070471

$$$$

 OpenBabel03252503253D

 49 54  0  0  1  0  0  0  0  0999 V2000
   38.0530   29.6820   38.8220 C   0  0  0  0  0  0  0  0  0  0  0  0
   36.6730   30.0900   38.8730 C   0  0  0  0  0  0  0  0  0  0  0  0
   36.2370   30.7580   39.9870 C   0  0  0  0  0  0  0  0  0  0  0  0
   37.1370   30.9950   40.9800 N   0  0  0  0  0  0  0  0  0  0  0  0
   38.4370   30.6030   40.9160 C   0  0  0  0  0  0  0  0  0  0  0  0
   38.8920   29.9470   39.8370 N   0  0  0  0  0  0  0  0  0  0  0  0
   38.3910   29.1570   37.9420 H   0  0  0  0  0  0  0  0  0  0  0  0
   35.2140   31.0780   40.0580 H   0  0  0  0  0  0  0  0  0  0  0  0
   35.7890   29.7580   37.7150 C   0  0  1  0  0  0  0  0  0  0  0  0
   35.8790   28.4560   37.0660 C   0  0  0  0  0  0  0  0  0  0  0  0
   34.7240   28.7020   37.9620 C   0  0  2  0  0  0  0  0  0  0  0  0
   35.4400   30.6650   37.1880 H   0  0  0  0  0  0  0  0  0  0  0  0
   36.6410   27.7480   37.5060 H   0  0  0  0  0  0  0  0  0  0  0  0
   35.8790   28.4350   35.9900 H   0  0  0  0  0  0  0  0  0  0  0  0
   34.6520   28.3030   38.9900 H   0  0  0  0  0  0  0  0  0  0  0  0
   33.4160   28.9980   37.3160 C   0  0  0  0  0  0  0  0  0  0  0  0
   33.1630   28.8380   35.9710 C   0  0  0  0  0  0  0  0  0  0  0  0
   31.9220   29.1400   35.4390 C   0  0  0  0  0  0  0  0  0  0  0  0
   30.9080   29.6090   36.2470 C   0  0  0  0  0  0  0  0  0  0  0  0
   29.6820   29.9080   35.7560 N   0  0  0  0  0  0  0  0  0  0  0  0
   28.7060   30.3630   36.5780 C   0  0  0  0  0  0  0  0  0  0  0  0
   28.8770   30.5580   37.9690 C   0  0  0  0  0  0  0  0  0  0  0  0
   30.1160   30.2580   38.4800 C   0  0  0  0  0  0  0  0  0  0  0  0
   31.1160   29.7880   37.6210 C   0  0  0  0  0  0  0  0  0  0  0  0
   32.3690   29.4750   38.1050 C   0  0  0  0  0  0  0  0  0  0  0  0
   33.9650   28.4710   35.3430 H   0  0  0  0  0  0  0  0  0  0  0  0
   31.7410   29.0070   34.3740 H   0  0  0  0  0  0  0  0  0  0  0  0
   27.7710   30.5720   36.1000 H   0  0  0  0  0  0  0  0  0  0  0  0
   28.0430   30.9260   38.5530 H   0  0  0  0  0  0  0  0  0  0  0  0
   30.3020   30.3880   39.5340 H   0  0  0  0  0  0  0  0  0  0  0  0
   32.4540   29.6450   39.1690 H   0  0  0  0  0  0  0  0  0  0  0  0
   39.3250   30.9310   42.0660 C   0  0  2  0  0  0  0  0  0  0  0  0
   40.5700   30.2190   42.2970 C   0  0  0  0  0  0  0  0  0  0  0  0
   39.4060   29.7960   43.1340 C   0  0  2  0  0  0  0  0  0  0  0  0
   39.0740   31.9240   42.5310 H   0  0  0  0  0  0  0  0  0  0  0  0
   40.9710   29.6330   41.4710 H   0  0  0  0  0  0  0  0  0  0  0  0
   41.3760   30.8290   42.8070 H   0  0  0  0  0  0  0  0  0  0  0  0
   39.4360   30.1270   44.1860 H   0  0  0  0  0  0  0  0  0  0  0  0
   39.0580   27.4560   42.0400 C   0  0  0  0  0  0  0  0  0  0  0  0
   38.7170   28.5410   42.8150 C   0  0  0  0  0  0  0  0  0  0  0  0
   37.4710   28.5020   43.4550 C   0  0  0  0  0  0  0  0  0  0  0  0
   37.0290   29.2690   44.1100 H   0  0  0  0  0  0  0  0  0  0  0  0
   36.6150   27.4030   43.3060 C   0  0  0  0  0  3  0  0  0  0  0  0
   36.9790   26.3310   42.5250 C   0  0  0  0  0  3  0  0  0  0  0  0
   38.1990   26.3860   41.9080 C   0  0  0  0  0  0  0  0  0  0  0  0
   40.3070   27.6000   41.4570 O   0  0  0  0  0  0  0  0  0  0  0  0
   41.1630   27.2600   41.8730 H   0  0  0  0  0  0  0  0  0  0  0  0
   38.6520   25.3620   41.1060 O   0  0  0  0  0  0  0  0  0  0  0  0
   39.6290   25.0620   41.1610 H   0  0  0  0  0  0  0  0  0  0  0  0
  1  2  2  0  0  0  0
  1  6  1  0  0  0  0
  2  3  1  0  0  0  0
  3  8  1  0  0  0  0
  3  4  2  0  0  0  0
  5  4  1  0  0  0  0
  5 32  1  0  0  0  0
  6  5  2  0  0  0  0
  7  1  1  0  0  0  0
  9 12  1  6  0  0  0
  9 11  1  0  0  0  0
  9  2  1  0  0  0  0
 10 13  1  0  0  0  0
 10  9  1  0  0  0  0
 10 11  1  0  0  0  0
 11 15  1  1  0  0  0
 14 10  1  0  0  0  0
 16 11  1  0  0  0  0
 16 25  1  0  0  0  0
 17 16  2  0  0  0  0
 18 17  1  0  0  0  0
 18 19  2  0  0  0  0
 19 24  1  0  0  0  0
 20 19  1  0  0  0  0
 20 21  2  0  0  0  0
 21 22  1  0  0  0  0
 22 23  2  0  0  0  0
 22 29  1  0  0  0  0
 23 30  1  0  0  0  0
 24 25  2  0  0  0  0
 24 23  1  0  0  0  0
 25 31  1  0  0  0  0
 26 17  1  0  0  0  0
 27 18  1  0  0  0  0
 28 21  1  0  0  0  0
 32 33  1  0  0  0  0
 32 35  1  1  0  0  0
 32 34  1  0  0  0  0
 33 37  1  0  0  0  0
 33 34  1  0  0  0  0
 34 38  1  1  0  0  0
 36 33  1  0  0  0  0
 39 40  1  0  0  0  0
 40 34  1  0  0  0  0
 40 41  2  0  0  0  0
 41 42  1  0  0  0  0
 43 41  1  0  0  0  0
 44 43  2  0  0  0  0
 45 39  2  0  0  0  0
 45 44  1  0  0  0  0
 46 47  1  0  0  0  0
 46 39  1  0  0  0  0
 48 49  1  0  0  0  0
 48 45  1  0  0  0  0
M  END
>  <minimizedAffinity>
-6.83718014

$$$$

 OpenBabel03252503253D

 49 54  0  0  1  0  0  0  0  0999 V2000
   38.0950   29.7040   38.7750 C   0  0  0  0  0  0  0  0  0  0  0  0
   36.6900   30.0030   38.8680 C   0  0  0  0  0  0  0  0  0  0  0  0
   36.2640   30.7890   39.9070 C   0  0  0  0  0  0  0  0  0  0  0  0
   37.1990   31.2400   40.7890 N   0  0  0  0  0  0  0  0  0  0  0  0
   38.5220   30.9480   40.6860 C   0  0  0  0  0  0  0  0  0  0  0  0
   38.9670   30.1810   39.6780 N   0  0  0  0  0  0  0  0  0  0  0  0
   38.4260   29.0850   37.9540 H   0  0  0  0  0  0  0  0  0  0  0  0
   35.2230   31.0330   40.0070 H   0  0  0  0  0  0  0  0  0  0  0  0
   35.7710   29.4360   37.8360 C   0  0  1  0  0  0  0  0  0  0  0  0
   35.7500   28.0030   37.5720 C   0  0  0  0  0  0  0  0  0  0  0  0
   34.6270   28.5770   38.3520 C   0  0  2  0  0  0  0  0  0  0  0  0
   35.4900   30.1880   37.0750 H   0  0  0  0  0  0  0  0  0  0  0  0
   36.4570   27.3850   38.2000 H   0  0  0  0  0  0  0  0  0  0  0  0
   35.7370   27.6860   36.5440 H   0  0  0  0  0  0  0  0  0  0  0  0
   34.5340   28.4840   39.4490 H   0  0  0  0  0  0  0  0  0  0  0  0
   33.3410   28.7870   37.6330 C   0  0  0  0  0  0  0  0  0  0  0  0
   33.0650   28.2900   36.3780 C   0  0  0  0  0  0  0  0  0  0  0  0
   31.8460   28.5300   35.7680 C   0  0  0  0  0  0  0  0  0  0  0  0
   30.8780   29.2760   36.4070 C   0  0  0  0  0  0  0  0  0  0  0  0
   29.6750   29.5250   35.8370 N   0  0  0  0  0  0  0  0  0  0  0  0
   28.7440   30.2580   36.4940 C   0  0  0  0  0  0  0  0  0  0  0  0
   28.9410   30.8080   37.7830 C   0  0  0  0  0  0  0  0  0  0  0  0
   30.1570   30.5630   38.3710 C   0  0  0  0  0  0  0  0  0  0  0  0
   31.1110   29.8030   37.6840 C   0  0  0  0  0  0  0  0  0  0  0  0
   32.3400   29.5370   38.2510 C   0  0  0  0  0  0  0  0  0  0  0  0
   33.8310   27.7060   35.8830 H   0  0  0  0  0  0  0  0  0  0  0  0
   31.6470   28.1290   34.7760 H   0  0  0  0  0  0  0  0  0  0  0  0
   27.8240   30.4010   35.9650 H   0  0  0  0  0  0  0  0  0  0  0  0
   28.1430   31.3820   38.2340 H   0  0  0  0  0  0  0  0  0  0  0  0
   30.3610   30.9580   39.3540 H   0  0  0  0  0  0  0  0  0  0  0  0
   32.4460   29.9820   39.2300 H   0  0  0  0  0  0  0  0  0  0  0  0
   39.4450   31.5100   41.7100 C   0  0  2  0  0  0  0  0  0  0  0  0
   40.7920   30.9970   41.8880 C   0  0  0  0  0  0  0  0  0  0  0  0
   39.7710   30.5150   42.8670 C   0  0  2  0  0  0  0  0  0  0  0  0
   39.0950   32.5050   42.1020 H   0  0  0  0  0  0  0  0  0  0  0  0
   41.2040   30.3850   41.0860 H   0  0  0  0  0  0  0  0  0  0  0  0
   41.5430   31.7580   42.2600 H   0  0  0  0  0  0  0  0  0  0  0  0
   39.8390   30.9570   43.8760 H   0  0  0  0  0  0  0  0  0  0  0  0
   38.0140   28.5950   43.0070 C   0  0  0  0  0  0  0  0  0  0  0  0
   39.2420   29.1540   42.7350 C   0  0  0  0  0  0  0  0  0  0  0  0
   40.2330   28.3010   42.2310 C   0  0  0  0  0  0  0  0  0  0  0  0
   41.2670   28.5630   41.9560 H   0  0  0  0  0  0  0  0  0  0  0  0
   39.9770   26.9410   42.0160 C   0  0  0  0  0  3  0  0  0  0  0  0
   38.7410   26.4070   42.2960 C   0  0  0  0  0  3  0  0  0  0  0  0
   37.7850   27.2540   42.7870 C   0  0  0  0  0  0  0  0  0  0  0  0
   37.1120   29.5260   43.4990 O   0  0  0  0  0  0  0  0  0  0  0  0
   36.4710   30.0480   42.9170 H   0  0  0  0  0  0  0  0  0  0  0  0
   36.5180   26.8140   43.0970 O   0  0  0  0  0  0  0  0  0  0  0  0
   35.7030   27.3840   42.8550 H   0  0  0  0  0  0  0  0  0  0  0  0
  1  2  2  0  0  0  0
  1  6  1  0  0  0  0
  2  3  1  0  0  0  0
  3  8  1  0  0  0  0
  3  4  2  0  0  0  0
  5  4  1  0  0  0  0
  5 32  1  0  0  0  0
  6  5  2  0  0  0  0
  7  1  1  0  0  0  0
  9 12  1  6  0  0  0
  9 11  1  0  0  0  0
  9  2  1  0  0  0  0
 10  9  1  0  0  0  0
 10 13  1  0  0  0  0
 10 11  1  0  0  0  0
 11 15  1  1  0  0  0
 14 10  1  0  0  0  0
 16 25  1  0  0  0  0
 16 11  1  0  0  0  0
 17 16  2  0  0  0  0
 18 17  1  0  0  0  0
 18 19  2  0  0  0  0
 19 24  1  0  0  0  0
 20 19  1  0  0  0  0
 20 21  2  0  0  0  0
 21 22  1  0  0  0  0
 22 29  1  0  0  0  0
 22 23  2  0  0  0  0
 23 30  1  0  0  0  0
 24 25  2  0  0  0  0
 24 23  1  0  0  0  0
 25 31  1  0  0  0  0
 26 17  1  0  0  0  0
 27 18  1  0  0  0  0
 28 21  1  0  0  0  0
 32 33  1  0  0  0  0
 32 35  1  1  0  0  0
 32 34  1  0  0  0  0
 33 37  1  0  0  0  0
 33 34  1  0  0  0  0
 34 38  1  1  0  0  0
 36 33  1  0  0  0  0
 39 46  1  0  0  0  0
 40 34  1  0  0  0  0
 40 39  2  0  0  0  0
 41 40  1  0  0  0  0
 42 41  1  0  0  0  0
 43 41  2  0  0  0  0
 43 44  1  0  0  0  0
 44 45  2  0  0  0  0
 45 39  1  0  0  0  0
 45 48  1  0  0  0  0
 47 46  1  0  0  0  0
 49 48  1  0  0  0  0
M  END
>  <minimizedAffinity>
-6.76191282

$$$$

 OpenBabel03252503253D

 49 54  0  0  1  0  0  0  0  0999 V2000
   40.8400   28.8660   40.3150 C   0  0  0  0  0  0  0  0  0  0  0  0
   40.2520   28.8160   41.6280 C   0  0  0  0  0  0  0  0  0  0  0  0
   40.4290   29.8930   42.4570 C   0  0  0  0  0  0  0  0  0  0  0  0
   41.1520   30.9460   41.9860 N   0  0  0  0  0  0  0  0  0  0  0  0
   41.7010   30.9770   40.7430 C   0  0  0  0  0  0  0  0  0  0  0  0
   41.5430   29.9370   39.9100 N   0  0  0  0  0  0  0  0  0  0  0  0
   40.6970   28.0150   39.6650 H   0  0  0  0  0  0  0  0  0  0  0  0
   40.0040   29.8900   43.4430 H   0  0  0  0  0  0  0  0  0  0  0  0
   39.4880   27.5940   42.0200 C   0  0  1  0  0  0  0  0  0  0  0  0
   38.6100   27.6120   43.1830 C   0  0  0  0  0  0  0  0  0  0  0  0
   37.9800   27.6560   41.8410 C   0  0  2  0  0  0  0  0  0  0  0  0
   39.9700   26.6700   41.6490 H   0  0  0  0  0  0  0  0  0  0  0  0
   38.5550   28.5970   43.7330 H   0  0  0  0  0  0  0  0  0  0  0  0
   38.6570   26.7730   43.8560 H   0  0  0  0  0  0  0  0  0  0  0  0
   37.5730   28.5760   41.3870 H   0  0  0  0  0  0  0  0  0  0  0  0
   37.3780   26.3930   41.3350 C   0  0  0  0  0  0  0  0  0  0  0  0
   37.2810   25.2310   42.0690 C   0  0  0  0  0  0  0  0  0  0  0  0
   36.7120   24.0910   41.5290 C   0  0  0  0  0  0  0  0  0  0  0  0
   36.2290   24.0940   40.2370 C   0  0  0  0  0  0  0  0  0  0  0  0
   35.6640   22.9950   39.6830 N   0  0  0  0  0  0  0  0  0  0  0  0
   35.1940   23.0320   38.4120 C   0  0  0  0  0  0  0  0  0  0  0  0
   35.2530   24.1790   37.5850 C   0  0  0  0  0  0  0  0  0  0  0  0
   35.8240   25.3000   38.1360 C   0  0  0  0  0  0  0  0  0  0  0  0
   36.3040   25.2500   39.4500 C   0  0  0  0  0  0  0  0  0  0  0  0
   36.8790   26.3610   40.0320 C   0  0  0  0  0  0  0  0  0  0  0  0
   37.6640   25.2370   43.0820 H   0  0  0  0  0  0  0  0  0  0  0  0
   36.6450   23.1830   42.1250 H   0  0  0  0  0  0  0  0  0  0  0  0
   34.7640   22.1170   38.0600 H   0  0  0  0  0  0  0  0  0  0  0  0
   34.8550   24.1210   36.5810 H   0  0  0  0  0  0  0  0  0  0  0  0
   35.8950   26.2030   37.5510 H   0  0  0  0  0  0  0  0  0  0  0  0
   36.9070   27.2080   39.3620 H   0  0  0  0  0  0  0  0  0  0  0  0
   42.4630   32.1930   40.3440 C   0  0  2  0  0  0  0  0  0  0  0  0
   42.1130   33.5110   40.8430 C   0  0  0  0  0  0  0  0  0  0  0  0
   41.6380   33.1830   39.4640 C   0  0  2  0  0  0  0  0  0  0  0  0
   43.4530   31.9420   39.8730 H   0  0  0  0  0  0  0  0  0  0  0  0
   41.4630   33.5590   41.7160 H   0  0  0  0  0  0  0  0  0  0  0  0
   42.9830   34.2300   40.9300 H   0  0  0  0  0  0  0  0  0  0  0  0
   42.1920   33.6740   38.6450 H   0  0  0  0  0  0  0  0  0  0  0  0
   39.0980   33.0310   40.0300 C   0  0  0  0  0  0  0  0  0  0  0  0
   40.2240   32.8580   39.2560 C   0  0  0  0  0  0  0  0  0  0  0  0
   40.0490   32.2520   38.0050 C   0  0  0  0  0  0  0  0  0  0  0  0
   40.8240   32.0320   37.2530 H   0  0  0  0  0  0  0  0  0  0  0  0
   38.7830   31.8420   37.5690 C   0  0  0  0  0  3  0  0  0  0  0  0
   37.6740   32.0260   38.3620 C   0  0  0  0  0  3  0  0  0  0  0  0
   37.8630   32.6200   39.5800 C   0  0  0  0  0  0  0  0  0  0  0  0
   39.3850   33.6390   41.2420 O   0  0  0  0  0  0  0  0  0  0  0  0
   39.3420   34.6380   41.3930 H   0  0  0  0  0  0  0  0  0  0  0  0
   36.8150   32.8470   40.4440 O   0  0  0  0  0  0  0  0  0  0  0  0
   36.7580   33.7290   40.9600 H   0  0  0  0  0  0  0  0  0  0  0  0
  1  2  1  0  0  0  0
  2  9  1  0  0  0  0
  2  3  2  0  0  0  0
  3  8  1  0  0  0  0
  4  3  1  0  0  0  0
  5  4  2  0  0  0  0
  6  1  2  0  0  0  0
  6  5  1  0  0  0  0
  7  1  1  0  0  0  0
  9 12  1  6  0  0  0
  9 10  1  0  0  0  0
 10 13  1  0  0  0  0
 10 14  1  0  0  0  0
 11 15  1  6  0  0  0
 11  9  1  0  0  0  0
 11 10  1  0  0  0  0
 16 11  1  0  0  0  0
 16 17  1  0  0  0  0
 17 26  1  0  0  0  0
 18 17  2  0  0  0  0
 18 27  1  0  0  0  0
 19 18  1  0  0  0  0
 20 19  1  0  0  0  0
 21 20  2  0  0  0  0
 22 23  2  0  0  0  0
 22 21  1  0  0  0  0
 23 24  1  0  0  0  0
 24 25  1  0  0  0  0
 24 19  2  0  0  0  0
 25 16  2  0  0  0  0
 28 21  1  0  0  0  0
 29 22  1  0  0  0  0
 30 23  1  0  0  0  0
 31 25  1  0  0  0  0
 32 35  1  6  0  0  0
 32  5  1  0  0  0  0
 32 33  1  0  0  0  0
 33 37  1  0  0  0  0
 33 36  1  0  0  0  0
 34 38  1  6  0  0  0
 34 32  1  0  0  0  0
 34 33  1  0  0  0  0
 39 46  1  0  0  0  0
 40 34  1  0  0  0  0
 40 39  2  0  0  0  0
 41 40  1  0  0  0  0
 42 41  1  0  0  0  0
 43 41  2  0  0  0  0
 43 44  1  0  0  0  0
 44 45  2  0  0  0  0
 45 39  1  0  0  0  0
 45 48  1  0  0  0  0
 46 47  1  0  0  0  0
 48 49  1  0  0  0  0
M  END
>  <minimizedAffinity>
-6.66237879

$$$$

 OpenBabel03252503253D

 49 54  0  0  1  0  0  0  0  0999 V2000
   40.9610   29.0900   40.4380 C   0  0  0  0  0  0  0  0  0  0  0  0
   40.1380   29.0730   41.6200 C   0  0  0  0  0  0  0  0  0  0  0  0
   40.0120   30.2340   42.3360 C   0  0  0  0  0  0  0  0  0  0  0  0
   40.6740   31.3350   41.8850 N   0  0  0  0  0  0  0  0  0  0  0  0
   41.4470   31.3340   40.7670 C   0  0  0  0  0  0  0  0  0  0  0  0
   41.5880   30.2110   40.0460 N   0  0  0  0  0  0  0  0  0  0  0  0
   41.0570   28.1720   39.8770 H   0  0  0  0  0  0  0  0  0  0  0  0
   39.4060   30.2580   43.2220 H   0  0  0  0  0  0  0  0  0  0  0  0
   39.4740   27.7920   42.0060 C   0  0  1  0  0  0  0  0  0  0  0  0
   38.6980   27.7040   43.2370 C   0  0  0  0  0  0  0  0  0  0  0  0
   37.9540   27.7800   41.9560 C   0  0  2  0  0  0  0  0  0  0  0  0
   39.9680   26.9160   41.5480 H   0  0  0  0  0  0  0  0  0  0  0  0
   38.6400   28.6560   43.8420 H   0  0  0  0  0  0  0  0  0  0  0  0
   38.8440   26.8370   43.8580 H   0  0  0  0  0  0  0  0  0  0  0  0
   37.4640   28.6980   41.5880 H   0  0  0  0  0  0  0  0  0  0  0  0
   37.3760   26.5120   41.4330 C   0  0  0  0  0  0  0  0  0  0  0  0
   37.2620   25.3510   42.1670 C   0  0  0  0  0  0  0  0  0  0  0  0
   36.7180   24.2070   41.6100 C   0  0  0  0  0  0  0  0  0  0  0  0
   36.2770   24.2040   40.3040 C   0  0  0  0  0  0  0  0  0  0  0  0
   35.7370   23.1010   39.7330 N   0  0  0  0  0  0  0  0  0  0  0  0
   35.3090   23.1330   38.4480 C   0  0  0  0  0  0  0  0  0  0  0  0
   35.3890   24.2790   37.6210 C   0  0  0  0  0  0  0  0  0  0  0  0
   35.9350   25.4040   38.1870 C   0  0  0  0  0  0  0  0  0  0  0  0
   36.3720   25.3590   39.5170 C   0  0  0  0  0  0  0  0  0  0  0  0
   36.9210   26.4740   40.1140 C   0  0  0  0  0  0  0  0  0  0  0  0
   37.6110   25.3620   43.1910 H   0  0  0  0  0  0  0  0  0  0  0  0
   36.6360   23.3000   42.2070 H   0  0  0  0  0  0  0  0  0  0  0  0
   34.8960   22.2150   38.0850 H   0  0  0  0  0  0  0  0  0  0  0  0
   35.0240   24.2160   36.6040 H   0  0  0  0  0  0  0  0  0  0  0  0
   36.0200   26.3060   37.6020 H   0  0  0  0  0  0  0  0  0  0  0  0
   36.9670   27.3210   39.4430 H   0  0  0  0  0  0  0  0  0  0  0  0
   42.1120   32.6070   40.3740 C   0  0  2  0  0  0  0  0  0  0  0  0
   41.5420   33.9010   40.7080 C   0  0  0  0  0  0  0  0  0  0  0  0
   41.3140   33.4230   39.3100 C   0  0  2  0  0  0  0  0  0  0  0  0
   43.1820   32.4530   40.0640 H   0  0  0  0  0  0  0  0  0  0  0  0
   40.7710   33.9250   41.4770 H   0  0  0  0  0  0  0  0  0  0  0  0
   42.3010   34.7290   40.8520 H   0  0  0  0  0  0  0  0  0  0  0  0
   41.9200   33.9240   38.5360 H   0  0  0  0  0  0  0  0  0  0  0  0
   39.5710   32.0050   37.9890 C   0  0  0  0  0  0  0  0  0  0  0  0
   39.9920   32.9080   38.9400 C   0  0  0  0  0  0  0  0  0  0  0  0
   39.0060   33.4920   39.7460 C   0  0  0  0  0  0  0  0  0  0  0  0
   39.1490   34.2290   40.5520 H   0  0  0  0  0  0  0  0  0  0  0  0
   37.6530   33.1660   39.5860 C   0  0  0  0  0  3  0  0  0  0  0  0
   37.2580   32.2610   38.6280 C   0  0  0  0  0  3  0  0  0  0  0  0
   38.2340   31.7010   37.8500 C   0  0  0  0  0  0  0  0  0  0  0  0
   40.6250   31.4910   37.2510 O   0  0  0  0  0  0  0  0  0  0  0  0
   41.1140   30.6390   37.4890 H   0  0  0  0  0  0  0  0  0  0  0  0
   37.9380   30.7840   36.8660 O   0  0  0  0  0  0  0  0  0  0  0  0
   38.5320   29.9610   36.7360 H   0  0  0  0  0  0  0  0  0  0  0  0
  1  2  1  0  0  0  0
  2  9  1  0  0  0  0
  2  3  2  0  0  0  0
  3  8  1  0  0  0  0
  4  3  1  0  0  0  0
  5  4  2  0  0  0  0
  6  1  2  0  0  0  0
  6  5  1  0  0  0  0
  7  1  1  0  0  0  0
  9 12  1  6  0  0  0
  9 10  1  0  0  0  0
 10 13  1  0  0  0  0
 10 14  1  0  0  0  0
 11 15  1  6  0  0  0
 11  9  1  0  0  0  0
 11 10  1  0  0  0  0
 16 11  1  0  0  0  0
 16 17  1  0  0  0  0
 17 26  1  0  0  0  0
 18 17  2  0  0  0  0
 18 27  1  0  0  0  0
 19 18  1  0  0  0  0
 20 19  1  0  0  0  0
 21 20  2  0  0  0  0
 22 23  2  0  0  0  0
 22 21  1  0  0  0  0
 23 24  1  0  0  0  0
 24 25  1  0  0  0  0
 24 19  2  0  0  0  0
 25 16  2  0  0  0  0
 28 21  1  0  0  0  0
 29 22  1  0  0  0  0
 30 23  1  0  0  0  0
 31 25  1  0  0  0  0
 32 35  1  6  0  0  0
 32 33  1  0  0  0  0
 32  5  1  0  0  0  0
 33 37  1  0  0  0  0
 33 36  1  0  0  0  0
 34 38  1  6  0  0  0
 34 32  1  0  0  0  0
 34 33  1  0  0  0  0
 39 40  1  0  0  0  0
 40 34  1  0  0  0  0
 40 41  2  0  0  0  0
 41 42  1  0  0  0  0
 43 41  1  0  0  0  0
 44 43  2  0  0  0  0
 45 39  2  0  0  0  0
 45 44  1  0  0  0  0
 46 47  1  0  0  0  0
 46 39  1  0  0  0  0
 48 45  1  0  0  0  0
 49 48  1  0  0  0  0
M  END
>  <minimizedAffinity>
-6.57858515

$$$$

 OpenBabel03252503253D

 49 54  0  0  1  0  0  0  0  0999 V2000
   37.9370   27.8290   38.4520 C   0  0  0  0  0  0  0  0  0  0  0  0
   36.5040   27.6920   38.4330 C   0  0  0  0  0  0  0  0  0  0  0  0
   35.9580   26.5450   38.9450 C   0  0  0  0  0  0  0  0  0  0  0  0
   36.8060   25.6030   39.4420 N   0  0  0  0  0  0  0  0  0  0  0  0
   38.1570   25.7480   39.4520 C   0  0  0  0  0  0  0  0  0  0  0  0
   38.7190   26.8620   38.9570 N   0  0  0  0  0  0  0  0  0  0  0  0
   38.3630   28.7350   38.0470 H   0  0  0  0  0  0  0  0  0  0  0  0
   34.8920   26.4100   38.9480 H   0  0  0  0  0  0  0  0  0  0  0  0
   35.6910   28.8010   37.8500 C   0  0  1  0  0  0  0  0  0  0  0  0
   36.1760   29.5460   36.6950 C   0  0  0  0  0  0  0  0  0  0  0  0
   35.1000   28.5500   36.4710 C   0  0  2  0  0  0  0  0  0  0  0  0
   34.9930   29.2350   38.5890 H   0  0  0  0  0  0  0  0  0  0  0  0
   37.1790   29.2160   36.2920 H   0  0  0  0  0  0  0  0  0  0  0  0
   36.0810   30.6180   36.7170 H   0  0  0  0  0  0  0  0  0  0  0  0
   35.2740   27.5510   36.0330 H   0  0  0  0  0  0  0  0  0  0  0  0
   33.7180   29.0740   36.3000 C   0  0  0  0  0  0  0  0  0  0  0  0
   33.1680   29.4290   35.0870 C   0  0  0  0  0  0  0  0  0  0  0  0
   31.8750   29.9150   35.0060 C   0  0  0  0  0  0  0  0  0  0  0  0
   31.1060   30.0550   36.1420 C   0  0  0  0  0  0  0  0  0  0  0  0
   29.8370   30.5250   36.0930 N   0  0  0  0  0  0  0  0  0  0  0  0
   29.1060   30.6460   37.2280 C   0  0  0  0  0  0  0  0  0  0  0  0
   29.5890   30.3070   38.5140 C   0  0  0  0  0  0  0  0  0  0  0  0
   30.8760   29.8300   38.5770 C   0  0  0  0  0  0  0  0  0  0  0  0
   31.6200   29.7080   37.3980 C   0  0  0  0  0  0  0  0  0  0  0  0
   32.9130   29.2290   37.4290 C   0  0  0  0  0  0  0  0  0  0  0  0
   33.7790   29.3170   34.2000 H   0  0  0  0  0  0  0  0  0  0  0  0
   31.4590   30.1910   34.0380 H   0  0  0  0  0  0  0  0  0  0  0  0
   28.1140   31.0240   37.0900 H   0  0  0  0  0  0  0  0  0  0  0  0
   28.9380   30.4360   39.3680 H   0  0  0  0  0  0  0  0  0  0  0  0
   31.2950   29.5560   39.5320 H   0  0  0  0  0  0  0  0  0  0  0  0
   33.2390   28.9890   38.4310 H   0  0  0  0  0  0  0  0  0  0  0  0
   38.9750   24.6480   40.0330 C   0  0  2  0  0  0  0  0  0  0  0  0
   38.4510   23.7670   41.0620 C   0  0  0  0  0  0  0  0  0  0  0  0
   39.3440   24.8710   41.5320 C   0  0  2  0  0  0  0  0  0  0  0  0
   39.8830   24.4150   39.4100 H   0  0  0  0  0  0  0  0  0  0  0  0
   37.3720   23.7540   41.2070 H   0  0  0  0  0  0  0  0  0  0  0  0
   38.8840   22.7220   41.0570 H   0  0  0  0  0  0  0  0  0  0  0  0
   40.3610   24.5610   41.8280 H   0  0  0  0  0  0  0  0  0  0  0  0
   37.4960   26.2880   42.7030 C   0  0  0  0  0  0  0  0  0  0  0  0
   38.7500   26.0380   42.1910 C   0  0  0  0  0  0  0  0  0  0  0  0
   39.6930   27.0690   42.2830 C   0  0  0  0  0  0  0  0  0  0  0  0
   40.7380   27.0560   41.9330 H   0  0  0  0  0  0  0  0  0  0  0  0
   39.3680   28.2980   42.8730 C   0  0  0  0  0  3  0  0  0  0  0  0
   38.1080   28.5230   43.3770 C   0  0  0  0  0  3  0  0  0  0  0  0
   37.2000   27.5050   43.2780 C   0  0  0  0  0  0  0  0  0  0  0  0
   36.6460   25.2030   42.5590 O   0  0  0  0  0  0  0  0  0  0  0  0
   36.5220   24.4890   43.2640 H   0  0  0  0  0  0  0  0  0  0  0  0
   35.9130   27.6340   43.7530 O   0  0  0  0  0  0  0  0  0  0  0  0
   35.4720   26.8580   44.2530 H   0  0  0  0  0  0  0  0  0  0  0  0
  1  6  1  0  0  0  0
  2  1  2  0  0  0  0
  2  3  1  0  0  0  0
  3  8  1  0  0  0  0
  3  4  2  0  0  0  0
  4  5  1  0  0  0  0
  5 32  1  0  0  0  0
  6  5  2  0  0  0  0
  7  1  1  0  0  0  0
  9  2  1  0  0  0  0
  9 12  1  1  0  0  0
 10 14  1  0  0  0  0
 10  9  1  0  0  0  0
 11 15  1  6  0  0  0
 11 10  1  0  0  0  0
 11  9  1  0  0  0  0
 13 10  1  0  0  0  0
 16 11  1  0  0  0  0
 16 25  1  0  0  0  0
 17 16  2  0  0  0  0
 18 17  1  0  0  0  0
 18 19  2  0  0  0  0
 19 24  1  0  0  0  0
 20 19  1  0  0  0  0
 20 21  2  0  0  0  0
 21 22  1  0  0  0  0
 22 23  2  0  0  0  0
 22 29  1  0  0  0  0
 23 30  1  0  0  0  0
 24 25  2  0  0  0  0
 24 23  1  0  0  0  0
 25 31  1  0  0  0  0
 26 17  1  0  0  0  0
 27 18  1  0  0  0  0
 28 21  1  0  0  0  0
 32 35  1  6  0  0  0
 32 33  1  0  0  0  0
 32 34  1  0  0  0  0
 33 36  1  0  0  0  0
 33 34  1  0  0  0  0
 34 38  1  1  0  0  0
 34 40  1  0  0  0  0
 37 33  1  0  0  0  0
 39 45  1  0  0  0  0
 40 41  1  0  0  0  0
 40 39  2  0  0  0  0
 41 43  2  0  0  0  0
 42 41  1  0  0  0  0
 43 44  1  0  0  0  0
 45 44  2  0  0  0  0
 45 48  1  0  0  0  0
 46 39  1  0  0  0  0
 46 47  1  0  0  0  0
 48 49  1  0  0  0  0
M  END
>  <minimizedAffinity>
-6.56337929

$$$$

 OpenBabel03252503253D

 49 54  0  0  1  0  0  0  0  0999 V2000
   37.9670   28.9110   39.6230 C   0  0  0  0  0  0  0  0  0  0  0  0
   36.5330   29.0340   39.6230 C   0  0  0  0  0  0  0  0  0  0  0  0
   35.8710   28.8800   40.8130 C   0  0  0  0  0  0  0  0  0  0  0  0
   36.6120   28.6210   41.9250 N   0  0  0  0  0  0  0  0  0  0  0  0
   37.9660   28.5070   41.9070 C   0  0  0  0  0  0  0  0  0  0  0  0
   38.6410   28.6530   40.7560 N   0  0  0  0  0  0  0  0  0  0  0  0
   38.4840   29.0330   38.6830 H   0  0  0  0  0  0  0  0  0  0  0  0
   34.8010   28.9660   40.8500 H   0  0  0  0  0  0  0  0  0  0  0  0
   35.8420   29.3130   38.3280 C   0  0  1  0  0  0  0  0  0  0  0  0
   36.0980   28.4800   37.1600 C   0  0  0  0  0  0  0  0  0  0  0  0
   34.8150   28.2860   37.8780 C   0  0  2  0  0  0  0  0  0  0  0  0
   35.5200   30.3680   38.2510 H   0  0  0  0  0  0  0  0  0  0  0  0
   36.8290   27.6340   37.3180 H   0  0  0  0  0  0  0  0  0  0  0  0
   36.2510   28.9770   36.2170 H   0  0  0  0  0  0  0  0  0  0  0  0
   34.6210   27.4450   38.5670 H   0  0  0  0  0  0  0  0  0  0  0  0
   33.5970   28.8790   37.2610 C   0  0  0  0  0  0  0  0  0  0  0  0
   33.4380   29.0900   35.9080 C   0  0  0  0  0  0  0  0  0  0  0  0
   32.2770   29.6520   35.4060 C   0  0  0  0  0  0  0  0  0  0  0  0
   31.2510   30.0150   36.2530 C   0  0  0  0  0  0  0  0  0  0  0  0
   30.1030   30.5640   35.7910 N   0  0  0  0  0  0  0  0  0  0  0  0
   29.1120   30.9060   36.6500 C   0  0  0  0  0  0  0  0  0  0  0  0
   29.1890   30.7270   38.0510 C   0  0  0  0  0  0  0  0  0  0  0  0
   30.3500   30.1720   38.5330 C   0  0  0  0  0  0  0  0  0  0  0  0
   31.3660   29.8220   37.6360 C   0  0  0  0  0  0  0  0  0  0  0  0
   32.5400   29.2590   38.0890 C   0  0  0  0  0  0  0  0  0  0  0  0
   34.2490   28.8030   35.2500 H   0  0  0  0  0  0  0  0  0  0  0  0
   32.1710   29.8100   34.3350 H   0  0  0  0  0  0  0  0  0  0  0  0
   28.2420   31.3310   36.1920 H   0  0  0  0  0  0  0  0  0  0  0  0
   28.3510   31.0290   38.6640 H   0  0  0  0  0  0  0  0  0  0  0  0
   30.4630   30.0130   39.5930 H   0  0  0  0  0  0  0  0  0  0  0  0
   32.5560   29.1470   39.1640 H   0  0  0  0  0  0  0  0  0  0  0  0
   38.6620   28.2300   43.1940 C   0  0  2  0  0  0  0  0  0  0  0  0
   40.0290   27.7400   43.2330 C   0  0  0  0  0  0  0  0  0  0  0  0
   38.9570   26.7160   43.4290 C   0  0  2  0  0  0  0  0  0  0  0  0
   38.1360   28.6930   44.0740 H   0  0  0  0  0  0  0  0  0  0  0  0
   40.6210   27.8360   42.3240 H   0  0  0  0  0  0  0  0  0  0  0  0
   40.6170   28.0500   44.1490 H   0  0  0  0  0  0  0  0  0  0  0  0
   38.8320   26.3560   44.4650 H   0  0  0  0  0  0  0  0  0  0  0  0
   37.4590   25.2210   41.9080 C   0  0  0  0  0  0  0  0  0  0  0  0
   38.6340   25.8030   42.3280 C   0  0  0  0  0  0  0  0  0  0  0  0
   39.7910   25.4990   41.6000 C   0  0  0  0  0  0  0  0  0  0  0  0
   40.8140   25.8650   41.7830 H   0  0  0  0  0  0  0  0  0  0  0  0
   39.7470   24.6390   40.4950 C   0  0  0  0  0  3  0  0  0  0  0  0
   38.5610   24.0690   40.0960 C   0  0  0  0  0  3  0  0  0  0  0  0
   37.4400   24.3780   40.8180 C   0  0  0  0  0  0  0  0  0  0  0  0
   36.3800   25.5900   42.6960 O   0  0  0  0  0  0  0  0  0  0  0  0
   35.7770   26.3750   42.4910 H   0  0  0  0  0  0  0  0  0  0  0  0
   36.2060   23.8580   40.4960 O   0  0  0  0  0  0  0  0  0  0  0  0
   35.3740   24.4530   40.5320 H   0  0  0  0  0  0  0  0  0  0  0  0
  1  6  1  0  0  0  0
  2  1  2  0  0  0  0
  2  3  1  0  0  0  0
  3  8  1  0  0  0  0
  3  4  2  0  0  0  0
  5  4  1  0  0  0  0
  5 32  1  0  0  0  0
  6  5  2  0  0  0  0
  7  1  1  0  0  0  0
  9 12  1  6  0  0  0
  9  2  1  0  0  0  0
 10 13  1  0  0  0  0
 10 11  1  0  0  0  0
 10  9  1  0  0  0  0
 11  9  1  0  0  0  0
 11 15  1  1  0  0  0
 14 10  1  0  0  0  0
 16 11  1  0  0  0  0
 16 25  1  0  0  0  0
 17 16  2  0  0  0  0
 18 17  1  0  0  0  0
 18 19  2  0  0  0  0
 19 24  1  0  0  0  0
 20 19  1  0  0  0  0
 20 21  2  0  0  0  0
 21 22  1  0  0  0  0
 22 23  2  0  0  0  0
 22 29  1  0  0  0  0
 23 30  1  0  0  0  0
 24 25  2  0  0  0  0
 24 23  1  0  0  0  0
 25 31  1  0  0  0  0
 26 17  1  0  0  0  0
 27 18  1  0  0  0  0
 28 21  1  0  0  0  0
 32 33  1  0  0  0  0
 32 34  1  0  0  0  0
 32 35  1  1  0  0  0
 33 34  1  0  0  0  0
 33 37  1  0  0  0  0
 34 38  1  1  0  0  0
 36 33  1  0  0  0  0
 39 40  1  0  0  0  0
 39 46  1  0  0  0  0
 40 34  1  0  0  0  0
 41 42  1  0  0  0  0
 41 40  2  0  0  0  0
 43 41  1  0  0  0  0
 44 43  2  0  0  0  0
 44 45  1  0  0  0  0
 45 39  2  0  0  0  0
 47 46  1  0  0  0  0
 48 49  1  0  0  0  0
 48 45  1  0  0  0  0
M  END
>  <minimizedAffinity>
-6.52553892

$$$$

 OpenBabel03252503253D

 49 54  0  0  1  0  0  0  0  0999 V2000
   39.8080   31.3900   39.3550 C   0  0  0  0  0  0  0  0  0  0  0  0
   38.9620   31.8920   40.4060 C   0  0  0  0  0  0  0  0  0  0  0  0
   39.0470   33.2220   40.7250 C   0  0  0  0  0  0  0  0  0  0  0  0
   39.9280   33.9890   40.0260 N   0  0  0  0  0  0  0  0  0  0  0  0
   40.7200   33.4990   39.0370 C   0  0  0  0  0  0  0  0  0  0  0  0
   40.6580   32.2000   38.7030 N   0  0  0  0  0  0  0  0  0  0  0  0
   39.7370   30.3410   39.1070 H   0  0  0  0  0  0  0  0  0  0  0  0
   38.4290   33.6300   41.5040 H   0  0  0  0  0  0  0  0  0  0  0  0
   38.0440   30.9370   41.0980 C   0  0  1  0  0  0  0  0  0  0  0  0
   36.6020   31.0310   40.9100 C   0  0  0  0  0  0  0  0  0  0  0  0
   37.3190   29.9380   40.2110 C   0  0  2  0  0  0  0  0  0  0  0  0
   38.5010   30.5130   42.0110 H   0  0  0  0  0  0  0  0  0  0  0  0
   36.2560   31.8520   40.2160 H   0  0  0  0  0  0  0  0  0  0  0  0
   35.9790   30.9500   41.7840 H   0  0  0  0  0  0  0  0  0  0  0  0
   37.5670   29.9600   39.1350 H   0  0  0  0  0  0  0  0  0  0  0  0
   37.2120   28.5740   40.7970 C   0  0  0  0  0  0  0  0  0  0  0  0
   36.7630   28.3120   42.0730 C   0  0  0  0  0  0  0  0  0  0  0  0
   36.6960   27.0160   42.5530 C   0  0  0  0  0  0  0  0  0  0  0  0
   37.0790   25.9540   41.7600 C   0  0  0  0  0  0  0  0  0  0  0  0
   37.0200   24.6750   42.2010 N   0  0  0  0  0  0  0  0  0  0  0  0
   37.4000   23.6540   41.3950 C   0  0  0  0  0  0  0  0  0  0  0  0
   37.8740   23.8300   40.0730 C   0  0  0  0  0  0  0  0  0  0  0  0
   37.9390   25.1230   39.6150 C   0  0  0  0  0  0  0  0  0  0  0  0
   37.5420   26.1690   40.4560 C   0  0  0  0  0  0  0  0  0  0  0  0
   37.5920   27.4770   40.0220 C   0  0  0  0  0  0  0  0  0  0  0  0
   36.4650   29.1510   42.6890 H   0  0  0  0  0  0  0  0  0  0  0  0
   36.3380   26.8300   43.5640 H   0  0  0  0  0  0  0  0  0  0  0  0
   37.3180   22.6790   41.8300 H   0  0  0  0  0  0  0  0  0  0  0  0
   38.1580   22.9580   39.4990 H   0  0  0  0  0  0  0  0  0  0  0  0
   38.2930   25.3150   38.6140 H   0  0  0  0  0  0  0  0  0  0  0  0
   37.9650   27.5620   39.0110 H   0  0  0  0  0  0  0  0  0  0  0  0
   41.6370   34.4440   38.3410 C   0  0  2  0  0  0  0  0  0  0  0  0
   42.7750   33.9760   37.5690 C   0  0  0  0  0  0  0  0  0  0  0  0
   43.0750   34.4740   38.9460 C   0  0  2  0  0  0  0  0  0  0  0  0
   41.2010   35.4770   38.2520 H   0  0  0  0  0  0  0  0  0  0  0  0
   42.7880   32.9240   37.2860 H   0  0  0  0  0  0  0  0  0  0  0  0
   43.0670   34.6440   36.7050 H   0  0  0  0  0  0  0  0  0  0  0  0
   43.5560   35.4670   38.9940 H   0  0  0  0  0  0  0  0  0  0  0  0
   43.0820   33.4810   41.3560 C   0  0  0  0  0  0  0  0  0  0  0  0
   43.3640   33.5060   40.0080 C   0  0  0  0  0  0  0  0  0  0  0  0
   44.0720   32.4170   39.4850 C   0  0  0  0  0  0  0  0  0  0  0  0
   44.3870   32.2610   38.4410 H   0  0  0  0  0  0  0  0  0  0  0  0
   44.4730   31.3520   40.3030 C   0  0  0  0  0  3  0  0  0  0  0  0
   44.1790   31.3510   41.6470 C   0  0  0  0  0  3  0  0  0  0  0  0
   43.4860   32.4230   42.1410 C   0  0  0  0  0  0  0  0  0  0  0  0
   42.3800   34.6040   41.7650 O   0  0  0  0  0  0  0  0  0  0  0  0
   41.3710   34.6510   41.8050 H   0  0  0  0  0  0  0  0  0  0  0  0
   43.1450   32.5120   43.4720 O   0  0  0  0  0  0  0  0  0  0  0  0
   42.2190   32.8560   43.7420 H   0  0  0  0  0  0  0  0  0  0  0  0
  1  2  1  0  0  0  0
  2  3  2  0  0  0  0
  2  9  1  0  0  0  0
  3  8  1  0  0  0  0
  4  3  1  0  0  0  0
  5  4  2  0  0  0  0
  6  5  1  0  0  0  0
  6  1  2  0  0  0  0
  7  1  1  0  0  0  0
  9 12  1  1  0  0  0
 10  9  1  0  0  0  0
 10 14  1  0  0  0  0
 11 15  1  6  0  0  0
 11 16  1  0  0  0  0
 11 10  1  0  0  0  0
 11  9  1  0  0  0  0
 13 10  1  0  0  0  0
 16 17  1  0  0  0  0
 17 18  2  0  0  0  0
 17 26  1  0  0  0  0
 18 27  1  0  0  0  0
 19 20  1  0  0  0  0
 19 18  1  0  0  0  0
 21 28  1  0  0  0  0
 21 20  2  0  0  0  0
 22 21  1  0  0  0  0
 23 22  2  0  0  0  0
 23 24  1  0  0  0  0
 24 19  2  0  0  0  0
 25 24  1  0  0  0  0
 25 16  2  0  0  0  0
 29 22  1  0  0  0  0
 30 23  1  0  0  0  0
 31 25  1  0  0  0  0
 32 35  1  6  0  0  0
 32 34  1  0  0  0  0
 32  5  1  0  0  0  0
 33 32  1  0  0  0  0
 33 34  1  0  0  0  0
 34 38  1  1  0  0  0
 34 40  1  0  0  0  0
 36 33  1  0  0  0  0
 37 33  1  0  0  0  0
 39 46  1  0  0  0  0
 39 45  1  0  0  0  0
 40 39  2  0  0  0  0
 41 40  1  0  0  0  0
 41 43  2  0  0  0  0
 42 41  1  0  0  0  0
 43 44  1  0  0  0  0
 44 45  2  0  0  0  0
 45 48  1  0  0  0  0
 46 47  1  0  0  0  0
 48 49  1  0  0  0  0
M  END
>  <minimizedAffinity>
-6.46563244

$$$$
