
     RDKit          3D

 25 26  0  0  0  0  0  0  0  0999 V2000
   45.4370   35.0671   43.9978 C   0  0  0  0  0  0  0  0  0  0  0  0
   46.4924   34.2944   43.5202 C   0  0  0  0  0  0  0  0  0  0  0  0
   47.0164   33.2893   44.3366 C   0  0  0  0  0  0  0  0  0  0  0  0
   46.4582   33.1291   45.5540 N   0  0  0  0  0  0  0  0  0  0  0  0
   45.4353   33.8933   45.9911 C   0  0  0  0  0  0  0  0  0  0  0  0
   44.9250   34.8663   45.2059 N   0  0  0  0  0  0  0  0  0  0  0  0
   44.9007   36.1335   43.0984 C   0  0  0  0  0  0  0  0  0  0  0  0
   46.8708   34.4895   42.5481 H   0  0  0  0  0  0  0  0  0  0  0  0
   45.0222   33.7195   46.9857 H   0  0  0  0  0  0  0  0  0  0  0  0
   45.3820   37.0872   43.4597 H   0  0  0  0  0  0  0  0  0  0  0  0
   45.1991   35.9550   42.0458 H   0  0  0  0  0  0  0  0  0  0  0  0
   43.8142   36.2676   43.1819 H   0  0  0  0  0  0  0  0  0  0  0  0
   47.3648   32.6944   41.5884 O   0  0  0  0  0  0  0  0  0  0  0  0
   48.2517   32.1849   42.5558 C   0  0  0  0  0  0  0  0  0  0  0  0
   48.1054   32.4587   43.8999 C   0  0  0  0  0  0  0  0  0  0  0  0
   49.0592   31.8818   44.7108 C   0  0  0  0  0  0  0  0  0  0  0  0
   48.9953   32.0615   45.7743 H   0  0  0  0  0  0  0  0  0  0  0  0
   50.0902   31.0864   44.2263 C   0  0  0  0  0  0  0  0  0  0  0  0
   50.2087   30.8317   42.8773 C   0  0  0  0  0  0  0  0  0  0  0  0
   49.2654   31.3986   42.0449 C   0  0  0  0  0  0  0  0  0  0  0  0
   49.3873   31.1384   40.6715 O   0  0  0  0  0  0  0  0  0  0  0  0
   47.4421   33.7066   41.4505 H   0  0  0  0  0  0  0  0  0  0  0  0
   50.8119   30.6590   44.9115 H   0  0  0  0  0  0  0  0  0  0  0  0
   50.9812   30.2301   42.4678 H   0  0  0  0  0  0  0  0  0  0  0  0
   49.9058   31.7827   40.0779 H   0  0  0  0  0  0  0  0  0  0  0  0
  1  6  2  0
  2  1  1  0
  2  3  2  0
  3  4  1  0
  4  5  2  0
  6  5  1  0
  7  1  1  0
  2  8  1  0
  5  9  1  0
  7 10  1  0
  7 11  1  0
  7 12  1  0
 13 14  1  0
 14 15  2  0
 15 16  1  0
 16 17  1  0
 16 18  2  0
 18 19  1  0
 19 20  2  0
 20 21  1  0
 20 14  1  0
 13 22  1  0
 18 23  1  0
 19 24  1  0
 21 25  1  0
  3 15  1  0
M  ISO  6   8  14   9  14  10   8  11   8  12   8  17  16
M  END
>  <DihAtoms>  (1) 
1,2,14,13

>  <DihDeg>  (1) 
-179.9993164007856

$$$$
