
 OpenBabel03252508173D

 49 53  0  0  1  0  0  0  0  0999 V2000
   46.8470   31.5990   48.2560 C   0  0  1  0  0  0  0  0  0  0  0  0
   46.3600   30.5510   49.1960 C   0  0  0  0  0  0  0  0  0  0  0  0
   47.6270   31.2310   49.4510 C   0  0  1  0  0  0  0  0  0  0  0  0
   46.1010   32.4470   48.2370 H   0  0  0  0  0  0  0  0  0  0  0  0
   45.5120   30.7210   49.8910 H   0  0  0  0  0  0  0  0  0  0  0  0
   46.3760   29.4840   48.8610 H   0  0  0  0  0  0  0  0  0  0  0  0
   47.6260   31.9750   50.2750 H   0  0  0  0  0  0  0  0  0  0  0  0
   48.9490   30.5620   49.2510 C   0  0  2  0  0  0  0  0  0  0  0  0
   49.6410   30.1410   50.5730 C   0  0  0  0  0  0  0  0  0  0  0  0
   50.1860   31.2670   49.7990 C   0  0  1  0  0  0  0  0  0  0  0  0
   49.1260   29.8080   48.4760 H   0  0  0  0  0  0  0  0  0  0  0  0
   49.1050   30.3970   51.5300 H   0  0  0  0  0  0  0  0  0  0  0  0
   50.1170   29.1660   50.6490 H   0  0  0  0  0  0  0  0  0  0  0  0
   49.9960   32.2890   50.1880 H   0  0  0  0  0  0  0  0  0  0  0  0
   52.4660   32.0360   49.0470 C   0  0  0  0  0  0  0  0  0  0  0  0
   51.4700   31.0780   49.0460 C   0  0  0  0  0  0  0  0  0  0  0  0
   51.6850   29.9210   48.3250 C   0  0  0  0  0  0  0  0  0  0  0  0
   50.9660   29.1250   48.2690 H   0  0  0  0  0  0  0  0  0  0  0  0
   52.8550   29.6870   47.6060 C   0  0  0  0  0  3  0  0  0  0  0  0
   53.8410   30.6640   47.6220 C   0  0  0  0  0  3  0  0  0  0  0  0
   53.6420   31.8430   48.3470 C   0  0  0  0  0  0  0  0  0  0  0  0
   52.2380   33.2080   49.7830 O   0  0  0  0  0  0  0  0  0  0  0  0
   52.2800   33.1050   50.8050 H   0  0  0  0  0  0  0  0  0  0  0  0
   54.6470   32.8230   48.3540 O   0  0  0  0  0  0  0  0  0  0  0  0
   55.4040   32.6240   49.0260 H   0  0  0  0  0  0  0  0  0  0  0  0
   47.2460   31.1050   46.9160 C   0  0  0  0  0  0  0  0  0  0  0  0
   46.5240   30.2720   46.6620 H   0  0  0  0  0  0  0  0  0  0  0  0
   48.2270   30.7020   46.7710 H   0  0  0  0  0  0  0  0  0  0  0  0
   46.1400   33.0520   46.1760 C   0  0  0  0  0  3  0  0  0  0  0  0
   46.9540   32.1380   45.8520 C   0  0  0  0  0  3  0  0  0  0  0  0
   44.5440   35.8710   44.4180 C   0  0  0  0  0  0  0  0  0  0  0  0
   45.1750   35.8610   43.1780 C   0  0  0  0  0  0  0  0  0  0  0  0
   46.1110   34.9030   42.9870 C   0  0  0  0  0  0  0  0  0  0  0  0
   46.3970   34.0110   43.9780 N   0  0  0  0  0  0  0  0  0  0  0  0
   45.7710   34.0440   45.1670 C   0  0  0  0  0  0  0  0  0  0  0  0
   44.8530   34.9820   45.3560 N   0  0  0  0  0  0  0  0  0  0  0  0
   43.7880   36.6380   44.5840 H   0  0  0  0  0  0  0  0  0  0  0  0
   44.9420   36.5710   42.4030 H   0  0  0  0  0  0  0  0  0  0  0  0
   46.8530   34.7650   41.7390 C   0  0  0  0  0  0  0  0  0  0  0  0
   48.0570   35.3500   41.4740 C   0  0  0  0  0  0  0  0  0  0  0  0
   48.7420   35.2070   40.2830 C   0  0  0  0  0  0  0  0  0  0  0  0
   48.2090   34.4300   39.2750 C   0  0  0  0  0  0  0  0  0  0  0  0
   47.0030   33.8150   39.4780 C   0  0  0  0  0  0  0  0  0  0  0  0
   46.3640   33.9960   40.6890 C   0  0  0  0  0  0  0  0  0  0  0  0
   48.5100   35.9730   42.2490 H   0  0  0  0  0  0  0  0  0  0  0  0
   49.6930   35.6900   40.1220 H   0  0  0  0  0  0  0  0  0  0  0  0
   48.6800   34.2670   38.3140 H   0  0  0  0  0  0  0  0  0  0  0  0
   46.5630   33.2050   38.7130 H   0  0  0  0  0  0  0  0  0  0  0  0
   45.3990   33.4790   40.7990 H   0  0  0  0  0  0  0  0  0  0  0  0
  1  4  1  1  0  0  0
  1  2  1  0  0  0  0
  1  3  1  0  0  0  0
  2  3  1  0  0  0  0
  2  5  1  0  0  0  0
  3  7  1  1  0  0  0
  6  2  1  0  0  0  0
  8 11  1  6  0  0  0
  8  3  1  0  0  0  0
  8 10  1  0  0  0  0
  8  9  1  0  0  0  0
  9 13  1  0  0  0  0
  9 12  1  0  0  0  0
 10 14  1  1  0  0  0
 10  9  1  0  0  0  0
 15 22  1  0  0  0  0
 16 15  1  0  0  0  0
 16 10  1  0  0  0  0
 17 16  2  0  0  0  0
 18 17  1  0  0  0  0
 19 20  2  0  0  0  0
 19 17  1  0  0  0  0
 20 21  1  0  0  0  0
 21 24  1  0  0  0  0
 21 15  2  0  0  0  0
 22 23  1  0  0  0  0
 24 25  1  0  0  0  0
 26  1  1  0  0  0  0
 27 26  1  0  0  0  0
 28 26  1  0  0  0  0
 30 29  2  0  0  0  0
 30 26  1  0  0  0  0
 31 37  1  0  0  0  0
 31 36  1  0  0  0  0
 32 31  2  0  0  0  0
 33 32  1  0  0  0  0
 33 34  2  0  0  0  0
 34 35  1  0  0  0  0
 35 36  2  0  0  0  0
 35 29  1  0  0  0  0
 38 32  1  0  0  0  0
 39 33  1  0  0  0  0
 40 39  1  0  0  0  0
 40 45  1  0  0  0  0
 41 40  2  0  0  0  0
 42 43  2  0  0  0  0
 42 41  1  0  0  0  0
 43 44  1  0  0  0  0
 44 49  1  0  0  0  0
 44 39  2  0  0  0  0
 46 41  1  0  0  0  0
 47 42  1  0  0  0  0
 48 43  1  0  0  0  0
M  END
>  <minimizedAffinity>
-7.12051487

>  <minimizedRMSD>
1.04086339

$$$$
