
     RDKit          3D

 35 37  0  0  0  0  0  0  0  0999 V2000
   46.9351   32.4815   45.7040 C   0  0  0  0  0  0  0  0  0  0  0  0
   44.5733   35.3394   45.3431 C   0  0  0  0  0  0  0  0  0  0  0  0
   44.8420   35.7645   44.0347 C   0  0  0  0  0  0  0  0  0  0  0  0
   45.8108   35.0755   43.3136 C   0  0  0  0  0  0  0  0  0  0  0  0
   46.4584   34.0257   43.8914 N   0  0  0  0  0  0  0  0  0  0  0  0
   46.1706   33.6367   45.1733 C   0  0  0  0  0  0  0  0  0  0  0  0
   45.2318   34.3065   45.8684 N   0  0  0  0  0  0  0  0  0  0  0  0
   45.4400   29.7604   45.1252 Br  0  0  0  0  0  0  0  0  0  0  0  0
   45.5922   30.6500   46.8357 C   0  0  0  0  0  0  0  0  0  0  0  0
   46.2908   31.8256   46.8474 C   0  0  0  0  0  0  0  0  0  0  0  0
   46.3698   32.4230   48.1007 C   0  0  0  0  0  0  0  0  0  0  0  0
   45.8085   31.9047   49.2402 C   0  0  0  0  0  0  0  0  0  0  0  0
   45.1273   30.7274   49.1451 C   0  0  0  0  0  0  0  0  0  0  0  0
   44.9995   30.0670   47.9423 C   0  0  0  0  0  0  0  0  0  0  0  0
   47.9445   32.8262   46.0080 H   0  0  0  0  0  0  0  0  0  0  0  0
   47.0895   31.7173   44.9045 H   0  0  0  0  0  0  0  0  0  0  0  0
   43.8124   35.9052   45.8649 H   0  0  0  0  0  0  0  0  0  0  0  0
   44.3315   36.5996   43.5655 H   0  0  0  0  0  0  0  0  0  0  0  0
   46.0910   35.3246   42.2986 H   0  0  0  0  0  0  0  0  0  0  0  0
   46.9071   33.3691   48.2234 H   0  0  0  0  0  0  0  0  0  0  0  0
   45.8930   32.4021   50.1990 H   0  0  0  0  0  0  0  0  0  0  0  0
   44.6607   30.2582   49.9885 H   0  0  0  0  0  0  0  0  0  0  0  0
   44.4359   28.7219   50.2672 O   0  0  0  0  0  0  0  0  0  0  0  0
   44.0353   28.1954   49.0284 C   0  0  0  0  0  0  0  0  0  0  0  0
   44.2692   28.7920   47.8053 C   0  0  0  0  0  0  0  0  0  0  0  0
   43.8296   28.1843   46.6467 C   0  0  0  0  0  0  0  0  0  0  0  0
   44.0649   28.7347   45.7518 H   0  0  0  0  0  0  0  0  0  0  0  0
   43.1608   26.9826   46.7524 C   0  0  0  0  0  0  0  0  0  0  0  0
   42.9249   26.3829   47.9720 C   0  0  0  0  0  0  0  0  0  0  0  0
   43.3749   27.0077   49.1389 C   0  0  0  0  0  0  0  0  0  0  0  0
   43.0808   26.3129   50.3053 O   0  0  0  0  0  0  0  0  0  0  0  0
   45.1434   29.4528   50.3176 H   0  0  0  0  0  0  0  0  0  0  0  0
   42.8376   26.5518   45.7937 H   0  0  0  0  0  0  0  0  0  0  0  0
   42.3921   25.4490   47.8988 H   0  0  0  0  0  0  0  0  0  0  0  0
   43.8371   25.7110   50.6637 H   0  0  0  0  0  0  0  0  0  0  0  0
  1 10  1  0
  2  7  2  0
  3  2  1  0
  4  5  1  0
  4  3  2  0
  5  6  2  0
  6  1  1  0
  6  7  1  0
  8  9  1  0
  9 10  2  0
  9 14  1  0
 10 11  1  0
 11 12  2  0
 13 12  1  0
 14 13  2  0
  1 15  1  0
  1 16  1  0
  2 17  1  0
  3 18  1  0
  4 19  1  0
 11 20  1  0
 12 21  1  0
 13 22  1  0
 23 24  1  0
 24 25  2  0
 25 26  1  0
 26 27  1  0
 26 28  2  0
 28 29  1  0
 29 30  2  0
 30 31  1  0
 30 24  1  0
 23 32  1  0
 28 33  1  0
 29 34  1  0
 31 35  1  0
 14 25  1  0
M  ISO  8  15   8  16   8  17  14  18  14  19  14  20  14  21  14  22  14
M  ISO  1  27  16
M  END
>  <DihAtoms>  (1) 
8,13,24,23

>  <DihDeg>  (1) 
89.99967990486185

$$$$
