
 OpenBabel03252507493D

 47 49  0  0  0  0  0  0  0  0999 V2000
   46.7470   34.8720   42.3740 C   0  0  0  0  0  0  0  0  0  0  0  0
   46.9650   33.9300   42.9290 H   0  0  0  0  0  0  0  0  0  0  0  0
   46.8670   35.7080   43.0790 H   0  0  0  0  0  0  0  0  0  0  0  0
   45.3240   34.7710   41.9460 C   0  0  0  0  0  0  0  0  0  0  0  0
   44.4010   35.7650   42.3780 C   0  0  0  0  0  0  0  0  0  0  0  0
   42.8280   35.2270   41.6180 S   0  0  0  0  0  0  0  0  0  0  0  0
   43.7010   33.7180   40.8280 C   0  0  0  0  0  0  0  0  0  0  0  0
   44.7700   33.8650   41.1970 N   0  0  0  0  0  0  0  0  0  0  0  0
   44.5800   36.6280   43.0020 H   0  0  0  0  0  0  0  0  0  0  0  0
   43.0330   32.7930   40.0380 O   0  0  0  0  0  0  0  0  0  0  0  0
   42.0110   32.1160   37.6970 O   0  0  0  0  0  0  0  0  0  0  0  0
   43.0130   33.0470   38.3660 P   0  0  1  0  0  0  0  0  0  0  0  0
   42.4940   34.6520   38.1000 O   0  0  0  0  0  0  0  0  0  0  0  0
   43.2310   35.2250   37.8120 H   0  0  0  0  0  0  0  0  0  0  0  0
   44.5620   32.8870   37.7270 O   0  0  0  0  0  0  0  0  0  0  0  0
   45.0800   30.5510   37.6230 C   0  0  0  0  0  0  0  0  0  0  0  0
   44.8740   31.7680   36.9650 C   0  0  0  0  0  0  0  0  0  0  0  0
   44.9990   31.7650   35.5920 C   0  0  0  0  0  0  0  0  0  0  0  0
   44.8430   32.6940   35.0620 H   0  0  0  0  0  0  0  0  0  0  0  0
   45.3130   30.6040   34.9100 C   0  0  0  0  0  3  0  0  0  0  0  0
   45.5150   29.4060   35.5650 C   0  0  0  0  0  3  0  0  0  0  0  0
   45.3990   29.3730   36.9430 C   0  0  0  0  0  0  0  0  0  0  0  0
   44.9560   30.5440   39.0250 O   0  0  0  0  0  0  0  0  0  0  0  0
   44.6610   29.6580   39.4240 H   0  0  0  0  0  0  0  0  0  0  0  0
   45.5760   28.2400   37.7250 O   0  0  0  0  0  0  0  0  0  0  0  0
   46.4710   27.9330   38.0620 H   0  0  0  0  0  0  0  0  0  0  0  0
   47.7120   34.9190   41.2260 C   0  0  0  0  0  0  0  0  0  0  0  0
   47.1660   34.7100   40.2990 H   0  0  0  0  0  0  0  0  0  0  0  0
   48.0910   35.9760   41.1600 H   0  0  0  0  0  0  0  0  0  0  0  0
   48.8890   34.0570   41.4060 C   0  0  0  0  0  0  0  0  0  0  0  0
   49.0120   32.9800   40.5400 C   0  0  0  0  0  0  0  0  0  0  0  0
   50.0800   32.1160   40.6320 C   0  0  0  0  0  0  0  0  0  0  0  0
   51.0090   32.3870   41.6270 N   0  0  0  0  0  0  0  0  0  0  0  0
   50.8490   33.4460   42.4470 C   0  0  0  0  0  0  0  0  0  0  0  0
   49.8090   34.2580   42.3320 N   0  0  0  0  0  0  0  0  0  0  0  0
   50.2130   31.2570   39.9700 H   0  0  0  0  0  0  0  0  0  0  0  0
   51.6280   33.5700   43.1890 H   0  0  0  0  0  0  0  0  0  0  0  0
   47.7650   32.6990   39.2790 S   0  0  0  0  0  0  0  0  0  0  0  0
   48.5440   32.4300   37.6690 C   0  0  0  0  0  0  0  0  0  0  0  0
   48.1310   31.5060   37.2230 H   0  0  0  0  0  0  0  0  0  0  0  0
   49.6260   32.2460   37.8620 H   0  0  0  0  0  0  0  0  0  0  0  0
   48.3050   33.6430   36.8160 C   0  0  0  0  0  0  0  0  0  0  0  0
   47.3250   34.1060   37.0620 H   0  0  0  0  0  0  0  0  0  0  0  0
   49.0720   34.4080   37.0540 H   0  0  0  0  0  0  0  0  0  0  0  0
   48.2780   33.2370   35.4380 N   0  0  0  0  0  0  0  0  0  0  0  0
   49.2480   33.1720   35.0290 H   0  0  0  0  0  0  0  0  0  0  0  0
   47.7280   33.9580   34.8830 H   0  0  0  0  0  0  0  0  0  0  0  0
  1  2  1  0  0  0  0
  1  3  1  0  0  0  0
  4  1  1  0  0  0  0
  4  5  2  0  0  0  0
  5  9  1  0  0  0  0
  6  5  1  0  0  0  0
  7  8  2  0  0  0  0
  7  6  1  0  0  0  0
  8  4  1  0  0  0  0
 10  7  1  0  0  0  0
 12 11  2  6  0  0  0
 12 10  1  0  0  0  0
 13 12  1  0  0  0  0
 14 13  1  0  0  0  0
 15 12  1  0  0  0  0
 16 23  1  0  0  0  0
 17 16  1  0  0  0  0
 17 15  1  0  0  0  0
 18 17  2  0  0  0  0
 19 18  1  0  0  0  0
 20 21  2  0  0  0  0
 20 18  1  0  0  0  0
 21 22  1  0  0  0  0
 22 16  2  0  0  0  0
 22 25  1  0  0  0  0
 23 24  1  0  0  0  0
 25 26  1  0  0  0  0
 27 30  1  0  0  0  0
 27  1  1  0  0  0  0
 28 27  1  0  0  0  0
 29 27  1  0  0  0  0
 30 35  1  0  0  0  0
 31 32  1  0  0  0  0
 31 30  2  0  0  0  0
 32 33  2  0  0  0  0
 33 34  1  0  0  0  0
 34 37  1  0  0  0  0
 35 34  2  0  0  0  0
 36 32  1  0  0  0  0
 38 31  1  0  0  0  0
 39 41  1  0  0  0  0
 39 38  1  0  0  0  0
 40 39  1  0  0  0  0
 42 44  1  0  0  0  0
 42 43  1  0  0  0  0
 42 39  1  0  0  0  0
 45 42  1  0  0  0  0
 46 45  1  0  0  0  0
 47 45  1  0  0  0  0
M  END
>  <minimizedAffinity>
-4.4223299

>  <minimizedRMSD>
2.34220743

$$$$
