
 OpenBabel03252500513D

 37 39  0  0  0  0  0  0  0  0999 V2000
   44.8440   35.0770   42.4480 C   0  0  0  0  0  0  0  0  0  0  0  0
   45.7630   35.2750   41.6250 O   0  0  0  0  0  0  0  0  0  0  0  0
   44.9060   34.9650   44.8840 C   0  0  0  0  0  0  0  0  0  0  0  0
   45.1560   34.3650   43.6760 C   0  0  0  0  0  0  0  0  0  0  0  0
   45.7120   33.0680   43.6050 C   0  0  0  0  0  0  0  0  0  0  0  0
   45.9790   32.4590   44.8060 N   0  0  0  0  0  0  0  0  0  0  0  0
   45.7320   33.0490   45.9710 C   0  0  0  0  0  0  0  0  0  0  0  0
   45.2010   34.2900   46.0070 N   0  0  0  0  0  0  0  0  0  0  0  0
   44.4900   35.9360   45.0120 H   0  0  0  0  0  0  0  0  0  0  0  0
   45.9150   32.5800   42.6700 H   0  0  0  0  0  0  0  0  0  0  0  0
   46.0310   32.3690   47.2220 C   0  0  0  0  0  0  0  0  0  0  0  0
   47.2960   32.0340   47.5910 C   0  0  0  0  0  0  0  0  0  0  0  0
   47.5940   31.3950   48.7630 C   0  0  0  0  0  0  0  0  0  0  0  0
   46.5560   31.0930   49.5750 N   0  0  0  0  0  0  0  0  0  0  0  0
   45.3180   31.4210   49.2100 C   0  0  0  0  0  0  0  0  0  0  0  0
   45.0000   32.0470   48.0690 N   0  0  0  0  0  0  0  0  0  0  0  0
   48.1290   32.2750   46.9440 H   0  0  0  0  0  0  0  0  0  0  0  0
   48.5930   31.1240   49.0710 H   0  0  0  0  0  0  0  0  0  0  0  0
   44.4690   31.1860   49.8490 H   0  0  0  0  0  0  0  0  0  0  0  0
   43.6990   35.6200   41.9430 O   0  0  0  0  0  0  0  0  0  0  0  0
   42.6440   34.8850   41.4690 C   0  0  0  0  0  0  0  0  0  0  0  0
   42.7860   34.8330   40.3450 H   0  0  0  0  0  0  0  0  0  0  0  0
   42.5890   33.8150   41.7480 H   0  0  0  0  0  0  0  0  0  0  0  0
   41.2910   35.5720   41.6040 C   0  0  0  0  0  0  0  0  0  0  0  0
   41.2890   36.5690   41.1560 H   0  0  0  0  0  0  0  0  0  0  0  0
   41.0050   35.5300   42.6620 H   0  0  0  0  0  0  0  0  0  0  0  0
   40.0480   34.9370   39.4990 C   0  0  0  0  0  0  0  0  0  0  0  0
   40.3170   34.7280   40.8420 C   0  0  0  0  0  0  0  0  0  0  0  0
   39.6380   33.6860   41.4690 C   0  0  0  0  0  0  0  0  0  0  0  0
   39.8670   33.5420   42.5190 H   0  0  0  0  0  0  0  0  0  0  0  0
   38.7230   32.8640   40.8260 C   0  0  0  0  0  3  0  0  0  0  0  0
   38.4820   33.1050   39.4820 C   0  0  0  0  0  3  0  0  0  0  0  0
   39.1320   34.1200   38.8390 C   0  0  0  0  0  0  0  0  0  0  0  0
   40.6900   35.9550   38.8240 O   0  0  0  0  0  0  0  0  0  0  0  0
   40.3490   36.3440   37.9510 H   0  0  0  0  0  0  0  0  0  0  0  0
   38.8300   34.2910   37.4950 O   0  0  0  0  0  0  0  0  0  0  0  0
   38.6030   33.5020   36.8870 H   0  0  0  0  0  0  0  0  0  0  0  0
  1  4  1  0  0  0  0
  2  1  2  0  0  0  0
  3  9  1  0  0  0  0
  3  8  1  0  0  0  0
  4  3  2  0  0  0  0
  5  4  1  0  0  0  0
  5  6  2  0  0  0  0
  6  7  1  0  0  0  0
  7  8  2  0  0  0  0
  7 11  1  0  0  0  0
 10  5  1  0  0  0  0
 11 12  2  0  0  0  0
 11 16  1  0  0  0  0
 12 13  1  0  0  0  0
 13 18  1  0  0  0  0
 13 14  2  0  0  0  0
 15 14  1  0  0  0  0
 15 19  1  0  0  0  0
 16 15  2  0  0  0  0
 17 12  1  0  0  0  0
 20  1  1  0  0  0  0
 21 24  1  0  0  0  0
 21 23  1  0  0  0  0
 21 20  1  0  0  0  0
 22 21  1  0  0  0  0
 24 26  1  0  0  0  0
 25 24  1  0  0  0  0
 27 28  1  0  0  0  0
 28 29  2  0  0  0  0
 28 24  1  0  0  0  0
 29 30  1  0  0  0  0
 31 29  1  0  0  0  0
 32 31  2  0  0  0  0
 33 32  1  0  0  0  0
 33 27  2  0  0  0  0
 34 27  1  0  0  0  0
 35 34  1  0  0  0  0
 36 33  1  0  0  0  0
 37 36  1  0  0  0  0
M  END
>  <minimizedAffinity>
-6.2284627

>  <minimizedRMSD>
0.695674598

$$$$
