
 OpenBabel03242521573D

 50 54  0  0  0  0  0  0  0  0999 V2000
   36.5660   26.8720   39.8540 C   0  0  0  0  0  0  0  0  0  0  0  0
   36.6540   25.4840   39.7950 C   0  0  0  0  0  0  0  0  0  0  0  0
   36.9810   24.6940   40.9040 C   0  0  0  0  0  0  0  0  0  0  0  0
   37.2300   25.2680   42.1180 C   0  0  0  0  0  0  0  0  0  0  0  0
   37.1560   26.6670   42.2020 C   0  0  0  0  0  0  0  0  0  0  0  0
   37.4670   27.2100   43.4130 C   0  0  0  0  0  0  0  0  0  0  0  0
   37.4800   28.6030   43.5120 C   0  0  0  0  0  0  0  0  0  0  0  0
   37.1730   29.3790   42.3410 C   0  0  0  0  0  0  0  0  0  0  0  0
   36.8780   28.6830   41.1910 C   0  0  0  0  0  0  0  0  0  0  0  0
   36.8300   27.3700   41.0390 C   0  0  0  0  0  0  0  0  0  0  0  0
   36.4540   25.0090   38.8200 H   0  0  0  0  0  0  0  0  0  0  0  0
   37.0360   23.6090   40.7930 H   0  0  0  0  0  0  0  0  0  0  0  0
   37.4780   24.6640   42.9850 H   0  0  0  0  0  0  0  0  0  0  0  0
   37.6970   26.5780   44.2610 H   0  0  0  0  0  0  0  0  0  0  0  0
   37.7300   28.9560   44.5020 H   0  0  0  0  0  0  0  0  0  0  0  0
   37.2590   30.3890   42.7090 H   0  0  0  0  0  0  0  0  0  0  0  0
   38.4570   29.9050   39.9860 C   0  0  0  0  0  0  0  0  0  0  0  0
   37.0580   29.8560   40.3590 C   0  0  0  0  0  0  0  0  0  0  0  0
   36.4270   30.9520   39.9470 C   0  0  0  0  0  0  0  0  0  0  0  0
   36.9960   32.0060   39.2660 C   0  0  0  0  0  0  0  0  0  0  0  0
   38.3240   32.0330   38.9280 C   0  0  0  0  0  0  0  0  0  0  0  0
   39.0560   30.9450   39.3070 C   0  0  0  0  0  0  0  0  0  0  0  0
   35.3780   30.8240   40.2690 H   0  0  0  0  0  0  0  0  0  0  0  0
   36.2820   32.8090   39.0270 H   0  0  0  0  0  0  0  0  0  0  0  0
   38.7100   32.8900   38.3940 H   0  0  0  0  0  0  0  0  0  0  0  0
   39.4360   28.9070   40.2490 O   0  0  0  0  0  0  0  0  0  0  0  0
   39.2940   28.0380   39.7490 H   0  0  0  0  0  0  0  0  0  0  0  0
   40.3890   31.0310   38.9460 O   0  0  0  0  0  0  0  0  0  0  0  0
   41.5160   32.6960   37.8480 C   0  0  0  0  0  0  0  0  0  0  0  0
   41.1940   32.1320   39.0680 C   0  0  0  0  0  0  0  0  0  0  0  0
   41.6850   32.6990   40.2300 C   0  0  0  0  0  0  0  0  0  0  0  0
   41.3850   32.1940   41.1490 H   0  0  0  0  0  0  0  0  0  0  0  0
   42.4910   33.8190   40.1770 C   0  0  0  0  0  3  0  0  0  0  0  0
   42.7920   34.3540   38.9590 C   0  0  0  0  0  3  0  0  0  0  0  0
   42.3290   33.8310   37.7480 C   0  0  0  0  0  0  0  0  0  0  0  0
   41.0880   32.2280   36.5910 O   0  0  0  0  0  0  0  0  0  0  0  0
   40.1730   32.5150   36.2350 H   0  0  0  0  0  0  0  0  0  0  0  0
   42.6720   34.4240   36.5410 O   0  0  0  0  0  0  0  0  0  0  0  0
   41.9810   35.0060   36.0840 H   0  0  0  0  0  0  0  0  0  0  0  0
   34.5230   28.8930   37.4700 C   0  0  0  0  0  0  0  0  0  0  0  0
   35.4900   29.1300   36.4660 C   0  0  0  0  0  0  0  0  0  0  0  0
   36.7310   28.5670   36.6690 C   0  0  0  0  0  0  0  0  0  0  0  0
   36.8620   27.8700   37.7950 N   0  0  0  0  0  0  0  0  0  0  0  0
   35.9810   27.6290   38.7590 C   0  0  0  0  0  0  0  0  0  0  0  0
   34.8140   28.1620   38.5520 N   0  0  0  0  0  0  0  0  0  0  0  0
   33.5550   29.3420   37.2930 H   0  0  0  0  0  0  0  0  0  0  0  0
   35.2860   29.7120   35.5890 H   0  0  0  0  0  0  0  0  0  0  0  0
   37.7770   28.6700   35.7160 N   0  0  0  0  0  0  0  0  0  0  0  0
   37.6960   28.6010   34.6590 H   0  0  0  0  0  0  0  0  0  0  0  0
   38.8020   28.8320   35.9490 H   0  0  0  0  0  0  0  0  0  0  0  0
  1 10  1  0  0  0  0
  2  1  2  0  0  0  0
  2  3  1  0  0  0  0
  3  4  2  0  0  0  0
  4  5  1  0  0  0  0
  4 13  1  0  0  0  0
  5  6  1  0  0  0  0
  6  7  2  0  0  0  0
  6 14  1  0  0  0  0
  7 15  1  0  0  0  0
  8 16  1  0  0  0  0
  8  7  1  0  0  0  0
  9  8  2  0  0  0  0
 10  9  1  0  0  0  0
 10  5  2  0  0  0  0
 11  2  1  0  0  0  0
 12  3  1  0  0  0  0
 17 26  1  0  0  0  0
 17 18  1  0  0  0  0
 18  9  1  0  0  0  0
 19 23  1  0  0  0  0
 19 18  2  0  0  0  0
 20 19  1  0  0  0  0
 21 20  2  0  0  0  0
 21 22  1  0  0  0  0
 22 17  2  0  0  0  0
 24 20  1  0  0  0  0
 25 21  1  0  0  0  0
 27 26  1  0  0  0  0
 28 30  1  0  0  0  0
 28 22  1  0  0  0  0
 29 30  1  0  0  0  0
 30 31  2  0  0  0  0
 31 32  1  0  0  0  0
 33 31  1  0  0  0  0
 34 33  2  0  0  0  0
 35 29  2  0  0  0  0
 35 34  1  0  0  0  0
 36 29  1  0  0  0  0
 37 36  1  0  0  0  0
 38 35  1  0  0  0  0
 39 38  1  0  0  0  0
 40 45  1  0  0  0  0
 41 42  1  0  0  0  0
 41 40  2  0  0  0  0
 42 43  2  0  0  0  0
 43 44  1  0  0  0  0
 44  1  1  0  0  0  0
 45 44  2  0  0  0  0
 46 40  1  0  0  0  0
 47 41  1  0  0  0  0
 48 50  1  0  0  0  0
 48 42  1  0  0  0  0
 49 48  1  0  0  0  0
M  END
>  <minimizedAffinity>
-8.72962475

$$$$

 OpenBabel03242521573D

 50 54  0  0  0  0  0  0  0  0999 V2000
   36.6060   26.9290   39.8840 C   0  0  0  0  0  0  0  0  0  0  0  0
   36.6720   25.5390   39.8460 C   0  0  0  0  0  0  0  0  0  0  0  0
   36.9680   24.7590   40.9720 C   0  0  0  0  0  0  0  0  0  0  0  0
   37.2060   25.3470   42.1820 C   0  0  0  0  0  0  0  0  0  0  0  0
   37.1530   26.7480   42.2440 C   0  0  0  0  0  0  0  0  0  0  0  0
   37.4540   27.3040   43.4520 C   0  0  0  0  0  0  0  0  0  0  0  0
   37.4880   28.6980   43.5310 C   0  0  0  0  0  0  0  0  0  0  0  0
   37.2130   29.4610   42.3450 C   0  0  0  0  0  0  0  0  0  0  0  0
   36.9250   28.7540   41.1990 C   0  0  0  0  0  0  0  0  0  0  0  0
   36.8580   27.4390   41.0650 C   0  0  0  0  0  0  0  0  0  0  0  0
   36.4800   25.0530   38.8750 H   0  0  0  0  0  0  0  0  0  0  0  0
   37.0070   23.6720   40.8770 H   0  0  0  0  0  0  0  0  0  0  0  0
   37.4300   24.7520   43.0610 H   0  0  0  0  0  0  0  0  0  0  0  0
   37.6590   26.6810   44.3130 H   0  0  0  0  0  0  0  0  0  0  0  0
   37.7280   29.0620   44.5200 H   0  0  0  0  0  0  0  0  0  0  0  0
   37.3090   30.4750   42.6990 H   0  0  0  0  0  0  0  0  0  0  0  0
   38.5660   30.0160   40.1240 C   0  0  0  0  0  0  0  0  0  0  0  0
   37.1390   29.9110   40.3540 C   0  0  0  0  0  0  0  0  0  0  0  0
   36.5060   30.9650   39.8460 C   0  0  0  0  0  0  0  0  0  0  0  0
   37.0950   32.0260   39.1940 C   0  0  0  0  0  0  0  0  0  0  0  0
   38.4480   32.1070   38.9920 C   0  0  0  0  0  0  0  0  0  0  0  0
   39.1850   31.0650   39.4780 C   0  0  0  0  0  0  0  0  0  0  0  0
   35.4360   30.7970   40.0630 H   0  0  0  0  0  0  0  0  0  0  0  0
   36.3750   32.7880   38.8580 H   0  0  0  0  0  0  0  0  0  0  0  0
   38.8490   32.9670   38.4740 H   0  0  0  0  0  0  0  0  0  0  0  0
   39.5550   29.0730   40.5180 O   0  0  0  0  0  0  0  0  0  0  0  0
   39.5040   28.1860   40.0330 H   0  0  0  0  0  0  0  0  0  0  0  0
   40.5420   31.2050   39.2530 O   0  0  0  0  0  0  0  0  0  0  0  0
   41.7540   32.1790   40.9360 C   0  0  0  0  0  0  0  0  0  0  0  0
   41.3230   32.2670   39.6250 C   0  0  0  0  0  0  0  0  0  0  0  0
   41.6980   33.3540   38.8580 C   0  0  0  0  0  0  0  0  0  0  0  0
   41.3160   33.3470   37.8360 H   0  0  0  0  0  0  0  0  0  0  0  0
   42.4960   34.3460   39.3910 C   0  0  0  0  0  3  0  0  0  0  0  0
   42.9070   34.2330   40.6870 C   0  0  0  0  0  3  0  0  0  0  0  0
   42.5640   33.1610   41.5160 C   0  0  0  0  0  0  0  0  0  0  0  0
   41.4510   31.1330   41.8290 O   0  0  0  0  0  0  0  0  0  0  0  0
   42.0200   30.2830   41.8150 H   0  0  0  0  0  0  0  0  0  0  0  0
   43.0150   33.1060   42.8280 O   0  0  0  0  0  0  0  0  0  0  0  0
   43.7910   32.4890   43.0370 H   0  0  0  0  0  0  0  0  0  0  0  0
   34.6240   28.9220   37.4260 C   0  0  0  0  0  0  0  0  0  0  0  0
   35.6250   29.1780   36.4610 C   0  0  0  0  0  0  0  0  0  0  0  0
   36.8680   28.6360   36.7120 C   0  0  0  0  0  0  0  0  0  0  0  0
   36.9650   27.9380   37.8410 N   0  0  0  0  0  0  0  0  0  0  0  0
   36.0520   27.6790   38.7680 C   0  0  0  0  0  0  0  0  0  0  0  0
   34.8850   28.1920   38.5170 N   0  0  0  0  0  0  0  0  0  0  0  0
   33.6560   29.3550   37.2120 H   0  0  0  0  0  0  0  0  0  0  0  0
   35.4460   29.7590   35.5790 H   0  0  0  0  0  0  0  0  0  0  0  0
   37.9480   28.7600   35.8010 N   0  0  0  0  0  0  0  0  0  0  0  0
   37.9100   28.6930   34.7420 H   0  0  0  0  0  0  0  0  0  0  0  0
   38.9600   28.9390   36.0750 H   0  0  0  0  0  0  0  0  0  0  0  0
  1 10  1  0  0  0  0
  2  1  2  0  0  0  0
  2  3  1  0  0  0  0
  3  4  2  0  0  0  0
  4  5  1  0  0  0  0
  4 13  1  0  0  0  0
  5  6  1  0  0  0  0
  6  7  2  0  0  0  0
  6 14  1  0  0  0  0
  7 15  1  0  0  0  0
  8 16  1  0  0  0  0
  8  7  1  0  0  0  0
  9  8  2  0  0  0  0
 10  9  1  0  0  0  0
 10  5  2  0  0  0  0
 11  2  1  0  0  0  0
 12  3  1  0  0  0  0
 17 18  1  0  0  0  0
 17 26  1  0  0  0  0
 18  9  1  0  0  0  0
 19 23  1  0  0  0  0
 19 18  2  0  0  0  0
 20 19  1  0  0  0  0
 21 20  2  0  0  0  0
 21 22  1  0  0  0  0
 22 17  2  0  0  0  0
 24 20  1  0  0  0  0
 25 21  1  0  0  0  0
 27 26  1  0  0  0  0
 28 22  1  0  0  0  0
 28 30  1  0  0  0  0
 29 35  1  0  0  0  0
 29 36  1  0  0  0  0
 30 29  2  0  0  0  0
 31 33  2  0  0  0  0
 31 30  1  0  0  0  0
 32 31  1  0  0  0  0
 33 34  1  0  0  0  0
 34 35  2  0  0  0  0
 35 38  1  0  0  0  0
 37 36  1  0  0  0  0
 38 39  1  0  0  0  0
 40 45  1  0  0  0  0
 41 42  1  0  0  0  0
 41 40  2  0  0  0  0
 42 43  2  0  0  0  0
 43 44  1  0  0  0  0
 44  1  1  0  0  0  0
 45 44  2  0  0  0  0
 46 40  1  0  0  0  0
 47 41  1  0  0  0  0
 48 50  1  0  0  0  0
 48 42  1  0  0  0  0
 49 48  1  0  0  0  0
M  END
>  <minimizedAffinity>
-7.89201212

$$$$

 OpenBabel03242521573D

 50 54  0  0  0  0  0  0  0  0999 V2000
   37.1170   25.7090   39.5390 C   0  0  0  0  0  0  0  0  0  0  0  0
   37.4960   24.3940   39.7910 C   0  0  0  0  0  0  0  0  0  0  0  0
   37.6850   23.8890   41.0850 C   0  0  0  0  0  0  0  0  0  0  0  0
   37.4980   24.6890   42.1760 C   0  0  0  0  0  0  0  0  0  0  0  0
   37.1230   26.0220   41.9490 C   0  0  0  0  0  0  0  0  0  0  0  0
   37.0020   26.8060   43.0570 C   0  0  0  0  0  0  0  0  0  0  0  0
   36.7070   28.1570   42.8620 C   0  0  0  0  0  0  0  0  0  0  0  0
   36.5560   28.6420   41.5180 C   0  0  0  0  0  0  0  0  0  0  0  0
   36.7080   27.7250   40.5020 C   0  0  0  0  0  0  0  0  0  0  0  0
   36.9670   26.4330   40.6220 C   0  0  0  0  0  0  0  0  0  0  0  0
   37.6500   23.7380   38.9170 H   0  0  0  0  0  0  0  0  0  0  0  0
   37.9850   22.8480   41.2160 H   0  0  0  0  0  0  0  0  0  0  0  0
   37.6360   24.3060   43.1830 H   0  0  0  0  0  0  0  0  0  0  0  0
   37.1330   26.3890   44.0470 H   0  0  0  0  0  0  0  0  0  0  0  0
   36.6230   28.7110   43.7870 H   0  0  0  0  0  0  0  0  0  0  0  0
   36.3400   29.6870   41.6760 H   0  0  0  0  0  0  0  0  0  0  0  0
   38.2470   29.1540   39.4860 C   0  0  0  0  0  0  0  0  0  0  0  0
   36.8520   28.7630   39.5010 C   0  0  0  0  0  0  0  0  0  0  0  0
   36.1370   29.5580   38.7100 C   0  0  0  0  0  0  0  0  0  0  0  0
   36.6230   30.6170   37.9740 C   0  0  0  0  0  0  0  0  0  0  0  0
   37.9460   30.9710   37.9800 C   0  0  0  0  0  0  0  0  0  0  0  0
   38.7630   30.2080   38.7630 C   0  0  0  0  0  0  0  0  0  0  0  0
   35.1000   29.1860   38.7810 H   0  0  0  0  0  0  0  0  0  0  0  0
   35.8470   31.1370   37.3920 H   0  0  0  0  0  0  0  0  0  0  0  0
   38.2640   31.8140   37.3810 H   0  0  0  0  0  0  0  0  0  0  0  0
   39.3060   28.5280   40.2020 O   0  0  0  0  0  0  0  0  0  0  0  0
   39.5260   27.5910   39.8900 H   0  0  0  0  0  0  0  0  0  0  0  0
   40.0840   30.6160   38.7350 O   0  0  0  0  0  0  0  0  0  0  0  0
   41.2080   32.3900   37.8190 C   0  0  0  0  0  0  0  0  0  0  0  0
   40.5440   31.8930   38.9250 C   0  0  0  0  0  0  0  0  0  0  0  0
   40.4130   32.6830   40.0520 C   0  0  0  0  0  0  0  0  0  0  0  0
   39.8760   32.2170   40.8790 H   0  0  0  0  0  0  0  0  0  0  0  0
   40.9390   33.9600   40.0780 C   0  0  0  0  0  3  0  0  0  0  0  0
   41.5890   34.4240   38.9720 C   0  0  0  0  0  3  0  0  0  0  0  0
   41.7570   33.6780   37.8020 C   0  0  0  0  0  0  0  0  0  0  0  0
   41.4160   31.7010   36.6090 O   0  0  0  0  0  0  0  0  0  0  0  0
   40.6800   31.7070   35.8970 H   0  0  0  0  0  0  0  0  0  0  0  0
   42.4300   34.2100   36.7110 O   0  0  0  0  0  0  0  0  0  0  0  0
   41.8780   34.5470   35.9310 H   0  0  0  0  0  0  0  0  0  0  0  0
   36.6950   26.7910   35.9910 C   0  0  0  0  0  0  0  0  0  0  0  0
   35.2980   26.6200   35.8520 C   0  0  0  0  0  0  0  0  0  0  0  0
   34.6220   26.1820   36.9700 C   0  0  0  0  0  0  0  0  0  0  0  0
   35.3790   25.9720   38.0450 N   0  0  0  0  0  0  0  0  0  0  0  0
   36.6880   26.1190   38.2120 C   0  0  0  0  0  0  0  0  0  0  0  0
   37.3120   26.5360   37.1500 N   0  0  0  0  0  0  0  0  0  0  0  0
   37.2080   27.1360   35.1030 H   0  0  0  0  0  0  0  0  0  0  0  0
   34.7780   26.8150   34.9350 H   0  0  0  0  0  0  0  0  0  0  0  0
   33.2130   26.0270   36.9940 N   0  0  0  0  0  0  0  0  0  0  0  0
   32.4860   26.6670   36.5580 H   0  0  0  0  0  0  0  0  0  0  0  0
   32.6950   25.2270   37.4660 H   0  0  0  0  0  0  0  0  0  0  0  0
  1  2  2  0  0  0  0
  1 10  1  0  0  0  0
  2  3  1  0  0  0  0
  3 12  1  0  0  0  0
  3  4  2  0  0  0  0
  4 13  1  0  0  0  0
  5  4  1  0  0  0  0
  5  6  1  0  0  0  0
  6 14  1  0  0  0  0
  7  6  2  0  0  0  0
  7 15  1  0  0  0  0
  8 16  1  0  0  0  0
  8  7  1  0  0  0  0
  9 10  1  0  0  0  0
  9  8  2  0  0  0  0
 10  5  2  0  0  0  0
 11  2  1  0  0  0  0
 17 18  1  0  0  0  0
 17 26  1  0  0  0  0
 18  9  1  0  0  0  0
 19 23  1  0  0  0  0
 19 18  2  0  0  0  0
 20 21  2  0  0  0  0
 20 19  1  0  0  0  0
 21 22  1  0  0  0  0
 22 17  2  0  0  0  0
 24 20  1  0  0  0  0
 25 21  1  0  0  0  0
 27 26  1  0  0  0  0
 28 22  1  0  0  0  0
 28 30  1  0  0  0  0
 29 30  1  0  0  0  0
 30 31  2  0  0  0  0
 31 33  1  0  0  0  0
 31 32  1  0  0  0  0
 34 33  2  0  0  0  0
 35 29  2  0  0  0  0
 35 34  1  0  0  0  0
 36 29  1  0  0  0  0
 37 36  1  0  0  0  0
 38 35  1  0  0  0  0
 39 38  1  0  0  0  0
 40 45  1  0  0  0  0
 41 40  2  0  0  0  0
 41 42  1  0  0  0  0
 42 48  1  0  0  0  0
 42 43  2  0  0  0  0
 43 44  1  0  0  0  0
 44  1  1  0  0  0  0
 45 44  2  0  0  0  0
 46 40  1  0  0  0  0
 47 41  1  0  0  0  0
 48 50  1  0  0  0  0
 49 48  1  0  0  0  0
M  END
>  <minimizedAffinity>
-7.80374002

$$$$

 OpenBabel03242521573D

 50 54  0  0  0  0  0  0  0  0999 V2000
   36.8970   27.0580   39.6670 C   0  0  0  0  0  0  0  0  0  0  0  0
   37.0950   25.6970   39.4570 C   0  0  0  0  0  0  0  0  0  0  0  0
   37.3270   24.7910   40.5000 C   0  0  0  0  0  0  0  0  0  0  0  0
   37.3670   25.2190   41.7970 C   0  0  0  0  0  0  0  0  0  0  0  0
   37.1780   26.5890   42.0340 C   0  0  0  0  0  0  0  0  0  0  0  0
   37.2820   26.9900   43.3330 C   0  0  0  0  0  0  0  0  0  0  0  0
   37.1770   28.3570   43.5970 C   0  0  0  0  0  0  0  0  0  0  0  0
   36.9740   29.2570   42.4940 C   0  0  0  0  0  0  0  0  0  0  0  0
   36.8900   28.6990   41.2390 C   0  0  0  0  0  0  0  0  0  0  0  0
   36.9600   27.4150   40.9270 C   0  0  0  0  0  0  0  0  0  0  0  0
   37.0640   25.3390   38.4140 H   0  0  0  0  0  0  0  0  0  0  0  0
   37.4770   23.7340   40.2700 H   0  0  0  0  0  0  0  0  0  0  0  0
   37.5390   24.5240   42.6120 H   0  0  0  0  0  0  0  0  0  0  0  0
   37.4410   26.2690   44.1240 H   0  0  0  0  0  0  0  0  0  0  0  0
   37.2650   28.5950   44.6470 H   0  0  0  0  0  0  0  0  0  0  0  0
   36.9350   30.2160   42.9870 H   0  0  0  0  0  0  0  0  0  0  0  0
   38.5230   30.2000   40.5200 C   0  0  0  0  0  0  0  0  0  0  0  0
   37.0930   29.9770   40.5860 C   0  0  0  0  0  0  0  0  0  0  0  0
   36.4330   31.0520   40.1660 C   0  0  0  0  0  0  0  0  0  0  0  0
   36.9990   32.2300   39.7290 C   0  0  0  0  0  0  0  0  0  0  0  0
   38.3550   32.4200   39.6790 C   0  0  0  0  0  0  0  0  0  0  0  0
   39.1190   31.3670   40.0900 C   0  0  0  0  0  0  0  0  0  0  0  0
   35.3630   30.7890   40.2470 H   0  0  0  0  0  0  0  0  0  0  0  0
   36.2580   32.9860   39.4290 H   0  0  0  0  0  0  0  0  0  0  0  0
   38.7360   33.3690   39.3270 H   0  0  0  0  0  0  0  0  0  0  0  0
   39.5400   29.2720   40.8790 O   0  0  0  0  0  0  0  0  0  0  0  0
   39.6000   28.4630   40.2750 H   0  0  0  0  0  0  0  0  0  0  0  0
   40.4780   31.6200   40.0260 O   0  0  0  0  0  0  0  0  0  0  0  0
   41.5680   32.7540   38.3610 C   0  0  0  0  0  0  0  0  0  0  0  0
   41.2700   31.5230   38.9130 C   0  0  0  0  0  0  0  0  0  0  0  0
   41.7700   30.3760   38.3250 C   0  0  0  0  0  0  0  0  0  0  0  0
   41.4890   29.4460   38.8210 H   0  0  0  0  0  0  0  0  0  0  0  0
   42.5610   30.4540   37.1960 C   0  0  0  0  0  3  0  0  0  0  0  0
   42.8390   31.6830   36.6730 C   0  0  0  0  0  3  0  0  0  0  0  0
   42.3660   32.8810   37.2180 C   0  0  0  0  0  0  0  0  0  0  0  0
   41.1300   34.0000   38.8510 O   0  0  0  0  0  0  0  0  0  0  0  0
   41.6550   34.4540   39.6030 H   0  0  0  0  0  0  0  0  0  0  0  0
   42.6860   34.0990   36.6370 O   0  0  0  0  0  0  0  0  0  0  0  0
   43.4070   34.6600   37.0750 H   0  0  0  0  0  0  0  0  0  0  0  0
   36.3020   29.2250   36.6850 C   0  0  0  0  0  0  0  0  0  0  0  0
   34.8920   29.3150   36.7300 C   0  0  0  0  0  0  0  0  0  0  0  0
   34.2710   28.6610   37.7720 C   0  0  0  0  0  0  0  0  0  0  0  0
   35.0870   28.0220   38.6080 N   0  0  0  0  0  0  0  0  0  0  0  0
   36.4110   27.9140   38.5970 C   0  0  0  0  0  0  0  0  0  0  0  0
   36.9820   28.5390   37.6110 N   0  0  0  0  0  0  0  0  0  0  0  0
   36.7710   29.7450   35.8600 H   0  0  0  0  0  0  0  0  0  0  0  0
   34.3210   29.8560   36.0020 H   0  0  0  0  0  0  0  0  0  0  0  0
   32.8690   28.7160   37.9770 N   0  0  0  0  0  0  0  0  0  0  0  0
   32.2330   29.5590   37.8630 H   0  0  0  0  0  0  0  0  0  0  0  0
   32.2630   27.8970   38.2810 H   0  0  0  0  0  0  0  0  0  0  0  0
  1 10  1  0  0  0  0
  2  1  2  0  0  0  0
  2  3  1  0  0  0  0
  3  4  2  0  0  0  0
  4  5  1  0  0  0  0
  4 13  1  0  0  0  0
  5  6  1  0  0  0  0
  6  7  2  0  0  0  0
  6 14  1  0  0  0  0
  7 15  1  0  0  0  0
  8 16  1  0  0  0  0
  8  7  1  0  0  0  0
  9  8  2  0  0  0  0
 10  9  1  0  0  0  0
 10  5  2  0  0  0  0
 11  2  1  0  0  0  0
 12  3  1  0  0  0  0
 17 18  1  0  0  0  0
 17 26  1  0  0  0  0
 18  9  1  0  0  0  0
 19 23  1  0  0  0  0
 19 18  2  0  0  0  0
 20 19  1  0  0  0  0
 21 20  2  0  0  0  0
 21 22  1  0  0  0  0
 22 17  2  0  0  0  0
 24 20  1  0  0  0  0
 25 21  1  0  0  0  0
 27 26  1  0  0  0  0
 28 22  1  0  0  0  0
 29 36  1  0  0  0  0
 29 30  1  0  0  0  0
 30 28  1  0  0  0  0
 31 32  1  0  0  0  0
 31 30  2  0  0  0  0
 33 31  1  0  0  0  0
 34 33  2  0  0  0  0
 34 35  1  0  0  0  0
 35 29  2  0  0  0  0
 36 37  1  0  0  0  0
 38 39  1  0  0  0  0
 38 35  1  0  0  0  0
 40 41  2  0  0  0  0
 40 45  1  0  0  0  0
 41 42  1  0  0  0  0
 42 48  1  0  0  0  0
 42 43  2  0  0  0  0
 44 43  1  0  0  0  0
 44  1  1  0  0  0  0
 45 44  2  0  0  0  0
 46 40  1  0  0  0  0
 47 41  1  0  0  0  0
 48 50  1  0  0  0  0
 49 48  1  0  0  0  0
M  END
>  <minimizedAffinity>
-7.76901722

$$$$

 OpenBabel03242521573D

 50 54  0  0  0  0  0  0  0  0999 V2000
   39.3210   26.3600   40.8010 C   0  0  0  0  0  0  0  0  0  0  0  0
   38.9640   25.1240   40.2680 C   0  0  0  0  0  0  0  0  0  0  0  0
   37.8360   24.4090   40.6910 C   0  0  0  0  0  0  0  0  0  0  0  0
   37.0210   24.9100   41.6650 C   0  0  0  0  0  0  0  0  0  0  0  0
   37.3630   26.1510   42.2240 C   0  0  0  0  0  0  0  0  0  0  0  0
   36.5620   26.5920   43.2340 C   0  0  0  0  0  0  0  0  0  0  0  0
   36.9180   27.7860   43.8670 C   0  0  0  0  0  0  0  0  0  0  0  0
   38.1030   28.4710   43.4260 C   0  0  0  0  0  0  0  0  0  0  0  0
   38.8080   27.8970   42.3930 C   0  0  0  0  0  0  0  0  0  0  0  0
   38.5120   26.7840   41.7420 C   0  0  0  0  0  0  0  0  0  0  0  0
   39.6140   24.7100   39.4790 H   0  0  0  0  0  0  0  0  0  0  0  0
   37.6100   23.4430   40.2340 H   0  0  0  0  0  0  0  0  0  0  0  0
   36.1410   24.3670   41.9950 H   0  0  0  0  0  0  0  0  0  0  0  0
   35.6840   26.0330   43.5300 H   0  0  0  0  0  0  0  0  0  0  0  0
   36.2330   28.0720   44.6520 H   0  0  0  0  0  0  0  0  0  0  0  0
   38.1240   29.3300   44.0780 H   0  0  0  0  0  0  0  0  0  0  0  0
   39.7640   29.9900   42.0090 C   0  0  0  0  0  0  0  0  0  0  0  0
   39.9790   28.7110   42.6550 C   0  0  0  0  0  0  0  0  0  0  0  0
   41.2110   28.6390   43.1510 C   0  0  0  0  0  0  0  0  0  0  0  0
   42.1730   29.6230   43.0740 C   0  0  0  0  0  0  0  0  0  0  0  0
   41.9490   30.8240   42.4540 C   0  0  0  0  0  0  0  0  0  0  0  0
   40.7070   30.9920   41.9130 C   0  0  0  0  0  0  0  0  0  0  0  0
   41.2790   27.6420   43.6220 H   0  0  0  0  0  0  0  0  0  0  0  0
   43.1220   29.3440   43.5550 H   0  0  0  0  0  0  0  0  0  0  0  0
   42.7460   31.5540   42.4260 H   0  0  0  0  0  0  0  0  0  0  0  0
   38.5670   30.4250   41.3760 O   0  0  0  0  0  0  0  0  0  0  0  0
   37.7890   30.5690   42.0060 H   0  0  0  0  0  0  0  0  0  0  0  0
   40.5410   32.2180   41.2950 O   0  0  0  0  0  0  0  0  0  0  0  0
   40.3420   32.3430   39.0160 C   0  0  0  0  0  0  0  0  0  0  0  0
   41.1230   32.6210   40.1220 C   0  0  0  0  0  0  0  0  0  0  0  0
   42.3450   33.2440   39.9520 C   0  0  0  0  0  0  0  0  0  0  0  0
   42.8980   33.4280   40.8740 H   0  0  0  0  0  0  0  0  0  0  0  0
   42.7880   33.5880   38.6900 C   0  0  0  0  0  3  0  0  0  0  0  0
   41.9960   33.3010   37.6160 C   0  0  0  0  0  3  0  0  0  0  0  0
   40.7510   32.6730   37.7190 C   0  0  0  0  0  0  0  0  0  0  0  0
   39.0810   31.7160   39.0390 O   0  0  0  0  0  0  0  0  0  0  0  0
   38.2460   32.2800   39.2150 H   0  0  0  0  0  0  0  0  0  0  0  0
   39.9940   32.4100   36.5860 O   0  0  0  0  0  0  0  0  0  0  0  0
   39.2120   33.0210   36.3840 H   0  0  0  0  0  0  0  0  0  0  0  0
   42.3790   28.1240   39.5870 C   0  0  0  0  0  0  0  0  0  0  0  0
   41.8370   28.8090   38.4750 C   0  0  0  0  0  0  0  0  0  0  0  0
   40.4880   28.6370   38.2510 C   0  0  0  0  0  0  0  0  0  0  0  0
   39.8660   27.8380   39.1150 N   0  0  0  0  0  0  0  0  0  0  0  0
   40.3410   27.1780   40.1650 C   0  0  0  0  0  0  0  0  0  0  0  0
   41.6130   27.3530   40.3670 N   0  0  0  0  0  0  0  0  0  0  0  0
   43.4390   28.2710   39.7470 H   0  0  0  0  0  0  0  0  0  0  0  0
   42.4270   29.4320   37.8320 H   0  0  0  0  0  0  0  0  0  0  0  0
   39.7980   29.3110   37.2110 N   0  0  0  0  0  0  0  0  0  0  0  0
   39.9260   30.3190   36.9000 H   0  0  0  0  0  0  0  0  0  0  0  0
   39.0450   28.8790   36.5980 H   0  0  0  0  0  0  0  0  0  0  0  0
  1 10  1  0  0  0  0
  2  3  1  0  0  0  0
  2  1  2  0  0  0  0
  3  4  2  0  0  0  0
  4 13  1  0  0  0  0
  4  5  1  0  0  0  0
  5  6  1  0  0  0  0
  6 14  1  0  0  0  0
  6  7  2  0  0  0  0
  7 15  1  0  0  0  0
  8  7  1  0  0  0  0
  8 16  1  0  0  0  0
  9 18  1  0  0  0  0
  9  8  2  0  0  0  0
 10  5  2  0  0  0  0
 10  9  1  0  0  0  0
 11  2  1  0  0  0  0
 12  3  1  0  0  0  0
 17 18  1  0  0  0  0
 18 19  2  0  0  0  0
 19 23  1  0  0  0  0
 20 19  1  0  0  0  0
 20 24  1  0  0  0  0
 21 20  2  0  0  0  0
 22 17  2  0  0  0  0
 22 21  1  0  0  0  0
 25 21  1  0  0  0  0
 26 27  1  0  0  0  0
 26 17  1  0  0  0  0
 28 22  1  0  0  0  0
 29 36  1  0  0  0  0
 29 30  1  0  0  0  0
 30 28  1  0  0  0  0
 31 30  2  0  0  0  0
 31 32  1  0  0  0  0
 33 31  1  0  0  0  0
 34 35  1  0  0  0  0
 34 33  2  0  0  0  0
 35 29  2  0  0  0  0
 36 37  1  0  0  0  0
 38 35  1  0  0  0  0
 39 38  1  0  0  0  0
 40 46  1  0  0  0  0
 40 45  1  0  0  0  0
 41 40  2  0  0  0  0
 42 41  1  0  0  0  0
 42 43  2  0  0  0  0
 43 44  1  0  0  0  0
 44 45  2  0  0  0  0
 44  1  1  0  0  0  0
 47 41  1  0  0  0  0
 48 42  1  0  0  0  0
 49 48  1  0  0  0  0
 50 48  1  0  0  0  0
M  END
>  <minimizedAffinity>
-7.20939255

$$$$

 OpenBabel03242521573D

 50 54  0  0  0  0  0  0  0  0999 V2000
   36.7060   26.5250   39.6660 C   0  0  0  0  0  0  0  0  0  0  0  0
   36.5420   25.1480   39.7830 C   0  0  0  0  0  0  0  0  0  0  0  0
   35.8590   24.3780   38.8320 C   0  0  0  0  0  0  0  0  0  0  0  0
   35.3160   24.9640   37.7240 C   0  0  0  0  0  0  0  0  0  0  0  0
   35.4600   26.3530   37.5870 C   0  0  0  0  0  0  0  0  0  0  0  0
   34.8560   26.9120   36.5010 C   0  0  0  0  0  0  0  0  0  0  0  0
   34.9130   28.3020   36.3740 C   0  0  0  0  0  0  0  0  0  0  0  0
   35.5930   29.0580   37.3900 C   0  0  0  0  0  0  0  0  0  0  0  0
   36.1540   28.3480   38.4270 C   0  0  0  0  0  0  0  0  0  0  0  0
   36.1520   27.0350   38.5930 C   0  0  0  0  0  0  0  0  0  0  0  0
   36.9780   24.6630   40.6730 H   0  0  0  0  0  0  0  0  0  0  0  0
   35.7630   23.3010   38.9820 H   0  0  0  0  0  0  0  0  0  0  0  0
   34.7910   24.3760   36.9790 H   0  0  0  0  0  0  0  0  0  0  0  0
   34.3520   26.2950   35.7680 H   0  0  0  0  0  0  0  0  0  0  0  0
   34.4160   28.6680   35.4870 H   0  0  0  0  0  0  0  0  0  0  0  0
   35.4770   30.0700   37.0360 H   0  0  0  0  0  0  0  0  0  0  0  0
   37.5590   30.1520   38.8860 C   0  0  0  0  0  0  0  0  0  0  0  0
   36.2990   29.5350   39.2460 C   0  0  0  0  0  0  0  0  0  0  0  0
   35.7550   30.1580   40.2880 C   0  0  0  0  0  0  0  0  0  0  0  0
   36.2910   31.2370   40.9560 C   0  0  0  0  0  0  0  0  0  0  0  0
   37.4880   31.8020   40.6000 C   0  0  0  0  0  0  0  0  0  0  0  0
   38.1230   31.2300   39.5360 C   0  0  0  0  0  0  0  0  0  0  0  0
   34.8070   29.6260   40.4850 H   0  0  0  0  0  0  0  0  0  0  0  0
   35.6660   31.5900   41.7900 H   0  0  0  0  0  0  0  0  0  0  0  0
   37.8550   32.6470   41.1660 H   0  0  0  0  0  0  0  0  0  0  0  0
   38.4160   29.7610   37.8200 O   0  0  0  0  0  0  0  0  0  0  0  0
   38.0320   29.9160   36.8970 H   0  0  0  0  0  0  0  0  0  0  0  0
   39.3280   31.8360   39.2280 O   0  0  0  0  0  0  0  0  0  0  0  0
   40.9480   32.4720   40.7180 C   0  0  0  0  0  0  0  0  0  0  0  0
   40.5480   31.5420   39.7770 C   0  0  0  0  0  0  0  0  0  0  0  0
   41.3680   30.4660   39.4940 C   0  0  0  0  0  0  0  0  0  0  0  0
   40.9800   29.7790   38.7410 H   0  0  0  0  0  0  0  0  0  0  0  0
   42.5770   30.3160   40.1440 C   0  0  0  0  0  3  0  0  0  0  0  0
   42.9460   31.2500   41.0680 C   0  0  0  0  0  3  0  0  0  0  0  0
   42.1650   32.3600   41.4000 C   0  0  0  0  0  0  0  0  0  0  0  0
   40.2170   33.6130   41.1050 O   0  0  0  0  0  0  0  0  0  0  0  0
   39.4930   33.5230   41.8220 H   0  0  0  0  0  0  0  0  0  0  0  0
   42.5980   33.2740   42.3500 O   0  0  0  0  0  0  0  0  0  0  0  0
   42.1930   33.2240   43.2770 H   0  0  0  0  0  0  0  0  0  0  0  0
   39.4930   28.3670   41.3330 C   0  0  0  0  0  0  0  0  0  0  0  0
   38.8490   28.7430   42.5340 C   0  0  0  0  0  0  0  0  0  0  0  0
   37.5450   28.3220   42.6860 C   0  0  0  0  0  0  0  0  0  0  0  0
   37.0570   27.6110   41.6710 N   0  0  0  0  0  0  0  0  0  0  0  0
   37.6290   27.2410   40.5320 C   0  0  0  0  0  0  0  0  0  0  0  0
   38.8590   27.6420   40.4050 N   0  0  0  0  0  0  0  0  0  0  0  0
   40.5150   28.7060   41.2330 H   0  0  0  0  0  0  0  0  0  0  0  0
   39.3310   29.3240   43.2950 H   0  0  0  0  0  0  0  0  0  0  0  0
   36.7970   28.5730   43.8640 N   0  0  0  0  0  0  0  0  0  0  0  0
   37.1410   28.5270   44.8680 H   0  0  0  0  0  0  0  0  0  0  0  0
   35.7690   28.8450   43.8890 H   0  0  0  0  0  0  0  0  0  0  0  0
  1  2  1  0  0  0  0
  1 44  1  0  0  0  0
  2 11  1  0  0  0  0
  3 12  1  0  0  0  0
  3  2  2  0  0  0  0
  4  3  1  0  0  0  0
  5  4  2  0  0  0  0
  5 10  1  0  0  0  0
  6  5  1  0  0  0  0
  7  6  2  0  0  0  0
  7  8  1  0  0  0  0
  8  9  2  0  0  0  0
  9 10  1  0  0  0  0
  9 18  1  0  0  0  0
 10  1  2  0  0  0  0
 13  4  1  0  0  0  0
 14  6  1  0  0  0  0
 15  7  1  0  0  0  0
 16  8  1  0  0  0  0
 17 18  2  0  0  0  0
 17 22  1  0  0  0  0
 18 19  1  0  0  0  0
 19 23  1  0  0  0  0
 19 20  2  0  0  0  0
 20 24  1  0  0  0  0
 21 20  1  0  0  0  0
 21 25  1  0  0  0  0
 22 21  2  0  0  0  0
 26 17  1  0  0  0  0
 27 26  1  0  0  0  0
 28 22  1  0  0  0  0
 28 30  1  0  0  0  0
 29 36  1  0  0  0  0
 29 35  1  0  0  0  0
 30 29  2  0  0  0  0
 31 30  1  0  0  0  0
 31 33  2  0  0  0  0
 32 31  1  0  0  0  0
 33 34  1  0  0  0  0
 34 35  2  0  0  0  0
 35 38  1  0  0  0  0
 36 37  1  0  0  0  0
 38 39  1  0  0  0  0
 40 41  1  0  0  0  0
 41 42  2  0  0  0  0
 41 47  1  0  0  0  0
 42 48  1  0  0  0  0
 43 42  1  0  0  0  0
 44 43  2  0  0  0  0
 45 44  1  0  0  0  0
 45 40  2  0  0  0  0
 46 40  1  0  0  0  0
 48 50  1  0  0  0  0
 48 49  1  0  0  0  0
M  END
>  <minimizedAffinity>
-7.20137835

$$$$

 OpenBabel03242521573D

 50 54  0  0  0  0  0  0  0  0999 V2000
   37.0040   28.8000   39.8600 C   0  0  0  0  0  0  0  0  0  0  0  0
   37.0910   28.8730   41.2470 C   0  0  0  0  0  0  0  0  0  0  0  0
   36.9770   27.7500   42.0780 C   0  0  0  0  0  0  0  0  0  0  0  0
   36.7740   26.5090   41.5450 C   0  0  0  0  0  0  0  0  0  0  0  0
   36.6750   26.4100   40.1490 C   0  0  0  0  0  0  0  0  0  0  0  0
   36.4140   25.1670   39.6550 C   0  0  0  0  0  0  0  0  0  0  0  0
   36.2310   25.0450   38.2760 C   0  0  0  0  0  0  0  0  0  0  0  0
   36.3220   26.2260   37.4630 C   0  0  0  0  0  0  0  0  0  0  0  0
   36.5920   27.4110   38.1100 C   0  0  0  0  0  0  0  0  0  0  0  0
   36.7940   27.5880   39.4050 C   0  0  0  0  0  0  0  0  0  0  0  0
   37.2560   29.8700   41.6890 H   0  0  0  0  0  0  0  0  0  0  0  0
   37.0510   27.8740   43.1600 H   0  0  0  0  0  0  0  0  0  0  0  0
   36.6900   25.6330   42.1800 H   0  0  0  0  0  0  0  0  0  0  0  0
   36.3500   24.3110   40.3150 H   0  0  0  0  0  0  0  0  0  0  0  0
   36.0340   24.0290   37.9620 H   0  0  0  0  0  0  0  0  0  0  0  0
   36.1420   25.8360   36.4730 H   0  0  0  0  0  0  0  0  0  0  0  0
   34.7340   28.2460   36.9740 C   0  0  0  0  0  0  0  0  0  0  0  0
   36.1820   28.2030   36.9670 C   0  0  0  0  0  0  0  0  0  0  0  0
   36.6610   28.7700   35.8640 C   0  0  0  0  0  0  0  0  0  0  0  0
   35.9120   29.3240   34.8480 C   0  0  0  0  0  0  0  0  0  0  0  0
   34.5430   29.3500   34.8730 C   0  0  0  0  0  0  0  0  0  0  0  0
   33.9570   28.7910   35.9730 C   0  0  0  0  0  0  0  0  0  0  0  0
   37.7600   28.6940   35.9480 H   0  0  0  0  0  0  0  0  0  0  0  0
   36.5220   29.7360   34.0300 H   0  0  0  0  0  0  0  0  0  0  0  0
   34.0130   29.7980   34.0440 H   0  0  0  0  0  0  0  0  0  0  0  0
   33.8790   27.7460   37.9950 O   0  0  0  0  0  0  0  0  0  0  0  0
   33.9370   28.2470   38.8720 H   0  0  0  0  0  0  0  0  0  0  0  0
   32.5750   28.8380   35.9400 O   0  0  0  0  0  0  0  0  0  0  0  0
   31.2160   30.2310   37.1490 C   0  0  0  0  0  0  0  0  0  0  0  0
   31.8020   29.9690   35.9250 C   0  0  0  0  0  0  0  0  0  0  0  0
   31.5670   30.8210   34.8620 C   0  0  0  0  0  0  0  0  0  0  0  0
   32.0660   30.5450   33.9330 H   0  0  0  0  0  0  0  0  0  0  0  0
   30.7550   31.9280   35.0170 C   0  0  0  0  0  3  0  0  0  0  0  0
   30.1900   32.1610   36.2370 C   0  0  0  0  0  3  0  0  0  0  0  0
   30.3860   31.3390   37.3510 C   0  0  0  0  0  0  0  0  0  0  0  0
   31.3660   29.4520   38.3130 O   0  0  0  0  0  0  0  0  0  0  0  0
   32.1790   29.6050   38.9150 H   0  0  0  0  0  0  0  0  0  0  0  0
   29.7810   31.6330   38.5650 O   0  0  0  0  0  0  0  0  0  0  0  0
   30.3490   32.0570   39.2880 H   0  0  0  0  0  0  0  0  0  0  0  0
   37.3690   31.9890   37.9530 C   0  0  0  0  0  0  0  0  0  0  0  0
   38.6990   31.8450   37.4950 C   0  0  0  0  0  0  0  0  0  0  0  0
   39.3430   30.6780   37.8470 C   0  0  0  0  0  0  0  0  0  0  0  0
   38.6240   29.8320   38.5810 N   0  0  0  0  0  0  0  0  0  0  0  0
   37.3780   29.9330   39.0300 C   0  0  0  0  0  0  0  0  0  0  0  0
   36.7830   31.0370   38.6870 N   0  0  0  0  0  0  0  0  0  0  0  0
   36.8800   32.9110   37.6670 H   0  0  0  0  0  0  0  0  0  0  0  0
   39.1950   32.5910   36.9070 H   0  0  0  0  0  0  0  0  0  0  0  0
   40.6550   30.3720   37.4060 N   0  0  0  0  0  0  0  0  0  0  0  0
   41.0700   30.5480   36.4440 H   0  0  0  0  0  0  0  0  0  0  0  0
   41.4080   29.9130   38.0010 H   0  0  0  0  0  0  0  0  0  0  0  0
  1  2  1  0  0  0  0
  2 11  1  0  0  0  0
  2  3  2  0  0  0  0
  3 12  1  0  0  0  0
  4  3  1  0  0  0  0
  4 13  1  0  0  0  0
  5  4  2  0  0  0  0
  6  5  1  0  0  0  0
  6 14  1  0  0  0  0
  7  6  2  0  0  0  0
  8  9  2  0  0  0  0
  8  7  1  0  0  0  0
  9 10  1  0  0  0  0
 10  1  2  0  0  0  0
 10  5  1  0  0  0  0
 15  7  1  0  0  0  0
 16  8  1  0  0  0  0
 17 26  1  0  0  0  0
 18 17  1  0  0  0  0
 18  9  1  0  0  0  0
 19 23  1  0  0  0  0
 19 18  2  0  0  0  0
 20 21  2  0  0  0  0
 20 19  1  0  0  0  0
 21 22  1  0  0  0  0
 22 17  2  0  0  0  0
 24 20  1  0  0  0  0
 25 21  1  0  0  0  0
 26 27  1  0  0  0  0
 28 22  1  0  0  0  0
 29 35  1  0  0  0  0
 29 36  1  0  0  0  0
 30 28  1  0  0  0  0
 30 29  2  0  0  0  0
 31 33  2  0  0  0  0
 31 30  1  0  0  0  0
 32 31  1  0  0  0  0
 33 34  1  0  0  0  0
 34 35  2  0  0  0  0
 35 38  1  0  0  0  0
 36 37  1  0  0  0  0
 38 39  1  0  0  0  0
 40 45  1  0  0  0  0
 41 42  1  0  0  0  0
 41 40  2  0  0  0  0
 42 43  2  0  0  0  0
 43 44  1  0  0  0  0
 44  1  1  0  0  0  0
 45 44  2  0  0  0  0
 46 40  1  0  0  0  0
 47 41  1  0  0  0  0
 48 42  1  0  0  0  0
 48 50  1  0  0  0  0
 49 48  1  0  0  0  0
M  END
>  <minimizedAffinity>
-7.10378218

$$$$

 OpenBabel03242521573D

 50 54  0  0  0  0  0  0  0  0999 V2000
   38.6650   25.7220   40.5030 C   0  0  0  0  0  0  0  0  0  0  0  0
   39.7420   24.9100   40.8450 C   0  0  0  0  0  0  0  0  0  0  0  0
   40.3190   24.9080   42.1220 C   0  0  0  0  0  0  0  0  0  0  0  0
   39.8330   25.7210   43.1050 C   0  0  0  0  0  0  0  0  0  0  0  0
   38.7530   26.5560   42.7830 C   0  0  0  0  0  0  0  0  0  0  0  0
   38.3320   27.3960   43.7700 C   0  0  0  0  0  0  0  0  0  0  0  0
   37.3090   28.2960   43.4600 C   0  0  0  0  0  0  0  0  0  0  0  0
   36.7680   28.2900   42.1280 C   0  0  0  0  0  0  0  0  0  0  0  0
   37.2990   27.3810   41.2420 C   0  0  0  0  0  0  0  0  0  0  0  0
   38.2510   26.4920   41.4800 C   0  0  0  0  0  0  0  0  0  0  0  0
   40.1420   24.2470   40.0590 H   0  0  0  0  0  0  0  0  0  0  0  0
   41.1650   24.2480   42.3270 H   0  0  0  0  0  0  0  0  0  0  0  0
   40.2690   25.7220   44.0990 H   0  0  0  0  0  0  0  0  0  0  0  0
   38.7790   27.3620   44.7550 H   0  0  0  0  0  0  0  0  0  0  0  0
   37.0280   28.9230   44.2940 H   0  0  0  0  0  0  0  0  0  0  0  0
   36.0210   29.0660   42.1830 H   0  0  0  0  0  0  0  0  0  0  0  0
   37.6800   29.0720   39.6820 C   0  0  0  0  0  0  0  0  0  0  0  0
   36.7270   28.0630   40.0990 C   0  0  0  0  0  0  0  0  0  0  0  0
   35.5960   28.1750   39.4070 C   0  0  0  0  0  0  0  0  0  0  0  0
   35.3340   29.1100   38.4300 C   0  0  0  0  0  0  0  0  0  0  0  0
   36.2490   30.0580   38.0550 C   0  0  0  0  0  0  0  0  0  0  0  0
   37.4460   30.0220   38.7100 C   0  0  0  0  0  0  0  0  0  0  0  0
   34.9400   27.3710   39.7870 H   0  0  0  0  0  0  0  0  0  0  0  0
   34.3290   29.0150   37.9920 H   0  0  0  0  0  0  0  0  0  0  0  0
   35.9820   30.7650   37.2820 H   0  0  0  0  0  0  0  0  0  0  0  0
   38.9950   29.2530   40.1920 O   0  0  0  0  0  0  0  0  0  0  0  0
   39.6360   28.5010   39.9720 H   0  0  0  0  0  0  0  0  0  0  0  0
   38.3260   31.0060   38.2960 O   0  0  0  0  0  0  0  0  0  0  0  0
   39.9010   32.5410   38.9360 C   0  0  0  0  0  0  0  0  0  0  0  0
   38.5620   32.2010   38.9220 C   0  0  0  0  0  0  0  0  0  0  0  0
   37.6390   33.0480   39.5080 C   0  0  0  0  0  0  0  0  0  0  0  0
   36.6050   32.7070   39.4540 H   0  0  0  0  0  0  0  0  0  0  0  0
   38.0470   34.2260   40.1020 C   0  0  0  0  0  3  0  0  0  0  0  0
   39.3760   34.5360   40.1000 C   0  0  0  0  0  3  0  0  0  0  0  0
   40.3590   33.7240   39.5270 C   0  0  0  0  0  0  0  0  0  0  0  0
   40.9460   31.7780   38.3800 O   0  0  0  0  0  0  0  0  0  0  0  0
   41.1580   31.8710   37.3830 H   0  0  0  0  0  0  0  0  0  0  0  0
   41.6950   34.0990   39.5580 O   0  0  0  0  0  0  0  0  0  0  0  0
   42.1000   34.4850   38.7150 H   0  0  0  0  0  0  0  0  0  0  0  0
   37.3420   25.5120   37.0180 C   0  0  0  0  0  0  0  0  0  0  0  0
   36.2480   24.6410   37.2270 C   0  0  0  0  0  0  0  0  0  0  0  0
   36.0400   24.2240   38.5250 C   0  0  0  0  0  0  0  0  0  0  0  0
   36.9040   24.6980   39.4190 N   0  0  0  0  0  0  0  0  0  0  0  0
   37.9400   25.5130   39.2600 C   0  0  0  0  0  0  0  0  0  0  0  0
   38.1220   25.9010   38.0330 N   0  0  0  0  0  0  0  0  0  0  0  0
   37.4890   25.8290   35.9940 H   0  0  0  0  0  0  0  0  0  0  0  0
   35.6070   24.3120   36.4340 H   0  0  0  0  0  0  0  0  0  0  0  0
   34.9460   23.4000   38.8910 N   0  0  0  0  0  0  0  0  0  0  0  0
   33.9460   23.4590   38.5370 H   0  0  0  0  0  0  0  0  0  0  0  0
   34.9920   22.5980   39.5880 H   0  0  0  0  0  0  0  0  0  0  0  0
  1  2  2  0  0  0  0
  1 10  1  0  0  0  0
  2  3  1  0  0  0  0
  3 12  1  0  0  0  0
  3  4  2  0  0  0  0
  4 13  1  0  0  0  0
  5  4  1  0  0  0  0
  5  6  1  0  0  0  0
  6 14  1  0  0  0  0
  7  6  2  0  0  0  0
  7 15  1  0  0  0  0
  8 16  1  0  0  0  0
  8  7  1  0  0  0  0
  9 10  1  0  0  0  0
  9  8  2  0  0  0  0
 10  5  2  0  0  0  0
 11  2  1  0  0  0  0
 17 18  1  0  0  0  0
 17 26  1  0  0  0  0
 18  9  1  0  0  0  0
 19 23  1  0  0  0  0
 19 18  2  0  0  0  0
 20 19  1  0  0  0  0
 21 20  2  0  0  0  0
 21 22  1  0  0  0  0
 22 17  2  0  0  0  0
 24 20  1  0  0  0  0
 25 21  1  0  0  0  0
 27 26  1  0  0  0  0
 28 22  1  0  0  0  0
 28 30  1  0  0  0  0
 29 35  1  0  0  0  0
 30 29  2  0  0  0  0
 30 31  1  0  0  0  0
 31 33  2  0  0  0  0
 32 31  1  0  0  0  0
 34 33  1  0  0  0  0
 35 38  1  0  0  0  0
 35 34  2  0  0  0  0
 36 29  1  0  0  0  0
 37 36  1  0  0  0  0
 39 38  1  0  0  0  0
 40 41  2  0  0  0  0
 40 45  1  0  0  0  0
 41 42  1  0  0  0  0
 42 48  1  0  0  0  0
 42 43  2  0  0  0  0
 44 43  1  0  0  0  0
 44  1  1  0  0  0  0
 45 44  2  0  0  0  0
 46 40  1  0  0  0  0
 47 41  1  0  0  0  0
 48 50  1  0  0  0  0
 49 48  1  0  0  0  0
M  END
>  <minimizedAffinity>
-7.10206938

$$$$

 OpenBabel03242521573D

 50 54  0  0  0  0  0  0  0  0999 V2000
   37.8310   31.5560   40.5140 C   0  0  0  0  0  0  0  0  0  0  0  0
   37.6330   32.8180   39.9620 C   0  0  0  0  0  0  0  0  0  0  0  0
   38.6190   33.8140   39.9640 C   0  0  0  0  0  0  0  0  0  0  0  0
   39.8440   33.5780   40.5190 C   0  0  0  0  0  0  0  0  0  0  0  0
   40.0660   32.3160   41.0900 C   0  0  0  0  0  0  0  0  0  0  0  0
   41.2780   32.1350   41.6870 C   0  0  0  0  0  0  0  0  0  0  0  0
   41.5040   30.9180   42.3340 C   0  0  0  0  0  0  0  0  0  0  0  0
   40.4540   29.9360   42.3390 C   0  0  0  0  0  0  0  0  0  0  0  0
   39.2850   30.2670   41.6920 C   0  0  0  0  0  0  0  0  0  0  0  0
   39.0180   31.3910   41.0460 C   0  0  0  0  0  0  0  0  0  0  0  0
   36.6480   33.0200   39.5090 H   0  0  0  0  0  0  0  0  0  0  0  0
   38.4010   34.7860   39.5160 H   0  0  0  0  0  0  0  0  0  0  0  0
   40.6160   34.3410   40.5200 H   0  0  0  0  0  0  0  0  0  0  0  0
   42.0310   32.9120   41.6580 H   0  0  0  0  0  0  0  0  0  0  0  0
   42.4870   30.8490   42.7770 H   0  0  0  0  0  0  0  0  0  0  0  0
   40.9020   29.1270   42.8950 H   0  0  0  0  0  0  0  0  0  0  0  0
   38.7770   27.9960   41.5500 C   0  0  0  0  0  0  0  0  0  0  0  0
   38.5510   29.1940   42.3320 C   0  0  0  0  0  0  0  0  0  0  0  0
   37.6510   28.9680   43.2840 C   0  0  0  0  0  0  0  0  0  0  0  0
   37.0010   27.7750   43.5160 C   0  0  0  0  0  0  0  0  0  0  0  0
   37.2270   26.6550   42.7600 C   0  0  0  0  0  0  0  0  0  0  0  0
   38.1410   26.7890   41.7560 C   0  0  0  0  0  0  0  0  0  0  0  0
   37.5480   29.9260   43.8240 H   0  0  0  0  0  0  0  0  0  0  0  0
   36.2950   27.8180   44.3590 H   0  0  0  0  0  0  0  0  0  0  0  0
   36.6840   25.7490   42.9930 H   0  0  0  0  0  0  0  0  0  0  0  0
   39.6760   27.8590   40.4560 O   0  0  0  0  0  0  0  0  0  0  0  0
   40.6540   27.9250   40.7070 H   0  0  0  0  0  0  0  0  0  0  0  0
   38.3220   25.6300   41.0220 O   0  0  0  0  0  0  0  0  0  0  0  0
   37.5300   25.3620   38.8890 C   0  0  0  0  0  0  0  0  0  0  0  0
   37.3920   25.0220   40.2220 C   0  0  0  0  0  0  0  0  0  0  0  0
   36.3880   24.1510   40.6000 C   0  0  0  0  0  0  0  0  0  0  0  0
   36.3470   23.9340   41.6680 H   0  0  0  0  0  0  0  0  0  0  0  0
   35.5270   23.6210   39.6590 C   0  0  0  0  0  3  0  0  0  0  0  0
   35.6880   23.9750   38.3510 C   0  0  0  0  0  3  0  0  0  0  0  0
   36.6810   24.8500   37.9020 C   0  0  0  0  0  0  0  0  0  0  0  0
   38.5040   26.2340   38.3630 O   0  0  0  0  0  0  0  0  0  0  0  0
   39.4340   25.8690   38.1400 H   0  0  0  0  0  0  0  0  0  0  0  0
   36.7910   25.1690   36.5560 O   0  0  0  0  0  0  0  0  0  0  0  0
   37.5190   24.7160   36.0180 H   0  0  0  0  0  0  0  0  0  0  0  0
   35.0770   29.0360   40.4460 C   0  0  0  0  0  0  0  0  0  0  0  0
   35.3290   28.4380   39.1890 C   0  0  0  0  0  0  0  0  0  0  0  0
   36.4160   28.9190   38.4920 C   0  0  0  0  0  0  0  0  0  0  0  0
   37.0930   29.8940   39.0950 N   0  0  0  0  0  0  0  0  0  0  0  0
   36.8860   30.4790   40.2690 C   0  0  0  0  0  0  0  0  0  0  0  0
   35.8600   30.0130   40.9170 N   0  0  0  0  0  0  0  0  0  0  0  0
   34.2200   28.6460   40.9790 H   0  0  0  0  0  0  0  0  0  0  0  0
   34.7190   27.6550   38.7860 H   0  0  0  0  0  0  0  0  0  0  0  0
   36.8230   28.3720   37.2480 N   0  0  0  0  0  0  0  0  0  0  0  0
   36.8440   27.3470   36.9700 H   0  0  0  0  0  0  0  0  0  0  0  0
   37.1700   28.9360   36.4170 H   0  0  0  0  0  0  0  0  0  0  0  0
  1 10  1  0  0  0  0
  2  3  1  0  0  0  0
  2  1  2  0  0  0  0
  3  4  2  0  0  0  0
  4 13  1  0  0  0  0
  4  5  1  0  0  0  0
  5  6  1  0  0  0  0
  6  7  2  0  0  0  0
  7  8  1  0  0  0  0
  7 15  1  0  0  0  0
  8 16  1  0  0  0  0
  9 18  1  0  0  0  0
  9  8  2  0  0  0  0
 10  5  2  0  0  0  0
 10  9  1  0  0  0  0
 11  2  1  0  0  0  0
 12  3  1  0  0  0  0
 14  6  1  0  0  0  0
 17 22  2  0  0  0  0
 17 18  1  0  0  0  0
 18 19  2  0  0  0  0
 19 20  1  0  0  0  0
 19 23  1  0  0  0  0
 20 24  1  0  0  0  0
 21 25  1  0  0  0  0
 21 20  2  0  0  0  0
 22 21  1  0  0  0  0
 26 27  1  0  0  0  0
 26 17  1  0  0  0  0
 28 22  1  0  0  0  0
 29 30  1  0  0  0  0
 30 31  2  0  0  0  0
 30 28  1  0  0  0  0
 31 32  1  0  0  0  0
 33 31  1  0  0  0  0
 34 33  2  0  0  0  0
 35 34  1  0  0  0  0
 35 29  2  0  0  0  0
 36 29  1  0  0  0  0
 37 36  1  0  0  0  0
 38 35  1  0  0  0  0
 39 38  1  0  0  0  0
 40 45  1  0  0  0  0
 40 46  1  0  0  0  0
 41 40  2  0  0  0  0
 42 43  2  0  0  0  0
 42 41  1  0  0  0  0
 43 44  1  0  0  0  0
 44  1  1  0  0  0  0
 44 45  2  0  0  0  0
 47 41  1  0  0  0  0
 48 42  1  0  0  0  0
 49 48  1  0  0  0  0
 50 48  1  0  0  0  0
M  END
>  <minimizedAffinity>
-7.0835619

$$$$
