
 OpenBabel03252505303D

 29 30  0  0  0  0  0  0  0  0999 V2000
   45.1320   30.1520   46.8350 O   0  0  0  0  0  0  0  0  0  0  0  0
   45.6440   29.0090   47.3740 C   0  0  0  0  0  0  0  0  0  0  0  0
   45.9230   29.1710   48.4510 H   0  0  0  0  0  0  0  0  0  0  0  0
   46.6170   28.7250   46.8910 H   0  0  0  0  0  0  0  0  0  0  0  0
   43.8800   27.5280   46.3350 C   0  0  0  0  0  0  0  0  0  0  0  0
   44.7180   27.8490   47.3790 C   0  0  0  0  0  0  0  0  0  0  0  0
   44.6900   27.0380   48.5040 C   0  0  0  0  0  0  0  0  0  0  0  0
   45.3170   27.2300   49.3610 H   0  0  0  0  0  0  0  0  0  0  0  0
   43.8720   25.9260   48.6460 C   0  0  0  0  0  3  0  0  0  0  0  0
   43.0360   25.6200   47.5840 C   0  0  0  0  0  3  0  0  0  0  0  0
   43.0690   26.4390   46.4560 C   0  0  0  0  0  0  0  0  0  0  0  0
   43.9110   28.3380   45.2110 O   0  0  0  0  0  0  0  0  0  0  0  0
   43.2340   29.0500   44.9800 H   0  0  0  0  0  0  0  0  0  0  0  0
   42.2380   26.1420   45.3900 O   0  0  0  0  0  0  0  0  0  0  0  0
   42.6440   25.6450   44.6100 H   0  0  0  0  0  0  0  0  0  0  0  0
   46.4520   30.8620   48.9420 O   0  0  0  0  0  0  0  0  0  0  0  0
   45.6480   31.4580   47.7870 P   0  0  2  0  0  0  0  0  0  0  0  0
   44.2670   32.2570   48.3340 O   0  0  0  0  0  0  0  0  0  0  0  0
   44.4430   32.4720   49.3050 H   0  0  0  0  0  0  0  0  0  0  0  0
   46.6610   32.5070   46.9560 O   0  0  0  0  0  0  0  0  0  0  0  0
   44.9030   34.9140   45.0470 C   0  0  0  0  0  0  0  0  0  0  0  0
   45.5470   34.9420   43.7870 C   0  0  0  0  0  0  0  0  0  0  0  0
   46.6430   34.0580   43.6450 C   0  0  0  0  0  0  0  0  0  0  0  0
   46.9860   33.2660   44.7140 N   0  0  0  0  0  0  0  0  0  0  0  0
   46.3310   33.2930   45.8740 C   0  0  0  0  0  0  0  0  0  0  0  0
   45.3010   34.1130   46.0310 N   0  0  0  0  0  0  0  0  0  0  0  0
   44.0620   35.6120   45.1100 H   0  0  0  0  0  0  0  0  0  0  0  0
   45.2360   35.5840   42.9730 H   0  0  0  0  0  0  0  0  0  0  0  0
   47.1840   34.0210   42.7120 H   0  0  0  0  0  0  0  0  0  0  0  0
  1  2  1  0  0  0  0
  1 17  1  0  0  0  0
  2  6  1  0  0  0  0
  2  3  1  0  0  0  0
  4  2  1  0  0  0  0
  5 11  2  0  0  0  0
  5  6  1  0  0  0  0
  6  7  2  0  0  0  0
  7  9  1  0  0  0  0
  7  8  1  0  0  0  0
 10  9  2  0  0  0  0
 11 10  1  0  0  0  0
 12  5  1  0  0  0  0
 13 12  1  0  0  0  0
 14 11  1  0  0  0  0
 15 14  1  0  0  0  0
 17 18  1  0  0  0  0
 17 16  2  1  0  0  0
 18 19  1  0  0  0  0
 20 17  1  0  0  0  0
 21 27  1  0  0  0  0
 21 26  1  0  0  0  0
 22 21  2  0  0  0  0
 23 22  1  0  0  0  0
 23 24  2  0  0  0  0
 24 25  1  0  0  0  0
 25 26  2  0  0  0  0
 25 20  1  0  0  0  0
 28 22  1  0  0  0  0
 29 23  1  0  0  0  0
M  END
>  <minimizedAffinity>
-5.0051055

>  <minimizedRMSD>
1.30552268

$$$$
