
 OpenBabel03252502593D

 24 25  0  0  0  0  0  0  0  0999 V2000
   43.3660   34.2250   40.7030 C   0  0  0  0  0  0  0  0  0  0  0  0
   43.9240   34.2030   39.7350 H   0  0  0  0  0  0  0  0  0  0  0  0
   43.3780   33.2420   41.2030 H   0  0  0  0  0  0  0  0  0  0  0  0
   41.2640   33.6610   39.5410 C   0  0  0  0  0  0  0  0  0  0  0  0
   41.9370   34.5220   40.3790 C   0  0  0  0  0  0  0  0  0  0  0  0
   41.2540   35.6280   40.8820 C   0  0  0  0  0  0  0  0  0  0  0  0
   41.8210   36.2820   41.5400 H   0  0  0  0  0  0  0  0  0  0  0  0
   39.9450   35.8390   40.5390 C   0  0  0  0  0  3  0  0  0  0  0  0
   39.2500   34.9830   39.6970 C   0  0  0  0  0  3  0  0  0  0  0  0
   39.9460   33.8760   39.1980 C   0  0  0  0  0  0  0  0  0  0  0  0
   41.9100   32.5410   39.0150 O   0  0  0  0  0  0  0  0  0  0  0  0
   42.4100   31.8830   39.5990 H   0  0  0  0  0  0  0  0  0  0  0  0
   39.2070   33.0440   38.3560 O   0  0  0  0  0  0  0  0  0  0  0  0
   38.7380   32.2690   38.8490 H   0  0  0  0  0  0  0  0  0  0  0  0
   44.1080   35.5610   41.6640 S   0  0  0  0  0  0  0  0  0  0  0  0
   44.3590   35.7320   44.4190 C   0  0  0  0  0  0  0  0  0  0  0  0
   44.6010   34.9490   43.2760 C   0  0  0  0  0  0  0  0  0  0  0  0
   45.2130   33.7160   43.3690 C   0  0  0  0  0  0  0  0  0  0  0  0
   45.5650   33.3060   44.6260 N   0  0  0  0  0  0  0  0  0  0  0  0
   45.3200   34.0810   45.7040 C   0  0  0  0  0  0  0  0  0  0  0  0
   44.7340   35.2690   45.6430 N   0  0  0  0  0  0  0  0  0  0  0  0
   43.8720   36.7010   44.3050 H   0  0  0  0  0  0  0  0  0  0  0  0
   45.4220   33.0800   42.5350 H   0  0  0  0  0  0  0  0  0  0  0  0
   45.6750   33.5790   46.6180 H   0  0  0  0  0  0  0  0  0  0  0  0
  1  3  1  0  0  0  0
  1 15  1  0  0  0  0
  2  1  1  0  0  0  0
  4  5  1  0  0  0  0
  5  1  1  0  0  0  0
  5  6  2  0  0  0  0
  6  7  1  0  0  0  0
  8  6  1  0  0  0  0
  9  8  2  0  0  0  0
 10  4  2  0  0  0  0
 10  9  1  0  0  0  0
 11  4  1  0  0  0  0
 11 12  1  0  0  0  0
 13 14  1  0  0  0  0
 13 10  1  0  0  0  0
 15 17  1  0  0  0  0
 16 21  1  0  0  0  0
 17 18  1  0  0  0  0
 17 16  2  0  0  0  0
 18 19  2  0  0  0  0
 19 20  1  0  0  0  0
 20 24  1  0  0  0  0
 21 20  2  0  0  0  0
 22 16  1  0  0  0  0
 23 18  1  0  0  0  0
M  END
>  <minimizedAffinity>
-4.63956642

>  <minimizedRMSD>
2.29774761

$$$$
