
 OpenBabel03252500513D

 37 39  0  0  0  0  0  0  0  0999 V2000
   44.8300   34.9520   42.0870 C   0  0  0  0  0  0  0  0  0  0  0  0
   45.6020   34.7780   41.1220 O   0  0  0  0  0  0  0  0  0  0  0  0
   44.9500   35.0060   44.5240 C   0  0  0  0  0  0  0  0  0  0  0  0
   45.1520   34.3170   43.3540 C   0  0  0  0  0  0  0  0  0  0  0  0
   45.6680   33.0010   43.3610 C   0  0  0  0  0  0  0  0  0  0  0  0
   45.9480   32.4690   44.5960 N   0  0  0  0  0  0  0  0  0  0  0  0
   45.7480   33.1450   45.7220 C   0  0  0  0  0  0  0  0  0  0  0  0
   45.2540   34.4010   45.6840 N   0  0  0  0  0  0  0  0  0  0  0  0
   44.5660   35.9950   44.5930 H   0  0  0  0  0  0  0  0  0  0  0  0
   45.8340   32.4440   42.4580 H   0  0  0  0  0  0  0  0  0  0  0  0
   46.0590   32.5440   47.0100 C   0  0  0  0  0  0  0  0  0  0  0  0
   47.3290   32.2430   47.3910 C   0  0  0  0  0  0  0  0  0  0  0  0
   47.6370   31.6780   48.5980 C   0  0  0  0  0  0  0  0  0  0  0  0
   46.6070   31.4170   49.4330 N   0  0  0  0  0  0  0  0  0  0  0  0
   45.3640   31.7120   49.0550 C   0  0  0  0  0  0  0  0  0  0  0  0
   45.0350   32.2660   47.8800 N   0  0  0  0  0  0  0  0  0  0  0  0
   48.1570   32.4500   46.7260 H   0  0  0  0  0  0  0  0  0  0  0  0
   48.6410   31.4340   48.9160 H   0  0  0  0  0  0  0  0  0  0  0  0
   44.5210   31.5100   49.7120 H   0  0  0  0  0  0  0  0  0  0  0  0
   43.8050   35.7510   41.6720 O   0  0  0  0  0  0  0  0  0  0  0  0
   42.7390   35.3100   40.9310 C   0  0  0  0  0  0  0  0  0  0  0  0
   42.7900   35.8800   39.9520 H   0  0  0  0  0  0  0  0  0  0  0  0
   42.7420   34.2570   40.5910 H   0  0  0  0  0  0  0  0  0  0  0  0
   41.3800   35.7190   41.4850 C   0  0  0  0  0  0  0  0  0  0  0  0
   41.1730   36.7810   41.3270 H   0  0  0  0  0  0  0  0  0  0  0  0
   41.3360   35.3810   42.5280 H   0  0  0  0  0  0  0  0  0  0  0  0
   39.5890   33.9480   41.3040 C   0  0  0  0  0  0  0  0  0  0  0  0
   40.3630   34.9350   40.7150 C   0  0  0  0  0  0  0  0  0  0  0  0
   40.1580   35.1770   39.3600 C   0  0  0  0  0  0  0  0  0  0  0  0
   40.7750   35.9530   38.9230 H   0  0  0  0  0  0  0  0  0  0  0  0
   39.2330   34.4900   38.5850 C   0  0  0  0  0  3  0  0  0  0  0  0
   38.4770   33.5100   39.2110 C   0  0  0  0  0  3  0  0  0  0  0  0
   38.6550   33.2500   40.5410 C   0  0  0  0  0  0  0  0  0  0  0  0
   39.7460   33.6630   42.6450 O   0  0  0  0  0  0  0  0  0  0  0  0
   39.4400   32.7940   43.0680 H   0  0  0  0  0  0  0  0  0  0  0  0
   37.8580   32.2530   41.0850 O   0  0  0  0  0  0  0  0  0  0  0  0
   36.9020   32.0880   40.7620 H   0  0  0  0  0  0  0  0  0  0  0  0
  1  4  1  0  0  0  0
  2  1  2  0  0  0  0
  3  9  1  0  0  0  0
  3  8  1  0  0  0  0
  4  5  1  0  0  0  0
  4  3  2  0  0  0  0
  5  6  2  0  0  0  0
  6  7  1  0  0  0  0
  7 11  1  0  0  0  0
  8  7  2  0  0  0  0
 10  5  1  0  0  0  0
 11 12  2  0  0  0  0
 11 16  1  0  0  0  0
 12 13  1  0  0  0  0
 13 18  1  0  0  0  0
 13 14  2  0  0  0  0
 15 14  1  0  0  0  0
 15 19  1  0  0  0  0
 16 15  2  0  0  0  0
 17 12  1  0  0  0  0
 20  1  1  0  0  0  0
 21 24  1  0  0  0  0
 21 20  1  0  0  0  0
 22 21  1  0  0  0  0
 23 21  1  0  0  0  0
 24 26  1  0  0  0  0
 25 24  1  0  0  0  0
 27 34  1  0  0  0  0
 28 27  1  0  0  0  0
 28 24  1  0  0  0  0
 29 28  2  0  0  0  0
 30 29  1  0  0  0  0
 31 32  2  0  0  0  0
 31 29  1  0  0  0  0
 32 33  1  0  0  0  0
 33 36  1  0  0  0  0
 33 27  2  0  0  0  0
 34 35  1  0  0  0  0
 37 36  1  0  0  0  0
M  END
>  <minimizedAffinity>
-7.33050251

>  <minimizedRMSD>
0.61593163

$$$$
