
 OpenBabel03242520433D

 41 44  0  0  1  0  0  0  0  0999 V2000
   42.3490   27.0440   41.6010 C   0  0  0  0  0  0  0  0  0  0  0  0
   42.9020   26.6100   42.8280 C   0  0  0  0  0  0  0  0  0  0  0  0
   42.1310   25.7210   43.6320 C   0  0  0  0  0  0  0  0  0  0  0  0
   40.8980   25.3330   43.1810 N   0  0  0  0  0  0  0  0  0  0  0  0
   40.4220   25.7820   41.9960 C   0  0  0  0  0  0  0  0  0  0  0  0
   41.1440   26.6270   41.2220 N   0  0  0  0  0  0  0  0  0  0  0  0
   39.1540   25.3340   41.6190 N   0  0  0  0  0  0  0  0  0  0  0  0
   38.0150   25.5910   42.4360 C   0  0  2  0  0  0  0  0  0  0  0  0
   36.7850   24.8370   42.0640 C   0  0  0  0  0  0  0  0  0  0  0  0
   36.6270   24.5080   40.6960 N   0  0  0  0  0  0  0  0  0  0  0  0
   37.6430   25.0040   39.8430 C   0  0  0  0  0  0  0  0  0  0  0  0
   38.9860   24.5990   40.3860 C   0  0  0  0  0  0  0  0  0  0  0  0
   42.9320   27.7180   40.9900 H   0  0  0  0  0  0  0  0  0  0  0  0
   43.8750   26.9630   43.1060 H   0  0  0  0  0  0  0  0  0  0  0  0
   42.5500   25.3930   44.5620 H   0  0  0  0  0  0  0  0  0  0  0  0
   38.2820   25.1800   43.4590 H   0  0  0  0  0  0  0  0  0  0  0  0
   36.6590   23.8980   42.6420 H   0  0  0  0  0  0  0  0  0  0  0  0
   35.9150   25.4790   42.3840 H   0  0  0  0  0  0  0  0  0  0  0  0
   35.6670   24.4890   40.3400 H   0  0  0  0  0  0  0  0  0  0  0  0
   37.5560   26.0650   39.6220 H   0  0  0  0  0  0  0  0  0  0  0  0
   37.4930   24.4920   38.8430 H   0  0  0  0  0  0  0  0  0  0  0  0
   39.0250   23.5100   40.5040 H   0  0  0  0  0  0  0  0  0  0  0  0
   39.7470   24.9940   39.6730 H   0  0  0  0  0  0  0  0  0  0  0  0
   37.7720   27.0480   42.6080 C   0  0  0  0  0  0  0  0  0  0  0  0
   37.1140   27.7740   43.5720 C   0  0  0  0  0  0  0  0  0  0  0  0
   37.1600   29.0880   43.3190 N   0  0  0  0  0  0  0  0  0  0  0  0
   37.8520   29.2050   42.1860 C   0  0  0  0  0  0  0  0  0  0  0  0
   38.2200   27.9920   41.7590 N   0  0  0  0  0  0  0  0  0  0  0  0
   36.6180   27.3380   44.4260 H   0  0  0  0  0  0  0  0  0  0  0  0
   36.7520   29.8740   43.8690 H   0  0  0  0  0  0  0  0  0  0  0  0
   37.2730   31.3510   40.9980 C   0  0  0  0  0  0  0  0  0  0  0  0
   38.2110   30.4320   41.4420 C   0  0  0  0  0  0  0  0  0  0  0  0
   39.5690   30.6360   41.1970 C   0  0  0  0  0  0  0  0  0  0  0  0
   40.3120   29.9190   41.5420 H   0  0  0  0  0  0  0  0  0  0  0  0
   39.9140   31.7640   40.5110 C   0  0  0  0  0  3  0  0  0  0  0  0
   38.9950   32.6770   40.0690 C   0  0  0  0  0  3  0  0  0  0  0  0
   37.6360   32.4800   40.3110 C   0  0  0  0  0  0  0  0  0  0  0  0
   35.9320   31.0770   41.2820 O   0  0  0  0  0  0  0  0  0  0  0  0
   35.6000   31.2610   42.2270 H   0  0  0  0  0  0  0  0  0  0  0  0
   36.6990   33.3840   39.8760 O   0  0  0  0  0  0  0  0  0  0  0  0
   36.5790   34.3290   40.2120 H   0  0  0  0  0  0  0  0  0  0  0  0
  1  2  1  0  0  0  0
  2 14  1  0  0  0  0
  2  3  2  0  0  0  0
  3 15  1  0  0  0  0
  4  3  1  0  0  0  0
  5  4  2  0  0  0  0
  6  1  2  0  0  0  0
  6  5  1  0  0  0  0
  7  5  1  0  0  0  0
  7  8  1  0  0  0  0
  8 24  1  0  0  0  0
  8 16  1  1  0  0  0
  9 18  1  0  0  0  0
  9  8  1  0  0  0  0
  9 17  1  0  0  0  0
 10  9  1  0  0  0  0
 11 12  1  0  0  0  0
 11 10  1  0  0  0  0
 12 22  1  0  0  0  0
 12  7  1  0  0  0  0
 13  1  1  0  0  0  0
 19 10  1  0  0  0  0
 20 11  1  0  0  0  0
 21 11  1  0  0  0  0
 23 12  1  0  0  0  0
 24 25  2  0  0  0  0
 25 29  1  0  0  0  0
 26 25  1  0  0  0  0
 26 30  1  0  0  0  0
 27 26  1  0  0  0  0
 28 27  2  0  0  0  0
 28 24  1  0  0  0  0
 31 38  1  0  0  0  0
 31 32  1  0  0  0  0
 32 27  1  0  0  0  0
 33 32  2  0  0  0  0
 33 34  1  0  0  0  0
 35 33  1  0  0  0  0
 36 37  1  0  0  0  0
 36 35  2  0  0  0  0
 37 31  2  0  0  0  0
 38 39  1  0  0  0  0
 40 41  1  0  0  0  0
 40 37  1  0  0  0  0
M  END
>  <minimizedAffinity>
-6.91784048

$$$$

 OpenBabel03242520433D

 41 44  0  0  1  0  0  0  0  0999 V2000
   39.1150   27.6290   42.7390 C   0  0  0  0  0  0  0  0  0  0  0  0
   37.9990   27.5290   43.6020 C   0  0  0  0  0  0  0  0  0  0  0  0
   36.7030   27.7390   43.0460 C   0  0  0  0  0  0  0  0  0  0  0  0
   36.6010   28.0280   41.7120 N   0  0  0  0  0  0  0  0  0  0  0  0
   37.7080   28.1100   40.9360 C   0  0  0  0  0  0  0  0  0  0  0  0
   38.9450   27.9130   41.4510 N   0  0  0  0  0  0  0  0  0  0  0  0
   37.5070   28.4110   39.5860 N   0  0  0  0  0  0  0  0  0  0  0  0
   36.8630   29.6200   39.1960 C   0  0  2  0  0  0  0  0  0  0  0  0
   36.4720   29.6950   37.7600 C   0  0  0  0  0  0  0  0  0  0  0  0
   37.2790   28.9830   36.8410 N   0  0  0  0  0  0  0  0  0  0  0  0
   38.4050   28.3390   37.4110 C   0  0  0  0  0  0  0  0  0  0  0  0
   37.9550   27.4900   38.5680 C   0  0  0  0  0  0  0  0  0  0  0  0
   40.0980   27.4700   43.1580 H   0  0  0  0  0  0  0  0  0  0  0  0
   38.1670   27.2990   44.6350 H   0  0  0  0  0  0  0  0  0  0  0  0
   35.8580   27.6630   43.7000 H   0  0  0  0  0  0  0  0  0  0  0  0
   35.8690   29.6200   39.7440 H   0  0  0  0  0  0  0  0  0  0  0  0
   35.4210   29.3860   37.5790 H   0  0  0  0  0  0  0  0  0  0  0  0
   36.4900   30.7890   37.4870 H   0  0  0  0  0  0  0  0  0  0  0  0
   37.3820   29.3970   35.9100 H   0  0  0  0  0  0  0  0  0  0  0  0
   39.2250   29.0120   37.6480 H   0  0  0  0  0  0  0  0  0  0  0  0
   38.8190   27.6570   36.6070 H   0  0  0  0  0  0  0  0  0  0  0  0
   37.1870   26.7830   38.2330 H   0  0  0  0  0  0  0  0  0  0  0  0
   38.8690   26.9920   38.9680 H   0  0  0  0  0  0  0  0  0  0  0  0
   37.6080   30.8220   39.6570 C   0  0  0  0  0  0  0  0  0  0  0  0
   37.3410   31.7720   40.6120 C   0  0  0  0  0  0  0  0  0  0  0  0
   38.3200   32.6810   40.6930 N   0  0  0  0  0  0  0  0  0  0  0  0
   39.2210   32.3110   39.7840 C   0  0  0  0  0  0  0  0  0  0  0  0
   38.8010   31.2030   39.1640 N   0  0  0  0  0  0  0  0  0  0  0  0
   36.4490   31.7870   41.2210 H   0  0  0  0  0  0  0  0  0  0  0  0
   38.3920   33.5120   41.3210 H   0  0  0  0  0  0  0  0  0  0  0  0
   40.9460   33.1260   38.1370 C   0  0  0  0  0  0  0  0  0  0  0  0
   40.5090   32.9540   39.4410 C   0  0  0  0  0  0  0  0  0  0  0  0
   41.2900   33.3910   40.5110 C   0  0  0  0  0  0  0  0  0  0  0  0
   40.9540   33.2590   41.5380 H   0  0  0  0  0  0  0  0  0  0  0  0
   42.4800   33.9860   40.2090 C   0  0  0  0  0  3  0  0  0  0  0  0
   42.9200   34.1610   38.9240 C   0  0  0  0  0  3  0  0  0  0  0  0
   42.1450   33.7260   37.8500 C   0  0  0  0  0  0  0  0  0  0  0  0
   40.1080   32.6620   37.1190 O   0  0  0  0  0  0  0  0  0  0  0  0
   39.2970   33.2270   36.8760 H   0  0  0  0  0  0  0  0  0  0  0  0
   42.5680   33.8930   36.5550 O   0  0  0  0  0  0  0  0  0  0  0  0
   42.6730   34.7730   36.0690 H   0  0  0  0  0  0  0  0  0  0  0  0
  1 13  1  0  0  0  0
  1  2  1  0  0  0  0
  2 14  1  0  0  0  0
  3  2  2  0  0  0  0
  3 15  1  0  0  0  0
  4  3  1  0  0  0  0
  5  6  1  0  0  0  0
  5  4  2  0  0  0  0
  6  1  2  0  0  0  0
  7  5  1  0  0  0  0
  8  7  1  0  0  0  0
  8 24  1  0  0  0  0
  8 16  1  1  0  0  0
  9  8  1  0  0  0  0
 10 11  1  0  0  0  0
 10  9  1  0  0  0  0
 11 20  1  0  0  0  0
 11 12  1  0  0  0  0
 12 23  1  0  0  0  0
 12  7  1  0  0  0  0
 17  9  1  0  0  0  0
 18  9  1  0  0  0  0
 19 10  1  0  0  0  0
 21 11  1  0  0  0  0
 22 12  1  0  0  0  0
 24 25  2  0  0  0  0
 25 26  1  0  0  0  0
 25 29  1  0  0  0  0
 26 30  1  0  0  0  0
 27 26  1  0  0  0  0
 28 24  1  0  0  0  0
 28 27  2  0  0  0  0
 31 32  1  0  0  0  0
 32 27  1  0  0  0  0
 32 33  2  0  0  0  0
 33 34  1  0  0  0  0
 35 33  1  0  0  0  0
 36 35  2  0  0  0  0
 37 31  2  0  0  0  0
 37 36  1  0  0  0  0
 38 31  1  0  0  0  0
 39 38  1  0  0  0  0
 40 37  1  0  0  0  0
 41 40  1  0  0  0  0
M  END
>  <minimizedAffinity>
-6.71907377

$$$$

 OpenBabel03242520433D

 41 44  0  0  1  0  0  0  0  0999 V2000
   39.5720   25.5310   41.1860 C   0  0  0  0  0  0  0  0  0  0  0  0
   40.5040   25.7200   42.2330 C   0  0  0  0  0  0  0  0  0  0  0  0
   40.3750   26.8890   43.0380 C   0  0  0  0  0  0  0  0  0  0  0  0
   39.3630   27.7690   42.7600 N   0  0  0  0  0  0  0  0  0  0  0  0
   38.5010   27.5320   41.7430 C   0  0  0  0  0  0  0  0  0  0  0  0
   38.6110   26.4260   40.9710 N   0  0  0  0  0  0  0  0  0  0  0  0
   37.5020   28.4860   41.5330 N   0  0  0  0  0  0  0  0  0  0  0  0
   37.8340   29.8400   41.2420 C   0  0  2  0  0  0  0  0  0  0  0  0
   36.6970   30.8000   41.3060 C   0  0  0  0  0  0  0  0  0  0  0  0
   35.4140   30.2920   40.9900 N   0  0  0  0  0  0  0  0  0  0  0  0
   35.3940   28.9340   40.5840 C   0  0  0  0  0  0  0  0  0  0  0  0
   36.1110   28.1010   41.6110 C   0  0  0  0  0  0  0  0  0  0  0  0
   39.6670   24.6450   40.5740 H   0  0  0  0  0  0  0  0  0  0  0  0
   41.2660   24.9820   42.3820 H   0  0  0  0  0  0  0  0  0  0  0  0
   41.0800   27.0330   43.8310 H   0  0  0  0  0  0  0  0  0  0  0  0
   38.5120   30.1710   42.0890 H   0  0  0  0  0  0  0  0  0  0  0  0
   36.6120   31.3080   42.2900 H   0  0  0  0  0  0  0  0  0  0  0  0
   36.9450   31.6300   40.5850 H   0  0  0  0  0  0  0  0  0  0  0  0
   34.7680   30.9400   40.5300 H   0  0  0  0  0  0  0  0  0  0  0  0
   35.7370   28.7730   39.5650 H   0  0  0  0  0  0  0  0  0  0  0  0
   34.3040   28.6250   40.5710 H   0  0  0  0  0  0  0  0  0  0  0  0
   35.6580   28.2560   42.5960 H   0  0  0  0  0  0  0  0  0  0  0  0
   36.0520   27.0450   41.2580 H   0  0  0  0  0  0  0  0  0  0  0  0
   38.6240   29.9610   39.9870 C   0  0  0  0  0  0  0  0  0  0  0  0
   38.4120   29.5110   38.7070 C   0  0  0  0  0  0  0  0  0  0  0  0
   39.4050   29.8720   37.8850 N   0  0  0  0  0  0  0  0  0  0  0  0
   40.2580   30.5600   38.6430 C   0  0  0  0  0  0  0  0  0  0  0  0
   39.7970   30.6160   39.8970 N   0  0  0  0  0  0  0  0  0  0  0  0
   37.5530   28.9330   38.4020 H   0  0  0  0  0  0  0  0  0  0  0  0
   39.5160   29.6740   36.8670 H   0  0  0  0  0  0  0  0  0  0  0  0
   41.6050   32.3990   37.5670 C   0  0  0  0  0  0  0  0  0  0  0  0
   41.5360   31.1980   38.2550 C   0  0  0  0  0  0  0  0  0  0  0  0
   42.7020   30.5240   38.6180 C   0  0  0  0  0  0  0  0  0  0  0  0
   42.6560   29.5800   39.1580 H   0  0  0  0  0  0  0  0  0  0  0  0
   43.8870   31.1010   38.2670 C   0  0  0  0  0  3  0  0  0  0  0  0
   43.9660   32.2870   37.5880 C   0  0  0  0  0  3  0  0  0  0  0  0
   42.8040   32.9650   37.2210 C   0  0  0  0  0  0  0  0  0  0  0  0
   40.3930   33.0130   37.2380 O   0  0  0  0  0  0  0  0  0  0  0  0
   39.9000   33.5140   37.9740 H   0  0  0  0  0  0  0  0  0  0  0  0
   42.8620   34.1560   36.5410 O   0  0  0  0  0  0  0  0  0  0  0  0
   43.2120   35.0340   36.9000 H   0  0  0  0  0  0  0  0  0  0  0  0
  1  2  1  0  0  0  0
  2 14  1  0  0  0  0
  2  3  2  0  0  0  0
  3 15  1  0  0  0  0
  4  3  1  0  0  0  0
  5  4  2  0  0  0  0
  6  1  2  0  0  0  0
  6  5  1  0  0  0  0
  7 12  1  0  0  0  0
  7  5  1  0  0  0  0
  8  9  1  0  0  0  0
  8  7  1  0  0  0  0
  8 16  1  1  0  0  0
  9 17  1  0  0  0  0
 10  9  1  0  0  0  0
 11 10  1  0  0  0  0
 11 12  1  0  0  0  0
 12 22  1  0  0  0  0
 13  1  1  0  0  0  0
 18  9  1  0  0  0  0
 19 10  1  0  0  0  0
 20 11  1  0  0  0  0
 21 11  1  0  0  0  0
 23 12  1  0  0  0  0
 24  8  1  0  0  0  0
 25 24  2  0  0  0  0
 26 27  1  0  0  0  0
 26 25  1  0  0  0  0
 27 28  2  0  0  0  0
 28 24  1  0  0  0  0
 29 25  1  0  0  0  0
 30 26  1  0  0  0  0
 31 32  1  0  0  0  0
 32 33  2  0  0  0  0
 32 27  1  0  0  0  0
 33 34  1  0  0  0  0
 35 33  1  0  0  0  0
 36 35  2  0  0  0  0
 37 31  2  0  0  0  0
 37 36  1  0  0  0  0
 38 31  1  0  0  0  0
 38 39  1  0  0  0  0
 40 41  1  0  0  0  0
 40 37  1  0  0  0  0
M  END
>  <minimizedAffinity>
-6.52969313

$$$$

 OpenBabel03242520433D

 41 44  0  0  1  0  0  0  0  0999 V2000
   38.4750   28.1520   36.5480 C   0  0  0  0  0  0  0  0  0  0  0  0
   37.3300   28.3460   35.7420 C   0  0  0  0  0  0  0  0  0  0  0  0
   36.5620   29.5290   35.9480 C   0  0  0  0  0  0  0  0  0  0  0  0
   36.9660   30.4140   36.9110 N   0  0  0  0  0  0  0  0  0  0  0  0
   38.0730   30.1720   37.6520 C   0  0  0  0  0  0  0  0  0  0  0  0
   38.8120   29.0530   37.4670 N   0  0  0  0  0  0  0  0  0  0  0  0
   38.4070   31.1300   38.6130 N   0  0  0  0  0  0  0  0  0  0  0  0
   37.4990   31.4620   39.6600 C   0  0  2  0  0  0  0  0  0  0  0  0
   37.8570   32.6740   40.4480 C   0  0  0  0  0  0  0  0  0  0  0  0
   39.2360   32.9690   40.5740 N   0  0  0  0  0  0  0  0  0  0  0  0
   40.1050   32.0210   39.9790 C   0  0  0  0  0  0  0  0  0  0  0  0
   39.6870   31.7960   38.5520 C   0  0  0  0  0  0  0  0  0  0  0  0
   39.0600   27.2560   36.3940 H   0  0  0  0  0  0  0  0  0  0  0  0
   37.0850   27.6030   35.0100 H   0  0  0  0  0  0  0  0  0  0  0  0
   35.6940   29.6770   35.3370 H   0  0  0  0  0  0  0  0  0  0  0  0
   36.5360   31.7570   39.1370 H   0  0  0  0  0  0  0  0  0  0  0  0
   37.3590   33.5950   40.0810 H   0  0  0  0  0  0  0  0  0  0  0  0
   37.4250   32.5160   41.4780 H   0  0  0  0  0  0  0  0  0  0  0  0
   39.5300   33.4060   41.4530 H   0  0  0  0  0  0  0  0  0  0  0  0
   40.2230   31.1070   40.5550 H   0  0  0  0  0  0  0  0  0  0  0  0
   41.1350   32.4940   39.9790 H   0  0  0  0  0  0  0  0  0  0  0  0
   39.6700   32.7510   38.0150 H   0  0  0  0  0  0  0  0  0  0  0  0
   40.4090   31.0620   38.1240 H   0  0  0  0  0  0  0  0  0  0  0  0
   37.1810   30.2870   40.5140 C   0  0  0  0  0  0  0  0  0  0  0  0
   36.0070   29.8190   41.0530 C   0  0  0  0  0  0  0  0  0  0  0  0
   36.1990   28.6970   41.7590 N   0  0  0  0  0  0  0  0  0  0  0  0
   37.5040   28.4450   41.6720 C   0  0  0  0  0  0  0  0  0  0  0  0
   38.0940   29.3890   40.9300 N   0  0  0  0  0  0  0  0  0  0  0  0
   35.0480   30.2980   40.9250 H   0  0  0  0  0  0  0  0  0  0  0  0
   35.4990   28.1230   42.2770 H   0  0  0  0  0  0  0  0  0  0  0  0
   38.0040   25.9950   41.9930 C   0  0  0  0  0  0  0  0  0  0  0  0
   38.2740   27.3280   42.2630 C   0  0  0  0  0  0  0  0  0  0  0  0
   39.3110   27.6770   43.1280 C   0  0  0  0  0  0  0  0  0  0  0  0
   39.5290   28.7210   43.3450 H   0  0  0  0  0  0  0  0  0  0  0  0
   40.0290   26.6560   43.6800 C   0  0  0  0  0  3  0  0  0  0  0  0
   39.7700   25.3370   43.4190 C   0  0  0  0  0  3  0  0  0  0  0  0
   38.7350   24.9820   42.5560 C   0  0  0  0  0  0  0  0  0  0  0  0
   36.9490   25.7260   41.1160 O   0  0  0  0  0  0  0  0  0  0  0  0
   37.1160   25.8490   40.1200 H   0  0  0  0  0  0  0  0  0  0  0  0
   38.4600   23.6650   42.2800 O   0  0  0  0  0  0  0  0  0  0  0  0
   39.0510   23.0250   41.7690 H   0  0  0  0  0  0  0  0  0  0  0  0
  1  6  1  0  0  0  0
  2  3  1  0  0  0  0
  2  1  2  0  0  0  0
  3  4  2  0  0  0  0
  4  5  1  0  0  0  0
  5  7  1  0  0  0  0
  6  5  2  0  0  0  0
  7  8  1  0  0  0  0
  8 16  1  6  0  0  0
  8  9  1  0  0  0  0
  8 24  1  0  0  0  0
  9 10  1  0  0  0  0
  9 18  1  0  0  0  0
 10 19  1  0  0  0  0
 11 20  1  0  0  0  0
 11 10  1  0  0  0  0
 12  7  1  0  0  0  0
 12 11  1  0  0  0  0
 13  1  1  0  0  0  0
 14  2  1  0  0  0  0
 15  3  1  0  0  0  0
 17  9  1  0  0  0  0
 21 11  1  0  0  0  0
 22 12  1  0  0  0  0
 23 12  1  0  0  0  0
 24 28  1  0  0  0  0
 24 25  2  0  0  0  0
 25 26  1  0  0  0  0
 26 30  1  0  0  0  0
 27 26  1  0  0  0  0
 27 32  1  0  0  0  0
 28 27  2  0  0  0  0
 29 25  1  0  0  0  0
 31 32  2  0  0  0  0
 31 37  1  0  0  0  0
 32 33  1  0  0  0  0
 33 34  1  0  0  0  0
 33 35  2  0  0  0  0
 36 35  1  0  0  0  0
 37 36  2  0  0  0  0
 38 31  1  0  0  0  0
 39 38  1  0  0  0  0
 40 37  1  0  0  0  0
 41 40  1  0  0  0  0
M  END
>  <minimizedAffinity>
-6.52376938

$$$$

 OpenBabel03242520433D

 41 44  0  0  1  0  0  0  0  0999 V2000
   42.6310   30.0510   39.2160 C   0  0  0  0  0  0  0  0  0  0  0  0
   42.5380   29.3050   38.0190 C   0  0  0  0  0  0  0  0  0  0  0  0
   41.3250   29.3850   37.2740 C   0  0  0  0  0  0  0  0  0  0  0  0
   40.3130   30.1750   37.7520 N   0  0  0  0  0  0  0  0  0  0  0  0
   40.4620   30.8660   38.9060 C   0  0  0  0  0  0  0  0  0  0  0  0
   41.6090   30.7990   39.6240 N   0  0  0  0  0  0  0  0  0  0  0  0
   39.3770   31.6430   39.3170 N   0  0  0  0  0  0  0  0  0  0  0  0
   38.1060   31.0490   39.5680 C   0  0  2  0  0  0  0  0  0  0  0  0
   36.9800   32.0090   39.7340 C   0  0  0  0  0  0  0  0  0  0  0  0
   37.2960   33.2790   40.2740 N   0  0  0  0  0  0  0  0  0  0  0  0
   38.6530   33.4450   40.6490 C   0  0  0  0  0  0  0  0  0  0  0  0
   39.5360   33.0690   39.4920 C   0  0  0  0  0  0  0  0  0  0  0  0
   43.5490   29.9920   39.7830 H   0  0  0  0  0  0  0  0  0  0  0  0
   43.3770   28.7120   37.7160 H   0  0  0  0  0  0  0  0  0  0  0  0
   41.2540   28.8200   36.3670 H   0  0  0  0  0  0  0  0  0  0  0  0
   37.8440   30.4910   38.6160 H   0  0  0  0  0  0  0  0  0  0  0  0
   36.4160   32.1860   38.7940 H   0  0  0  0  0  0  0  0  0  0  0  0
   36.2350   31.5030   40.4130 H   0  0  0  0  0  0  0  0  0  0  0  0
   36.5790   33.7180   40.8580 H   0  0  0  0  0  0  0  0  0  0  0  0
   38.9150   32.9550   41.5830 H   0  0  0  0  0  0  0  0  0  0  0  0
   38.7890   34.5500   40.8590 H   0  0  0  0  0  0  0  0  0  0  0  0
   39.2640   33.6610   38.6110 H   0  0  0  0  0  0  0  0  0  0  0  0
   40.5860   33.2340   39.8290 H   0  0  0  0  0  0  0  0  0  0  0  0
   38.1710   30.0370   40.6560 C   0  0  0  0  0  0  0  0  0  0  0  0
   38.3340   30.1420   42.0160 C   0  0  0  0  0  0  0  0  0  0  0  0
   38.3180   28.9420   42.6100 N   0  0  0  0  0  0  0  0  0  0  0  0
   38.1440   28.0630   41.6250 C   0  0  0  0  0  0  0  0  0  0  0  0
   38.0550   28.7100   40.4580 N   0  0  0  0  0  0  0  0  0  0  0  0
   38.4620   31.0770   42.5410 H   0  0  0  0  0  0  0  0  0  0  0  0
   38.4190   28.7130   43.6230 H   0  0  0  0  0  0  0  0  0  0  0  0
   38.9330   25.8100   42.4350 C   0  0  0  0  0  0  0  0  0  0  0  0
   38.0490   26.5880   41.7050 C   0  0  0  0  0  0  0  0  0  0  0  0
   37.0060   25.9930   40.9940 C   0  0  0  0  0  0  0  0  0  0  0  0
   36.3080   26.5970   40.4180 H   0  0  0  0  0  0  0  0  0  0  0  0
   36.9070   24.6340   41.0590 C   0  0  0  0  0  3  0  0  0  0  0  0
   37.7750   23.8570   41.7790 C   0  0  0  0  0  3  0  0  0  0  0  0
   38.8200   24.4460   42.4900 C   0  0  0  0  0  0  0  0  0  0  0  0
   39.9520   26.4800   43.1200 O   0  0  0  0  0  0  0  0  0  0  0  0
   39.7110   26.9470   43.9910 H   0  0  0  0  0  0  0  0  0  0  0  0
   39.7010   23.6840   43.2180 O   0  0  0  0  0  0  0  0  0  0  0  0
   39.4860   23.1550   44.0520 H   0  0  0  0  0  0  0  0  0  0  0  0
  1  6  1  0  0  0  0
  1 13  1  0  0  0  0
  2  1  2  0  0  0  0
  3  4  2  0  0  0  0
  3  2  1  0  0  0  0
  4  5  1  0  0  0  0
  5  7  1  0  0  0  0
  5  6  2  0  0  0  0
  7 12  1  0  0  0  0
  7  8  1  0  0  0  0
  8 16  1  6  0  0  0
  8  9  1  0  0  0  0
  8 24  1  0  0  0  0
  9 10  1  0  0  0  0
  9 18  1  0  0  0  0
 10 11  1  0  0  0  0
 10 19  1  0  0  0  0
 11 21  1  0  0  0  0
 11 20  1  0  0  0  0
 12 23  1  0  0  0  0
 12 11  1  0  0  0  0
 14  2  1  0  0  0  0
 15  3  1  0  0  0  0
 17  9  1  0  0  0  0
 22 12  1  0  0  0  0
 24 25  2  0  0  0  0
 25 29  1  0  0  0  0
 25 26  1  0  0  0  0
 26 30  1  0  0  0  0
 27 32  1  0  0  0  0
 27 26  1  0  0  0  0
 28 24  1  0  0  0  0
 28 27  2  0  0  0  0
 31 37  1  0  0  0  0
 31 38  1  0  0  0  0
 32 31  2  0  0  0  0
 33 35  2  0  0  0  0
 33 32  1  0  0  0  0
 34 33  1  0  0  0  0
 35 36  1  0  0  0  0
 36 37  2  0  0  0  0
 37 40  1  0  0  0  0
 38 39  1  0  0  0  0
 40 41  1  0  0  0  0
M  END
>  <minimizedAffinity>
-6.46787548

$$$$

 OpenBabel03242520433D

 41 44  0  0  1  0  0  0  0  0999 V2000
   38.6490   28.1660   36.8420 C   0  0  0  0  0  0  0  0  0  0  0  0
   37.4690   28.0650   36.0690 C   0  0  0  0  0  0  0  0  0  0  0  0
   36.6020   29.1950   36.0250 C   0  0  0  0  0  0  0  0  0  0  0  0
   36.9490   30.3170   36.7290 N   0  0  0  0  0  0  0  0  0  0  0  0
   38.0940   30.3530   37.4520 C   0  0  0  0  0  0  0  0  0  0  0  0
   38.9280   29.2870   37.5030 N   0  0  0  0  0  0  0  0  0  0  0  0
   38.3650   31.5380   38.1390 N   0  0  0  0  0  0  0  0  0  0  0  0
   37.4600   32.0380   39.1200 C   0  0  2  0  0  0  0  0  0  0  0  0
   37.7280   33.4290   39.5790 C   0  0  0  0  0  0  0  0  0  0  0  0
   39.0770   33.8590   39.5630 N   0  0  0  0  0  0  0  0  0  0  0  0
   40.0120   32.8700   39.1690 C   0  0  0  0  0  0  0  0  0  0  0  0
   39.5770   32.2730   37.8590 C   0  0  0  0  0  0  0  0  0  0  0  0
   39.3090   27.3100   36.8780 H   0  0  0  0  0  0  0  0  0  0  0  0
   37.2730   27.1500   35.5490 H   0  0  0  0  0  0  0  0  0  0  0  0
   35.7080   29.1200   35.4400 H   0  0  0  0  0  0  0  0  0  0  0  0
   36.4600   32.1180   38.5900 H   0  0  0  0  0  0  0  0  0  0  0  0
   37.1370   34.1900   39.0270 H   0  0  0  0  0  0  0  0  0  0  0  0
   37.3410   33.4900   40.6360 H   0  0  0  0  0  0  0  0  0  0  0  0
   39.3540   34.5170   40.2970 H   0  0  0  0  0  0  0  0  0  0  0  0
   40.2290   32.1350   39.9400 H   0  0  0  0  0  0  0  0  0  0  0  0
   40.9940   33.4110   39.0060 H   0  0  0  0  0  0  0  0  0  0  0  0
   39.4580   33.0660   37.1110 H   0  0  0  0  0  0  0  0  0  0  0  0
   40.3510   31.5190   37.5830 H   0  0  0  0  0  0  0  0  0  0  0  0
   37.2750   31.0820   40.2440 C   0  0  0  0  0  0  0  0  0  0  0  0
   36.1990   30.7860   41.0460 C   0  0  0  0  0  0  0  0  0  0  0  0
   36.4940   29.8300   41.9360 N   0  0  0  0  0  0  0  0  0  0  0  0
   37.7660   29.5110   41.7030 C   0  0  0  0  0  0  0  0  0  0  0  0
   38.2360   30.2540   40.6950 N   0  0  0  0  0  0  0  0  0  0  0  0
   35.2360   31.2670   40.9700 H   0  0  0  0  0  0  0  0  0  0  0  0
   35.8820   29.4070   42.6670 H   0  0  0  0  0  0  0  0  0  0  0  0
   39.9420   28.7330   42.7100 C   0  0  0  0  0  0  0  0  0  0  0  0
   38.6120   28.5110   42.3910 C   0  0  0  0  0  0  0  0  0  0  0  0
   38.0010   27.2990   42.7150 C   0  0  0  0  0  0  0  0  0  0  0  0
   36.9570   27.1160   42.4670 H   0  0  0  0  0  0  0  0  0  0  0  0
   38.7690   26.3670   43.3500 C   0  0  0  0  0  3  0  0  0  0  0  0
   40.0840   26.5780   43.6700 C   0  0  0  0  0  3  0  0  0  0  0  0
   40.7000   27.7860   43.3490 C   0  0  0  0  0  0  0  0  0  0  0  0
   40.4820   29.9720   42.3530 O   0  0  0  0  0  0  0  0  0  0  0  0
   40.2540   30.7750   42.9340 H   0  0  0  0  0  0  0  0  0  0  0  0
   42.0160   28.0180   43.6610 O   0  0  0  0  0  0  0  0  0  0  0  0
   42.4020   28.1150   44.5910 H   0  0  0  0  0  0  0  0  0  0  0  0
  1 13  1  0  0  0  0
  1  6  1  0  0  0  0
  2  1  2  0  0  0  0
  3  2  1  0  0  0  0
  3  4  2  0  0  0  0
  4  5  1  0  0  0  0
  5  6  2  0  0  0  0
  5  7  1  0  0  0  0
  7  8  1  0  0  0  0
  8 16  1  6  0  0  0
  8  9  1  0  0  0  0
  8 24  1  0  0  0  0
  9 18  1  0  0  0  0
 10  9  1  0  0  0  0
 10 19  1  0  0  0  0
 11 10  1  0  0  0  0
 11 20  1  0  0  0  0
 12  7  1  0  0  0  0
 12 11  1  0  0  0  0
 14  2  1  0  0  0  0
 15  3  1  0  0  0  0
 17  9  1  0  0  0  0
 21 11  1  0  0  0  0
 22 12  1  0  0  0  0
 23 12  1  0  0  0  0
 24 28  1  0  0  0  0
 24 25  2  0  0  0  0
 25 26  1  0  0  0  0
 26 30  1  0  0  0  0
 27 26  1  0  0  0  0
 27 32  1  0  0  0  0
 28 27  2  0  0  0  0
 29 25  1  0  0  0  0
 31 37  1  0  0  0  0
 32 31  2  0  0  0  0
 32 33  1  0  0  0  0
 33 35  2  0  0  0  0
 34 33  1  0  0  0  0
 35 36  1  0  0  0  0
 37 40  1  0  0  0  0
 37 36  2  0  0  0  0
 38 31  1  0  0  0  0
 38 39  1  0  0  0  0
 40 41  1  0  0  0  0
M  END
>  <minimizedAffinity>
-6.40288496

$$$$

 OpenBabel03242520433D

 41 44  0  0  1  0  0  0  0  0999 V2000
   38.2660   27.8810   36.3010 C   0  0  0  0  0  0  0  0  0  0  0  0
   37.1400   27.8860   35.4460 C   0  0  0  0  0  0  0  0  0  0  0  0
   36.3290   29.0590   35.4180 C   0  0  0  0  0  0  0  0  0  0  0  0
   36.6770   30.1160   36.2150 N   0  0  0  0  0  0  0  0  0  0  0  0
   37.7680   30.0510   37.0130 C   0  0  0  0  0  0  0  0  0  0  0  0
   38.5480   28.9440   37.0510 N   0  0  0  0  0  0  0  0  0  0  0  0
   38.0440   31.1770   37.7930 N   0  0  0  0  0  0  0  0  0  0  0  0
   37.0950   31.6580   38.7410 C   0  0  2  0  0  0  0  0  0  0  0  0
   37.3920   33.0040   39.3070 C   0  0  0  0  0  0  0  0  0  0  0  0
   38.7570   33.3670   39.4100 N   0  0  0  0  0  0  0  0  0  0  0  0
   39.6720   32.3590   39.0150 C   0  0  0  0  0  0  0  0  0  0  0  0
   39.3040   31.8670   37.6430 C   0  0  0  0  0  0  0  0  0  0  0  0
   38.8830   26.9940   36.3250 H   0  0  0  0  0  0  0  0  0  0  0  0
   36.9400   27.0160   34.8550 H   0  0  0  0  0  0  0  0  0  0  0  0
   35.4760   29.0640   34.7700 H   0  0  0  0  0  0  0  0  0  0  0  0
   36.1400   31.8210   38.1510 H   0  0  0  0  0  0  0  0  0  0  0  0
   36.8770   33.8260   38.7680 H   0  0  0  0  0  0  0  0  0  0  0  0
   36.9350   33.0190   40.3370 H   0  0  0  0  0  0  0  0  0  0  0  0
   39.0110   33.9640   40.2020 H   0  0  0  0  0  0  0  0  0  0  0  0
   39.8010   31.5680   39.7500 H   0  0  0  0  0  0  0  0  0  0  0  0
   40.6860   32.8610   38.9550 H   0  0  0  0  0  0  0  0  0  0  0  0
   39.2730   32.7090   36.9430 H   0  0  0  0  0  0  0  0  0  0  0  0
   40.0610   31.0940   37.3720 H   0  0  0  0  0  0  0  0  0  0  0  0
   36.7890   30.6450   39.7860 C   0  0  0  0  0  0  0  0  0  0  0  0
   36.2430   30.7410   41.0420 C   0  0  0  0  0  0  0  0  0  0  0  0
   36.1410   29.5420   41.6300 N   0  0  0  0  0  0  0  0  0  0  0  0
   36.6260   28.6720   40.7440 C   0  0  0  0  0  0  0  0  0  0  0  0
   37.0120   29.3250   39.6430 N   0  0  0  0  0  0  0  0  0  0  0  0
   35.9350   31.6680   41.5020 H   0  0  0  0  0  0  0  0  0  0  0  0
   35.7690   29.3070   42.5760 H   0  0  0  0  0  0  0  0  0  0  0  0
   36.4490   26.3280   39.8340 C   0  0  0  0  0  0  0  0  0  0  0  0
   36.7560   27.2040   40.8640 C   0  0  0  0  0  0  0  0  0  0  0  0
   37.2140   26.7180   42.0890 C   0  0  0  0  0  0  0  0  0  0  0  0
   37.4570   27.3990   42.9030 H   0  0  0  0  0  0  0  0  0  0  0  0
   37.3400   25.3650   42.2130 C   0  0  0  0  0  3  0  0  0  0  0  0
   37.0390   24.4930   41.2010 C   0  0  0  0  0  3  0  0  0  0  0  0
   36.5810   24.9720   39.9750 C   0  0  0  0  0  0  0  0  0  0  0  0
   35.9970   26.8910   38.6370 O   0  0  0  0  0  0  0  0  0  0  0  0
   36.6880   27.3080   38.0170 H   0  0  0  0  0  0  0  0  0  0  0  0
   36.2740   24.1140   38.9480 O   0  0  0  0  0  0  0  0  0  0  0  0
   36.9280   23.5400   38.4330 H   0  0  0  0  0  0  0  0  0  0  0  0
  1 13  1  0  0  0  0
  1  6  1  0  0  0  0
  2  1  2  0  0  0  0
  3  2  1  0  0  0  0
  3  4  2  0  0  0  0
  4  5  1  0  0  0  0
  5  6  2  0  0  0  0
  5  7  1  0  0  0  0
  7  8  1  0  0  0  0
  8 16  1  6  0  0  0
  8  9  1  0  0  0  0
  8 24  1  0  0  0  0
  9 10  1  0  0  0  0
  9 18  1  0  0  0  0
 10 19  1  0  0  0  0
 11 10  1  0  0  0  0
 11 20  1  0  0  0  0
 12  7  1  0  0  0  0
 12 11  1  0  0  0  0
 14  2  1  0  0  0  0
 15  3  1  0  0  0  0
 17  9  1  0  0  0  0
 21 11  1  0  0  0  0
 22 12  1  0  0  0  0
 23 12  1  0  0  0  0
 24 25  2  0  0  0  0
 25 29  1  0  0  0  0
 25 26  1  0  0  0  0
 26 30  1  0  0  0  0
 27 32  1  0  0  0  0
 27 26  1  0  0  0  0
 28 24  1  0  0  0  0
 28 27  2  0  0  0  0
 31 37  2  0  0  0  0
 31 32  1  0  0  0  0
 32 33  2  0  0  0  0
 33 35  1  0  0  0  0
 33 34  1  0  0  0  0
 36 35  2  0  0  0  0
 37 36  1  0  0  0  0
 38 31  1  0  0  0  0
 39 38  1  0  0  0  0
 40 37  1  0  0  0  0
 41 40  1  0  0  0  0
M  END
>  <minimizedAffinity>
-6.34461117

$$$$

 OpenBabel03242520433D

 41 44  0  0  1  0  0  0  0  0999 V2000
   38.5560   27.4020   41.2480 C   0  0  0  0  0  0  0  0  0  0  0  0
   37.8660   27.3020   42.4780 C   0  0  0  0  0  0  0  0  0  0  0  0
   37.0340   28.3920   42.8680 C   0  0  0  0  0  0  0  0  0  0  0  0
   36.9440   29.4780   42.0390 N   0  0  0  0  0  0  0  0  0  0  0  0
   37.6300   29.5150   40.8720 C   0  0  0  0  0  0  0  0  0  0  0  0
   38.4230   28.4870   40.4890 N   0  0  0  0  0  0  0  0  0  0  0  0
   37.4780   30.6640   40.0920 N   0  0  0  0  0  0  0  0  0  0  0  0
   37.8290   31.9460   40.6050 C   0  0  2  0  0  0  0  0  0  0  0  0
   37.3720   33.1030   39.7840 C   0  0  0  0  0  0  0  0  0  0  0  0
   37.2660   32.8930   38.3880 N   0  0  0  0  0  0  0  0  0  0  0  0
   37.6760   31.6110   37.9460 C   0  0  0  0  0  0  0  0  0  0  0  0
   36.9610   30.5590   38.7470 C   0  0  0  0  0  0  0  0  0  0  0  0
   39.1870   26.5770   40.9500 H   0  0  0  0  0  0  0  0  0  0  0  0
   37.9920   26.4160   43.0680 H   0  0  0  0  0  0  0  0  0  0  0  0
   36.5110   28.3160   43.8000 H   0  0  0  0  0  0  0  0  0  0  0  0
   37.2410   32.0530   41.5690 H   0  0  0  0  0  0  0  0  0  0  0  0
   36.4030   33.5230   40.1250 H   0  0  0  0  0  0  0  0  0  0  0  0
   38.1140   33.9310   39.9700 H   0  0  0  0  0  0  0  0  0  0  0  0
   37.4720   33.6980   37.7890 H   0  0  0  0  0  0  0  0  0  0  0  0
   38.7550   31.4820   37.9070 H   0  0  0  0  0  0  0  0  0  0  0  0
   37.3400   31.5280   36.8660 H   0  0  0  0  0  0  0  0  0  0  0  0
   35.8780   30.7070   38.6710 H   0  0  0  0  0  0  0  0  0  0  0  0
   37.3010   29.5740   38.3500 H   0  0  0  0  0  0  0  0  0  0  0  0
   39.2690   32.0260   40.9680 C   0  0  0  0  0  0  0  0  0  0  0  0
   39.9760   31.5950   42.0640 C   0  0  0  0  0  0  0  0  0  0  0  0
   41.2800   31.8780   41.9540 N   0  0  0  0  0  0  0  0  0  0  0  0
   41.4090   32.4930   40.7790 C   0  0  0  0  0  0  0  0  0  0  0  0
   40.2130   32.5830   40.1870 N   0  0  0  0  0  0  0  0  0  0  0  0
   39.5350   31.0930   42.9130 H   0  0  0  0  0  0  0  0  0  0  0  0
   42.0530   31.6750   42.6240 H   0  0  0  0  0  0  0  0  0  0  0  0
   42.7090   33.3500   38.7960 C   0  0  0  0  0  0  0  0  0  0  0  0
   42.6330   33.0270   40.1420 C   0  0  0  0  0  0  0  0  0  0  0  0
   43.7420   33.1970   40.9720 C   0  0  0  0  0  0  0  0  0  0  0  0
   43.6900   32.9460   42.0300 H   0  0  0  0  0  0  0  0  0  0  0  0
   44.8770   33.6890   40.3980 C   0  0  0  0  0  3  0  0  0  0  0  0
   44.9610   34.0110   39.0700 C   0  0  0  0  0  3  0  0  0  0  0  0
   43.8580   33.8430   38.2350 C   0  0  0  0  0  0  0  0  0  0  0  0
   41.5560   33.1510   38.0300 O   0  0  0  0  0  0  0  0  0  0  0  0
   40.8100   33.8380   38.1080 H   0  0  0  0  0  0  0  0  0  0  0  0
   43.9210   34.1610   36.9010 O   0  0  0  0  0  0  0  0  0  0  0  0
   44.0230   35.0870   36.5110 H   0  0  0  0  0  0  0  0  0  0  0  0
  1  2  1  0  0  0  0
  2  3  2  0  0  0  0
  2 14  1  0  0  0  0
  3 15  1  0  0  0  0
  4  3  1  0  0  0  0
  5  4  2  0  0  0  0
  6  5  1  0  0  0  0
  6  1  2  0  0  0  0
  7  8  1  0  0  0  0
  7  5  1  0  0  0  0
  8 24  1  0  0  0  0
  8 16  1  1  0  0  0
  9 18  1  0  0  0  0
  9 17  1  0  0  0  0
  9  8  1  0  0  0  0
 10  9  1  0  0  0  0
 11 10  1  0  0  0  0
 11 12  1  0  0  0  0
 12  7  1  0  0  0  0
 13  1  1  0  0  0  0
 19 10  1  0  0  0  0
 20 11  1  0  0  0  0
 21 11  1  0  0  0  0
 22 12  1  0  0  0  0
 23 12  1  0  0  0  0
 24 25  2  0  0  0  0
 25 29  1  0  0  0  0
 26 25  1  0  0  0  0
 26 30  1  0  0  0  0
 27 26  1  0  0  0  0
 28 27  2  0  0  0  0
 28 24  1  0  0  0  0
 31 32  1  0  0  0  0
 32 27  1  0  0  0  0
 32 33  2  0  0  0  0
 33 34  1  0  0  0  0
 35 33  1  0  0  0  0
 36 35  2  0  0  0  0
 37 31  2  0  0  0  0
 37 36  1  0  0  0  0
 38 39  1  0  0  0  0
 38 31  1  0  0  0  0
 40 37  1  0  0  0  0
 41 40  1  0  0  0  0
M  END
>  <minimizedAffinity>
-6.18504381

$$$$

 OpenBabel03242520433D

 41 44  0  0  1  0  0  0  0  0999 V2000
   44.1890   28.9640   37.8340 C   0  0  0  0  0  0  0  0  0  0  0  0
   45.0530   29.4730   36.8370 C   0  0  0  0  0  0  0  0  0  0  0  0
   45.3630   30.8640   36.8690 C   0  0  0  0  0  0  0  0  0  0  0  0
   44.8120   31.6370   37.8560 N   0  0  0  0  0  0  0  0  0  0  0  0
   43.9900   31.0910   38.7830 C   0  0  0  0  0  0  0  0  0  0  0  0
   43.6880   29.7710   38.7650 N   0  0  0  0  0  0  0  0  0  0  0  0
   43.4730   31.9560   39.7510 N   0  0  0  0  0  0  0  0  0  0  0  0
   42.6810   33.0800   39.3770 C   0  0  2  0  0  0  0  0  0  0  0  0
   42.4210   34.0620   40.4660 C   0  0  0  0  0  0  0  0  0  0  0  0
   42.3650   33.5530   41.7860 N   0  0  0  0  0  0  0  0  0  0  0  0
   42.5020   32.1460   41.8870 C   0  0  0  0  0  0  0  0  0  0  0  0
   43.7400   31.7150   41.1500 C   0  0  0  0  0  0  0  0  0  0  0  0
   43.9520   27.9100   37.8120 H   0  0  0  0  0  0  0  0  0  0  0  0
   45.4420   28.7990   36.1010 H   0  0  0  0  0  0  0  0  0  0  0  0
   46.0180   31.2500   36.1140 H   0  0  0  0  0  0  0  0  0  0  0  0
   43.3170   33.6610   38.6380 H   0  0  0  0  0  0  0  0  0  0  0  0
   43.1430   34.9050   40.4730 H   0  0  0  0  0  0  0  0  0  0  0  0
   41.4320   34.5450   40.2220 H   0  0  0  0  0  0  0  0  0  0  0  0
   41.7190   34.0210   42.4280 H   0  0  0  0  0  0  0  0  0  0  0  0
   41.6070   31.5940   41.6100 H   0  0  0  0  0  0  0  0  0  0  0  0
   42.6450   31.9210   42.9880 H   0  0  0  0  0  0  0  0  0  0  0  0
   44.6100   32.2540   41.5400 H   0  0  0  0  0  0  0  0  0  0  0  0
   43.8120   30.6090   41.2750 H   0  0  0  0  0  0  0  0  0  0  0  0
   41.4460   32.6740   38.6540 C   0  0  0  0  0  0  0  0  0  0  0  0
   41.0630   32.7750   37.3390 C   0  0  0  0  0  0  0  0  0  0  0  0
   39.8450   32.2550   37.1370 N   0  0  0  0  0  0  0  0  0  0  0  0
   39.4460   31.8190   38.3310 C   0  0  0  0  0  0  0  0  0  0  0  0
   40.3970   32.0660   39.2390 N   0  0  0  0  0  0  0  0  0  0  0  0
   41.6670   33.2200   36.5630 H   0  0  0  0  0  0  0  0  0  0  0  0
   39.3000   32.1910   36.2500 H   0  0  0  0  0  0  0  0  0  0  0  0
   37.4880   31.4280   39.8700 C   0  0  0  0  0  0  0  0  0  0  0  0
   38.1760   31.1550   38.6980 C   0  0  0  0  0  0  0  0  0  0  0  0
   37.6820   30.2150   37.7920 C   0  0  0  0  0  0  0  0  0  0  0  0
   38.2160   29.9960   36.8700 H   0  0  0  0  0  0  0  0  0  0  0  0
   36.5110   29.5950   38.1180 C   0  0  0  0  0  3  0  0  0  0  0  0
   35.8250   29.8590   39.2730 C   0  0  0  0  0  3  0  0  0  0  0  0
   36.3130   30.7960   40.1820 C   0  0  0  0  0  0  0  0  0  0  0  0
   38.0470   32.3810   40.7260 O   0  0  0  0  0  0  0  0  0  0  0  0
   37.9330   33.3630   40.4830 H   0  0  0  0  0  0  0  0  0  0  0  0
   35.6390   31.0740   41.3450 O   0  0  0  0  0  0  0  0  0  0  0  0
   34.7400   31.5300   41.4210 H   0  0  0  0  0  0  0  0  0  0  0  0
  1  6  1  0  0  0  0
  2  3  1  0  0  0  0
  2  1  2  0  0  0  0
  3  4  2  0  0  0  0
  4  5  1  0  0  0  0
  5  7  1  0  0  0  0
  6  5  2  0  0  0  0
  7 12  1  0  0  0  0
  8 16  1  6  0  0  0
  8  7  1  0  0  0  0
  8  9  1  0  0  0  0
  9 17  1  0  0  0  0
  9 10  1  0  0  0  0
 10 11  1  0  0  0  0
 10 19  1  0  0  0  0
 11 21  1  0  0  0  0
 12 23  1  0  0  0  0
 12 22  1  0  0  0  0
 12 11  1  0  0  0  0
 13  1  1  0  0  0  0
 14  2  1  0  0  0  0
 15  3  1  0  0  0  0
 18  9  1  0  0  0  0
 20 11  1  0  0  0  0
 24 28  1  0  0  0  0
 24  8  1  0  0  0  0
 25 24  2  0  0  0  0
 26 25  1  0  0  0  0
 26 27  1  0  0  0  0
 27 32  1  0  0  0  0
 27 28  2  0  0  0  0
 29 25  1  0  0  0  0
 30 26  1  0  0  0  0
 31 37  1  0  0  0  0
 31 38  1  0  0  0  0
 32 31  2  0  0  0  0
 33 35  2  0  0  0  0
 33 32  1  0  0  0  0
 34 33  1  0  0  0  0
 35 36  1  0  0  0  0
 36 37  2  0  0  0  0
 37 40  1  0  0  0  0
 39 38  1  0  0  0  0
 40 41  1  0  0  0  0
M  END
>  <minimizedAffinity>
-6.18347263

$$$$
