REMARK  Name = 
REMARK  7 active torsions:
REMARK  status: ('A' for Active; 'I' for Inactive)
REMARK    1  A    between atoms: C_3  and  C_14
REMARK    2  A    between atoms: C_5  and  C_7
REMARK    3  A    between atoms: C_12  and  N_13
REMARK    4  A    between atoms: C_18  and  O_20
REMARK    5  A    between atoms: O_20  and  C_38
REMARK    6  A    between atoms: O_36  and  C_37
REMARK    7  A    between atoms: C_43  and  O_44
REMARK                            x       y       z     vdW  Elec       q    Type
REMARK                         _______ _______ _______ _____ _____    ______ ____
ROOT
ATOM      1  C   UNL     1      44.565  35.583  44.608  0.00  0.00    +0.000 A 
ATOM      2  C   UNL     1      45.225  35.591  43.361  0.00  0.00    +0.000 A 
ATOM      3  C   UNL     1      46.323  34.680  43.179  0.00  0.00    +0.000 A 
ATOM      4  N   UNL     1      46.660  33.872  44.203  0.00  0.00    +0.000 NA
ATOM      5  C   UNL     1      46.011  33.893  45.370  0.00  0.00    +0.000 A 
ATOM      6  N   UNL     1      44.954  34.748  45.590  0.00  0.00    +0.000 NA
ATOM      7  H   UNL     1      43.734  36.252  44.788  0.00  0.00    +0.000 HD
ATOM      8  H   UNL     1      44.909  36.255  42.593  0.00  0.00    +0.000 HD
ENDROOT
BRANCH   5   9
ATOM      9  C   UNL     1      46.429  32.983  46.468  0.00  0.00    +0.000 C 
ATOM     10  C   UNL     1      46.969  31.754  45.768  0.00  0.00    +0.000 C 
ATOM     11  C   UNL     1      46.102  30.566  45.778  0.00  0.00    +0.000 C 
ATOM     12  C   UNL     1      45.818  30.300  47.257  0.00  0.00    +0.000 C 
ATOM     13  C   UNL     1      45.021  31.358  47.870  0.00  0.00    +0.000 C 
ATOM     14  C   UNL     1      45.386  32.730  47.419  0.00  0.00    +0.000 C 
ATOM     15  H   UNL     1      47.276  33.520  46.969  0.00  0.00    +0.000 HD
ATOM     16  H   UNL     1      47.920  31.483  46.276  0.00  0.00    +0.000 HD
ATOM     17  H   UNL     1      47.270  31.952  44.713  0.00  0.00    +0.000 HD
ATOM     18  H   UNL     1      45.167  30.723  45.228  0.00  0.00    +0.000 HD
ATOM     19  H   UNL     1      46.672  29.707  45.429  0.00  0.00    +0.000 HD
ATOM     20  H   UNL     1      46.759  30.077  47.757  0.00  0.00    +0.000 HD
ATOM     21  H   UNL     1      45.172  29.398  47.251  0.00  0.00    +0.000 HD
ATOM     22  H   UNL     1      44.214  31.338  48.589  0.00  0.00    +0.000 HD
BRANCH  14  23
ATOM     23  N   UNL     1      44.690  33.865  47.931  0.00  0.00    +0.000 N 
ATOM     24  H   UNL     1      45.310  34.318  48.616  0.00  0.00    +0.000 HD
ATOM     25  H   UNL     1      43.728  34.043  47.553  0.00  0.00    +0.000 HD
ENDBRANCH  14  23
ENDBRANCH   5   9
BRANCH   3  26
ATOM     26  C   UNL     1      47.018  34.665  41.907  0.00  0.00    +0.000 A 
ATOM     27  C   UNL     1      48.156  35.377  41.776  0.00  0.00    +0.000 A 
ATOM     28  C   UNL     1      48.779  35.336  40.522  0.00  0.00    +0.000 A 
ATOM     29  C   UNL     1      48.167  34.572  39.544  0.00  0.00    +0.000 A 
ATOM     30  C   UNL     1      47.006  33.846  39.681  0.00  0.00    +0.000 A 
ATOM     31  N   UNL     1      46.450  33.925  40.921  0.00  0.00    +0.000 NA
ATOM     32  H   UNL     1      48.586  35.956  42.579  0.00  0.00    +0.000 HD
ATOM     33  H   UNL     1      49.693  35.890  40.367  0.00  0.00    +0.000 HD
ATOM     34  H   UNL     1      48.710  34.596  38.608  0.00  0.00    +0.000 HD
BRANCH  30  35
ATOM     35  O   UNL     1      46.463  33.119  38.663  0.00  0.00    +0.000 OA
BRANCH  35  37
ATOM     36  C   UNL     1      46.878  33.782  36.336  0.00  0.00    +0.000 A 
ATOM     37  C   UNL     1      46.896  32.942  37.404  0.00  0.00    +0.000 A 
ATOM     38  C   UNL     1      47.452  31.675  37.182  0.00  0.00    +0.000 A 
ATOM     39  H   UNL     1      47.531  30.895  37.955  0.00  0.00    +0.000 HD
ATOM     40  C   UNL     1      47.958  31.282  35.957  0.00  0.00    +0.000 A 
ATOM     41  C   UNL     1      47.909  32.188  34.910  0.00  0.00    +0.000 A 
ATOM     42  C   UNL     1      47.370  33.443  35.091  0.00  0.00    +0.000 A 
BRANCH  36  43
ATOM     43  O   UNL     1      46.323  35.034  36.577  0.00  0.00    +0.000 OA
ATOM     44  H   UNL     1      45.855  35.474  35.794  0.00  0.00    +0.000 HD
ENDBRANCH  36  43
BRANCH  42  45
ATOM     45  O   UNL     1      47.293  34.390  34.084  0.00  0.00    +0.000 OA
ATOM     46  H   UNL     1      46.359  34.606  33.730  0.00  0.00    +0.000 HD
ENDBRANCH  42  45
ENDBRANCH  35  37
ENDBRANCH  30  35
ENDBRANCH   3  26
TORSDOF 7
