
     RDKit          3D

 25 26  0  0  0  0  0  0  0  0999 V2000
   44.3845   35.7747   44.4255 C   0  0  0  0  0  0  0  0  0  0  0  0
   44.6682   35.0601   43.2589 C   0  0  0  0  0  0  0  0  0  0  0  0
   45.2924   33.8268   43.3955 C   0  0  0  0  0  0  0  0  0  0  0  0
   45.5912   33.3852   44.6456 N   0  0  0  0  0  0  0  0  0  0  0  0
   45.3073   34.0922   45.7489 C   0  0  0  0  0  0  0  0  0  0  0  0
   44.7022   35.2924   45.6535 N   0  0  0  0  0  0  0  0  0  0  0  0
   44.2532   35.7346   42.0091 C   0  0  0  0  0  0  0  0  0  0  0  0
   43.8981   36.7556   44.4784 H   0  0  0  0  0  0  0  0  0  0  0  0
   45.4806   33.3337   42.4693 H   0  0  0  0  0  0  0  0  0  0  0  0
   43.1505   35.6888   41.8631 H   0  0  0  0  0  0  0  0  0  0  0  0
   44.7755   35.2253   41.1753 H   0  0  0  0  0  0  0  0  0  0  0  0
   44.4927   36.8129   42.0936 H   0  0  0  0  0  0  0  0  0  0  0  0
   44.2641   31.7032   46.6518 O   0  0  0  0  0  0  0  0  0  0  0  0
   45.1328   32.3903   47.5206 C   0  0  0  0  0  0  0  0  0  0  0  0
   45.6484   33.5747   47.0698 C   0  0  0  0  0  0  0  0  0  0  0  0
   46.4964   34.2529   47.9086 C   0  0  0  0  0  0  0  0  0  0  0  0
   46.9454   35.1866   47.6375 H   0  0  0  0  0  0  0  0  0  0  0  0
   46.8034   33.7378   49.1585 C   0  0  0  0  0  0  0  0  0  0  0  0
   46.2684   32.5377   49.5905 C   0  0  0  0  0  0  0  0  0  0  0  0
   45.4111   31.8422   48.7549 C   0  0  0  0  0  0  0  0  0  0  0  0
   44.8106   30.6191   49.0853 O   0  0  0  0  0  0  0  0  0  0  0  0
   44.5818   30.9969   46.0133 H   0  0  0  0  0  0  0  0  0  0  0  0
   47.4581   34.2031   49.8787 H   0  0  0  0  0  0  0  0  0  0  0  0
   46.4485   32.0590   50.5436 H   0  0  0  0  0  0  0  0  0  0  0  0
   44.6681   29.9077   48.3713 H   0  0  0  0  0  0  0  0  0  0  0  0
  1  6  2  0
  2  3  2  0
  2  1  1  0
  3  4  1  0
  4  5  2  0
  6  5  1  0
  7  2  1  0
  1  8  1  0
  3  9  1  0
  7 10  1  0
  7 11  1  0
  7 12  1  0
 13 14  1  0
 14 15  2  0
 15 16  1  0
 16 17  1  0
 16 18  2  0
 18 19  1  0
 19 20  2  0
 20 21  1  0
 20 14  1  0
 13 22  1  0
 18 23  1  0
 19 24  1  0
 21 25  1  0
  5 15  1  0
M  ISO  6   8  14   9  14  10   8  11   8  12   8  17  16
M  END
>  <DihAtoms>  (1) 
3,4,14,13

>  <DihDeg>  (1) 
-179.99571611363953

$$$$
