
     RDKit          3D

 25 26  0  0  0  0  0  0  0  0999 V2000
   44.3765   35.7698   44.4334 C   0  0  0  0  0  0  0  0  0  0  0  0
   44.6610   35.0466   43.2636 C   0  0  0  0  0  0  0  0  0  0  0  0
   45.2873   33.8200   43.4036 C   0  0  0  0  0  0  0  0  0  0  0  0
   45.5849   33.4037   44.6267 N   0  0  0  0  0  0  0  0  0  0  0  0
   45.3168   34.0914   45.7445 C   0  0  0  0  0  0  0  0  0  0  0  0
   44.7036   35.2975   45.6697 N   0  0  0  0  0  0  0  0  0  0  0  0
   44.2689   35.7369   41.9955 C   0  0  0  0  0  0  0  0  0  0  0  0
   43.8851   36.7267   44.3881 H   0  0  0  0  0  0  0  0  0  0  0  0
   45.6096   33.6529   46.7030 H   0  0  0  0  0  0  0  0  0  0  0  0
   45.0686   36.5296   41.8308 H   0  0  0  0  0  0  0  0  0  0  0  0
   44.1891   35.1002   41.1246 H   0  0  0  0  0  0  0  0  0  0  0  0
   43.3534   36.3311   42.2006 H   0  0  0  0  0  0  0  0  0  0  0  0
   43.6862   31.8268   42.1165 O   0  0  0  0  0  0  0  0  0  0  0  0
   44.8484   32.2373   41.4473 C   0  0  0  0  0  0  0  0  0  0  0  0
   45.5488   33.1709   42.1473 C   0  0  0  0  0  0  0  0  0  0  0  0
   46.7340   33.6442   41.5534 C   0  0  0  0  0  0  0  0  0  0  0  0
   47.4133   34.3722   41.9857 H   0  0  0  0  0  0  0  0  0  0  0  0
   47.1772   33.2014   40.3352 C   0  0  0  0  0  0  0  0  0  0  0  0
   46.4070   32.2427   39.6718 C   0  0  0  0  0  0  0  0  0  0  0  0
   45.2411   31.7385   40.1962 C   0  0  0  0  0  0  0  0  0  0  0  0
   44.3916   30.7947   39.6501 O   0  0  0  0  0  0  0  0  0  0  0  0
   43.6973   31.5939   43.1139 H   0  0  0  0  0  0  0  0  0  0  0  0
   48.0792   33.5366   39.8545 H   0  0  0  0  0  0  0  0  0  0  0  0
   46.6974   31.8372   38.7024 H   0  0  0  0  0  0  0  0  0  0  0  0
   44.4933   29.7856   39.8192 H   0  0  0  0  0  0  0  0  0  0  0  0
  1  6  2  0
  2  3  2  0
  2  1  1  0
  3  4  1  0
  4  5  2  0
  6  5  1  0
  7  2  1  0
  1  8  1  0
  5  9  1  0
  7 10  1  0
  7 11  1  0
  7 12  1  0
 13 14  1  0
 14 15  2  0
 15 16  1  0
 16 17  1  0
 16 18  2  0
 18 19  1  0
 19 20  2  0
 20 21  1  0
 20 14  1  0
 13 22  1  0
 18 23  1  0
 19 24  1  0
 21 25  1  0
  3 15  1  0
M  ISO  6   8  14   9  14  10   8  11   8  12   8  17  16
M  END
>  <DihAtoms>  (1) 
1,2,14,13

>  <DihDeg>  (1) 
114.90740111045999

$$$$
