
     RDKit          3D

 25 26  0  0  0  0  0  0  0  0999 V2000
   44.3765   35.7698   44.4334 C   0  0  0  0  0  0  0  0  0  0  0  0
   44.6610   35.0466   43.2636 C   0  0  0  0  0  0  0  0  0  0  0  0
   45.2873   33.8200   43.4036 C   0  0  0  0  0  0  0  0  0  0  0  0
   45.5849   33.4037   44.6267 N   0  0  0  0  0  0  0  0  0  0  0  0
   45.3168   34.0914   45.7445 C   0  0  0  0  0  0  0  0  0  0  0  0
   44.7036   35.2975   45.6697 N   0  0  0  0  0  0  0  0  0  0  0  0
   44.2689   35.7369   41.9955 C   0  0  0  0  0  0  0  0  0  0  0  0
   43.8851   36.7267   44.3881 H   0  0  0  0  0  0  0  0  0  0  0  0
   45.6096   33.6529   46.7030 H   0  0  0  0  0  0  0  0  0  0  0  0
   45.0686   36.5296   41.8308 H   0  0  0  0  0  0  0  0  0  0  0  0
   44.1891   35.1002   41.1246 H   0  0  0  0  0  0  0  0  0  0  0  0
   43.3534   36.3311   42.2006 H   0  0  0  0  0  0  0  0  0  0  0  0
   44.5231   31.1726   42.6287 O   0  0  0  0  0  0  0  0  0  0  0  0
   45.2141   31.9380   41.6781 C   0  0  0  0  0  0  0  0  0  0  0  0
   45.5488   33.1709   42.1473 C   0  0  0  0  0  0  0  0  0  0  0  0
   46.2472   34.0130   41.2615 C   0  0  0  0  0  0  0  0  0  0  0  0
   46.6008   35.0147   41.4846 H   0  0  0  0  0  0  0  0  0  0  0  0
   46.5822   33.6311   39.9894 C   0  0  0  0  0  0  0  0  0  0  0  0
   46.2055   32.3513   39.5738 C   0  0  0  0  0  0  0  0  0  0  0  0
   45.5235   31.4798   40.3886 C   0  0  0  0  0  0  0  0  0  0  0  0
   45.0951   30.1965   40.1056 O   0  0  0  0  0  0  0  0  0  0  0  0
   44.8410   31.1127   43.6006 H   0  0  0  0  0  0  0  0  0  0  0  0
   47.1190   34.2455   39.2884 H   0  0  0  0  0  0  0  0  0  0  0  0
   46.4417   31.9733   38.5789 H   0  0  0  0  0  0  0  0  0  0  0  0
   45.6701   29.3626   40.2826 H   0  0  0  0  0  0  0  0  0  0  0  0
  1  6  2  0
  2  3  2  0
  2  1  1  0
  3  4  1  0
  4  5  2  0
  6  5  1  0
  7  2  1  0
  1  8  1  0
  5  9  1  0
  7 10  1  0
  7 11  1  0
  7 12  1  0
 13 14  1  0
 14 15  2  0
 15 16  1  0
 16 17  1  0
 16 18  2  0
 18 19  1  0
 19 20  2  0
 20 21  1  0
 20 14  1  0
 13 22  1  0
 18 23  1  0
 19 24  1  0
 21 25  1  0
  3 15  1  0
M  ISO  6   8  14   9  14  10   8  11   8  12   8  17  16
M  END
>  <DihAtoms>  (1) 
1,2,14,13

>  <DihDeg>  (1) 
114.90740111045999

$$$$
