
 OpenBabel03242518273D

 47 51  0  0  1  0  0  0  0  0999 V2000
   38.4370   33.8110   40.0030 C   0  0  0  0  0  0  0  0  0  0  0  0
   38.8470   32.6340   39.4890 C   0  0  0  0  0  0  0  0  0  0  0  0
   40.2080   32.3430   39.5300 C   0  0  0  0  0  0  0  0  0  0  0  0
   41.1020   33.2360   40.0800 C   0  0  0  0  0  0  0  0  0  0  0  0
   40.6400   34.4490   40.6040 C   0  0  0  0  0  0  0  0  0  0  0  0
   39.2820   34.7500   40.5690 C   0  0  0  0  0  0  0  0  0  0  0  0
   41.7510   35.1440   41.0870 O   0  0  0  0  0  0  0  0  0  0  0  0
   42.9150   34.5160   40.5610 C   0  0  2  0  0  0  0  0  0  0  0  0
   42.4840   33.2180   40.2560 O   0  0  0  0  0  0  0  0  0  0  0  0
   37.3750   34.0070   39.9560 H   0  0  0  0  0  0  0  0  0  0  0  0
   40.5540   31.4060   39.1240 H   0  0  0  0  0  0  0  0  0  0  0  0
   38.8930   35.6770   40.9640 H   0  0  0  0  0  0  0  0  0  0  0  0
   43.2700   35.0220   39.6410 H   0  0  0  0  0  0  0  0  0  0  0  0
   36.1730   30.1210   39.0640 C   0  0  0  0  0  0  0  0  0  0  0  0
   36.1970   29.8870   37.7010 C   0  0  0  0  0  0  0  0  0  0  0  0
   37.1320   30.5970   36.9460 C   0  0  0  0  0  0  0  0  0  0  0  0
   37.9690   31.4750   37.5570 N   0  0  0  0  0  0  0  0  0  0  0  0
   37.9140   31.6760   38.9020 C   0  0  0  0  0  0  0  0  0  0  0  0
   37.0220   31.0010   39.6340 N   0  0  0  0  0  0  0  0  0  0  0  0
   35.4620   29.5920   39.6970 H   0  0  0  0  0  0  0  0  0  0  0  0
   37.1370   30.4070   35.9000 H   0  0  0  0  0  0  0  0  0  0  0  0
   35.2770   28.9540   37.1880 N   0  0  0  0  0  0  0  0  0  0  0  0
   35.0860   27.7310   37.9060 C   0  0  0  0  0  0  0  0  0  0  0  0
   34.1680   26.7750   37.2330 C   0  0  0  0  0  0  0  0  0  0  0  0
   32.9690   27.3780   36.7630 N   0  0  0  0  0  0  0  0  0  0  0  0
   33.0400   28.6880   36.2560 C   0  0  0  0  0  0  0  0  0  0  0  0
   34.4840   29.0870   35.9960 C   0  0  0  0  0  0  0  0  0  0  0  0
   36.0850   27.2650   38.0620 H   0  0  0  0  0  0  0  0  0  0  0  0
   34.7100   27.9800   38.9320 H   0  0  0  0  0  0  0  0  0  0  0  0
   33.9050   25.9860   37.9760 H   0  0  0  0  0  0  0  0  0  0  0  0
   34.7270   26.2560   36.4270 H   0  0  0  0  0  0  0  0  0  0  0  0
   32.1020   27.1430   37.2860 H   0  0  0  0  0  0  0  0  0  0  0  0
   32.4660   28.8210   35.3180 H   0  0  0  0  0  0  0  0  0  0  0  0
   32.6380   29.4510   36.9820 H   0  0  0  0  0  0  0  0  0  0  0  0
   34.8560   28.3400   35.2400 H   0  0  0  0  0  0  0  0  0  0  0  0
   34.5330   30.0800   35.5170 H   0  0  0  0  0  0  0  0  0  0  0  0
   43.7350   33.6680   42.6240 C   0  0  0  0  0  0  0  0  0  0  0  0
   43.9650   34.5870   41.5950 C   0  0  0  0  0  0  0  0  0  0  0  0
   45.0740   35.4010   41.6570 C   0  0  0  0  0  0  0  0  0  0  0  0
   45.1500   36.0700   40.8080 H   0  0  0  0  0  0  0  0  0  0  0  0
   45.9490   35.3100   42.7230 C   0  0  0  0  0  3  0  0  0  0  0  0
   45.7270   34.4040   43.7460 C   0  0  0  0  0  3  0  0  0  0  0  0
   44.6170   33.5770   43.7000 C   0  0  0  0  0  0  0  0  0  0  0  0
   42.6510   32.7800   42.6890 O   0  0  0  0  0  0  0  0  0  0  0  0
   42.7310   31.8230   42.3700 H   0  0  0  0  0  0  0  0  0  0  0  0
   44.4360   32.6870   44.7430 O   0  0  0  0  0  0  0  0  0  0  0  0
   43.7490   31.9410   44.7240 H   0  0  0  0  0  0  0  0  0  0  0  0
  1  6  1  0  0  0  0
  2  3  1  0  0  0  0
  2  1  2  0  0  0  0
  3  4  2  0  0  0  0
  4  9  1  0  0  0  0
  4  5  1  0  0  0  0
  5  7  1  0  0  0  0
  6  5  2  0  0  0  0
  6 12  1  0  0  0  0
  8 13  1  6  0  0  0
  8  7  1  0  0  0  0
  8 38  1  0  0  0  0
  9  8  1  0  0  0  0
 10  1  1  0  0  0  0
 11  3  1  0  0  0  0
 14 19  1  0  0  0  0
 14 20  1  0  0  0  0
 15 14  2  0  0  0  0
 16 17  2  0  0  0  0
 16 15  1  0  0  0  0
 17 18  1  0  0  0  0
 18  2  1  0  0  0  0
 18 19  2  0  0  0  0
 21 16  1  0  0  0  0
 22 15  1  0  0  0  0
 22 23  1  0  0  0  0
 23 28  1  0  0  0  0
 23 29  1  0  0  0  0
 24 23  1  0  0  0  0
 24 30  1  0  0  0  0
 25 24  1  0  0  0  0
 25 32  1  0  0  0  0
 26 25  1  0  0  0  0
 26 34  1  0  0  0  0
 27 26  1  0  0  0  0
 27 22  1  0  0  0  0
 31 24  1  0  0  0  0
 33 26  1  0  0  0  0
 35 27  1  0  0  0  0
 36 27  1  0  0  0  0
 37 44  1  0  0  0  0
 37 43  1  0  0  0  0
 38 39  1  0  0  0  0
 38 37  2  0  0  0  0
 39 41  2  0  0  0  0
 40 39  1  0  0  0  0
 41 42  1  0  0  0  0
 43 42  2  0  0  0  0
 43 46  1  0  0  0  0
 45 44  1  0  0  0  0
 47 46  1  0  0  0  0
M  END
>  <minimizedAffinity>
-6.71701908

$$$$

 OpenBabel03242518273D

 47 51  0  0  1  0  0  0  0  0999 V2000
   37.0560   28.3970   41.4550 C   0  0  0  0  0  0  0  0  0  0  0  0
   37.2930   27.7790   40.2810 C   0  0  0  0  0  0  0  0  0  0  0  0
   38.0140   28.4720   39.3120 C   0  0  0  0  0  0  0  0  0  0  0  0
   38.4660   29.7510   39.5530 C   0  0  0  0  0  0  0  0  0  0  0  0
   38.2010   30.3620   40.7840 C   0  0  0  0  0  0  0  0  0  0  0  0
   37.4830   29.6780   41.7600 C   0  0  0  0  0  0  0  0  0  0  0  0
   38.7720   31.6360   40.7480 O   0  0  0  0  0  0  0  0  0  0  0  0
   39.0890   31.9300   39.3920 C   0  0  2  0  0  0  0  0  0  0  0  0
   39.1930   30.6670   38.7940 O   0  0  0  0  0  0  0  0  0  0  0  0
   36.4950   27.8330   42.1860 H   0  0  0  0  0  0  0  0  0  0  0  0
   38.2130   27.9940   38.3660 H   0  0  0  0  0  0  0  0  0  0  0  0
   37.2610   30.1200   42.7200 H   0  0  0  0  0  0  0  0  0  0  0  0
   38.2830   32.5130   38.9030 H   0  0  0  0  0  0  0  0  0  0  0  0
   35.8250   24.8240   38.6210 C   0  0  0  0  0  0  0  0  0  0  0  0
   35.9580   23.8420   39.5860 C   0  0  0  0  0  0  0  0  0  0  0  0
   36.5520   24.2090   40.7950 C   0  0  0  0  0  0  0  0  0  0  0  0
   36.9700   25.4870   40.9830 N   0  0  0  0  0  0  0  0  0  0  0  0
   36.8200   26.4240   40.0070 C   0  0  0  0  0  0  0  0  0  0  0  0
   36.2530   26.0830   38.8450 N   0  0  0  0  0  0  0  0  0  0  0  0
   35.3680   24.5870   37.6600 H   0  0  0  0  0  0  0  0  0  0  0  0
   36.6470   23.4430   41.5250 H   0  0  0  0  0  0  0  0  0  0  0  0
   35.4850   22.5550   39.2700 N   0  0  0  0  0  0  0  0  0  0  0  0
   34.0710   22.3370   39.2710 C   0  0  0  0  0  0  0  0  0  0  0  0
   33.6800   20.9250   39.0190 C   0  0  0  0  0  0  0  0  0  0  0  0
   34.3680   20.3350   37.9240 N   0  0  0  0  0  0  0  0  0  0  0  0
   35.7130   20.6900   37.7170 C   0  0  0  0  0  0  0  0  0  0  0  0
   36.2760   21.4000   38.9360 C   0  0  0  0  0  0  0  0  0  0  0  0
   33.6710   22.6810   40.2510 H   0  0  0  0  0  0  0  0  0  0  0  0
   33.6100   23.0140   38.5070 H   0  0  0  0  0  0  0  0  0  0  0  0
   32.5850   20.9160   38.8010 H   0  0  0  0  0  0  0  0  0  0  0  0
   33.8050   20.3500   39.9590 H   0  0  0  0  0  0  0  0  0  0  0  0
   33.8070   20.1700   37.0640 H   0  0  0  0  0  0  0  0  0  0  0  0
   36.3610   19.8200   37.4880 H   0  0  0  0  0  0  0  0  0  0  0  0
   35.8380   21.4100   36.8570 H   0  0  0  0  0  0  0  0  0  0  0  0
   36.1790   20.6540   39.7730 H   0  0  0  0  0  0  0  0  0  0  0  0
   37.3530   21.6010   38.8070 H   0  0  0  0  0  0  0  0  0  0  0  0
   40.7700   32.9820   38.0830 C   0  0  0  0  0  0  0  0  0  0  0  0
   40.3370   32.7170   39.3860 C   0  0  0  0  0  0  0  0  0  0  0  0
   41.0740   33.1900   40.4490 C   0  0  0  0  0  0  0  0  0  0  0  0
   40.6440   32.9240   41.4070 H   0  0  0  0  0  0  0  0  0  0  0  0
   42.2280   33.9170   40.2290 C   0  0  0  0  0  3  0  0  0  0  0  0
   42.6640   34.1830   38.9430 C   0  0  0  0  0  3  0  0  0  0  0  0
   41.9340   33.7160   37.8620 C   0  0  0  0  0  0  0  0  0  0  0  0
   40.1190   32.5650   36.9120 O   0  0  0  0  0  0  0  0  0  0  0  0
   39.4810   33.1740   36.4160 H   0  0  0  0  0  0  0  0  0  0  0  0
   42.4070   34.0060   36.5940 O   0  0  0  0  0  0  0  0  0  0  0  0
   41.8680   33.8460   35.7510 H   0  0  0  0  0  0  0  0  0  0  0  0
  1  6  1  0  0  0  0
  1 10  1  0  0  0  0
  2  1  2  0  0  0  0
  3  4  2  0  0  0  0
  3  2  1  0  0  0  0
  4  5  1  0  0  0  0
  5  6  2  0  0  0  0
  6 12  1  0  0  0  0
  7  5  1  0  0  0  0
  8 13  1  6  0  0  0
  8  7  1  0  0  0  0
  9  8  1  0  0  0  0
  9  4  1  0  0  0  0
 11  3  1  0  0  0  0
 14 19  2  0  0  0  0
 14 15  1  0  0  0  0
 15 16  2  0  0  0  0
 16 17  1  0  0  0  0
 16 21  1  0  0  0  0
 18  2  1  0  0  0  0
 18 17  2  0  0  0  0
 19 18  1  0  0  0  0
 20 14  1  0  0  0  0
 22 23  1  0  0  0  0
 22 15  1  0  0  0  0
 23 28  1  0  0  0  0
 24 23  1  0  0  0  0
 24 31  1  0  0  0  0
 25 24  1  0  0  0  0
 26 25  1  0  0  0  0
 26 27  1  0  0  0  0
 27 22  1  0  0  0  0
 27 35  1  0  0  0  0
 29 23  1  0  0  0  0
 30 24  1  0  0  0  0
 32 25  1  0  0  0  0
 33 26  1  0  0  0  0
 34 26  1  0  0  0  0
 36 27  1  0  0  0  0
 37 38  1  0  0  0  0
 38  8  1  0  0  0  0
 38 39  2  0  0  0  0
 39 40  1  0  0  0  0
 41 39  1  0  0  0  0
 42 41  2  0  0  0  0
 43 37  2  0  0  0  0
 43 42  1  0  0  0  0
 44 37  1  0  0  0  0
 45 44  1  0  0  0  0
 46 43  1  0  0  0  0
 47 46  1  0  0  0  0
M  END
>  <minimizedAffinity>
-6.65739536

$$$$

 OpenBabel03242518273D

 47 51  0  0  1  0  0  0  0  0999 V2000
   38.7300   30.4180   42.1230 C   0  0  0  0  0  0  0  0  0  0  0  0
   40.0170   30.0180   42.0680 C   0  0  0  0  0  0  0  0  0  0  0  0
   40.2720   28.6610   41.8890 C   0  0  0  0  0  0  0  0  0  0  0  0
   39.2360   27.7600   41.7730 C   0  0  0  0  0  0  0  0  0  0  0  0
   37.9120   28.2110   41.8360 C   0  0  0  0  0  0  0  0  0  0  0  0
   37.6460   29.5650   42.0130 C   0  0  0  0  0  0  0  0  0  0  0  0
   37.0850   27.0950   41.6910 O   0  0  0  0  0  0  0  0  0  0  0  0
   37.8880   25.9350   41.8770 C   0  0  2  0  0  0  0  0  0  0  0  0
   39.1860   26.3790   41.5910 O   0  0  0  0  0  0  0  0  0  0  0  0
   38.5660   31.4760   42.2630 H   0  0  0  0  0  0  0  0  0  0  0  0
   41.2950   28.3230   41.8420 H   0  0  0  0  0  0  0  0  0  0  0  0
   36.6360   29.9460   42.0660 H   0  0  0  0  0  0  0  0  0  0  0  0
   37.8360   25.5680   42.9220 H   0  0  0  0  0  0  0  0  0  0  0  0
   42.3140   32.8550   41.5060 C   0  0  0  0  0  0  0  0  0  0  0  0
   43.2600   32.6750   42.4980 C   0  0  0  0  0  0  0  0  0  0  0  0
   43.0950   31.5810   43.3500 C   0  0  0  0  0  0  0  0  0  0  0  0
   42.0370   30.7460   43.1800 N   0  0  0  0  0  0  0  0  0  0  0  0
   41.1280   30.9580   42.1890 C   0  0  0  0  0  0  0  0  0  0  0  0
   41.2770   32.0030   41.3700 N   0  0  0  0  0  0  0  0  0  0  0  0
   42.3990   33.6950   40.8160 H   0  0  0  0  0  0  0  0  0  0  0  0
   43.8290   31.4580   44.1070 H   0  0  0  0  0  0  0  0  0  0  0  0
   44.3090   33.6100   42.5700 N   0  0  0  0  0  0  0  0  0  0  0  0
   44.4450   34.5550   41.5040 C   0  0  0  0  0  0  0  0  0  0  0  0
   45.6370   35.4340   41.6260 C   0  0  0  0  0  0  0  0  0  0  0  0
   45.8030   35.9830   42.9270 N   0  0  0  0  0  0  0  0  0  0  0  0
   45.4600   35.1850   44.0330 C   0  0  0  0  0  0  0  0  0  0  0  0
   45.2890   33.7330   43.6160 C   0  0  0  0  0  0  0  0  0  0  0  0
   44.4770   33.9890   40.5460 H   0  0  0  0  0  0  0  0  0  0  0  0
   43.5080   35.1680   41.4560 H   0  0  0  0  0  0  0  0  0  0  0  0
   45.5120   36.2700   40.8980 H   0  0  0  0  0  0  0  0  0  0  0  0
   46.5300   34.8690   41.2860 H   0  0  0  0  0  0  0  0  0  0  0  0
   45.6060   36.9990   43.0250 H   0  0  0  0  0  0  0  0  0  0  0  0
   46.2090   35.2290   44.8480 H   0  0  0  0  0  0  0  0  0  0  0  0
   44.4760   35.4900   44.4920 H   0  0  0  0  0  0  0  0  0  0  0  0
   46.2900   33.4350   43.1980 H   0  0  0  0  0  0  0  0  0  0  0  0
   45.1060   33.0950   44.4970 H   0  0  0  0  0  0  0  0  0  0  0  0
   37.9860   23.6550   41.2140 C   0  0  0  0  0  0  0  0  0  0  0  0
   37.3820   24.8910   40.9650 C   0  0  0  0  0  0  0  0  0  0  0  0
   36.4420   24.9900   39.9630 C   0  0  0  0  0  0  0  0  0  0  0  0
   36.0420   25.9920   39.8620 H   0  0  0  0  0  0  0  0  0  0  0  0
   36.1010   23.8810   39.2130 C   0  0  0  0  0  3  0  0  0  0  0  0
   36.6960   22.6540   39.4530 C   0  0  0  0  0  3  0  0  0  0  0  0
   37.6430   22.5360   40.4570 C   0  0  0  0  0  0  0  0  0  0  0  0
   38.9540   23.4110   42.2000 O   0  0  0  0  0  0  0  0  0  0  0  0
   38.7030   23.0400   43.1070 H   0  0  0  0  0  0  0  0  0  0  0  0
   38.2100   21.2910   40.6610 O   0  0  0  0  0  0  0  0  0  0  0  0
   38.7890   21.0690   41.4630 H   0  0  0  0  0  0  0  0  0  0  0  0
  1 10  1  0  0  0  0
  2  1  1  0  0  0  0
  2 18  1  0  0  0  0
  3  2  2  0  0  0  0
  4  5  2  0  0  0  0
  4  3  1  0  0  0  0
  5  6  1  0  0  0  0
  6 12  1  0  0  0  0
  6  1  2  0  0  0  0
  7  5  1  0  0  0  0
  7  8  1  0  0  0  0
  8 13  1  1  0  0  0
  9  4  1  0  0  0  0
  9  8  1  0  0  0  0
 11  3  1  0  0  0  0
 14 15  1  0  0  0  0
 15 22  1  0  0  0  0
 15 16  2  0  0  0  0
 16 21  1  0  0  0  0
 17 16  1  0  0  0  0
 18 17  2  0  0  0  0
 19 14  2  0  0  0  0
 19 18  1  0  0  0  0
 20 14  1  0  0  0  0
 22 27  1  0  0  0  0
 23 24  1  0  0  0  0
 23 22  1  0  0  0  0
 24 25  1  0  0  0  0
 25 32  1  0  0  0  0
 25 26  1  0  0  0  0
 26 34  1  0  0  0  0
 26 33  1  0  0  0  0
 27 26  1  0  0  0  0
 27 36  1  0  0  0  0
 28 23  1  0  0  0  0
 29 23  1  0  0  0  0
 30 24  1  0  0  0  0
 31 24  1  0  0  0  0
 35 27  1  0  0  0  0
 37 44  1  0  0  0  0
 38 37  1  0  0  0  0
 38  8  1  0  0  0  0
 39 38  2  0  0  0  0
 40 39  1  0  0  0  0
 41 42  2  0  0  0  0
 41 39  1  0  0  0  0
 42 43  1  0  0  0  0
 43 46  1  0  0  0  0
 43 37  2  0  0  0  0
 44 45  1  0  0  0  0
 46 47  1  0  0  0  0
M  END
>  <minimizedAffinity>
-6.5147295

$$$$

 OpenBabel03242518273D

 47 51  0  0  1  0  0  0  0  0999 V2000
   37.3830   32.0100   39.8440 C   0  0  0  0  0  0  0  0  0  0  0  0
   37.6180   31.3550   38.6900 C   0  0  0  0  0  0  0  0  0  0  0  0
   38.8220   31.5970   38.0350 C   0  0  0  0  0  0  0  0  0  0  0  0
   39.7410   32.4820   38.5570 C   0  0  0  0  0  0  0  0  0  0  0  0
   39.4630   33.1450   39.7590 C   0  0  0  0  0  0  0  0  0  0  0  0
   38.2630   32.9090   40.4210 C   0  0  0  0  0  0  0  0  0  0  0  0
   40.5550   33.9670   40.0430 O   0  0  0  0  0  0  0  0  0  0  0  0
   41.3430   34.0630   38.8620 C   0  0  2  0  0  0  0  0  0  0  0  0
   40.9970   32.9150   38.1370 O   0  0  0  0  0  0  0  0  0  0  0  0
   36.4400   31.8000   40.3280 H   0  0  0  0  0  0  0  0  0  0  0  0
   39.0280   31.0830   37.1100 H   0  0  0  0  0  0  0  0  0  0  0  0
   38.0170   33.4040   41.3500 H   0  0  0  0  0  0  0  0  0  0  0  0
   41.0890   34.9690   38.2770 H   0  0  0  0  0  0  0  0  0  0  0  0
   34.8420   28.9490   38.3050 C   0  0  0  0  0  0  0  0  0  0  0  0
   34.8880   28.6530   36.9550 C   0  0  0  0  0  0  0  0  0  0  0  0
   35.8720   29.2860   36.1940 C   0  0  0  0  0  0  0  0  0  0  0  0
   36.7340   30.1510   36.7870 N   0  0  0  0  0  0  0  0  0  0  0  0
   36.6560   30.4140   38.1210 C   0  0  0  0  0  0  0  0  0  0  0  0
   35.7170   29.8140   38.8580 N   0  0  0  0  0  0  0  0  0  0  0  0
   34.0910   28.4810   38.9420 H   0  0  0  0  0  0  0  0  0  0  0  0
   35.8930   29.0480   35.1580 H   0  0  0  0  0  0  0  0  0  0  0  0
   33.9380   27.7410   36.4600 N   0  0  0  0  0  0  0  0  0  0  0  0
   33.8730   26.4430   37.0590 C   0  0  0  0  0  0  0  0  0  0  0  0
   32.9060   25.5240   36.4030 C   0  0  0  0  0  0  0  0  0  0  0  0
   31.6410   26.1220   36.1490 N   0  0  0  0  0  0  0  0  0  0  0  0
   31.6110   27.4790   35.7810 C   0  0  0  0  0  0  0  0  0  0  0  0
   32.9980   27.9620   35.3930 C   0  0  0  0  0  0  0  0  0  0  0  0
   34.8960   26.0050   37.0420 H   0  0  0  0  0  0  0  0  0  0  0  0
   33.6210   26.5680   38.1430 H   0  0  0  0  0  0  0  0  0  0  0  0
   32.7600   24.6520   37.0830 H   0  0  0  0  0  0  0  0  0  0  0  0
   33.3740   25.1150   35.4840 H   0  0  0  0  0  0  0  0  0  0  0  0
   30.8530   25.7980   36.7440 H   0  0  0  0  0  0  0  0  0  0  0  0
   30.9200   27.6850   34.9390 H   0  0  0  0  0  0  0  0  0  0  0  0
   31.2800   28.1460   36.6290 H   0  0  0  0  0  0  0  0  0  0  0  0
   33.2950   27.3140   34.5220 H   0  0  0  0  0  0  0  0  0  0  0  0
   32.9590   29.0010   35.0220 H   0  0  0  0  0  0  0  0  0  0  0  0
   43.6120   34.2040   38.1680 C   0  0  0  0  0  0  0  0  0  0  0  0
   42.7590   34.1250   39.2740 C   0  0  0  0  0  0  0  0  0  0  0  0
   43.2990   34.1170   40.5410 C   0  0  0  0  0  0  0  0  0  0  0  0
   42.5450   34.0550   41.3160 H   0  0  0  0  0  0  0  0  0  0  0  0
   44.6680   34.1850   40.7160 C   0  0  0  0  0  3  0  0  0  0  0  0
   45.5190   34.2620   39.6270 C   0  0  0  0  0  3  0  0  0  0  0  0
   44.9930   34.2720   38.3460 C   0  0  0  0  0  0  0  0  0  0  0  0
   43.2000   34.2220   36.8270 O   0  0  0  0  0  0  0  0  0  0  0  0
   43.0880   35.0910   36.3210 H   0  0  0  0  0  0  0  0  0  0  0  0
   45.8810   34.3500   37.2880 O   0  0  0  0  0  0  0  0  0  0  0  0
   45.5910   34.5200   36.3310 H   0  0  0  0  0  0  0  0  0  0  0  0
  1 10  1  0  0  0  0
  1  6  1  0  0  0  0
  2  1  2  0  0  0  0
  3  4  2  0  0  0  0
  3  2  1  0  0  0  0
  4  5  1  0  0  0  0
  5  7  1  0  0  0  0
  5  6  2  0  0  0  0
  6 12  1  0  0  0  0
  8 13  1  6  0  0  0
  8 38  1  0  0  0  0
  8  7  1  0  0  0  0
  9  4  1  0  0  0  0
  9  8  1  0  0  0  0
 11  3  1  0  0  0  0
 14 19  1  0  0  0  0
 14 20  1  0  0  0  0
 15 14  2  0  0  0  0
 16 17  2  0  0  0  0
 16 15  1  0  0  0  0
 17 18  1  0  0  0  0
 18  2  1  0  0  0  0
 18 19  2  0  0  0  0
 21 16  1  0  0  0  0
 22 15  1  0  0  0  0
 22 23  1  0  0  0  0
 23 29  1  0  0  0  0
 24 23  1  0  0  0  0
 24 30  1  0  0  0  0
 25 24  1  0  0  0  0
 25 32  1  0  0  0  0
 26 25  1  0  0  0  0
 26 34  1  0  0  0  0
 27 26  1  0  0  0  0
 27 22  1  0  0  0  0
 28 23  1  0  0  0  0
 31 24  1  0  0  0  0
 33 26  1  0  0  0  0
 35 27  1  0  0  0  0
 36 27  1  0  0  0  0
 37 43  2  0  0  0  0
 37 38  1  0  0  0  0
 38 39  2  0  0  0  0
 39 41  1  0  0  0  0
 39 40  1  0  0  0  0
 42 41  2  0  0  0  0
 43 42  1  0  0  0  0
 44 37  1  0  0  0  0
 45 44  1  0  0  0  0
 46 43  1  0  0  0  0
 47 46  1  0  0  0  0
M  END
>  <minimizedAffinity>
-6.50935507

$$$$

 OpenBabel03242518273D

 47 51  0  0  1  0  0  0  0  0999 V2000
   37.2210   28.1920   41.6540 C   0  0  0  0  0  0  0  0  0  0  0  0
   37.1720   27.7870   40.3690 C   0  0  0  0  0  0  0  0  0  0  0  0
   37.5610   28.6910   39.3850 C   0  0  0  0  0  0  0  0  0  0  0  0
   37.9820   29.9590   39.7210 C   0  0  0  0  0  0  0  0  0  0  0  0
   38.0200   30.3450   41.0660 C   0  0  0  0  0  0  0  0  0  0  0  0
   37.6340   29.4490   42.0580 C   0  0  0  0  0  0  0  0  0  0  0  0
   38.4810   31.6630   41.1090 O   0  0  0  0  0  0  0  0  0  0  0  0
   38.4030   32.1900   39.7890 C   0  0  2  0  0  0  0  0  0  0  0  0
   38.4210   31.0510   38.9730 O   0  0  0  0  0  0  0  0  0  0  0  0
   36.9120   27.4670   42.3940 H   0  0  0  0  0  0  0  0  0  0  0  0
   37.5280   28.3850   38.3510 H   0  0  0  0  0  0  0  0  0  0  0  0
   37.6510   29.7150   43.1050 H   0  0  0  0  0  0  0  0  0  0  0  0
   37.4610   32.7520   39.6300 H   0  0  0  0  0  0  0  0  0  0  0  0
   35.7530   24.9380   38.4950 C   0  0  0  0  0  0  0  0  0  0  0  0
   35.9210   23.8860   39.3770 C   0  0  0  0  0  0  0  0  0  0  0  0
   36.5200   24.1700   40.6060 C   0  0  0  0  0  0  0  0  0  0  0  0
   36.9110   25.4400   40.8900 N   0  0  0  0  0  0  0  0  0  0  0  0
   36.7270   26.4470   39.9930 C   0  0  0  0  0  0  0  0  0  0  0  0
   36.1550   26.1850   38.8140 N   0  0  0  0  0  0  0  0  0  0  0  0
   35.2910   24.7670   37.5230 H   0  0  0  0  0  0  0  0  0  0  0  0
   36.6420   23.3520   41.2720 H   0  0  0  0  0  0  0  0  0  0  0  0
   35.4740   22.6170   38.9650 N   0  0  0  0  0  0  0  0  0  0  0  0
   36.3770   21.5140   39.0830 C   0  0  0  0  0  0  0  0  0  0  0  0
   35.8460   20.2390   38.5330 C   0  0  0  0  0  0  0  0  0  0  0  0
   34.5130   19.9590   38.9410 N   0  0  0  0  0  0  0  0  0  0  0  0
   33.6210   21.0370   39.0780 C   0  0  0  0  0  0  0  0  0  0  0  0
   34.1830   22.2880   38.4220 C   0  0  0  0  0  0  0  0  0  0  0  0
   37.3270   21.7900   38.5720 H   0  0  0  0  0  0  0  0  0  0  0  0
   36.6450   21.3930   40.1640 H   0  0  0  0  0  0  0  0  0  0  0  0
   36.5110   19.4180   38.8910 H   0  0  0  0  0  0  0  0  0  0  0  0
   35.9570   20.2570   37.4290 H   0  0  0  0  0  0  0  0  0  0  0  0
   34.3960   19.1870   39.6270 H   0  0  0  0  0  0  0  0  0  0  0  0
   32.6230   20.8330   38.6430 H   0  0  0  0  0  0  0  0  0  0  0  0
   33.4430   21.3120   40.1580 H   0  0  0  0  0  0  0  0  0  0  0  0
   34.3170   22.0080   37.3400 H   0  0  0  0  0  0  0  0  0  0  0  0
   33.4470   23.1090   38.4540 H   0  0  0  0  0  0  0  0  0  0  0  0
   39.5350   34.1450   40.5270 C   0  0  0  0  0  0  0  0  0  0  0  0
   39.5520   33.0960   39.6020 C   0  0  0  0  0  0  0  0  0  0  0  0
   40.5740   33.0290   38.6810 C   0  0  0  0  0  0  0  0  0  0  0  0
   40.4840   32.1770   38.0180 H   0  0  0  0  0  0  0  0  0  0  0  0
   41.5700   33.9870   38.6720 C   0  0  0  0  0  3  0  0  0  0  0  0
   41.5590   35.0290   39.5830 C   0  0  0  0  0  3  0  0  0  0  0  0
   40.5390   35.1120   40.5180 C   0  0  0  0  0  0  0  0  0  0  0  0
   38.5600   34.3350   41.5180 O   0  0  0  0  0  0  0  0  0  0  0  0
   38.6980   34.0090   42.4660 H   0  0  0  0  0  0  0  0  0  0  0  0
   40.5690   36.1690   41.4090 O   0  0  0  0  0  0  0  0  0  0  0  0
   39.9630   36.2300   42.2190 H   0  0  0  0  0  0  0  0  0  0  0  0
  1  6  1  0  0  0  0
  1 10  1  0  0  0  0
  2  1  2  0  0  0  0
  3  4  2  0  0  0  0
  3  2  1  0  0  0  0
  4  5  1  0  0  0  0
  5  7  1  0  0  0  0
  5  6  2  0  0  0  0
  6 12  1  0  0  0  0
  8 13  1  6  0  0  0
  8  7  1  0  0  0  0
  9  4  1  0  0  0  0
  9  8  1  0  0  0  0
 11  3  1  0  0  0  0
 14 19  2  0  0  0  0
 14 15  1  0  0  0  0
 15 16  2  0  0  0  0
 16 17  1  0  0  0  0
 16 21  1  0  0  0  0
 18  2  1  0  0  0  0
 18 17  2  0  0  0  0
 19 18  1  0  0  0  0
 20 14  1  0  0  0  0
 22 23  1  0  0  0  0
 22 15  1  0  0  0  0
 23 29  1  0  0  0  0
 24 30  1  0  0  0  0
 24 25  1  0  0  0  0
 24 23  1  0  0  0  0
 25 26  1  0  0  0  0
 25 32  1  0  0  0  0
 26 34  1  0  0  0  0
 27 36  1  0  0  0  0
 27 22  1  0  0  0  0
 27 26  1  0  0  0  0
 28 23  1  0  0  0  0
 31 24  1  0  0  0  0
 33 26  1  0  0  0  0
 35 27  1  0  0  0  0
 37 44  1  0  0  0  0
 38  8  1  0  0  0  0
 38 37  2  0  0  0  0
 39 38  1  0  0  0  0
 40 39  1  0  0  0  0
 41 39  2  0  0  0  0
 41 42  1  0  0  0  0
 42 43  2  0  0  0  0
 43 37  1  0  0  0  0
 43 46  1  0  0  0  0
 44 45  1  0  0  0  0
 46 47  1  0  0  0  0
M  END
>  <minimizedAffinity>
-6.47767973

$$$$

 OpenBabel03242518273D

 47 51  0  0  1  0  0  0  0  0999 V2000
   37.3630   27.9470   42.2400 C   0  0  0  0  0  0  0  0  0  0  0  0
   38.1680   28.2690   41.2060 C   0  0  0  0  0  0  0  0  0  0  0  0
   38.6520   27.2350   40.4100 C   0  0  0  0  0  0  0  0  0  0  0  0
   38.3160   25.9250   40.6770 C   0  0  0  0  0  0  0  0  0  0  0  0
   37.4780   25.6280   41.7590 C   0  0  0  0  0  0  0  0  0  0  0  0
   36.9880   26.6540   42.5600 C   0  0  0  0  0  0  0  0  0  0  0  0
   37.3110   24.2420   41.7880 O   0  0  0  0  0  0  0  0  0  0  0  0
   38.3030   23.6690   40.9430 C   0  0  2  0  0  0  0  0  0  0  0  0
   38.6400   24.7130   40.0710 O   0  0  0  0  0  0  0  0  0  0  0  0
   37.0040   28.7720   42.8380 H   0  0  0  0  0  0  0  0  0  0  0  0
   39.2970   27.4730   39.5800 H   0  0  0  0  0  0  0  0  0  0  0  0
   36.3400   26.4600   43.4030 H   0  0  0  0  0  0  0  0  0  0  0  0
   39.1960   23.3570   41.5200 H   0  0  0  0  0  0  0  0  0  0  0  0
   40.1100   31.3110   40.4230 C   0  0  0  0  0  0  0  0  0  0  0  0
   39.1290   32.2840   40.3580 C   0  0  0  0  0  0  0  0  0  0  0  0
   37.8120   31.8810   40.5830 C   0  0  0  0  0  0  0  0  0  0  0  0
   37.5400   30.5780   40.8540 N   0  0  0  0  0  0  0  0  0  0  0  0
   38.5360   29.6510   40.9090 C   0  0  0  0  0  0  0  0  0  0  0  0
   39.8000   30.0270   40.6940 N   0  0  0  0  0  0  0  0  0  0  0  0
   41.1540   31.5750   40.2540 H   0  0  0  0  0  0  0  0  0  0  0  0
   37.0700   32.6400   40.5290 H   0  0  0  0  0  0  0  0  0  0  0  0
   39.5390   33.5980   40.0680 N   0  0  0  0  0  0  0  0  0  0  0  0
   38.7040   34.6760   40.5020 C   0  0  0  0  0  0  0  0  0  0  0  0
   39.1750   36.0160   40.0650 C   0  0  0  0  0  0  0  0  0  0  0  0
   40.5650   36.2240   40.2770 N   0  0  0  0  0  0  0  0  0  0  0  0
   41.4340   35.1320   40.0970 C   0  0  0  0  0  0  0  0  0  0  0  0
   40.7300   34.0000   39.3680 C   0  0  0  0  0  0  0  0  0  0  0  0
   37.6740   34.4860   40.1260 H   0  0  0  0  0  0  0  0  0  0  0  0
   38.6260   34.6330   41.6190 H   0  0  0  0  0  0  0  0  0  0  0  0
   38.6060   36.7770   40.6510 H   0  0  0  0  0  0  0  0  0  0  0  0
   38.8790   36.1670   39.0070 H   0  0  0  0  0  0  0  0  0  0  0  0
   40.8200   36.8820   41.0400 H   0  0  0  0  0  0  0  0  0  0  0  0
   42.3500   35.3950   39.5330 H   0  0  0  0  0  0  0  0  0  0  0  0
   41.7820   34.6960   41.0780 H   0  0  0  0  0  0  0  0  0  0  0  0
   40.4250   34.4410   38.3790 H   0  0  0  0  0  0  0  0  0  0  0  0
   41.4360   33.1790   39.1510 H   0  0  0  0  0  0  0  0  0  0  0  0
   36.5810   22.8390   39.5320 C   0  0  0  0  0  0  0  0  0  0  0  0
   37.7040   22.4910   40.2880 C   0  0  0  0  0  0  0  0  0  0  0  0
   38.1020   21.1730   40.3330 C   0  0  0  0  0  0  0  0  0  0  0  0
   38.9810   21.0220   40.9480 H   0  0  0  0  0  0  0  0  0  0  0  0
   37.3990   20.2070   39.6390 C   0  0  0  0  0  3  0  0  0  0  0  0
   36.2850   20.5430   38.8900 C   0  0  0  0  0  3  0  0  0  0  0  0
   35.8710   21.8650   38.8320 C   0  0  0  0  0  0  0  0  0  0  0  0
   36.0670   24.1370   39.3960 O   0  0  0  0  0  0  0  0  0  0  0  0
   36.3070   24.7210   38.6050 H   0  0  0  0  0  0  0  0  0  0  0  0
   34.7530   22.1550   38.0700 O   0  0  0  0  0  0  0  0  0  0  0  0
   34.4680   23.1000   37.8410 H   0  0  0  0  0  0  0  0  0  0  0  0
  1  6  1  0  0  0  0
  1 10  1  0  0  0  0
  2  1  2  0  0  0  0
  3  4  2  0  0  0  0
  3  2  1  0  0  0  0
  4  5  1  0  0  0  0
  5  7  1  0  0  0  0
  5  6  2  0  0  0  0
  6 12  1  0  0  0  0
  8 13  1  1  0  0  0
  8  7  1  0  0  0  0
  9  4  1  0  0  0  0
  9  8  1  0  0  0  0
 11  3  1  0  0  0  0
 14 19  1  0  0  0  0
 15 14  2  0  0  0  0
 15 16  1  0  0  0  0
 16 17  2  0  0  0  0
 17 18  1  0  0  0  0
 18  2  1  0  0  0  0
 19 18  2  0  0  0  0
 20 14  1  0  0  0  0
 21 16  1  0  0  0  0
 22 15  1  0  0  0  0
 22 23  1  0  0  0  0
 23 29  1  0  0  0  0
 24 25  1  0  0  0  0
 24 23  1  0  0  0  0
 24 30  1  0  0  0  0
 25 32  1  0  0  0  0
 26 25  1  0  0  0  0
 26 34  1  0  0  0  0
 27 22  1  0  0  0  0
 27 26  1  0  0  0  0
 28 23  1  0  0  0  0
 31 24  1  0  0  0  0
 33 26  1  0  0  0  0
 35 27  1  0  0  0  0
 36 27  1  0  0  0  0
 37 38  1  0  0  0  0
 38 39  2  0  0  0  0
 38  8  1  0  0  0  0
 39 40  1  0  0  0  0
 41 39  1  0  0  0  0
 42 41  2  0  0  0  0
 43 42  1  0  0  0  0
 43 37  2  0  0  0  0
 44 37  1  0  0  0  0
 45 44  1  0  0  0  0
 46 43  1  0  0  0  0
 47 46  1  0  0  0  0
M  END
>  <minimizedAffinity>
-6.42974377

$$$$

 OpenBabel03242518273D

 47 51  0  0  1  0  0  0  0  0999 V2000
   36.0660   29.1340   40.8470 C   0  0  0  0  0  0  0  0  0  0  0  0
   37.0380   28.4680   40.1930 C   0  0  0  0  0  0  0  0  0  0  0  0
   38.0680   29.2100   39.6230 C   0  0  0  0  0  0  0  0  0  0  0  0
   38.0870   30.5840   39.7280 C   0  0  0  0  0  0  0  0  0  0  0  0
   37.0600   31.2430   40.4150 C   0  0  0  0  0  0  0  0  0  0  0  0
   36.0260   30.5100   40.9880 C   0  0  0  0  0  0  0  0  0  0  0  0
   37.3340   32.6110   40.3620 O   0  0  0  0  0  0  0  0  0  0  0  0
   38.3330   32.8130   39.3680 C   0  0  2  0  0  0  0  0  0  0  0  0
   38.9650   31.5660   39.2720 O   0  0  0  0  0  0  0  0  0  0  0  0
   35.2810   28.5300   41.2780 H   0  0  0  0  0  0  0  0  0  0  0  0
   38.8550   28.6940   39.0960 H   0  0  0  0  0  0  0  0  0  0  0  0
   35.2180   30.9870   41.5250 H   0  0  0  0  0  0  0  0  0  0  0  0
   37.8850   33.0850   38.3910 H   0  0  0  0  0  0  0  0  0  0  0  0
   37.5920   24.8730   40.8360 C   0  0  0  0  0  0  0  0  0  0  0  0
   36.9780   24.2770   39.7500 C   0  0  0  0  0  0  0  0  0  0  0  0
   36.3800   25.1190   38.8110 C   0  0  0  0  0  0  0  0  0  0  0  0
   36.4190   26.4650   38.9870 N   0  0  0  0  0  0  0  0  0  0  0  0
   37.0350   27.0120   40.0710 C   0  0  0  0  0  0  0  0  0  0  0  0
   37.6100   26.2150   40.9760 N   0  0  0  0  0  0  0  0  0  0  0  0
   38.0730   24.2590   41.5980 H   0  0  0  0  0  0  0  0  0  0  0  0
   35.9120   24.6450   37.9830 H   0  0  0  0  0  0  0  0  0  0  0  0
   37.0050   22.8720   39.6820 N   0  0  0  0  0  0  0  0  0  0  0  0
   36.0010   22.2150   38.9030 C   0  0  0  0  0  0  0  0  0  0  0  0
   36.0580   20.7310   38.9730 C   0  0  0  0  0  0  0  0  0  0  0  0
   37.3700   20.2080   38.8080 N   0  0  0  0  0  0  0  0  0  0  0  0
   38.4460   20.9330   39.3510 C   0  0  0  0  0  0  0  0  0  0  0  0
   37.9470   21.9920   40.3210 C   0  0  0  0  0  0  0  0  0  0  0  0
   35.0060   22.5800   39.2450 H   0  0  0  0  0  0  0  0  0  0  0  0
   36.0960   22.5620   37.8420 H   0  0  0  0  0  0  0  0  0  0  0  0
   35.4090   20.3330   38.1570 H   0  0  0  0  0  0  0  0  0  0  0  0
   35.5860   20.4030   39.9220 H   0  0  0  0  0  0  0  0  0  0  0  0
   37.5610   19.7220   37.9100 H   0  0  0  0  0  0  0  0  0  0  0  0
   39.1780   20.2920   39.8800 H   0  0  0  0  0  0  0  0  0  0  0  0
   39.0280   21.4910   38.5620 H   0  0  0  0  0  0  0  0  0  0  0  0
   37.4040   21.4150   41.1210 H   0  0  0  0  0  0  0  0  0  0  0  0
   38.7940   22.5010   40.8110 H   0  0  0  0  0  0  0  0  0  0  0  0
   40.3730   33.9940   39.0630 C   0  0  0  0  0  0  0  0  0  0  0  0
   39.2060   33.9090   39.8300 C   0  0  0  0  0  0  0  0  0  0  0  0
   39.0140   34.8010   40.8620 C   0  0  0  0  0  0  0  0  0  0  0  0
   38.0790   34.6410   41.3840 H   0  0  0  0  0  0  0  0  0  0  0  0
   39.9630   35.7670   41.1360 C   0  0  0  0  0  3  0  0  0  0  0  0
   41.1210   35.8570   40.3820 C   0  0  0  0  0  3  0  0  0  0  0  0
   41.3300   34.9690   39.3390 C   0  0  0  0  0  0  0  0  0  0  0  0
   40.6960   33.1560   37.9850 O   0  0  0  0  0  0  0  0  0  0  0  0
   40.5040   33.4260   37.0290 H   0  0  0  0  0  0  0  0  0  0  0  0
   42.5000   35.0960   38.6130 O   0  0  0  0  0  0  0  0  0  0  0  0
   42.6710   34.6020   37.7450 H   0  0  0  0  0  0  0  0  0  0  0  0
  1  6  1  0  0  0  0
  1 10  1  0  0  0  0
  2  1  2  0  0  0  0
  3  4  2  0  0  0  0
  3  2  1  0  0  0  0
  4  5  1  0  0  0  0
  5  6  2  0  0  0  0
  6 12  1  0  0  0  0
  7  5  1  0  0  0  0
  8 13  1  6  0  0  0
  8 38  1  0  0  0  0
  8  7  1  0  0  0  0
  9  8  1  0  0  0  0
  9  4  1  0  0  0  0
 11  3  1  0  0  0  0
 14 19  1  0  0  0  0
 14 20  1  0  0  0  0
 15 14  2  0  0  0  0
 16 17  2  0  0  0  0
 16 15  1  0  0  0  0
 17 18  1  0  0  0  0
 18  2  1  0  0  0  0
 18 19  2  0  0  0  0
 21 16  1  0  0  0  0
 22 15  1  0  0  0  0
 22 27  1  0  0  0  0
 23 24  1  0  0  0  0
 23 28  1  0  0  0  0
 23 22  1  0  0  0  0
 24 31  1  0  0  0  0
 25 24  1  0  0  0  0
 25 26  1  0  0  0  0
 26 33  1  0  0  0  0
 26 27  1  0  0  0  0
 27 36  1  0  0  0  0
 27 35  1  0  0  0  0
 29 23  1  0  0  0  0
 30 24  1  0  0  0  0
 32 25  1  0  0  0  0
 34 26  1  0  0  0  0
 37 43  2  0  0  0  0
 37 38  1  0  0  0  0
 38 39  2  0  0  0  0
 39 41  1  0  0  0  0
 39 40  1  0  0  0  0
 42 41  2  0  0  0  0
 43 42  1  0  0  0  0
 44 37  1  0  0  0  0
 45 44  1  0  0  0  0
 46 43  1  0  0  0  0
 47 46  1  0  0  0  0
M  END
>  <minimizedAffinity>
-6.38261843

$$$$

 OpenBabel03242518273D

 47 51  0  0  1  0  0  0  0  0999 V2000
   34.6560   27.2630   37.2540 C   0  0  0  0  0  0  0  0  0  0  0  0
   34.1080   28.4500   37.5840 C   0  0  0  0  0  0  0  0  0  0  0  0
   34.5280   29.0570   38.7650 C   0  0  0  0  0  0  0  0  0  0  0  0
   35.4750   28.4560   39.5660 C   0  0  0  0  0  0  0  0  0  0  0  0
   36.0220   27.2230   39.1910 C   0  0  0  0  0  0  0  0  0  0  0  0
   35.6100   26.6090   38.0130 C   0  0  0  0  0  0  0  0  0  0  0  0
   36.9420   26.8590   40.1760 O   0  0  0  0  0  0  0  0  0  0  0  0
   36.7150   27.6910   41.3080 C   0  0  2  0  0  0  0  0  0  0  0  0
   36.0750   28.8160   40.7710 O   0  0  0  0  0  0  0  0  0  0  0  0
   34.3080   26.8180   36.3330 H   0  0  0  0  0  0  0  0  0  0  0  0
   34.1010   30.0060   39.0450 H   0  0  0  0  0  0  0  0  0  0  0  0
   36.0110   25.6570   37.6950 H   0  0  0  0  0  0  0  0  0  0  0  0
   36.0540   27.1990   42.0490 H   0  0  0  0  0  0  0  0  0  0  0  0
   32.3310   29.9040   34.6910 C   0  0  0  0  0  0  0  0  0  0  0  0
   31.1470   30.3410   35.2560 C   0  0  0  0  0  0  0  0  0  0  0  0
   30.9750   30.1300   36.6250 C   0  0  0  0  0  0  0  0  0  0  0  0
   31.9510   29.5170   37.3430 N   0  0  0  0  0  0  0  0  0  0  0  0
   33.1030   29.1010   36.7480 C   0  0  0  0  0  0  0  0  0  0  0  0
   33.2770   29.2980   35.4380 N   0  0  0  0  0  0  0  0  0  0  0  0
   32.5130   30.0450   33.6260 H   0  0  0  0  0  0  0  0  0  0  0  0
   30.0600   30.4710   37.0440 H   0  0  0  0  0  0  0  0  0  0  0  0
   30.2140   30.9620   34.4050 N   0  0  0  0  0  0  0  0  0  0  0  0
   29.8180   32.3040   34.7030 C   0  0  0  0  0  0  0  0  0  0  0  0
   28.7600   32.8330   33.8040 C   0  0  0  0  0  0  0  0  0  0  0  0
   29.0120   32.5840   32.4270 N   0  0  0  0  0  0  0  0  0  0  0  0
   29.6250   31.3680   32.0750 C   0  0  0  0  0  0  0  0  0  0  0  0
   29.5930   30.3920   33.2390 C   0  0  0  0  0  0  0  0  0  0  0  0
   29.4760   32.3340   35.7630 H   0  0  0  0  0  0  0  0  0  0  0  0
   30.7280   32.9560   34.6650 H   0  0  0  0  0  0  0  0  0  0  0  0
   28.7070   33.9360   33.9640 H   0  0  0  0  0  0  0  0  0  0  0  0
   27.7800   32.4330   34.1360 H   0  0  0  0  0  0  0  0  0  0  0  0
   29.2800   33.4070   31.8530 H   0  0  0  0  0  0  0  0  0  0  0  0
   29.1530   30.8820   31.1980 H   0  0  0  0  0  0  0  0  0  0  0  0
   30.7150   31.4980   31.8130 H   0  0  0  0  0  0  0  0  0  0  0  0
   28.4990   30.2440   33.4590 H   0  0  0  0  0  0  0  0  0  0  0  0
   29.9960   29.4110   32.9360 H   0  0  0  0  0  0  0  0  0  0  0  0
   38.4780   26.8800   42.6810 C   0  0  0  0  0  0  0  0  0  0  0  0
   38.0250   27.9680   41.9280 C   0  0  0  0  0  0  0  0  0  0  0  0
   38.8020   29.1030   41.8530 C   0  0  0  0  0  0  0  0  0  0  0  0
   38.3530   29.8780   41.2440 H   0  0  0  0  0  0  0  0  0  0  0  0
   40.0140   29.1650   42.5140 C   0  0  0  0  0  3  0  0  0  0  0  0
   40.4690   28.0920   43.2610 C   0  0  0  0  0  3  0  0  0  0  0  0
   39.7010   26.9420   43.3470 C   0  0  0  0  0  0  0  0  0  0  0  0
   37.7930   25.6660   42.8430 O   0  0  0  0  0  0  0  0  0  0  0  0
   37.9980   24.8620   42.2630 H   0  0  0  0  0  0  0  0  0  0  0  0
   40.1940   25.8960   44.1050 O   0  0  0  0  0  0  0  0  0  0  0  0
   39.7870   24.9680   44.1030 H   0  0  0  0  0  0  0  0  0  0  0  0
  1  2  2  0  0  0  0
  1  6  1  0  0  0  0
  2  3  1  0  0  0  0
  3 11  1  0  0  0  0
  3  4  2  0  0  0  0
  4  9  1  0  0  0  0
  5  4  1  0  0  0  0
  5  7  1  0  0  0  0
  6  5  2  0  0  0  0
  7  8  1  0  0  0  0
  8 38  1  0  0  0  0
  8 13  1  1  0  0  0
  9  8  1  0  0  0  0
 10  1  1  0  0  0  0
 12  6  1  0  0  0  0
 14 15  2  0  0  0  0
 14 19  1  0  0  0  0
 15 16  1  0  0  0  0
 16 21  1  0  0  0  0
 16 17  2  0  0  0  0
 18 17  1  0  0  0  0
 18  2  1  0  0  0  0
 19 18  2  0  0  0  0
 20 14  1  0  0  0  0
 22 23  1  0  0  0  0
 22 15  1  0  0  0  0
 23 28  1  0  0  0  0
 24 30  1  0  0  0  0
 24 31  1  0  0  0  0
 24 23  1  0  0  0  0
 25 24  1  0  0  0  0
 26 25  1  0  0  0  0
 26 27  1  0  0  0  0
 27 35  1  0  0  0  0
 27 22  1  0  0  0  0
 29 23  1  0  0  0  0
 32 25  1  0  0  0  0
 33 26  1  0  0  0  0
 34 26  1  0  0  0  0
 36 27  1  0  0  0  0
 37 44  1  0  0  0  0
 37 43  1  0  0  0  0
 38 37  2  0  0  0  0
 39 38  1  0  0  0  0
 39 41  2  0  0  0  0
 40 39  1  0  0  0  0
 41 42  1  0  0  0  0
 42 43  2  0  0  0  0
 43 46  1  0  0  0  0
 45 44  1  0  0  0  0
 47 46  1  0  0  0  0
M  END
>  <minimizedAffinity>
-6.31220531

$$$$

 OpenBabel03242518273D

 47 51  0  0  1  0  0  0  0  0999 V2000
   37.3190   33.2990   39.3940 C   0  0  0  0  0  0  0  0  0  0  0  0
   37.9840   32.2220   38.9270 C   0  0  0  0  0  0  0  0  0  0  0  0
   39.3730   32.2200   39.0260 C   0  0  0  0  0  0  0  0  0  0  0  0
   40.0400   33.2880   39.5840 C   0  0  0  0  0  0  0  0  0  0  0  0
   39.3170   34.3890   40.0580 C   0  0  0  0  0  0  0  0  0  0  0  0
   37.9290   34.4020   39.9650 C   0  0  0  0  0  0  0  0  0  0  0  0
   40.2400   35.3080   40.5630 O   0  0  0  0  0  0  0  0  0  0  0  0
   41.5290   34.9250   40.0980 C   0  0  2  0  0  0  0  0  0  0  0  0
   41.3880   33.5600   39.8120 O   0  0  0  0  0  0  0  0  0  0  0  0
   36.2430   33.2700   39.3020 H   0  0  0  0  0  0  0  0  0  0  0  0
   39.9220   31.3670   38.6580 H   0  0  0  0  0  0  0  0  0  0  0  0
   37.3410   35.2360   40.3200 H   0  0  0  0  0  0  0  0  0  0  0  0
   41.8100   35.4760   39.1790 H   0  0  0  0  0  0  0  0  0  0  0  0
   36.9260   29.5720   36.5830 C   0  0  0  0  0  0  0  0  0  0  0  0
   35.9340   28.9220   37.2940 C   0  0  0  0  0  0  0  0  0  0  0  0
   35.6430   29.4030   38.5720 C   0  0  0  0  0  0  0  0  0  0  0  0
   36.3240   30.4690   39.0650 N   0  0  0  0  0  0  0  0  0  0  0  0
   37.2940   31.0810   38.3320 C   0  0  0  0  0  0  0  0  0  0  0  0
   37.5810   30.6280   37.1070 N   0  0  0  0  0  0  0  0  0  0  0  0
   37.1900   29.2340   35.5810 H   0  0  0  0  0  0  0  0  0  0  0  0
   34.8790   28.8920   39.1060 H   0  0  0  0  0  0  0  0  0  0  0  0
   35.3020   27.8290   36.6730 N   0  0  0  0  0  0  0  0  0  0  0  0
   35.6080   27.5640   35.3010 C   0  0  0  0  0  0  0  0  0  0  0  0
   34.8180   26.4510   34.7120 C   0  0  0  0  0  0  0  0  0  0  0  0
   34.7650   25.2960   35.5400 N   0  0  0  0  0  0  0  0  0  0  0  0
   34.7020   25.4800   36.9320 C   0  0  0  0  0  0  0  0  0  0  0  0
   34.3570   26.9220   37.2690 C   0  0  0  0  0  0  0  0  0  0  0  0
   35.4440   28.5020   34.7250 H   0  0  0  0  0  0  0  0  0  0  0  0
   36.7050   27.3520   35.2200 H   0  0  0  0  0  0  0  0  0  0  0  0
   35.3000   26.1750   33.7440 H   0  0  0  0  0  0  0  0  0  0  0  0
   33.8100   26.8320   34.4500 H   0  0  0  0  0  0  0  0  0  0  0  0
   35.3150   24.4750   35.2180 H   0  0  0  0  0  0  0  0  0  0  0  0
   33.9610   24.8200   37.4240 H   0  0  0  0  0  0  0  0  0  0  0  0
   35.6900   25.2750   37.4370 H   0  0  0  0  0  0  0  0  0  0  0  0
   33.3530   27.0960   36.7920 H   0  0  0  0  0  0  0  0  0  0  0  0
   34.2230   27.0460   38.3570 H   0  0  0  0  0  0  0  0  0  0  0  0
   43.6960   34.5300   40.9910 C   0  0  0  0  0  0  0  0  0  0  0  0
   42.4980   35.2300   41.1680 C   0  0  0  0  0  0  0  0  0  0  0  0
   42.3660   36.0720   42.2500 C   0  0  0  0  0  0  0  0  0  0  0  0
   41.3990   36.5590   42.2840 H   0  0  0  0  0  0  0  0  0  0  0  0
   43.4040   36.2230   43.1490 C   0  0  0  0  0  3  0  0  0  0  0  0
   44.5920   35.5330   42.9810 C   0  0  0  0  0  3  0  0  0  0  0  0
   44.7430   34.6820   41.8980 C   0  0  0  0  0  0  0  0  0  0  0  0
   43.9680   33.6440   39.9380 O   0  0  0  0  0  0  0  0  0  0  0  0
   44.4650   33.9440   39.1100 H   0  0  0  0  0  0  0  0  0  0  0  0
   45.9480   34.0140   41.7710 O   0  0  0  0  0  0  0  0  0  0  0  0
   46.2100   33.4970   40.9390 H   0  0  0  0  0  0  0  0  0  0  0  0
  1  6  1  0  0  0  0
  2  3  1  0  0  0  0
  2  1  2  0  0  0  0
  3  4  2  0  0  0  0
  4  9  1  0  0  0  0
  4  5  1  0  0  0  0
  5  7  1  0  0  0  0
  6  5  2  0  0  0  0
  6 12  1  0  0  0  0
  8 13  1  6  0  0  0
  8  7  1  0  0  0  0
  8 38  1  0  0  0  0
  9  8  1  0  0  0  0
 10  1  1  0  0  0  0
 11  3  1  0  0  0  0
 14 19  2  0  0  0  0
 14 15  1  0  0  0  0
 15 16  2  0  0  0  0
 16 17  1  0  0  0  0
 16 21  1  0  0  0  0
 18  2  1  0  0  0  0
 18 17  2  0  0  0  0
 19 18  1  0  0  0  0
 20 14  1  0  0  0  0
 22 27  1  0  0  0  0
 22 15  1  0  0  0  0
 23 22  1  0  0  0  0
 24 23  1  0  0  0  0
 24 25  1  0  0  0  0
 25 26  1  0  0  0  0
 26 27  1  0  0  0  0
 26 33  1  0  0  0  0
 26 34  1  0  0  0  0
 27 36  1  0  0  0  0
 28 23  1  0  0  0  0
 29 23  1  0  0  0  0
 30 24  1  0  0  0  0
 31 24  1  0  0  0  0
 32 25  1  0  0  0  0
 35 27  1  0  0  0  0
 37 38  2  0  0  0  0
 37 43  1  0  0  0  0
 38 39  1  0  0  0  0
 39 40  1  0  0  0  0
 39 41  2  0  0  0  0
 42 41  1  0  0  0  0
 43 42  2  0  0  0  0
 44 37  1  0  0  0  0
 45 44  1  0  0  0  0
 46 43  1  0  0  0  0
 47 46  1  0  0  0  0
M  END
>  <minimizedAffinity>
-6.30573511

$$$$
