
 OpenBabel03252500513D

 37 39  0  0  0  0  0  0  0  0999 V2000
   44.8270   34.9510   42.0880 C   0  0  0  0  0  0  0  0  0  0  0  0
   45.6000   34.7780   41.1230 O   0  0  0  0  0  0  0  0  0  0  0  0
   44.9530   35.0070   44.5250 C   0  0  0  0  0  0  0  0  0  0  0  0
   45.1490   34.3160   43.3550 C   0  0  0  0  0  0  0  0  0  0  0  0
   45.6580   32.9970   43.3620 C   0  0  0  0  0  0  0  0  0  0  0  0
   45.9380   32.4650   44.5960 N   0  0  0  0  0  0  0  0  0  0  0  0
   45.7450   33.1430   45.7230 C   0  0  0  0  0  0  0  0  0  0  0  0
   45.2570   34.4010   45.6850 N   0  0  0  0  0  0  0  0  0  0  0  0
   44.5740   35.9980   44.5940 H   0  0  0  0  0  0  0  0  0  0  0  0
   45.8190   32.4390   42.4590 H   0  0  0  0  0  0  0  0  0  0  0  0
   46.0560   32.5410   47.0100 C   0  0  0  0  0  0  0  0  0  0  0  0
   47.3260   32.2450   47.3940 C   0  0  0  0  0  0  0  0  0  0  0  0
   47.6340   31.6800   48.6010 C   0  0  0  0  0  0  0  0  0  0  0  0
   46.6030   31.4130   49.4330 N   0  0  0  0  0  0  0  0  0  0  0  0
   45.3600   31.7040   49.0530 C   0  0  0  0  0  0  0  0  0  0  0  0
   45.0310   32.2570   47.8780 N   0  0  0  0  0  0  0  0  0  0  0  0
   48.1540   32.4570   46.7310 H   0  0  0  0  0  0  0  0  0  0  0  0
   48.6380   31.4400   48.9200 H   0  0  0  0  0  0  0  0  0  0  0  0
   44.5160   31.4970   49.7080 H   0  0  0  0  0  0  0  0  0  0  0  0
   43.8020   35.7500   41.6740 O   0  0  0  0  0  0  0  0  0  0  0  0
   42.7370   35.3110   40.9320 C   0  0  0  0  0  0  0  0  0  0  0  0
   42.7890   35.8820   39.9530 H   0  0  0  0  0  0  0  0  0  0  0  0
   42.7400   34.2590   40.5900 H   0  0  0  0  0  0  0  0  0  0  0  0
   41.3780   35.7200   41.4840 C   0  0  0  0  0  0  0  0  0  0  0  0
   41.1700   36.7820   41.3250 H   0  0  0  0  0  0  0  0  0  0  0  0
   41.3330   35.3830   42.5270 H   0  0  0  0  0  0  0  0  0  0  0  0
   39.5880   33.9480   41.3040 C   0  0  0  0  0  0  0  0  0  0  0  0
   40.3610   34.9350   40.7150 C   0  0  0  0  0  0  0  0  0  0  0  0
   40.1560   35.1760   39.3590 C   0  0  0  0  0  0  0  0  0  0  0  0
   40.7730   35.9520   38.9220 H   0  0  0  0  0  0  0  0  0  0  0  0
   39.2320   34.4890   38.5850 C   0  0  0  0  0  3  0  0  0  0  0  0
   38.4770   33.5080   39.2110 C   0  0  0  0  0  3  0  0  0  0  0  0
   38.6550   33.2490   40.5410 C   0  0  0  0  0  0  0  0  0  0  0  0
   39.7450   33.6640   42.6450 O   0  0  0  0  0  0  0  0  0  0  0  0
   39.4380   32.7950   43.0690 H   0  0  0  0  0  0  0  0  0  0  0  0
   37.8570   32.2520   41.0850 O   0  0  0  0  0  0  0  0  0  0  0  0
   36.9030   32.0860   40.7620 H   0  0  0  0  0  0  0  0  0  0  0  0
  1  4  1  0  0  0  0
  2  1  2  0  0  0  0
  3  9  1  0  0  0  0
  3  8  1  0  0  0  0
  4  5  1  0  0  0  0
  4  3  2  0  0  0  0
  5  6  2  0  0  0  0
  6  7  1  0  0  0  0
  7 11  1  0  0  0  0
  8  7  2  0  0  0  0
 10  5  1  0  0  0  0
 11 12  2  0  0  0  0
 11 16  1  0  0  0  0
 12 13  1  0  0  0  0
 13 18  1  0  0  0  0
 13 14  2  0  0  0  0
 15 14  1  0  0  0  0
 15 19  1  0  0  0  0
 16 15  2  0  0  0  0
 17 12  1  0  0  0  0
 20  1  1  0  0  0  0
 21 24  1  0  0  0  0
 21 20  1  0  0  0  0
 22 21  1  0  0  0  0
 23 21  1  0  0  0  0
 24 26  1  0  0  0  0
 25 24  1  0  0  0  0
 27 34  1  0  0  0  0
 28 27  1  0  0  0  0
 28 24  1  0  0  0  0
 29 28  2  0  0  0  0
 30 29  1  0  0  0  0
 31 32  2  0  0  0  0
 31 29  1  0  0  0  0
 32 33  1  0  0  0  0
 33 36  1  0  0  0  0
 33 27  2  0  0  0  0
 34 35  1  0  0  0  0
 37 36  1  0  0  0  0
M  END
>  <minimizedAffinity>
-7.33096933

>  <minimizedRMSD>
0.775523484

$$$$
