
     RDKit          3D

 49 51  0  0  0  0  0  0  0  0999 V2000
   47.5254   34.4394   40.7711 C   0  0  0  0  0  0  0  0  0  0  0  0
   48.7821   33.7676   41.1324 C   0  0  0  0  0  0  0  0  0  0  0  0
   49.1076   32.6260   40.4153 C   0  0  0  0  0  0  0  0  0  0  0  0
   50.2648   31.9290   40.6823 C   0  0  0  0  0  0  0  0  0  0  0  0
   51.0691   32.4320   41.6952 N   0  0  0  0  0  0  0  0  0  0  0  0
   50.7118   33.5461   42.3659 C   0  0  0  0  0  0  0  0  0  0  0  0
   49.5914   34.1936   42.0844 N   0  0  0  0  0  0  0  0  0  0  0  0
   48.0124   32.0403   39.1193 S   0  0  0  0  0  0  0  0  0  0  0  0
   48.8231   32.1550   37.5060 C   0  0  0  0  0  0  0  0  0  0  0  0
   48.4906   33.4893   36.8997 C   0  0  0  0  0  0  0  0  0  0  0  0
   48.1924   33.2988   35.5083 N   0  0  0  0  0  0  0  0  0  0  0  0
   46.7526   34.9523   41.9514 C   0  0  0  0  0  0  0  0  0  0  0  0
   45.2783   34.9342   41.7455 C   0  0  0  0  0  0  0  0  0  0  0  0
   44.4408   35.5984   42.6856 C   0  0  0  0  0  0  0  0  0  0  0  0
   42.7624   35.3057   42.0248 S   0  0  0  0  0  0  0  0  0  0  0  0
   43.4894   34.3142   40.5587 C   0  0  0  0  0  0  0  0  0  0  0  0
   44.6053   34.3731   40.7852 N   0  0  0  0  0  0  0  0  0  0  0  0
   42.6975   33.7450   39.5713 O   0  0  0  0  0  0  0  0  0  0  0  0
   40.7451   33.9892   37.8056 O   0  0  0  0  0  0  0  0  0  0  0  0
   41.7778   34.7795   38.5992 P   0  0  1  0  0  0  0  0  0  0  0  0
   40.9362   35.8415   39.6376 O   0  0  0  0  0  0  0  0  0  0  0  0
   42.7779   35.7007   37.6081 O   0  0  0  0  0  0  0  0  0  0  0  0
   46.8629   33.8105   40.1642 H   0  0  0  0  0  0  0  0  0  0  0  0
   47.8013   35.3327   40.1467 H   0  0  0  0  0  0  0  0  0  0  0  0
   50.5567   31.0263   40.1408 H   0  0  0  0  0  0  0  0  0  0  0  0
   51.4070   33.8568   43.1374 H   0  0  0  0  0  0  0  0  0  0  0  0
   48.4907   31.3063   36.8787 H   0  0  0  0  0  0  0  0  0  0  0  0
   49.9148   32.0233   37.6853 H   0  0  0  0  0  0  0  0  0  0  0  0
   47.5958   33.9279   37.3915 H   0  0  0  0  0  0  0  0  0  0  0  0
   49.3244   34.1916   37.0992 H   0  0  0  0  0  0  0  0  0  0  0  0
   49.0662   33.2770   34.9176 H   0  0  0  0  0  0  0  0  0  0  0  0
   47.5852   34.1067   35.1784 H   0  0  0  0  0  0  0  0  0  0  0  0
   46.9521   34.2443   42.7883 H   0  0  0  0  0  0  0  0  0  0  0  0
   47.0722   35.9522   42.2789 H   0  0  0  0  0  0  0  0  0  0  0  0
   44.7229   36.1435   43.5737 H   0  0  0  0  0  0  0  0  0  0  0  0
   41.3135   36.7429   39.6111 H   0  0  0  0  0  0  0  0  0  0  0  0
   42.8812   32.9958   37.5613 O   0  0  0  0  0  0  0  0  0  0  0  0
   43.4874   33.6986   36.5019 C   0  0  0  0  0  0  0  0  0  0  0  0
   43.4261   35.0960   36.5395 C   0  0  0  0  0  0  0  0  0  0  0  0
   44.0226   35.7747   35.4976 C   0  0  0  0  0  0  0  0  0  0  0  0
   43.9881   36.8555   35.5048 H   0  0  0  0  0  0  0  0  0  0  0  0
   44.6483   35.0923   34.4707 C   0  0  0  0  0  0  0  0  0  0  0  0
   44.7052   33.7138   34.4397 C   0  0  0  0  0  0  0  0  0  0  0  0
   44.1170   32.9999   35.4692 C   0  0  0  0  0  0  0  0  0  0  0  0
   44.1003   31.6160   35.5631 O   0  0  0  0  0  0  0  0  0  0  0  0
   42.5379   32.0712   37.3197 H   0  0  0  0  0  0  0  0  0  0  0  0
   45.1241   35.6064   33.6410 H   0  0  0  0  0  0  0  0  0  0  0  0
   45.1745   33.1221   33.6731 H   0  0  0  0  0  0  0  0  0  0  0  0
   44.8428   31.0780   35.9753 H   0  0  0  0  0  0  0  0  0  0  0  0
  1  2  1  0
  1 12  1  0
  2  7  2  0
  3  4  2  0
  3  2  1  0
  4  5  1  0
  5  6  2  0
  7  6  1  0
  8  3  1  0
  9  8  1  0
 10  9  1  0
 11 10  1  0
 13 12  1  0
 13 14  2  0
 15 14  1  0
 16 17  2  0
 16 15  1  0
 17 13  1  0
 18 16  1  0
 19 20  2  0
 20 18  1  1
 20 21  1  0
 22 20  1  0
  1 23  1  0
  1 24  1  0
  4 25  1  0
  6 26  1  0
  9 27  1  0
  9 28  1  0
 10 29  1  0
 10 30  1  0
 11 31  1  0
 11 32  1  0
 12 33  1  0
 12 34  1  0
 14 35  1  0
 21 36  1  0
 37 38  1  0
 38 39  2  0
 39 40  1  0
 40 41  1  0
 40 42  2  0
 42 43  1  0
 43 44  2  0
 44 45  1  0
 44 38  1  0
 37 46  1  0
 42 47  1  0
 43 48  1  0
 45 49  1  0
 22 39  1  0
M  ISO  8  23   8  24   8  25  14  26  14  27   8  28   8  29   8  30   8
M  ISO  7  31   5  32   5  33   8  34   8  35  14  36   3  41  16
M  END
>  <DihAtoms>  (1) 
19,21,38,37

>  <DihDeg>  (1) 
179.9992165481033

$$$$
