
 OpenBabel03242521553D

 50 54  0  0  0  0  0  0  0  0999 V2000
   45.9490   32.3240   46.0780 C   0  0  0  0  0  0  0  0  0  0  0  0
   45.6250   33.0030   47.2490 C   0  0  0  0  0  0  0  0  0  0  0  0
   45.8330   32.4650   48.5260 C   0  0  0  0  0  0  0  0  0  0  0  0
   46.3780   31.2220   48.6750 C   0  0  0  0  0  0  0  0  0  0  0  0
   46.7070   30.5120   47.5090 C   0  0  0  0  0  0  0  0  0  0  0  0
   47.1940   29.2530   47.6940 C   0  0  0  0  0  0  0  0  0  0  0  0
   47.4570   28.4890   46.5550 C   0  0  0  0  0  0  0  0  0  0  0  0
   47.1970   29.0660   45.2640 C   0  0  0  0  0  0  0  0  0  0  0  0
   46.7050   30.3510   45.2420 C   0  0  0  0  0  0  0  0  0  0  0  0
   46.4540   31.1310   46.2810 C   0  0  0  0  0  0  0  0  0  0  0  0
   45.1850   34.0090   47.1410 H   0  0  0  0  0  0  0  0  0  0  0  0
   45.5550   33.0480   49.4060 H   0  0  0  0  0  0  0  0  0  0  0  0
   46.5500   30.7980   49.6590 H   0  0  0  0  0  0  0  0  0  0  0  0
   47.3660   28.8650   48.6900 H   0  0  0  0  0  0  0  0  0  0  0  0
   47.8450   27.5060   46.7830 H   0  0  0  0  0  0  0  0  0  0  0  0
   47.4860   28.2690   44.5970 H   0  0  0  0  0  0  0  0  0  0  0  0
   44.9240   29.7500   43.8600 C   0  0  0  0  0  0  0  0  0  0  0  0
   46.2890   30.2370   43.8580 C   0  0  0  0  0  0  0  0  0  0  0  0
   46.7640   30.2890   42.6170 C   0  0  0  0  0  0  0  0  0  0  0  0
   46.0830   29.9310   41.4740 C   0  0  0  0  0  0  0  0  0  0  0  0
   44.7940   29.4680   41.5010 C   0  0  0  0  0  0  0  0  0  0  0  0
   44.2170   29.3820   42.7350 C   0  0  0  0  0  0  0  0  0  0  0  0
   47.7960   30.6710   42.7150 H   0  0  0  0  0  0  0  0  0  0  0  0
   46.6750   30.0550   40.5550 H   0  0  0  0  0  0  0  0  0  0  0  0
   44.3150   29.2030   40.5680 H   0  0  0  0  0  0  0  0  0  0  0  0
   44.0940   29.5720   45.0010 O   0  0  0  0  0  0  0  0  0  0  0  0
   43.8280   30.4310   45.4640 H   0  0  0  0  0  0  0  0  0  0  0  0
   42.9210   28.9020   42.7010 O   0  0  0  0  0  0  0  0  0  0  0  0
   40.6300   28.9060   42.6540 C   0  0  0  0  0  0  0  0  0  0  0  0
   41.7880   29.6370   42.4690 C   0  0  0  0  0  0  0  0  0  0  0  0
   41.7010   30.9640   42.0910 C   0  0  0  0  0  0  0  0  0  0  0  0
   42.6600   31.4700   41.9670 H   0  0  0  0  0  0  0  0  0  0  0  0
   40.4700   31.5590   41.8990 C   0  0  0  0  0  0  0  0  0  0  0  0
   39.3440   30.8130   42.0890 C   0  0  0  0  0  0  0  0  0  0  0  0
   39.3620   29.4680   42.4700 C   0  0  0  0  0  0  0  0  0  0  0  0
   40.5680   27.5520   43.0370 O   0  0  0  0  0  0  0  0  0  0  0  0
   40.6190   27.3110   44.0300 H   0  0  0  0  0  0  0  0  0  0  0  0
   38.1790   28.7650   42.6460 O   0  0  0  0  0  0  0  0  0  0  0  0
   37.8570   28.6060   43.5940 H   0  0  0  0  0  0  0  0  0  0  0  0
   45.2730   34.0610   42.8440 C   0  0  0  0  0  0  0  0  0  0  0  0
   46.5830   34.4820   42.5180 C   0  0  0  0  0  0  0  0  0  0  0  0
   47.5770   34.1210   43.4010 C   0  0  0  0  0  0  0  0  0  0  0  0
   47.1710   33.4200   44.4570 N   0  0  0  0  0  0  0  0  0  0  0  0
   45.9550   33.0100   44.7970 C   0  0  0  0  0  0  0  0  0  0  0  0
   45.0280   33.3530   43.9520 N   0  0  0  0  0  0  0  0  0  0  0  0
   44.5060   34.3540   42.1390 H   0  0  0  0  0  0  0  0  0  0  0  0
   46.8080   35.0510   41.6380 H   0  0  0  0  0  0  0  0  0  0  0  0
   48.9440   34.4210   43.1710 N   0  0  0  0  0  0  0  0  0  0  0  0
   49.4680   34.3730   42.2480 H   0  0  0  0  0  0  0  0  0  0  0  0
   49.6340   34.7390   43.9150 H   0  0  0  0  0  0  0  0  0  0  0  0
  1 10  2  0  0  0  0
  1  2  1  0  0  0  0
  2  3  2  0  0  0  0
  3  4  1  0  0  0  0
  3 12  1  0  0  0  0
  4 13  1  0  0  0  0
  5  6  1  0  0  0  0
  5  4  2  0  0  0  0
  6 14  1  0  0  0  0
  7 15  1  0  0  0  0
  7  6  2  0  0  0  0
  8  7  1  0  0  0  0
  9  8  2  0  0  0  0
  9 10  1  0  0  0  0
 10  5  1  0  0  0  0
 11  2  1  0  0  0  0
 16  8  1  0  0  0  0
 17 26  1  0  0  0  0
 18 17  1  0  0  0  0
 18  9  1  0  0  0  0
 19 23  1  0  0  0  0
 19 18  2  0  0  0  0
 20 21  2  0  0  0  0
 20 19  1  0  0  0  0
 21 22  1  0  0  0  0
 22 17  2  0  0  0  0
 24 20  1  0  0  0  0
 25 21  1  0  0  0  0
 26 27  1  0  0  0  0
 28 22  1  0  0  0  0
 29 36  1  0  0  0  0
 30 29  2  0  0  0  0
 30 28  1  0  0  0  0
 31 30  1  0  0  0  0
 32 31  1  0  0  0  0
 33 34  1  0  0  0  0
 33 31  2  0  0  0  0
 34 35  2  0  0  0  0
 35 38  1  0  0  0  0
 35 29  1  0  0  0  0
 36 37  1  0  0  0  0
 38 39  1  0  0  0  0
 40 45  1  0  0  0  0
 41 40  2  0  0  0  0
 41 42  1  0  0  0  0
 42 43  2  0  0  0  0
 43 44  1  0  0  0  0
 44  1  1  0  0  0  0
 45 44  2  0  0  0  0
 46 40  1  0  0  0  0
 47 41  1  0  0  0  0
 48 42  1  0  0  0  0
 48 50  1  0  0  0  0
 49 48  1  0  0  0  0
M  END
>  <minimizedAffinity>
-5.94065952

>  <minimizedRMSD>
0.69625783

$$$$
