
 OpenBabel03252508153D

 39 42  0  0  1  0  0  0  0  0999 V2000
   46.0810   33.1190   46.0440 C   0  0  0  0  0  3  0  0  0  0  0  0
   46.7970   32.1330   45.6700 C   0  0  0  0  0  3  0  0  0  0  0  0
   44.4580   35.9960   44.4170 C   0  0  0  0  0  0  0  0  0  0  0  0
   44.7700   35.7970   43.0780 C   0  0  0  0  0  0  0  0  0  0  0  0
   45.5300   34.7170   42.7600 C   0  0  0  0  0  0  0  0  0  0  0  0
   45.9310   33.9110   43.7740 N   0  0  0  0  0  0  0  0  0  0  0  0
   45.6390   34.0880   45.0610 C   0  0  0  0  0  0  0  0  0  0  0  0
   44.8890   35.1570   45.3530 N   0  0  0  0  0  0  0  0  0  0  0  0
   43.8520   36.8460   44.7300 H   0  0  0  0  0  0  0  0  0  0  0  0
   44.4310   36.4580   42.3130 H   0  0  0  0  0  0  0  0  0  0  0  0
   47.2020   34.5170   40.8600 C   0  0  0  0  0  0  0  0  0  0  0  0
   45.9790   34.3080   41.4390 C   0  0  0  0  0  0  0  0  0  0  0  0
   45.1180   33.6140   40.6080 C   0  0  0  0  0  0  0  0  0  0  0  0
   44.0890   33.3560   40.9090 H   0  0  0  0  0  0  0  0  0  0  0  0
   45.4520   33.1830   39.3420 C   0  0  0  0  0  3  0  0  0  0  0  0
   46.7030   33.4310   38.8250 C   0  0  0  0  0  3  0  0  0  0  0  0
   47.5920   34.1160   39.6140 C   0  0  0  0  0  0  0  0  0  0  0  0
   48.1410   35.1950   41.5880 O   0  0  0  0  0  0  0  0  0  0  0  0
   48.8440   34.6400   42.0770 H   0  0  0  0  0  0  0  0  0  0  0  0
   48.8420   34.3690   39.1110 O   0  0  0  0  0  0  0  0  0  0  0  0
   49.5080   33.5920   39.1190 H   0  0  0  0  0  0  0  0  0  0  0  0
   47.1890   31.1610   46.7730 C   0  0  0  0  0  0  0  0  0  0  0  0
   46.4840   30.3000   46.6080 H   0  0  0  0  0  0  0  0  0  0  0  0
   48.2140   30.8060   46.6440 H   0  0  0  0  0  0  0  0  0  0  0  0
   46.8530   31.7400   48.1050 C   0  0  1  0  0  0  0  0  0  0  0  0
   46.2160   30.8310   49.1030 C   0  0  0  0  0  0  0  0  0  0  0  0
   47.5780   31.2780   49.3170 C   0  0  1  0  0  0  0  0  0  0  0  0
   46.4950   32.8070   48.1170 H   0  0  0  0  0  0  0  0  0  0  0  0
   46.0510   29.7720   48.7910 H   0  0  0  0  0  0  0  0  0  0  0  0
   45.3690   31.2240   49.6940 H   0  0  0  0  0  0  0  0  0  0  0  0
   47.6970   32.0540   50.1330 H   0  0  0  0  0  0  0  0  0  0  0  0
   48.7960   30.4610   49.1240 C   0  0  0  0  0  0  0  0  0  0  0  0
   49.6400   30.2700   50.4110 C   0  0  0  0  0  0  0  0  0  0  0  0
   50.1420   31.1810   49.3440 C   0  0  0  0  0  0  0  0  0  0  0  0
   48.7900   29.5860   48.4440 H   0  0  0  0  0  0  0  0  0  0  0  0
   50.1080   29.2930   50.5520 H   0  0  0  0  0  0  0  0  0  0  0  0
   49.2970   30.7820   51.3300 H   0  0  0  0  0  0  0  0  0  0  0  0
   50.9940   30.7880   48.7640 H   0  0  0  0  0  0  0  0  0  0  0  0
   50.0760   32.2670   49.4400 H   0  0  0  0  0  0  0  0  0  0  0  0
  2  1  2  0  0  0  0
  2 22  1  0  0  0  0
  3  9  1  0  0  0  0
  3  8  1  0  0  0  0
  4  3  2  0  0  0  0
  5  4  1  0  0  0  0
  5  6  2  0  0  0  0
  6  7  1  0  0  0  0
  7  8  2  0  0  0  0
  7  1  1  0  0  0  0
 10  4  1  0  0  0  0
 11 12  1  0  0  0  0
 11 18  1  0  0  0  0
 12  5  1  0  0  0  0
 13 14  1  0  0  0  0
 13 12  2  0  0  0  0
 15 13  1  0  0  0  0
 16 15  2  0  0  0  0
 16 17  1  0  0  0  0
 17 11  2  0  0  0  0
 18 19  1  0  0  0  0
 20 21  1  0  0  0  0
 20 17  1  0  0  0  0
 22 25  1  0  0  0  0
 23 22  1  0  0  0  0
 24 22  1  0  0  0  0
 25 28  1  1  0  0  0
 25 26  1  0  0  0  0
 25 27  1  0  0  0  0
 26 27  1  0  0  0  0
 26 30  1  0  0  0  0
 27 31  1  1  0  0  0
 29 26  1  0  0  0  0
 32 27  1  0  0  0  0
 32 34  1  0  0  0  0
 32 33  1  0  0  0  0
 33 36  1  0  0  0  0
 33 37  1  0  0  0  0
 34 39  1  0  0  0  0
 34 33  1  0  0  0  0
 35 32  1  0  0  0  0
 38 34  1  0  0  0  0
M  END
>  <minimizedAffinity>
-6.07774067

>  <minimizedRMSD>
0.913178146

$$$$
