
 OpenBabel03252501553D

 23 24  0  0  0  0  0  0  0  0999 V2000
   44.3690   35.8240   44.4640 C   0  0  0  0  0  0  0  0  0  0  0  0
   44.6750   35.2240   43.2320 C   0  0  0  0  0  0  0  0  0  0  0  0
   45.3520   34.0170   43.2570 C   0  0  0  0  0  0  0  0  0  0  0  0
   45.6750   33.5030   44.4360 N   0  0  0  0  0  0  0  0  0  0  0  0
   45.3850   34.0720   45.6130 C   0  0  0  0  0  0  0  0  0  0  0  0
   44.7230   35.2530   45.6510 N   0  0  0  0  0  0  0  0  0  0  0  0
   43.8370   36.7600   44.5080 H   0  0  0  0  0  0  0  0  0  0  0  0
   45.7020   33.5600   46.5260 H   0  0  0  0  0  0  0  0  0  0  0  0
   44.8830   32.7530   41.0880 C   0  0  0  0  0  0  0  0  0  0  0  0
   45.6330   33.4980   41.9450 C   0  0  0  0  0  0  0  0  0  0  0  0
   46.9080   33.8850   41.4930 C   0  0  0  0  0  0  0  0  0  0  0  0
   47.6330   34.4630   42.0580 H   0  0  0  0  0  0  0  0  0  0  0  0
   47.3890   33.5420   40.2580 C   0  0  0  0  0  3  0  0  0  0  0  0
   46.5650   32.7770   39.4280 C   0  0  0  0  0  3  0  0  0  0  0  0
   45.3110   32.3640   39.8080 C   0  0  0  0  0  0  0  0  0  0  0  0
   43.6320   32.4150   41.6230 O   0  0  0  0  0  0  0  0  0  0  0  0
   43.5380   32.0620   42.5800 H   0  0  0  0  0  0  0  0  0  0  0  0
   44.4010   31.6090   39.0930 O   0  0  0  0  0  0  0  0  0  0  0  0
   44.3700   30.5820   39.1350 H   0  0  0  0  0  0  0  0  0  0  0  0
   44.2470   36.0110   42.0330 C   0  0  0  0  0  0  0  0  0  0  0  0
   45.0120   36.8490   41.9410 H   0  0  0  0  0  0  0  0  0  0  0  0
   44.1880   35.4540   41.1080 H   0  0  0  0  0  0  0  0  0  0  0  0
   43.3080   36.5450   42.2950 H   0  0  0  0  0  0  0  0  0  0  0  0
  1  7  1  0  0  0  0
  1  6  1  0  0  0  0
  2  3  1  0  0  0  0
  2  1  2  0  0  0  0
  3  4  2  0  0  0  0
  4  5  1  0  0  0  0
  5  6  2  0  0  0  0
  5  8  1  0  0  0  0
  9 16  1  0  0  0  0
  9 10  1  0  0  0  0
 10  3  1  0  0  0  0
 11 10  2  0  0  0  0
 11 12  1  0  0  0  0
 13 11  1  0  0  0  0
 14 15  1  0  0  0  0
 14 13  2  0  0  0  0
 15  9  2  0  0  0  0
 16 17  1  0  0  0  0
 18 19  1  0  0  0  0
 18 15  1  0  0  0  0
 20 23  1  0  0  0  0
 20  2  1  0  0  0  0
 21 20  1  0  0  0  0
 22 20  1  0  0  0  0
M  END
>  <minimizedAffinity>
-3.76526952

>  <minimizedRMSD>
0.413202852

$$$$
