REMARK  Name = 
REMARK  9 active torsions:
REMARK  status: ('A' for Active; 'I' for Inactive)
REMARK    1  A    between atoms: C_1  and  O_13
REMARK    2  A    between atoms: C_2  and  C_10
REMARK    3  A    between atoms: C_5  and  O_14
REMARK    4  A    between atoms: C_6  and  O_12
REMARK    5  A    between atoms: O_14  and  C_15
REMARK    6  A    between atoms: C_15  and  C_16
REMARK    7  A    between atoms: C_16  and  C_32
REMARK    8  A    between atoms: O_30  and  C_31
REMARK    9  A    between atoms: C_37  and  O_38
REMARK                            x       y       z     vdW  Elec       q    Type
REMARK                         _______ _______ _______ _____ _____    ______ ____
ROOT
ATOM      1  C   UNL     1      46.684  32.852  46.642  0.00  0.00    +0.000 C 
ATOM      2  C   UNL     1      47.055  32.738  45.217  0.00  0.00    +0.000 C 
ATOM      3  O   UNL     1      46.520  31.426  44.829  0.00  0.00    +0.000 OA
ATOM      4  C   UNL     1      47.178  30.691  45.842  0.00  0.00    +0.000 C 
ATOM      5  C   UNL     1      46.587  31.398  47.089  0.00  0.00    +0.000 C 
ATOM      6  H   UNL     1      47.388  33.418  47.270  0.00  0.00    +0.000 HD
ATOM      7  H   UNL     1      48.151  32.685  45.038  0.00  0.00    +0.000 HD
ATOM      8  H   UNL     1      48.267  30.924  45.778  0.00  0.00    +0.000 HD
ATOM      9  H   UNL     1      46.960  29.644  45.795  0.00  0.00    +0.000 HD
ATOM     10  H   UNL     1      47.258  31.122  47.931  0.00  0.00    +0.000 HD
ENDROOT
BRANCH   2  15
ATOM     11  C   UNL     1      44.710  35.240  43.961  0.00  0.00    +0.000 A 
ATOM     12  C   UNL     1      45.339  35.734  42.821  0.00  0.00    +0.000 A 
ATOM     13  C   UNL     1      46.597  35.201  42.460  0.00  0.00    +0.000 A 
ATOM     14  N   UNL     1      47.142  34.234  43.232  0.00  0.00    +0.000 NA
ATOM     15  C   UNL     1      46.506  33.770  44.338  0.00  0.00    +0.000 A 
ATOM     16  N   UNL     1      45.296  34.264  44.709  0.00  0.00    +0.000 NA
ATOM     17  H   UNL     1      44.877  36.496  42.240  0.00  0.00    +0.000 HD
ATOM     18  H   UNL     1      47.120  35.555  41.583  0.00  0.00    +0.000 HD
BRANCH  11  19
ATOM     19  O   UNL     1      43.465  35.727  44.368  0.00  0.00    +0.000 OA
ATOM     20  H   UNL     1      42.651  35.318  43.893  0.00  0.00    +0.000 HD
ENDBRANCH  11  19
ENDBRANCH   2  15
BRANCH   1  21
ATOM     21  O   UNL     1      45.370  33.427  46.751  0.00  0.00    +0.000 OA
ATOM     22  H   UNL     1      45.251  33.624  47.727  0.00  0.00    +0.000 HD
ENDBRANCH   1  21
BRANCH   5  23
ATOM     23  O   UNL     1      45.299  30.998  47.222  0.00  0.00    +0.000 OA
BRANCH  23  24
ATOM     24  C   UNL     1      44.961  30.152  48.238  0.00  0.00    +0.000 C 
ATOM     25  H   UNL     1      43.812  30.196  48.384  0.00  0.00    +0.000 HD
ATOM     26  H   UNL     1      45.433  30.361  49.162  0.00  0.00    +0.000 HD
BRANCH  24  27
ATOM     27  C   UNL     1      45.095  28.666  47.894  0.00  0.00    +0.000 C 
ATOM     28  H   UNL     1      44.796  28.114  48.807  0.00  0.00    +0.000 HD
ATOM     29  H   UNL     1      46.146  28.383  47.699  0.00  0.00    +0.000 HD
BRANCH  27  31
ATOM     30  C   UNL     1      44.436  27.097  46.197  0.00  0.00    +0.000 A 
ATOM     31  C   UNL     1      44.171  28.333  46.812  0.00  0.00    +0.000 A 
ATOM     32  C   UNL     1      43.095  28.997  46.274  0.00  0.00    +0.000 A 
ATOM     33  H   UNL     1      42.877  29.936  46.708  0.00  0.00    +0.000 HD
ATOM     34  C   UNL     1      42.323  28.547  45.245  0.00  0.00    +0.000 A 
ATOM     35  C   UNL     1      42.596  27.336  44.656  0.00  0.00    +0.000 A 
ATOM     36  C   UNL     1      43.674  26.597  45.142  0.00  0.00    +0.000 A 
BRANCH  30  37
ATOM     37  O   UNL     1      45.454  26.201  46.516  0.00  0.00    +0.000 OA
ATOM     38  H   UNL     1      46.122  25.918  45.803  0.00  0.00    +0.000 HD
ENDBRANCH  30  37
BRANCH  36  39
ATOM     39  O   UNL     1      43.882  25.404  44.503  0.00  0.00    +0.000 OA
ATOM     40  H   UNL     1      43.645  25.244  43.540  0.00  0.00    +0.000 HD
ENDBRANCH  36  39
ENDBRANCH  27  31
ENDBRANCH  24  27
ENDBRANCH  23  24
ENDBRANCH   5  23
TORSDOF 9
