
     RDKit          3D

 42 44  0  0  0  0  0  0  0  0999 V2000
   45.6395   34.3428   45.0398 C   0  0  0  0  0  0  0  0  0  0  0  0
   46.4241   34.0666   43.9123 C   0  0  0  0  0  0  0  0  0  0  0  0
   47.2441   32.9333   43.9689 C   0  0  0  0  0  0  0  0  0  0  0  0
   47.2284   32.1743   45.1094 N   0  0  0  0  0  0  0  0  0  0  0  0
   46.4640   32.4852   46.1462 C   0  0  0  0  0  0  0  0  0  0  0  0
   45.6698   33.5659   46.1166 N   0  0  0  0  0  0  0  0  0  0  0  0
   46.5005   31.6101   47.3063 N   0  0  0  0  0  0  0  0  0  0  0  0
   46.2211   32.1873   48.5950 C   0  0  0  0  0  0  0  0  0  0  0  0
   45.4901   31.2464   49.4471 C   0  0  0  0  0  0  0  0  0  0  0  0
   44.9702   29.9868   48.8298 C   0  0  0  0  0  0  0  0  0  0  0  0
   45.8942   29.3409   47.8519 C   0  0  0  0  0  0  0  0  0  0  0  0
   46.7874   30.2109   47.0769 C   0  0  2  0  0  0  0  0  0  0  0  0
   44.8577   35.4601   44.9307 O   0  0  0  0  0  0  0  0  0  0  0  0
   44.4749   36.0622   43.7444 C   0  0  0  0  0  0  0  0  0  0  0  0
   45.1147   36.9896   43.1687 O   0  0  0  0  0  0  0  0  0  0  0  0
   43.3154   35.7146   43.0240 N   0  0  0  0  0  0  0  0  0  0  0  0
   46.4150   34.6843   43.0267 H   0  0  0  0  0  0  0  0  0  0  0  0
   47.8788   32.6543   43.1381 H   0  0  0  0  0  0  0  0  0  0  0  0
   47.1477   32.5784   49.0248 H   0  0  0  0  0  0  0  0  0  0  0  0
   45.5934   33.1187   48.4137 H   0  0  0  0  0  0  0  0  0  0  0  0
   46.1268   30.9432   50.3250 H   0  0  0  0  0  0  0  0  0  0  0  0
   44.6131   31.7442   49.9215 H   0  0  0  0  0  0  0  0  0  0  0  0
   44.0263   30.2397   48.3021 H   0  0  0  0  0  0  0  0  0  0  0  0
   44.7128   29.2912   49.6477 H   0  0  0  0  0  0  0  0  0  0  0  0
   45.2959   28.6447   47.2304 H   0  0  0  0  0  0  0  0  0  0  0  0
   46.5479   28.6541   48.4672 H   0  0  0  0  0  0  0  0  0  0  0  0
   46.5683   29.9973   45.9751 H   0  0  0  0  0  0  0  0  0  0  0  0
   42.8235   35.2422   42.2490 H   0  0  0  0  0  0  0  0  0  0  0  0
   42.3770   36.0615   43.3485 H   0  0  0  0  0  0  0  0  0  0  0  0
   47.6619   27.8846   48.3702 O   0  0  0  0  0  0  0  0  0  0  0  0
   48.6389   28.7572   47.8935 C   0  0  0  0  0  0  0  0  0  0  0  0
   48.2171   29.9241   47.2364 C   0  0  0  0  0  0  0  0  0  0  0  0
   49.3002   30.6678   46.8335 C   0  0  0  0  0  0  0  0  0  0  0  0
   49.1102   31.5972   46.3243 H   0  0  0  0  0  0  0  0  0  0  0  0
   50.6272   30.3597   47.0206 C   0  0  0  0  0  0  0  0  0  0  0  0
   50.9377   29.1897   47.6779 C   0  0  0  0  0  0  0  0  0  0  0  0
   49.9304   28.3647   48.1276 C   0  0  0  0  0  0  0  0  0  0  0  0
   50.2356   27.1878   48.7890 O   0  0  0  0  0  0  0  0  0  0  0  0
   47.5483   26.9724   47.9150 H   0  0  0  0  0  0  0  0  0  0  0  0
   51.4076   31.0168   46.6621 H   0  0  0  0  0  0  0  0  0  0  0  0
   51.9760   28.9482   47.8245 H   0  0  0  0  0  0  0  0  0  0  0  0
   50.9147   26.5131   48.4089 H   0  0  0  0  0  0  0  0  0  0  0  0
  1  6  2  0
  2  3  2  0
  2  1  1  0
  3  4  1  0
  4  5  2  0
  5  7  1  0
  6  5  1  0
  7  8  1  0
  8  9  1  0
 10  9  1  0
 11 10  1  0
 12  7  1  0
 12 11  1  0
 13  1  1  0
 14 13  1  0
 15 14  2  0
 16 14  1  0
  2 17  1  0
  3 18  1  0
  8 19  1  0
  8 20  1  0
  9 21  1  0
  9 22  1  0
 10 23  1  0
 10 24  1  0
 11 25  1  0
 11 26  1  0
 12 27  1  6
 16 28  1  0
 16 29  1  0
 30 31  1  0
 31 32  2  0
 32 33  1  0
 33 34  1  0
 33 35  2  0
 35 36  1  0
 36 37  2  0
 37 38  1  0
 37 31  1  0
 30 39  1  0
 35 40  1  0
 36 41  1  0
 38 42  1  0
 12 32  1  0
M  ISO  8  17  14  18  14  19  13  20  13  21  13  22  13  23  13  24  13
M  ISO  4  25  13  26  13  27  13  34  16
M  END
>  <DihAtoms>  (1) 
6,11,31,30

>  <DihDeg>  (1) 
-131.1679159173827

$$$$
