
     RDKit          3D

 25 26  0  0  0  0  0  0  0  0999 V2000
   45.4370   35.0671   43.9978 C   0  0  0  0  0  0  0  0  0  0  0  0
   46.4924   34.2944   43.5202 C   0  0  0  0  0  0  0  0  0  0  0  0
   47.0164   33.2893   44.3366 C   0  0  0  0  0  0  0  0  0  0  0  0
   46.4582   33.1291   45.5540 N   0  0  0  0  0  0  0  0  0  0  0  0
   45.4353   33.8933   45.9911 C   0  0  0  0  0  0  0  0  0  0  0  0
   44.9250   34.8663   45.2059 N   0  0  0  0  0  0  0  0  0  0  0  0
   44.9007   36.1335   43.0984 C   0  0  0  0  0  0  0  0  0  0  0  0
   46.8708   34.4895   42.5481 H   0  0  0  0  0  0  0  0  0  0  0  0
   45.0222   33.7195   46.9857 H   0  0  0  0  0  0  0  0  0  0  0  0
   45.3820   37.0872   43.4597 H   0  0  0  0  0  0  0  0  0  0  0  0
   45.1991   35.9550   42.0458 H   0  0  0  0  0  0  0  0  0  0  0  0
   43.8142   36.2676   43.1819 H   0  0  0  0  0  0  0  0  0  0  0  0
   48.8536   32.2172   46.2084 O   0  0  0  0  0  0  0  0  0  0  0  0
   48.9853   31.9498   44.8324 C   0  0  0  0  0  0  0  0  0  0  0  0
   48.1054   32.4587   43.8999 C   0  0  0  0  0  0  0  0  0  0  0  0
   48.3781   32.1001   42.5972 C   0  0  0  0  0  0  0  0  0  0  0  0
   47.7219   32.4697   41.8224 H   0  0  0  0  0  0  0  0  0  0  0  0
   49.4498   31.2918   42.2385 C   0  0  0  0  0  0  0  0  0  0  0  0
   50.3110   30.7992   43.1945 C   0  0  0  0  0  0  0  0  0  0  0  0
   50.0586   31.1444   44.5064 C   0  0  0  0  0  0  0  0  0  0  0  0
   50.9364   30.6420   45.4789 O   0  0  0  0  0  0  0  0  0  0  0  0
   48.0423   31.7648   46.6406 H   0  0  0  0  0  0  0  0  0  0  0  0
   49.6152   31.0426   41.1976 H   0  0  0  0  0  0  0  0  0  0  0  0
   51.1404   30.1791   42.9617 H   0  0  0  0  0  0  0  0  0  0  0  0
   50.7223   29.7655   45.9505 H   0  0  0  0  0  0  0  0  0  0  0  0
  1  6  2  0
  2  1  1  0
  2  3  2  0
  3  4  1  0
  4  5  2  0
  6  5  1  0
  7  1  1  0
  2  8  1  0
  5  9  1  0
  7 10  1  0
  7 11  1  0
  7 12  1  0
 13 14  1  0
 14 15  2  0
 15 16  1  0
 16 17  1  0
 16 18  2  0
 18 19  1  0
 19 20  2  0
 20 21  1  0
 20 14  1  0
 13 22  1  0
 18 23  1  0
 19 24  1  0
 21 25  1  0
  3 15  1  0
M  ISO  6   8  14   9  14  10   8  11   8  12   8  17  16
M  END
>  <DihAtoms>  (1) 
1,2,14,13

>  <DihDeg>  (1) 
-179.9993164007856

$$$$
