
 OpenBabel03252503473D

 46 49  0  0  1  0  0  0  0  0999 V2000
   46.3280   35.2220   42.4630 C   0  0  0  0  0  0  0  0  0  0  0  0
   46.3720   36.2880   42.6830 H   0  0  0  0  0  0  0  0  0  0  0  0
   47.3220   34.9570   41.9880 H   0  0  0  0  0  0  0  0  0  0  0  0
   45.2150   34.9190   41.5420 C   0  0  0  0  0  0  0  0  0  0  0  0
   44.0490   35.6320   41.4290 C   0  0  0  0  0  0  0  0  0  0  0  0
   43.0610   35.2920   40.5410 C   0  0  0  0  0  0  0  0  0  0  0  0
   43.2590   34.1810   39.7290 C   0  0  0  0  0  0  0  0  0  0  0  0
   44.4460   33.4450   39.8330 C   0  0  0  0  0  0  0  0  0  0  0  0
   45.4340   33.8180   40.7480 C   0  0  0  0  0  0  0  0  0  0  0  0
   44.0280   36.4720   42.1240 H   0  0  0  0  0  0  0  0  0  0  0  0
   42.2190   35.9450   40.5750 H   0  0  0  0  0  0  0  0  0  0  0  0
   42.3910   34.0370   39.0780 H   0  0  0  0  0  0  0  0  0  0  0  0
   44.3390   32.6490   39.0980 H   0  0  0  0  0  0  0  0  0  0  0  0
   47.4570   33.3370   39.7160 C   0  0  0  0  0  0  0  0  0  0  0  0
   46.4490   32.8020   40.5290 C   0  0  0  0  0  0  0  0  0  0  0  0
   46.5540   31.4910   40.9230 C   0  0  0  0  0  0  0  0  0  0  0  0
   45.7060   31.2180   41.5460 H   0  0  0  0  0  0  0  0  0  0  0  0
   47.6270   30.7250   40.5250 C   0  0  0  0  0  3  0  0  0  0  0  0
   48.6170   31.2560   39.7250 C   0  0  0  0  0  3  0  0  0  0  0  0
   48.5480   32.5680   39.3080 C   0  0  0  0  0  0  0  0  0  0  0  0
   47.5360   34.6480   39.2080 O   0  0  0  0  0  0  0  0  0  0  0  0
   47.2210   34.8780   38.2770 H   0  0  0  0  0  0  0  0  0  0  0  0
   49.5800   33.0280   38.5060 O   0  0  0  0  0  0  0  0  0  0  0  0
   49.6870   34.0360   38.3500 H   0  0  0  0  0  0  0  0  0  0  0  0
   45.2130   34.6360   44.6150 C   0  0  0  0  0  0  0  0  0  0  0  0
   46.2120   34.4340   43.6700 C   0  0  0  0  0  0  0  0  0  0  0  0
   47.1140   33.4050   43.9370 C   0  0  0  0  0  0  0  0  0  0  0  0
   47.0230   32.6420   45.0520 N   0  0  0  0  0  0  0  0  0  0  0  0
   46.0280   32.8800   45.9440 C   0  0  0  0  0  0  0  0  0  0  0  0
   45.1280   33.8700   45.7290 N   0  0  0  0  0  0  0  0  0  0  0  0
   44.5350   35.4420   44.3710 H   0  0  0  0  0  0  0  0  0  0  0  0
   47.9590   33.1420   43.3360 H   0  0  0  0  0  0  0  0  0  0  0  0
   47.3680   31.7240   47.6900 C   0  0  2  0  0  0  0  0  0  0  0  0
   45.9480   32.0400   47.1310 C   0  0  1  0  0  0  0  0  0  0  0  0
   45.4130   32.6110   48.2340 O   0  0  0  0  0  0  0  0  0  0  0  0
   45.7230   31.8280   49.3080 C   0  0  0  0  0  0  0  0  0  0  0  0
   46.9180   30.9690   48.9440 C   0  0  2  0  0  0  0  0  0  0  0  0
   47.9080   31.0720   46.9870 H   0  0  0  0  0  0  0  0  0  0  0  0
   45.4720   31.0610   46.9100 H   0  0  0  0  0  0  0  0  0  0  0  0
   44.8560   31.2520   49.6610 H   0  0  0  0  0  0  0  0  0  0  0  0
   45.9930   32.5280   50.1510 H   0  0  0  0  0  0  0  0  0  0  0  0
   46.5430   29.9690   48.7180 H   0  0  0  0  0  0  0  0  0  0  0  0
   47.9710   32.8580   48.0880 O   0  0  0  0  0  0  0  0  0  0  0  0
   48.9350   32.8100   47.8890 H   0  0  0  0  0  0  0  0  0  0  0  0
   47.8770   30.9160   49.9150 O   0  0  0  0  0  0  0  0  0  0  0  0
   48.6950   31.3920   49.6370 H   0  0  0  0  0  0  0  0  0  0  0  0
  1  2  1  0  0  0  0
  1 26  1  0  0  0  0
  3  1  1  0  0  0  0
  4  1  1  0  0  0  0
  5  4  1  0  0  0  0
  5 10  1  0  0  0  0
  6 11  1  0  0  0  0
  6  5  2  0  0  0  0
  7  8  2  0  0  0  0
  7  6  1  0  0  0  0
  8  9  1  0  0  0  0
  9  4  2  0  0  0  0
 12  7  1  0  0  0  0
 13  8  1  0  0  0  0
 14 15  1  0  0  0  0
 15  9  1  0  0  0  0
 15 16  2  0  0  0  0
 16 17  1  0  0  0  0
 18 16  1  0  0  0  0
 19 18  2  0  0  0  0
 20 14  2  0  0  0  0
 20 19  1  0  0  0  0
 21 14  1  0  0  0  0
 22 21  1  0  0  0  0
 23 20  1  0  0  0  0
 24 23  1  0  0  0  0
 25 30  1  0  0  0  0
 26 27  1  0  0  0  0
 26 25  2  0  0  0  0
 27 28  2  0  0  0  0
 28 29  1  0  0  0  0
 29 34  1  0  0  0  0
 30 29  2  0  0  0  0
 31 25  1  0  0  0  0
 32 27  1  0  0  0  0
 33 38  1  6  0  0  0
 33 43  1  0  0  0  0
 33 37  1  0  0  0  0
 34 39  1  6  0  0  0
 34 33  1  0  0  0  0
 34 35  1  0  0  0  0
 35 36  1  0  0  0  0
 36 40  1  0  0  0  0
 36 41  1  0  0  0  0
 37 42  1  6  0  0  0
 37 36  1  0  0  0  0
 37 45  1  0  0  0  0
 44 43  1  0  0  0  0
 46 45  1  0  0  0  0
M  END
>  <minimizedAffinity>
-7.06157494

>  <minimizedRMSD>
0.762768567

$$$$
