
 OpenBabel03242523093D

 47 51  0  0  1  0  0  0  0  0999 V2000
   36.9200   29.5180   36.6310 C   0  0  0  0  0  0  0  0  0  0  0  0
   36.8790   29.6270   38.0460 C   0  0  0  0  0  0  0  0  0  0  0  0
   35.5860   29.4400   38.5080 C   0  0  0  0  0  0  0  0  0  0  0  0
   34.4720   29.1820   37.7620 C   0  0  0  0  0  0  0  0  0  0  0  0
   34.6020   29.0900   36.4100 C   0  0  0  0  0  0  0  0  0  0  0  0
   35.8270   29.2590   35.8290 C   0  0  0  0  0  0  0  0  0  0  0  0
   33.3300   28.8230   35.9390 O   0  0  0  0  0  0  0  0  0  0  0  0
   32.4060   28.8650   36.9980 C   0  0  1  0  0  0  0  0  0  0  0  0
   33.1720   28.9920   38.1800 O   0  0  0  0  0  0  0  0  0  0  0  0
   37.7710   29.6120   35.9470 H   0  0  0  0  0  0  0  0  0  0  0  0
   35.5550   29.5320   39.5480 H   0  0  0  0  0  0  0  0  0  0  0  0
   35.8190   29.1700   34.7720 H   0  0  0  0  0  0  0  0  0  0  0  0
   31.8220   27.9150   36.9960 H   0  0  0  0  0  0  0  0  0  0  0  0
   39.9560   30.0380   40.1390 C   0  0  0  0  0  0  0  0  0  0  0  0
   38.6620   29.5980   39.8520 C   0  0  0  0  0  0  0  0  0  0  0  0
   38.1370   29.8780   38.6270 C   0  0  0  0  0  0  0  0  0  0  0  0
   38.8980   30.5600   37.7520 N   0  0  0  0  0  0  0  0  0  0  0  0
   40.1460   30.9840   38.0260 C   0  0  0  0  0  0  0  0  0  0  0  0
   40.6610   30.7220   39.2090 N   0  0  0  0  0  0  0  0  0  0  0  0
   40.3830   29.8180   41.1260 H   0  0  0  0  0  0  0  0  0  0  0  0
   40.8010   31.5350   37.3640 H   0  0  0  0  0  0  0  0  0  0  0  0
   38.0010   28.8350   40.8300 N   0  0  0  0  0  0  0  0  0  0  0  0
   37.9390   27.4590   40.8330 C   0  0  0  0  0  0  0  0  0  0  0  0
   37.3050   26.8470   42.0630 C   0  0  0  0  0  0  0  0  0  0  0  0
   37.6270   27.4680   43.2710 N   0  0  0  0  0  0  0  0  0  0  0  0
   37.6800   28.8640   43.2940 C   0  0  0  0  0  0  0  0  0  0  0  0
   37.3010   29.4420   41.9510 C   0  0  0  0  0  0  0  0  0  0  0  0
   38.9090   26.9170   40.6500 H   0  0  0  0  0  0  0  0  0  0  0  0
   37.3000   27.1130   39.9660 H   0  0  0  0  0  0  0  0  0  0  0  0
   37.5700   25.7700   42.0640 H   0  0  0  0  0  0  0  0  0  0  0  0
   36.1860   26.8700   41.9140 H   0  0  0  0  0  0  0  0  0  0  0  0
   37.7310   26.9470   44.1220 H   0  0  0  0  0  0  0  0  0  0  0  0
   36.8580   29.2100   43.9910 H   0  0  0  0  0  0  0  0  0  0  0  0
   38.5820   29.3500   43.6910 H   0  0  0  0  0  0  0  0  0  0  0  0
   36.2110   29.2380   41.8090 H   0  0  0  0  0  0  0  0  0  0  0  0
   37.4630   30.5310   41.8880 H   0  0  0  0  0  0  0  0  0  0  0  0
   30.7290   30.4270   37.9780 C   0  0  0  0  0  0  0  0  0  0  0  0
   31.4850   30.0210   36.9060 C   0  0  0  0  0  0  0  0  0  0  0  0
   31.3870   30.7110   35.7040 C   0  0  0  0  0  0  0  0  0  0  0  0
   31.9590   30.4370   34.8240 H   0  0  0  0  0  0  0  0  0  0  0  0
   30.5270   31.7830   35.6300 C   0  0  0  0  0  3  0  0  0  0  0  0
   29.7560   32.2160   36.6880 C   0  0  0  0  0  3  0  0  0  0  0  0
   29.8680   31.5190   37.8670 C   0  0  0  0  0  0  0  0  0  0  0  0
   30.7950   29.7670   39.1980 O   0  0  0  0  0  0  0  0  0  0  0  0
   31.2950   30.1860   39.9950 H   0  0  0  0  0  0  0  0  0  0  0  0
   29.1100   31.9120   38.9710 O   0  0  0  0  0  0  0  0  0  0  0  0
   28.5930   31.2370   39.5290 H   0  0  0  0  0  0  0  0  0  0  0  0
  1  2  1  0  0  0  0
  2  3  2  0  0  0  0
  2 16  1  0  0  0  0
  3 11  1  0  0  0  0
  4  9  1  0  0  0  0
  4  3  1  0  0  0  0
  5  4  2  0  0  0  0
  6  5  1  0  0  0  0
  6  1  2  0  0  0  0
  7  5  1  0  0  0  0
  7  8  1  0  0  0  0
  8 13  1  1  0  0  0
  8  9  1  0  0  0  0
 10  1  1  0  0  0  0
 12  6  1  0  0  0  0
 14 20  1  0  0  0  0
 15 14  1  0  0  0  0
 15 22  1  0  0  0  0
 16 15  2  0  0  0  0
 17 18  2  0  0  0  0
 17 16  1  0  0  0  0
 18 19  1  0  0  0  0
 19 14  2  0  0  0  0
 21 18  1  0  0  0  0
 22 23  1  0  0  0  0
 22 27  1  0  0  0  0
 23 24  1  0  0  0  0
 24 30  1  0  0  0  0
 24 25  1  0  0  0  0
 25 26  1  0  0  0  0
 25 32  1  0  0  0  0
 26 34  1  0  0  0  0
 26 33  1  0  0  0  0
 27 26  1  0  0  0  0
 28 23  1  0  0  0  0
 29 23  1  0  0  0  0
 31 24  1  0  0  0  0
 35 27  1  0  0  0  0
 36 27  1  0  0  0  0
 37 44  1  0  0  0  0
 38  8  1  0  0  0  0
 38 37  2  0  0  0  0
 39 38  1  0  0  0  0
 40 39  1  0  0  0  0
 41 39  2  0  0  0  0
 41 42  1  0  0  0  0
 42 43  2  0  0  0  0
 43 37  1  0  0  0  0
 43 46  1  0  0  0  0
 44 45  1  0  0  0  0
 46 47  1  0  0  0  0
M  END
>  <minimizedAffinity>
-7.14962339

$$$$

 OpenBabel03242523093D

 47 51  0  0  1  0  0  0  0  0999 V2000
   36.6760   29.3880   38.5450 C   0  0  0  0  0  0  0  0  0  0  0  0
   35.9160   29.1230   39.7140 C   0  0  0  0  0  0  0  0  0  0  0  0
   34.5920   28.8780   39.3840 C   0  0  0  0  0  0  0  0  0  0  0  0
   34.0390   28.8750   38.1350 C   0  0  0  0  0  0  0  0  0  0  0  0
   34.8430   29.1360   37.0680 C   0  0  0  0  0  0  0  0  0  0  0  0
   36.1700   29.3980   37.2610 C   0  0  0  0  0  0  0  0  0  0  0  0
   34.0180   29.0580   35.9620 O   0  0  0  0  0  0  0  0  0  0  0  0
   32.6860   28.8610   36.3680 C   0  0  1  0  0  0  0  0  0  0  0  0
   32.7330   28.6390   37.7640 O   0  0  0  0  0  0  0  0  0  0  0  0
   37.7430   29.6210   38.4430 H   0  0  0  0  0  0  0  0  0  0  0  0
   34.0300   28.6940   40.2450 H   0  0  0  0  0  0  0  0  0  0  0  0
   36.7070   29.5900   36.3660 H   0  0  0  0  0  0  0  0  0  0  0  0
   32.2800   27.9720   35.8320 H   0  0  0  0  0  0  0  0  0  0  0  0
   38.2860   29.6790   42.5570 C   0  0  0  0  0  0  0  0  0  0  0  0
   37.7030   29.9460   41.3170 C   0  0  0  0  0  0  0  0  0  0  0  0
   36.6750   29.1560   40.8990 C   0  0  0  0  0  0  0  0  0  0  0  0
   36.2700   28.1610   41.7090 N   0  0  0  0  0  0  0  0  0  0  0  0
   36.8300   27.9040   42.9060 C   0  0  0  0  0  0  0  0  0  0  0  0
   37.8270   28.6580   43.3170 N   0  0  0  0  0  0  0  0  0  0  0  0
   39.1170   30.3100   42.8980 H   0  0  0  0  0  0  0  0  0  0  0  0
   36.5470   27.1200   43.5960 H   0  0  0  0  0  0  0  0  0  0  0  0
   38.1770   31.0580   40.6000 N   0  0  0  0  0  0  0  0  0  0  0  0
   39.3680   31.0870   39.9070 C   0  0  0  0  0  0  0  0  0  0  0  0
   39.6010   32.3360   39.0850 C   0  0  0  0  0  0  0  0  0  0  0  0
   38.4760   32.8380   38.4300 N   0  0  0  0  0  0  0  0  0  0  0  0
   37.2610   32.8320   39.1210 C   0  0  0  0  0  0  0  0  0  0  0  0
   37.4410   32.3100   40.5270 C   0  0  0  0  0  0  0  0  0  0  0  0
   39.5770   30.2040   39.2420 H   0  0  0  0  0  0  0  0  0  0  0  0
   40.2270   31.0500   40.6410 H   0  0  0  0  0  0  0  0  0  0  0  0
   40.4280   32.1120   38.3810 H   0  0  0  0  0  0  0  0  0  0  0  0
   40.0170   33.1240   39.7780 H   0  0  0  0  0  0  0  0  0  0  0  0
   38.5400   33.2730   37.5280 H   0  0  0  0  0  0  0  0  0  0  0  0
   36.9600   33.9150   39.2590 H   0  0  0  0  0  0  0  0  0  0  0  0
   36.3850   32.3760   38.6400 H   0  0  0  0  0  0  0  0  0  0  0  0
   38.0360   33.0770   41.0810 H   0  0  0  0  0  0  0  0  0  0  0  0
   36.4860   32.1600   41.0560 H   0  0  0  0  0  0  0  0  0  0  0  0
   30.8460   30.4260   36.9850 C   0  0  0  0  0  0  0  0  0  0  0  0
   31.8290   30.0400   36.1070 C   0  0  0  0  0  0  0  0  0  0  0  0
   32.0280   30.7730   34.9430 C   0  0  0  0  0  0  0  0  0  0  0  0
   32.7880   30.5170   34.2140 H   0  0  0  0  0  0  0  0  0  0  0  0
   31.2250   31.8670   34.7100 C   0  0  0  0  0  3  0  0  0  0  0  0
   30.2300   32.2790   35.5720 C   0  0  0  0  0  3  0  0  0  0  0  0
   30.0510   31.5400   36.7160 C   0  0  0  0  0  0  0  0  0  0  0  0
   30.6130   29.7230   38.1600 O   0  0  0  0  0  0  0  0  0  0  0  0
   30.9150   30.1030   39.0670 H   0  0  0  0  0  0  0  0  0  0  0  0
   29.0580   31.9110   37.6250 O   0  0  0  0  0  0  0  0  0  0  0  0
   28.4150   31.2290   38.0180 H   0  0  0  0  0  0  0  0  0  0  0  0
  1  2  1  0  0  0  0
  2 16  1  0  0  0  0
  3  2  2  0  0  0  0
  3 11  1  0  0  0  0
  4  3  1  0  0  0  0
  5  6  1  0  0  0  0
  5  4  2  0  0  0  0
  6  1  2  0  0  0  0
  7  8  1  0  0  0  0
  7  5  1  0  0  0  0
  8 13  1  6  0  0  0
  8  9  1  0  0  0  0
  9  4  1  0  0  0  0
 10  1  1  0  0  0  0
 12  6  1  0  0  0  0
 14 20  1  0  0  0  0
 14 19  1  0  0  0  0
 15 14  2  0  0  0  0
 16 15  1  0  0  0  0
 16 17  2  0  0  0  0
 17 18  1  0  0  0  0
 18 19  2  0  0  0  0
 18 21  1  0  0  0  0
 22 15  1  0  0  0  0
 23 22  1  0  0  0  0
 23 29  1  0  0  0  0
 24 31  1  0  0  0  0
 24 23  1  0  0  0  0
 25 24  1  0  0  0  0
 25 26  1  0  0  0  0
 26 33  1  0  0  0  0
 26 27  1  0  0  0  0
 27 22  1  0  0  0  0
 27 36  1  0  0  0  0
 27 35  1  0  0  0  0
 28 23  1  0  0  0  0
 30 24  1  0  0  0  0
 32 25  1  0  0  0  0
 34 26  1  0  0  0  0
 37 44  1  0  0  0  0
 38  8  1  0  0  0  0
 38 37  2  0  0  0  0
 39 38  1  0  0  0  0
 40 39  1  0  0  0  0
 41 39  2  0  0  0  0
 41 42  1  0  0  0  0
 42 43  2  0  0  0  0
 43 37  1  0  0  0  0
 43 46  1  0  0  0  0
 44 45  1  0  0  0  0
 46 47  1  0  0  0  0
M  END
>  <minimizedAffinity>
-7.09532642

$$$$

 OpenBabel03242523093D

 47 51  0  0  1  0  0  0  0  0999 V2000
   41.7640   29.5860   42.5010 C   0  0  0  0  0  0  0  0  0  0  0  0
   40.7570   30.4900   42.0740 C   0  0  0  0  0  0  0  0  0  0  0  0
   39.5040   29.9080   42.1920 C   0  0  0  0  0  0  0  0  0  0  0  0
   39.2170   28.6530   42.6480 C   0  0  0  0  0  0  0  0  0  0  0  0
   40.2450   27.8520   43.0400 C   0  0  0  0  0  0  0  0  0  0  0  0
   41.5310   28.3090   42.9690 C   0  0  0  0  0  0  0  0  0  0  0  0
   39.6530   26.6720   43.4470 O   0  0  0  0  0  0  0  0  0  0  0  0
   38.2710   26.7140   43.1940 C   0  0  1  0  0  0  0  0  0  0  0  0
   37.9910   28.0360   42.7780 O   0  0  0  0  0  0  0  0  0  0  0  0
   42.8520   29.7190   42.5380 H   0  0  0  0  0  0  0  0  0  0  0  0
   38.7640   30.5690   41.8670 H   0  0  0  0  0  0  0  0  0  0  0  0
   42.2560   27.6080   43.2970 H   0  0  0  0  0  0  0  0  0  0  0  0
   37.7310   26.4660   44.1380 H   0  0  0  0  0  0  0  0  0  0  0  0
   41.6170   33.7820   40.5120 C   0  0  0  0  0  0  0  0  0  0  0  0
   40.8490   32.6340   40.7180 C   0  0  0  0  0  0  0  0  0  0  0  0
   41.2590   31.7370   41.6580 C   0  0  0  0  0  0  0  0  0  0  0  0
   42.3830   32.0100   42.3460 N   0  0  0  0  0  0  0  0  0  0  0  0
   43.1230   33.1170   42.1500 C   0  0  0  0  0  0  0  0  0  0  0  0
   42.7380   33.9870   41.2410 N   0  0  0  0  0  0  0  0  0  0  0  0
   41.2930   34.5060   39.7530 H   0  0  0  0  0  0  0  0  0  0  0  0
   44.0320   33.3870   42.6710 H   0  0  0  0  0  0  0  0  0  0  0  0
   39.6600   32.5030   39.9800 N   0  0  0  0  0  0  0  0  0  0  0  0
   39.5520   31.8040   38.7970 C   0  0  0  0  0  0  0  0  0  0  0  0
   38.1440   31.6710   38.2580 C   0  0  0  0  0  0  0  0  0  0  0  0
   37.1560   31.4470   39.2180 N   0  0  0  0  0  0  0  0  0  0  0  0
   37.2390   32.1590   40.4180 C   0  0  0  0  0  0  0  0  0  0  0  0
   38.4100   33.1130   40.4010 C   0  0  0  0  0  0  0  0  0  0  0  0
   40.0160   30.7790   38.7830 H   0  0  0  0  0  0  0  0  0  0  0  0
   40.1290   32.3450   37.9900 H   0  0  0  0  0  0  0  0  0  0  0  0
   38.1650   30.8720   37.4880 H   0  0  0  0  0  0  0  0  0  0  0  0
   37.9100   32.6170   37.6880 H   0  0  0  0  0  0  0  0  0  0  0  0
   36.3590   30.8670   39.0310 H   0  0  0  0  0  0  0  0  0  0  0  0
   36.3290   32.8300   40.4620 H   0  0  0  0  0  0  0  0  0  0  0  0
   37.1990   31.6010   41.3640 H   0  0  0  0  0  0  0  0  0  0  0  0
   38.1640   33.9110   39.6580 H   0  0  0  0  0  0  0  0  0  0  0  0
   38.5910   33.5910   41.3780 H   0  0  0  0  0  0  0  0  0  0  0  0
   38.2540   24.4700   42.1100 C   0  0  0  0  0  0  0  0  0  0  0  0
   37.8580   25.7840   42.1190 C   0  0  0  0  0  0  0  0  0  0  0  0
   37.0470   26.2570   41.0940 C   0  0  0  0  0  0  0  0  0  0  0  0
   36.7020   27.2840   41.0480 H   0  0  0  0  0  0  0  0  0  0  0  0
   36.6700   25.3840   40.0990 C   0  0  0  0  0  3  0  0  0  0  0  0
   37.0510   24.0590   40.0630 C   0  0  0  0  0  3  0  0  0  0  0  0
   37.8520   23.6130   41.0860 C   0  0  0  0  0  0  0  0  0  0  0  0
   39.0640   23.9550   43.1150 O   0  0  0  0  0  0  0  0  0  0  0  0
   38.6730   23.3400   43.8410 H   0  0  0  0  0  0  0  0  0  0  0  0
   38.2690   22.2810   41.1000 O   0  0  0  0  0  0  0  0  0  0  0  0
   39.2390   22.0290   41.2770 H   0  0  0  0  0  0  0  0  0  0  0  0
  1 10  1  0  0  0  0
  1  6  1  0  0  0  0
  2  3  1  0  0  0  0
  2  1  2  0  0  0  0
  3  4  2  0  0  0  0
  4  9  1  0  0  0  0
  4  5  1  0  0  0  0
  5  7  1  0  0  0  0
  6  5  2  0  0  0  0
  6 12  1  0  0  0  0
  8  7  1  0  0  0  0
  8 13  1  1  0  0  0
  9  8  1  0  0  0  0
 11  3  1  0  0  0  0
 14 15  2  0  0  0  0
 14 19  1  0  0  0  0
 15 16  1  0  0  0  0
 16  2  1  0  0  0  0
 16 17  2  0  0  0  0
 18 17  1  0  0  0  0
 18 21  1  0  0  0  0
 19 18  2  0  0  0  0
 20 14  1  0  0  0  0
 22 27  1  0  0  0  0
 22 15  1  0  0  0  0
 23 22  1  0  0  0  0
 24 23  1  0  0  0  0
 24 25  1  0  0  0  0
 25 26  1  0  0  0  0
 26 33  1  0  0  0  0
 26 34  1  0  0  0  0
 27 26  1  0  0  0  0
 27 36  1  0  0  0  0
 28 23  1  0  0  0  0
 29 23  1  0  0  0  0
 30 24  1  0  0  0  0
 31 24  1  0  0  0  0
 32 25  1  0  0  0  0
 35 27  1  0  0  0  0
 37 38  1  0  0  0  0
 37 44  1  0  0  0  0
 38  8  1  0  0  0  0
 39 38  2  0  0  0  0
 40 39  1  0  0  0  0
 41 39  1  0  0  0  0
 42 41  2  0  0  0  0
 42 43  1  0  0  0  0
 43 46  1  0  0  0  0
 43 37  2  0  0  0  0
 44 45  1  0  0  0  0
 46 47  1  0  0  0  0
M  END
>  <minimizedAffinity>
-7.0167079

$$$$

 OpenBabel03242523093D

 47 51  0  0  1  0  0  0  0  0999 V2000
   36.6400   28.8860   35.4670 C   0  0  0  0  0  0  0  0  0  0  0  0
   36.7030   28.7790   36.8810 C   0  0  0  0  0  0  0  0  0  0  0  0
   35.4270   28.7110   37.4170 C   0  0  0  0  0  0  0  0  0  0  0  0
   34.2430   28.7370   36.7370 C   0  0  0  0  0  0  0  0  0  0  0  0
   34.2750   28.8390   35.3800 C   0  0  0  0  0  0  0  0  0  0  0  0
   35.4740   28.9160   34.7300 C   0  0  0  0  0  0  0  0  0  0  0  0
   32.9510   28.8350   34.9830 O   0  0  0  0  0  0  0  0  0  0  0  0
   32.1110   28.8470   36.1100 C   0  0  1  0  0  0  0  0  0  0  0  0
   32.9570   28.6760   37.2300 O   0  0  0  0  0  0  0  0  0  0  0  0
   37.4530   28.9600   34.7340 H   0  0  0  0  0  0  0  0  0  0  0  0
   35.4740   28.6430   38.4590 H   0  0  0  0  0  0  0  0  0  0  0  0
   35.3890   28.9940   33.6750 H   0  0  0  0  0  0  0  0  0  0  0  0
   31.3870   28.0040   36.0190 H   0  0  0  0  0  0  0  0  0  0  0  0
   39.9580   29.0830   38.7060 C   0  0  0  0  0  0  0  0  0  0  0  0
   38.5820   29.2390   38.5240 C   0  0  0  0  0  0  0  0  0  0  0  0
   38.0170   28.7500   37.3850 C   0  0  0  0  0  0  0  0  0  0  0  0
   38.8170   28.1340   36.4950 N   0  0  0  0  0  0  0  0  0  0  0  0
   40.1430   27.9810   36.6700 C   0  0  0  0  0  0  0  0  0  0  0  0
   40.6990   28.4540   37.7640 N   0  0  0  0  0  0  0  0  0  0  0  0
   40.4190   29.4790   39.6200 H   0  0  0  0  0  0  0  0  0  0  0  0
   40.8320   27.4960   35.9900 H   0  0  0  0  0  0  0  0  0  0  0  0
   37.8520   29.8420   39.5620 N   0  0  0  0  0  0  0  0  0  0  0  0
   37.5100   31.1770   39.6000 C   0  0  0  0  0  0  0  0  0  0  0  0
   36.5940   31.5720   40.7370 C   0  0  0  0  0  0  0  0  0  0  0  0
   35.5880   30.6530   41.0400 N   0  0  0  0  0  0  0  0  0  0  0  0
   35.9180   29.2950   41.0230 C   0  0  0  0  0  0  0  0  0  0  0  0
   37.3850   29.0980   40.7210 C   0  0  0  0  0  0  0  0  0  0  0  0
   37.0760   31.6050   38.6540 H   0  0  0  0  0  0  0  0  0  0  0  0
   38.4450   31.7970   39.7420 H   0  0  0  0  0  0  0  0  0  0  0  0
   36.1830   32.5730   40.4910 H   0  0  0  0  0  0  0  0  0  0  0  0
   37.2380   31.7400   41.6490 H   0  0  0  0  0  0  0  0  0  0  0  0
   34.6800   30.9460   41.3490 H   0  0  0  0  0  0  0  0  0  0  0  0
   35.7950   28.9170   42.0830 H   0  0  0  0  0  0  0  0  0  0  0  0
   35.2980   28.6110   40.4270 H   0  0  0  0  0  0  0  0  0  0  0  0
   37.9490   29.4780   41.6080 H   0  0  0  0  0  0  0  0  0  0  0  0
   37.6540   28.0410   40.5620 H   0  0  0  0  0  0  0  0  0  0  0  0
   30.7420   30.4540   37.4350 C   0  0  0  0  0  0  0  0  0  0  0  0
   31.3780   30.1240   36.2640 C   0  0  0  0  0  0  0  0  0  0  0  0
   31.3350   31.0090   35.1940 C   0  0  0  0  0  0  0  0  0  0  0  0
   31.8180   30.8030   34.2450 H   0  0  0  0  0  0  0  0  0  0  0  0
   30.6510   32.1940   35.3470 C   0  0  0  0  0  3  0  0  0  0  0  0
   30.0030   32.5540   36.5100 C   0  0  0  0  0  3  0  0  0  0  0  0
   30.0580   31.6640   37.5560 C   0  0  0  0  0  0  0  0  0  0  0  0
   30.7590   29.6000   38.5300 O   0  0  0  0  0  0  0  0  0  0  0  0
   31.3520   29.8040   39.3460 H   0  0  0  0  0  0  0  0  0  0  0  0
   29.4200   31.9760   38.7570 O   0  0  0  0  0  0  0  0  0  0  0  0
   28.8290   31.3010   39.2370 H   0  0  0  0  0  0  0  0  0  0  0  0
  1  2  1  0  0  0  0
  2 16  1  0  0  0  0
  2  3  2  0  0  0  0
  3 11  1  0  0  0  0
  4  9  1  0  0  0  0
  4  3  1  0  0  0  0
  5  4  2  0  0  0  0
  6  5  1  0  0  0  0
  6  1  2  0  0  0  0
  7  5  1  0  0  0  0
  7  8  1  0  0  0  0
  8 13  1  6  0  0  0
  8 38  1  0  0  0  0
  8  9  1  0  0  0  0
 10  1  1  0  0  0  0
 12  6  1  0  0  0  0
 14 20  1  0  0  0  0
 15 14  1  0  0  0  0
 15 22  1  0  0  0  0
 16 15  2  0  0  0  0
 17 18  2  0  0  0  0
 17 16  1  0  0  0  0
 18 19  1  0  0  0  0
 19 14  2  0  0  0  0
 21 18  1  0  0  0  0
 22 23  1  0  0  0  0
 22 27  1  0  0  0  0
 23 29  1  0  0  0  0
 23 24  1  0  0  0  0
 24 25  1  0  0  0  0
 24 31  1  0  0  0  0
 25 32  1  0  0  0  0
 26 25  1  0  0  0  0
 26 33  1  0  0  0  0
 27 26  1  0  0  0  0
 27 35  1  0  0  0  0
 28 23  1  0  0  0  0
 30 24  1  0  0  0  0
 34 26  1  0  0  0  0
 36 27  1  0  0  0  0
 37 43  1  0  0  0  0
 37 44  1  0  0  0  0
 38 37  2  0  0  0  0
 39 41  2  0  0  0  0
 39 38  1  0  0  0  0
 40 39  1  0  0  0  0
 41 42  1  0  0  0  0
 42 43  2  0  0  0  0
 43 46  1  0  0  0  0
 44 45  1  0  0  0  0
 46 47  1  0  0  0  0
M  END
>  <minimizedAffinity>
-7.0134635

$$$$

 OpenBabel03242523093D

 47 51  0  0  1  0  0  0  0  0999 V2000
   36.4480   29.2950   38.5760 C   0  0  0  0  0  0  0  0  0  0  0  0
   35.7490   29.1480   39.8030 C   0  0  0  0  0  0  0  0  0  0  0  0
   34.3900   29.0060   39.5710 C   0  0  0  0  0  0  0  0  0  0  0  0
   33.7560   28.9990   38.3620 C   0  0  0  0  0  0  0  0  0  0  0  0
   34.5040   29.1440   37.2340 C   0  0  0  0  0  0  0  0  0  0  0  0
   35.8590   29.2950   37.3290 C   0  0  0  0  0  0  0  0  0  0  0  0
   33.6020   29.0930   36.1890 O   0  0  0  0  0  0  0  0  0  0  0  0
   32.2890   29.0310   36.6880 C   0  0  1  0  0  0  0  0  0  0  0  0
   32.4110   28.8650   38.0880 O   0  0  0  0  0  0  0  0  0  0  0  0
   37.5210   29.4280   38.3950 H   0  0  0  0  0  0  0  0  0  0  0  0
   33.8750   28.9090   40.4750 H   0  0  0  0  0  0  0  0  0  0  0  0
   36.3470   29.4020   36.3940 H   0  0  0  0  0  0  0  0  0  0  0  0
   31.7730   28.1600   36.2220 H   0  0  0  0  0  0  0  0  0  0  0  0
   38.3230   29.6440   42.4760 C   0  0  0  0  0  0  0  0  0  0  0  0
   37.6670   29.9220   41.2750 C   0  0  0  0  0  0  0  0  0  0  0  0
   36.5880   29.1630   40.9340 C   0  0  0  0  0  0  0  0  0  0  0  0
   36.2070   28.1860   41.7770 N   0  0  0  0  0  0  0  0  0  0  0  0
   36.8380   27.9180   42.9360 C   0  0  0  0  0  0  0  0  0  0  0  0
   37.8840   28.6430   43.2730 N   0  0  0  0  0  0  0  0  0  0  0  0
   39.1950   30.2500   42.7550 H   0  0  0  0  0  0  0  0  0  0  0  0
   36.5780   27.1480   43.6500 H   0  0  0  0  0  0  0  0  0  0  0  0
   38.1250   31.0140   40.5190 N   0  0  0  0  0  0  0  0  0  0  0  0
   39.2710   31.0030   39.7530 C   0  0  0  0  0  0  0  0  0  0  0  0
   39.4880   32.2380   38.9060 C   0  0  0  0  0  0  0  0  0  0  0  0
   38.3380   32.7660   38.3170 N   0  0  0  0  0  0  0  0  0  0  0  0
   37.1700   32.8020   39.0830 C   0  0  0  0  0  0  0  0  0  0  0  0
   37.4220   32.2860   40.4800 C   0  0  0  0  0  0  0  0  0  0  0  0
   39.4130   30.1080   39.0850 H   0  0  0  0  0  0  0  0  0  0  0  0
   40.1730   30.9460   40.4320 H   0  0  0  0  0  0  0  0  0  0  0  0
   40.2620   31.9840   38.1530 H   0  0  0  0  0  0  0  0  0  0  0  0
   39.9680   33.0190   39.5640 H   0  0  0  0  0  0  0  0  0  0  0  0
   38.3570   33.1930   37.4090 H   0  0  0  0  0  0  0  0  0  0  0  0
   36.9080   33.8940   39.2290 H   0  0  0  0  0  0  0  0  0  0  0  0
   36.2520   32.3670   38.6630 H   0  0  0  0  0  0  0  0  0  0  0  0
   38.0730   33.0400   40.9880 H   0  0  0  0  0  0  0  0  0  0  0  0
   36.4980   32.1680   41.0700 H   0  0  0  0  0  0  0  0  0  0  0  0
   31.5660   30.9040   35.2110 C   0  0  0  0  0  0  0  0  0  0  0  0
   31.5190   30.2690   36.4270 C   0  0  0  0  0  0  0  0  0  0  0  0
   30.7300   30.7980   37.4410 C   0  0  0  0  0  0  0  0  0  0  0  0
   30.6530   30.3400   38.4210 H   0  0  0  0  0  0  0  0  0  0  0  0
   30.0190   31.9490   37.1880 C   0  0  0  0  0  3  0  0  0  0  0  0
   30.0450   32.6090   35.9770 C   0  0  0  0  0  3  0  0  0  0  0  0
   30.8320   32.0690   34.9890 C   0  0  0  0  0  0  0  0  0  0  0  0
   32.3420   30.4110   34.1690 O   0  0  0  0  0  0  0  0  0  0  0  0
   31.9040   29.9310   33.3710 H   0  0  0  0  0  0  0  0  0  0  0  0
   30.8970   32.6970   33.7440 O   0  0  0  0  0  0  0  0  0  0  0  0
   31.7860   32.8630   33.2780 H   0  0  0  0  0  0  0  0  0  0  0  0
  1  2  1  0  0  0  0
  2 16  1  0  0  0  0
  3  2  2  0  0  0  0
  3 11  1  0  0  0  0
  4  3  1  0  0  0  0
  5  6  1  0  0  0  0
  5  4  2  0  0  0  0
  6  1  2  0  0  0  0
  7  8  1  0  0  0  0
  7  5  1  0  0  0  0
  8 13  1  6  0  0  0
  8  9  1  0  0  0  0
  9  4  1  0  0  0  0
 10  1  1  0  0  0  0
 12  6  1  0  0  0  0
 14 20  1  0  0  0  0
 14 19  1  0  0  0  0
 15 14  2  0  0  0  0
 16 15  1  0  0  0  0
 16 17  2  0  0  0  0
 17 18  1  0  0  0  0
 18 19  2  0  0  0  0
 18 21  1  0  0  0  0
 22 15  1  0  0  0  0
 23 29  1  0  0  0  0
 23 22  1  0  0  0  0
 24 31  1  0  0  0  0
 24 23  1  0  0  0  0
 25 24  1  0  0  0  0
 25 26  1  0  0  0  0
 26 33  1  0  0  0  0
 26 27  1  0  0  0  0
 27 22  1  0  0  0  0
 27 35  1  0  0  0  0
 27 36  1  0  0  0  0
 28 23  1  0  0  0  0
 30 24  1  0  0  0  0
 32 25  1  0  0  0  0
 34 26  1  0  0  0  0
 37 38  1  0  0  0  0
 38  8  1  0  0  0  0
 38 39  2  0  0  0  0
 39 40  1  0  0  0  0
 41 39  1  0  0  0  0
 42 41  2  0  0  0  0
 43 37  2  0  0  0  0
 43 42  1  0  0  0  0
 44 37  1  0  0  0  0
 45 44  1  0  0  0  0
 46 43  1  0  0  0  0
 47 46  1  0  0  0  0
M  END
>  <minimizedAffinity>
-6.97709656

$$$$

 OpenBabel03242523093D

 47 51  0  0  1  0  0  0  0  0999 V2000
   36.7830   29.1040   36.9620 C   0  0  0  0  0  0  0  0  0  0  0  0
   36.4920   28.8920   38.3350 C   0  0  0  0  0  0  0  0  0  0  0  0
   35.1260   28.7500   38.5230 C   0  0  0  0  0  0  0  0  0  0  0  0
   34.1520   28.7950   37.5660 C   0  0  0  0  0  0  0  0  0  0  0  0
   34.5210   29.0000   36.2730 C   0  0  0  0  0  0  0  0  0  0  0  0
   35.8410   29.1590   35.9560 C   0  0  0  0  0  0  0  0  0  0  0  0
   33.3420   28.9900   35.5510 O   0  0  0  0  0  0  0  0  0  0  0  0
   32.2450   28.8930   36.4250 C   0  0  1  0  0  0  0  0  0  0  0  0
   32.7880   28.6610   37.7100 O   0  0  0  0  0  0  0  0  0  0  0  0
   37.7510   29.2560   36.4680 H   0  0  0  0  0  0  0  0  0  0  0  0
   34.9110   28.6050   39.5350 H   0  0  0  0  0  0  0  0  0  0  0  0
   36.0210   29.3140   34.9220 H   0  0  0  0  0  0  0  0  0  0  0  0
   31.6060   28.0400   36.0970 H   0  0  0  0  0  0  0  0  0  0  0  0
   39.5830   29.4540   40.3710 C   0  0  0  0  0  0  0  0  0  0  0  0
   38.4880   29.8310   39.5920 C   0  0  0  0  0  0  0  0  0  0  0  0
   37.6360   28.8610   39.1550 C   0  0  0  0  0  0  0  0  0  0  0  0
   37.8920   27.5880   39.5050 N   0  0  0  0  0  0  0  0  0  0  0  0
   38.9470   27.2230   40.2580 C   0  0  0  0  0  0  0  0  0  0  0  0
   39.7790   28.1510   40.6810 N   0  0  0  0  0  0  0  0  0  0  0  0
   40.2750   30.2300   40.7230 H   0  0  0  0  0  0  0  0  0  0  0  0
   39.2020   26.2180   40.5680 H   0  0  0  0  0  0  0  0  0  0  0  0
   38.2980   31.2030   39.3560 N   0  0  0  0  0  0  0  0  0  0  0  0
   37.2370   31.9360   39.8420 C   0  0  0  0  0  0  0  0  0  0  0  0
   37.3170   33.4260   39.5890 C   0  0  0  0  0  0  0  0  0  0  0  0
   38.5880   33.9860   39.7250 N   0  0  0  0  0  0  0  0  0  0  0  0
   39.6760   33.2670   39.2230 C   0  0  0  0  0  0  0  0  0  0  0  0
   39.2190   31.9920   38.5530 C   0  0  0  0  0  0  0  0  0  0  0  0
   36.9920   31.7930   40.9310 H   0  0  0  0  0  0  0  0  0  0  0  0
   36.2850   31.5990   39.3320 H   0  0  0  0  0  0  0  0  0  0  0  0
   36.5750   33.9090   40.2570 H   0  0  0  0  0  0  0  0  0  0  0  0
   36.9310   33.6130   38.5450 H   0  0  0  0  0  0  0  0  0  0  0  0
   38.7210   34.9130   40.0850 H   0  0  0  0  0  0  0  0  0  0  0  0
   40.1160   33.8840   38.3830 H   0  0  0  0  0  0  0  0  0  0  0  0
   40.5320   33.0780   39.8850 H   0  0  0  0  0  0  0  0  0  0  0  0
   38.6740   32.2940   37.6250 H   0  0  0  0  0  0  0  0  0  0  0  0
   40.0540   31.3310   38.2680 H   0  0  0  0  0  0  0  0  0  0  0  0
   30.7310   30.4940   37.5900 C   0  0  0  0  0  0  0  0  0  0  0  0
   31.4390   30.1350   36.4710 C   0  0  0  0  0  0  0  0  0  0  0  0
   31.4030   30.9560   35.3500 C   0  0  0  0  0  0  0  0  0  0  0  0
   31.9420   30.7250   34.4380 H   0  0  0  0  0  0  0  0  0  0  0  0
   30.6510   32.1080   35.4030 C   0  0  0  0  0  3  0  0  0  0  0  0
   29.9290   32.4960   36.5120 C   0  0  0  0  0  3  0  0  0  0  0  0
   29.9790   31.6690   37.6090 C   0  0  0  0  0  0  0  0  0  0  0  0
   30.7380   29.7040   38.7330 O   0  0  0  0  0  0  0  0  0  0  0  0
   31.2800   29.9850   39.5610 H   0  0  0  0  0  0  0  0  0  0  0  0
   29.2670   32.0120   38.7600 O   0  0  0  0  0  0  0  0  0  0  0  0
   28.6900   31.3330   39.2500 H   0  0  0  0  0  0  0  0  0  0  0  0
  1  2  1  0  0  0  0
  2  3  2  0  0  0  0
  2 16  1  0  0  0  0
  3 11  1  0  0  0  0
  4  9  1  0  0  0  0
  4  3  1  0  0  0  0
  5  4  2  0  0  0  0
  6  5  1  0  0  0  0
  6  1  2  0  0  0  0
  7  5  1  0  0  0  0
  7  8  1  0  0  0  0
  8 13  1  6  0  0  0
  8 38  1  0  0  0  0
  8  9  1  0  0  0  0
 10  1  1  0  0  0  0
 12  6  1  0  0  0  0
 14 19  1  0  0  0  0
 14 20  1  0  0  0  0
 15 14  2  0  0  0  0
 16 17  2  0  0  0  0
 16 15  1  0  0  0  0
 17 18  1  0  0  0  0
 18 21  1  0  0  0  0
 18 19  2  0  0  0  0
 22 15  1  0  0  0  0
 22 23  1  0  0  0  0
 23 28  1  0  0  0  0
 24 25  1  0  0  0  0
 24 23  1  0  0  0  0
 24 30  1  0  0  0  0
 25 32  1  0  0  0  0
 26 25  1  0  0  0  0
 26 34  1  0  0  0  0
 27 26  1  0  0  0  0
 27 22  1  0  0  0  0
 29 23  1  0  0  0  0
 31 24  1  0  0  0  0
 33 26  1  0  0  0  0
 35 27  1  0  0  0  0
 36 27  1  0  0  0  0
 37 43  1  0  0  0  0
 37 44  1  0  0  0  0
 38 37  2  0  0  0  0
 39 41  2  0  0  0  0
 39 38  1  0  0  0  0
 40 39  1  0  0  0  0
 41 42  1  0  0  0  0
 42 43  2  0  0  0  0
 43 46  1  0  0  0  0
 44 45  1  0  0  0  0
 46 47  1  0  0  0  0
M  END
>  <minimizedAffinity>
-6.87165117

$$$$

 OpenBabel03242523093D

 47 51  0  0  1  0  0  0  0  0999 V2000
   37.1040   27.5690   37.8810 C   0  0  0  0  0  0  0  0  0  0  0  0
   37.0250   27.4520   39.2940 C   0  0  0  0  0  0  0  0  0  0  0  0
   37.2430   28.6820   39.8930 C   0  0  0  0  0  0  0  0  0  0  0  0
   37.4990   29.8700   39.2700 C   0  0  0  0  0  0  0  0  0  0  0  0
   37.5550   29.8920   37.9110 C   0  0  0  0  0  0  0  0  0  0  0  0
   37.3590   28.7410   37.2010 C   0  0  0  0  0  0  0  0  0  0  0  0
   37.8190   31.2070   37.5780 O   0  0  0  0  0  0  0  0  0  0  0  0
   38.0380   31.9640   38.7420 C   0  0  1  0  0  0  0  0  0  0  0  0
   37.7240   31.1110   39.8260 O   0  0  0  0  0  0  0  0  0  0  0  0
   36.9850   26.7990   37.1090 H   0  0  0  0  0  0  0  0  0  0  0  0
   37.1960   28.5940   40.9330 H   0  0  0  0  0  0  0  0  0  0  0  0
   37.4250   28.8660   36.1490 H   0  0  0  0  0  0  0  0  0  0  0  0
   37.3650   32.8520   38.7190 H   0  0  0  0  0  0  0  0  0  0  0  0
   36.6220   24.1400   40.9920 C   0  0  0  0  0  0  0  0  0  0  0  0
   37.0190   25.4740   40.8850 C   0  0  0  0  0  0  0  0  0  0  0  0
   36.7340   26.1470   39.7350 C   0  0  0  0  0  0  0  0  0  0  0  0
   36.0770   25.4890   38.7620 N   0  0  0  0  0  0  0  0  0  0  0  0
   35.6920   24.2040   38.8640 C   0  0  0  0  0  0  0  0  0  0  0  0
   35.9660   23.5430   39.9690 N   0  0  0  0  0  0  0  0  0  0  0  0
   36.8510   23.5920   41.9150 H   0  0  0  0  0  0  0  0  0  0  0  0
   35.1640   23.6270   38.1170 H   0  0  0  0  0  0  0  0  0  0  0  0
   37.6380   26.0610   42.0020 N   0  0  0  0  0  0  0  0  0  0  0  0
   38.9970   26.0540   42.2310 C   0  0  0  0  0  0  0  0  0  0  0  0
   39.4510   26.8760   43.4170 C   0  0  0  0  0  0  0  0  0  0  0  0
   38.7880   28.0920   43.5890 N   0  0  0  0  0  0  0  0  0  0  0  0
   37.4070   28.1180   43.3770 C   0  0  0  0  0  0  0  0  0  0  0  0
   36.8850   26.7410   43.0440 C   0  0  0  0  0  0  0  0  0  0  0  0
   39.6500   26.3330   41.3590 H   0  0  0  0  0  0  0  0  0  0  0  0
   39.3300   24.9970   42.4580 H   0  0  0  0  0  0  0  0  0  0  0  0
   40.5480   27.0110   43.3180 H   0  0  0  0  0  0  0  0  0  0  0  0
   39.3190   26.2410   44.3410 H   0  0  0  0  0  0  0  0  0  0  0  0
   39.2580   28.9060   43.9400 H   0  0  0  0  0  0  0  0  0  0  0  0
   36.9290   28.3680   44.3710 H   0  0  0  0  0  0  0  0  0  0  0  0
   36.9940   28.8720   42.6910 H   0  0  0  0  0  0  0  0  0  0  0  0
   36.9800   26.1280   43.9740 H   0  0  0  0  0  0  0  0  0  0  0  0
   35.8270   26.7440   42.7340 H   0  0  0  0  0  0  0  0  0  0  0  0
   40.2400   32.6370   37.7870 C   0  0  0  0  0  0  0  0  0  0  0  0
   39.4450   32.4040   38.8820 C   0  0  0  0  0  0  0  0  0  0  0  0
   39.9710   32.5850   40.1550 C   0  0  0  0  0  0  0  0  0  0  0  0
   39.3920   32.4170   41.0560 H   0  0  0  0  0  0  0  0  0  0  0  0
   41.2800   32.9940   40.2740 C   0  0  0  0  0  3  0  0  0  0  0  0
   42.1030   33.2360   39.1940 C   0  0  0  0  0  3  0  0  0  0  0  0
   41.5630   33.0510   37.9440 C   0  0  0  0  0  0  0  0  0  0  0  0
   39.7560   32.4680   36.4960 O   0  0  0  0  0  0  0  0  0  0  0  0
   39.5250   33.2830   35.9120 H   0  0  0  0  0  0  0  0  0  0  0  0
   42.3510   33.2800   36.8150 O   0  0  0  0  0  0  0  0  0  0  0  0
   42.3810   32.6180   36.0440 H   0  0  0  0  0  0  0  0  0  0  0  0
  1  2  1  0  0  0  0
  2 16  1  0  0  0  0
  2  3  2  0  0  0  0
  3 11  1  0  0  0  0
  4  9  1  0  0  0  0
  4  3  1  0  0  0  0
  5  4  2  0  0  0  0
  6  1  2  0  0  0  0
  6  5  1  0  0  0  0
  7  5  1  0  0  0  0
  7  8  1  0  0  0  0
  8 13  1  1  0  0  0
  8 38  1  0  0  0  0
  8  9  1  0  0  0  0
 10  1  1  0  0  0  0
 12  6  1  0  0  0  0
 14 20  1  0  0  0  0
 15 14  1  0  0  0  0
 15 22  1  0  0  0  0
 16 15  2  0  0  0  0
 17 18  2  0  0  0  0
 17 16  1  0  0  0  0
 18 19  1  0  0  0  0
 19 14  2  0  0  0  0
 21 18  1  0  0  0  0
 22 23  1  0  0  0  0
 22 27  1  0  0  0  0
 23 29  1  0  0  0  0
 23 24  1  0  0  0  0
 24 25  1  0  0  0  0
 24 31  1  0  0  0  0
 25 32  1  0  0  0  0
 26 25  1  0  0  0  0
 26 33  1  0  0  0  0
 27 26  1  0  0  0  0
 27 35  1  0  0  0  0
 28 23  1  0  0  0  0
 30 24  1  0  0  0  0
 34 26  1  0  0  0  0
 36 27  1  0  0  0  0
 37 43  2  0  0  0  0
 37 38  1  0  0  0  0
 38 39  2  0  0  0  0
 39 41  1  0  0  0  0
 39 40  1  0  0  0  0
 42 41  2  0  0  0  0
 43 42  1  0  0  0  0
 44 37  1  0  0  0  0
 45 44  1  0  0  0  0
 46 43  1  0  0  0  0
 47 46  1  0  0  0  0
M  END
>  <minimizedAffinity>
-6.60427952

$$$$

 OpenBabel03242523093D

 47 51  0  0  1  0  0  0  0  0999 V2000
   35.1060   29.0720   36.8170 C   0  0  0  0  0  0  0  0  0  0  0  0
   33.9000   28.7400   37.4890 C   0  0  0  0  0  0  0  0  0  0  0  0
   34.0210   28.9850   38.8480 C   0  0  0  0  0  0  0  0  0  0  0  0
   35.1140   29.4750   39.5040 C   0  0  0  0  0  0  0  0  0  0  0  0
   36.2280   29.7690   38.7810 C   0  0  0  0  0  0  0  0  0  0  0  0
   36.2380   29.5690   37.4290 C   0  0  0  0  0  0  0  0  0  0  0  0
   37.1460   30.2410   39.7010 O   0  0  0  0  0  0  0  0  0  0  0  0
   36.6260   30.1260   41.0020 C   0  0  1  0  0  0  0  0  0  0  0  0
   35.2770   29.7300   40.8490 O   0  0  0  0  0  0  0  0  0  0  0  0
   35.3550   29.0010   35.7510 H   0  0  0  0  0  0  0  0  0  0  0  0
   33.1370   28.7310   39.3430 H   0  0  0  0  0  0  0  0  0  0  0  0
   37.1540   29.8280   36.9610 H   0  0  0  0  0  0  0  0  0  0  0  0
   36.7000   31.1190   41.5020 H   0  0  0  0  0  0  0  0  0  0  0  0
   30.8390   27.9610   35.4790 C   0  0  0  0  0  0  0  0  0  0  0  0
   31.6230   28.6990   36.3690 C   0  0  0  0  0  0  0  0  0  0  0  0
   32.8890   28.2690   36.6300 C   0  0  0  0  0  0  0  0  0  0  0  0
   33.3210   27.1560   36.0090 N   0  0  0  0  0  0  0  0  0  0  0  0
   32.5680   26.4450   35.1500 C   0  0  0  0  0  0  0  0  0  0  0  0
   31.3410   26.8490   34.8940 N   0  0  0  0  0  0  0  0  0  0  0  0
   29.8170   28.3000   35.2670 H   0  0  0  0  0  0  0  0  0  0  0  0
   32.8620   25.5460   34.6250 H   0  0  0  0  0  0  0  0  0  0  0  0
   31.0740   29.8800   36.8960 N   0  0  0  0  0  0  0  0  0  0  0  0
   30.9420   31.0580   36.1930 C   0  0  0  0  0  0  0  0  0  0  0  0
   30.1860   32.1540   36.9120 C   0  0  0  0  0  0  0  0  0  0  0  0
   29.0790   31.7300   37.6480 N   0  0  0  0  0  0  0  0  0  0  0  0
   29.1960   30.5460   38.3810 C   0  0  0  0  0  0  0  0  0  0  0  0
   30.5890   29.9730   38.2640 C   0  0  0  0  0  0  0  0  0  0  0  0
   30.5080   30.9730   35.1580 H   0  0  0  0  0  0  0  0  0  0  0  0
   31.9690   31.4880   35.9910 H   0  0  0  0  0  0  0  0  0  0  0  0
   29.9150   32.9150   36.1510 H   0  0  0  0  0  0  0  0  0  0  0  0
   30.9170   32.6760   37.5960 H   0  0  0  0  0  0  0  0  0  0  0  0
   28.2520   32.2920   37.7290 H   0  0  0  0  0  0  0  0  0  0  0  0
   29.0990   30.8280   39.4730 H   0  0  0  0  0  0  0  0  0  0  0  0
   28.4360   29.7640   38.2440 H   0  0  0  0  0  0  0  0  0  0  0  0
   31.2700   30.6700   38.8100 H   0  0  0  0  0  0  0  0  0  0  0  0
   30.6820   28.9700   38.7130 H   0  0  0  0  0  0  0  0  0  0  0  0
   38.6710   29.1930   42.0790 C   0  0  0  0  0  0  0  0  0  0  0  0
   37.3280   29.1030   41.8090 C   0  0  0  0  0  0  0  0  0  0  0  0
   36.6060   28.0240   42.3060 C   0  0  0  0  0  0  0  0  0  0  0  0
   35.5440   27.9000   42.1270 H   0  0  0  0  0  0  0  0  0  0  0  0
   37.2690   27.0780   43.0550 C   0  0  0  0  0  3  0  0  0  0  0  0
   38.6160   27.1420   43.3430 C   0  0  0  0  0  3  0  0  0  0  0  0
   39.3100   28.2160   42.8420 C   0  0  0  0  0  0  0  0  0  0  0  0
   39.4320   30.2540   41.6020 O   0  0  0  0  0  0  0  0  0  0  0  0
   39.7350   31.0070   42.2340 H   0  0  0  0  0  0  0  0  0  0  0  0
   40.6770   28.3320   43.1020 O   0  0  0  0  0  0  0  0  0  0  0  0
   41.3420   28.5540   42.3650 H   0  0  0  0  0  0  0  0  0  0  0  0
  1  6  2  0  0  0  0
  1  2  1  0  0  0  0
  2  3  2  0  0  0  0
  3 11  1  0  0  0  0
  3  4  1  0  0  0  0
  4  9  1  0  0  0  0
  5  4  2  0  0  0  0
  5  7  1  0  0  0  0
  6  5  1  0  0  0  0
  7  8  1  0  0  0  0
  8 13  1  1  0  0  0
  8 38  1  0  0  0  0
  9  8  1  0  0  0  0
 10  1  1  0  0  0  0
 12  6  1  0  0  0  0
 14 15  1  0  0  0  0
 15 16  2  0  0  0  0
 15 22  1  0  0  0  0
 16  2  1  0  0  0  0
 17 16  1  0  0  0  0
 18 17  2  0  0  0  0
 19 18  1  0  0  0  0
 19 14  2  0  0  0  0
 20 14  1  0  0  0  0
 21 18  1  0  0  0  0
 22 27  1  0  0  0  0
 23 22  1  0  0  0  0
 23 24  1  0  0  0  0
 24 31  1  0  0  0  0
 24 25  1  0  0  0  0
 25 32  1  0  0  0  0
 25 26  1  0  0  0  0
 26 33  1  0  0  0  0
 27 26  1  0  0  0  0
 27 36  1  0  0  0  0
 27 35  1  0  0  0  0
 28 23  1  0  0  0  0
 29 23  1  0  0  0  0
 30 24  1  0  0  0  0
 34 26  1  0  0  0  0
 37 43  1  0  0  0  0
 38 37  2  0  0  0  0
 38 39  1  0  0  0  0
 39 41  2  0  0  0  0
 40 39  1  0  0  0  0
 41 42  1  0  0  0  0
 43 46  1  0  0  0  0
 43 42  2  0  0  0  0
 44 37  1  0  0  0  0
 44 45  1  0  0  0  0
 47 46  1  0  0  0  0
M  END
>  <minimizedAffinity>
-6.53436804

$$$$

 OpenBabel03242523093D

 47 51  0  0  1  0  0  0  0  0999 V2000
   37.1790   26.8830   37.2860 C   0  0  0  0  0  0  0  0  0  0  0  0
   36.4920   26.8130   38.5260 C   0  0  0  0  0  0  0  0  0  0  0  0
   36.2690   28.0850   39.0280 C   0  0  0  0  0  0  0  0  0  0  0  0
   36.6300   29.2730   38.4580 C   0  0  0  0  0  0  0  0  0  0  0  0
   37.2840   29.2480   37.2650 C   0  0  0  0  0  0  0  0  0  0  0  0
   37.5670   28.0530   36.6660 C   0  0  0  0  0  0  0  0  0  0  0  0
   37.5080   30.5740   36.9440 O   0  0  0  0  0  0  0  0  0  0  0  0
   37.0900   31.4020   38.0010 C   0  0  1  0  0  0  0  0  0  0  0  0
   36.4310   30.5550   38.9220 O   0  0  0  0  0  0  0  0  0  0  0  0
   37.5120   26.0750   36.6240 H   0  0  0  0  0  0  0  0  0  0  0  0
   35.7730   28.0320   39.9460 H   0  0  0  0  0  0  0  0  0  0  0  0
   38.0790   28.1440   35.7410 H   0  0  0  0  0  0  0  0  0  0  0  0
   36.3960   32.1720   37.5940 H   0  0  0  0  0  0  0  0  0  0  0  0
   36.1890   23.4020   40.0410 C   0  0  0  0  0  0  0  0  0  0  0  0
   36.6650   24.7110   39.9400 C   0  0  0  0  0  0  0  0  0  0  0  0
   36.1950   25.4970   38.9310 C   0  0  0  0  0  0  0  0  0  0  0  0
   35.2900   24.9710   38.0860 N   0  0  0  0  0  0  0  0  0  0  0  0
   34.8300   23.7100   38.1830 C   0  0  0  0  0  0  0  0  0  0  0  0
   35.2800   22.9400   39.1510 N   0  0  0  0  0  0  0  0  0  0  0  0
   36.5660   22.7630   40.8500 H   0  0  0  0  0  0  0  0  0  0  0  0
   34.1050   23.2350   37.5340 H   0  0  0  0  0  0  0  0  0  0  0  0
   37.5580   25.1590   40.9280 N   0  0  0  0  0  0  0  0  0  0  0  0
   38.9300   25.1460   40.8000 C   0  0  0  0  0  0  0  0  0  0  0  0
   39.6860   25.8140   41.9280 C   0  0  0  0  0  0  0  0  0  0  0  0
   39.1080   26.9850   42.4210 N   0  0  0  0  0  0  0  0  0  0  0  0
   37.7190   27.0130   42.5740 C   0  0  0  0  0  0  0  0  0  0  0  0
   37.1070   25.6810   42.2080 C   0  0  0  0  0  0  0  0  0  0  0  0
   39.3420   25.5490   39.8340 H   0  0  0  0  0  0  0  0  0  0  0  0
   39.2940   24.0750   40.7930 H   0  0  0  0  0  0  0  0  0  0  0  0
   40.7230   25.9810   41.5700 H   0  0  0  0  0  0  0  0  0  0  0  0
   39.7850   25.0610   42.7620 H   0  0  0  0  0  0  0  0  0  0  0  0
   39.6650   27.7540   42.7440 H   0  0  0  0  0  0  0  0  0  0  0  0
   37.5150   27.1210   43.6820 H   0  0  0  0  0  0  0  0  0  0  0  0
   37.1570   27.8420   42.1220 H   0  0  0  0  0  0  0  0  0  0  0  0
   37.4270   24.9540   42.9940 H   0  0  0  0  0  0  0  0  0  0  0  0
   36.0060   25.7060   42.1830 H   0  0  0  0  0  0  0  0  0  0  0  0
   38.0370   32.8010   39.8340 C   0  0  0  0  0  0  0  0  0  0  0  0
   38.2220   32.0600   38.6930 C   0  0  0  0  0  0  0  0  0  0  0  0
   39.5020   31.9210   38.1720 C   0  0  0  0  0  0  0  0  0  0  0  0
   39.7100   31.3480   37.2750 H   0  0  0  0  0  0  0  0  0  0  0  0
   40.5470   32.5370   38.8230 C   0  0  0  0  0  3  0  0  0  0  0  0
   40.3940   33.2870   39.9700 C   0  0  0  0  0  3  0  0  0  0  0  0
   39.1190   33.4110   40.4680 C   0  0  0  0  0  0  0  0  0  0  0  0
   36.7750   32.9660   40.3900 O   0  0  0  0  0  0  0  0  0  0  0  0
   36.5060   32.4570   41.2430 H   0  0  0  0  0  0  0  0  0  0  0  0
   38.9050   34.1600   41.6260 O   0  0  0  0  0  0  0  0  0  0  0  0
   38.1560   34.8450   41.6860 H   0  0  0  0  0  0  0  0  0  0  0  0
  1  2  1  0  0  0  0
  2 16  1  0  0  0  0
  2  3  2  0  0  0  0
  3 11  1  0  0  0  0
  4  9  1  0  0  0  0
  4  3  1  0  0  0  0
  5  4  2  0  0  0  0
  6  5  1  0  0  0  0
  6  1  2  0  0  0  0
  7  5  1  0  0  0  0
  7  8  1  0  0  0  0
  8 13  1  6  0  0  0
  8 38  1  0  0  0  0
  8  9  1  0  0  0  0
 10  1  1  0  0  0  0
 12  6  1  0  0  0  0
 14 20  1  0  0  0  0
 15 14  1  0  0  0  0
 15 22  1  0  0  0  0
 16 15  2  0  0  0  0
 17 18  2  0  0  0  0
 17 16  1  0  0  0  0
 18 19  1  0  0  0  0
 19 14  2  0  0  0  0
 21 18  1  0  0  0  0
 22 27  1  0  0  0  0
 23 22  1  0  0  0  0
 23 24  1  0  0  0  0
 24 25  1  0  0  0  0
 24 31  1  0  0  0  0
 25 26  1  0  0  0  0
 25 32  1  0  0  0  0
 26 33  1  0  0  0  0
 27 26  1  0  0  0  0
 27 35  1  0  0  0  0
 28 23  1  0  0  0  0
 29 23  1  0  0  0  0
 30 24  1  0  0  0  0
 34 26  1  0  0  0  0
 36 27  1  0  0  0  0
 37 44  1  0  0  0  0
 37 43  1  0  0  0  0
 38 37  2  0  0  0  0
 39 38  1  0  0  0  0
 39 41  2  0  0  0  0
 40 39  1  0  0  0  0
 41 42  1  0  0  0  0
 42 43  2  0  0  0  0
 43 46  1  0  0  0  0
 44 45  1  0  0  0  0
 46 47  1  0  0  0  0
M  END
>  <minimizedAffinity>
-6.49108267

$$$$
