
 OpenBabel03252508153D

 39 42  0  0  1  0  0  0  0  0999 V2000
   46.0770   33.1190   46.0460 C   0  0  0  0  0  3  0  0  0  0  0  0
   46.7970   32.1350   45.6730 C   0  0  0  0  0  3  0  0  0  0  0  0
   44.4580   35.9980   44.4190 C   0  0  0  0  0  0  0  0  0  0  0  0
   44.7700   35.7980   43.0800 C   0  0  0  0  0  0  0  0  0  0  0  0
   45.5300   34.7180   42.7620 C   0  0  0  0  0  0  0  0  0  0  0  0
   45.9290   33.9110   43.7760 N   0  0  0  0  0  0  0  0  0  0  0  0
   45.6370   34.0880   45.0620 C   0  0  0  0  0  0  0  0  0  0  0  0
   44.8880   35.1580   45.3550 N   0  0  0  0  0  0  0  0  0  0  0  0
   43.8540   36.8490   44.7310 H   0  0  0  0  0  0  0  0  0  0  0  0
   44.4330   36.4600   42.3150 H   0  0  0  0  0  0  0  0  0  0  0  0
   47.2020   34.5180   40.8620 C   0  0  0  0  0  0  0  0  0  0  0  0
   45.9790   34.3090   41.4410 C   0  0  0  0  0  0  0  0  0  0  0  0
   45.1170   33.6150   40.6090 C   0  0  0  0  0  0  0  0  0  0  0  0
   44.0880   33.3570   40.9110 H   0  0  0  0  0  0  0  0  0  0  0  0
   45.4510   33.1840   39.3440 C   0  0  0  0  0  3  0  0  0  0  0  0
   46.7030   33.4320   38.8270 C   0  0  0  0  0  3  0  0  0  0  0  0
   47.5920   34.1170   39.6160 C   0  0  0  0  0  0  0  0  0  0  0  0
   48.1410   35.1950   41.5910 O   0  0  0  0  0  0  0  0  0  0  0  0
   48.8430   34.6410   42.0800 H   0  0  0  0  0  0  0  0  0  0  0  0
   48.8420   34.3700   39.1130 O   0  0  0  0  0  0  0  0  0  0  0  0
   49.5080   33.5930   39.1220 H   0  0  0  0  0  0  0  0  0  0  0  0
   47.1870   31.1620   46.7760 C   0  0  0  0  0  0  0  0  0  0  0  0
   46.4800   30.3030   46.6110 H   0  0  0  0  0  0  0  0  0  0  0  0
   48.2120   30.8040   46.6470 H   0  0  0  0  0  0  0  0  0  0  0  0
   46.8540   31.7420   48.1080 C   0  0  1  0  0  0  0  0  0  0  0  0
   46.2160   30.8340   49.1060 C   0  0  0  0  0  0  0  0  0  0  0  0
   47.5800   31.2790   49.3200 C   0  0  1  0  0  0  0  0  0  0  0  0
   46.4990   32.8090   48.1200 H   0  0  0  0  0  0  0  0  0  0  0  0
   46.0480   29.7760   48.7950 H   0  0  0  0  0  0  0  0  0  0  0  0
   45.3710   31.2290   49.6990 H   0  0  0  0  0  0  0  0  0  0  0  0
   47.7000   32.0550   50.1350 H   0  0  0  0  0  0  0  0  0  0  0  0
   48.7950   30.4590   49.1250 C   0  0  0  0  0  0  0  0  0  0  0  0
   49.6420   30.2680   50.4110 C   0  0  0  0  0  0  0  0  0  0  0  0
   50.1440   31.1760   49.3420 C   0  0  0  0  0  0  0  0  0  0  0  0
   48.7860   29.5830   48.4470 H   0  0  0  0  0  0  0  0  0  0  0  0
   50.1080   29.2910   50.5530 H   0  0  0  0  0  0  0  0  0  0  0  0
   49.3010   30.7830   51.3300 H   0  0  0  0  0  0  0  0  0  0  0  0
   50.9940   30.7810   48.7610 H   0  0  0  0  0  0  0  0  0  0  0  0
   50.0790   32.2630   49.4360 H   0  0  0  0  0  0  0  0  0  0  0  0
  2  1  2  0  0  0  0
  2 22  1  0  0  0  0
  3  9  1  0  0  0  0
  3  8  1  0  0  0  0
  4  3  2  0  0  0  0
  5  4  1  0  0  0  0
  5  6  2  0  0  0  0
  6  7  1  0  0  0  0
  7  8  2  0  0  0  0
  7  1  1  0  0  0  0
 10  4  1  0  0  0  0
 11 12  1  0  0  0  0
 11 18  1  0  0  0  0
 12  5  1  0  0  0  0
 13 14  1  0  0  0  0
 13 12  2  0  0  0  0
 15 13  1  0  0  0  0
 16 15  2  0  0  0  0
 16 17  1  0  0  0  0
 17 11  2  0  0  0  0
 18 19  1  0  0  0  0
 20 21  1  0  0  0  0
 20 17  1  0  0  0  0
 22 25  1  0  0  0  0
 23 22  1  0  0  0  0
 24 22  1  0  0  0  0
 25 28  1  1  0  0  0
 25 26  1  0  0  0  0
 25 27  1  0  0  0  0
 26 27  1  0  0  0  0
 26 30  1  0  0  0  0
 27 31  1  1  0  0  0
 29 26  1  0  0  0  0
 32 27  1  0  0  0  0
 32 34  1  0  0  0  0
 32 33  1  0  0  0  0
 33 36  1  0  0  0  0
 33 37  1  0  0  0  0
 34 39  1  0  0  0  0
 34 33  1  0  0  0  0
 35 32  1  0  0  0  0
 38 34  1  0  0  0  0
M  END
>  <minimizedAffinity>
-6.07948446

>  <minimizedRMSD>
1.0310843

$$$$
