
 OpenBabel03242518363D

 37 40  0  0  1  0  0  0  0  0999 V2000
   47.7710   32.7720   41.2410 C   0  0  0  0  0  0  0  0  0  0  0  0
   48.6720   31.7570   40.9270 C   0  0  0  0  0  0  0  0  0  0  0  0
   48.9740   31.0550   42.0840 C   0  0  0  0  0  0  0  0  0  0  0  0
   48.2330   31.6850   43.0500 C   0  0  0  0  0  0  0  0  0  0  0  0
   47.5370   32.6830   42.5530 O   0  0  0  0  0  0  0  0  0  0  0  0
   49.0220   31.6240   39.8980 H   0  0  0  0  0  0  0  0  0  0  0  0
   49.6500   30.2120   42.1260 H   0  0  0  0  0  0  0  0  0  0  0  0
   48.2150   31.2910   44.4700 C   0  0  2  0  0  0  0  0  0  0  0  0
   48.0160   29.8720   44.8300 C   0  0  0  0  0  0  0  0  0  0  0  0
   46.8390   30.7870   44.9580 C   0  0  1  0  0  0  0  0  0  0  0  0
   48.6940   32.0470   45.1260 H   0  0  0  0  0  0  0  0  0  0  0  0
   47.9760   29.1100   44.0440 H   0  0  0  0  0  0  0  0  0  0  0  0
   48.5530   29.5160   45.7530 H   0  0  0  0  0  0  0  0  0  0  0  0
   46.0280   30.6850   44.2010 H   0  0  0  0  0  0  0  0  0  0  0  0
   45.7310   32.3890   46.4670 C   0  0  0  0  0  0  0  0  0  0  0  0
   46.4910   31.2480   46.3240 C   0  0  0  0  0  0  0  0  0  0  0  0
   46.8810   30.6010   47.4780 C   0  0  0  0  0  0  0  0  0  0  0  0
   47.4790   29.7020   47.3980 H   0  0  0  0  0  0  0  0  0  0  0  0
   46.5190   31.0890   48.7160 C   0  0  0  0  0  3  0  0  0  0  0  0
   45.7600   32.2280   48.8710 C   0  0  0  0  0  3  0  0  0  0  0  0
   45.3620   32.8850   47.7220 C   0  0  0  0  0  0  0  0  0  0  0  0
   45.3220   33.0630   45.3180 O   0  0  0  0  0  0  0  0  0  0  0  0
   44.8910   33.9640   45.4010 H   0  0  0  0  0  0  0  0  0  0  0  0
   44.5930   34.0410   47.8380 O   0  0  0  0  0  0  0  0  0  0  0  0
   45.1380   34.8920   47.9920 H   0  0  0  0  0  0  0  0  0  0  0  0
   47.1600   33.7510   40.4340 O   0  0  0  0  0  0  0  0  0  0  0  0
   45.8560   33.5390   39.9440 C   0  0  0  0  0  0  0  0  0  0  0  0
   45.7710   32.8040   38.9240 O   0  0  0  0  0  0  0  0  0  0  0  0
   44.7990   34.1740   40.6500 C   0  0  0  0  0  0  0  0  0  0  0  0
   43.5650   34.0440   40.0760 C   0  0  0  0  0  0  0  0  0  0  0  0
   42.4800   34.6430   40.7150 C   0  0  0  0  0  0  0  0  0  0  0  0
   42.7050   35.3140   41.8570 N   0  0  0  0  0  0  0  0  0  0  0  0
   43.9240   35.4220   42.3920 C   0  0  0  0  0  0  0  0  0  0  0  0
   44.9700   34.8430   41.7730 N   0  0  0  0  0  0  0  0  0  0  0  0
   43.2910   33.5190   39.1540 H   0  0  0  0  0  0  0  0  0  0  0  0
   41.4730   34.5780   40.3120 H   0  0  0  0  0  0  0  0  0  0  0  0
   44.0030   35.9890   43.3230 H   0  0  0  0  0  0  0  0  0  0  0  0
  1  5  1  0  0  0  0
  2  1  2  0  0  0  0
  2  3  1  0  0  0  0
  3  7  1  0  0  0  0
  3  4  2  0  0  0  0
  4  8  1  0  0  0  0
  5  4  1  0  0  0  0
  6  2  1  0  0  0  0
  8  9  1  0  0  0  0
  8 10  1  0  0  0  0
  8 11  1  1  0  0  0
  9 10  1  0  0  0  0
  9 13  1  0  0  0  0
 10 14  1  6  0  0  0
 10 16  1  0  0  0  0
 12  9  1  0  0  0  0
 15 21  1  0  0  0  0
 16 15  2  0  0  0  0
 16 17  1  0  0  0  0
 17 19  2  0  0  0  0
 18 17  1  0  0  0  0
 19 20  1  0  0  0  0
 21 24  1  0  0  0  0
 21 20  2  0  0  0  0
 22 23  1  0  0  0  0
 22 15  1  0  0  0  0
 24 25  1  0  0  0  0
 26  1  1  0  0  0  0
 27 26  1  0  0  0  0
 27 29  1  0  0  0  0
 28 27  2  0  0  0  0
 29 34  1  0  0  0  0
 30 29  2  0  0  0  0
 30 31  1  0  0  0  0
 31 32  2  0  0  0  0
 32 33  1  0  0  0  0
 33 37  1  0  0  0  0
 34 33  2  0  0  0  0
 35 30  1  0  0  0  0
 36 31  1  0  0  0  0
M  END
>  <minimizedAffinity>
-5.23390961

>  <minimizedRMSD>
9.15425777

$$$$
