
 OpenBabel03242510273D

 20 21  0  0  0  0  0  0  0  0999 V2000
   46.2740   34.1730   40.9840 C   0  0  0  0  0  0  0  0  0  0  0  0
   46.8370   34.8410   42.0470 C   0  0  0  0  0  0  0  0  0  0  0  0
   48.0740   35.3820   41.8530 C   0  0  0  0  0  0  0  0  0  0  0  0
   48.5540   35.9080   42.6390 H   0  0  0  0  0  0  0  0  0  0  0  0
   48.7420   35.2700   40.6440 C   0  0  0  0  0  0  0  0  0  0  0  0
   48.1730   34.6070   39.5990 C   0  0  0  0  0  0  0  0  0  0  0  0
   46.9130   34.0360   39.7480 C   0  0  0  0  0  0  0  0  0  0  0  0
   44.5140   36.0220   44.7710 C   0  0  0  0  0  0  0  0  0  0  0  0
   45.2280   35.9710   43.5640 C   0  0  0  0  0  0  0  0  0  0  0  0
   46.0900   34.9210   43.2760 C   0  0  0  0  0  0  0  0  0  0  0  0
   46.1770   33.9720   44.2420 N   0  0  0  0  0  0  0  0  0  0  0  0
   45.4960   34.0150   45.4010 C   0  0  0  0  0  0  0  0  0  0  0  0
   44.6640   35.0360   45.6680 N   0  0  0  0  0  0  0  0  0  0  0  0
   43.8590   36.8540   44.9480 H   0  0  0  0  0  0  0  0  0  0  0  0
   45.0890   36.7680   42.8680 H   0  0  0  0  0  0  0  0  0  0  0  0
   45.7010   33.1640   46.0430 H   0  0  0  0  0  0  0  0  0  0  0  0
   45.0100   33.5980   41.1260 O   0  0  0  0  0  0  0  0  0  0  0  0
   44.1990   34.1930   41.0550 H   0  0  0  0  0  0  0  0  0  0  0  0
   46.2580   33.3420   38.7370 O   0  0  0  0  0  0  0  0  0  0  0  0
   45.2850   33.4920   38.5210 H   0  0  0  0  0  0  0  0  0  0  0  0
  1 17  1  0  0  0  0
  1  2  1  0  0  0  0
  2 10  1  0  0  0  0
  3  2  2  0  0  0  0
  3  4  1  0  0  0  0
  5  3  1  0  0  0  0
  6  7  1  0  0  0  0
  6  5  2  0  0  0  0
  7  1  2  0  0  0  0
  8 14  1  0  0  0  0
  8 13  1  0  0  0  0
  9  8  2  0  0  0  0
 10  9  1  0  0  0  0
 10 11  2  0  0  0  0
 11 12  1  0  0  0  0
 12 13  2  0  0  0  0
 12 16  1  0  0  0  0
 15  9  1  0  0  0  0
 18 17  1  0  0  0  0
 19  7  1  0  0  0  0
 20 19  1  0  0  0  0
M  END
>  <minimizedAffinity>
-5.16155815

>  <minimizedRMSD>
0.879593849

$$$$
