REMARK  Name = 
REMARK  6 active torsions:
REMARK  status: ('A' for Active; 'I' for Inactive)
REMARK    1  A    between atoms: C_1  and  C_15
REMARK    2  A    between atoms: C_3  and  C_4
REMARK    3  A    between atoms: C_18  and  C_20
REMARK    4  A    between atoms: C_22  and  C_41
REMARK    5  A    between atoms: O_39  and  C_40
REMARK    6  A    between atoms: C_46  and  O_47
REMARK                            x       y       z     vdW  Elec       q    Type
REMARK                         _______ _______ _______ _____ _____    ______ ____
ROOT
ATOM      1  C   UNL     1      45.550  33.947  45.295  0.00  0.00    +0.000 A 
ATOM      2  C   UNL     1      46.479  33.146  44.541  0.00  0.00    +0.000 A 
ATOM      3  C   UNL     1      47.133  32.132  45.190  0.00  0.00    +0.000 A 
ATOM      4  N   UNL     1      46.863  31.943  46.511  0.00  0.00    +0.000 NA
ATOM      5  C   UNL     1      45.983  32.709  47.208  0.00  0.00    +0.000 A 
ATOM      6  N   UNL     1      45.328  33.709  46.598  0.00  0.00    +0.000 NA
ATOM      7  H   UNL     1      45.037  34.745  44.779  0.00  0.00    +0.000 HD
ATOM      8  H   UNL     1      47.832  31.514  44.658  0.00  0.00    +0.000 HD
ENDROOT
BRANCH   2   9
ATOM      9  C   UNL     1      46.687  33.467  43.097  0.00  0.00    +0.000 C 
ATOM     10  C   UNL     1      46.980  34.832  42.678  0.00  0.00    +0.000 C 
ATOM     11  C   UNL     1      48.099  33.859  42.691  0.00  0.00    +0.000 C 
ATOM     12  H   UNL     1      46.193  32.732  42.435  0.00  0.00    +0.000 HD
ATOM     13  H   UNL     1      47.041  35.592  43.511  0.00  0.00    +0.000 HD
ATOM     14  H   UNL     1      46.455  35.213  41.819  0.00  0.00    +0.000 HD
ATOM     15  H   UNL     1      48.869  33.824  43.482  0.00  0.00    +0.000 HD
BRANCH  11  16
ATOM     16  C   UNL     1      48.528  33.303  41.379  0.00  0.00    +0.000 A 
ATOM     17  C   UNL     1      49.361  32.215  41.233  0.00  0.00    +0.000 A 
ATOM     18  C   UNL     1      49.722  31.757  39.978  0.00  0.00    +0.000 A 
ATOM     19  C   UNL     1      49.254  32.383  38.842  0.00  0.00    +0.000 A 
ATOM     20  N   UNL     1      49.587  31.955  37.601  0.00  0.00    +0.000 NA
ATOM     21  C   UNL     1      49.106  32.590  36.505  0.00  0.00    +0.000 A 
ATOM     22  C   UNL     1      48.248  33.714  36.560  0.00  0.00    +0.000 A 
ATOM     23  C   UNL     1      47.903  34.158  37.813  0.00  0.00    +0.000 A 
ATOM     24  C   UNL     1      48.405  33.493  38.938  0.00  0.00    +0.000 A 
ATOM     25  C   UNL     1      48.073  33.913  40.209  0.00  0.00    +0.000 A 
ATOM     26  H   UNL     1      49.725  31.730  42.130  0.00  0.00    +0.000 HD
ATOM     27  H   UNL     1      50.381  30.896  39.884  0.00  0.00    +0.000 HD
ATOM     28  H   UNL     1      49.423  32.180  35.568  0.00  0.00    +0.000 HD
ATOM     29  H   UNL     1      47.911  34.161  35.634  0.00  0.00    +0.000 HD
ATOM     30  H   UNL     1      47.251  35.011  37.914  0.00  0.00    +0.000 HD
ATOM     31  H   UNL     1      47.422  34.776  40.201  0.00  0.00    +0.000 HD
ENDBRANCH  11  16
ENDBRANCH   2   9
BRANCH   5  32
ATOM     32  C   UNL     1      45.769  32.395  48.648  0.00  0.00    +0.000 C 
ATOM     33  C   UNL     1      46.254  31.161  49.241  0.00  0.00    +0.000 C 
ATOM     34  C   UNL     1      44.802  31.194  48.886  0.00  0.00    +0.000 C 
ATOM     35  H   UNL     1      45.464  33.300  49.243  0.00  0.00    +0.000 HD
ATOM     36  H   UNL     1      47.004  30.600  48.685  0.00  0.00    +0.000 HD
ATOM     37  H   UNL     1      46.517  31.235  50.339  0.00  0.00    +0.000 HD
ATOM     38  H   UNL     1      44.110  31.296  49.740  0.00  0.00    +0.000 HD
BRANCH  34  40
ATOM     39  C   UNL     1      43.161  30.488  46.988  0.00  0.00    +0.000 A 
ATOM     40  C   UNL     1      44.342  30.472  47.696  0.00  0.00    +0.000 A 
ATOM     41  C   UNL     1      45.347  29.609  47.239  0.00  0.00    +0.000 A 
ATOM     42  H   UNL     1      46.350  29.460  47.671  0.00  0.00    +0.000 HD
ATOM     43  C   UNL     1      45.152  28.801  46.112  0.00  0.00    +0.000 A 
ATOM     44  C   UNL     1      43.961  28.835  45.422  0.00  0.00    +0.000 A 
ATOM     45  C   UNL     1      42.991  29.684  45.882  0.00  0.00    +0.000 A 
BRANCH  39  46
ATOM     46  O   UNL     1      42.241  31.374  47.526  0.00  0.00    +0.000 OA
ATOM     47  H   UNL     1      42.147  32.335  47.227  0.00  0.00    +0.000 HD
ENDBRANCH  39  46
BRANCH  45  48
ATOM     48  O   UNL     1      41.767  29.789  45.260  0.00  0.00    +0.000 OA
ATOM     49  H   UNL     1      41.333  30.707  45.134  0.00  0.00    +0.000 HD
ENDBRANCH  45  48
ENDBRANCH  34  40
ENDBRANCH   5  32
TORSDOF 6
