
     RDKit          3D

 26 27  0  0  0  0  0  0  0  0999 V2000
   44.2480   35.7413   44.2634 C   0  0  0  0  0  0  0  0  0  0  0  0
   44.4559   34.9335   43.1285 C   0  0  0  0  0  0  0  0  0  0  0  0
   45.1019   33.7190   43.2242 C   0  0  0  0  0  0  0  0  0  0  0  0
   45.5234   33.3507   44.4723 N   0  0  0  0  0  0  0  0  0  0  0  0
   45.3097   34.1469   45.5415 C   0  0  0  0  0  0  0  0  0  0  0  0
   44.6917   35.3190   45.4792 N   0  0  0  0  0  0  0  0  0  0  0  0
   43.8718   35.4921   41.5278 S   0  0  0  0  0  0  0  0  0  0  0  0
   43.8036   34.0986   40.3821 C   0  0  0  0  0  0  0  0  0  0  0  0
   43.7324   36.6953   44.1476 H   0  0  0  0  0  0  0  0  0  0  0  0
   45.2869   33.0671   42.3970 H   0  0  0  0  0  0  0  0  0  0  0  0
   45.7203   33.6775   46.4494 H   0  0  0  0  0  0  0  0  0  0  0  0
   43.4725   34.5280   39.4048 H   0  0  0  0  0  0  0  0  0  0  0  0
   44.7509   33.5443   40.2820 H   0  0  0  0  0  0  0  0  0  0  0  0
   43.3940   31.7635   38.9047 O   0  0  0  0  0  0  0  0  0  0  0  0
   42.6052   31.9708   40.0368 C   0  0  0  0  0  0  0  0  0  0  0  0
   42.7682   33.1058   40.7999 C   0  0  0  0  0  0  0  0  0  0  0  0
   41.9585   33.2727   41.9226 C   0  0  0  0  0  0  0  0  0  0  0  0
   42.1195   34.1814   42.4976 H   0  0  0  0  0  0  0  0  0  0  0  0
   41.0281   32.3211   42.2444 C   0  0  0  0  0  0  0  0  0  0  0  0
   40.8490   31.1718   41.4885 C   0  0  0  0  0  0  0  0  0  0  0  0
   41.6674   31.0153   40.3645 C   0  0  0  0  0  0  0  0  0  0  0  0
   41.4513   29.8442   39.6347 O   0  0  0  0  0  0  0  0  0  0  0  0
   44.4044   31.8293   38.9317 H   0  0  0  0  0  0  0  0  0  0  0  0
   40.4179   32.4874   43.1256 H   0  0  0  0  0  0  0  0  0  0  0  0
   40.1039   30.4210   41.7552 H   0  0  0  0  0  0  0  0  0  0  0  0
   42.0524   29.0590   39.9281 H   0  0  0  0  0  0  0  0  0  0  0  0
  1  6  2  0
  2  3  2  0
  2  1  1  0
  3  4  1  0
  4  5  2  0
  6  5  1  0
  7  2  1  0
  8  7  1  0
  1  9  1  0
  3 10  1  0
  5 11  1  0
  8 12  1  0
  8 13  1  0
 14 15  1  0
 15 16  2  0
 16 17  1  0
 17 18  1  0
 17 19  2  0
 19 20  1  0
 20 21  2  0
 21 22  1  0
 21 15  1  0
 14 23  1  0
 19 24  1  0
 20 25  1  0
 22 26  1  0
  8 16  1  0
M  ISO  6   9  14  10  14  11  14  12   8  13   8  18  16
M  END
>  <DihAtoms>  (1) 
6,7,15,14

>  <DihDeg>  (1) 
-179.07972420120984

$$$$
