
 OpenBabel03252500513D

 37 39  0  0  0  0  0  0  0  0999 V2000
   44.6460   34.9130   42.0860 C   0  0  0  0  0  0  0  0  0  0  0  0
   45.3680   34.7080   41.0880 O   0  0  0  0  0  0  0  0  0  0  0  0
   44.9260   35.0150   44.5070 C   0  0  0  0  0  0  0  0  0  0  0  0
   45.0130   34.2890   43.3460 C   0  0  0  0  0  0  0  0  0  0  0  0
   45.4520   32.9460   43.3550 C   0  0  0  0  0  0  0  0  0  0  0  0
   45.7800   32.4260   44.5820 N   0  0  0  0  0  0  0  0  0  0  0  0
   45.6930   33.1380   45.7010 C   0  0  0  0  0  0  0  0  0  0  0  0
   45.2690   34.4200   45.6620 N   0  0  0  0  0  0  0  0  0  0  0  0
   44.6040   36.0270   44.5750 H   0  0  0  0  0  0  0  0  0  0  0  0
   45.5270   32.3600   42.4580 H   0  0  0  0  0  0  0  0  0  0  0  0
   46.0520   32.5490   46.9820 C   0  0  0  0  0  0  0  0  0  0  0  0
   47.3330   32.2400   47.3140 C   0  0  0  0  0  0  0  0  0  0  0  0
   47.6860   31.6860   48.5140 C   0  0  0  0  0  0  0  0  0  0  0  0
   46.6890   31.4450   49.3930 N   0  0  0  0  0  0  0  0  0  0  0  0
   45.4350   31.7480   49.0640 C   0  0  0  0  0  0  0  0  0  0  0  0
   45.0620   32.2900   47.8980 N   0  0  0  0  0  0  0  0  0  0  0  0
   48.1340   32.4320   46.6130 H   0  0  0  0  0  0  0  0  0  0  0  0
   48.7000   31.4360   48.7920 H   0  0  0  0  0  0  0  0  0  0  0  0
   44.6170   31.5610   49.7580 H   0  0  0  0  0  0  0  0  0  0  0  0
   43.6210   35.7300   41.7070 O   0  0  0  0  0  0  0  0  0  0  0  0
   42.6010   35.3480   40.8750 C   0  0  0  0  0  0  0  0  0  0  0  0
   42.7590   35.9230   39.9110 H   0  0  0  0  0  0  0  0  0  0  0  0
   42.5820   34.2990   40.5230 H   0  0  0  0  0  0  0  0  0  0  0  0
   41.2210   35.8170   41.3200 C   0  0  0  0  0  0  0  0  0  0  0  0
   41.0240   36.8520   41.0290 H   0  0  0  0  0  0  0  0  0  0  0  0
   41.1320   35.6040   42.3920 H   0  0  0  0  0  0  0  0  0  0  0  0
   39.5270   33.9450   41.2520 C   0  0  0  0  0  0  0  0  0  0  0  0
   40.2340   34.9460   40.6060 C   0  0  0  0  0  0  0  0  0  0  0  0
   39.9900   35.1180   39.2460 C   0  0  0  0  0  0  0  0  0  0  0  0
   40.5560   35.9070   38.7640 H   0  0  0  0  0  0  0  0  0  0  0  0
   39.0900   34.3500   38.5200 C   0  0  0  0  0  3  0  0  0  0  0  0
   38.4020   33.3580   39.2030 C   0  0  0  0  0  3  0  0  0  0  0  0
   38.6200   33.1640   40.5380 C   0  0  0  0  0  0  0  0  0  0  0  0
   39.7260   33.7270   42.5990 O   0  0  0  0  0  0  0  0  0  0  0  0
   39.4760   32.8610   43.0660 H   0  0  0  0  0  0  0  0  0  0  0  0
   37.8880   32.1500   41.1410 O   0  0  0  0  0  0  0  0  0  0  0  0
   36.9380   31.9200   40.8460 H   0  0  0  0  0  0  0  0  0  0  0  0
  1  4  1  0  0  0  0
  2  1  2  0  0  0  0
  3  9  1  0  0  0  0
  3  8  1  0  0  0  0
  4  5  1  0  0  0  0
  4  3  2  0  0  0  0
  5  6  2  0  0  0  0
  6  7  1  0  0  0  0
  7 11  1  0  0  0  0
  8  7  2  0  0  0  0
 10  5  1  0  0  0  0
 11 12  2  0  0  0  0
 11 16  1  0  0  0  0
 12 13  1  0  0  0  0
 13 18  1  0  0  0  0
 13 14  2  0  0  0  0
 15 14  1  0  0  0  0
 15 19  1  0  0  0  0
 16 15  2  0  0  0  0
 17 12  1  0  0  0  0
 20  1  1  0  0  0  0
 21 24  1  0  0  0  0
 21 20  1  0  0  0  0
 22 21  1  0  0  0  0
 23 21  1  0  0  0  0
 24 26  1  0  0  0  0
 25 24  1  0  0  0  0
 27 34  1  0  0  0  0
 28 27  1  0  0  0  0
 28 24  1  0  0  0  0
 29 28  2  0  0  0  0
 30 29  1  0  0  0  0
 31 32  2  0  0  0  0
 31 29  1  0  0  0  0
 32 33  1  0  0  0  0
 33 36  1  0  0  0  0
 33 27  2  0  0  0  0
 34 35  1  0  0  0  0
 37 36  1  0  0  0  0
M  END
>  <minimizedAffinity>
-7.34472561

>  <minimizedRMSD>
1.26349139

$$$$
