
 OpenBabel03242521153D

 30 32  0  0  0  0  0  0  0  0999 V2000
   36.9720   31.6330   39.1940 C   0  0  0  0  0  0  0  0  0  0  0  0
   37.0270   30.3660   39.8350 C   0  0  0  0  0  0  0  0  0  0  0  0
   38.2850   29.9300   40.2680 C   0  0  0  0  0  0  0  0  0  0  0  0
   39.3450   30.7460   40.0440 N   0  0  0  0  0  0  0  0  0  0  0  0
   39.2630   31.9300   39.4400 C   0  0  0  0  0  0  0  0  0  0  0  0
   38.0660   32.3900   39.0050 N   0  0  0  0  0  0  0  0  0  0  0  0
   35.9680   31.8930   38.8920 H   0  0  0  0  0  0  0  0  0  0  0  0
   36.1470   29.7620   39.9840 H   0  0  0  0  0  0  0  0  0  0  0  0
   38.3670   28.6600   40.9140 N   0  0  0  0  0  0  0  0  0  0  0  0
   38.4960   27.5710   40.1460 C   0  0  0  0  0  0  0  0  0  0  0  0
   38.5770   26.3320   40.7820 C   0  0  0  0  0  0  0  0  0  0  0  0
   38.5200   26.2970   42.1460 C   0  0  0  0  0  0  0  0  0  0  0  0
   38.5940   25.1540   42.7240 O   0  0  0  0  0  0  0  0  0  0  0  0
   38.3890   27.3920   42.9390 N   0  0  0  0  0  0  0  0  0  0  0  0
   38.3160   28.5640   42.2540 C   0  0  0  0  0  0  0  0  0  0  0  0
   38.1950   29.6400   42.8860 O   0  0  0  0  0  0  0  0  0  0  0  0
   38.5400   27.6050   39.0740 H   0  0  0  0  0  0  0  0  0  0  0  0
   38.6800   25.4240   40.2410 H   0  0  0  0  0  0  0  0  0  0  0  0
   38.3450   27.3770   43.9640 H   0  0  0  0  0  0  0  0  0  0  0  0
   40.9410   33.0420   37.9840 C   0  0  0  0  0  0  0  0  0  0  0  0
   40.4850   32.7070   39.2640 C   0  0  0  0  0  0  0  0  0  0  0  0
   41.1690   33.0960   40.3940 C   0  0  0  0  0  0  0  0  0  0  0  0
   40.8660   32.8670   41.4060 H   0  0  0  0  0  0  0  0  0  0  0  0
   42.3270   33.8320   40.2320 C   0  0  0  0  0  3  0  0  0  0  0  0
   42.7740   34.1610   38.9680 C   0  0  0  0  0  3  0  0  0  0  0  0
   42.1100   33.7850   37.8150 C   0  0  0  0  0  0  0  0  0  0  0  0
   40.1700   32.5970   36.8990 O   0  0  0  0  0  0  0  0  0  0  0  0
   39.3720   33.1680   36.5980 H   0  0  0  0  0  0  0  0  0  0  0  0
   42.5340   34.1000   36.5330 O   0  0  0  0  0  0  0  0  0  0  0  0
   42.2570   35.0230   36.1790 H   0  0  0  0  0  0  0  0  0  0  0  0
  1  2  1  0  0  0  0
  2  8  1  0  0  0  0
  2  3  2  0  0  0  0
  3  9  1  0  0  0  0
  4  3  1  0  0  0  0
  5  4  2  0  0  0  0
  6  1  2  0  0  0  0
  6  5  1  0  0  0  0
  7  1  1  0  0  0  0
  9 15  1  0  0  0  0
 10 11  2  0  0  0  0
 10  9  1  0  0  0  0
 11 12  1  0  0  0  0
 12 13  2  0  0  0  0
 12 14  1  0  0  0  0
 14 19  1  0  0  0  0
 15 16  2  0  0  0  0
 15 14  1  0  0  0  0
 17 10  1  0  0  0  0
 18 11  1  0  0  0  0
 20 21  1  0  0  0  0
 21  5  1  0  0  0  0
 21 22  2  0  0  0  0
 22 23  1  0  0  0  0
 24 22  1  0  0  0  0
 25 24  2  0  0  0  0
 26 20  2  0  0  0  0
 26 25  1  0  0  0  0
 27 20  1  0  0  0  0
 28 27  1  0  0  0  0
 29 26  1  0  0  0  0
 30 29  1  0  0  0  0
M  END
>  <minimizedAffinity>
-6.19989204

$$$$

 OpenBabel03242521153D

 30 32  0  0  0  0  0  0  0  0999 V2000
   37.5010   27.6830   43.6790 C   0  0  0  0  0  0  0  0  0  0  0  0
   37.6850   29.0060   43.1960 C   0  0  0  0  0  0  0  0  0  0  0  0
   37.6530   29.1840   41.8080 C   0  0  0  0  0  0  0  0  0  0  0  0
   37.4490   28.0860   41.0380 N   0  0  0  0  0  0  0  0  0  0  0  0
   37.2790   26.8560   41.5200 C   0  0  0  0  0  0  0  0  0  0  0  0
   37.3040   26.6400   42.8560 N   0  0  0  0  0  0  0  0  0  0  0  0
   37.5410   27.6340   44.7570 H   0  0  0  0  0  0  0  0  0  0  0  0
   37.8430   29.8400   43.8590 H   0  0  0  0  0  0  0  0  0  0  0  0
   37.8350   30.5040   41.2970 N   0  0  0  0  0  0  0  0  0  0  0  0
   39.0820   30.9910   41.2420 C   0  0  0  0  0  0  0  0  0  0  0  0
   39.2560   32.2810   40.7420 C   0  0  0  0  0  0  0  0  0  0  0  0
   38.1510   32.9740   40.3370 C   0  0  0  0  0  0  0  0  0  0  0  0
   38.3190   34.1610   39.8780 O   0  0  0  0  0  0  0  0  0  0  0  0
   36.8810   32.4960   40.3850 N   0  0  0  0  0  0  0  0  0  0  0  0
   36.7850   31.2340   40.8830 C   0  0  0  0  0  0  0  0  0  0  0  0
   35.6590   30.6920   40.9730 O   0  0  0  0  0  0  0  0  0  0  0  0
   39.9460   30.4400   41.5620 H   0  0  0  0  0  0  0  0  0  0  0  0
   40.2130   32.7350   40.6680 H   0  0  0  0  0  0  0  0  0  0  0  0
   36.0450   33.0090   40.0840 H   0  0  0  0  0  0  0  0  0  0  0  0
   37.4680   24.4590   40.8930 C   0  0  0  0  0  0  0  0  0  0  0  0
   37.0680   25.7630   40.5770 C   0  0  0  0  0  0  0  0  0  0  0  0
   36.4680   26.0570   39.3730 C   0  0  0  0  0  0  0  0  0  0  0  0
   36.1390   27.0430   39.0750 H   0  0  0  0  0  0  0  0  0  0  0  0
   36.2660   25.0260   38.4770 C   0  0  0  0  0  3  0  0  0  0  0  0
   36.6610   23.7410   38.7920 C   0  0  0  0  0  3  0  0  0  0  0  0
   37.2660   23.4130   39.9910 C   0  0  0  0  0  0  0  0  0  0  0  0
   38.0700   24.2660   42.1450 O   0  0  0  0  0  0  0  0  0  0  0  0
   37.4670   24.1160   42.9620 H   0  0  0  0  0  0  0  0  0  0  0  0
   37.6730   22.1330   40.3350 O   0  0  0  0  0  0  0  0  0  0  0  0
   36.9530   21.5230   40.7370 H   0  0  0  0  0  0  0  0  0  0  0  0
  1  7  1  0  0  0  0
  2  1  1  0  0  0  0
  2  8  1  0  0  0  0
  3  2  2  0  0  0  0
  4  5  2  0  0  0  0
  4  3  1  0  0  0  0
  5  6  1  0  0  0  0
  6  1  2  0  0  0  0
  9  3  1  0  0  0  0
 10  9  1  0  0  0  0
 10 17  1  0  0  0  0
 11 10  2  0  0  0  0
 12 14  1  0  0  0  0
 12 11  1  0  0  0  0
 13 12  2  0  0  0  0
 14 15  1  0  0  0  0
 15 16  2  0  0  0  0
 15  9  1  0  0  0  0
 18 11  1  0  0  0  0
 19 14  1  0  0  0  0
 20 27  1  0  0  0  0
 21 20  1  0  0  0  0
 21  5  1  0  0  0  0
 22 21  2  0  0  0  0
 23 22  1  0  0  0  0
 24 25  2  0  0  0  0
 24 22  1  0  0  0  0
 25 26  1  0  0  0  0
 26 29  1  0  0  0  0
 26 20  2  0  0  0  0
 27 28  1  0  0  0  0
 29 30  1  0  0  0  0
M  END
>  <minimizedAffinity>
-6.17379475

$$$$

 OpenBabel03242521153D

 30 32  0  0  0  0  0  0  0  0999 V2000
   37.2840   32.7580   39.9480 C   0  0  0  0  0  0  0  0  0  0  0  0
   37.1710   31.4520   40.4950 C   0  0  0  0  0  0  0  0  0  0  0  0
   38.3620   30.7500   40.7120 C   0  0  0  0  0  0  0  0  0  0  0  0
   39.5240   31.3690   40.3850 N   0  0  0  0  0  0  0  0  0  0  0  0
   39.6000   32.5950   39.8720 C   0  0  0  0  0  0  0  0  0  0  0  0
   38.4720   33.3090   39.6470 N   0  0  0  0  0  0  0  0  0  0  0  0
   36.3210   33.2280   39.8130 H   0  0  0  0  0  0  0  0  0  0  0  0
   36.2160   31.0140   40.7360 H   0  0  0  0  0  0  0  0  0  0  0  0
   38.2750   29.4370   41.2620 N   0  0  0  0  0  0  0  0  0  0  0  0
   38.1380   29.3170   42.5890 C   0  0  0  0  0  0  0  0  0  0  0  0
   38.0520   28.0310   43.1220 C   0  0  0  0  0  0  0  0  0  0  0  0
   38.1120   26.9680   42.2650 C   0  0  0  0  0  0  0  0  0  0  0  0
   38.0330   25.7880   42.7630 O   0  0  0  0  0  0  0  0  0  0  0  0
   38.2500   27.0720   40.9180 N   0  0  0  0  0  0  0  0  0  0  0  0
   38.3280   28.3520   40.4680 C   0  0  0  0  0  0  0  0  0  0  0  0
   38.4570   28.5670   39.2400 O   0  0  0  0  0  0  0  0  0  0  0  0
   38.0910   30.1560   43.2560 H   0  0  0  0  0  0  0  0  0  0  0  0
   37.9420   27.8560   44.1630 H   0  0  0  0  0  0  0  0  0  0  0  0
   38.2960   26.2810   40.2670 H   0  0  0  0  0  0  0  0  0  0  0  0
   41.3000   33.3850   38.2420 C   0  0  0  0  0  0  0  0  0  0  0  0
   40.9180   33.1410   39.5660 C   0  0  0  0  0  0  0  0  0  0  0  0
   41.7670   33.4040   40.6180 C   0  0  0  0  0  0  0  0  0  0  0  0
   41.5260   33.2360   41.6590 H   0  0  0  0  0  0  0  0  0  0  0  0
   43.0150   33.9200   40.3330 C   0  0  0  0  0  3  0  0  0  0  0  0
   43.3900   34.1610   39.0260 C   0  0  0  0  0  3  0  0  0  0  0  0
   42.5610   33.9070   37.9490 C   0  0  0  0  0  0  0  0  0  0  0  0
   40.3620   33.0820   37.2440 O   0  0  0  0  0  0  0  0  0  0  0  0
   39.6530   33.7860   37.0080 H   0  0  0  0  0  0  0  0  0  0  0  0
   42.9090   34.1380   36.6260 O   0  0  0  0  0  0  0  0  0  0  0  0
   42.7670   35.0940   36.2820 H   0  0  0  0  0  0  0  0  0  0  0  0
  1  2  1  0  0  0  0
  2  3  2  0  0  0  0
  2  8  1  0  0  0  0
  3  9  1  0  0  0  0
  4  3  1  0  0  0  0
  5  4  2  0  0  0  0
  6  5  1  0  0  0  0
  6  1  2  0  0  0  0
  7  1  1  0  0  0  0
  9 10  1  0  0  0  0
 10 11  2  0  0  0  0
 10 17  1  0  0  0  0
 11 18  1  0  0  0  0
 12 13  2  0  0  0  0
 12 11  1  0  0  0  0
 14 12  1  0  0  0  0
 15 14  1  0  0  0  0
 15  9  1  0  0  0  0
 16 15  2  0  0  0  0
 19 14  1  0  0  0  0
 20 21  1  0  0  0  0
 21  5  1  0  0  0  0
 21 22  2  0  0  0  0
 22 23  1  0  0  0  0
 24 22  1  0  0  0  0
 25 24  2  0  0  0  0
 26 20  2  0  0  0  0
 26 25  1  0  0  0  0
 27 20  1  0  0  0  0
 28 27  1  0  0  0  0
 29 26  1  0  0  0  0
 30 29  1  0  0  0  0
M  END
>  <minimizedAffinity>
-6.12201262

$$$$

 OpenBabel03242521153D

 30 32  0  0  0  0  0  0  0  0999 V2000
   36.1980   30.8070   41.0540 C   0  0  0  0  0  0  0  0  0  0  0  0
   37.1620   31.5170   40.2900 C   0  0  0  0  0  0  0  0  0  0  0  0
   38.3210   30.8200   39.9260 C   0  0  0  0  0  0  0  0  0  0  0  0
   38.4310   29.5300   40.3300 N   0  0  0  0  0  0  0  0  0  0  0  0
   37.5100   28.8890   41.0470 C   0  0  0  0  0  0  0  0  0  0  0  0
   36.3750   29.5250   41.4200 N   0  0  0  0  0  0  0  0  0  0  0  0
   35.3380   31.4150   41.2920 H   0  0  0  0  0  0  0  0  0  0  0  0
   37.0170   32.5440   39.9990 H   0  0  0  0  0  0  0  0  0  0  0  0
   39.3050   31.5120   39.1590 N   0  0  0  0  0  0  0  0  0  0  0  0
   40.3570   32.0310   39.8050 C   0  0  0  0  0  0  0  0  0  0  0  0
   41.3170   32.7060   39.0510 C   0  0  0  0  0  0  0  0  0  0  0  0
   41.1320   32.8000   37.7000 C   0  0  0  0  0  0  0  0  0  0  0  0
   42.0190   33.4220   37.0130 O   0  0  0  0  0  0  0  0  0  0  0  0
   40.0720   32.2800   37.0300 N   0  0  0  0  0  0  0  0  0  0  0  0
   39.1770   31.6370   37.8260 C   0  0  0  0  0  0  0  0  0  0  0  0
   38.1590   31.1170   37.3130 O   0  0  0  0  0  0  0  0  0  0  0  0
   40.4960   31.9530   40.8660 H   0  0  0  0  0  0  0  0  0  0  0  0
   42.1780   33.1440   39.4910 H   0  0  0  0  0  0  0  0  0  0  0  0
   39.9240   32.3450   36.0170 H   0  0  0  0  0  0  0  0  0  0  0  0
   38.7210   27.1730   42.3730 C   0  0  0  0  0  0  0  0  0  0  0  0
   37.7570   27.4980   41.4130 C   0  0  0  0  0  0  0  0  0  0  0  0
   37.0130   26.5250   40.7840 C   0  0  0  0  0  0  0  0  0  0  0  0
   36.2560   26.7170   40.0360 H   0  0  0  0  0  0  0  0  0  0  0  0
   37.2430   25.2070   41.1270 C   0  0  0  0  0  3  0  0  0  0  0  0
   38.1940   24.8890   42.0750 C   0  0  0  0  0  3  0  0  0  0  0  0
   38.9570   25.8420   42.7240 C   0  0  0  0  0  0  0  0  0  0  0  0
   39.4240   28.2390   42.9540 O   0  0  0  0  0  0  0  0  0  0  0  0
   39.0060   28.7210   43.7590 H   0  0  0  0  0  0  0  0  0  0  0  0
   39.9190   25.5530   43.6800 O   0  0  0  0  0  0  0  0  0  0  0  0
   39.5800   25.4300   44.6400 H   0  0  0  0  0  0  0  0  0  0  0  0
  1  7  1  0  0  0  0
  1  6  1  0  0  0  0
  2  1  2  0  0  0  0
  3  2  1  0  0  0  0
  3  4  2  0  0  0  0
  4  5  1  0  0  0  0
  5 21  1  0  0  0  0
  5  6  2  0  0  0  0
  8  2  1  0  0  0  0
  9 10  1  0  0  0  0
  9  3  1  0  0  0  0
 10 17  1  0  0  0  0
 11 18  1  0  0  0  0
 11 10  2  0  0  0  0
 12 11  1  0  0  0  0
 13 12  2  0  0  0  0
 14 12  1  0  0  0  0
 14 15  1  0  0  0  0
 15  9  1  0  0  0  0
 16 15  2  0  0  0  0
 19 14  1  0  0  0  0
 20 26  1  0  0  0  0
 20 27  1  0  0  0  0
 21 20  2  0  0  0  0
 22 24  2  0  0  0  0
 22 21  1  0  0  0  0
 23 22  1  0  0  0  0
 24 25  1  0  0  0  0
 25 26  2  0  0  0  0
 26 29  1  0  0  0  0
 27 28  1  0  0  0  0
 29 30  1  0  0  0  0
M  END
>  <minimizedAffinity>
-6.11646748

$$$$

 OpenBabel03242521153D

 30 32  0  0  0  0  0  0  0  0999 V2000
   37.2930   28.1610   43.6660 C   0  0  0  0  0  0  0  0  0  0  0  0
   37.3340   26.8930   43.0270 C   0  0  0  0  0  0  0  0  0  0  0  0
   37.7090   26.8750   41.6780 C   0  0  0  0  0  0  0  0  0  0  0  0
   38.0000   28.0620   41.0910 N   0  0  0  0  0  0  0  0  0  0  0  0
   37.9530   29.2370   41.7150 C   0  0  0  0  0  0  0  0  0  0  0  0
   37.5950   29.3000   43.0190 N   0  0  0  0  0  0  0  0  0  0  0  0
   36.9950   28.0870   44.7010 H   0  0  0  0  0  0  0  0  0  0  0  0
   37.0900   25.9820   43.5480 H   0  0  0  0  0  0  0  0  0  0  0  0
   37.7580   25.6130   41.0140 N   0  0  0  0  0  0  0  0  0  0  0  0
   36.6380   25.1630   40.4340 C   0  0  0  0  0  0  0  0  0  0  0  0
   36.6900   23.9290   39.7850 C   0  0  0  0  0  0  0  0  0  0  0  0
   37.8760   23.2510   39.7770 C   0  0  0  0  0  0  0  0  0  0  0  0
   37.9160   22.1160   39.1780 O   0  0  0  0  0  0  0  0  0  0  0  0
   39.0200   23.6920   40.3600 N   0  0  0  0  0  0  0  0  0  0  0  0
   38.8970   24.8990   40.9730 C   0  0  0  0  0  0  0  0  0  0  0  0
   39.8910   25.4040   41.5450 O   0  0  0  0  0  0  0  0  0  0  0  0
   35.7100   25.7020   40.4440 H   0  0  0  0  0  0  0  0  0  0  0  0
   35.8440   23.5070   39.3020 H   0  0  0  0  0  0  0  0  0  0  0  0
   39.9150   23.1900   40.3600 H   0  0  0  0  0  0  0  0  0  0  0  0
   37.3340   31.4300   40.7250 C   0  0  0  0  0  0  0  0  0  0  0  0
   38.2930   30.4400   40.9620 C   0  0  0  0  0  0  0  0  0  0  0  0
   39.5830   30.5630   40.4950 C   0  0  0  0  0  0  0  0  0  0  0  0
   40.3650   29.8320   40.6470 H   0  0  0  0  0  0  0  0  0  0  0  0
   39.9100   31.6990   39.7810 C   0  0  0  0  0  3  0  0  0  0  0  0
   38.9620   32.6750   39.5500 C   0  0  0  0  0  3  0  0  0  0  0  0
   37.6600   32.5800   40.0050 C   0  0  0  0  0  0  0  0  0  0  0  0
   36.0500   31.2070   41.2440 O   0  0  0  0  0  0  0  0  0  0  0  0
   35.8610   31.4720   42.2180 H   0  0  0  0  0  0  0  0  0  0  0  0
   36.6850   33.5430   39.7880 O   0  0  0  0  0  0  0  0  0  0  0  0
   36.6700   34.3280   40.4490 H   0  0  0  0  0  0  0  0  0  0  0  0
  1  7  1  0  0  0  0
  2  8  1  0  0  0  0
  2  1  1  0  0  0  0
  3  2  2  0  0  0  0
  4  3  1  0  0  0  0
  4  5  2  0  0  0  0
  5  6  1  0  0  0  0
  6  1  2  0  0  0  0
  9  3  1  0  0  0  0
 10 17  1  0  0  0  0
 10  9  1  0  0  0  0
 11 10  2  0  0  0  0
 12 11  1  0  0  0  0
 12 14  1  0  0  0  0
 13 12  2  0  0  0  0
 14 15  1  0  0  0  0
 15  9  1  0  0  0  0
 15 16  2  0  0  0  0
 18 11  1  0  0  0  0
 19 14  1  0  0  0  0
 20 21  1  0  0  0  0
 20 27  1  0  0  0  0
 21  5  1  0  0  0  0
 22 23  1  0  0  0  0
 22 21  2  0  0  0  0
 24 22  1  0  0  0  0
 25 24  2  0  0  0  0
 25 26  1  0  0  0  0
 26 20  2  0  0  0  0
 27 28  1  0  0  0  0
 29 26  1  0  0  0  0
 29 30  1  0  0  0  0
M  END
>  <minimizedAffinity>
-5.9596777

$$$$

 OpenBabel03242521153D

 30 32  0  0  0  0  0  0  0  0999 V2000
   36.1150   30.8870   41.0360 C   0  0  0  0  0  0  0  0  0  0  0  0
   37.1620   31.5320   40.3260 C   0  0  0  0  0  0  0  0  0  0  0  0
   38.1000   30.7080   39.6930 C   0  0  0  0  0  0  0  0  0  0  0  0
   37.9360   29.3670   39.8060 N   0  0  0  0  0  0  0  0  0  0  0  0
   36.9430   28.7890   40.4800 C   0  0  0  0  0  0  0  0  0  0  0  0
   36.0140   29.5490   41.1070 N   0  0  0  0  0  0  0  0  0  0  0  0
   35.4380   31.5930   41.4940 H   0  0  0  0  0  0  0  0  0  0  0  0
   37.2400   32.6060   40.2720 H   0  0  0  0  0  0  0  0  0  0  0  0
   39.1620   31.3320   38.9730 N   0  0  0  0  0  0  0  0  0  0  0  0
   40.3080   31.5710   39.6230 C   0  0  0  0  0  0  0  0  0  0  0  0
   41.3440   32.1810   38.9160 C   0  0  0  0  0  0  0  0  0  0  0  0
   41.1340   32.5000   37.6040 C   0  0  0  0  0  0  0  0  0  0  0  0
   42.0920   33.0600   36.9600 O   0  0  0  0  0  0  0  0  0  0  0  0
   39.9800   32.2640   36.9300 N   0  0  0  0  0  0  0  0  0  0  0  0
   39.0140   31.6690   37.6800 C   0  0  0  0  0  0  0  0  0  0  0  0
   37.9050   31.4040   37.1590 O   0  0  0  0  0  0  0  0  0  0  0  0
   40.4660   31.3180   40.6540 H   0  0  0  0  0  0  0  0  0  0  0  0
   42.2820   32.4020   39.3630 H   0  0  0  0  0  0  0  0  0  0  0  0
   39.8120   32.5000   35.9450 H   0  0  0  0  0  0  0  0  0  0  0  0
   36.5490   26.5970   39.3780 C   0  0  0  0  0  0  0  0  0  0  0  0
   36.8850   27.3320   40.5210 C   0  0  0  0  0  0  0  0  0  0  0  0
   37.1700   26.7090   41.7160 C   0  0  0  0  0  0  0  0  0  0  0  0
   37.4350   27.2240   42.6290 H   0  0  0  0  0  0  0  0  0  0  0  0
   37.1160   25.3300   41.7600 C   0  0  0  0  0  3  0  0  0  0  0  0
   36.7850   24.6080   40.6310 C   0  0  0  0  0  3  0  0  0  0  0  0
   36.4940   25.2030   39.4180 C   0  0  0  0  0  0  0  0  0  0  0  0
   36.2770   27.3270   38.2120 O   0  0  0  0  0  0  0  0  0  0  0  0
   37.0630   27.6070   37.6140 H   0  0  0  0  0  0  0  0  0  0  0  0
   36.1580   24.5050   38.2680 O   0  0  0  0  0  0  0  0  0  0  0  0
   36.9420   24.1550   37.7060 H   0  0  0  0  0  0  0  0  0  0  0  0
  1  6  1  0  0  0  0
  1  7  1  0  0  0  0
  2  1  2  0  0  0  0
  3  4  2  0  0  0  0
  3  2  1  0  0  0  0
  4  5  1  0  0  0  0
  5 21  1  0  0  0  0
  5  6  2  0  0  0  0
  8  2  1  0  0  0  0
  9 10  1  0  0  0  0
  9  3  1  0  0  0  0
 10 17  1  0  0  0  0
 11 18  1  0  0  0  0
 11 10  2  0  0  0  0
 12 11  1  0  0  0  0
 13 12  2  0  0  0  0
 14 12  1  0  0  0  0
 14 15  1  0  0  0  0
 15  9  1  0  0  0  0
 16 15  2  0  0  0  0
 19 14  1  0  0  0  0
 20 26  2  0  0  0  0
 20 21  1  0  0  0  0
 21 22  2  0  0  0  0
 22 24  1  0  0  0  0
 22 23  1  0  0  0  0
 25 24  2  0  0  0  0
 26 25  1  0  0  0  0
 27 20  1  0  0  0  0
 28 27  1  0  0  0  0
 29 26  1  0  0  0  0
 30 29  1  0  0  0  0
M  END
>  <minimizedAffinity>
-5.93222713

$$$$

 OpenBabel03242521153D

 30 32  0  0  0  0  0  0  0  0999 V2000
   35.6750   24.6330   38.4700 C   0  0  0  0  0  0  0  0  0  0  0  0
   35.6710   25.5410   37.3770 C   0  0  0  0  0  0  0  0  0  0  0  0
   36.2280   26.8050   37.6010 C   0  0  0  0  0  0  0  0  0  0  0  0
   36.7250   27.0630   38.8370 N   0  0  0  0  0  0  0  0  0  0  0  0
   36.7160   26.1910   39.8430 C   0  0  0  0  0  0  0  0  0  0  0  0
   36.1860   24.9570   39.6700 N   0  0  0  0  0  0  0  0  0  0  0  0
   35.2280   23.6840   38.2130 H   0  0  0  0  0  0  0  0  0  0  0  0
   35.2600   25.2770   36.4170 H   0  0  0  0  0  0  0  0  0  0  0  0
   36.2350   27.7350   36.5190 N   0  0  0  0  0  0  0  0  0  0  0  0
   35.1090   28.4150   36.2660 C   0  0  0  0  0  0  0  0  0  0  0  0
   35.1200   29.3230   35.2080 C   0  0  0  0  0  0  0  0  0  0  0  0
   36.2740   29.4700   34.4910 C   0  0  0  0  0  0  0  0  0  0  0  0
   36.2770   30.3070   33.5180 O   0  0  0  0  0  0  0  0  0  0  0  0
   37.4240   28.7900   34.7340 N   0  0  0  0  0  0  0  0  0  0  0  0
   37.3410   27.9220   35.7780 C   0  0  0  0  0  0  0  0  0  0  0  0
   38.3450   27.2400   36.0930 O   0  0  0  0  0  0  0  0  0  0  0  0
   34.2060   28.2950   36.8340 H   0  0  0  0  0  0  0  0  0  0  0  0
   34.2670   29.8980   34.9460 H   0  0  0  0  0  0  0  0  0  0  0  0
   38.2950   28.8920   34.2020 H   0  0  0  0  0  0  0  0  0  0  0  0
   36.8230   27.7470   41.7780 C   0  0  0  0  0  0  0  0  0  0  0  0
   37.2860   26.6000   41.1230 C   0  0  0  0  0  0  0  0  0  0  0  0
   38.2890   25.8230   41.6580 C   0  0  0  0  0  0  0  0  0  0  0  0
   38.6860   24.9280   41.1980 H   0  0  0  0  0  0  0  0  0  0  0  0
   38.8320   26.2050   42.8690 C   0  0  0  0  0  3  0  0  0  0  0  0
   38.3730   27.3370   43.5140 C   0  0  0  0  0  3  0  0  0  0  0  0
   37.3680   28.1370   43.0020 C   0  0  0  0  0  0  0  0  0  0  0  0
   35.7980   28.4680   41.1480 O   0  0  0  0  0  0  0  0  0  0  0  0
   34.8260   28.1740   41.3010 H   0  0  0  0  0  0  0  0  0  0  0  0
   36.8870   29.2780   43.6260 O   0  0  0  0  0  0  0  0  0  0  0  0
   36.1630   29.1330   44.3390 H   0  0  0  0  0  0  0  0  0  0  0  0
  1  6  1  0  0  0  0
  2  3  1  0  0  0  0
  2  1  2  0  0  0  0
  3  4  2  0  0  0  0
  4  5  1  0  0  0  0
  5 21  1  0  0  0  0
  6  5  2  0  0  0  0
  7  1  1  0  0  0  0
  8  2  1  0  0  0  0
  9  3  1  0  0  0  0
 10  9  1  0  0  0  0
 10 17  1  0  0  0  0
 11 10  2  0  0  0  0
 12 14  1  0  0  0  0
 12 11  1  0  0  0  0
 13 12  2  0  0  0  0
 14 15  1  0  0  0  0
 15 16  2  0  0  0  0
 15  9  1  0  0  0  0
 18 11  1  0  0  0  0
 19 14  1  0  0  0  0
 20 26  1  0  0  0  0
 21 22  1  0  0  0  0
 21 20  2  0  0  0  0
 22 24  2  0  0  0  0
 23 22  1  0  0  0  0
 24 25  1  0  0  0  0
 26 25  2  0  0  0  0
 26 29  1  0  0  0  0
 27 28  1  0  0  0  0
 27 20  1  0  0  0  0
 29 30  1  0  0  0  0
M  END
>  <minimizedAffinity>
-5.79477549

$$$$

 OpenBabel03242521153D

 30 32  0  0  0  0  0  0  0  0999 V2000
   36.4020   30.4380   41.4240 C   0  0  0  0  0  0  0  0  0  0  0  0
   36.2470   30.3850   40.0130 C   0  0  0  0  0  0  0  0  0  0  0  0
   36.8070   29.2850   39.3540 C   0  0  0  0  0  0  0  0  0  0  0  0
   37.4510   28.3610   40.1100 N   0  0  0  0  0  0  0  0  0  0  0  0
   37.5810   28.4360   41.4330 C   0  0  0  0  0  0  0  0  0  0  0  0
   37.0540   29.4840   42.1100 N   0  0  0  0  0  0  0  0  0  0  0  0
   35.9420   31.3160   41.8520 H   0  0  0  0  0  0  0  0  0  0  0  0
   35.7230   31.1530   39.4670 H   0  0  0  0  0  0  0  0  0  0  0  0
   36.6650   29.2100   37.9370 N   0  0  0  0  0  0  0  0  0  0  0  0
   35.4720   28.8520   37.4420 C   0  0  0  0  0  0  0  0  0  0  0  0
   35.3360   28.7810   36.0560 C   0  0  0  0  0  0  0  0  0  0  0  0
   36.4220   29.0770   35.2820 C   0  0  0  0  0  0  0  0  0  0  0  0
   36.2900   29.0080   34.0070 O   0  0  0  0  0  0  0  0  0  0  0  0
   37.6370   29.4410   35.7660 N   0  0  0  0  0  0  0  0  0  0  0  0
   37.6980   29.4900   37.1240 C   0  0  0  0  0  0  0  0  0  0  0  0
   38.7730   29.8150   37.6810 O   0  0  0  0  0  0  0  0  0  0  0  0
   34.6230   28.6210   38.0570 H   0  0  0  0  0  0  0  0  0  0  0  0
   34.4230   28.5050   35.5900 H   0  0  0  0  0  0  0  0  0  0  0  0
   38.4590   29.6650   35.1940 H   0  0  0  0  0  0  0  0  0  0  0  0
   37.9790   26.0270   41.8940 C   0  0  0  0  0  0  0  0  0  0  0  0
   38.2990   27.3700   42.1230 C   0  0  0  0  0  0  0  0  0  0  0  0
   39.2950   27.7300   43.0040 C   0  0  0  0  0  0  0  0  0  0  0  0
   39.5850   28.7490   43.2210 H   0  0  0  0  0  0  0  0  0  0  0  0
   39.9780   26.7250   43.6600 C   0  0  0  0  0  3  0  0  0  0  0  0
   39.6600   25.4010   43.4310 C   0  0  0  0  0  3  0  0  0  0  0  0
   38.6660   25.0070   42.5540 C   0  0  0  0  0  0  0  0  0  0  0  0
   36.9490   25.7680   40.9780 O   0  0  0  0  0  0  0  0  0  0  0  0
   37.1800   25.7250   39.9790 H   0  0  0  0  0  0  0  0  0  0  0  0
   38.3250   23.6870   42.3040 O   0  0  0  0  0  0  0  0  0  0  0  0
   38.8910   23.1990   41.6000 H   0  0  0  0  0  0  0  0  0  0  0  0
  1  7  1  0  0  0  0
  1  6  1  0  0  0  0
  2  1  2  0  0  0  0
  3  2  1  0  0  0  0
  3  4  2  0  0  0  0
  4  5  1  0  0  0  0
  5  6  2  0  0  0  0
  5 21  1  0  0  0  0
  8  2  1  0  0  0  0
  9  3  1  0  0  0  0
 10  9  1  0  0  0  0
 10 17  1  0  0  0  0
 11 10  2  0  0  0  0
 12 14  1  0  0  0  0
 12 11  1  0  0  0  0
 13 12  2  0  0  0  0
 14 15  1  0  0  0  0
 15 16  2  0  0  0  0
 15  9  1  0  0  0  0
 18 11  1  0  0  0  0
 19 14  1  0  0  0  0
 20 21  2  0  0  0  0
 20 26  1  0  0  0  0
 21 22  1  0  0  0  0
 22 23  1  0  0  0  0
 22 24  2  0  0  0  0
 25 24  1  0  0  0  0
 26 25  2  0  0  0  0
 27 20  1  0  0  0  0
 28 27  1  0  0  0  0
 29 26  1  0  0  0  0
 30 29  1  0  0  0  0
M  END
>  <minimizedAffinity>
-5.70510292

$$$$

 OpenBabel03242521153D

 30 32  0  0  0  0  0  0  0  0999 V2000
   37.4780   31.8340   37.6400 C   0  0  0  0  0  0  0  0  0  0  0  0
   37.0440   31.0650   38.7520 C   0  0  0  0  0  0  0  0  0  0  0  0
   38.0210   30.3350   39.4380 C   0  0  0  0  0  0  0  0  0  0  0  0
   39.2980   30.4170   38.9890 N   0  0  0  0  0  0  0  0  0  0  0  0
   39.6770   31.1470   37.9420 C   0  0  0  0  0  0  0  0  0  0  0  0
   38.7640   31.8690   37.2500 N   0  0  0  0  0  0  0  0  0  0  0  0
   36.6650   32.3650   37.1690 H   0  0  0  0  0  0  0  0  0  0  0  0
   36.0120   31.0400   39.0610 H   0  0  0  0  0  0  0  0  0  0  0  0
   37.6100   29.5540   40.5590 N   0  0  0  0  0  0  0  0  0  0  0  0
   37.0090   28.3800   40.3230 C   0  0  0  0  0  0  0  0  0  0  0  0
   36.6090   27.6200   41.4220 C   0  0  0  0  0  0  0  0  0  0  0  0
   36.8500   28.1120   42.6730 C   0  0  0  0  0  0  0  0  0  0  0  0
   36.4790   27.4070   43.6800 O   0  0  0  0  0  0  0  0  0  0  0  0
   37.4580   29.2990   42.9310 N   0  0  0  0  0  0  0  0  0  0  0  0
   37.8200   29.9870   41.8150 C   0  0  0  0  0  0  0  0  0  0  0  0
   38.3900   31.0970   41.9340 O   0  0  0  0  0  0  0  0  0  0  0  0
   36.8230   28.0000   39.3370 H   0  0  0  0  0  0  0  0  0  0  0  0
   36.1270   26.6800   41.3150 H   0  0  0  0  0  0  0  0  0  0  0  0
   37.6430   29.6770   43.8660 H   0  0  0  0  0  0  0  0  0  0  0  0
   41.7890   32.3480   37.4220 C   0  0  0  0  0  0  0  0  0  0  0  0
   41.0870   31.1460   37.5660 C   0  0  0  0  0  0  0  0  0  0  0  0
   41.6970   29.9290   37.3580 C   0  0  0  0  0  0  0  0  0  0  0  0
   41.2060   28.9700   37.4540 H   0  0  0  0  0  0  0  0  0  0  0  0
   43.0310   29.9220   37.0020 C   0  0  0  0  0  3  0  0  0  0  0  0
   43.7220   31.1100   36.8620 C   0  0  0  0  0  3  0  0  0  0  0  0
   43.1380   32.3460   37.0630 C   0  0  0  0  0  0  0  0  0  0  0  0
   41.0750   33.5320   37.6570 O   0  0  0  0  0  0  0  0  0  0  0  0
   40.9930   33.8720   38.6220 H   0  0  0  0  0  0  0  0  0  0  0  0
   43.8050   33.5550   36.9300 O   0  0  0  0  0  0  0  0  0  0  0  0
   44.3360   33.8710   37.7490 H   0  0  0  0  0  0  0  0  0  0  0  0
  1  2  1  0  0  0  0
  2  8  1  0  0  0  0
  2  3  2  0  0  0  0
  3  9  1  0  0  0  0
  4  3  1  0  0  0  0
  5  4  2  0  0  0  0
  6  1  2  0  0  0  0
  6  5  1  0  0  0  0
  7  1  1  0  0  0  0
  9 15  1  0  0  0  0
 10  9  1  0  0  0  0
 10 11  2  0  0  0  0
 11 12  1  0  0  0  0
 12 14  1  0  0  0  0
 12 13  2  0  0  0  0
 14 19  1  0  0  0  0
 15 16  2  0  0  0  0
 15 14  1  0  0  0  0
 17 10  1  0  0  0  0
 18 11  1  0  0  0  0
 20 21  1  0  0  0  0
 20 27  1  0  0  0  0
 21  5  1  0  0  0  0
 22 23  1  0  0  0  0
 22 21  2  0  0  0  0
 24 22  1  0  0  0  0
 25 24  2  0  0  0  0
 25 26  1  0  0  0  0
 26 20  2  0  0  0  0
 27 28  1  0  0  0  0
 29 26  1  0  0  0  0
 29 30  1  0  0  0  0
M  END
>  <minimizedAffinity>
-5.53494453

$$$$
