REMARK  Name = 
REMARK  14 active torsions:
REMARK  status: ('A' for Active; 'I' for Inactive)
REMARK    1  A    between atoms: C_1  and  C_2
REMARK    2  A    between atoms: C_1  and  C_12
REMARK    3  A    between atoms: C_3  and  S_8
REMARK    4  A    between atoms: S_8  and  C_9
REMARK    5  A    between atoms: C_9  and  C_10
REMARK    6  A    between atoms: C_10  and  N_11
REMARK    7  A    between atoms: C_12  and  C_13
REMARK    8  A    between atoms: C_16  and  O_18
REMARK    9  A    between atoms: O_18  and  P_20
REMARK   10  A    between atoms: P_20  and  O_21
REMARK   11  A    between atoms: P_20  and  O_22
REMARK   12  A    between atoms: O_22  and  C_39
REMARK   13  A    between atoms: O_37  and  C_38
REMARK   14  A    between atoms: C_44  and  O_45
REMARK                            x       y       z     vdW  Elec       q    Type
REMARK                         _______ _______ _______ _____ _____    ______ ____
ROOT
ATOM      1  C   UNL     1      46.753  34.952  41.951  0.00  0.00    +0.000 C 
ATOM      2  H   UNL     1      46.952  34.244  42.788  0.00  0.00    +0.000 HD
ATOM      3  H   UNL     1      47.072  35.952  42.279  0.00  0.00    +0.000 HD
ENDROOT
BRANCH   1   4
ATOM      4  C   UNL     1      45.278  34.934  41.745  0.00  0.00    +0.000 A 
ATOM      5  C   UNL     1      44.441  35.598  42.686  0.00  0.00    +0.000 A 
ATOM      6  S   UNL     1      42.762  35.306  42.025  0.00  0.00    +0.000 S 
ATOM      7  C   UNL     1      43.489  34.314  40.559  0.00  0.00    +0.000 A 
ATOM      8  N   UNL     1      44.605  34.373  40.785  0.00  0.00    +0.000 NA
ATOM      9  H   UNL     1      44.723  36.144  43.574  0.00  0.00    +0.000 HD
BRANCH   7  10
ATOM     10  O   UNL     1      42.697  33.745  39.571  0.00  0.00    +0.000 OA
BRANCH  10  12
ATOM     11  O   UNL     1      40.745  33.989  37.806  0.00  0.00    +0.000 OA
ATOM     12  P   UNL     1      41.778  34.779  38.599  0.00  0.00    +0.000 P 
BRANCH  12  13
ATOM     13  O   UNL     1      40.936  35.842  39.638  0.00  0.00    +0.000 OA
ATOM     14  H   UNL     1      41.313  36.743  39.611  0.00  0.00    +0.000 HD
ENDBRANCH  12  13
BRANCH  12  15
ATOM     15  O   UNL     1      42.778  35.701  37.608  0.00  0.00    +0.000 OA
BRANCH  15  17
ATOM     16  C   UNL     1      43.487  33.699  36.502  0.00  0.00    +0.000 A 
ATOM     17  C   UNL     1      43.426  35.096  36.539  0.00  0.00    +0.000 A 
ATOM     18  C   UNL     1      44.023  35.775  35.498  0.00  0.00    +0.000 A 
ATOM     19  H   UNL     1      43.988  36.855  35.505  0.00  0.00    +0.000 HD
ATOM     20  C   UNL     1      44.648  35.092  34.471  0.00  0.00    +0.000 A 
ATOM     21  C   UNL     1      44.705  33.714  34.440  0.00  0.00    +0.000 A 
ATOM     22  C   UNL     1      44.117  33.000  35.469  0.00  0.00    +0.000 A 
BRANCH  16  23
ATOM     23  O   UNL     1      42.881  32.996  37.561  0.00  0.00    +0.000 OA
ATOM     24  H   UNL     1      42.538  32.071  37.320  0.00  0.00    +0.000 HD
ENDBRANCH  16  23
BRANCH  22  25
ATOM     25  O   UNL     1      44.100  31.616  35.563  0.00  0.00    +0.000 OA
ATOM     26  H   UNL     1      44.843  31.078  35.975  0.00  0.00    +0.000 HD
ENDBRANCH  22  25
ENDBRANCH  15  17
ENDBRANCH  12  15
ENDBRANCH  10  12
ENDBRANCH   7  10
ENDBRANCH   1   4
BRANCH   1  27
ATOM     27  C   UNL     1      47.525  34.439  40.771  0.00  0.00    +0.000 C 
ATOM     28  H   UNL     1      46.863  33.810  40.164  0.00  0.00    +0.000 HD
ATOM     29  H   UNL     1      47.801  35.333  40.147  0.00  0.00    +0.000 HD
BRANCH  27  30
ATOM     30  C   UNL     1      48.782  33.768  41.132  0.00  0.00    +0.000 A 
ATOM     31  C   UNL     1      49.108  32.626  40.415  0.00  0.00    +0.000 A 
ATOM     32  C   UNL     1      50.265  31.929  40.682  0.00  0.00    +0.000 A 
ATOM     33  N   UNL     1      51.069  32.432  41.695  0.00  0.00    +0.000 NA
ATOM     34  C   UNL     1      50.712  33.546  42.366  0.00  0.00    +0.000 A 
ATOM     35  N   UNL     1      49.591  34.194  42.084  0.00  0.00    +0.000 NA
ATOM     36  H   UNL     1      50.557  31.026  40.141  0.00  0.00    +0.000 HD
ATOM     37  H   UNL     1      51.407  33.857  43.137  0.00  0.00    +0.000 HD
BRANCH  31  38
ATOM     38  S   UNL     1      48.012  32.040  39.119  0.00  0.00    +0.000 S 
BRANCH  38  39
ATOM     39  C   UNL     1      48.823  32.155  37.506  0.00  0.00    +0.000 C 
ATOM     40  H   UNL     1      48.491  31.306  36.879  0.00  0.00    +0.000 HD
ATOM     41  H   UNL     1      49.915  32.023  37.685  0.00  0.00    +0.000 HD
BRANCH  39  42
ATOM     42  C   UNL     1      48.491  33.489  36.900  0.00  0.00    +0.000 C 
ATOM     43  H   UNL     1      47.596  33.928  37.392  0.00  0.00    +0.000 HD
ATOM     44  H   UNL     1      49.324  34.192  37.099  0.00  0.00    +0.000 HD
BRANCH  42  45
ATOM     45  N   UNL     1      48.192  33.299  35.508  0.00  0.00    +0.000 NA
ATOM     46  H   UNL     1      49.066  33.277  34.918  0.00  0.00    +0.000 HD
ATOM     47  H   UNL     1      47.585  34.107  35.178  0.00  0.00    +0.000 HD
ENDBRANCH  42  45
ENDBRANCH  39  42
ENDBRANCH  38  39
ENDBRANCH  31  38
ENDBRANCH  27  30
ENDBRANCH   1  27
TORSDOF 14
