
 OpenBabel03252502533D

 33 35  0  0  0  0  0  0  0  0999 V2000
   45.8440   28.9240   44.2540 Br  0  0  0  0  0  0  0  0  0  0  0  0
   45.7050   29.9940   45.8590 C   0  0  0  0  0  0  0  0  0  0  0  0
   46.4260   31.1560   45.8770 C   0  0  0  0  0  0  0  0  0  0  0  0
   46.2900   31.8860   47.0530 C   0  0  0  0  0  0  0  0  0  0  0  0
   45.5130   31.5010   48.1160 C   0  0  0  0  0  0  0  0  0  0  0  0
   44.8240   30.3270   48.0200 C   0  0  0  0  0  0  0  0  0  0  0  0
   44.9010   29.5410   46.8900 C   0  0  0  0  0  0  0  0  0  0  0  0
   46.8240   32.8340   47.1730 H   0  0  0  0  0  0  0  0  0  0  0  0
   45.4340   32.0990   49.0160 H   0  0  0  0  0  0  0  0  0  0  0  0
   44.1960   29.9580   48.8060 H   0  0  0  0  0  0  0  0  0  0  0  0
   44.7020   27.2760   47.5560 C   0  0  0  0  0  0  0  0  0  0  0  0
   44.1700   28.2660   46.7550 C   0  0  0  0  0  0  0  0  0  0  0  0
   43.0790   27.9930   45.9550 C   0  0  0  0  0  0  0  0  0  0  0  0
   42.7460   28.8350   45.3730 H   0  0  0  0  0  0  0  0  0  0  0  0
   42.5490   26.7200   45.9850 C   0  0  0  0  0  3  0  0  0  0  0  0
   43.0780   25.7280   46.7850 C   0  0  0  0  0  3  0  0  0  0  0  0
   44.1830   26.0160   47.5900 C   0  0  0  0  0  0  0  0  0  0  0  0
   45.8080   27.4410   48.4070 O   0  0  0  0  0  0  0  0  0  0  0  0
   46.4370   28.2340   48.2950 H   0  0  0  0  0  0  0  0  0  0  0  0
   44.6280   24.9420   48.3500 O   0  0  0  0  0  0  0  0  0  0  0  0
   45.4100   24.4070   47.9440 H   0  0  0  0  0  0  0  0  0  0  0  0
   47.2890   31.6760   44.8120 C   0  0  0  0  0  0  0  0  0  0  0  0
   48.2360   32.0400   45.2610 H   0  0  0  0  0  0  0  0  0  0  0  0
   47.5650   30.8280   44.1390 H   0  0  0  0  0  0  0  0  0  0  0  0
   44.8510   33.8890   43.0700 C   0  0  0  0  0  0  0  0  0  0  0  0
   45.6920   34.8860   42.5560 C   0  0  0  0  0  0  0  0  0  0  0  0
   47.0550   34.7820   42.8120 C   0  0  0  0  0  0  0  0  0  0  0  0
   47.5230   33.7330   43.5410 N   0  0  0  0  0  0  0  0  0  0  0  0
   46.6730   32.7760   44.0300 C   0  0  0  0  0  0  0  0  0  0  0  0
   45.3540   32.8790   43.7800 N   0  0  0  0  0  0  0  0  0  0  0  0
   43.7990   34.0120   42.8460 H   0  0  0  0  0  0  0  0  0  0  0  0
   45.3270   35.7260   41.9730 H   0  0  0  0  0  0  0  0  0  0  0  0
   47.7850   35.4990   42.4600 H   0  0  0  0  0  0  0  0  0  0  0  0
  1  2  1  0  0  0  0
  2  3  2  0  0  0  0
  2  7  1  0  0  0  0
  3  4  1  0  0  0  0
  4  8  1  0  0  0  0
  4  5  2  0  0  0  0
  5  9  1  0  0  0  0
  6  5  1  0  0  0  0
  6 10  1  0  0  0  0
  7  6  2  0  0  0  0
 11 17  1  0  0  0  0
 11 18  1  0  0  0  0
 12  7  1  0  0  0  0
 12 11  2  0  0  0  0
 13 15  2  0  0  0  0
 13 12  1  0  0  0  0
 14 13  1  0  0  0  0
 15 16  1  0  0  0  0
 16 17  2  0  0  0  0
 17 20  1  0  0  0  0
 19 18  1  0  0  0  0
 21 20  1  0  0  0  0
 22 23  1  0  0  0  0
 22  3  1  0  0  0  0
 24 22  1  0  0  0  0
 25 30  1  0  0  0  0
 26 27  1  0  0  0  0
 26 25  2  0  0  0  0
 27 28  2  0  0  0  0
 28 29  1  0  0  0  0
 29 22  1  0  0  0  0
 30 29  2  0  0  0  0
 31 25  1  0  0  0  0
 32 26  1  0  0  0  0
 33 27  1  0  0  0  0
M  END
>  <minimizedAffinity>
-5.05031204

>  <minimizedRMSD>
1.58623087

$$$$
