
 OpenBabel03242522593D

 33 35  0  0  0  0  0  0  0  0999 V2000
   45.1600   33.6400   46.9800 C   0  0  0  0  0  0  0  0  0  0  0  0
   45.4520   34.0800   45.6900 C   0  0  0  0  0  0  0  0  0  0  0  0
   46.0930   33.2940   44.7580 C   0  0  0  0  0  0  0  0  0  0  0  0
   46.4220   32.0550   45.1870 N   0  0  0  0  0  0  0  0  0  0  0  0
   46.1520   31.6070   46.4270 C   0  0  0  0  0  0  0  0  0  0  0  0
   45.5240   32.3970   47.3190 N   0  0  0  0  0  0  0  0  0  0  0  0
   44.6540   34.3200   47.6540 H   0  0  0  0  0  0  0  0  0  0  0  0
   45.1650   35.0880   45.3940 H   0  0  0  0  0  0  0  0  0  0  0  0
   44.1100   32.5000   42.6890 Cl  0  0  0  0  0  0  0  0  0  0  0  0
   45.5640   33.4200   42.3990 C   0  0  0  0  0  0  0  0  0  0  0  0
   46.4070   33.7340   43.4020 C   0  0  0  0  0  0  0  0  0  0  0  0
   47.5350   34.4670   43.0710 C   0  0  0  0  0  0  0  0  0  0  0  0
   47.7950   34.8600   41.7990 C   0  0  0  0  0  0  0  0  0  0  0  0
   46.9320   34.5350   40.7850 C   0  0  0  0  0  0  0  0  0  0  0  0
   45.8120   33.8090   41.1010 C   0  0  0  0  0  0  0  0  0  0  0  0
   48.2290   34.7340   43.8580 H   0  0  0  0  0  0  0  0  0  0  0  0
   47.1020   34.8310   39.7430 H   0  0  0  0  0  0  0  0  0  0  0  0
   45.1260   33.5500   40.3030 H   0  0  0  0  0  0  0  0  0  0  0  0
   49.0050   35.6460   41.4380 C   0  0  0  0  0  0  0  0  0  0  0  0
   50.1110   34.9220   41.7990 F   0  0  0  0  0  0  0  0  0  0  0  0
   48.9880   36.8970   42.0380 F   0  0  0  0  0  0  0  0  0  0  0  0
   48.9970   35.8430   40.0650 F   0  0  0  0  0  0  0  0  0  0  0  0
   45.5490   29.2880   46.9780 C   0  0  0  0  0  0  0  0  0  0  0  0
   46.5370   30.2520   46.8260 C   0  0  0  0  0  0  0  0  0  0  0  0
   47.8610   29.9330   47.0480 C   0  0  0  0  0  0  0  0  0  0  0  0
   48.6460   30.6790   46.9330 H   0  0  0  0  0  0  0  0  0  0  0  0
   48.2700   28.6510   47.4310 C   0  0  0  0  0  3  0  0  0  0  0  0
   47.2330   27.7500   47.5610 C   0  0  0  0  0  3  0  0  0  0  0  0
   45.8940   27.9950   47.3560 C   0  0  0  0  0  0  0  0  0  0  0  0
   44.2220   29.6170   46.7520 O   0  0  0  0  0  0  0  0  0  0  0  0
   43.5830   29.8890   47.4940 H   0  0  0  0  0  0  0  0  0  0  0  0
   44.9430   26.9940   47.5230 O   0  0  0  0  0  0  0  0  0  0  0  0
   44.0620   27.0270   46.9930 H   0  0  0  0  0  0  0  0  0  0  0  0
  1  6  1  0  0  0  0
  1  7  1  0  0  0  0
  2  1  2  0  0  0  0
  3  4  2  0  0  0  0
  3  2  1  0  0  0  0
  4  5  1  0  0  0  0
  5 24  1  0  0  0  0
  5  6  2  0  0  0  0
  8  2  1  0  0  0  0
 10  9  1  0  0  0  0
 10 11  1  0  0  0  0
 11  3  1  0  0  0  0
 12 11  2  0  0  0  0
 12 16  1  0  0  0  0
 13 12  1  0  0  0  0
 14 15  1  0  0  0  0
 14 13  2  0  0  0  0
 15 10  2  0  0  0  0
 17 14  1  0  0  0  0
 18 15  1  0  0  0  0
 19 20  1  0  0  0  0
 19 13  1  0  0  0  0
 19 21  1  0  0  0  0
 22 19  1  0  0  0  0
 23 29  1  0  0  0  0
 24 23  2  0  0  0  0
 24 25  1  0  0  0  0
 25 27  2  0  0  0  0
 26 25  1  0  0  0  0
 27 28  1  0  0  0  0
 29 32  1  0  0  0  0
 29 28  2  0  0  0  0
 30 23  1  0  0  0  0
 30 31  1  0  0  0  0
 33 32  1  0  0  0  0
M  END
>  <minimizedAffinity>
-6.37856674

>  <minimizedRMSD>
1.1369127

$$$$
