
     RDKit          3D

 42 44  0  0  0  0  0  0  0  0999 V2000
   46.5128   34.3712   43.0021 C   0  0  0  0  0  0  0  0  0  0  0  0
   45.2784   34.7442   43.4646 C   0  0  0  0  0  0  0  0  0  0  0  0
   44.9523   34.4091   44.7976 C   0  0  0  0  0  0  0  0  0  0  0  0
   45.8758   33.7483   45.5172 N   0  0  0  0  0  0  0  0  0  0  0  0
   47.0752   33.3959   45.0398 C   0  0  0  0  0  0  0  0  0  0  0  0
   47.3888   33.7106   43.7790 N   0  0  0  0  0  0  0  0  0  0  0  0
   46.9283   34.6792   41.6357 C   0  0  0  0  0  0  0  0  0  0  0  0
   48.2809   35.3415   41.6647 C   0  0  0  0  0  0  0  0  0  0  0  0
   44.4533   35.4179   42.5891 O   0  0  0  0  0  0  0  0  0  0  0  0
   43.6905   34.8613   40.1255 O   0  0  0  0  0  0  0  0  0  0  0  0
   43.2713   34.7366   41.5809 P   0  0  1  0  0  0  0  0  0  0  0  0
   43.1558   33.0901   41.9814 O   0  0  0  0  0  0  0  0  0  0  0  0
   41.7422   35.4238   41.8013 O   0  0  0  0  0  0  0  0  0  0  0  0
   40.6311   34.7432   41.3030 C   0  0  0  0  0  0  0  0  0  0  0  0
   39.9941   35.3362   40.2103 C   0  0  0  0  0  0  0  0  0  0  0  0
   38.8784   34.7532   39.6275 C   0  0  0  0  0  0  0  0  0  0  0  0
   38.4243   33.5898   40.1504 N   0  0  0  0  0  0  0  0  0  0  0  0
   39.0358   33.0306   41.1910 C   0  0  0  0  0  0  0  0  0  0  0  0
   40.1115   33.5902   41.7549 N   0  0  0  0  0  0  0  0  0  0  0  0
   43.9746   34.7143   45.1370 H   0  0  0  0  0  0  0  0  0  0  0  0
   47.7192   32.8682   45.7283 H   0  0  0  0  0  0  0  0  0  0  0  0
   47.0457   33.7701   40.9768 H   0  0  0  0  0  0  0  0  0  0  0  0
   46.2116   35.3470   41.1108 H   0  0  0  0  0  0  0  0  0  0  0  0
   48.7023   35.3219   42.6939 H   0  0  0  0  0  0  0  0  0  0  0  0
   48.1649   36.4318   41.4121 H   0  0  0  0  0  0  0  0  0  0  0  0
   49.0204   34.9237   40.9822 H   0  0  0  0  0  0  0  0  0  0  0  0
   44.0626   32.6998   42.1469 H   0  0  0  0  0  0  0  0  0  0  0  0
   40.2829   36.2618   39.7254 H   0  0  0  0  0  0  0  0  0  0  0  0
   38.3574   35.1882   38.7749 H   0  0  0  0  0  0  0  0  0  0  0  0
   39.4402   30.5815   39.8703 O   0  0  0  0  0  0  0  0  0  0  0  0
   38.7294   30.5772   41.0736 C   0  0  0  0  0  0  0  0  0  0  0  0
   38.5240   31.7771   41.7330 C   0  0  0  0  0  0  0  0  0  0  0  0
   37.8140   31.6877   42.9129 C   0  0  0  0  0  0  0  0  0  0  0  0
   37.6181   32.6054   43.4830 H   0  0  0  0  0  0  0  0  0  0  0  0
   37.3334   30.4972   43.4183 C   0  0  0  0  0  0  0  0  0  0  0  0
   37.5628   29.3081   42.7212 C   0  0  0  0  0  0  0  0  0  0  0  0
   38.2717   29.3592   41.5332 C   0  0  0  0  0  0  0  0  0  0  0  0
   38.5366   28.1972   40.7828 O   0  0  0  0  0  0  0  0  0  0  0  0
   38.9905   30.6232   38.9655 H   0  0  0  0  0  0  0  0  0  0  0  0
   36.7715   30.4493   44.3582 H   0  0  0  0  0  0  0  0  0  0  0  0
   37.2171   28.3389   43.0555 H   0  0  0  0  0  0  0  0  0  0  0  0
   38.4661   28.1720   39.7690 H   0  0  0  0  0  0  0  0  0  0  0  0
  1  2  2  0
  1  6  1  0
  2  3  1  0
  3  4  2  0
  5  4  1  0
  6  5  2  0
  7  8  1  0
  7  1  1  0
  9  2  1  0
 11 10  2  0
 11 13  1  6
 11 12  1  0
 11  9  1  0
 14 19  1  0
 14 13  1  0
 15 14  2  0
 16 17  2  0
 16 15  1  0
 17 18  1  0
 18 19  2  0
  3 20  1  0
  5 21  1  0
  7 22  1  0
  7 23  1  0
  8 24  1  0
  8 25  1  0
  8 26  1  0
 12 27  1  0
 15 28  1  0
 16 29  1  0
 30 31  1  0
 31 32  2  0
 32 33  1  0
 33 34  1  0
 33 35  2  0
 35 36  1  0
 36 37  2  0
 37 38  1  0
 37 31  1  0
 30 39  1  0
 35 40  1  0
 36 41  1  0
 38 42  1  0
 18 32  1  0
M  ISO  8  20  14  21  14  22   8  23   8  24   8  25   8  26   8  27   3
M  ISO  3  28  14  29  14  34  16
M  END
>  <DihAtoms>  (1) 
16,17,31,30

>  <DihDeg>  (1) 
-0.0004003199155941593

$$$$
