REMARK  Name = 
REMARK  5 active torsions:
REMARK  status: ('A' for Active; 'I' for Inactive)
REMARK    1  A    between atoms: C_3  and  C_10
REMARK    2  A    between atoms: C_5  and  C_14
REMARK    3  A    between atoms: C_12  and  C_25
REMARK    4  A    between atoms: O_23  and  C_24
REMARK    5  A    between atoms: C_30  and  O_31
REMARK                            x       y       z     vdW  Elec       q    Type
REMARK                         _______ _______ _______ _____ _____    ______ ____
ROOT
ATOM      1  C   UNL     1      44.777  34.152  46.857  0.00  0.00    +0.000 A 
ATOM      2  C   UNL     1      45.141  34.452  45.545  0.00  0.00    +0.000 A 
ATOM      3  C   UNL     1      45.936  33.627  44.781  0.00  0.00    +0.000 A 
ATOM      4  N   UNL     1      46.341  32.495  45.398  0.00  0.00    +0.000 NA
ATOM      5  C   UNL     1      46.004  32.182  46.663  0.00  0.00    +0.000 A 
ATOM      6  N   UNL     1      45.225  33.008  47.388  0.00  0.00    +0.000 NA
ATOM      7  H   UNL     1      44.149  34.854  47.391  0.00  0.00    +0.000 HD
ATOM      8  H   UNL     1      44.787  35.378  45.094  0.00  0.00    +0.000 HD
ENDROOT
BRANCH   3  11
ATOM      9 CL   UNL     1      44.104  32.559  42.696  0.00  0.00    +0.000 Cl
ATOM     10  C   UNL     1      45.557  33.477  42.395  0.00  0.00    +0.000 A 
ATOM     11  C   UNL     1      46.328  33.922  43.406  0.00  0.00    +0.000 A 
ATOM     12  C   UNL     1      47.461  34.641  43.065  0.00  0.00    +0.000 A 
ATOM     13  C   UNL     1      47.795  34.897  41.775  0.00  0.00    +0.000 A 
ATOM     14  C   UNL     1      47.005  34.440  40.753  0.00  0.00    +0.000 A 
ATOM     15  C   UNL     1      45.880  33.726  41.079  0.00  0.00    +0.000 A 
ATOM     16  H   UNL     1      48.099  35.011  43.858  0.00  0.00    +0.000 HD
ATOM     17  H   UNL     1      47.236  34.623  39.697  0.00  0.00    +0.000 HD
ATOM     18  H   UNL     1      45.251  33.363  40.274  0.00  0.00    +0.000 HD
BRANCH  13  19
ATOM     19  C   UNL     1      49.011  35.669  41.404  0.00  0.00    +0.000 C 
ATOM     20  F   UNL     1      50.111  34.937  41.767  0.00  0.00    +0.000 F 
ATOM     21  F   UNL     1      49.008  36.925  41.993  0.00  0.00    +0.000 F 
ATOM     22  F   UNL     1      49.000  35.854  40.029  0.00  0.00    +0.000 F 
ENDBRANCH  13  19
ENDBRANCH   3  11
BRANCH   5  24
ATOM     23  C   UNL     1      46.709  29.835  46.457  0.00  0.00    +0.000 A 
ATOM     24  C   UNL     1      46.479  30.937  47.271  0.00  0.00    +0.000 A 
ATOM     25  C   UNL     1      46.697  30.856  48.631  0.00  0.00    +0.000 A 
ATOM     26  H   UNL     1      46.520  31.712  49.280  0.00  0.00    +0.000 HD
ATOM     27  C   UNL     1      47.150  29.686  49.250  0.00  0.00    +0.000 A 
ATOM     28  C   UNL     1      47.355  28.637  48.378  0.00  0.00    +0.000 A 
ATOM     29  C   UNL     1      47.161  28.643  47.015  0.00  0.00    +0.000 A 
BRANCH  23  30
ATOM     30  O   UNL     1      46.489  29.926  45.092  0.00  0.00    +0.000 OA
ATOM     31  H   UNL     1      45.621  29.635  44.648  0.00  0.00    +0.000 HD
ENDBRANCH  23  30
BRANCH  29  32
ATOM     32  O   UNL     1      47.406  27.512  46.245  0.00  0.00    +0.000 OA
ATOM     33  H   UNL     1      47.673  27.610  45.255  0.00  0.00    +0.000 HD
ENDBRANCH  29  32
ENDBRANCH   5  24
TORSDOF 5
