
 OpenBabel03252503413D

 23 24  0  0  0  0  0  0  0  0999 V2000
   45.6430   33.8520   43.9060 C   0  0  0  0  0  0  0  0  0  0  0  0
   44.8470   34.9620   44.1940 C   0  0  0  0  0  0  0  0  0  0  0  0
   44.3270   35.6780   43.1230 C   0  0  0  0  0  0  0  0  0  0  0  0
   44.6190   35.2610   41.8620 N   0  0  0  0  0  0  0  0  0  0  0  0
   45.3860   34.1900   41.6140 C   0  0  0  0  0  0  0  0  0  0  0  0
   45.9070   33.4730   42.6290 N   0  0  0  0  0  0  0  0  0  0  0  0
   46.1200   33.1920   44.6410 H   0  0  0  0  0  0  0  0  0  0  0  0
   43.7300   36.5130   43.4100 H   0  0  0  0  0  0  0  0  0  0  0  0
   44.6670   33.4030   39.3930 C   0  0  0  0  0  0  0  0  0  0  0  0
   45.6710   33.7830   40.2420 C   0  0  0  0  0  0  0  0  0  0  0  0
   46.9520   33.7660   39.7500 C   0  0  0  0  0  0  0  0  0  0  0  0
   47.7980   34.0470   40.3440 H   0  0  0  0  0  0  0  0  0  0  0  0
   47.1940   33.3750   38.4430 C   0  0  0  0  0  3  0  0  0  0  0  0
   46.1600   32.9950   37.6060 C   0  0  0  0  0  3  0  0  0  0  0  0
   44.8630   33.0080   38.0870 C   0  0  0  0  0  0  0  0  0  0  0  0
   43.3570   33.4250   39.9090 O   0  0  0  0  0  0  0  0  0  0  0  0
   42.7510   34.2200   39.8170 H   0  0  0  0  0  0  0  0  0  0  0  0
   43.7390   32.6450   37.3320 O   0  0  0  0  0  0  0  0  0  0  0  0
   42.8560   33.1340   37.4580 H   0  0  0  0  0  0  0  0  0  0  0  0
   44.6640   35.2290   45.6380 C   0  0  0  0  0  0  0  0  0  0  0  0
   43.9590   34.5050   46.1040 H   0  0  0  0  0  0  0  0  0  0  0  0
   44.2740   36.2630   45.7310 H   0  0  0  0  0  0  0  0  0  0  0  0
   45.6320   35.0680   46.1520 H   0  0  0  0  0  0  0  0  0  0  0  0
  1  2  1  0  0  0  0
  1  7  1  0  0  0  0
  2 20  1  0  0  0  0
  3  8  1  0  0  0  0
  3  2  2  0  0  0  0
  4  3  1  0  0  0  0
  5  4  2  0  0  0  0
  5  6  1  0  0  0  0
  6  1  2  0  0  0  0
  9 16  1  0  0  0  0
  9 10  1  0  0  0  0
 10  5  1  0  0  0  0
 11 10  2  0  0  0  0
 11 12  1  0  0  0  0
 13 11  1  0  0  0  0
 14 15  1  0  0  0  0
 14 13  2  0  0  0  0
 15  9  2  0  0  0  0
 17 16  1  0  0  0  0
 18 19  1  0  0  0  0
 18 15  1  0  0  0  0
 20 22  1  0  0  0  0
 20 21  1  0  0  0  0
 20 23  1  0  0  0  0
M  END
>  <minimizedAffinity>
-3.91246819

>  <minimizedRMSD>
7.37461472

$$$$
