
 OpenBabel03242523163D

 30 33  0  0  0  0  0  0  0  0999 V2000
   46.2810   34.4300   43.7170 C   0  0  0  0  0  0  0  0  0  0  0  0
   47.4140   33.8240   43.2940 C   0  0  0  0  0  0  0  0  0  0  0  0
   47.8300   32.7520   44.0510 C   0  0  0  0  0  0  0  0  0  0  0  0
   47.0670   32.3900   45.1600 N   0  0  0  0  0  0  0  0  0  0  0  0
   45.9520   33.0340   45.5230 C   0  0  0  0  0  0  0  0  0  0  0  0
   45.5220   34.1010   44.7870 N   0  0  0  0  0  0  0  0  0  0  0  0
   48.7380   32.2100   43.7760 H   0  0  0  0  0  0  0  0  0  0  0  0
   45.6090   32.5110   46.4030 H   0  0  0  0  0  0  0  0  0  0  0  0
   48.2140   34.2390   42.2030 C   0  0  0  0  0  0  0  0  0  0  0  0
   48.4400   35.4760   41.6770 C   0  0  0  0  0  0  0  0  0  0  0  0
   49.6110   34.9350   42.5010 C   0  0  0  0  0  0  0  0  0  0  0  0
   48.6370   33.2770   41.6790 H   0  0  0  0  0  0  0  0  0  0  0  0
   47.9370   36.4120   42.0920 H   0  0  0  0  0  0  0  0  0  0  0  0
   48.7500   35.6830   40.6180 H   0  0  0  0  0  0  0  0  0  0  0  0
   49.6910   35.3760   43.5200 H   0  0  0  0  0  0  0  0  0  0  0  0
   50.5020   34.6240   41.9940 H   0  0  0  0  0  0  0  0  0  0  0  0
   45.5290   35.5230   43.0910 C   0  0  0  0  0  0  0  0  0  0  0  0
   45.2300   36.7050   42.9460 O   0  0  0  0  0  0  0  0  0  0  0  0
   44.5570   35.1480   42.0310 C   0  0  0  0  0  0  0  0  0  0  0  0
   43.2480   35.6080   42.1740 C   0  0  0  0  0  0  0  0  0  0  0  0
   42.9990   36.2790   43.0130 H   0  0  0  0  0  0  0  0  0  0  0  0
   42.1560   35.3320   41.3610 C   0  0  0  0  0  3  0  0  0  0  0  0
   42.4280   34.4990   40.2940 C   0  0  0  0  0  0  0  0  0  0  0  0
   41.4180   34.1750   39.4690 N   0  0  0  0  0  0  0  0  0  0  0  0
   41.6030   33.3440   38.4000 C   0  0  0  0  0  0  0  0  0  0  0  0
   40.7990   33.0730   37.7270 H   0  0  0  0  0  0  0  0  0  0  0  0
   42.8760   32.8360   38.1860 C   0  0  0  0  0  3  0  0  0  0  0  0
   43.9480   33.1580   39.0280 C   0  0  0  0  0  3  0  0  0  0  0  0
   43.7000   34.0080   40.0980 C   0  0  0  0  0  0  0  0  0  0  0  0
   44.7560   34.3080   40.9280 C   0  0  0  0  0  3  0  0  0  0  0  0
  1  6  1  0  0  0  0
  2  1  2  0  0  0  0
  2  3  1  0  0  0  0
  3  4  2  0  0  0  0
  4  5  1  0  0  0  0
  5  8  1  0  0  0  0
  6  5  2  0  0  0  0
  7  3  1  0  0  0  0
  9 11  1  0  0  0  0
  9  2  1  0  0  0  0
 10 13  1  0  0  0  0
 10  9  1  0  0  0  0
 10 11  1  0  0  0  0
 11 15  1  0  0  0  0
 12  9  1  0  0  0  0
 14 10  1  0  0  0  0
 16 11  1  0  0  0  0
 17  1  1  0  0  0  0
 18 17  2  0  0  0  0
 19 20  1  0  0  0  0
 19 17  1  0  0  0  0
 20 21  1  0  0  0  0
 22 20  2  0  0  0  0
 23 22  1  0  0  0  0
 24 23  2  0  0  0  0
 25 24  1  0  0  0  0
 26 25  1  0  0  0  0
 27 25  2  0  0  0  0
 27 28  1  0  0  0  0
 28 29  2  0  0  0  0
 29 23  1  0  0  0  0
 29 30  1  0  0  0  0
 30 19  2  0  0  0  0
M  END
>  <minimizedAffinity>
-5.7108283

>  <minimizedRMSD>
0.429078668

$$$$
