
 OpenBabel03242510233D

 41 45  0  0  1  0  0  0  0  0999 V2000
   49.0970   33.7860   41.1220 C   0  0  2  0  0  0  0  0  0  0  0  0
   48.5490   35.2630   41.1420 C   0  0  0  0  0  0  0  0  0  0  0  0
   47.8230   34.1320   40.4860 C   0  0  1  0  0  0  0  0  0  0  0  0
   50.0110   33.7510   40.4960 H   0  0  0  0  0  0  0  0  0  0  0  0
   48.1470   35.5880   42.1230 H   0  0  0  0  0  0  0  0  0  0  0  0
   49.0060   35.9840   40.4720 H   0  0  0  0  0  0  0  0  0  0  0  0
   46.9620   33.6300   40.9840 H   0  0  0  0  0  0  0  0  0  0  0  0
   48.0250   33.1100   43.2900 N   0  0  0  0  0  0  0  0  0  0  0  0
   49.1450   33.0740   42.4640 C   0  0  0  0  0  0  0  0  0  0  0  0
   50.2650   32.5260   42.6230 O   0  0  0  0  0  0  0  0  0  0  0  0
   47.5960   34.0840   43.3000 H   0  0  0  0  0  0  0  0  0  0  0  0
   46.1600   32.0330   44.4990 C   0  0  1  0  0  0  0  0  0  0  0  0
   46.3310   31.2980   43.3190 C   0  0  0  0  0  0  0  0  0  0  0  0
   47.5570   31.9760   44.0050 C   0  0  1  0  0  0  0  0  0  0  0  0
   45.9080   31.5610   45.4790 H   0  0  0  0  0  0  0  0  0  0  0  0
   46.3710   30.1680   43.3920 H   0  0  0  0  0  0  0  0  0  0  0  0
   46.1380   31.5860   42.2680 H   0  0  0  0  0  0  0  0  0  0  0  0
   48.3270   31.2540   44.3200 H   0  0  0  0  0  0  0  0  0  0  0  0
   45.0010   33.9400   43.1530 C   0  0  0  0  0  0  0  0  0  0  0  0
   45.4740   33.4040   44.3970 C   0  0  0  0  0  0  0  0  0  0  0  0
   45.3180   34.1810   45.5290 C   0  0  0  0  0  0  0  0  0  0  0  0
   44.7360   35.3950   45.4200 N   0  0  0  0  0  0  0  0  0  0  0  0
   44.2920   35.8900   44.2260 C   0  0  0  0  0  0  0  0  0  0  0  0
   44.4340   35.1300   43.0660 N   0  0  0  0  0  0  0  0  0  0  0  0
   45.1110   33.3140   42.2900 H   0  0  0  0  0  0  0  0  0  0  0  0
   45.6540   33.8300   46.4940 H   0  0  0  0  0  0  0  0  0  0  0  0
   43.8460   36.8780   44.2810 H   0  0  0  0  0  0  0  0  0  0  0  0
   47.7750   34.1140   38.9760 C   0  0  0  0  0  0  0  0  0  0  0  0
   48.5800   34.7780   38.3300 O   0  0  0  0  0  0  0  0  0  0  0  0
   46.7830   33.3150   38.2600 C   0  0  0  0  0  0  0  0  0  0  0  0
   46.9850   32.6150   37.0910 C   0  0  0  0  0  0  0  0  0  0  0  0
   47.9670   32.6500   36.6410 H   0  0  0  0  0  0  0  0  0  0  0  0
   46.0080   31.8780   36.4640 C   0  0  0  0  0  3  0  0  0  0  0  0
   44.7420   31.8060   37.0000 C   0  0  0  0  0  0  0  0  0  0  0  0
   43.7930   31.0920   36.3930 N   0  0  0  0  0  0  0  0  0  0  0  0
   42.5380   31.0220   36.9260 C   0  0  0  0  0  0  0  0  0  0  0  0
   41.7980   30.4180   36.3810 H   0  0  0  0  0  0  0  0  0  0  0  0
   42.2500   31.6980   38.1040 C   0  0  0  0  0  3  0  0  0  0  0  0
   43.2360   32.4370   38.7290 C   0  0  0  0  0  3  0  0  0  0  0  0
   44.4870   32.4870   38.1670 C   0  0  0  0  0  0  0  0  0  0  0  0
   45.4990   33.2090   38.7530 C   0  0  0  0  0  3  0  0  0  0  0  0
  1  4  1  6  0  0  0
  1  2  1  0  0  0  0
  1  9  1  0  0  0  0
  2  5  1  0  0  0  0
  3  7  1  1  0  0  0
  3  1  1  0  0  0  0
  3  2  1  0  0  0  0
  6  2  1  0  0  0  0
  8 11  1  0  0  0  0
  8 14  1  0  0  0  0
  9 10  2  0  0  0  0
  9  8  1  0  0  0  0
 12 15  1  1  0  0  0
 13 16  1  0  0  0  0
 13 14  1  0  0  0  0
 13 12  1  0  0  0  0
 14 18  1  1  0  0  0
 14 12  1  0  0  0  0
 17 13  1  0  0  0  0
 19 20  1  0  0  0  0
 20 12  1  0  0  0  0
 20 21  2  0  0  0  0
 21 26  1  0  0  0  0
 22 21  1  0  0  0  0
 23 27  1  0  0  0  0
 23 22  2  0  0  0  0
 24 19  2  0  0  0  0
 24 23  1  0  0  0  0
 25 19  1  0  0  0  0
 28  3  1  0  0  0  0
 29 28  2  0  0  0  0
 30 41  1  0  0  0  0
 30 28  1  0  0  0  0
 31 30  2  0  0  0  0
 32 31  1  0  0  0  0
 33 34  2  0  0  0  0
 33 31  1  0  0  0  0
 34 40  1  0  0  0  0
 35 36  2  0  0  0  0
 35 34  1  0  0  0  0
 36 38  1  0  0  0  0
 37 36  1  0  0  0  0
 38 39  2  0  0  0  0
 40 39  1  0  0  0  0
 40 41  2  0  0  0  0
M  END
>  <minimizedAffinity>
-5.3043704

>  <minimizedRMSD>
0.496643215

$$$$
