
     RDKit          3D

 50 54  0  0  0  0  0  0  0  0999 V2000
   48.0557   34.5730   41.7401 C   0  0  0  0  0  0  0  0  0  0  0  0
   48.8091   35.8394   41.3673 C   0  0  0  0  0  0  0  0  0  0  0  0
   49.4470   34.7164   42.0560 C   0  0  0  0  0  0  0  0  0  0  0  0
   47.6713   33.7638   40.5367 C   0  0  0  0  0  0  0  0  0  0  0  0
   48.1426   34.3168   39.2065 C   0  0  0  0  0  0  0  0  0  0  0  0
   47.7426   33.2817   38.1630 C   0  0  0  0  0  0  0  0  0  0  0  0
   46.3628   33.4160   37.9771 O   0  0  0  0  0  0  0  0  0  0  0  0
   45.8310   32.8432   39.1565 C   0  0  0  0  0  0  0  0  0  0  0  0
   46.1437   33.7274   40.3499 C   0  0  0  0  0  0  0  0  0  0  0  0
   46.1392   35.7898   42.7951 C   0  0  0  0  0  0  0  0  0  0  0  0
   47.0225   34.7090   42.7979 C   0  0  0  0  0  0  0  0  0  0  0  0
   46.8928   33.7879   43.8353 C   0  0  0  0  0  0  0  0  0  0  0  0
   45.9280   33.9723   44.7875 N   0  0  0  0  0  0  0  0  0  0  0  0
   45.1148   35.0296   44.7256 C   0  0  0  0  0  0  0  0  0  0  0  0
   45.2036   35.9266   43.7608 N   0  0  0  0  0  0  0  0  0  0  0  0
   44.0929   35.2680   45.6890 N   0  0  0  0  0  0  0  0  0  0  0  0
   47.7679   32.6649   43.9956 C   0  0  0  0  0  0  0  0  0  0  0  0
   47.4406   31.4570   44.3432 O   0  0  0  0  0  0  0  0  0  0  0  0
   49.0869   36.0339   40.3124 H   0  0  0  0  0  0  0  0  0  0  0  0
   48.4475   36.7616   41.8649 H   0  0  0  0  0  0  0  0  0  0  0  0
   49.9571   35.1294   42.9351 H   0  0  0  0  0  0  0  0  0  0  0  0
   50.1754   34.1087   41.4390 H   0  0  0  0  0  0  0  0  0  0  0  0
   48.0012   32.7247   40.6964 H   0  0  0  0  0  0  0  0  0  0  0  0
   49.2639   34.3653   39.1545 H   0  0  0  0  0  0  0  0  0  0  0  0
   47.6715   35.2892   39.0283 H   0  0  0  0  0  0  0  0  0  0  0  0
   48.3174   33.3743   37.2247 H   0  0  0  0  0  0  0  0  0  0  0  0
   47.9438   32.2866   38.6068 H   0  0  0  0  0  0  0  0  0  0  0  0
   44.7161   32.8685   39.0323 H   0  0  0  0  0  0  0  0  0  0  0  0
   46.1222   31.8042   39.2974 H   0  0  0  0  0  0  0  0  0  0  0  0
   45.7416   33.2262   41.2436 H   0  0  0  0  0  0  0  0  0  0  0  0
   45.7488   34.7306   40.1433 H   0  0  0  0  0  0  0  0  0  0  0  0
   46.2504   36.4935   41.9869 H   0  0  0  0  0  0  0  0  0  0  0  0
   44.5522   35.7943   46.4627 H   0  0  0  0  0  0  0  0  0  0  0  0
   43.1121   34.9261   45.5259 H   0  0  0  0  0  0  0  0  0  0  0  0
   49.1473   32.2327   43.9241 C   0  0  0  0  0  0  0  0  0  0  0  0
   50.2582   32.8519   44.4222 C   0  0  0  0  0  0  0  0  0  0  0  0
   50.0786   33.7578   45.0159 H   0  0  0  0  0  0  0  0  0  0  0  0
   51.5445   32.3322   44.1724 C   0  0  0  0  0  0  0  0  0  0  0  0
   51.7108   31.2076   43.4319 C   0  0  0  0  0  0  0  0  0  0  0  0
   52.9535   30.7499   43.2194 N   0  0  0  0  0  0  0  0  0  0  0  0
   53.1810   29.6246   42.4819 C   0  0  0  0  0  0  0  0  0  0  0  0
   54.1748   29.2217   42.2875 H   0  0  0  0  0  0  0  0  0  0  0  0
   52.0855   28.9419   41.9407 C   0  0  0  0  0  0  0  0  0  0  0  0
   50.7773   29.3875   42.1401 C   0  0  0  0  0  0  0  0  0  0  0  0
   50.6594   30.5274   42.8957 C   0  0  0  0  0  0  0  0  0  0  0  0
   49.4408   31.0916   43.1814 C   0  0  0  0  0  0  0  0  0  0  0  0
   52.3513   32.9260   44.6309 H   0  0  0  0  0  0  0  0  0  0  0  0
   52.1909   28.0439   41.3467 H   0  0  0  0  0  0  0  0  0  0  0  0
   49.9099   28.8850   41.7368 H   0  0  0  0  0  0  0  0  0  0  0  0
   48.5788   30.5445   42.7498 H   0  0  0  0  0  0  0  0  0  0  0  0
  1  3  1  0
  1 11  1  0
  2  1  1  0
  2  3  1  0
  4  1  1  0
  5  4  1  0
  6  5  1  0
  7  6  1  0
  7  8  1  0
  8  9  1  0
  9  4  1  0
 10 11  2  0
 10 15  1  0
 11 12  1  0
 12 17  1  0
 12 13  2  0
 14 13  1  0
 14 16  1  0
 15 14  2  0
 17 18  2  0
  2 19  1  0
  2 20  1  0
  3 21  1  0
  3 22  1  0
  4 23  1  0
  5 24  1  0
  5 25  1  0
  6 26  1  0
  6 27  1  0
  8 28  1  0
  8 29  1  0
  9 30  1  0
  9 31  1  0
 10 32  1  0
 16 33  1  0
 16 34  1  0
 35 36  2  0
 36 37  1  0
 36 38  1  0
 38 39  2  0
 39 40  1  0
 40 41  2  0
 41 42  1  0
 41 43  1  0
 43 44  2  0
 44 45  1  0
 45 46  2  0
 46 35  1  0
 45 39  1  0
 38 47  1  0
 43 48  1  0
 44 49  1  0
 46 50  1  0
 17 35  1  0
M  ISO  8  19  13  20  13  21  13  22  13  23  13  24  13  25  13  26  13
M  ISO  8  27  13  28  13  29  13  30  13  31  13  32  14  37  16  42  16
M  END
>  <DihAtoms>  (1) 
11,16,34,35

>  <DihDeg>  (1) 
-134.5749830314007

$$$$
