
 OpenBabel03252507173D

 32 35  0  0  0  0  0  0  0  0999 V2000
   44.8860   36.0520   43.2390 C   0  0  0  0  0  0  0  0  0  0  0  0
   45.2120   34.7700   42.7560 C   0  0  0  0  0  0  0  0  0  0  0  0
   45.3120   33.7570   43.7080 C   0  0  0  0  0  0  0  0  0  0  0  0
   45.0990   34.0330   45.0000 N   0  0  0  0  0  0  0  0  0  0  0  0
   44.7840   35.2830   45.4430 C   0  0  0  0  0  0  0  0  0  0  0  0
   44.6860   36.2590   44.5450 N   0  0  0  0  0  0  0  0  0  0  0  0
   44.7900   36.8940   42.5540 H   0  0  0  0  0  0  0  0  0  0  0  0
   44.6520   35.3050   46.5170 H   0  0  0  0  0  0  0  0  0  0  0  0
   45.6500   32.4050   43.2430 C   0  0  0  0  0  0  0  0  0  0  0  0
   44.6420   31.5150   42.9600 C   0  0  0  0  0  0  0  0  0  0  0  0
   45.0180   30.2570   42.5270 C   0  0  0  0  0  0  0  0  0  0  0  0
   46.3260   29.8370   42.3580 C   0  0  0  0  0  0  0  0  0  0  0  0
   47.2830   30.8010   42.6650 C   0  0  0  0  0  0  0  0  0  0  0  0
   46.9200   32.0240   43.0880 N   0  0  0  0  0  0  0  0  0  0  0  0
   43.5920   31.7610   43.0650 H   0  0  0  0  0  0  0  0  0  0  0  0
   44.2510   29.5180   42.2920 H   0  0  0  0  0  0  0  0  0  0  0  0
   46.5910   28.8610   42.0220 H   0  0  0  0  0  0  0  0  0  0  0  0
   48.3320   30.5580   42.5620 H   0  0  0  0  0  0  0  0  0  0  0  0
   45.4270   34.5340   41.3700 C   0  0  0  0  0  0  0  0  0  0  0  0
   46.6100   34.6960   40.9340 O   0  0  0  0  0  0  0  0  0  0  0  0
   44.3630   34.1230   40.4600 C   0  0  0  0  0  0  0  0  0  0  0  0
   44.4780   33.1030   39.5280 C   0  0  0  0  0  0  0  0  0  0  0  0
   45.4330   32.5980   39.5010 H   0  0  0  0  0  0  0  0  0  0  0  0
   43.3780   32.8150   38.7200 C   0  0  0  0  0  3  0  0  0  0  0  0
   42.2050   33.5300   38.8470 C   0  0  0  0  0  0  0  0  0  0  0  0
   41.1760   33.2120   38.0430 N   0  0  0  0  0  0  0  0  0  0  0  0
   39.9880   33.8760   38.1120 C   0  0  0  0  0  0  0  0  0  0  0  0
   39.2170   33.5510   37.4270 H   0  0  0  0  0  0  0  0  0  0  0  0
   39.8260   34.9130   39.0370 C   0  0  0  0  0  3  0  0  0  0  0  0
   40.9030   35.2380   39.8700 C   0  0  0  0  0  3  0  0  0  0  0  0
   42.0830   34.5430   39.7670 C   0  0  0  0  0  0  0  0  0  0  0  0
   43.1650   34.8360   40.5730 C   0  0  0  0  0  3  0  0  0  0  0  0
  1  6  1  0  0  0  0
  2  1  2  0  0  0  0
  2  3  1  0  0  0  0
  3  4  2  0  0  0  0
  4  5  1  0  0  0  0
  5  8  1  0  0  0  0
  6  5  2  0  0  0  0
  7  1  1  0  0  0  0
  9  3  1  0  0  0  0
 10 15  1  0  0  0  0
 10  9  2  0  0  0  0
 11 10  1  0  0  0  0
 12 11  2  0  0  0  0
 12 13  1  0  0  0  0
 13 14  2  0  0  0  0
 14  9  1  0  0  0  0
 16 11  1  0  0  0  0
 17 12  1  0  0  0  0
 18 13  1  0  0  0  0
 19  2  1  0  0  0  0
 20 19  2  0  0  0  0
 21 32  1  0  0  0  0
 21 19  1  0  0  0  0
 22 21  2  0  0  0  0
 23 22  1  0  0  0  0
 24 25  2  0  0  0  0
 24 22  1  0  0  0  0
 25 31  1  0  0  0  0
 26 27  2  0  0  0  0
 26 25  1  0  0  0  0
 27 29  1  0  0  0  0
 28 27  1  0  0  0  0
 29 30  2  0  0  0  0
 31 30  1  0  0  0  0
 31 32  2  0  0  0  0
M  END
>  <minimizedAffinity>
-5.53044796

>  <minimizedRMSD>
2.52932119

$$$$
