
 OpenBabel03242519123D

 50 54  0  0  1  0  0  0  0  0999 V2000
   41.2480   34.0840   39.9790 C   0  0  0  0  0  0  0  0  0  0  0  0
   42.2230   34.9440   40.5150 C   0  0  0  0  0  0  0  0  0  0  0  0
   41.7030   36.0930   41.0330 C   0  0  0  0  0  0  0  0  0  0  0  0
   40.3830   36.4540   41.0710 C   0  0  0  0  0  0  0  0  0  0  0  0
   39.4600   35.5830   40.5350 C   0  0  0  0  0  0  0  0  0  0  0  0
   39.9120   34.4030   39.9950 C   0  0  0  0  0  0  0  0  0  0  0  0
   42.4110   36.8040   41.4640 H   0  0  0  0  0  0  0  0  0  0  0  0
   40.0550   37.3900   41.5030 H   0  0  0  0  0  0  0  0  0  0  0  0
   38.4060   35.8030   40.5320 H   0  0  0  0  0  0  0  0  0  0  0  0
   38.3760   32.5200   40.2810 C   0  0  0  0  0  0  0  0  0  0  0  0
   38.6710   32.4660   41.5120 O   0  0  0  0  0  0  0  0  0  0  0  0
   38.9340   33.5110   39.4440 N   0  0  0  0  0  0  0  0  0  0  0  0
   38.6470   33.5920   38.4550 H   0  0  0  0  0  0  0  0  0  0  0  0
   37.4370   31.5090   39.7980 C   0  0  0  0  0  0  0  0  0  0  0  0
   36.5530   30.9520   40.6920 C   0  0  0  0  0  0  0  0  0  0  0  0
   36.5080   31.2170   41.7370 H   0  0  0  0  0  0  0  0  0  0  0  0
   35.6320   29.9800   40.2910 C   0  0  0  0  0  3  0  0  0  0  0  0
   35.6000   29.5630   38.9710 C   0  0  0  0  0  0  0  0  0  0  0  0
   34.6990   28.6260   38.6230 N   0  0  0  0  0  0  0  0  0  0  0  0
   34.6140   28.1700   37.3400 C   0  0  0  0  0  0  0  0  0  0  0  0
   33.8770   27.4180   37.1080 H   0  0  0  0  0  0  0  0  0  0  0  0
   35.4860   28.7050   36.4130 C   0  0  0  0  0  3  0  0  0  0  0  0
   36.4260   29.6790   36.7650 C   0  0  0  0  0  3  0  0  0  0  0  0
   36.4950   30.1300   38.0800 C   0  0  0  0  0  0  0  0  0  0  0  0
   37.4040   31.0910   38.4840 C   0  0  0  0  0  3  0  0  0  0  0  0
   43.5990   34.6600   40.5210 N   0  0  0  0  0  0  0  0  0  0  0  0
   43.9580   34.7600   39.5360 H   0  0  0  0  0  0  0  0  0  0  0  0
   45.0520   34.1250   43.7240 N   0  0  0  0  0  0  0  0  0  0  0  0
   43.8630   34.0910   42.8970 C   0  0  0  0  0  0  0  0  0  0  0  0
   44.5100   34.2890   41.5520 C   0  0  2  0  0  0  0  0  0  0  0  0
   45.4210   35.4710   41.8150 C   0  0  0  0  0  0  0  0  0  0  0  0
   45.8420   35.2220   43.2460 C   0  0  0  0  0  0  0  0  0  0  0  0
   43.3410   33.1200   42.9790 H   0  0  0  0  0  0  0  0  0  0  0  0
   43.1940   34.9410   43.1090 H   0  0  0  0  0  0  0  0  0  0  0  0
   45.1460   33.4090   41.3250 H   0  0  0  0  0  0  0  0  0  0  0  0
   44.8620   36.4390   41.7580 H   0  0  0  0  0  0  0  0  0  0  0  0
   46.2710   35.4670   41.1180 H   0  0  0  0  0  0  0  0  0  0  0  0
   45.7510   36.1260   43.8890 H   0  0  0  0  0  0  0  0  0  0  0  0
   46.9020   34.8970   43.2240 H   0  0  0  0  0  0  0  0  0  0  0  0
   45.3820   31.3190   46.1530 C   0  0  0  0  0  0  0  0  0  0  0  0
   44.9170   32.0490   45.0700 C   0  0  0  0  0  0  0  0  0  0  0  0
   45.4540   33.3110   44.7940 C   0  0  0  0  0  0  0  0  0  0  0  0
   46.4300   33.7550   45.6300 N   0  0  0  0  0  0  0  0  0  0  0  0
   46.8800   33.0500   46.6770 C   0  0  0  0  0  0  0  0  0  0  0  0
   46.3470   31.8220   46.9340 N   0  0  0  0  0  0  0  0  0  0  0  0
   44.8910   30.3600   46.2680 H   0  0  0  0  0  0  0  0  0  0  0  0
   44.1530   31.7600   44.3730 H   0  0  0  0  0  0  0  0  0  0  0  0
   47.6490   33.3840   47.3470 H   0  0  0  0  0  0  0  0  0  0  0  0
   42.0760   31.8330   38.9490 N   0  0  0  0  0  0  0  0  0  0  0  0
   41.7130   32.8260   39.4010 C   0  0  0  0  0  0  0  0  0  0  0  0
  1  6  2  0  0  0  0
  1  2  1  0  0  0  0
  2 26  1  0  0  0  0
  2  3  2  0  0  0  0
  3  4  1  0  0  0  0
  3  7  1  0  0  0  0
  4  8  1  0  0  0  0
  5  4  2  0  0  0  0
  6  5  1  0  0  0  0
  9  5  1  0  0  0  0
 10 11  2  0  0  0  0
 12  6  1  0  0  0  0
 12 10  1  0  0  0  0
 13 12  1  0  0  0  0
 14 10  1  0  0  0  0
 14 15  1  0  0  0  0
 15 16  1  0  0  0  0
 17 15  2  0  0  0  0
 18 17  1  0  0  0  0
 19 18  1  0  0  0  0
 20 19  2  0  0  0  0
 21 20  1  0  0  0  0
 22 23  2  0  0  0  0
 22 20  1  0  0  0  0
 23 24  1  0  0  0  0
 24 25  1  0  0  0  0
 24 18  2  0  0  0  0
 25 14  2  0  0  0  0
 26 30  1  0  0  0  0
 27 26  1  0  0  0  0
 28 42  1  0  0  0  0
 29 33  1  0  0  0  0
 29 34  1  0  0  0  0
 29 28  1  0  0  0  0
 30 35  1  6  0  0  0
 30 31  1  0  0  0  0
 30 29  1  0  0  0  0
 31 32  1  0  0  0  0
 32 28  1  0  0  0  0
 32 38  1  0  0  0  0
 36 31  1  0  0  0  0
 37 31  1  0  0  0  0
 39 32  1  0  0  0  0
 40 46  1  0  0  0  0
 40 45  1  0  0  0  0
 41 40  2  0  0  0  0
 42 41  1  0  0  0  0
 42 43  2  0  0  0  0
 43 44  1  0  0  0  0
 44 45  2  0  0  0  0
 44 48  1  0  0  0  0
 47 41  1  0  0  0  0
 49 50  3  0  0  0  0
 50  1  1  0  0  0  0
M  END
>  <minimizedAffinity>
-7.3313818

$$$$

 OpenBabel03242519123D

 50 54  0  0  1  0  0  0  0  0999 V2000
   40.4810   32.9980   39.8560 C   0  0  0  0  0  0  0  0  0  0  0  0
   41.0010   34.2790   40.1140 C   0  0  0  0  0  0  0  0  0  0  0  0
   40.0380   35.2270   40.2970 C   0  0  0  0  0  0  0  0  0  0  0  0
   38.6820   35.0410   40.2520 C   0  0  0  0  0  0  0  0  0  0  0  0
   38.2140   33.7710   39.9970 C   0  0  0  0  0  0  0  0  0  0  0  0
   39.1270   32.7640   39.8020 C   0  0  0  0  0  0  0  0  0  0  0  0
   40.3800   36.2440   40.5010 H   0  0  0  0  0  0  0  0  0  0  0  0
   37.9850   35.8530   40.4090 H   0  0  0  0  0  0  0  0  0  0  0  0
   37.1600   33.5530   39.9470 H   0  0  0  0  0  0  0  0  0  0  0  0
   38.3670   30.5900   40.6310 C   0  0  0  0  0  0  0  0  0  0  0  0
   38.5150   30.9930   41.8230 O   0  0  0  0  0  0  0  0  0  0  0  0
   38.6180   31.4500   39.5380 N   0  0  0  0  0  0  0  0  0  0  0  0
   38.4390   31.1400   38.5690 H   0  0  0  0  0  0  0  0  0  0  0  0
   37.9290   29.2060   40.4670 C   0  0  0  0  0  0  0  0  0  0  0  0
   37.5420   28.7810   39.2180 C   0  0  0  0  0  0  0  0  0  0  0  0
   37.5430   29.4110   38.3420 H   0  0  0  0  0  0  0  0  0  0  0  0
   37.1120   27.4690   38.9980 C   0  0  0  0  0  3  0  0  0  0  0  0
   37.0700   26.5720   40.0520 C   0  0  0  0  0  0  0  0  0  0  0  0
   36.6510   25.3170   39.8020 N   0  0  0  0  0  0  0  0  0  0  0  0
   36.5850   24.3840   40.7940 C   0  0  0  0  0  0  0  0  0  0  0  0
   36.2430   23.3920   40.5460 H   0  0  0  0  0  0  0  0  0  0  0  0
   36.9650   24.7730   42.0630 C   0  0  0  0  0  3  0  0  0  0  0  0
   37.4020   26.0730   42.3330 C   0  0  0  0  0  3  0  0  0  0  0  0
   37.4610   27.0100   41.3050 C   0  0  0  0  0  0  0  0  0  0  0  0
   37.8850   28.3100   41.5150 C   0  0  0  0  0  3  0  0  0  0  0  0
   42.3750   34.5660   40.1790 N   0  0  0  0  0  0  0  0  0  0  0  0
   42.6200   35.1810   39.3600 H   0  0  0  0  0  0  0  0  0  0  0  0
   44.8620   34.7020   42.7200 N   0  0  0  0  0  0  0  0  0  0  0  0
   43.5580   35.1310   42.2580 C   0  0  0  0  0  0  0  0  0  0  0  0
   43.4030   34.1920   41.0930 C   0  0  2  0  0  0  0  0  0  0  0  0
   44.7340   34.3510   40.3860 C   0  0  0  0  0  0  0  0  0  0  0  0
   45.6770   34.5630   41.5490 C   0  0  0  0  0  0  0  0  0  0  0  0
   42.7840   34.9790   43.0330 H   0  0  0  0  0  0  0  0  0  0  0  0
   43.5770   36.1700   41.8900 H   0  0  0  0  0  0  0  0  0  0  0  0
   43.3380   33.1520   41.4740 H   0  0  0  0  0  0  0  0  0  0  0  0
   44.7440   35.2600   39.7320 H   0  0  0  0  0  0  0  0  0  0  0  0
   44.9750   33.4480   39.8070 H   0  0  0  0  0  0  0  0  0  0  0  0
   46.3620   35.4280   41.4000 H   0  0  0  0  0  0  0  0  0  0  0  0
   46.2780   33.6370   41.6580 H   0  0  0  0  0  0  0  0  0  0  0  0
   46.7230   33.3050   45.6310 C   0  0  0  0  0  0  0  0  0  0  0  0
   46.3130   33.4850   44.3180 C   0  0  0  0  0  0  0  0  0  0  0  0
   45.3420   34.4450   44.0130 C   0  0  0  0  0  0  0  0  0  0  0  0
   44.8480   35.1650   45.0550 N   0  0  0  0  0  0  0  0  0  0  0  0
   45.2430   34.9920   46.3240 C   0  0  0  0  0  0  0  0  0  0  0  0
   46.1900   34.0520   46.6060 N   0  0  0  0  0  0  0  0  0  0  0  0
   47.4770   32.5350   45.7440 H   0  0  0  0  0  0  0  0  0  0  0  0
   46.6600   32.9540   43.4520 H   0  0  0  0  0  0  0  0  0  0  0  0
   44.8640   35.5500   47.1580 H   0  0  0  0  0  0  0  0  0  0  0  0
   42.1950   31.0670   39.4770 N   0  0  0  0  0  0  0  0  0  0  0  0
   41.4390   31.9170   39.6470 C   0  0  0  0  0  0  0  0  0  0  0  0
  1  2  1  0  0  0  0
  2 26  1  0  0  0  0
  2  3  2  0  0  0  0
  3  7  1  0  0  0  0
  4  3  1  0  0  0  0
  4  8  1  0  0  0  0
  5  4  2  0  0  0  0
  6  1  2  0  0  0  0
  6  5  1  0  0  0  0
  9  5  1  0  0  0  0
 10 11  2  0  0  0  0
 12  6  1  0  0  0  0
 12 10  1  0  0  0  0
 13 12  1  0  0  0  0
 14 10  1  0  0  0  0
 14 25  1  0  0  0  0
 15 14  2  0  0  0  0
 16 15  1  0  0  0  0
 17 15  1  0  0  0  0
 17 18  2  0  0  0  0
 18 24  1  0  0  0  0
 19 18  1  0  0  0  0
 19 20  2  0  0  0  0
 20 22  1  0  0  0  0
 21 20  1  0  0  0  0
 22 23  2  0  0  0  0
 24 25  2  0  0  0  0
 24 23  1  0  0  0  0
 26 30  1  0  0  0  0
 27 26  1  0  0  0  0
 28 42  1  0  0  0  0
 29 28  1  0  0  0  0
 29 33  1  0  0  0  0
 30 35  1  1  0  0  0
 30 29  1  0  0  0  0
 31 30  1  0  0  0  0
 31 32  1  0  0  0  0
 32 39  1  0  0  0  0
 32 28  1  0  0  0  0
 34 29  1  0  0  0  0
 36 31  1  0  0  0  0
 37 31  1  0  0  0  0
 38 32  1  0  0  0  0
 40 46  1  0  0  0  0
 40 45  1  0  0  0  0
 41 40  2  0  0  0  0
 42 41  1  0  0  0  0
 42 43  2  0  0  0  0
 43 44  1  0  0  0  0
 44 45  2  0  0  0  0
 44 48  1  0  0  0  0
 47 41  1  0  0  0  0
 49 50  3  0  0  0  0
 50  1  1  0  0  0  0
M  END
>  <minimizedAffinity>
-7.05706215

$$$$

 OpenBabel03242519123D

 50 54  0  0  1  0  0  0  0  0999 V2000
   39.3710   31.8510   39.4720 C   0  0  0  0  0  0  0  0  0  0  0  0
   39.7250   33.2070   39.5820 C   0  0  0  0  0  0  0  0  0  0  0  0
   38.6500   34.0400   39.6810 C   0  0  0  0  0  0  0  0  0  0  0  0
   37.3290   33.6800   39.6840 C   0  0  0  0  0  0  0  0  0  0  0  0
   37.0250   32.3410   39.5750 C   0  0  0  0  0  0  0  0  0  0  0  0
   38.0580   31.4430   39.4700 C   0  0  0  0  0  0  0  0  0  0  0  0
   38.8610   35.1080   39.7690 H   0  0  0  0  0  0  0  0  0  0  0  0
   36.5350   34.4100   39.7680 H   0  0  0  0  0  0  0  0  0  0  0  0
   36.0070   31.9890   39.5700 H   0  0  0  0  0  0  0  0  0  0  0  0
   37.4720   29.3220   40.5400 C   0  0  0  0  0  0  0  0  0  0  0  0
   37.4730   29.8910   41.6710 O   0  0  0  0  0  0  0  0  0  0  0  0
   37.7190   30.0540   39.3580 N   0  0  0  0  0  0  0  0  0  0  0  0
   37.6590   29.6010   38.4320 H   0  0  0  0  0  0  0  0  0  0  0  0
   37.2020   27.8850   40.5420 C   0  0  0  0  0  0  0  0  0  0  0  0
   37.4670   27.1680   41.6850 C   0  0  0  0  0  0  0  0  0  0  0  0
   37.8630   27.6030   42.5900 H   0  0  0  0  0  0  0  0  0  0  0  0
   37.2310   25.7910   41.7490 C   0  0  0  0  0  3  0  0  0  0  0  0
   36.7210   25.1280   40.6460 C   0  0  0  0  0  0  0  0  0  0  0  0
   36.5070   23.8020   40.7450 N   0  0  0  0  0  0  0  0  0  0  0  0
   36.0070   23.0870   39.6960 C   0  0  0  0  0  0  0  0  0  0  0  0
   35.8530   22.0270   39.8230 H   0  0  0  0  0  0  0  0  0  0  0  0
   35.7300   23.7720   38.5300 C   0  0  0  0  0  3  0  0  0  0  0  0
   35.9490   25.1490   38.4170 C   0  0  0  0  0  3  0  0  0  0  0  0
   36.4590   25.8590   39.5000 C   0  0  0  0  0  0  0  0  0  0  0  0
   36.6960   27.2210   39.4440 C   0  0  0  0  0  3  0  0  0  0  0  0
   41.0520   33.6710   39.5880 N   0  0  0  0  0  0  0  0  0  0  0  0
   41.3140   33.9260   38.6010 H   0  0  0  0  0  0  0  0  0  0  0  0
   43.4010   35.1320   41.8260 N   0  0  0  0  0  0  0  0  0  0  0  0
   42.1370   35.2500   41.1290 C   0  0  0  0  0  0  0  0  0  0  0  0
   42.0180   33.8370   40.6230 C   0  0  2  0  0  0  0  0  0  0  0  0
   43.3880   33.6040   40.0220 C   0  0  0  0  0  0  0  0  0  0  0  0
   44.2730   34.3990   40.9550 C   0  0  0  0  0  0  0  0  0  0  0  0
   41.3180   35.5250   41.8190 H   0  0  0  0  0  0  0  0  0  0  0  0
   42.2060   35.9390   40.2710 H   0  0  0  0  0  0  0  0  0  0  0  0
   41.9010   33.1530   41.4890 H   0  0  0  0  0  0  0  0  0  0  0  0
   43.4600   34.0330   38.9900 H   0  0  0  0  0  0  0  0  0  0  0  0
   43.6340   32.5320   40.0190 H   0  0  0  0  0  0  0  0  0  0  0  0
   44.9910   35.0590   40.4170 H   0  0  0  0  0  0  0  0  0  0  0  0
   44.8390   33.6710   41.5710 H   0  0  0  0  0  0  0  0  0  0  0  0
   43.7850   37.1380   44.9430 C   0  0  0  0  0  0  0  0  0  0  0  0
   43.3250   36.7650   43.6890 C   0  0  0  0  0  0  0  0  0  0  0  0
   43.8030   35.5950   43.0880 C   0  0  0  0  0  0  0  0  0  0  0  0
   44.7150   34.8750   43.7940 N   0  0  0  0  0  0  0  0  0  0  0  0
   45.1610   35.2360   45.0060 C   0  0  0  0  0  0  0  0  0  0  0  0
   44.6860   36.3780   45.5780 N   0  0  0  0  0  0  0  0  0  0  0  0
   43.3450   38.0600   45.3050 H   0  0  0  0  0  0  0  0  0  0  0  0
   42.6090   37.2830   43.0800 H   0  0  0  0  0  0  0  0  0  0  0  0
   45.8800   34.6810   45.5760 H   0  0  0  0  0  0  0  0  0  0  0  0
   41.3120   30.1180   39.2740 N   0  0  0  0  0  0  0  0  0  0  0  0
   40.4590   30.8840   39.3600 C   0  0  0  0  0  0  0  0  0  0  0  0
  1  2  1  0  0  0  0
  2 26  1  0  0  0  0
  2  3  2  0  0  0  0
  3  4  1  0  0  0  0
  3  7  1  0  0  0  0
  4  8  1  0  0  0  0
  5  4  2  0  0  0  0
  6  1  2  0  0  0  0
  6  5  1  0  0  0  0
  9  5  1  0  0  0  0
 10 14  1  0  0  0  0
 10 11  2  0  0  0  0
 12  6  1  0  0  0  0
 12 10  1  0  0  0  0
 13 12  1  0  0  0  0
 14 15  1  0  0  0  0
 15 17  2  0  0  0  0
 15 16  1  0  0  0  0
 18 19  1  0  0  0  0
 18 17  1  0  0  0  0
 20 21  1  0  0  0  0
 20 19  2  0  0  0  0
 22 20  1  0  0  0  0
 23 22  2  0  0  0  0
 23 24  1  0  0  0  0
 24 18  2  0  0  0  0
 25 24  1  0  0  0  0
 25 14  2  0  0  0  0
 26 30  1  0  0  0  0
 27 26  1  0  0  0  0
 28 42  1  0  0  0  0
 29 33  1  0  0  0  0
 29 28  1  0  0  0  0
 30 29  1  0  0  0  0
 30 35  1  1  0  0  0
 31 30  1  0  0  0  0
 31 32  1  0  0  0  0
 32 39  1  0  0  0  0
 32 28  1  0  0  0  0
 34 29  1  0  0  0  0
 36 31  1  0  0  0  0
 37 31  1  0  0  0  0
 38 32  1  0  0  0  0
 40 46  1  0  0  0  0
 40 45  1  0  0  0  0
 41 40  2  0  0  0  0
 42 41  1  0  0  0  0
 42 43  2  0  0  0  0
 43 44  1  0  0  0  0
 44 48  1  0  0  0  0
 44 45  2  0  0  0  0
 47 41  1  0  0  0  0
 49 50  3  0  0  0  0
 50  1  1  0  0  0  0
M  END
>  <minimizedAffinity>
-7.01480436

$$$$

 OpenBabel03242519123D

 50 54  0  0  1  0  0  0  0  0999 V2000
   39.3320   32.6240   40.9290 C   0  0  0  0  0  0  0  0  0  0  0  0
   39.7820   33.9490   40.7870 C   0  0  0  0  0  0  0  0  0  0  0  0
   38.9150   34.7430   40.0960 C   0  0  0  0  0  0  0  0  0  0  0  0
   37.7100   34.3730   39.5620 C   0  0  0  0  0  0  0  0  0  0  0  0
   37.3060   33.0660   39.7240 C   0  0  0  0  0  0  0  0  0  0  0  0
   38.1300   32.2080   40.4100 C   0  0  0  0  0  0  0  0  0  0  0  0
   39.2090   35.7840   39.9520 H   0  0  0  0  0  0  0  0  0  0  0  0
   37.0810   35.0710   39.0250 H   0  0  0  0  0  0  0  0  0  0  0  0
   36.3700   32.7080   39.3290 H   0  0  0  0  0  0  0  0  0  0  0  0
   37.9600   29.9300   39.5320 C   0  0  0  0  0  0  0  0  0  0  0  0
   38.6420   30.2690   38.5200 O   0  0  0  0  0  0  0  0  0  0  0  0
   37.6890   30.8520   40.5670 N   0  0  0  0  0  0  0  0  0  0  0  0
   37.1850   30.5580   41.4190 H   0  0  0  0  0  0  0  0  0  0  0  0
   37.4820   28.5490   39.5540 C   0  0  0  0  0  0  0  0  0  0  0  0
   36.8560   28.0510   38.4350 C   0  0  0  0  0  0  0  0  0  0  0  0
   36.6950   28.6210   37.5330 H   0  0  0  0  0  0  0  0  0  0  0  0
   36.3770   26.7390   38.3950 C   0  0  0  0  0  3  0  0  0  0  0  0
   36.5300   25.9150   39.4980 C   0  0  0  0  0  0  0  0  0  0  0  0
   36.0560   24.6570   39.4220 N   0  0  0  0  0  0  0  0  0  0  0  0
   36.1730   23.7940   40.4710 C   0  0  0  0  0  0  0  0  0  0  0  0
   35.7780   22.7970   40.3640 H   0  0  0  0  0  0  0  0  0  0  0  0
   36.7950   24.2580   41.6130 C   0  0  0  0  0  3  0  0  0  0  0  0
   37.2910   25.5630   41.7020 C   0  0  0  0  0  3  0  0  0  0  0  0
   37.1610   26.4270   40.6190 C   0  0  0  0  0  0  0  0  0  0  0  0
   37.6320   27.7270   40.6510 C   0  0  0  0  0  3  0  0  0  0  0  0
   41.0030   34.4200   41.3010 N   0  0  0  0  0  0  0  0  0  0  0  0
   40.8810   34.5840   42.3340 H   0  0  0  0  0  0  0  0  0  0  0  0
   44.2580   34.0000   39.9270 N   0  0  0  0  0  0  0  0  0  0  0  0
   42.9080   33.4900   40.0580 C   0  0  0  0  0  0  0  0  0  0  0  0
   42.2680   34.6890   40.7030 C   0  0  2  0  0  0  0  0  0  0  0  0
   43.2480   35.0070   41.8130 C   0  0  0  0  0  0  0  0  0  0  0  0
   44.5680   34.6370   41.1740 C   0  0  0  0  0  0  0  0  0  0  0  0
   42.4690   33.2520   39.0710 H   0  0  0  0  0  0  0  0  0  0  0  0
   42.8600   32.6340   40.7510 H   0  0  0  0  0  0  0  0  0  0  0  0
   42.2780   35.5340   39.9830 H   0  0  0  0  0  0  0  0  0  0  0  0
   43.0770   34.3570   42.7080 H   0  0  0  0  0  0  0  0  0  0  0  0
   43.1950   36.0710   42.0850 H   0  0  0  0  0  0  0  0  0  0  0  0
   45.2070   34.0050   41.8300 H   0  0  0  0  0  0  0  0  0  0  0  0
   45.1010   35.5840   40.9500 H   0  0  0  0  0  0  0  0  0  0  0  0
   45.9310   33.1900   36.6970 C   0  0  0  0  0  0  0  0  0  0  0  0
   44.9740   33.1800   37.7010 C   0  0  0  0  0  0  0  0  0  0  0  0
   45.1650   33.9420   38.8580 C   0  0  0  0  0  0  0  0  0  0  0  0
   46.3130   34.6670   38.9290 N   0  0  0  0  0  0  0  0  0  0  0  0
   47.2390   34.6770   37.9600 C   0  0  0  0  0  0  0  0  0  0  0  0
   47.0390   33.9300   36.8380 N   0  0  0  0  0  0  0  0  0  0  0  0
   45.6740   32.5630   35.8520 H   0  0  0  0  0  0  0  0  0  0  0  0
   44.0500   32.6340   37.7100 H   0  0  0  0  0  0  0  0  0  0  0  0
   48.1500   35.2420   37.9980 H   0  0  0  0  0  0  0  0  0  0  0  0
   40.8830   30.9740   42.2280 N   0  0  0  0  0  0  0  0  0  0  0  0
   40.1970   31.7000   41.6570 C   0  0  0  0  0  0  0  0  0  0  0  0
  1 50  1  0  0  0  0
  2  1  1  0  0  0  0
  2 26  1  0  0  0  0
  3  2  2  0  0  0  0
  4  5  2  0  0  0  0
  4  3  1  0  0  0  0
  5  6  1  0  0  0  0
  6 12  1  0  0  0  0
  6  1  2  0  0  0  0
  7  3  1  0  0  0  0
  8  4  1  0  0  0  0
  9  5  1  0  0  0  0
 10 14  1  0  0  0  0
 10 12  1  0  0  0  0
 11 10  2  0  0  0  0
 12 13  1  0  0  0  0
 14 25  1  0  0  0  0
 15 14  2  0  0  0  0
 16 15  1  0  0  0  0
 17 15  1  0  0  0  0
 17 18  2  0  0  0  0
 18 24  1  0  0  0  0
 19 18  1  0  0  0  0
 19 20  2  0  0  0  0
 20 22  1  0  0  0  0
 21 20  1  0  0  0  0
 22 23  2  0  0  0  0
 24 25  2  0  0  0  0
 24 23  1  0  0  0  0
 26 27  1  0  0  0  0
 28 29  1  0  0  0  0
 28 32  1  0  0  0  0
 29 30  1  0  0  0  0
 29 34  1  0  0  0  0
 30 35  1  6  0  0  0
 30 26  1  0  0  0  0
 30 31  1  0  0  0  0
 31 37  1  0  0  0  0
 31 36  1  0  0  0  0
 32 31  1  0  0  0  0
 32 38  1  0  0  0  0
 33 29  1  0  0  0  0
 39 32  1  0  0  0  0
 40 45  2  0  0  0  0
 40 41  1  0  0  0  0
 41 47  1  0  0  0  0
 41 42  2  0  0  0  0
 42 43  1  0  0  0  0
 42 28  1  0  0  0  0
 44 48  1  0  0  0  0
 44 43  2  0  0  0  0
 45 44  1  0  0  0  0
 46 40  1  0  0  0  0
 50 49  3  0  0  0  0
M  END
>  <minimizedAffinity>
-6.80900335

$$$$

 OpenBabel03242519123D

 50 54  0  0  1  0  0  0  0  0999 V2000
   40.2390   32.0960   38.5060 C   0  0  0  0  0  0  0  0  0  0  0  0
   41.0950   33.1330   38.0960 C   0  0  0  0  0  0  0  0  0  0  0  0
   42.1310   32.7050   37.3200 C   0  0  0  0  0  0  0  0  0  0  0  0
   42.3880   31.4180   36.9300 C   0  0  0  0  0  0  0  0  0  0  0  0
   41.5250   30.4310   37.3530 C   0  0  0  0  0  0  0  0  0  0  0  0
   40.4570   30.7890   38.1390 C   0  0  0  0  0  0  0  0  0  0  0  0
   42.8310   33.4660   36.9700 H   0  0  0  0  0  0  0  0  0  0  0  0
   43.2380   31.1640   36.3100 H   0  0  0  0  0  0  0  0  0  0  0  0
   41.6680   29.3980   37.0840 H   0  0  0  0  0  0  0  0  0  0  0  0
   39.8870   29.0350   39.7460 C   0  0  0  0  0  0  0  0  0  0  0  0
   40.8860   29.3590   40.4550 O   0  0  0  0  0  0  0  0  0  0  0  0
   39.5720   29.7460   38.5680 N   0  0  0  0  0  0  0  0  0  0  0  0
   38.7230   29.5200   38.0240 H   0  0  0  0  0  0  0  0  0  0  0  0
   39.0990   27.9010   40.2240 C   0  0  0  0  0  0  0  0  0  0  0  0
   39.1040   27.6150   41.5690 C   0  0  0  0  0  0  0  0  0  0  0  0
   39.6580   28.1810   42.3020 H   0  0  0  0  0  0  0  0  0  0  0  0
   38.3720   26.5420   42.0860 C   0  0  0  0  0  3  0  0  0  0  0  0
   37.6220   25.7460   41.2370 C   0  0  0  0  0  0  0  0  0  0  0  0
   36.9300   24.7230   41.7710 N   0  0  0  0  0  0  0  0  0  0  0  0
   36.1720   23.8990   40.9920 C   0  0  0  0  0  0  0  0  0  0  0  0
   35.6350   23.0930   41.4650 H   0  0  0  0  0  0  0  0  0  0  0  0
   36.1410   24.1540   39.6350 C   0  0  0  0  0  3  0  0  0  0  0  0
   36.8570   25.2140   39.0700 C   0  0  0  0  0  3  0  0  0  0  0  0
   37.6240   26.0420   39.8840 C   0  0  0  0  0  0  0  0  0  0  0  0
   38.3520   27.1050   39.3800 C   0  0  0  0  0  3  0  0  0  0  0  0
   40.9110   34.4830   38.4460 N   0  0  0  0  0  0  0  0  0  0  0  0
   40.1830   34.8910   37.8050 H   0  0  0  0  0  0  0  0  0  0  0  0
   42.0920   35.7130   41.5690 N   0  0  0  0  0  0  0  0  0  0  0  0
   41.9300   34.5800   40.6800 C   0  0  0  0  0  0  0  0  0  0  0  0
   41.5010   35.3160   39.4400 C   0  0  2  0  0  0  0  0  0  0  0  0
   40.4200   36.2320   39.9790 C   0  0  0  0  0  0  0  0  0  0  0  0
   40.9500   36.5540   41.3580 C   0  0  0  0  0  0  0  0  0  0  0  0
   42.8820   34.0340   40.5430 H   0  0  0  0  0  0  0  0  0  0  0  0
   41.1150   33.9160   41.0110 H   0  0  0  0  0  0  0  0  0  0  0  0
   42.3420   35.9480   39.0860 H   0  0  0  0  0  0  0  0  0  0  0  0
   39.4420   35.6970   40.0760 H   0  0  0  0  0  0  0  0  0  0  0  0
   40.3180   37.1250   39.3470 H   0  0  0  0  0  0  0  0  0  0  0  0
   40.1830   36.4390   42.1570 H   0  0  0  0  0  0  0  0  0  0  0  0
   41.2990   37.6070   41.3380 H   0  0  0  0  0  0  0  0  0  0  0  0
   45.3410   35.8820   43.3860 C   0  0  0  0  0  0  0  0  0  0  0  0
   44.4060   35.5080   42.4330 C   0  0  0  0  0  0  0  0  0  0  0  0
   43.1080   36.0280   42.4840 C   0  0  0  0  0  0  0  0  0  0  0  0
   42.8380   36.8950   43.4960 N   0  0  0  0  0  0  0  0  0  0  0  0
   43.7410   37.2570   44.4170 C   0  0  0  0  0  0  0  0  0  0  0  0
   45.0020   36.7420   44.3550 N   0  0  0  0  0  0  0  0  0  0  0  0
   46.3090   35.4160   43.2440 H   0  0  0  0  0  0  0  0  0  0  0  0
   44.5510   34.8330   41.6110 H   0  0  0  0  0  0  0  0  0  0  0  0
   43.5450   37.9380   45.2220 H   0  0  0  0  0  0  0  0  0  0  0  0
   38.2030   32.7540   40.0010 N   0  0  0  0  0  0  0  0  0  0  0  0
   39.0990   32.4610   39.3420 C   0  0  0  0  0  0  0  0  0  0  0  0
  1 50  1  0  0  0  0
  2 26  1  0  0  0  0
  2  1  2  0  0  0  0
  3  2  1  0  0  0  0
  4  3  2  0  0  0  0
  4  5  1  0  0  0  0
  5  6  2  0  0  0  0
  6  1  1  0  0  0  0
  6 12  1  0  0  0  0
  7  3  1  0  0  0  0
  8  4  1  0  0  0  0
  9  5  1  0  0  0  0
 10 14  1  0  0  0  0
 10 11  2  0  0  0  0
 12 10  1  0  0  0  0
 13 12  1  0  0  0  0
 14 15  1  0  0  0  0
 15 17  2  0  0  0  0
 15 16  1  0  0  0  0
 18 19  1  0  0  0  0
 18 17  1  0  0  0  0
 20 21  1  0  0  0  0
 20 19  2  0  0  0  0
 22 20  1  0  0  0  0
 23 22  2  0  0  0  0
 23 24  1  0  0  0  0
 24 18  2  0  0  0  0
 25 24  1  0  0  0  0
 25 14  2  0  0  0  0
 26 30  1  0  0  0  0
 27 26  1  0  0  0  0
 28 42  1  0  0  0  0
 29 34  1  0  0  0  0
 29 28  1  0  0  0  0
 30 35  1  6  0  0  0
 30 31  1  0  0  0  0
 30 29  1  0  0  0  0
 31 36  1  0  0  0  0
 31 32  1  0  0  0  0
 32 28  1  0  0  0  0
 32 38  1  0  0  0  0
 33 29  1  0  0  0  0
 37 31  1  0  0  0  0
 39 32  1  0  0  0  0
 40 45  1  0  0  0  0
 41 42  1  0  0  0  0
 41 40  2  0  0  0  0
 42 43  2  0  0  0  0
 43 44  1  0  0  0  0
 44 48  1  0  0  0  0
 45 44  2  0  0  0  0
 46 40  1  0  0  0  0
 47 41  1  0  0  0  0
 50 49  3  0  0  0  0
M  END
>  <minimizedAffinity>
-6.77622175

$$$$

 OpenBabel03242519123D

 50 54  0  0  1  0  0  0  0  0999 V2000
   38.0060   27.6930   42.1970 C   0  0  0  0  0  0  0  0  0  0  0  0
   38.1670   26.3140   42.4190 C   0  0  0  0  0  0  0  0  0  0  0  0
   39.3510   25.9980   43.0160 C   0  0  0  0  0  0  0  0  0  0  0  0
   40.3380   26.8670   43.3960 C   0  0  0  0  0  0  0  0  0  0  0  0
   40.1410   28.2090   43.1600 C   0  0  0  0  0  0  0  0  0  0  0  0
   38.9690   28.6030   42.5610 C   0  0  0  0  0  0  0  0  0  0  0  0
   39.5350   24.9400   43.2150 H   0  0  0  0  0  0  0  0  0  0  0  0
   41.2520   26.5290   43.8670 H   0  0  0  0  0  0  0  0  0  0  0  0
   40.8760   28.9480   43.4330 H   0  0  0  0  0  0  0  0  0  0  0  0
   39.2240   30.5470   41.0980 C   0  0  0  0  0  0  0  0  0  0  0  0
   39.7010   29.8030   40.1910 O   0  0  0  0  0  0  0  0  0  0  0  0
   38.7850   30.0050   42.3260 N   0  0  0  0  0  0  0  0  0  0  0  0
   38.3410   30.6050   43.0400 H   0  0  0  0  0  0  0  0  0  0  0  0
   39.1610   31.9750   40.7930 C   0  0  0  0  0  0  0  0  0  0  0  0
   37.9600   32.5090   40.3880 C   0  0  0  0  0  0  0  0  0  0  0  0
   37.0520   31.9350   40.2810 H   0  0  0  0  0  0  0  0  0  0  0  0
   37.8360   33.8670   40.0800 C   0  0  0  0  0  3  0  0  0  0  0  0
   38.9370   34.7000   40.1820 C   0  0  0  0  0  0  0  0  0  0  0  0
   38.7790   36.0020   39.8790 N   0  0  0  0  0  0  0  0  0  0  0  0
   39.8220   36.8770   39.9570 C   0  0  0  0  0  0  0  0  0  0  0  0
   39.6470   37.9110   39.7030 H   0  0  0  0  0  0  0  0  0  0  0  0
   41.0450   36.3790   40.3590 C   0  0  0  0  0  3  0  0  0  0  0  0
   41.2200   35.0280   40.6770 C   0  0  0  0  0  3  0  0  0  0  0  0
   40.1410   34.1530   40.5900 C   0  0  0  0  0  0  0  0  0  0  0  0
   40.2570   32.8080   40.8920 C   0  0  0  0  0  3  0  0  0  0  0  0
   37.2100   25.3480   42.0640 N   0  0  0  0  0  0  0  0  0  0  0  0
   36.2600   25.7140   42.3330 H   0  0  0  0  0  0  0  0  0  0  0  0
   37.9900   22.7350   39.7780 N   0  0  0  0  0  0  0  0  0  0  0  0
   38.4170   23.9480   40.4440 C   0  0  0  0  0  0  0  0  0  0  0  0
   37.3070   24.0640   41.4530 C   0  0  2  0  0  0  0  0  0  0  0  0
   36.0780   23.8660   40.5890 C   0  0  0  0  0  0  0  0  0  0  0  0
   36.5780   22.8690   39.5670 C   0  0  0  0  0  0  0  0  0  0  0  0
   39.4090   23.8220   40.9160 H   0  0  0  0  0  0  0  0  0  0  0  0
   38.3870   24.8180   39.7670 H   0  0  0  0  0  0  0  0  0  0  0  0
   37.3710   23.2100   42.1600 H   0  0  0  0  0  0  0  0  0  0  0  0
   35.7880   24.8140   40.0680 H   0  0  0  0  0  0  0  0  0  0  0  0
   35.2430   23.4750   41.1860 H   0  0  0  0  0  0  0  0  0  0  0  0
   36.3280   23.1570   38.5210 H   0  0  0  0  0  0  0  0  0  0  0  0
   36.1020   21.8940   39.8000 H   0  0  0  0  0  0  0  0  0  0  0  0
   39.2930   19.2600   39.4390 C   0  0  0  0  0  0  0  0  0  0  0  0
   38.5280   20.3190   39.9040 C   0  0  0  0  0  0  0  0  0  0  0  0
   38.7120   21.6010   39.3760 C   0  0  0  0  0  0  0  0  0  0  0  0
   39.6590   21.7330   38.4090 N   0  0  0  0  0  0  0  0  0  0  0  0
   40.3990   20.7100   37.9590 C   0  0  0  0  0  0  0  0  0  0  0  0
   40.2080   19.4660   38.4830 N   0  0  0  0  0  0  0  0  0  0  0  0
   39.0620   18.3180   39.9220 H   0  0  0  0  0  0  0  0  0  0  0  0
   37.7670   20.2860   40.6600 H   0  0  0  0  0  0  0  0  0  0  0  0
   41.1500   20.7950   37.1980 H   0  0  0  0  0  0  0  0  0  0  0  0
   35.7910   28.4720   41.0560 N   0  0  0  0  0  0  0  0  0  0  0  0
   36.7650   28.1270   41.5600 C   0  0  0  0  0  0  0  0  0  0  0  0
  1  2  2  0  0  0  0
  1  6  1  0  0  0  0
  2  3  1  0  0  0  0
  3  7  1  0  0  0  0
  3  4  2  0  0  0  0
  4  8  1  0  0  0  0
  5  4  1  0  0  0  0
  5  9  1  0  0  0  0
  6  5  2  0  0  0  0
 10 12  1  0  0  0  0
 11 10  2  0  0  0  0
 12  6  1  0  0  0  0
 12 13  1  0  0  0  0
 14 25  1  0  0  0  0
 14 10  1  0  0  0  0
 15 14  2  0  0  0  0
 16 15  1  0  0  0  0
 17 18  2  0  0  0  0
 17 15  1  0  0  0  0
 18 24  1  0  0  0  0
 19 20  2  0  0  0  0
 19 18  1  0  0  0  0
 20 22  1  0  0  0  0
 21 20  1  0  0  0  0
 22 23  2  0  0  0  0
 24 23  1  0  0  0  0
 24 25  2  0  0  0  0
 26 27  1  0  0  0  0
 26  2  1  0  0  0  0
 28 29  1  0  0  0  0
 29 33  1  0  0  0  0
 29 30  1  0  0  0  0
 30 26  1  0  0  0  0
 30 35  1  1  0  0  0
 31 37  1  0  0  0  0
 31 30  1  0  0  0  0
 32 28  1  0  0  0  0
 32 39  1  0  0  0  0
 32 31  1  0  0  0  0
 34 29  1  0  0  0  0
 36 31  1  0  0  0  0
 38 32  1  0  0  0  0
 40 41  1  0  0  0  0
 40 46  1  0  0  0  0
 41 47  1  0  0  0  0
 42 28  1  0  0  0  0
 42 41  2  0  0  0  0
 43 42  1  0  0  0  0
 44 43  2  0  0  0  0
 44 45  1  0  0  0  0
 45 40  2  0  0  0  0
 48 44  1  0  0  0  0
 49 50  3  0  0  0  0
 50  1  1  0  0  0  0
M  END
>  <minimizedAffinity>
-6.77413845

$$$$

 OpenBabel03242519123D

 50 54  0  0  1  0  0  0  0  0999 V2000
   38.4550   31.3160   41.0290 C   0  0  0  0  0  0  0  0  0  0  0  0
   37.3750   30.5490   40.5550 C   0  0  0  0  0  0  0  0  0  0  0  0
   36.7740   31.0840   39.4550 C   0  0  0  0  0  0  0  0  0  0  0  0
   37.1210   32.2410   38.8100 C   0  0  0  0  0  0  0  0  0  0  0  0
   38.1840   32.9620   39.3060 C   0  0  0  0  0  0  0  0  0  0  0  0
   38.8390   32.4840   40.4140 C   0  0  0  0  0  0  0  0  0  0  0  0
   35.9280   30.5330   39.0390 H   0  0  0  0  0  0  0  0  0  0  0  0
   36.5870   32.5950   37.9370 H   0  0  0  0  0  0  0  0  0  0  0  0
   38.5100   33.8810   38.8480 H   0  0  0  0  0  0  0  0  0  0  0  0
   41.1920   33.1360   40.2630 C   0  0  0  0  0  0  0  0  0  0  0  0
   41.3200   32.4350   39.2160 O   0  0  0  0  0  0  0  0  0  0  0  0
   39.9430   33.2500   40.9130 N   0  0  0  0  0  0  0  0  0  0  0  0
   39.8270   33.8690   41.7310 H   0  0  0  0  0  0  0  0  0  0  0  0
   42.3990   33.8070   40.7410 C   0  0  0  0  0  0  0  0  0  0  0  0
   43.6040   33.4830   40.1630 C   0  0  0  0  0  0  0  0  0  0  0  0
   43.7160   32.7590   39.3700 H   0  0  0  0  0  0  0  0  0  0  0  0
   44.7940   34.0890   40.5770 C   0  0  0  0  0  3  0  0  0  0  0  0
   44.7700   35.0350   41.5880 C   0  0  0  0  0  0  0  0  0  0  0  0
   45.9360   35.5970   41.9590 N   0  0  0  0  0  0  0  0  0  0  0  0
   45.9840   36.5350   42.9480 C   0  0  0  0  0  0  0  0  0  0  0  0
   46.9410   36.9570   43.2120 H   0  0  0  0  0  0  0  0  0  0  0  0
   44.7940   36.8860   43.5540 C   0  0  0  0  0  3  0  0  0  0  0  0
   43.5780   36.3080   43.1760 C   0  0  0  0  0  3  0  0  0  0  0  0
   43.5520   35.3530   42.1630 C   0  0  0  0  0  0  0  0  0  0  0  0
   42.3790   34.7490   41.7490 C   0  0  0  0  0  3  0  0  0  0  0  0
   36.9470   29.3500   41.1500 N   0  0  0  0  0  0  0  0  0  0  0  0
   36.0440   29.5400   41.6560 H   0  0  0  0  0  0  0  0  0  0  0  0
   37.2730   25.8140   40.9140 N   0  0  0  0  0  0  0  0  0  0  0  0
   36.7170   27.0330   40.3620 C   0  0  0  0  0  0  0  0  0  0  0  0
   37.4910   28.0320   41.1790 C   0  0  2  0  0  0  0  0  0  0  0  0
   37.3170   27.4890   42.5830 C   0  0  0  0  0  0  0  0  0  0  0  0
   37.3070   25.9970   42.3360 C   0  0  0  0  0  0  0  0  0  0  0  0
   36.9240   27.1180   39.2790 H   0  0  0  0  0  0  0  0  0  0  0  0
   35.6430   27.1310   40.5880 H   0  0  0  0  0  0  0  0  0  0  0  0
   38.5660   27.9610   40.9130 H   0  0  0  0  0  0  0  0  0  0  0  0
   36.3350   27.7970   43.0220 H   0  0  0  0  0  0  0  0  0  0  0  0
   38.1510   27.8040   43.2260 H   0  0  0  0  0  0  0  0  0  0  0  0
   36.4700   25.4760   42.8530 H   0  0  0  0  0  0  0  0  0  0  0  0
   38.2710   25.5950   42.7090 H   0  0  0  0  0  0  0  0  0  0  0  0
   38.2330   22.2840   40.2060 C   0  0  0  0  0  0  0  0  0  0  0  0
   37.7760   23.3880   40.9100 C   0  0  0  0  0  0  0  0  0  0  0  0
   37.7190   24.6400   40.2890 C   0  0  0  0  0  0  0  0  0  0  0  0
   38.1260   24.6970   38.9930 N   0  0  0  0  0  0  0  0  0  0  0  0
   38.5680   23.6300   38.3120 C   0  0  0  0  0  0  0  0  0  0  0  0
   38.6180   22.4170   38.9310 N   0  0  0  0  0  0  0  0  0  0  0  0
   38.2330   21.3710   40.7910 H   0  0  0  0  0  0  0  0  0  0  0  0
   37.4410   23.4130   41.9300 H   0  0  0  0  0  0  0  0  0  0  0  0
   38.8930   23.6570   37.2900 H   0  0  0  0  0  0  0  0  0  0  0  0
   39.7210   30.4310   43.1330 N   0  0  0  0  0  0  0  0  0  0  0  0
   39.1600   30.8190   42.2070 C   0  0  0  0  0  0  0  0  0  0  0  0
  1 50  1  0  0  0  0
  2  1  1  0  0  0  0
  2 26  1  0  0  0  0
  3  2  2  0  0  0  0
  4  5  2  0  0  0  0
  4  3  1  0  0  0  0
  5  6  1  0  0  0  0
  6 12  1  0  0  0  0
  6  1  2  0  0  0  0
  7  3  1  0  0  0  0
  8  4  1  0  0  0  0
  9  5  1  0  0  0  0
 10 14  1  0  0  0  0
 10 12  1  0  0  0  0
 11 10  2  0  0  0  0
 12 13  1  0  0  0  0
 14 25  1  0  0  0  0
 15 17  1  0  0  0  0
 15 14  2  0  0  0  0
 16 15  1  0  0  0  0
 17 18  2  0  0  0  0
 18 19  1  0  0  0  0
 18 24  1  0  0  0  0
 19 20  2  0  0  0  0
 20 21  1  0  0  0  0
 20 22  1  0  0  0  0
 23 22  2  0  0  0  0
 24 23  1  0  0  0  0
 25 24  2  0  0  0  0
 26 30  1  0  0  0  0
 26 27  1  0  0  0  0
 28 32  1  0  0  0  0
 29 34  1  0  0  0  0
 29 28  1  0  0  0  0
 29 30  1  0  0  0  0
 30 35  1  6  0  0  0
 30 31  1  0  0  0  0
 31 36  1  0  0  0  0
 31 37  1  0  0  0  0
 32 31  1  0  0  0  0
 32 39  1  0  0  0  0
 32 38  1  0  0  0  0
 33 29  1  0  0  0  0
 40 46  1  0  0  0  0
 40 41  1  0  0  0  0
 41 47  1  0  0  0  0
 42 41  2  0  0  0  0
 42 28  1  0  0  0  0
 43 42  1  0  0  0  0
 44 45  1  0  0  0  0
 44 43  2  0  0  0  0
 45 40  2  0  0  0  0
 48 44  1  0  0  0  0
 50 49  3  0  0  0  0
M  END
>  <minimizedAffinity>
-6.63713884

$$$$

 OpenBabel03242519123D

 50 54  0  0  1  0  0  0  0  0999 V2000
   37.0430   27.9720   41.0890 C   0  0  0  0  0  0  0  0  0  0  0  0
   37.3810   29.2190   41.6450 C   0  0  0  0  0  0  0  0  0  0  0  0
   37.6210   29.1660   42.9860 C   0  0  0  0  0  0  0  0  0  0  0  0
   37.5640   28.0570   43.7880 C   0  0  0  0  0  0  0  0  0  0  0  0
   37.2300   26.8560   43.2040 C   0  0  0  0  0  0  0  0  0  0  0  0
   36.9730   26.8330   41.8550 C   0  0  0  0  0  0  0  0  0  0  0  0
   37.8890   30.1040   43.4760 H   0  0  0  0  0  0  0  0  0  0  0  0
   37.7720   28.1040   44.8490 H   0  0  0  0  0  0  0  0  0  0  0  0
   37.1660   25.9440   43.7760 H   0  0  0  0  0  0  0  0  0  0  0  0
   37.6650   24.6690   40.9480 C   0  0  0  0  0  0  0  0  0  0  0  0
   38.8690   24.9300   41.2410 O   0  0  0  0  0  0  0  0  0  0  0  0
   36.6270   25.5710   41.2680 N   0  0  0  0  0  0  0  0  0  0  0  0
   35.6410   25.3310   41.0830 H   0  0  0  0  0  0  0  0  0  0  0  0
   37.4290   23.3950   40.2710 C   0  0  0  0  0  0  0  0  0  0  0  0
   38.4310   22.4530   40.2710 C   0  0  0  0  0  0  0  0  0  0  0  0
   39.3900   22.5960   40.7460 H   0  0  0  0  0  0  0  0  0  0  0  0
   38.2650   21.2170   39.6400 C   0  0  0  0  0  3  0  0  0  0  0  0
   37.0730   20.9240   38.9990 C   0  0  0  0  0  0  0  0  0  0  0  0
   36.9510   19.7230   38.4030 N   0  0  0  0  0  0  0  0  0  0  0  0
   35.8040   19.3710   37.7540 C   0  0  0  0  0  0  0  0  0  0  0  0
   35.7530   18.3980   37.2910 H   0  0  0  0  0  0  0  0  0  0  0  0
   34.7750   20.2910   37.7300 C   0  0  0  0  0  3  0  0  0  0  0  0
   34.8920   21.5410   38.3470 C   0  0  0  0  0  3  0  0  0  0  0  0
   36.0710   21.8790   39.0040 C   0  0  0  0  0  0  0  0  0  0  0  0
   36.2420   23.1010   39.6300 C   0  0  0  0  0  3  0  0  0  0  0  0
   37.4640   30.4100   40.9020 N   0  0  0  0  0  0  0  0  0  0  0  0
   36.5580   30.5340   40.3810 H   0  0  0  0  0  0  0  0  0  0  0  0
   39.2190   33.3550   39.9500 N   0  0  0  0  0  0  0  0  0  0  0  0
   37.9750   32.7600   40.3950 C   0  0  0  0  0  0  0  0  0  0  0  0
   38.4880   31.3900   40.7520 C   0  0  2  0  0  0  0  0  0  0  0  0
   39.2990   31.0300   39.5240 C   0  0  0  0  0  0  0  0  0  0  0  0
   39.8580   32.3760   39.1190 C   0  0  0  0  0  0  0  0  0  0  0  0
   37.5580   33.2980   41.2650 H   0  0  0  0  0  0  0  0  0  0  0  0
   37.2470   32.6730   39.5720 H   0  0  0  0  0  0  0  0  0  0  0  0
   39.1850   31.4790   41.6110 H   0  0  0  0  0  0  0  0  0  0  0  0
   38.6460   30.6400   38.7030 H   0  0  0  0  0  0  0  0  0  0  0  0
   40.0860   30.3060   39.7780 H   0  0  0  0  0  0  0  0  0  0  0  0
   39.7330   32.5900   38.0340 H   0  0  0  0  0  0  0  0  0  0  0  0
   40.9390   32.3700   39.3670 H   0  0  0  0  0  0  0  0  0  0  0  0
   39.7730   37.0240   40.2920 C   0  0  0  0  0  0  0  0  0  0  0  0
   39.1290   35.8310   40.0010 C   0  0  0  0  0  0  0  0  0  0  0  0
   39.7840   34.6130   40.2120 C   0  0  0  0  0  0  0  0  0  0  0  0
   41.0490   34.6770   40.7040 N   0  0  0  0  0  0  0  0  0  0  0  0
   41.6730   35.8300   40.9850 C   0  0  0  0  0  0  0  0  0  0  0  0
   41.0220   37.0090   40.7750 N   0  0  0  0  0  0  0  0  0  0  0  0
   39.1690   37.9000   40.0880 H   0  0  0  0  0  0  0  0  0  0  0  0
   38.1360   35.7080   39.6130 H   0  0  0  0  0  0  0  0  0  0  0  0
   42.6710   35.9000   41.3730 H   0  0  0  0  0  0  0  0  0  0  0  0
   36.5470   27.9050   38.5280 N   0  0  0  0  0  0  0  0  0  0  0  0
   36.7680   27.9330   39.6560 C   0  0  0  0  0  0  0  0  0  0  0  0
  1  2  2  0  0  0  0
  1  6  1  0  0  0  0
  2  3  1  0  0  0  0
  3  7  1  0  0  0  0
  3  4  2  0  0  0  0
  4  8  1  0  0  0  0
  5  9  1  0  0  0  0
  5  4  1  0  0  0  0
  6  5  2  0  0  0  0
 10 11  2  0  0  0  0
 10 12  1  0  0  0  0
 12  6  1  0  0  0  0
 13 12  1  0  0  0  0
 14 10  1  0  0  0  0
 15 14  1  0  0  0  0
 15 16  1  0  0  0  0
 17 15  2  0  0  0  0
 18 24  1  0  0  0  0
 18 17  1  0  0  0  0
 19 18  2  0  0  0  0
 20 19  1  0  0  0  0
 21 20  1  0  0  0  0
 22 20  2  0  0  0  0
 22 23  1  0  0  0  0
 23 24  2  0  0  0  0
 24 25  1  0  0  0  0
 25 14  2  0  0  0  0
 26  2  1  0  0  0  0
 27 26  1  0  0  0  0
 28 42  1  0  0  0  0
 28 29  1  0  0  0  0
 29 30  1  0  0  0  0
 29 33  1  0  0  0  0
 30 26  1  0  0  0  0
 30 35  1  1  0  0  0
 31 37  1  0  0  0  0
 31 30  1  0  0  0  0
 32 39  1  0  0  0  0
 32 31  1  0  0  0  0
 32 28  1  0  0  0  0
 34 29  1  0  0  0  0
 36 31  1  0  0  0  0
 38 32  1  0  0  0  0
 40 45  1  0  0  0  0
 41 42  1  0  0  0  0
 41 40  2  0  0  0  0
 42 43  2  0  0  0  0
 43 44  1  0  0  0  0
 44 48  1  0  0  0  0
 45 44  2  0  0  0  0
 46 40  1  0  0  0  0
 47 41  1  0  0  0  0
 49 50  3  0  0  0  0
 50  1  1  0  0  0  0
M  END
>  <minimizedAffinity>
-6.49315643

$$$$

 OpenBabel03242519123D

 50 54  0  0  1  0  0  0  0  0999 V2000
   37.3220   28.1330   40.9870 C   0  0  0  0  0  0  0  0  0  0  0  0
   36.9700   26.8110   41.3100 C   0  0  0  0  0  0  0  0  0  0  0  0
   37.0130   26.5510   42.6480 C   0  0  0  0  0  0  0  0  0  0  0  0
   37.3520   27.4260   43.6440 C   0  0  0  0  0  0  0  0  0  0  0  0
   37.6900   28.7120   43.2860 C   0  0  0  0  0  0  0  0  0  0  0  0
   37.6690   29.0470   41.9540 C   0  0  0  0  0  0  0  0  0  0  0  0
   36.7500   25.5390   42.9620 H   0  0  0  0  0  0  0  0  0  0  0  0
   37.3600   27.1350   44.6870 H   0  0  0  0  0  0  0  0  0  0  0  0
   37.9670   29.4520   44.0180 H   0  0  0  0  0  0  0  0  0  0  0  0
   39.3770   30.6800   41.3200 C   0  0  0  0  0  0  0  0  0  0  0  0
   40.2490   29.7600   41.2990 O   0  0  0  0  0  0  0  0  0  0  0  0
   38.0240   30.3910   41.6030 N   0  0  0  0  0  0  0  0  0  0  0  0
   37.3050   31.1310   41.5600 H   0  0  0  0  0  0  0  0  0  0  0  0
   39.8580   32.0300   41.0360 C   0  0  0  0  0  0  0  0  0  0  0  0
   41.2130   32.2650   41.0590 C   0  0  0  0  0  0  0  0  0  0  0  0
   41.9510   31.5070   41.2740 H   0  0  0  0  0  0  0  0  0  0  0  0
   41.7340   33.5350   40.7960 C   0  0  0  0  0  3  0  0  0  0  0  0
   40.8790   34.5840   40.5060 C   0  0  0  0  0  0  0  0  0  0  0  0
   41.4180   35.7930   40.2580 N   0  0  0  0  0  0  0  0  0  0  0  0
   40.6330   36.8700   39.9660 C   0  0  0  0  0  0  0  0  0  0  0  0
   41.1100   37.8180   39.7750 H   0  0  0  0  0  0  0  0  0  0  0  0
   39.2670   36.6740   39.9350 C   0  0  0  0  0  3  0  0  0  0  0  0
   38.6970   35.4230   40.1910 C   0  0  0  0  0  3  0  0  0  0  0  0
   39.5170   34.3370   40.4860 C   0  0  0  0  0  0  0  0  0  0  0  0
   39.0090   33.0780   40.7470 C   0  0  0  0  0  3  0  0  0  0  0  0
   36.6080   25.8430   40.3570 N   0  0  0  0  0  0  0  0  0  0  0  0
   35.6130   26.0250   40.0670 H   0  0  0  0  0  0  0  0  0  0  0  0
   38.4470   22.8230   39.9550 N   0  0  0  0  0  0  0  0  0  0  0  0
   37.3960   23.5340   40.6550 C   0  0  0  0  0  0  0  0  0  0  0  0
   37.3080   24.7480   39.7710 C   0  0  2  0  0  0  0  0  0  0  0  0
   38.7640   25.1450   39.6390 C   0  0  0  0  0  0  0  0  0  0  0  0
   39.4510   23.7980   39.6440 C   0  0  0  0  0  0  0  0  0  0  0  0
   36.4570   22.9510   40.6730 H   0  0  0  0  0  0  0  0  0  0  0  0
   37.7140   23.8400   41.6650 H   0  0  0  0  0  0  0  0  0  0  0  0
   36.9440   24.4390   38.7690 H   0  0  0  0  0  0  0  0  0  0  0  0
   39.1080   25.7380   40.5240 H   0  0  0  0  0  0  0  0  0  0  0  0
   38.9320   25.7010   38.7050 H   0  0  0  0  0  0  0  0  0  0  0  0
   40.3190   23.7550   40.3400 H   0  0  0  0  0  0  0  0  0  0  0  0
   39.8050   23.6060   38.6100 H   0  0  0  0  0  0  0  0  0  0  0  0
   39.4250   19.6370   38.2890 C   0  0  0  0  0  0  0  0  0  0  0  0
   39.3740   20.9950   38.5620 C   0  0  0  0  0  0  0  0  0  0  0  0
   38.5670   21.4710   39.6010 C   0  0  0  0  0  0  0  0  0  0  0  0
   37.8620   20.5420   40.3000 N   0  0  0  0  0  0  0  0  0  0  0  0
   37.9100   19.2290   40.0360 C   0  0  0  0  0  0  0  0  0  0  0  0
   38.7010   18.7800   39.0210 N   0  0  0  0  0  0  0  0  0  0  0  0
   40.0810   19.3880   37.4640 H   0  0  0  0  0  0  0  0  0  0  0  0
   39.9020   21.7790   38.0530 H   0  0  0  0  0  0  0  0  0  0  0  0
   37.3610   18.4820   40.5770 H   0  0  0  0  0  0  0  0  0  0  0  0
   37.2870   28.7900   38.4620 N   0  0  0  0  0  0  0  0  0  0  0  0
   37.3040   28.5030   39.5750 C   0  0  0  0  0  0  0  0  0  0  0  0
  1  2  2  0  0  0  0
  1  6  1  0  0  0  0
  2  3  1  0  0  0  0
  3  7  1  0  0  0  0
  3  4  2  0  0  0  0
  4  8  1  0  0  0  0
  5  4  1  0  0  0  0
  5  9  1  0  0  0  0
  6  5  2  0  0  0  0
 10 12  1  0  0  0  0
 11 10  2  0  0  0  0
 12  6  1  0  0  0  0
 13 12  1  0  0  0  0
 14 15  1  0  0  0  0
 14 10  1  0  0  0  0
 15 16  1  0  0  0  0
 17 15  2  0  0  0  0
 18 17  1  0  0  0  0
 19 18  2  0  0  0  0
 20 19  1  0  0  0  0
 21 20  1  0  0  0  0
 22 20  2  0  0  0  0
 22 23  1  0  0  0  0
 23 24  2  0  0  0  0
 24 18  1  0  0  0  0
 24 25  1  0  0  0  0
 25 14  2  0  0  0  0
 26  2  1  0  0  0  0
 27 26  1  0  0  0  0
 28 29  1  0  0  0  0
 29 33  1  0  0  0  0
 29 34  1  0  0  0  0
 30 35  1  6  0  0  0
 30 26  1  0  0  0  0
 30 29  1  0  0  0  0
 31 32  1  0  0  0  0
 31 30  1  0  0  0  0
 31 36  1  0  0  0  0
 32 28  1  0  0  0  0
 32 38  1  0  0  0  0
 37 31  1  0  0  0  0
 39 32  1  0  0  0  0
 40 41  2  0  0  0  0
 40 45  1  0  0  0  0
 41 42  1  0  0  0  0
 42 28  1  0  0  0  0
 42 43  2  0  0  0  0
 44 43  1  0  0  0  0
 44 48  1  0  0  0  0
 45 44  2  0  0  0  0
 46 40  1  0  0  0  0
 47 41  1  0  0  0  0
 49 50  3  0  0  0  0
 50  1  1  0  0  0  0
M  END
>  <minimizedAffinity>
-6.39981794

$$$$
