
 OpenBabel03252508513D

 31 34  0  0  0  0  0  0  0  0999 V2000
   45.8410   34.2380   41.0760 C   0  0  0  0  0  0  0  0  0  0  0  0
   46.4620   34.7980   42.1880 C   0  0  0  0  0  0  0  0  0  0  0  0
   47.8310   35.0760   42.0520 C   0  0  0  0  0  0  0  0  0  0  0  0
   48.4530   34.7910   40.8750 N   0  0  0  0  0  0  0  0  0  0  0  0
   47.8060   34.2560   39.8450 C   0  0  0  0  0  0  0  0  0  0  0  0
   46.4960   33.9740   39.9340 N   0  0  0  0  0  0  0  0  0  0  0  0
   48.3490   35.5120   42.8980 H   0  0  0  0  0  0  0  0  0  0  0  0
   48.2630   34.0160   38.8960 H   0  0  0  0  0  0  0  0  0  0  0  0
   45.7050   35.0590   43.3910 C   0  0  0  0  0  0  0  0  0  0  0  0
   45.1070   36.2870   43.6540 C   0  0  0  0  0  0  0  0  0  0  0  0
   44.5060   36.0910   44.8800 C   0  0  0  0  0  0  0  0  0  0  0  0
   44.7230   34.8270   45.3340 N   0  0  0  0  0  0  0  0  0  0  0  0
   45.4490   34.2330   44.4120 N   0  0  0  0  0  0  0  0  0  0  0  0
   45.0710   37.2210   43.0920 H   0  0  0  0  0  0  0  0  0  0  0  0
   43.9240   36.8170   45.4510 H   0  0  0  0  0  0  0  0  0  0  0  0
   44.3730   34.4220   46.2430 H   0  0  0  0  0  0  0  0  0  0  0  0
   44.4910   33.9450   41.1610 O   0  0  0  0  0  0  0  0  0  0  0  0
   43.4470   34.7380   40.7860 C   0  0  0  0  0  0  0  0  0  0  0  0
   43.4060   36.0180   40.7810 O   0  0  0  0  0  0  0  0  0  0  0  0
   42.1330   34.2200   40.3090 C   0  0  0  0  0  0  0  0  0  0  0  0
   41.1390   35.0490   39.8490 C   0  0  0  0  0  0  0  0  0  0  0  0
   41.2660   36.1210   39.8110 H   0  0  0  0  0  0  0  0  0  0  0  0
   39.9090   34.5470   39.4060 C   0  0  0  0  0  3  0  0  0  0  0  0
   39.6730   33.1920   39.4250 C   0  0  0  0  0  0  0  0  0  0  0  0
   38.5040   32.6770   39.0070 N   0  0  0  0  0  0  0  0  0  0  0  0
   38.2990   31.3380   39.0360 C   0  0  0  0  0  0  0  0  0  0  0  0
   37.3270   31.0070   38.6810 H   0  0  0  0  0  0  0  0  0  0  0  0
   39.2420   30.4100   39.4840 C   0  0  0  0  0  3  0  0  0  0  0  0
   40.4370   30.9520   39.9100 C   0  0  0  0  0  3  0  0  0  0  0  0
   40.6350   32.3170   39.8750 C   0  0  0  0  0  0  0  0  0  0  0  0
   41.8120   32.8930   40.2920 C   0  0  0  0  0  3  0  0  0  0  0  0
  1 17  1  0  0  0  0
  1  2  1  0  0  0  0
  2  9  1  0  0  0  0
  3  2  2  0  0  0  0
  3  7  1  0  0  0  0
  4  3  1  0  0  0  0
  5  6  1  0  0  0  0
  5  4  2  0  0  0  0
  6  1  2  0  0  0  0
  8  5  1  0  0  0  0
  9 10  1  0  0  0  0
  9 13  2  0  0  0  0
 10 11  2  0  0  0  0
 11 12  1  0  0  0  0
 11 15  1  0  0  0  0
 12 16  1  0  0  0  0
 13 12  1  0  0  0  0
 14 10  1  0  0  0  0
 18 17  1  0  0  0  0
 19 18  2  0  0  0  0
 20 18  1  0  0  0  0
 21 20  2  0  0  0  0
 22 21  1  0  0  0  0
 23 24  2  0  0  0  0
 23 21  1  0  0  0  0
 24 30  1  0  0  0  0
 25 26  2  0  0  0  0
 25 24  1  0  0  0  0
 26 28  1  0  0  0  0
 27 26  1  0  0  0  0
 28 29  2  0  0  0  0
 30 29  1  0  0  0  0
 30 31  2  0  0  0  0
 31 20  1  0  0  0  0
M  END
>  <minimizedAffinity>
-5.9089303

>  <minimizedRMSD>
1.6785382

$$$$
