
 OpenBabel03242510233D

 41 45  0  0  1  0  0  0  0  0999 V2000
   49.0510   33.7560   41.0710 C   0  0  2  0  0  0  0  0  0  0  0  0
   48.5170   35.2370   41.0730 C   0  0  0  0  0  0  0  0  0  0  0  0
   47.7660   34.1010   40.4560 C   0  0  1  0  0  0  0  0  0  0  0  0
   49.9500   33.6990   40.4250 H   0  0  0  0  0  0  0  0  0  0  0  0
   48.1390   35.5860   42.0570 H   0  0  0  0  0  0  0  0  0  0  0  0
   48.9650   35.9410   40.3790 H   0  0  0  0  0  0  0  0  0  0  0  0
   46.9120   33.6170   40.9830 H   0  0  0  0  0  0  0  0  0  0  0  0
   48.0140   33.1130   43.2650 N   0  0  0  0  0  0  0  0  0  0  0  0
   49.1220   33.0700   42.4250 C   0  0  0  0  0  0  0  0  0  0  0  0
   50.2490   32.5330   42.5790 O   0  0  0  0  0  0  0  0  0  0  0  0
   47.5770   34.0840   43.2620 H   0  0  0  0  0  0  0  0  0  0  0  0
   46.1750   32.0470   44.5240 C   0  0  1  0  0  0  0  0  0  0  0  0
   46.3310   31.2930   43.3540 C   0  0  0  0  0  0  0  0  0  0  0  0
   47.5630   31.9890   44.0080 C   0  0  1  0  0  0  0  0  0  0  0  0
   45.9410   31.5920   45.5160 H   0  0  0  0  0  0  0  0  0  0  0  0
   46.3780   30.1650   43.4460 H   0  0  0  0  0  0  0  0  0  0  0  0
   46.1180   31.5610   42.3010 H   0  0  0  0  0  0  0  0  0  0  0  0
   48.3420   31.2770   44.3230 H   0  0  0  0  0  0  0  0  0  0  0  0
   45.0060   33.9360   43.1600 C   0  0  0  0  0  0  0  0  0  0  0  0
   45.4790   33.4130   44.4090 C   0  0  0  0  0  0  0  0  0  0  0  0
   45.3140   34.1970   45.5340 C   0  0  0  0  0  0  0  0  0  0  0  0
   44.7240   35.4070   45.4140 N   0  0  0  0  0  0  0  0  0  0  0  0
   44.2800   35.8890   44.2150 C   0  0  0  0  0  0  0  0  0  0  0  0
   44.4310   35.1210   43.0610 N   0  0  0  0  0  0  0  0  0  0  0  0
   45.1230   33.3040   42.3010 H   0  0  0  0  0  0  0  0  0  0  0  0
   45.6500   33.8570   46.5030 H   0  0  0  0  0  0  0  0  0  0  0  0
   43.8260   36.8740   44.2600 H   0  0  0  0  0  0  0  0  0  0  0  0
   47.6840   34.0540   38.9480 C   0  0  0  0  0  0  0  0  0  0  0  0
   48.4950   34.6780   38.2710 O   0  0  0  0  0  0  0  0  0  0  0  0
   46.6520   33.2730   38.2710 C   0  0  0  0  0  0  0  0  0  0  0  0
   46.8010   32.5580   37.1020 C   0  0  0  0  0  0  0  0  0  0  0  0
   47.7700   32.5650   36.6230 H   0  0  0  0  0  0  0  0  0  0  0  0
   45.7890   31.8400   36.5120 C   0  0  0  0  0  3  0  0  0  0  0  0
   44.5380   31.8050   37.0870 C   0  0  0  0  0  0  0  0  0  0  0  0
   43.5530   31.1070   36.5170 N   0  0  0  0  0  0  0  0  0  0  0  0
   42.3150   31.0730   37.0880 C   0  0  0  0  0  0  0  0  0  0  0  0
   41.5440   30.4830   36.5720 H   0  0  0  0  0  0  0  0  0  0  0  0
   42.0790   31.7670   38.2680 C   0  0  0  0  0  3  0  0  0  0  0  0
   43.1000   32.4870   38.8550 C   0  0  0  0  0  3  0  0  0  0  0  0
   44.3350   32.5010   38.2560 C   0  0  0  0  0  0  0  0  0  0  0  0
   45.3810   33.2030   38.8030 C   0  0  0  0  0  3  0  0  0  0  0  0
  1  4  1  6  0  0  0
  1  2  1  0  0  0  0
  1  9  1  0  0  0  0
  2  5  1  0  0  0  0
  3  7  1  1  0  0  0
  3  1  1  0  0  0  0
  3  2  1  0  0  0  0
  6  2  1  0  0  0  0
  8 14  1  0  0  0  0
  9 10  2  0  0  0  0
  9  8  1  0  0  0  0
 11  8  1  0  0  0  0
 12 15  1  1  0  0  0
 13 16  1  0  0  0  0
 13 14  1  0  0  0  0
 13 12  1  0  0  0  0
 14 18  1  1  0  0  0
 14 12  1  0  0  0  0
 17 13  1  0  0  0  0
 19 20  1  0  0  0  0
 20 12  1  0  0  0  0
 20 21  2  0  0  0  0
 21 26  1  0  0  0  0
 22 21  1  0  0  0  0
 23 27  1  0  0  0  0
 23 22  2  0  0  0  0
 24 19  2  0  0  0  0
 24 23  1  0  0  0  0
 25 19  1  0  0  0  0
 28  3  1  0  0  0  0
 29 28  2  0  0  0  0
 30 41  1  0  0  0  0
 30 28  1  0  0  0  0
 31 30  2  0  0  0  0
 32 31  1  0  0  0  0
 33 34  2  0  0  0  0
 33 31  1  0  0  0  0
 34 40  1  0  0  0  0
 35 34  1  0  0  0  0
 35 36  2  0  0  0  0
 36 38  1  0  0  0  0
 37 36  1  0  0  0  0
 38 39  2  0  0  0  0
 40 41  2  0  0  0  0
 40 39  1  0  0  0  0
M  END
>  <minimizedAffinity>
-5.31861877

>  <minimizedRMSD>
0.316895068

$$$$
