
 OpenBabel03252508503D

 31 34  0  0  0  0  0  0  0  0999 V2000
   46.0490   34.1970   41.0460 C   0  0  0  0  0  0  0  0  0  0  0  0
   46.5940   34.8510   42.1460 C   0  0  0  0  0  0  0  0  0  0  0  0
   47.9270   35.2710   42.0120 C   0  0  0  0  0  0  0  0  0  0  0  0
   48.5880   35.0210   40.8480 N   0  0  0  0  0  0  0  0  0  0  0  0
   48.0130   34.3900   39.8290 C   0  0  0  0  0  0  0  0  0  0  0  0
   46.7390   33.9720   39.9170 N   0  0  0  0  0  0  0  0  0  0  0  0
   48.3870   35.7830   42.8480 H   0  0  0  0  0  0  0  0  0  0  0  0
   48.5030   34.1740   38.8910 H   0  0  0  0  0  0  0  0  0  0  0  0
   45.8010   35.0640   43.3350 C   0  0  0  0  0  0  0  0  0  0  0  0
   45.0700   36.2260   43.5570 C   0  0  0  0  0  0  0  0  0  0  0  0
   44.4820   36.0010   44.7840 C   0  0  0  0  0  0  0  0  0  0  0  0
   44.8310   34.7830   45.2770 N   0  0  0  0  0  0  0  0  0  0  0  0
   45.6260   34.2440   44.3790 N   0  0  0  0  0  0  0  0  0  0  0  0
   44.9390   37.1330   42.9660 H   0  0  0  0  0  0  0  0  0  0  0  0
   43.8190   36.6760   45.3290 H   0  0  0  0  0  0  0  0  0  0  0  0
   44.5180   34.3680   46.1960 H   0  0  0  0  0  0  0  0  0  0  0  0
   44.7370   33.7630   41.1300 O   0  0  0  0  0  0  0  0  0  0  0  0
   43.6290   34.3730   40.6200 C   0  0  0  0  0  0  0  0  0  0  0  0
   43.4090   35.6320   40.5260 O   0  0  0  0  0  0  0  0  0  0  0  0
   42.4490   33.6440   40.0750 C   0  0  0  0  0  0  0  0  0  0  0  0
   42.3280   33.3350   38.7410 C   0  0  0  0  0  0  0  0  0  0  0  0
   43.0890   33.6060   38.0240 H   0  0  0  0  0  0  0  0  0  0  0  0
   41.2120   32.6510   38.2430 C   0  0  0  0  0  3  0  0  0  0  0  0
   40.2010   32.2710   39.0960 C   0  0  0  0  0  0  0  0  0  0  0  0
   39.1160   31.6150   38.6500 N   0  0  0  0  0  0  0  0  0  0  0  0
   38.1370   31.2530   39.5130 C   0  0  0  0  0  0  0  0  0  0  0  0
   37.2970   30.7270   39.0700 H   0  0  0  0  0  0  0  0  0  0  0  0
   38.1620   31.5190   40.8850 C   0  0  0  0  0  3  0  0  0  0  0  0
   39.2800   32.1930   41.3270 C   0  0  0  0  0  3  0  0  0  0  0  0
   40.2730   32.5570   40.4400 C   0  0  0  0  0  0  0  0  0  0  0  0
   41.4010   33.2300   40.8470 C   0  0  0  0  0  3  0  0  0  0  0  0
  1 17  1  0  0  0  0
  1  2  1  0  0  0  0
  2  9  1  0  0  0  0
  3  2  2  0  0  0  0
  3  7  1  0  0  0  0
  4  3  1  0  0  0  0
  5  6  1  0  0  0  0
  5  4  2  0  0  0  0
  6  1  2  0  0  0  0
  8  5  1  0  0  0  0
  9 10  1  0  0  0  0
  9 13  2  0  0  0  0
 10 11  2  0  0  0  0
 11 12  1  0  0  0  0
 11 15  1  0  0  0  0
 12 16  1  0  0  0  0
 13 12  1  0  0  0  0
 14 10  1  0  0  0  0
 18 17  1  0  0  0  0
 19 18  2  0  0  0  0
 20 18  1  0  0  0  0
 20 31  1  0  0  0  0
 21 20  2  0  0  0  0
 22 21  1  0  0  0  0
 23 21  1  0  0  0  0
 23 24  2  0  0  0  0
 24 30  1  0  0  0  0
 25 24  1  0  0  0  0
 25 26  2  0  0  0  0
 26 28  1  0  0  0  0
 27 26  1  0  0  0  0
 28 29  2  0  0  0  0
 30 31  2  0  0  0  0
 30 29  1  0  0  0  0
M  END
>  <minimizedAffinity>
-6.17291164

>  <minimizedRMSD>
1.0038358

$$$$
