
 OpenBabel03252508513D

 31 34  0  0  0  0  0  0  0  0999 V2000
   45.8420   34.2190   41.0370 C   0  0  0  0  0  0  0  0  0  0  0  0
   46.4650   34.7820   42.1450 C   0  0  0  0  0  0  0  0  0  0  0  0
   47.8330   35.0620   42.0040 C   0  0  0  0  0  0  0  0  0  0  0  0
   48.4520   34.7740   40.8250 N   0  0  0  0  0  0  0  0  0  0  0  0
   47.8030   34.2360   39.7990 C   0  0  0  0  0  0  0  0  0  0  0  0
   46.4930   33.9520   39.8930 N   0  0  0  0  0  0  0  0  0  0  0  0
   48.3540   35.5010   42.8470 H   0  0  0  0  0  0  0  0  0  0  0  0
   48.2570   33.9940   38.8490 H   0  0  0  0  0  0  0  0  0  0  0  0
   45.7120   35.0460   43.3500 C   0  0  0  0  0  0  0  0  0  0  0  0
   45.0980   36.2680   43.6040 C   0  0  0  0  0  0  0  0  0  0  0  0
   44.5070   36.0770   44.8350 C   0  0  0  0  0  0  0  0  0  0  0  0
   44.7440   34.8210   45.3010 N   0  0  0  0  0  0  0  0  0  0  0  0
   45.4730   34.2270   44.3810 N   0  0  0  0  0  0  0  0  0  0  0  0
   45.0460   37.1950   43.0320 H   0  0  0  0  0  0  0  0  0  0  0  0
   43.9180   36.8010   45.4020 H   0  0  0  0  0  0  0  0  0  0  0  0
   44.4050   34.4200   46.2160 H   0  0  0  0  0  0  0  0  0  0  0  0
   44.4920   33.9240   41.1270 O   0  0  0  0  0  0  0  0  0  0  0  0
   43.4480   34.6800   40.6790 C   0  0  0  0  0  0  0  0  0  0  0  0
   43.3030   35.9480   40.7910 O   0  0  0  0  0  0  0  0  0  0  0  0
   42.2610   34.1270   39.9670 C   0  0  0  0  0  0  0  0  0  0  0  0
   41.0740   34.8120   39.8750 C   0  0  0  0  0  0  0  0  0  0  0  0
   40.9470   35.7890   40.3160 H   0  0  0  0  0  0  0  0  0  0  0  0
   39.9650   34.2780   39.2050 C   0  0  0  0  0  3  0  0  0  0  0  0
   40.0520   33.0360   38.6180 C   0  0  0  0  0  0  0  0  0  0  0  0
   39.0070   32.4950   37.9680 N   0  0  0  0  0  0  0  0  0  0  0  0
   39.1210   31.2690   37.3990 C   0  0  0  0  0  0  0  0  0  0  0  0
   38.2300   30.9070   36.8930 H   0  0  0  0  0  0  0  0  0  0  0  0
   40.2800   30.4930   37.4340 C   0  0  0  0  0  3  0  0  0  0  0  0
   41.3430   31.0600   38.1050 C   0  0  0  0  0  3  0  0  0  0  0  0
   41.2180   32.3080   38.6810 C   0  0  0  0  0  0  0  0  0  0  0  0
   42.2550   32.9060   39.3570 C   0  0  0  0  0  3  0  0  0  0  0  0
  1 17  1  0  0  0  0
  1  2  1  0  0  0  0
  2  9  1  0  0  0  0
  3  2  2  0  0  0  0
  3  7  1  0  0  0  0
  4  3  1  0  0  0  0
  5  6  1  0  0  0  0
  5  4  2  0  0  0  0
  6  1  2  0  0  0  0
  8  5  1  0  0  0  0
  9 10  1  0  0  0  0
  9 13  2  0  0  0  0
 10 11  2  0  0  0  0
 11 12  1  0  0  0  0
 11 15  1  0  0  0  0
 12 16  1  0  0  0  0
 13 12  1  0  0  0  0
 14 10  1  0  0  0  0
 18 19  2  0  0  0  0
 18 17  1  0  0  0  0
 20 18  1  0  0  0  0
 21 20  1  0  0  0  0
 21 22  1  0  0  0  0
 23 21  2  0  0  0  0
 24 30  1  0  0  0  0
 24 23  1  0  0  0  0
 25 24  2  0  0  0  0
 26 28  2  0  0  0  0
 26 25  1  0  0  0  0
 27 26  1  0  0  0  0
 28 29  1  0  0  0  0
 29 30  2  0  0  0  0
 30 31  1  0  0  0  0
 31 20  2  0  0  0  0
M  END
>  <minimizedAffinity>
-5.91498041

>  <minimizedRMSD>
1.41637945

$$$$
