
     RDKit          3D

 35 38  0  0  0  0  0  0  0  0999 V2000
   46.0828   34.1610   41.0144 C   0  0  0  0  0  0  0  0  0  0  0  0
   46.6120   34.8327   42.1111 C   0  0  0  0  0  0  0  0  0  0  0  0
   47.9392   35.2732   41.9801 C   0  0  0  0  0  0  0  0  0  0  0  0
   48.6102   35.0240   40.8205 N   0  0  0  0  0  0  0  0  0  0  0  0
   48.0497   34.3758   39.8048 C   0  0  0  0  0  0  0  0  0  0  0  0
   46.7826   33.9379   39.8902 N   0  0  0  0  0  0  0  0  0  0  0  0
   45.8096   35.0429   43.2940 C   0  0  0  0  0  0  0  0  0  0  0  0
   45.0460   36.1875   43.4949 C   0  0  0  0  0  0  0  0  0  0  0  0
   44.4608   35.9669   44.7236 C   0  0  0  0  0  0  0  0  0  0  0  0
   44.8420   34.7675   45.2379 N   0  0  0  0  0  0  0  0  0  0  0  0
   45.6552   34.2359   44.3509 N   0  0  0  0  0  0  0  0  0  0  0  0
   44.7781   33.7069   41.0947 O   0  0  0  0  0  0  0  0  0  0  0  0
   43.6906   34.1869   40.4255 C   0  0  0  0  0  0  0  0  0  0  0  0
   43.2513   35.3898   40.4203 O   0  0  0  0  0  0  0  0  0  0  0  0
   48.3862   35.8005   42.8141 H   0  0  0  0  0  0  0  0  0  0  0  0
   48.5479   34.1598   38.8715 H   0  0  0  0  0  0  0  0  0  0  0  0
   44.8909   37.0806   42.8893 H   0  0  0  0  0  0  0  0  0  0  0  0
   43.7767   36.6321   45.2563 H   0  0  0  0  0  0  0  0  0  0  0  0
   44.5382   34.3592   46.1633 H   0  0  0  0  0  0  0  0  0  0  0  0
   42.8054   33.3538   39.5634 C   0  0  0  0  0  0  0  0  0  0  0  0
   41.5512   32.9581   39.9623 C   0  0  0  0  0  0  0  0  0  0  0  0
   41.1472   33.2372   40.9241 H   0  0  0  0  0  0  0  0  0  0  0  0
   40.7318   32.1724   39.1422 C   0  0  0  0  0  0  0  0  0  0  0  0
   41.1784   31.7775   37.9017 C   0  0  0  0  0  0  0  0  0  0  0  0
   40.4175   31.0233   37.0899 N   0  0  0  0  0  0  0  0  0  0  0  0
   40.8828   30.6491   35.8738 C   0  0  0  0  0  0  0  0  0  0  0  0
   40.2042   30.0412   35.2822 H   0  0  0  0  0  0  0  0  0  0  0  0
   42.1397   30.9967   35.3739 C   0  0  0  0  0  0  0  0  0  0  0  0
   42.9098   31.7704   36.2170 C   0  0  0  0  0  0  0  0  0  0  0  0
   42.4263   32.1463   37.4537 C   0  0  0  0  0  0  0  0  0  0  0  0
   43.1651   32.9169   38.3209 C   0  0  0  0  0  0  0  0  0  0  0  0
   39.7455   31.8789   39.4919 H   0  0  0  0  0  0  0  0  0  0  0  0
   42.4586   30.6714   34.3994 H   0  0  0  0  0  0  0  0  0  0  0  0
   43.8779   32.0640   35.8849 H   0  0  0  0  0  0  0  0  0  0  0  0
   44.1600   33.2034   37.9484 H   0  0  0  0  0  0  0  0  0  0  0  0
  1 12  1  0
  1  2  1  0
  2  7  1  0
  3  2  2  0
  4  3  1  0
  5  6  1  0
  5  4  2  0
  6  1  2  0
  7  8  1  0
  7 11  2  0
  8  9  2  0
  9 10  1  0
 11 10  1  0
 13 14  2  0
 13 12  1  0
  3 15  1  0
  5 16  1  0
  8 17  1  0
  9 18  1  0
 10 19  1  0
 20 21  2  0
 21 22  1  0
 21 23  1  0
 23 24  2  0
 24 25  1  0
 25 26  2  0
 26 27  1  0
 26 28  1  0
 28 29  2  0
 29 30  1  0
 30 31  2  0
 31 20  1  0
 30 24  1  0
 23 32  1  0
 28 33  1  0
 29 34  1  0
 31 35  1  0
 13 20  1  0
M  ISO  7  15  14  16  14  17  14  18  14  19   9  22  16  27  16
M  END
>  <DihAtoms>  (1) 
13,12,19,20

>  <DihDeg>  (1) 
0.3655992770106738

$$$$
