
 OpenBabel03252508503D

 31 34  0  0  0  0  0  0  0  0999 V2000
   46.0000   34.1840   41.0620 C   0  0  0  0  0  0  0  0  0  0  0  0
   46.5630   34.8280   42.1590 C   0  0  0  0  0  0  0  0  0  0  0  0
   47.9030   35.2220   42.0200 C   0  0  0  0  0  0  0  0  0  0  0  0
   48.5540   34.9590   40.8530 N   0  0  0  0  0  0  0  0  0  0  0  0
   47.9630   34.3400   39.8370 C   0  0  0  0  0  0  0  0  0  0  0  0
   46.6820   33.9460   39.9300 N   0  0  0  0  0  0  0  0  0  0  0  0
   48.3760   35.7260   42.8540 H   0  0  0  0  0  0  0  0  0  0  0  0
   48.4450   34.1140   38.8970 H   0  0  0  0  0  0  0  0  0  0  0  0
   45.7790   35.0560   43.3510 C   0  0  0  0  0  0  0  0  0  0  0  0
   45.0540   36.2240   43.5660 C   0  0  0  0  0  0  0  0  0  0  0  0
   44.4740   36.0140   44.8000 C   0  0  0  0  0  0  0  0  0  0  0  0
   44.8210   34.8000   45.3030 N   0  0  0  0  0  0  0  0  0  0  0  0
   45.6080   34.2480   44.4050 N   0  0  0  0  0  0  0  0  0  0  0  0
   44.9220   37.1250   42.9670 H   0  0  0  0  0  0  0  0  0  0  0  0
   43.8170   36.6980   45.3420 H   0  0  0  0  0  0  0  0  0  0  0  0
   44.5130   34.3960   46.2290 H   0  0  0  0  0  0  0  0  0  0  0  0
   44.6810   33.7760   41.1510 O   0  0  0  0  0  0  0  0  0  0  0  0
   43.5910   34.3670   40.5830 C   0  0  0  0  0  0  0  0  0  0  0  0
   43.3110   35.6160   40.5570 O   0  0  0  0  0  0  0  0  0  0  0  0
   42.5070   33.6220   39.8800 C   0  0  0  0  0  0  0  0  0  0  0  0
   42.5390   32.2580   39.7190 C   0  0  0  0  0  0  0  0  0  0  0  0
   43.3540   31.6600   40.0980 H   0  0  0  0  0  0  0  0  0  0  0  0
   41.5150   31.5720   39.0520 C   0  0  0  0  0  3  0  0  0  0  0  0
   40.4440   32.2670   38.5400 C   0  0  0  0  0  0  0  0  0  0  0  0
   39.4440   31.6400   37.8960 N   0  0  0  0  0  0  0  0  0  0  0  0
   38.4020   32.3500   37.4020 C   0  0  0  0  0  0  0  0  0  0  0  0
   37.6380   31.7660   36.8960 H   0  0  0  0  0  0  0  0  0  0  0  0
   38.2730   33.7360   37.5120 C   0  0  0  0  0  3  0  0  0  0  0  0
   39.3050   34.3660   38.1770 C   0  0  0  0  0  3  0  0  0  0  0  0
   40.3630   33.6350   38.6750 C   0  0  0  0  0  0  0  0  0  0  0  0
   41.4090   34.2280   39.3420 C   0  0  0  0  0  3  0  0  0  0  0  0
  1 17  1  0  0  0  0
  1  2  1  0  0  0  0
  2  9  1  0  0  0  0
  3  2  2  0  0  0  0
  3  7  1  0  0  0  0
  4  3  1  0  0  0  0
  5  6  1  0  0  0  0
  5  4  2  0  0  0  0
  6  1  2  0  0  0  0
  8  5  1  0  0  0  0
  9 10  1  0  0  0  0
  9 13  2  0  0  0  0
 10 11  2  0  0  0  0
 11 12  1  0  0  0  0
 11 15  1  0  0  0  0
 12 16  1  0  0  0  0
 13 12  1  0  0  0  0
 14 10  1  0  0  0  0
 18 17  1  0  0  0  0
 19 18  2  0  0  0  0
 20 18  1  0  0  0  0
 21 20  1  0  0  0  0
 21 22  1  0  0  0  0
 23 21  2  0  0  0  0
 24 30  1  0  0  0  0
 24 23  1  0  0  0  0
 25 24  2  0  0  0  0
 26 28  2  0  0  0  0
 26 25  1  0  0  0  0
 27 26  1  0  0  0  0
 28 29  1  0  0  0  0
 29 30  2  0  0  0  0
 30 31  1  0  0  0  0
 31 20  2  0  0  0  0
M  END
>  <minimizedAffinity>
-6.47887707

>  <minimizedRMSD>
0.649139345

$$$$
