
 OpenBabel03242519103D

 50 54  0  0  1  0  0  0  0  0999 V2000
   49.1790   32.0900   36.9930 C   0  0  0  0  0  0  0  0  0  0  0  0
   48.3030   32.9050   37.7320 C   0  0  0  0  0  0  0  0  0  0  0  0
   47.0760   33.0420   37.1540 C   0  0  0  0  0  0  0  0  0  0  0  0
   46.6530   32.4800   35.9800 C   0  0  0  0  0  0  0  0  0  0  0  0
   47.5420   31.6870   35.2870 C   0  0  0  0  0  0  0  0  0  0  0  0
   48.7990   31.5040   35.8100 C   0  0  0  0  0  0  0  0  0  0  0  0
   46.3500   33.6660   37.6810 H   0  0  0  0  0  0  0  0  0  0  0  0
   45.6560   32.6410   35.5910 H   0  0  0  0  0  0  0  0  0  0  0  0
   47.2750   31.2140   34.3570 H   0  0  0  0  0  0  0  0  0  0  0  0
   50.2180   31.1570   33.8480 C   0  0  0  0  0  0  0  0  0  0  0  0
   49.9450   32.3250   33.4430 O   0  0  0  0  0  0  0  0  0  0  0  0
   49.7070   30.6750   35.0730 N   0  0  0  0  0  0  0  0  0  0  0  0
   49.9790   29.7450   35.4310 H   0  0  0  0  0  0  0  0  0  0  0  0
   51.0820   30.3590   32.9800 C   0  0  0  0  0  0  0  0  0  0  0  0
   50.5350   29.2910   32.3090 C   0  0  0  0  0  0  0  0  0  0  0  0
   49.4980   29.0020   32.3840 H   0  0  0  0  0  0  0  0  0  0  0  0
   51.3100   28.4890   31.4640 C   0  0  0  0  0  3  0  0  0  0  0  0
   52.6550   28.7690   31.2930 C   0  0  0  0  0  0  0  0  0  0  0  0
   53.3680   27.9750   30.4730 N   0  0  0  0  0  0  0  0  0  0  0  0
   54.6970   28.1930   30.2580 C   0  0  0  0  0  0  0  0  0  0  0  0
   55.2280   27.5320   29.5920 H   0  0  0  0  0  0  0  0  0  0  0  0
   55.2840   29.2570   30.9140 C   0  0  0  0  0  3  0  0  0  0  0  0
   54.5510   30.0880   31.7700 C   0  0  0  0  0  3  0  0  0  0  0  0
   53.1970   29.8460   31.9730 C   0  0  0  0  0  0  0  0  0  0  0  0
   52.4230   30.6350   32.8070 C   0  0  0  0  0  3  0  0  0  0  0  0
   48.6480   33.5240   38.9460 N   0  0  0  0  0  0  0  0  0  0  0  0
   49.4690   34.1590   38.7680 H   0  0  0  0  0  0  0  0  0  0  0  0
   47.5830   34.3830   42.2300 N   0  0  0  0  0  0  0  0  0  0  0  0
   47.6790   34.7620   40.8350 C   0  0  0  0  0  0  0  0  0  0  0  0
   48.1150   33.4390   40.2650 C   0  0  2  0  0  0  0  0  0  0  0  0
   49.2430   33.0530   41.1980 C   0  0  0  0  0  0  0  0  0  0  0  0
   48.7560   33.6090   42.5170 C   0  0  0  0  0  0  0  0  0  0  0  0
   46.7030   35.0960   40.4390 H   0  0  0  0  0  0  0  0  0  0  0  0
   48.4720   35.5100   40.6690 H   0  0  0  0  0  0  0  0  0  0  0  0
   47.2940   32.7030   40.3940 H   0  0  0  0  0  0  0  0  0  0  0  0
   50.2000   33.5600   40.9150 H   0  0  0  0  0  0  0  0  0  0  0  0
   49.3700   31.9610   41.2220 H   0  0  0  0  0  0  0  0  0  0  0  0
   49.5330   34.1960   43.0560 H   0  0  0  0  0  0  0  0  0  0  0  0
   48.4510   32.7470   43.1450 H   0  0  0  0  0  0  0  0  0  0  0  0
   44.7330   35.8850   44.1040 C   0  0  0  0  0  0  0  0  0  0  0  0
   45.6680   35.6950   43.0970 C   0  0  0  0  0  0  0  0  0  0  0  0
   46.6000   34.6570   43.1940 C   0  0  0  0  0  0  0  0  0  0  0  0
   46.5290   33.8740   44.3030 N   0  0  0  0  0  0  0  0  0  0  0  0
   45.6260   34.0560   45.2770 C   0  0  0  0  0  0  0  0  0  0  0  0
   44.7240   35.0720   45.1690 N   0  0  0  0  0  0  0  0  0  0  0  0
   44.0660   36.7180   43.9200 H   0  0  0  0  0  0  0  0  0  0  0  0
   45.7800   36.2730   42.1990 H   0  0  0  0  0  0  0  0  0  0  0  0
   45.5550   33.4490   46.1580 H   0  0  0  0  0  0  0  0  0  0  0  0
   51.5740   31.7190   37.9620 N   0  0  0  0  0  0  0  0  0  0  0  0
   50.5190   31.8850   37.5360 C   0  0  0  0  0  0  0  0  0  0  0  0
  1 50  1  0  0  0  0
  1  2  1  0  0  0  0
  2 26  1  0  0  0  0
  3  7  1  0  0  0  0
  3  2  2  0  0  0  0
  4  3  1  0  0  0  0
  5  6  1  0  0  0  0
  5  4  2  0  0  0  0
  6  1  2  0  0  0  0
  8  4  1  0  0  0  0
  9  5  1  0  0  0  0
 10 12  1  0  0  0  0
 11 10  2  0  0  0  0
 12 13  1  0  0  0  0
 12  6  1  0  0  0  0
 14 10  1  0  0  0  0
 15 16  1  0  0  0  0
 15 14  2  0  0  0  0
 17 15  1  0  0  0  0
 18 17  2  0  0  0  0
 18 24  1  0  0  0  0
 19 18  1  0  0  0  0
 20 19  2  0  0  0  0
 20 22  1  0  0  0  0
 21 20  1  0  0  0  0
 22 23  2  0  0  0  0
 23 24  1  0  0  0  0
 24 25  2  0  0  0  0
 25 14  1  0  0  0  0
 26 30  1  0  0  0  0
 27 26  1  0  0  0  0
 28 32  1  0  0  0  0
 28 42  1  0  0  0  0
 29 28  1  0  0  0  0
 30 35  1  1  0  0  0
 30 29  1  0  0  0  0
 30 31  1  0  0  0  0
 31 37  1  0  0  0  0
 31 32  1  0  0  0  0
 32 38  1  0  0  0  0
 32 39  1  0  0  0  0
 33 29  1  0  0  0  0
 34 29  1  0  0  0  0
 36 31  1  0  0  0  0
 40 45  1  0  0  0  0
 41 42  1  0  0  0  0
 41 40  2  0  0  0  0
 42 43  2  0  0  0  0
 43 44  1  0  0  0  0
 44 48  1  0  0  0  0
 45 44  2  0  0  0  0
 46 40  1  0  0  0  0
 47 41  1  0  0  0  0
 50 49  3  0  0  0  0
M  END
>  <minimizedAffinity>
-6.19964981

>  <minimizedRMSD>
0.931413472

$$$$
