
 OpenBabel03242520073D

 52 57  0  0  1  0  0  0  0  0999 V2000
   47.8790   29.5960   48.5590 N   0  0  0  0  0  0  0  0  0  0  0  0
   46.8610   30.4690   48.1280 C   0  0  1  0  0  0  0  0  0  0  0  0
   46.9230   31.7270   48.9450 C   0  0  0  0  0  0  0  0  0  0  0  0
   48.1770   32.3380   48.6030 N   0  0  0  0  0  0  0  0  0  0  0  0
   49.3020   31.5620   49.0720 C   0  0  0  0  0  0  0  0  0  0  0  0
   49.1610   30.0800   48.8950 C   0  0  2  0  0  0  0  0  0  0  0  0
   47.4770   28.8780   49.2090 H   0  0  0  0  0  0  0  0  0  0  0  0
   45.8810   30.0230   48.2850 H   0  0  0  0  0  0  0  0  0  0  0  0
   46.1290   32.4600   48.6900 H   0  0  0  0  0  0  0  0  0  0  0  0
   46.9190   31.5070   50.0230 H   0  0  0  0  0  0  0  0  0  0  0  0
   48.2540   32.6590   47.6310 H   0  0  0  0  0  0  0  0  0  0  0  0
   50.1820   31.9920   48.5130 H   0  0  0  0  0  0  0  0  0  0  0  0
   49.4780   31.8900   50.1170 H   0  0  0  0  0  0  0  0  0  0  0  0
   49.3800   29.6470   49.9160 H   0  0  0  0  0  0  0  0  0  0  0  0
   47.8010   30.8570   44.7440 C   0  0  0  0  0  0  0  0  0  0  0  0
   46.7320   31.7330   44.7900 C   0  0  0  0  0  0  0  0  0  0  0  0
   46.2300   31.7130   46.0540 C   0  0  0  0  0  0  0  0  0  0  0  0
   46.9920   30.8360   46.7550 N   0  0  0  0  0  0  0  0  0  0  0  0
   47.9220   30.3360   45.9540 N   0  0  0  0  0  0  0  0  0  0  0  0
   46.3580   32.3230   43.9870 H   0  0  0  0  0  0  0  0  0  0  0  0
   45.3940   32.2770   46.4420 H   0  0  0  0  0  0  0  0  0  0  0  0
   50.3630   29.4310   42.5400 C   0  0  0  0  0  0  0  0  0  0  0  0
   50.1520   30.0840   41.3240 C   0  0  0  0  0  0  0  0  0  0  0  0
   49.1250   31.0100   41.2820 C   0  0  0  0  0  0  0  0  0  0  0  0
   48.3980   31.2210   42.4150 N   0  0  0  0  0  0  0  0  0  0  0  0
   48.6370   30.5670   43.5670 C   0  0  0  0  0  0  0  0  0  0  0  0
   49.6250   29.6620   43.6400 N   0  0  0  0  0  0  0  0  0  0  0  0
   51.1580   28.6810   42.6560 H   0  0  0  0  0  0  0  0  0  0  0  0
   50.7900   29.8410   40.4810 H   0  0  0  0  0  0  0  0  0  0  0  0
   48.9310   31.5360   40.3610 H   0  0  0  0  0  0  0  0  0  0  0  0
   50.2430   29.6440   47.9330 C   0  0  1  0  0  0  0  0  0  0  0  0
   51.5480   30.4260   48.0100 C   0  0  0  0  0  0  0  0  0  0  0  0
   51.4840   28.9940   48.3920 C   0  0  1  0  0  0  0  0  0  0  0  0
   49.9630   29.4460   46.8570 H   0  0  0  0  0  0  0  0  0  0  0  0
   52.0620   30.7540   47.1070 H   0  0  0  0  0  0  0  0  0  0  0  0
   51.6720   31.1200   48.8790 H   0  0  0  0  0  0  0  0  0  0  0  0
   51.9830   28.2710   47.7020 H   0  0  0  0  0  0  0  0  0  0  0  0
   51.6320   28.5710   49.8560 C   0  0  0  0  0  0  0  0  0  0  0  0
   52.6840   28.3570   50.1200 H   0  0  0  0  0  0  0  0  0  0  0  0
   51.1460   29.2900   50.5480 H   0  0  0  0  0  0  0  0  0  0  0  0
   50.9140   27.2740   50.0170 C   0  0  0  0  0  0  0  0  0  0  0  0
   51.3750   26.3420   50.9230 C   0  0  0  0  0  0  0  0  0  0  0  0
   52.2560   26.5050   51.5420 H   0  0  0  0  0  0  0  0  0  0  0  0
   50.7250   25.1310   51.0910 C   0  0  0  0  0  3  0  0  0  0  0  0
   49.6090   24.8790   50.3330 C   0  0  0  0  0  0  0  0  0  0  0  0
   48.9210   23.7330   50.4330 N   0  0  0  0  0  0  0  0  0  0  0  0
   47.8250   23.4320   49.7180 C   0  0  0  0  0  0  0  0  0  0  0  0
   47.2710   22.5210   49.7930 H   0  0  0  0  0  0  0  0  0  0  0  0
   47.3140   24.3270   48.7940 C   0  0  0  0  0  3  0  0  0  0  0  0
   47.9820   25.5410   48.6390 C   0  0  0  0  0  3  0  0  0  0  0  0
   49.1040   25.7890   49.4040 C   0  0  0  0  0  0  0  0  0  0  0  0
   49.7880   26.9830   49.2740 C   0  0  0  0  0  3  0  0  0  0  0  0
  1  6  1  0  0  0  0
  1  7  1  0  0  0  0
  2  8  1  1  0  0  0
  2  1  1  0  0  0  0
  2  3  1  0  0  0  0
  3 10  1  0  0  0  0
  4  3  1  0  0  0  0
  4  5  1  0  0  0  0
  5 13  1  0  0  0  0
  6  5  1  0  0  0  0
  6 14  1  1  0  0  0
  9  3  1  0  0  0  0
 11  4  1  0  0  0  0
 12  5  1  0  0  0  0
 15 16  1  0  0  0  0
 15 19  2  0  0  0  0
 16 17  2  0  0  0  0
 17 21  1  0  0  0  0
 17 18  1  0  0  0  0
 18  2  1  0  0  0  0
 19 18  1  0  0  0  0
 20 16  1  0  0  0  0
 22 28  1  0  0  0  0
 22 27  1  0  0  0  0
 23 22  2  0  0  0  0
 24 23  1  0  0  0  0
 24 25  2  0  0  0  0
 25 26  1  0  0  0  0
 26 27  2  0  0  0  0
 26 15  1  0  0  0  0
 29 23  1  0  0  0  0
 30 24  1  0  0  0  0
 31 34  1  6  0  0  0
 31 32  1  0  0  0  0
 31 33  1  0  0  0  0
 31  6  1  0  0  0  0
 32 33  1  0  0  0  0
 32 36  1  0  0  0  0
 33 37  1  6  0  0  0
 33 38  1  0  0  0  0
 35 32  1  0  0  0  0
 38 41  1  0  0  0  0
 38 39  1  0  0  0  0
 38 40  1  0  0  0  0
 41 42  1  0  0  0  0
 42 44  2  0  0  0  0
 42 43  1  0  0  0  0
 45 46  1  0  0  0  0
 45 44  1  0  0  0  0
 47 48  1  0  0  0  0
 47 46  2  0  0  0  0
 49 47  1  0  0  0  0
 50 49  2  0  0  0  0
 50 51  1  0  0  0  0
 51 45  2  0  0  0  0
 52 51  1  0  0  0  0
 52 41  2  0  0  0  0
M  END
>  <minimizedAffinity>
-4.06012964

>  <minimizedRMSD>
7.07570887

$$$$
