
 OpenBabel03242519103D

 50 54  0  0  1  0  0  0  0  0999 V2000
   49.2820   32.0770   37.0210 C   0  0  0  0  0  0  0  0  0  0  0  0
   48.4040   32.8880   37.7610 C   0  0  0  0  0  0  0  0  0  0  0  0
   47.1800   33.0320   37.1770 C   0  0  0  0  0  0  0  0  0  0  0  0
   46.7630   32.4810   35.9950 C   0  0  0  0  0  0  0  0  0  0  0  0
   47.6550   31.6930   35.3020 C   0  0  0  0  0  0  0  0  0  0  0  0
   48.9080   31.5020   35.8300 C   0  0  0  0  0  0  0  0  0  0  0  0
   46.4520   33.6520   37.7050 H   0  0  0  0  0  0  0  0  0  0  0  0
   45.7690   32.6480   35.6020 H   0  0  0  0  0  0  0  0  0  0  0  0
   47.3930   31.2280   34.3650 H   0  0  0  0  0  0  0  0  0  0  0  0
   50.2870   31.1410   33.8420 C   0  0  0  0  0  0  0  0  0  0  0  0
   49.9720   32.2910   33.4140 O   0  0  0  0  0  0  0  0  0  0  0  0
   49.8190   30.6780   35.0920 N   0  0  0  0  0  0  0  0  0  0  0  0
   50.1250   29.7650   35.4660 H   0  0  0  0  0  0  0  0  0  0  0  0
   51.1500   30.3430   32.9720 C   0  0  0  0  0  0  0  0  0  0  0  0
   50.6030   29.2700   32.3080 C   0  0  0  0  0  0  0  0  0  0  0  0
   49.5680   28.9780   32.3880 H   0  0  0  0  0  0  0  0  0  0  0  0
   51.3770   28.4690   31.4630 C   0  0  0  0  0  3  0  0  0  0  0  0
   52.7200   28.7520   31.2840 C   0  0  0  0  0  0  0  0  0  0  0  0
   53.4330   27.9590   30.4630 N   0  0  0  0  0  0  0  0  0  0  0  0
   54.7610   28.1810   30.2420 C   0  0  0  0  0  0  0  0  0  0  0  0
   55.2900   27.5190   29.5760 H   0  0  0  0  0  0  0  0  0  0  0  0
   55.3460   29.2490   30.8930 C   0  0  0  0  0  3  0  0  0  0  0  0
   54.6140   30.0800   31.7480 C   0  0  0  0  0  3  0  0  0  0  0  0
   53.2600   29.8350   31.9580 C   0  0  0  0  0  0  0  0  0  0  0  0
   52.4890   30.6220   32.7930 C   0  0  0  0  0  3  0  0  0  0  0  0
   48.7420   33.4960   38.9830 N   0  0  0  0  0  0  0  0  0  0  0  0
   49.5760   34.1170   38.8190 H   0  0  0  0  0  0  0  0  0  0  0  0
   47.6260   34.3660   42.2470 N   0  0  0  0  0  0  0  0  0  0  0  0
   47.7420   34.7390   40.8520 C   0  0  0  0  0  0  0  0  0  0  0  0
   48.1890   33.4150   40.2940 C   0  0  2  0  0  0  0  0  0  0  0  0
   49.3040   33.0340   41.2450 C   0  0  0  0  0  0  0  0  0  0  0  0
   48.7950   33.5940   42.5550 C   0  0  0  0  0  0  0  0  0  0  0  0
   46.7710   35.0700   40.4400 H   0  0  0  0  0  0  0  0  0  0  0  0
   48.5360   35.4880   40.6950 H   0  0  0  0  0  0  0  0  0  0  0  0
   47.3680   32.6780   40.4130 H   0  0  0  0  0  0  0  0  0  0  0  0
   50.2640   33.5420   40.9750 H   0  0  0  0  0  0  0  0  0  0  0  0
   49.4320   31.9430   41.2760 H   0  0  0  0  0  0  0  0  0  0  0  0
   49.5630   34.1850   43.1030 H   0  0  0  0  0  0  0  0  0  0  0  0
   48.4820   32.7340   43.1810 H   0  0  0  0  0  0  0  0  0  0  0  0
   44.7410   35.8650   44.0680 C   0  0  0  0  0  0  0  0  0  0  0  0
   45.6900   35.6730   43.0760 C   0  0  0  0  0  0  0  0  0  0  0  0
   46.6280   34.6410   43.1940 C   0  0  0  0  0  0  0  0  0  0  0  0
   46.5460   33.8670   44.3090 N   0  0  0  0  0  0  0  0  0  0  0  0
   45.6280   34.0520   45.2690 C   0  0  0  0  0  0  0  0  0  0  0  0
   44.7210   35.0610   45.1390 N   0  0  0  0  0  0  0  0  0  0  0  0
   44.0710   36.6920   43.8670 H   0  0  0  0  0  0  0  0  0  0  0  0
   45.8110   36.2430   42.1750 H   0  0  0  0  0  0  0  0  0  0  0  0
   45.5490   33.4520   46.1540 H   0  0  0  0  0  0  0  0  0  0  0  0
   51.6710   31.6940   38.0000 N   0  0  0  0  0  0  0  0  0  0  0  0
   50.6180   31.8650   37.5700 C   0  0  0  0  0  0  0  0  0  0  0  0
  1 50  1  0  0  0  0
  1  2  1  0  0  0  0
  2 26  1  0  0  0  0
  3  7  1  0  0  0  0
  3  2  2  0  0  0  0
  4  3  1  0  0  0  0
  5  6  1  0  0  0  0
  5  4  2  0  0  0  0
  6  1  2  0  0  0  0
  8  4  1  0  0  0  0
  9  5  1  0  0  0  0
 10 12  1  0  0  0  0
 11 10  2  0  0  0  0
 12 13  1  0  0  0  0
 12  6  1  0  0  0  0
 14 10  1  0  0  0  0
 15 16  1  0  0  0  0
 15 14  2  0  0  0  0
 17 15  1  0  0  0  0
 18 17  2  0  0  0  0
 18 24  1  0  0  0  0
 19 18  1  0  0  0  0
 20 19  2  0  0  0  0
 20 22  1  0  0  0  0
 21 20  1  0  0  0  0
 22 23  2  0  0  0  0
 23 24  1  0  0  0  0
 24 25  2  0  0  0  0
 25 14  1  0  0  0  0
 26 30  1  0  0  0  0
 27 26  1  0  0  0  0
 28 32  1  0  0  0  0
 28 42  1  0  0  0  0
 29 28  1  0  0  0  0
 30 35  1  1  0  0  0
 30 29  1  0  0  0  0
 30 31  1  0  0  0  0
 31 37  1  0  0  0  0
 31 32  1  0  0  0  0
 32 38  1  0  0  0  0
 32 39  1  0  0  0  0
 33 29  1  0  0  0  0
 34 29  1  0  0  0  0
 36 31  1  0  0  0  0
 40 45  1  0  0  0  0
 41 42  1  0  0  0  0
 41 40  2  0  0  0  0
 42 43  2  0  0  0  0
 43 44  1  0  0  0  0
 44 48  1  0  0  0  0
 45 44  2  0  0  0  0
 46 40  1  0  0  0  0
 47 41  1  0  0  0  0
 50 49  3  0  0  0  0
M  END
>  <minimizedAffinity>
-6.2254405

>  <minimizedRMSD>
1.00922751

$$$$
