REMARK  Name = 
REMARK  4 active torsions:
REMARK  status: ('A' for Active; 'I' for Inactive)
REMARK    1  A    between atoms: C_1  and  C_10
REMARK    2  A    between atoms: C_6  and  C_18
REMARK    3  A    between atoms: C_7  and  C_16
REMARK    4  A    between atoms: C_18  and  C_35
REMARK                            x       y       z     vdW  Elec       q    Type
REMARK                         _______ _______ _______ _____ _____    ______ ____
ROOT
ATOM      1  C   UNL     1      47.569  29.979  48.264  0.00  0.00    +0.000 C 
ATOM      2  C   UNL     1      47.446  28.784  47.382  0.00  0.00    +0.000 C 
ATOM      3  C   UNL     1      48.730  28.031  47.181  0.00  0.00    +0.000 C 
ATOM      4  C   UNL     1      49.507  27.848  48.462  0.00  0.00    +0.000 C 
ATOM      5  C   UNL     1      49.574  29.104  49.270  0.00  0.00    +0.000 C 
ATOM      6  C   UNL     1      49.071  30.312  48.443  0.00  0.00    +0.000 C 
ATOM      7  H   UNL     1      47.207  29.752  49.276  0.00  0.00    +0.000 HD
ATOM      8  H   UNL     1      47.043  29.019  46.379  0.00  0.00    +0.000 HD
ATOM      9  H   UNL     1      46.713  28.066  47.837  0.00  0.00    +0.000 HD
ATOM     10  H   UNL     1      48.501  27.052  46.759  0.00  0.00    +0.000 HD
ATOM     11  H   UNL     1      49.393  28.573  46.472  0.00  0.00    +0.000 HD
ATOM     12  H   UNL     1      50.527  27.522  48.201  0.00  0.00    +0.000 HD
ATOM     13  H   UNL     1      49.021  27.017  49.029  0.00  0.00    +0.000 HD
ATOM     14  H   UNL     1      48.848  29.025  50.113  0.00  0.00    +0.000 HD
ATOM     15  H   UNL     1      50.601  29.293  49.648  0.00  0.00    +0.000 HD
ATOM     16  H   UNL     1      49.566  30.331  47.450  0.00  0.00    +0.000 HD
ENDROOT
BRANCH   1  20
ATOM     17  C   UNL     1      45.916  33.138  46.240  0.00  0.00    +0.000 A 
ATOM     18  C   UNL     1      45.349  32.941  47.497  0.00  0.00    +0.000 A 
ATOM     19  C   UNL     1      45.801  31.942  48.244  0.00  0.00    +0.000 A 
ATOM     20  C   UNL     1      46.836  31.103  47.770  0.00  0.00    +0.000 A 
ATOM     21  S   UNL     1      47.176  31.800  46.126  0.00  0.00    +0.000 S 
ATOM     22  H   UNL     1      44.560  33.589  47.854  0.00  0.00    +0.000 HD
ATOM     23  H   UNL     1      45.483  31.643  49.229  0.00  0.00    +0.000 HD
BRANCH  17  28
ATOM     24  C   UNL     1      44.426  36.089  44.536  0.00  0.00    +0.000 A 
ATOM     25  C   UNL     1      45.055  36.025  43.294  0.00  0.00    +0.000 A 
ATOM     26  C   UNL     1      45.961  34.976  43.098  0.00  0.00    +0.000 A 
ATOM     27  N   UNL     1      46.170  34.092  44.118  0.00  0.00    +0.000 NA
ATOM     28  C   UNL     1      45.532  34.207  45.292  0.00  0.00    +0.000 A 
ATOM     29  N   UNL     1      44.654  35.213  45.500  0.00  0.00    +0.000 NA
ATOM     30  H   UNL     1      43.721  36.894  44.709  0.00  0.00    +0.000 HD
ATOM     31  H   UNL     1      44.890  36.724  42.485  0.00  0.00    +0.000 HD
ATOM     32  H   UNL     1      46.480  34.863  42.173  0.00  0.00    +0.000 HD
ENDBRANCH  17  28
ENDBRANCH   1  20
BRANCH   6  33
ATOM     33  C   UNL     1      49.240  31.526  49.215  0.00  0.00    +0.000 C 
ATOM     34  O   UNL     1      49.946  31.556  50.223  0.00  0.00    +0.000 OA
BRANCH  33  35
ATOM     35  C   UNL     1      48.878  32.904  49.304  0.00  0.00    +0.000 A 
ATOM     36  C   UNL     1      47.638  33.498  49.372  0.00  0.00    +0.000 A 
ATOM     37  H   UNL     1      46.822  32.796  49.117  0.00  0.00    +0.000 HD
ATOM     38  C   UNL     1      47.184  34.765  49.614  0.00  0.00    +0.000 A 
ATOM     39  C   UNL     1      48.222  35.623  49.834  0.00  0.00    +0.000 A 
ATOM     40  N   UNL     1      47.942  36.916  50.091  0.00  0.00    +0.000 NA
ATOM     41  C   UNL     1      48.876  37.856  50.325  0.00  0.00    +0.000 A 
ATOM     42  H   UNL     1      48.523  38.860  50.519  0.00  0.00    +0.000 HD
ATOM     43  C   UNL     1      50.203  37.480  50.303  0.00  0.00    +0.000 A 
ATOM     44  C   UNL     1      50.578  36.176  50.048  0.00  0.00    +0.000 A 
ATOM     45  C   UNL     1      49.551  35.287  49.820  0.00  0.00    +0.000 A 
ATOM     46  C   UNL     1      49.806  33.956  49.557  0.00  0.00    +0.000 A 
ENDBRANCH  33  35
ENDBRANCH   6  33
TORSDOF 4
