
 OpenBabel03242523163D

 30 33  0  0  0  0  0  0  0  0999 V2000
   45.9040   34.5390   43.8270 C   0  0  0  0  0  0  0  0  0  0  0  0
   47.0210   33.8530   43.4920 C   0  0  0  0  0  0  0  0  0  0  0  0
   47.4730   32.9590   44.4350 C   0  0  0  0  0  0  0  0  0  0  0  0
   46.7600   32.8380   45.6280 N   0  0  0  0  0  0  0  0  0  0  0  0
   45.6590   33.5490   45.8960 C   0  0  0  0  0  0  0  0  0  0  0  0
   45.1940   34.4430   44.9740 N   0  0  0  0  0  0  0  0  0  0  0  0
   48.3700   32.3670   44.2400 H   0  0  0  0  0  0  0  0  0  0  0  0
   45.3560   33.2220   46.8800 H   0  0  0  0  0  0  0  0  0  0  0  0
   47.7710   34.0280   42.3040 C   0  0  0  0  0  0  0  0  0  0  0  0
   48.0250   35.1420   41.5620 C   0  0  0  0  0  0  0  0  0  0  0  0
   49.2170   34.6790   42.4040 C   0  0  0  0  0  0  0  0  0  0  0  0
   48.1110   32.9680   41.9320 H   0  0  0  0  0  0  0  0  0  0  0  0
   47.5970   36.1640   41.8350 H   0  0  0  0  0  0  0  0  0  0  0  0
   48.2790   35.1490   40.4680 H   0  0  0  0  0  0  0  0  0  0  0  0
   49.3820   35.2800   43.3270 H   0  0  0  0  0  0  0  0  0  0  0  0
   50.0580   34.2340   41.9120 H   0  0  0  0  0  0  0  0  0  0  0  0
   45.1220   35.4820   43.0220 C   0  0  0  0  0  0  0  0  0  0  0  0
   44.7930   36.6110   42.6680 O   0  0  0  0  0  0  0  0  0  0  0  0
   44.1530   34.8980   42.0580 C   0  0  0  0  0  0  0  0  0  0  0  0
   44.0030   33.5110   42.0640 C   0  0  0  0  0  0  0  0  0  0  0  0
   44.5440   32.9120   42.8160 H   0  0  0  0  0  0  0  0  0  0  0  0
   43.2210   32.7340   41.2170 C   0  0  0  0  0  3  0  0  0  0  0  0
   42.5230   33.4500   40.2640 C   0  0  0  0  0  0  0  0  0  0  0  0
   41.7540   32.7670   39.3980 N   0  0  0  0  0  0  0  0  0  0  0  0
   41.0440   33.4000   38.4170 C   0  0  0  0  0  0  0  0  0  0  0  0
   40.4200   32.8640   37.7120 H   0  0  0  0  0  0  0  0  0  0  0  0
   41.1390   34.7810   38.3360 C   0  0  0  0  0  3  0  0  0  0  0  0
   41.9310   35.5180   39.2250 C   0  0  0  0  0  3  0  0  0  0  0  0
   42.6290   34.8210   40.2020 C   0  0  0  0  0  0  0  0  0  0  0  0
   43.4150   35.5530   41.0640 C   0  0  0  0  0  3  0  0  0  0  0  0
  1  6  1  0  0  0  0
  2  1  2  0  0  0  0
  2  3  1  0  0  0  0
  3  4  2  0  0  0  0
  4  5  1  0  0  0  0
  5  8  1  0  0  0  0
  6  5  2  0  0  0  0
  7  3  1  0  0  0  0
  9 11  1  0  0  0  0
  9  2  1  0  0  0  0
 10 13  1  0  0  0  0
 10  9  1  0  0  0  0
 10 11  1  0  0  0  0
 11 15  1  0  0  0  0
 12  9  1  0  0  0  0
 14 10  1  0  0  0  0
 16 11  1  0  0  0  0
 17  1  1  0  0  0  0
 18 17  2  0  0  0  0
 19 20  1  0  0  0  0
 19 17  1  0  0  0  0
 20 21  1  0  0  0  0
 22 20  2  0  0  0  0
 23 22  1  0  0  0  0
 24 23  2  0  0  0  0
 25 24  1  0  0  0  0
 26 25  1  0  0  0  0
 27 25  2  0  0  0  0
 27 28  1  0  0  0  0
 28 29  2  0  0  0  0
 29 23  1  0  0  0  0
 29 30  1  0  0  0  0
 30 19  2  0  0  0  0
M  END
>  <minimizedAffinity>
-5.76808596

>  <minimizedRMSD>
1.10762131

$$$$
