REMARK  Name = 
REMARK  5 active torsions:
REMARK  status: ('A' for Active; 'I' for Inactive)
REMARK    1  A    between atoms: C_1  and  C_5
REMARK    2  A    between atoms: C_3  and  N_10
REMARK    3  A    between atoms: C_11  and  C_13
REMARK    4  A    between atoms: C_15  and  C_16
REMARK    5  A    between atoms: C_16  and  C_30
REMARK                            x       y       z     vdW  Elec       q    Type
REMARK                         _______ _______ _______ _____ _____    ______ ____
ROOT
ATOM      1  C   UNL     1      49.109  33.882  40.990  0.00  0.00    +0.000 C 
ATOM      2  C   UNL     1      48.613  35.374  40.896  0.00  0.00    +0.000 C 
ATOM      3  C   UNL     1      47.823  34.218  40.372  0.00  0.00    +0.000 C 
ATOM      4  H   UNL     1      49.995  33.756  40.336  0.00  0.00    +0.000 HD
ATOM      5  H   UNL     1      48.262  35.801  41.858  0.00  0.00    +0.000 HD
ATOM      6  H   UNL     1      49.068  36.015  40.147  0.00  0.00    +0.000 HD
ATOM      7  H   UNL     1      46.966  33.795  40.945  0.00  0.00    +0.000 HD
ENDROOT
BRANCH   1   9
ATOM      8  N   UNL     1      48.035  33.250  43.170  0.00  0.00    +0.000 N 
ATOM      9  C   UNL     1      49.185  33.291  42.388  0.00  0.00    +0.000 C 
ATOM     10  O   UNL     1      50.357  32.904  42.630  0.00  0.00    +0.000 OA
ATOM     11  H   UNL     1      47.489  34.160  43.083  0.00  0.00    +0.000 HD
BRANCH   8  14
ATOM     12  C   UNL     1      46.319  32.134  44.552  0.00  0.00    +0.000 C 
ATOM     13  C   UNL     1      46.448  31.357  43.394  0.00  0.00    +0.000 C 
ATOM     14  C   UNL     1      47.679  32.127  43.963  0.00  0.00    +0.000 C 
ATOM     15  H   UNL     1      46.161  31.694  45.566  0.00  0.00    +0.000 HD
ATOM     16  H   UNL     1      46.554  30.235  43.510  0.00  0.00    +0.000 HD
ATOM     17  H   UNL     1      46.167  31.587  42.348  0.00  0.00    +0.000 HD
ATOM     18  H   UNL     1      48.507  31.460  44.251  0.00  0.00    +0.000 HD
BRANCH  12  20
ATOM     19  C   UNL     1      45.060  33.969  43.195  0.00  0.00    +0.000 A 
ATOM     20  C   UNL     1      45.554  33.462  44.443  0.00  0.00    +0.000 A 
ATOM     21  C   UNL     1      45.343  34.229  45.573  0.00  0.00    +0.000 A 
ATOM     22  N   UNL     1      44.691  35.407  45.458  0.00  0.00    +0.000 NA
ATOM     23  C   UNL     1      44.228  35.874  44.260  0.00  0.00    +0.000 A 
ATOM     24  N   UNL     1      44.425  35.123  43.102  0.00  0.00    +0.000 NA
ATOM     25  H   UNL     1      45.214  33.350  42.333  0.00  0.00    +0.000 HD
ATOM     26  H   UNL     1      45.691  33.899  46.541  0.00  0.00    +0.000 HD
ATOM     27  H   UNL     1      43.724  36.834  44.310  0.00  0.00    +0.000 HD
ENDBRANCH  12  20
ENDBRANCH   8  14
ENDBRANCH   1   9
BRANCH   3  28
ATOM     28  C   UNL     1      47.714  34.067  38.873  0.00  0.00    +0.000 C 
ATOM     29  O   UNL     1      48.469  34.696  38.138  0.00  0.00    +0.000 OA
BRANCH  28  30
ATOM     30  C   UNL     1      46.721  33.180  38.272  0.00  0.00    +0.000 A 
ATOM     31  C   UNL     1      46.976  32.100  37.454  0.00  0.00    +0.000 A 
ATOM     32  H   UNL     1      48.006  31.872  37.221  0.00  0.00    +0.000 HD
ATOM     33  C   UNL     1      45.995  31.300  36.919  0.00  0.00    +0.000 A 
ATOM     34  C   UNL     1      44.669  31.555  37.188  0.00  0.00    +0.000 A 
ATOM     35  N   UNL     1      43.714  30.779  36.670  0.00  0.00    +0.000 NA
ATOM     36  C   UNL     1      42.401  31.033  36.938  0.00  0.00    +0.000 A 
ATOM     37  H   UNL     1      41.660  30.360  36.482  0.00  0.00    +0.000 HD
ATOM     38  C   UNL     1      42.057  32.103  37.754  0.00  0.00    +0.000 A 
ATOM     39  C   UNL     1      43.047  32.903  38.288  0.00  0.00    +0.000 A 
ATOM     40  C   UNL     1      44.359  32.621  38.000  0.00  0.00    +0.000 A 
ATOM     41  C   UNL     1      45.378  33.389  38.509  0.00  0.00    +0.000 A 
ENDBRANCH  28  30
ENDBRANCH   3  28
TORSDOF 5
