
 OpenBabel03242523163D

 30 33  0  0  0  0  0  0  0  0999 V2000
   46.2330   34.4670   43.6800 C   0  0  0  0  0  0  0  0  0  0  0  0
   47.3610   33.8640   43.2380 C   0  0  0  0  0  0  0  0  0  0  0  0
   47.7830   32.7820   43.9770 C   0  0  0  0  0  0  0  0  0  0  0  0
   47.0310   32.4080   45.0900 N   0  0  0  0  0  0  0  0  0  0  0  0
   45.9220   33.0500   45.4730 C   0  0  0  0  0  0  0  0  0  0  0  0
   45.4860   34.1270   44.7550 N   0  0  0  0  0  0  0  0  0  0  0  0
   48.6860   32.2410   43.6850 H   0  0  0  0  0  0  0  0  0  0  0  0
   45.5880   32.5170   46.3500 H   0  0  0  0  0  0  0  0  0  0  0  0
   48.1490   34.2910   42.1420 C   0  0  0  0  0  0  0  0  0  0  0  0
   48.4460   35.5390   41.6850 C   0  0  0  0  0  0  0  0  0  0  0  0
   49.6030   34.8640   42.4260 C   0  0  0  0  0  0  0  0  0  0  0  0
   48.4810   33.3360   41.5430 H   0  0  0  0  0  0  0  0  0  0  0  0
   48.0280   36.4800   42.1760 H   0  0  0  0  0  0  0  0  0  0  0  0
   48.7320   35.7920   40.6280 H   0  0  0  0  0  0  0  0  0  0  0  0
   49.7520   35.2320   43.4660 H   0  0  0  0  0  0  0  0  0  0  0  0
   50.4500   34.5250   41.8650 H   0  0  0  0  0  0  0  0  0  0  0  0
   45.4770   35.5690   43.0770 C   0  0  0  0  0  0  0  0  0  0  0  0
   45.1900   36.7550   42.9370 O   0  0  0  0  0  0  0  0  0  0  0  0
   44.4640   35.2050   42.0510 C   0  0  0  0  0  0  0  0  0  0  0  0
   43.1520   35.6200   42.2740 C   0  0  0  0  0  0  0  0  0  0  0  0
   42.9250   36.2510   43.1500 H   0  0  0  0  0  0  0  0  0  0  0  0
   42.0280   35.3430   41.5060 C   0  0  0  0  0  3  0  0  0  0  0  0
   42.2710   34.5580   40.3950 C   0  0  0  0  0  0  0  0  0  0  0  0
   41.2310   34.2350   39.6070 N   0  0  0  0  0  0  0  0  0  0  0  0
   41.3860   33.4510   38.5000 C   0  0  0  0  0  0  0  0  0  0  0  0
   40.5570   33.1820   37.8560 H   0  0  0  0  0  0  0  0  0  0  0  0
   42.6600   32.9900   38.2040 C   0  0  0  0  0  3  0  0  0  0  0  0
   43.7620   33.3120   39.0060 C   0  0  0  0  0  3  0  0  0  0  0  0
   43.5440   34.1130   40.1180 C   0  0  0  0  0  0  0  0  0  0  0  0
   44.6320   34.4140   40.9080 C   0  0  0  0  0  3  0  0  0  0  0  0
  1  6  1  0  0  0  0
  2  1  2  0  0  0  0
  2  3  1  0  0  0  0
  3  4  2  0  0  0  0
  4  5  1  0  0  0  0
  5  8  1  0  0  0  0
  6  5  2  0  0  0  0
  7  3  1  0  0  0  0
  9 11  1  0  0  0  0
  9  2  1  0  0  0  0
 10  9  1  0  0  0  0
 10 13  1  0  0  0  0
 10 11  1  0  0  0  0
 11 15  1  0  0  0  0
 12  9  1  0  0  0  0
 14 10  1  0  0  0  0
 16 11  1  0  0  0  0
 17  1  1  0  0  0  0
 18 17  2  0  0  0  0
 19 20  1  0  0  0  0
 19 17  1  0  0  0  0
 20 21  1  0  0  0  0
 22 20  2  0  0  0  0
 23 22  1  0  0  0  0
 24 23  2  0  0  0  0
 25 24  1  0  0  0  0
 26 25  1  0  0  0  0
 27 25  2  0  0  0  0
 27 28  1  0  0  0  0
 28 29  2  0  0  0  0
 29 23  1  0  0  0  0
 29 30  1  0  0  0  0
 30 19  2  0  0  0  0
M  END
>  <minimizedAffinity>
-5.71027184

>  <minimizedRMSD>
0.590317547

$$$$
