
     RDKit          3D

 54 58  0  0  0  0  0  0  0  0999 V2000
   47.5069   34.4928   42.4302 N   0  0  0  0  0  0  0  0  0  0  0  0
   47.5090   34.7314   41.0012 C   0  0  0  0  0  0  0  0  0  0  0  0
   48.1343   33.4381   40.5507 C   0  0  2  0  0  0  0  0  0  0  0  0
   49.3314   33.3321   41.4727 C   0  0  0  0  0  0  0  0  0  0  0  0
   48.7934   33.9437   42.7467 C   0  0  0  0  0  0  0  0  0  0  0  0
   44.6032   35.8509   44.3297 C   0  0  0  0  0  0  0  0  0  0  0  0
   45.5416   35.7144   43.3187 C   0  0  0  0  0  0  0  0  0  0  0  0
   46.5159   34.7126   43.3987 C   0  0  0  0  0  0  0  0  0  0  0  0
   46.4791   33.9119   44.4973 N   0  0  0  0  0  0  0  0  0  0  0  0
   45.5717   34.0438   45.4751 C   0  0  0  0  0  0  0  0  0  0  0  0
   44.6293   35.0241   45.3830 N   0  0  0  0  0  0  0  0  0  0  0  0
   48.6162   33.4628   39.2099 N   0  0  0  0  0  0  0  0  0  0  0  0
   48.8159   32.2688   37.0455 C   0  0  0  0  0  0  0  0  0  0  0  0
   48.0834   33.0064   37.9923 C   0  0  0  0  0  0  0  0  0  0  0  0
   46.7945   33.2401   37.6153 C   0  0  0  0  0  0  0  0  0  0  0  0
   46.1912   32.8363   36.4537 C   0  0  0  0  0  0  0  0  0  0  0  0
   46.9436   32.1164   35.5535 C   0  0  0  0  0  0  0  0  0  0  0  0
   48.2534   31.8419   35.8656 C   0  0  0  0  0  0  0  0  0  0  0  0
   49.4724   31.7442   33.7469 C   0  0  0  0  0  0  0  0  0  0  0  0
   49.2771   32.9841   33.5768 O   0  0  0  0  0  0  0  0  0  0  0  0
   49.0176   31.0911   34.9138 N   0  0  0  0  0  0  0  0  0  0  0  0
   51.3059   31.7301   37.6119 N   0  0  0  0  0  0  0  0  0  0  0  0
   50.2091   31.9698   37.3639 C   0  0  0  0  0  0  0  0  0  0  0  0
   46.4830   34.8661   40.6125 H   0  0  0  0  0  0  0  0  0  0  0  0
   48.1697   35.5700   40.7276 H   0  0  0  0  0  0  0  0  0  0  0  0
   47.4434   32.6017   40.7871 H   0  0  0  0  0  0  0  0  0  0  0  0
   50.1887   33.9476   41.1020 H   0  0  0  0  0  0  0  0  0  0  0  0
   49.6288   32.2825   41.6029 H   0  0  0  0  0  0  0  0  0  0  0  0
   49.4807   34.6981   43.1919 H   0  0  0  0  0  0  0  0  0  0  0  0
   48.6432   33.1165   43.4715 H   0  0  0  0  0  0  0  0  0  0  0  0
   43.9016   36.6587   44.1586 H   0  0  0  0  0  0  0  0  0  0  0  0
   45.6278   36.3080   42.4295 H   0  0  0  0  0  0  0  0  0  0  0  0
   45.5284   33.4215   46.3477 H   0  0  0  0  0  0  0  0  0  0  0  0
   49.5555   33.8952   39.0143 H   0  0  0  0  0  0  0  0  0  0  0  0
   46.1732   33.8090   38.3096 H   0  0  0  0  0  0  0  0  0  0  0  0
   45.1571   33.0662   36.2325 H   0  0  0  0  0  0  0  0  0  0  0  0
   46.5334   31.7671   34.6201 H   0  0  0  0  0  0  0  0  0  0  0  0
   49.2301   30.0939   35.0794 H   0  0  0  0  0  0  0  0  0  0  0  0
   50.1850   31.0506   32.6763 C   0  0  0  0  0  0  0  0  0  0  0  0
   51.5001   30.7020   32.8793 C   0  0  0  0  0  0  0  0  0  0  0  0
   52.0434   30.9103   33.7874 H   0  0  0  0  0  0  0  0  0  0  0  0
   52.2345   30.0371   31.8928 C   0  0  0  0  0  0  0  0  0  0  0  0
   51.6376   29.7187   30.6856 C   0  0  0  0  0  0  0  0  0  0  0  0
   52.3764   29.0784   29.7599 N   0  0  0  0  0  0  0  0  0  0  0  0
   51.8509   28.7350   28.5496 C   0  0  0  0  0  0  0  0  0  0  0  0
   52.4811   28.2230   27.8401 H   0  0  0  0  0  0  0  0  0  0  0  0
   50.5331   29.0680   28.3081 C   0  0  0  0  0  0  0  0  0  0  0  0
   49.7560   29.7334   29.2628 C   0  0  0  0  0  0  0  0  0  0  0  0
   50.3138   30.0739   30.4912 C   0  0  0  0  0  0  0  0  0  0  0  0
   49.5922   30.7319   31.4716 C   0  0  0  0  0  0  0  0  0  0  0  0
   53.2636   29.7608   32.0436 H   0  0  0  0  0  0  0  0  0  0  0  0
   50.0873   28.8090   27.3568 H   0  0  0  0  0  0  0  0  0  0  0  0
   48.7248   29.9842   29.0507 H   0  0  0  0  0  0  0  0  0  0  0  0
   48.5763   30.9874   31.2826 H   0  0  0  0  0  0  0  0  0  0  0  0
  1  5  1  0
  1  8  1  0
  2  1  1  0
  3  2  1  0
  3  4  1  0
  4  5  1  0
  6 11  2  0
  7  8  2  0
  7  6  1  0
  8  9  1  0
  9 10  2  0
 11 10  1  0
 12  3  1  0
 13 23  1  0
 13 14  2  0
 14 12  1  0
 15 14  1  0
 16 15  2  0
 17 18  2  0
 17 16  1  0
 18 13  1  0
 19 21  1  0
 20 19  2  0
 21 18  1  0
 23 22  3  0
  2 24  1  0
  2 25  1  0
  3 26  1  6
  4 27  1  0
  4 28  1  0
  5 29  1  0
  5 30  1  0
  6 31  1  0
  7 32  1  0
 10 33  1  0
 12 34  1  0
 15 35  1  0
 16 36  1  0
 17 37  1  0
 21 38  1  0
 39 40  2  0
 40 41  1  0
 40 42  1  0
 42 43  2  0
 43 44  1  0
 44 45  2  0
 45 46  1  0
 45 47  1  0
 47 48  2  0
 48 49  1  0
 49 50  2  0
 50 39  1  0
 49 43  1  0
 42 51  1  0
 47 52  1  0
 48 53  1  0
 50 54  1  0
 19 39  1  0
M  ISO  8  24  13  25  13  26  13  27  13  28  13  29  13  30  13  31  14
M  ISO  7  32  14  33  14  35  14  36  14  37  14  41  16  46  16
M  END
>  <DihAtoms>  (1) 
20,18,38,39

>  <DihDeg>  (1) 
-179.99238005733335

$$$$
