
 OpenBabel03252508503D

 31 34  0  0  0  0  0  0  0  0999 V2000
   46.0000   34.1840   41.0630 C   0  0  0  0  0  0  0  0  0  0  0  0
   46.5620   34.8270   42.1600 C   0  0  0  0  0  0  0  0  0  0  0  0
   47.9030   35.2210   42.0210 C   0  0  0  0  0  0  0  0  0  0  0  0
   48.5550   34.9580   40.8540 N   0  0  0  0  0  0  0  0  0  0  0  0
   47.9630   34.3390   39.8380 C   0  0  0  0  0  0  0  0  0  0  0  0
   46.6820   33.9450   39.9310 N   0  0  0  0  0  0  0  0  0  0  0  0
   48.3760   35.7250   42.8550 H   0  0  0  0  0  0  0  0  0  0  0  0
   48.4450   34.1130   38.8980 H   0  0  0  0  0  0  0  0  0  0  0  0
   45.7790   35.0560   43.3520 C   0  0  0  0  0  0  0  0  0  0  0  0
   45.0540   36.2230   43.5670 C   0  0  0  0  0  0  0  0  0  0  0  0
   44.4740   36.0140   44.8000 C   0  0  0  0  0  0  0  0  0  0  0  0
   44.8210   34.7990   45.3040 N   0  0  0  0  0  0  0  0  0  0  0  0
   45.6080   34.2480   44.4060 N   0  0  0  0  0  0  0  0  0  0  0  0
   44.9220   37.1240   42.9670 H   0  0  0  0  0  0  0  0  0  0  0  0
   43.8160   36.6970   45.3430 H   0  0  0  0  0  0  0  0  0  0  0  0
   44.5130   34.3960   46.2290 H   0  0  0  0  0  0  0  0  0  0  0  0
   44.6810   33.7750   41.1520 O   0  0  0  0  0  0  0  0  0  0  0  0
   43.5910   34.3670   40.5840 C   0  0  0  0  0  0  0  0  0  0  0  0
   43.3110   35.6160   40.5570 O   0  0  0  0  0  0  0  0  0  0  0  0
   42.5070   33.6220   39.8800 C   0  0  0  0  0  0  0  0  0  0  0  0
   42.5390   32.2570   39.7190 C   0  0  0  0  0  0  0  0  0  0  0  0
   43.3540   31.6600   40.0980 H   0  0  0  0  0  0  0  0  0  0  0  0
   41.5150   31.5720   39.0520 C   0  0  0  0  0  0  0  0  0  0  0  0
   40.4430   32.2670   38.5410 C   0  0  0  0  0  0  0  0  0  0  0  0
   39.4450   31.6400   37.8950 N   0  0  0  0  0  0  0  0  0  0  0  0
   38.4020   32.3500   37.4030 C   0  0  0  0  0  0  0  0  0  0  0  0
   37.6390   31.7650   36.8960 H   0  0  0  0  0  0  0  0  0  0  0  0
   38.2730   33.7360   37.5130 C   0  0  0  0  0  0  0  0  0  0  0  0
   39.3050   34.3670   38.1760 C   0  0  0  0  0  0  0  0  0  0  0  0
   40.3630   33.6350   38.6750 C   0  0  0  0  0  0  0  0  0  0  0  0
   41.4090   34.2280   39.3430 C   0  0  0  0  0  0  0  0  0  0  0  0
  1 17  1  0  0  0  0
  1  2  1  0  0  0  0
  2  9  1  0  0  0  0
  3  2  2  0  0  0  0
  3  7  1  0  0  0  0
  4  3  1  0  0  0  0
  5  6  1  0  0  0  0
  5  4  2  0  0  0  0
  6  1  2  0  0  0  0
  8  5  1  0  0  0  0
  9 10  1  0  0  0  0
  9 13  2  0  0  0  0
 10 11  2  0  0  0  0
 11 12  1  0  0  0  0
 11 15  1  0  0  0  0
 12 16  1  0  0  0  0
 13 12  1  0  0  0  0
 14 10  1  0  0  0  0
 18 17  1  0  0  0  0
 19 18  2  0  0  0  0
 20 18  1  0  0  0  0
 21 20  1  0  0  0  0
 21 22  1  0  0  0  0
 23 21  2  0  0  0  0
 24 30  1  0  0  0  0
 24 23  1  0  0  0  0
 25 24  2  0  0  0  0
 26 28  2  0  0  0  0
 26 25  1  0  0  0  0
 27 26  1  0  0  0  0
 28 29  1  0  0  0  0
 29 30  2  0  0  0  0
 30 31  1  0  0  0  0
 31 20  2  0  0  0  0
M  END
>  <minimizedAffinity>
-6.48161983

>  <minimizedRMSD>
0.60489136

$$$$
