
 OpenBabel03252507163D

 32 35  0  0  0  0  0  0  0  0999 V2000
   45.1220   36.1290   43.3700 C   0  0  0  0  0  0  0  0  0  0  0  0
   45.7430   34.9160   43.0150 C   0  0  0  0  0  0  0  0  0  0  0  0
   45.7940   33.9340   44.0030 C   0  0  0  0  0  0  0  0  0  0  0  0
   45.2680   34.1740   45.2090 N   0  0  0  0  0  0  0  0  0  0  0  0
   44.6720   35.3590   45.5290 C   0  0  0  0  0  0  0  0  0  0  0  0
   44.6160   36.3040   44.5960 N   0  0  0  0  0  0  0  0  0  0  0  0
   45.0450   36.9430   42.6500 H   0  0  0  0  0  0  0  0  0  0  0  0
   44.3100   35.3610   46.5500 H   0  0  0  0  0  0  0  0  0  0  0  0
   46.4330   32.6540   43.6700 C   0  0  0  0  0  0  0  0  0  0  0  0
   45.6500   31.5660   43.3650 C   0  0  0  0  0  0  0  0  0  0  0  0
   46.3050   30.3870   43.0600 C   0  0  0  0  0  0  0  0  0  0  0  0
   47.6800   30.2280   43.0400 C   0  0  0  0  0  0  0  0  0  0  0  0
   48.3950   31.3790   43.3590 C   0  0  0  0  0  0  0  0  0  0  0  0
   47.7610   32.5270   43.6570 N   0  0  0  0  0  0  0  0  0  0  0  0
   44.5670   31.6030   43.3580 H   0  0  0  0  0  0  0  0  0  0  0  0
   45.7230   29.4980   42.8130 H   0  0  0  0  0  0  0  0  0  0  0  0
   48.1600   29.3080   42.8010 H   0  0  0  0  0  0  0  0  0  0  0  0
   49.4770   31.3450   43.3680 H   0  0  0  0  0  0  0  0  0  0  0  0
   46.2850   34.7150   41.7150 C   0  0  0  0  0  0  0  0  0  0  0  0
   47.4350   35.2070   41.4880 O   0  0  0  0  0  0  0  0  0  0  0  0
   45.5830   33.9820   40.6670 C   0  0  0  0  0  0  0  0  0  0  0  0
   46.2010   33.1540   39.7400 C   0  0  0  0  0  0  0  0  0  0  0  0
   47.2740   33.0700   39.8300 H   0  0  0  0  0  0  0  0  0  0  0  0
   45.4050   32.5130   38.7910 C   0  0  0  0  0  3  0  0  0  0  0  0
   44.0380   32.6980   38.7740 C   0  0  0  0  0  0  0  0  0  0  0  0
   43.3210   32.0580   37.8380 N   0  0  0  0  0  0  0  0  0  0  0  0
   41.9650   32.1940   37.7630 C   0  0  0  0  0  0  0  0  0  0  0  0
   41.4720   31.6400   36.9770 H   0  0  0  0  0  0  0  0  0  0  0  0
   41.3010   33.0190   38.6780 C   0  0  0  0  0  3  0  0  0  0  0  0
   42.0560   33.6820   39.6500 C   0  0  0  0  0  3  0  0  0  0  0  0
   43.4200   33.5170   39.6890 C   0  0  0  0  0  0  0  0  0  0  0  0
   44.1960   34.1560   40.6340 C   0  0  0  0  0  3  0  0  0  0  0  0
  1  6  1  0  0  0  0
  2  1  2  0  0  0  0
  2  3  1  0  0  0  0
  3  4  2  0  0  0  0
  4  5  1  0  0  0  0
  5  8  1  0  0  0  0
  6  5  2  0  0  0  0
  7  1  1  0  0  0  0
  9  3  1  0  0  0  0
 10  9  2  0  0  0  0
 11 10  1  0  0  0  0
 12 11  2  0  0  0  0
 12 13  1  0  0  0  0
 13 18  1  0  0  0  0
 13 14  2  0  0  0  0
 14  9  1  0  0  0  0
 15 10  1  0  0  0  0
 16 11  1  0  0  0  0
 17 12  1  0  0  0  0
 19  2  1  0  0  0  0
 20 19  2  0  0  0  0
 21 19  1  0  0  0  0
 22 23  1  0  0  0  0
 22 21  2  0  0  0  0
 24 22  1  0  0  0  0
 25 24  2  0  0  0  0
 25 31  1  0  0  0  0
 26 25  1  0  0  0  0
 27 26  2  0  0  0  0
 27 29  1  0  0  0  0
 28 27  1  0  0  0  0
 29 30  2  0  0  0  0
 30 31  1  0  0  0  0
 31 32  2  0  0  0  0
 32 21  1  0  0  0  0
M  END
>  <minimizedAffinity>
-5.12987185

>  <minimizedRMSD>
1.22015047

$$$$
