
 OpenBabel03242513533D

 42 45  0  0  1  0  0  0  0  0999 V2000
   39.6460   33.3290   39.4880 C   0  0  2  0  0  0  0  0  0  0  0  0
   38.6980   34.3270   40.0830 C   0  0  0  0  0  0  0  0  0  0  0  0
   37.3810   33.6940   39.6820 C   0  0  0  0  0  0  0  0  0  0  0  0
   37.5960   32.2610   39.8370 C   0  0  0  0  0  0  0  0  0  0  0  0
   39.1640   32.0490   40.1230 C   0  0  2  0  0  0  0  0  0  0  0  0
   39.4640   33.2070   38.3930 H   0  0  0  0  0  0  0  0  0  0  0  0
   38.8150   34.4230   41.1600 H   0  0  0  0  0  0  0  0  0  0  0  0
   38.8420   35.2770   39.5300 H   0  0  0  0  0  0  0  0  0  0  0  0
   36.5990   34.1390   40.3350 H   0  0  0  0  0  0  0  0  0  0  0  0
   37.1760   34.0150   38.6340 H   0  0  0  0  0  0  0  0  0  0  0  0
   37.0660   31.8570   40.7410 H   0  0  0  0  0  0  0  0  0  0  0  0
   37.3570   31.6570   38.9440 H   0  0  0  0  0  0  0  0  0  0  0  0
   39.4520   31.1320   39.5900 H   0  0  0  0  0  0  0  0  0  0  0  0
   42.9230   34.5350   40.8570 C   0  0  0  0  0  0  0  0  0  0  0  0
   41.5250   34.4610   40.6850 C   0  0  0  0  0  0  0  0  0  0  0  0
   41.0760   33.5600   39.7800 C   0  0  0  0  0  0  0  0  0  0  0  0
   42.0030   32.7750   39.0870 N   0  0  0  0  0  0  0  0  0  0  0  0
   43.3200   32.8690   39.2730 C   0  0  0  0  0  0  0  0  0  0  0  0
   43.7810   33.7510   40.1600 N   0  0  0  0  0  0  0  0  0  0  0  0
   43.2800   35.2590   41.5830 H   0  0  0  0  0  0  0  0  0  0  0  0
   40.8410   35.0810   41.2350 H   0  0  0  0  0  0  0  0  0  0  0  0
   43.9490   32.2180   38.6880 H   0  0  0  0  0  0  0  0  0  0  0  0
   39.3120   32.0200   41.4970 O   0  0  0  0  0  0  0  0  0  0  0  0
   39.5440   30.9130   42.2680 C   0  0  0  0  0  0  0  0  0  0  0  0
   40.6270   31.1390   42.9390 O   0  0  0  0  0  0  0  0  0  0  0  0
   39.1370   29.5660   42.6990 C   0  0  0  0  0  3  0  0  0  0  0  0
   37.9030   29.0930   42.9570 C   0  0  0  0  0  3  0  0  0  0  0  0
   37.4220   27.7620   43.3930 C   0  0  0  0  0  0  0  0  0  0  0  0
   36.5010   27.9350   43.9970 H   0  0  0  0  0  0  0  0  0  0  0  0
   38.2340   27.2940   43.9880 H   0  0  0  0  0  0  0  0  0  0  0  0
   37.1240   26.8770   42.2180 C   0  0  0  0  0  0  0  0  0  0  0  0
   37.1020   25.5000   42.4540 C   0  0  0  0  0  0  0  0  0  0  0  0
   37.2970   25.1260   43.4660 H   0  0  0  0  0  0  0  0  0  0  0  0
   36.8460   24.5440   41.4930 C   0  0  0  0  0  3  0  0  0  0  0  0
   36.6000   25.0050   40.2220 C   0  0  0  0  0  0  0  0  0  0  0  0
   36.3490   24.0890   39.2670 N   0  0  0  0  0  0  0  0  0  0  0  0
   36.0990   24.4840   37.9930 C   0  0  0  0  0  0  0  0  0  0  0  0
   35.9050   23.6910   37.2820 H   0  0  0  0  0  0  0  0  0  0  0  0
   36.1090   25.8360   37.7090 C   0  0  0  0  0  3  0  0  0  0  0  0
   36.3630   26.7960   38.6610 C   0  0  0  0  0  3  0  0  0  0  0  0
   36.6150   26.3640   39.9530 C   0  0  0  0  0  0  0  0  0  0  0  0
   36.8730   27.2960   40.9350 C   0  0  0  0  0  3  0  0  0  0  0  0
  1  6  1  6  0  0  0
  1 16  1  0  0  0  0
  1  2  1  0  0  0  0
  1  5  1  0  0  0  0
  2  7  1  0  0  0  0
  3  4  1  0  0  0  0
  3  2  1  0  0  0  0
  3  9  1  0  0  0  0
  4  5  1  0  0  0  0
  4 11  1  0  0  0  0
  5 13  1  6  0  0  0
  5 23  1  0  0  0  0
  8  2  1  0  0  0  0
 10  3  1  0  0  0  0
 12  4  1  0  0  0  0
 14 20  1  0  0  0  0
 15 14  1  0  0  0  0
 15 21  1  0  0  0  0
 16 15  2  0  0  0  0
 17 18  2  0  0  0  0
 17 16  1  0  0  0  0
 18 19  1  0  0  0  0
 19 14  2  0  0  0  0
 22 18  1  0  0  0  0
 23 24  1  0  0  0  0
 24 26  1  0  0  0  0
 24 25  2  0  0  0  0
 26 27  2  0  0  0  0
 27 28  1  0  0  0  0
 28 30  1  0  0  0  0
 28 29  1  0  0  0  0
 31 32  1  0  0  0  0
 31 28  1  0  0  0  0
 32 33  1  0  0  0  0
 34 32  2  0  0  0  0
 35 34  1  0  0  0  0
 36 35  2  0  0  0  0
 37 36  1  0  0  0  0
 38 37  1  0  0  0  0
 39 37  2  0  0  0  0
 39 40  1  0  0  0  0
 40 41  2  0  0  0  0
 41 35  1  0  0  0  0
 41 42  1  0  0  0  0
 42 31  2  0  0  0  0
M  END
>  <minimizedAffinity>
-6.1501298

$$$$

 OpenBabel03242513533D

 42 45  0  0  1  0  0  0  0  0999 V2000
   40.1720   33.4070   39.1270 C   0  0  2  0  0  0  0  0  0  0  0  0
   39.9360   34.5290   40.0930 C   0  0  0  0  0  0  0  0  0  0  0  0
   38.5080   34.2210   40.4920 C   0  0  0  0  0  0  0  0  0  0  0  0
   38.4490   32.7670   40.5720 C   0  0  0  0  0  0  0  0  0  0  0  0
   39.8360   32.2080   39.9780 C   0  0  2  0  0  0  0  0  0  0  0  0
   39.4130   33.4160   38.3090 H   0  0  0  0  0  0  0  0  0  0  0  0
   40.6280   34.5090   40.9320 H   0  0  0  0  0  0  0  0  0  0  0  0
   39.9690   35.4700   39.5080 H   0  0  0  0  0  0  0  0  0  0  0  0
   38.3160   34.7650   41.4430 H   0  0  0  0  0  0  0  0  0  0  0  0
   37.8520   34.6630   39.7060 H   0  0  0  0  0  0  0  0  0  0  0  0
   38.4100   32.4100   41.6360 H   0  0  0  0  0  0  0  0  0  0  0  0
   37.6450   32.3020   39.9750 H   0  0  0  0  0  0  0  0  0  0  0  0
   39.5840   31.2990   39.4160 H   0  0  0  0  0  0  0  0  0  0  0  0
   43.8070   33.9020   38.3420 C   0  0  0  0  0  0  0  0  0  0  0  0
   42.5480   34.1560   38.9260 C   0  0  0  0  0  0  0  0  0  0  0  0
   41.5470   33.3080   38.5930 C   0  0  0  0  0  0  0  0  0  0  0  0
   41.8140   32.2550   37.7120 N   0  0  0  0  0  0  0  0  0  0  0  0
   43.0170   32.0420   37.1770 C   0  0  0  0  0  0  0  0  0  0  0  0
   44.0150   32.8670   37.4920 N   0  0  0  0  0  0  0  0  0  0  0  0
   44.6070   34.5840   38.6100 H   0  0  0  0  0  0  0  0  0  0  0  0
   42.3770   34.9760   39.6000 H   0  0  0  0  0  0  0  0  0  0  0  0
   43.1180   31.2020   36.5090 H   0  0  0  0  0  0  0  0  0  0  0  0
   40.6830   32.0360   41.0560 O   0  0  0  0  0  0  0  0  0  0  0  0
   40.5770   31.0800   42.0300 C   0  0  0  0  0  0  0  0  0  0  0  0
   41.6120   31.2030   42.7970 O   0  0  0  0  0  0  0  0  0  0  0  0
   39.8310   29.9590   42.6240 C   0  0  0  0  0  3  0  0  0  0  0  0
   38.5140   29.8590   42.8860 C   0  0  0  0  0  3  0  0  0  0  0  0
   37.6990   28.7740   43.4790 C   0  0  0  0  0  0  0  0  0  0  0  0
   36.7270   29.2280   43.7790 H   0  0  0  0  0  0  0  0  0  0  0  0
   38.2620   28.3730   44.3480 H   0  0  0  0  0  0  0  0  0  0  0  0
   37.4820   27.6570   42.5010 C   0  0  0  0  0  0  0  0  0  0  0  0
   36.8530   27.9850   41.2970 C   0  0  0  0  0  0  0  0  0  0  0  0
   36.5500   29.0230   41.1160 H   0  0  0  0  0  0  0  0  0  0  0  0
   36.5740   27.0880   40.2870 C   0  0  0  0  0  3  0  0  0  0  0  0
   36.9520   25.7850   40.5070 C   0  0  0  0  0  0  0  0  0  0  0  0
   36.6900   24.8900   39.5340 N   0  0  0  0  0  0  0  0  0  0  0  0
   37.0390   23.5890   39.6930 C   0  0  0  0  0  0  0  0  0  0  0  0
   36.7960   22.9300   38.8690 H   0  0  0  0  0  0  0  0  0  0  0  0
   37.6640   23.2140   40.8670 C   0  0  0  0  0  3  0  0  0  0  0  0
   37.9450   24.1020   41.8790 C   0  0  0  0  0  3  0  0  0  0  0  0
   37.5770   25.4250   41.6890 C   0  0  0  0  0  0  0  0  0  0  0  0
   37.8430   26.3440   42.6800 C   0  0  0  0  0  3  0  0  0  0  0  0
  1  6  1  6  0  0  0
  1  5  1  0  0  0  0
  1  2  1  0  0  0  0
  2  3  1  0  0  0  0
  2  7  1  0  0  0  0
  3  4  1  0  0  0  0
  3  9  1  0  0  0  0
  4 11  1  0  0  0  0
  5 13  1  6  0  0  0
  5  4  1  0  0  0  0
  5 23  1  0  0  0  0
  8  2  1  0  0  0  0
 10  3  1  0  0  0  0
 12  4  1  0  0  0  0
 14 20  1  0  0  0  0
 14 15  1  0  0  0  0
 15 21  1  0  0  0  0
 16 15  2  0  0  0  0
 16  1  1  0  0  0  0
 17 16  1  0  0  0  0
 18 19  1  0  0  0  0
 18 17  2  0  0  0  0
 19 14  2  0  0  0  0
 22 18  1  0  0  0  0
 23 24  1  0  0  0  0
 24 26  1  0  0  0  0
 24 25  2  0  0  0  0
 26 27  2  0  0  0  0
 27 28  1  0  0  0  0
 28 29  1  0  0  0  0
 28 30  1  0  0  0  0
 31 42  1  0  0  0  0
 31 28  1  0  0  0  0
 32 31  2  0  0  0  0
 33 32  1  0  0  0  0
 34 35  2  0  0  0  0
 34 32  1  0  0  0  0
 35 41  1  0  0  0  0
 36 37  2  0  0  0  0
 36 35  1  0  0  0  0
 37 39  1  0  0  0  0
 38 37  1  0  0  0  0
 39 40  2  0  0  0  0
 41 40  1  0  0  0  0
 41 42  2  0  0  0  0
M  END
>  <minimizedAffinity>
-5.92899752

$$$$

 OpenBabel03242513533D

 42 45  0  0  1  0  0  0  0  0999 V2000
   37.4590   24.7280   41.7870 C   0  0  2  0  0  0  0  0  0  0  0  0
   38.6460   24.0410   41.1830 C   0  0  0  0  0  0  0  0  0  0  0  0
   37.9570   22.8410   40.5660 C   0  0  0  0  0  0  0  0  0  0  0  0
   36.6980   23.3620   40.0490 C   0  0  0  0  0  0  0  0  0  0  0  0
   36.5580   24.8720   40.5870 C   0  0  2  0  0  0  0  0  0  0  0  0
   36.9170   24.0490   42.4890 H   0  0  0  0  0  0  0  0  0  0  0  0
   39.1600   24.6610   40.4510 H   0  0  0  0  0  0  0  0  0  0  0  0
   39.2910   23.7130   42.0240 H   0  0  0  0  0  0  0  0  0  0  0  0
   38.6550   22.4250   39.8070 H   0  0  0  0  0  0  0  0  0  0  0  0
   37.8400   22.0850   41.3770 H   0  0  0  0  0  0  0  0  0  0  0  0
   36.7080   23.4400   38.9290 H   0  0  0  0  0  0  0  0  0  0  0  0
   35.7970   22.8250   40.3930 H   0  0  0  0  0  0  0  0  0  0  0  0
   35.4940   25.0170   40.8220 H   0  0  0  0  0  0  0  0  0  0  0  0
   37.2500   27.9800   43.6440 C   0  0  0  0  0  0  0  0  0  0  0  0
   36.8140   26.7550   43.0990 C   0  0  0  0  0  0  0  0  0  0  0  0
   37.7320   26.0430   42.4050 C   0  0  0  0  0  0  0  0  0  0  0  0
   39.0280   26.5520   42.2740 N   0  0  0  0  0  0  0  0  0  0  0  0
   39.4090   27.7160   42.8030 C   0  0  0  0  0  0  0  0  0  0  0  0
   38.5180   28.4310   43.4880 N   0  0  0  0  0  0  0  0  0  0  0  0
   36.5110   28.5500   44.1990 H   0  0  0  0  0  0  0  0  0  0  0  0
   35.8080   26.3930   43.2190 H   0  0  0  0  0  0  0  0  0  0  0  0
   40.4310   28.0180   42.6440 H   0  0  0  0  0  0  0  0  0  0  0  0
   37.0740   25.6890   39.5990 O   0  0  0  0  0  0  0  0  0  0  0  0
   36.4990   26.8270   39.1000 C   0  0  0  0  0  0  0  0  0  0  0  0
   35.9280   26.5070   37.9840 O   0  0  0  0  0  0  0  0  0  0  0  0
   36.2220   28.2660   39.2370 C   0  0  0  0  0  3  0  0  0  0  0  0
   36.1150   29.0080   40.3550 C   0  0  0  0  0  3  0  0  0  0  0  0
   35.8370   30.4470   40.5690 C   0  0  0  0  0  0  0  0  0  0  0  0
   35.3460   30.5350   41.5650 H   0  0  0  0  0  0  0  0  0  0  0  0
   35.1760   30.7840   39.7430 H   0  0  0  0  0  0  0  0  0  0  0  0
   37.0980   31.2590   40.5270 C   0  0  0  0  0  0  0  0  0  0  0  0
   37.0250   32.5070   39.9050 C   0  0  0  0  0  0  0  0  0  0  0  0
   36.0710   32.8410   39.4810 H   0  0  0  0  0  0  0  0  0  0  0  0
   38.0840   33.3830   39.7760 C   0  0  0  0  0  3  0  0  0  0  0  0
   39.2840   32.9720   40.3050 C   0  0  0  0  0  0  0  0  0  0  0  0
   40.3320   33.8110   40.1910 N   0  0  0  0  0  0  0  0  0  0  0  0
   41.5430   33.4600   40.6940 C   0  0  0  0  0  0  0  0  0  0  0  0
   42.3360   34.1860   40.5650 H   0  0  0  0  0  0  0  0  0  0  0  0
   41.6660   32.2340   41.3190 C   0  0  0  0  0  3  0  0  0  0  0  0
   40.6160   31.3560   41.4520 C   0  0  0  0  0  3  0  0  0  0  0  0
   39.3910   31.7400   40.9280 C   0  0  0  0  0  0  0  0  0  0  0  0
   38.3150   30.8860   41.0420 C   0  0  0  0  0  3  0  0  0  0  0  0
  1 16  1  0  0  0  0
  1  6  1  1  0  0  0
  2  1  1  0  0  0  0
  2  8  1  0  0  0  0
  3  2  1  0  0  0  0
  3 10  1  0  0  0  0
  4 12  1  0  0  0  0
  4  3  1  0  0  0  0
  4  5  1  0  0  0  0
  5 13  1  1  0  0  0
  5  1  1  0  0  0  0
  7  2  1  0  0  0  0
  9  3  1  0  0  0  0
 11  4  1  0  0  0  0
 14 20  1  0  0  0  0
 15 21  1  0  0  0  0
 15 14  2  0  0  0  0
 16 15  1  0  0  0  0
 17 16  2  0  0  0  0
 17 18  1  0  0  0  0
 18 19  2  0  0  0  0
 19 14  1  0  0  0  0
 22 18  1  0  0  0  0
 23  5  1  0  0  0  0
 24 26  1  0  0  0  0
 24 23  1  0  0  0  0
 25 24  2  0  0  0  0
 26 27  2  0  0  0  0
 27 28  1  0  0  0  0
 28 29  1  0  0  0  0
 30 28  1  0  0  0  0
 31 28  1  0  0  0  0
 31 42  1  0  0  0  0
 32 31  2  0  0  0  0
 33 32  1  0  0  0  0
 34 32  1  0  0  0  0
 34 35  2  0  0  0  0
 35 41  1  0  0  0  0
 36 35  1  0  0  0  0
 36 37  2  0  0  0  0
 37 39  1  0  0  0  0
 38 37  1  0  0  0  0
 39 40  2  0  0  0  0
 41 42  2  0  0  0  0
 41 40  1  0  0  0  0
M  END
>  <minimizedAffinity>
-5.90346432

$$$$

 OpenBabel03242513533D

 42 45  0  0  1  0  0  0  0  0999 V2000
   37.0830   32.1920   40.2380 C   0  0  2  0  0  0  0  0  0  0  0  0
   37.6060   32.9100   39.0310 C   0  0  0  0  0  0  0  0  0  0  0  0
   38.2350   34.1120   39.7060 C   0  0  0  0  0  0  0  0  0  0  0  0
   38.8320   33.5820   40.9250 C   0  0  0  0  0  0  0  0  0  0  0  0
   38.3340   32.0590   41.0690 C   0  0  2  0  0  0  0  0  0  0  0  0
   36.3990   32.8470   40.8300 H   0  0  0  0  0  0  0  0  0  0  0  0
   38.3200   32.3140   38.4680 H   0  0  0  0  0  0  0  0  0  0  0  0
   36.7240   33.2300   38.4400 H   0  0  0  0  0  0  0  0  0  0  0  0
   38.9460   34.5560   38.9740 H   0  0  0  0  0  0  0  0  0  0  0  0
   37.4170   34.8480   39.8800 H   0  0  0  0  0  0  0  0  0  0  0  0
   39.9520   33.5280   40.8520 H   0  0  0  0  0  0  0  0  0  0  0  0
   38.5280   34.0980   41.8530 H   0  0  0  0  0  0  0  0  0  0  0  0
   38.1620   31.8930   42.1410 H   0  0  0  0  0  0  0  0  0  0  0  0
   35.4050   28.8480   40.5170 C   0  0  0  0  0  0  0  0  0  0  0  0
   35.9690   30.0690   40.9440 C   0  0  0  0  0  0  0  0  0  0  0  0
   36.4780   30.8690   39.9770 C   0  0  0  0  0  0  0  0  0  0  0  0
   36.4160   30.4470   38.6460 N   0  0  0  0  0  0  0  0  0  0  0  0
   35.8760   29.2850   38.2750 C   0  0  0  0  0  0  0  0  0  0  0  0
   35.3700   28.4850   39.2120 N   0  0  0  0  0  0  0  0  0  0  0  0
   34.9990   28.2090   41.2950 H   0  0  0  0  0  0  0  0  0  0  0  0
   36.0000   30.3620   41.9780 H   0  0  0  0  0  0  0  0  0  0  0  0
   35.8780   29.0540   37.2220 H   0  0  0  0  0  0  0  0  0  0  0  0
   39.3090   31.2720   40.4850 O   0  0  0  0  0  0  0  0  0  0  0  0
   39.8290   30.1110   40.9900 C   0  0  0  0  0  0  0  0  0  0  0  0
   41.0580   30.0410   40.5940 O   0  0  0  0  0  0  0  0  0  0  0  0
   39.6450   28.8850   41.7830 C   0  0  0  0  0  3  0  0  0  0  0  0
   38.7780   28.6420   42.7850 C   0  0  0  0  0  3  0  0  0  0  0  0
   38.5400   27.4450   43.6230 C   0  0  0  0  0  0  0  0  0  0  0  0
   37.6090   27.6390   44.2050 H   0  0  0  0  0  0  0  0  0  0  0  0
   39.4260   27.3160   44.2790 H   0  0  0  0  0  0  0  0  0  0  0  0
   38.3890   26.2110   42.7820 C   0  0  0  0  0  0  0  0  0  0  0  0
   39.4150   25.2660   42.8590 C   0  0  0  0  0  0  0  0  0  0  0  0
   40.2720   25.4560   43.5160 H   0  0  0  0  0  0  0  0  0  0  0  0
   39.4420   24.0780   42.1580 C   0  0  0  0  0  3  0  0  0  0  0  0
   38.3710   23.8330   41.3320 C   0  0  0  0  0  0  0  0  0  0  0  0
   38.3750   22.6780   40.6360 N   0  0  0  0  0  0  0  0  0  0  0  0
   37.3450   22.3810   39.8050 C   0  0  0  0  0  0  0  0  0  0  0  0
   37.4180   21.4360   39.2800 H   0  0  0  0  0  0  0  0  0  0  0  0
   36.3050   23.2840   39.6940 C   0  0  0  0  0  3  0  0  0  0  0  0
   36.2710   24.4700   40.3900 C   0  0  0  0  0  3  0  0  0  0  0  0
   37.3370   24.7480   41.2320 C   0  0  0  0  0  0  0  0  0  0  0  0
   37.3380   25.9270   41.9460 C   0  0  0  0  0  3  0  0  0  0  0  0
  1  6  1  1  0  0  0
  1  5  1  0  0  0  0
  2  3  1  0  0  0  0
  2  1  1  0  0  0  0
  3 10  1  0  0  0  0
  3  4  1  0  0  0  0
  4  5  1  0  0  0  0
  4 12  1  0  0  0  0
  5 13  1  1  0  0  0
  7  2  1  0  0  0  0
  8  2  1  0  0  0  0
  9  3  1  0  0  0  0
 11  4  1  0  0  0  0
 14 15  1  0  0  0  0
 14 20  1  0  0  0  0
 15 21  1  0  0  0  0
 16  1  1  0  0  0  0
 16 15  2  0  0  0  0
 17 16  1  0  0  0  0
 18 17  2  0  0  0  0
 18 19  1  0  0  0  0
 19 14  2  0  0  0  0
 22 18  1  0  0  0  0
 23 24  1  0  0  0  0
 23  5  1  0  0  0  0
 24 26  1  0  0  0  0
 25 24  2  0  0  0  0
 26 27  2  0  0  0  0
 27 28  1  0  0  0  0
 28 29  1  0  0  0  0
 28 30  1  0  0  0  0
 31 32  1  0  0  0  0
 31 28  1  0  0  0  0
 32 33  1  0  0  0  0
 34 32  2  0  0  0  0
 35 34  1  0  0  0  0
 36 35  2  0  0  0  0
 37 36  1  0  0  0  0
 38 37  1  0  0  0  0
 39 37  2  0  0  0  0
 39 40  1  0  0  0  0
 40 41  2  0  0  0  0
 41 35  1  0  0  0  0
 41 42  1  0  0  0  0
 42 31  2  0  0  0  0
M  END
>  <minimizedAffinity>
-5.8779335

$$$$

 OpenBabel03242513533D

 42 45  0  0  1  0  0  0  0  0999 V2000
   39.6480   32.9680   39.2500 C   0  0  2  0  0  0  0  0  0  0  0  0
   40.6420   32.6220   38.1830 C   0  0  0  0  0  0  0  0  0  0  0  0
   41.5980   33.7870   38.3410 C   0  0  0  0  0  0  0  0  0  0  0  0
   41.6710   34.0140   39.7790 C   0  0  0  0  0  0  0  0  0  0  0  0
   40.5420   33.0920   40.4580 C   0  0  2  0  0  0  0  0  0  0  0  0
   39.2230   33.9870   39.0870 H   0  0  0  0  0  0  0  0  0  0  0  0
   41.1150   31.6570   38.3500 H   0  0  0  0  0  0  0  0  0  0  0  0
   40.1120   32.7000   37.2120 H   0  0  0  0  0  0  0  0  0  0  0  0
   42.5500   33.4900   37.8500 H   0  0  0  0  0  0  0  0  0  0  0  0
   41.1650   34.6380   37.7650 H   0  0  0  0  0  0  0  0  0  0  0  0
   42.6480   33.6620   40.2070 H   0  0  0  0  0  0  0  0  0  0  0  0
   41.4580   35.0510   40.0960 H   0  0  0  0  0  0  0  0  0  0  0  0
   40.1220   33.6790   41.2860 H   0  0  0  0  0  0  0  0  0  0  0  0
   36.5120   31.1620   40.2380 C   0  0  0  0  0  0  0  0  0  0  0  0
   37.4300   32.2280   40.1310 C   0  0  0  0  0  0  0  0  0  0  0  0
   38.5860   31.9660   39.4780 C   0  0  0  0  0  0  0  0  0  0  0  0
   38.7970   30.6840   38.9590 N   0  0  0  0  0  0  0  0  0  0  0  0
   37.9080   29.6960   39.0770 C   0  0  0  0  0  0  0  0  0  0  0  0
   36.7640   29.9360   39.7180 N   0  0  0  0  0  0  0  0  0  0  0  0
   35.5870   31.3750   40.7630 H   0  0  0  0  0  0  0  0  0  0  0  0
   37.2350   33.2020   40.5430 H   0  0  0  0  0  0  0  0  0  0  0  0
   38.1670   28.7450   38.6420 H   0  0  0  0  0  0  0  0  0  0  0  0
   41.1640   31.9090   40.8130 O   0  0  0  0  0  0  0  0  0  0  0  0
   40.9730   31.2040   41.9700 C   0  0  0  0  0  0  0  0  0  0  0  0
   41.9340   31.5260   42.7740 O   0  0  0  0  0  0  0  0  0  0  0  0
   40.1790   30.2350   42.7420 C   0  0  0  0  0  3  0  0  0  0  0  0
   38.8470   30.0360   42.7420 C   0  0  0  0  0  3  0  0  0  0  0  0
   37.9850   29.0910   43.4880 C   0  0  0  0  0  0  0  0  0  0  0  0
   36.9370   29.4530   43.3740 H   0  0  0  0  0  0  0  0  0  0  0  0
   38.3200   29.1000   44.5460 H   0  0  0  0  0  0  0  0  0  0  0  0
   38.1220   27.6930   42.9590 C   0  0  0  0  0  0  0  0  0  0  0  0
   39.1560   26.9170   43.4870 C   0  0  0  0  0  0  0  0  0  0  0  0
   39.8130   27.3470   44.2520 H   0  0  0  0  0  0  0  0  0  0  0  0
   39.4270   25.6150   43.1190 C   0  0  0  0  0  3  0  0  0  0  0  0
   38.6070   25.0690   42.1600 C   0  0  0  0  0  0  0  0  0  0  0  0
   38.8530   23.7990   41.7840 N   0  0  0  0  0  0  0  0  0  0  0  0
   38.0780   23.2050   40.8420 C   0  0  0  0  0  0  0  0  0  0  0  0
   38.3360   22.1840   40.5910 H   0  0  0  0  0  0  0  0  0  0  0  0
   37.0420   23.9330   40.2880 C   0  0  0  0  0  3  0  0  0  0  0  0
   36.7640   25.2300   40.6500 C   0  0  0  0  0  3  0  0  0  0  0  0
   37.5730   25.8110   41.6150 C   0  0  0  0  0  0  0  0  0  0  0  0
   37.3260   27.1100   42.0040 C   0  0  0  0  0  3  0  0  0  0  0  0
  1  6  1  6  0  0  0
  1 16  1  0  0  0  0
  1  5  1  0  0  0  0
  2  3  1  0  0  0  0
  2  7  1  0  0  0  0
  2  1  1  0  0  0  0
  3  4  1  0  0  0  0
  4 12  1  0  0  0  0
  4 11  1  0  0  0  0
  4  5  1  0  0  0  0
  5 23  1  0  0  0  0
  5 13  1  1  0  0  0
  8  2  1  0  0  0  0
  9  3  1  0  0  0  0
 10  3  1  0  0  0  0
 14 20  1  0  0  0  0
 15 14  1  0  0  0  0
 15 21  1  0  0  0  0
 16 15  2  0  0  0  0
 17 18  2  0  0  0  0
 17 16  1  0  0  0  0
 18 19  1  0  0  0  0
 19 14  2  0  0  0  0
 22 18  1  0  0  0  0
 23 24  1  0  0  0  0
 24 26  1  0  0  0  0
 24 25  2  0  0  0  0
 27 26  2  0  0  0  0
 27 28  1  0  0  0  0
 28 30  1  0  0  0  0
 29 28  1  0  0  0  0
 31 32  1  0  0  0  0
 31 28  1  0  0  0  0
 32 33  1  0  0  0  0
 34 32  2  0  0  0  0
 35 34  1  0  0  0  0
 36 35  1  0  0  0  0
 37 36  2  0  0  0  0
 38 37  1  0  0  0  0
 39 40  2  0  0  0  0
 39 37  1  0  0  0  0
 40 41  1  0  0  0  0
 41 42  1  0  0  0  0
 41 35  2  0  0  0  0
 42 31  2  0  0  0  0
M  END
>  <minimizedAffinity>
-5.87238598

$$$$

 OpenBabel03242513533D

 42 45  0  0  1  0  0  0  0  0999 V2000
   39.1510   32.3480   39.5160 C   0  0  2  0  0  0  0  0  0  0  0  0
   39.5380   33.3080   40.6000 C   0  0  0  0  0  0  0  0  0  0  0  0
   38.7830   34.5350   40.1310 C   0  0  0  0  0  0  0  0  0  0  0  0
   37.5200   34.0200   39.6180 C   0  0  0  0  0  0  0  0  0  0  0  0
   37.6460   32.4160   39.5830 C   0  0  2  0  0  0  0  0  0  0  0  0
   39.4230   32.7470   38.5090 H   0  0  0  0  0  0  0  0  0  0  0  0
   39.2320   32.9690   41.5860 H   0  0  0  0  0  0  0  0  0  0  0  0
   40.6300   33.4790   40.5030 H   0  0  0  0  0  0  0  0  0  0  0  0
   38.7070   35.2180   41.0050 H   0  0  0  0  0  0  0  0  0  0  0  0
   39.4210   35.0310   39.3630 H   0  0  0  0  0  0  0  0  0  0  0  0
   36.6670   34.2410   40.3140 H   0  0  0  0  0  0  0  0  0  0  0  0
   37.2740   34.3350   38.5880 H   0  0  0  0  0  0  0  0  0  0  0  0
   37.1270   32.0870   38.6730 H   0  0  0  0  0  0  0  0  0  0  0  0
   40.7320   29.1860   40.7720 C   0  0  0  0  0  0  0  0  0  0  0  0
   40.3870   30.5540   40.7400 C   0  0  0  0  0  0  0  0  0  0  0  0
   39.6260   30.9600   39.6970 C   0  0  0  0  0  0  0  0  0  0  0  0
   39.2350   30.0220   38.7370 N   0  0  0  0  0  0  0  0  0  0  0  0
   39.5790   28.7340   38.7950 C   0  0  0  0  0  0  0  0  0  0  0  0
   40.3280   28.3160   39.8150 N   0  0  0  0  0  0  0  0  0  0  0  0
   41.3430   28.8640   41.6090 H   0  0  0  0  0  0  0  0  0  0  0  0
   40.7060   31.2490   41.4960 H   0  0  0  0  0  0  0  0  0  0  0  0
   39.2260   28.0930   38.0040 H   0  0  0  0  0  0  0  0  0  0  0  0
   37.1210   31.9570   40.7770 O   0  0  0  0  0  0  0  0  0  0  0  0
   36.6650   30.6920   41.0330 C   0  0  0  0  0  0  0  0  0  0  0  0
   35.7390   30.4390   40.1650 O   0  0  0  0  0  0  0  0  0  0  0  0
   36.7330   29.4650   41.8420 C   0  0  0  0  0  3  0  0  0  0  0  0
   37.5740   29.1540   42.8470 C   0  0  0  0  0  3  0  0  0  0  0  0
   37.7020   27.9490   43.6980 C   0  0  0  0  0  0  0  0  0  0  0  0
   36.7430   27.8460   44.2550 H   0  0  0  0  0  0  0  0  0  0  0  0
   38.5670   28.1110   44.3750 H   0  0  0  0  0  0  0  0  0  0  0  0
   37.9690   26.7240   42.8730 C   0  0  0  0  0  0  0  0  0  0  0  0
   39.3050   26.3520   42.7090 C   0  0  0  0  0  0  0  0  0  0  0  0
   40.0920   26.9540   43.1780 H   0  0  0  0  0  0  0  0  0  0  0  0
   39.7320   25.2570   41.9850 C   0  0  0  0  0  3  0  0  0  0  0  0
   38.7520   24.4970   41.3940 C   0  0  0  0  0  0  0  0  0  0  0  0
   39.1450   23.4230   40.6810 N   0  0  0  0  0  0  0  0  0  0  0  0
   38.2230   22.6340   40.0740 C   0  0  0  0  0  0  0  0  0  0  0  0
   38.6140   21.7890   39.5200 H   0  0  0  0  0  0  0  0  0  0  0  0
   36.8870   22.9600   40.2070 C   0  0  0  0  0  3  0  0  0  0  0  0
   36.4530   24.0490   40.9260 C   0  0  0  0  0  3  0  0  0  0  0  0
   37.4170   24.8380   41.5360 C   0  0  0  0  0  0  0  0  0  0  0  0
   37.0210   25.9370   42.2660 C   0  0  0  0  0  3  0  0  0  0  0  0
  1  6  1  6  0  0  0
  1  5  1  0  0  0  0
  1 16  1  0  0  0  0
  1  2  1  0  0  0  0
  2  7  1  0  0  0  0
  3  2  1  0  0  0  0
  3  9  1  0  0  0  0
  4  3  1  0  0  0  0
  4 11  1  0  0  0  0
  5 13  1  6  0  0  0
  5  4  1  0  0  0  0
  5 23  1  0  0  0  0
  8  2  1  0  0  0  0
 10  3  1  0  0  0  0
 12  4  1  0  0  0  0
 14 20  1  0  0  0  0
 15 14  1  0  0  0  0
 15 21  1  0  0  0  0
 16 15  2  0  0  0  0
 17 18  2  0  0  0  0
 17 16  1  0  0  0  0
 18 19  1  0  0  0  0
 19 14  2  0  0  0  0
 22 18  1  0  0  0  0
 23 24  1  0  0  0  0
 24 26  1  0  0  0  0
 25 24  2  0  0  0  0
 26 27  2  0  0  0  0
 27 28  1  0  0  0  0
 28 29  1  0  0  0  0
 28 30  1  0  0  0  0
 31 28  1  0  0  0  0
 32 31  1  0  0  0  0
 32 33  1  0  0  0  0
 34 32  2  0  0  0  0
 35 41  1  0  0  0  0
 35 34  1  0  0  0  0
 36 35  2  0  0  0  0
 37 39  2  0  0  0  0
 37 36  1  0  0  0  0
 38 37  1  0  0  0  0
 39 40  1  0  0  0  0
 40 41  2  0  0  0  0
 41 42  1  0  0  0  0
 42 31  2  0  0  0  0
M  END
>  <minimizedAffinity>
-5.87040854

$$$$

 OpenBabel03242513533D

 42 45  0  0  1  0  0  0  0  0999 V2000
   38.7680   32.0070   39.0960 C   0  0  2  0  0  0  0  0  0  0  0  0
   39.1760   32.7220   40.3490 C   0  0  0  0  0  0  0  0  0  0  0  0
   38.5340   34.0700   40.0910 C   0  0  0  0  0  0  0  0  0  0  0  0
   37.2610   33.7580   39.4530 C   0  0  0  0  0  0  0  0  0  0  0  0
   37.2710   32.1820   39.1290 C   0  0  2  0  0  0  0  0  0  0  0  0
   39.1140   32.5590   38.1890 H   0  0  0  0  0  0  0  0  0  0  0  0
   38.8020   32.2360   41.2470 H   0  0  0  0  0  0  0  0  0  0  0  0
   40.2800   32.8200   40.3190 H   0  0  0  0  0  0  0  0  0  0  0  0
   38.4680   34.5880   41.0720 H   0  0  0  0  0  0  0  0  0  0  0  0
   39.2390   34.6440   39.4460 H   0  0  0  0  0  0  0  0  0  0  0  0
   36.3950   33.9180   40.1510 H   0  0  0  0  0  0  0  0  0  0  0  0
   37.0850   34.2720   38.4920 H   0  0  0  0  0  0  0  0  0  0  0  0
   36.7700   32.0650   38.1590 H   0  0  0  0  0  0  0  0  0  0  0  0
   39.3440   28.4490   38.0570 C   0  0  0  0  0  0  0  0  0  0  0  0
   38.9100   29.7870   37.9570 C   0  0  0  0  0  0  0  0  0  0  0  0
   39.1320   30.5760   39.0340 C   0  0  0  0  0  0  0  0  0  0  0  0
   39.7650   30.0300   40.1550 N   0  0  0  0  0  0  0  0  0  0  0  0
   40.1640   28.7590   40.2190 C   0  0  0  0  0  0  0  0  0  0  0  0
   39.9520   27.9670   39.1680 N   0  0  0  0  0  0  0  0  0  0  0  0
   39.1630   27.8190   37.1920 H   0  0  0  0  0  0  0  0  0  0  0  0
   38.4260   30.1750   37.0780 H   0  0  0  0  0  0  0  0  0  0  0  0
   40.6410   28.4360   41.1300 H   0  0  0  0  0  0  0  0  0  0  0  0
   36.6620   31.5580   40.2020 O   0  0  0  0  0  0  0  0  0  0  0  0
   36.2520   30.2530   40.2600 C   0  0  0  0  0  0  0  0  0  0  0  0
   35.4830   30.0510   39.2390 O   0  0  0  0  0  0  0  0  0  0  0  0
   36.2730   28.9520   40.9470 C   0  0  0  0  0  3  0  0  0  0  0  0
   36.5950   28.6710   42.2240 C   0  0  0  0  0  3  0  0  0  0  0  0
   36.6420   27.3970   42.9780 C   0  0  0  0  0  0  0  0  0  0  0  0
   35.9230   26.7040   42.4830 H   0  0  0  0  0  0  0  0  0  0  0  0
   36.3550   27.6210   44.0270 H   0  0  0  0  0  0  0  0  0  0  0  0
   38.0240   26.8130   42.9790 C   0  0  0  0  0  0  0  0  0  0  0  0
   38.1670   25.5280   42.4500 C   0  0  0  0  0  0  0  0  0  0  0  0
   37.2850   25.0060   42.0620 H   0  0  0  0  0  0  0  0  0  0  0  0
   39.3610   24.8400   42.3720 C   0  0  0  0  0  3  0  0  0  0  0  0
   40.4720   25.4890   42.8560 C   0  0  0  0  0  0  0  0  0  0  0  0
   41.6490   24.8360   42.7900 N   0  0  0  0  0  0  0  0  0  0  0  0
   42.7810   25.4250   43.2520 C   0  0  0  0  0  0  0  0  0  0  0  0
   43.6880   24.8400   43.1650 H   0  0  0  0  0  0  0  0  0  0  0  0
   42.6910   26.6970   43.7850 C   0  0  0  0  0  3  0  0  0  0  0  0
   41.5060   27.3890   43.8670 C   0  0  0  0  0  3  0  0  0  0  0  0
   40.3660   26.7630   43.3870 C   0  0  0  0  0  0  0  0  0  0  0  0
   39.1590   27.4260   43.4520 C   0  0  0  0  0  3  0  0  0  0  0  0
  1  6  1  6  0  0  0
  1  5  1  0  0  0  0
  1  2  1  0  0  0  0
  2  7  1  0  0  0  0
  3  2  1  0  0  0  0
  3  9  1  0  0  0  0
  4  3  1  0  0  0  0
  4 11  1  0  0  0  0
  5 13  1  6  0  0  0
  5  4  1  0  0  0  0
  5 23  1  0  0  0  0
  8  2  1  0  0  0  0
 10  3  1  0  0  0  0
 12  4  1  0  0  0  0
 14 19  1  0  0  0  0
 15 14  2  0  0  0  0
 15 16  1  0  0  0  0
 16  1  1  0  0  0  0
 16 17  2  0  0  0  0
 17 18  1  0  0  0  0
 18 22  1  0  0  0  0
 19 18  2  0  0  0  0
 20 14  1  0  0  0  0
 21 15  1  0  0  0  0
 23 24  1  0  0  0  0
 24 26  1  0  0  0  0
 25 24  2  0  0  0  0
 26 27  2  0  0  0  0
 27 28  1  0  0  0  0
 28 31  1  0  0  0  0
 28 30  1  0  0  0  0
 29 28  1  0  0  0  0
 31 42  1  0  0  0  0
 32 31  2  0  0  0  0
 33 32  1  0  0  0  0
 34 32  1  0  0  0  0
 34 35  2  0  0  0  0
 35 41  1  0  0  0  0
 36 35  1  0  0  0  0
 36 37  2  0  0  0  0
 37 39  1  0  0  0  0
 38 37  1  0  0  0  0
 39 40  2  0  0  0  0
 41 42  2  0  0  0  0
 41 40  1  0  0  0  0
M  END
>  <minimizedAffinity>
-5.78924274

$$$$

 OpenBabel03242513533D

 42 45  0  0  1  0  0  0  0  0999 V2000
   37.4010   24.6900   41.7090 C   0  0  2  0  0  0  0  0  0  0  0  0
   38.5410   23.8330   41.2470 C   0  0  0  0  0  0  0  0  0  0  0  0
   37.7640   22.7350   40.5510 C   0  0  0  0  0  0  0  0  0  0  0  0
   36.6610   23.4220   39.8910 C   0  0  0  0  0  0  0  0  0  0  0  0
   36.6760   24.9430   40.4120 C   0  0  2  0  0  0  0  0  0  0  0  0
   36.6900   24.1050   42.3410 H   0  0  0  0  0  0  0  0  0  0  0  0
   39.2190   24.3640   40.5830 H   0  0  0  0  0  0  0  0  0  0  0  0
   39.0290   23.4290   42.1570 H   0  0  0  0  0  0  0  0  0  0  0  0
   38.4790   22.2120   39.8780 H   0  0  0  0  0  0  0  0  0  0  0  0
   37.4470   22.0140   41.3410 H   0  0  0  0  0  0  0  0  0  0  0  0
   36.8130   23.4810   38.7790 H   0  0  0  0  0  0  0  0  0  0  0  0
   35.6590   23.0220   40.1250 H   0  0  0  0  0  0  0  0  0  0  0  0
   35.6240   25.2410   40.5210 H   0  0  0  0  0  0  0  0  0  0  0  0
   39.2330   27.5040   43.3820 C   0  0  0  0  0  0  0  0  0  0  0  0
   39.0330   26.2300   42.8100 C   0  0  0  0  0  0  0  0  0  0  0  0
   37.7850   25.9610   42.3580 C   0  0  0  0  0  0  0  0  0  0  0  0
   36.7940   26.9390   42.4810 N   0  0  0  0  0  0  0  0  0  0  0  0
   37.0150   28.1360   43.0270 C   0  0  0  0  0  0  0  0  0  0  0  0
   38.2370   28.4180   43.4790 N   0  0  0  0  0  0  0  0  0  0  0  0
   40.2340   27.7170   43.7440 H   0  0  0  0  0  0  0  0  0  0  0  0
   39.8190   25.5010   42.7320 H   0  0  0  0  0  0  0  0  0  0  0  0
   36.1830   28.8180   43.0750 H   0  0  0  0  0  0  0  0  0  0  0  0
   37.4150   25.6640   39.4930 O   0  0  0  0  0  0  0  0  0  0  0  0
   36.9410   26.6220   38.6380 C   0  0  0  0  0  0  0  0  0  0  0  0
   36.9480   26.1080   37.4510 O   0  0  0  0  0  0  0  0  0  0  0  0
   36.4200   27.9830   38.4290 C   0  0  0  0  0  3  0  0  0  0  0  0
   37.0820   29.1550   38.4240 C   0  0  0  0  0  3  0  0  0  0  0  0
   36.6280   30.5510   38.2260 C   0  0  0  0  0  0  0  0  0  0  0  0
   35.6640   30.6560   38.7740 H   0  0  0  0  0  0  0  0  0  0  0  0
   36.5100   30.7090   37.1330 H   0  0  0  0  0  0  0  0  0  0  0  0
   37.6400   31.5320   38.7400 C   0  0  0  0  0  0  0  0  0  0  0  0
   37.1450   32.6740   39.3760 C   0  0  0  0  0  0  0  0  0  0  0  0
   36.0620   32.8060   39.4740 H   0  0  0  0  0  0  0  0  0  0  0  0
   37.9290   33.6770   39.9090 C   0  0  0  0  0  3  0  0  0  0  0  0
   39.2890   33.5170   39.7900 C   0  0  0  0  0  0  0  0  0  0  0  0
   40.0740   34.4850   40.3020 N   0  0  0  0  0  0  0  0  0  0  0  0
   41.4240   34.3840   40.2150 C   0  0  0  0  0  0  0  0  0  0  0  0
   41.9890   35.1990   40.6490 H   0  0  0  0  0  0  0  0  0  0  0  0
   41.9620   33.2730   39.5940 C   0  0  0  0  0  3  0  0  0  0  0  0
   41.1890   32.2680   39.0620 C   0  0  0  0  0  3  0  0  0  0  0  0
   39.8130   32.3980   39.1640 C   0  0  0  0  0  0  0  0  0  0  0  0
   39.0040   31.4110   38.6430 C   0  0  0  0  0  3  0  0  0  0  0  0
  1  6  1  1  0  0  0
  1 16  1  0  0  0  0
  2  1  1  0  0  0  0
  2  8  1  0  0  0  0
  3  2  1  0  0  0  0
  3 10  1  0  0  0  0
  4 12  1  0  0  0  0
  4  5  1  0  0  0  0
  4  3  1  0  0  0  0
  5 13  1  1  0  0  0
  5  1  1  0  0  0  0
  7  2  1  0  0  0  0
  9  3  1  0  0  0  0
 11  4  1  0  0  0  0
 14 19  1  0  0  0  0
 14 20  1  0  0  0  0
 15 14  2  0  0  0  0
 16 17  2  0  0  0  0
 16 15  1  0  0  0  0
 17 18  1  0  0  0  0
 18 22  1  0  0  0  0
 18 19  2  0  0  0  0
 21 15  1  0  0  0  0
 23  5  1  0  0  0  0
 24 23  1  0  0  0  0
 25 24  2  0  0  0  0
 26 24  1  0  0  0  0
 27 26  2  0  0  0  0
 28 27  1  0  0  0  0
 28 31  1  0  0  0  0
 28 29  1  0  0  0  0
 30 28  1  0  0  0  0
 31 32  1  0  0  0  0
 32 33  1  0  0  0  0
 32 34  2  0  0  0  0
 35 34  1  0  0  0  0
 35 36  1  0  0  0  0
 37 36  2  0  0  0  0
 37 38  1  0  0  0  0
 39 37  1  0  0  0  0
 40 41  1  0  0  0  0
 40 39  2  0  0  0  0
 41 35  2  0  0  0  0
 42 31  2  0  0  0  0
 42 41  1  0  0  0  0
M  END
>  <minimizedAffinity>
-5.75848722

$$$$

 OpenBabel03242513533D

 42 45  0  0  1  0  0  0  0  0999 V2000
   37.1010   29.5770   42.1420 C   0  0  2  0  0  0  0  0  0  0  0  0
   38.2370   29.1110   43.0020 C   0  0  0  0  0  0  0  0  0  0  0  0
   37.5020   28.1070   43.8670 C   0  0  0  0  0  0  0  0  0  0  0  0
   36.5630   27.4560   42.9630 C   0  0  0  0  0  0  0  0  0  0  0  0
   36.6020   28.2720   41.5770 C   0  0  2  0  0  0  0  0  0  0  0  0
   36.2630   29.9740   42.7640 H   0  0  0  0  0  0  0  0  0  0  0  0
   39.0430   28.6670   42.4240 H   0  0  0  0  0  0  0  0  0  0  0  0
   38.5510   29.9780   43.6180 H   0  0  0  0  0  0  0  0  0  0  0  0
   38.2740   27.4470   44.3190 H   0  0  0  0  0  0  0  0  0  0  0  0
   37.0190   28.6840   44.6900 H   0  0  0  0  0  0  0  0  0  0  0  0
   36.8870   26.4110   42.7080 H   0  0  0  0  0  0  0  0  0  0  0  0
   35.5110   27.4660   43.3000 H   0  0  0  0  0  0  0  0  0  0  0  0
   35.5690   28.2940   41.2050 H   0  0  0  0  0  0  0  0  0  0  0  0
   37.0950   31.9410   39.2290 C   0  0  0  0  0  0  0  0  0  0  0  0
   36.5790   31.0400   40.1840 C   0  0  0  0  0  0  0  0  0  0  0  0
   37.4680   30.5160   41.0610 C   0  0  0  0  0  0  0  0  0  0  0  0
   38.8110   30.8920   40.9710 N   0  0  0  0  0  0  0  0  0  0  0  0
   39.2680   31.7480   40.0550 C   0  0  0  0  0  0  0  0  0  0  0  0
   38.4080   32.2730   39.1830 N   0  0  0  0  0  0  0  0  0  0  0  0
   36.3800   32.3580   38.5270 H   0  0  0  0  0  0  0  0  0  0  0  0
   35.5380   30.7720   40.2240 H   0  0  0  0  0  0  0  0  0  0  0  0
   40.3220   31.9710   40.0710 H   0  0  0  0  0  0  0  0  0  0  0  0
   37.5210   27.6270   40.7700 O   0  0  0  0  0  0  0  0  0  0  0  0
   37.5640   26.2870   40.4930 C   0  0  0  0  0  0  0  0  0  0  0  0
   38.7520   26.0290   40.0520 O   0  0  0  0  0  0  0  0  0  0  0  0
   36.8830   24.9830   40.4580 C   0  0  0  0  0  3  0  0  0  0  0  0
   36.4680   24.2680   39.3950 C   0  0  0  0  0  3  0  0  0  0  0  0
   35.7810   22.9620   39.2840 C   0  0  0  0  0  0  0  0  0  0  0  0
   35.8680   22.4670   40.2790 H   0  0  0  0  0  0  0  0  0  0  0  0
   36.2890   22.3860   38.4820 H   0  0  0  0  0  0  0  0  0  0  0  0
   34.3400   23.1330   38.9040 C   0  0  0  0  0  0  0  0  0  0  0  0
   34.0790   23.7670   37.6860 C   0  0  0  0  0  0  0  0  0  0  0  0
   34.9180   24.1060   37.0680 H   0  0  0  0  0  0  0  0  0  0  0  0
   32.8180   24.0070   37.1810 C   0  0  0  0  0  3  0  0  0  0  0  0
   31.7610   23.5840   37.9510 C   0  0  0  0  0  0  0  0  0  0  0  0
   30.5190   23.8090   37.4780 N   0  0  0  0  0  0  0  0  0  0  0  0
   29.4360   23.4140   38.1930 C   0  0  0  0  0  0  0  0  0  0  0  0
   28.4720   23.6280   37.7480 H   0  0  0  0  0  0  0  0  0  0  0  0
   29.6420   22.7820   39.4040 C   0  0  0  0  0  3  0  0  0  0  0  0
   30.8950   22.5390   39.9150 C   0  0  0  0  0  3  0  0  0  0  0  0
   31.9830   22.9530   39.1630 C   0  0  0  0  0  0  0  0  0  0  0  0
   33.2560   22.7260   39.6420 C   0  0  0  0  0  3  0  0  0  0  0  0
  1  6  1  1  0  0  0
  1  2  1  0  0  0  0
  2  8  1  0  0  0  0
  2  3  1  0  0  0  0
  3  9  1  0  0  0  0
  3 10  1  0  0  0  0
  4 12  1  0  0  0  0
  4  3  1  0  0  0  0
  5 13  1  6  0  0  0
  5  1  1  0  0  0  0
  5  4  1  0  0  0  0
  7  2  1  0  0  0  0
 11  4  1  0  0  0  0
 14 15  1  0  0  0  0
 15 21  1  0  0  0  0
 15 16  2  0  0  0  0
 16  1  1  0  0  0  0
 17 16  1  0  0  0  0
 18 22  1  0  0  0  0
 18 17  2  0  0  0  0
 19 14  2  0  0  0  0
 19 18  1  0  0  0  0
 20 14  1  0  0  0  0
 23  5  1  0  0  0  0
 24 23  1  0  0  0  0
 25 24  2  0  0  0  0
 26 24  1  0  0  0  0
 27 26  2  0  0  0  0
 28 27  1  0  0  0  0
 28 29  1  0  0  0  0
 30 28  1  0  0  0  0
 31 28  1  0  0  0  0
 31 42  1  0  0  0  0
 32 31  2  0  0  0  0
 33 32  1  0  0  0  0
 34 32  1  0  0  0  0
 34 35  2  0  0  0  0
 35 41  1  0  0  0  0
 36 35  1  0  0  0  0
 36 37  2  0  0  0  0
 37 39  1  0  0  0  0
 38 37  1  0  0  0  0
 39 40  2  0  0  0  0
 41 42  2  0  0  0  0
 41 40  1  0  0  0  0
M  END
>  <minimizedAffinity>
-5.71465826

$$$$
