
 OpenBabel03252503323D

 44 47  0  0  1  0  0  0  0  0999 V2000
   45.4070   34.2660   42.1190 C   0  0  0  0  0  0  0  0  0  0  0  0
   46.4790   35.0810   41.6530 C   0  0  0  0  0  0  0  0  0  0  0  0
   47.7750   34.6660   42.0180 C   0  0  0  0  0  0  0  0  0  0  0  0
   47.9000   33.5580   42.7610 N   0  0  0  0  0  0  0  0  0  0  0  0
   46.8480   32.8150   43.1810 C   0  0  0  0  0  0  0  0  0  0  0  0
   45.5920   33.1830   42.8500 N   0  0  0  0  0  0  0  0  0  0  0  0
   43.7590   34.3110   40.4520 C   0  0  0  0  0  0  0  0  0  0  0  0
   44.6760   33.8240   39.7070 O   0  0  0  0  0  0  0  0  0  0  0  0
   44.0550   34.6170   41.7940 N   0  0  0  0  0  0  0  0  0  0  0  0
   42.4860   34.5110   39.8610 N   0  0  0  0  0  0  0  0  0  0  0  0
   42.3520   34.4940   38.3920 C   0  0  0  0  0  0  0  0  0  0  0  0
   41.2170   35.4430   38.1640 C   0  0  0  0  0  0  0  0  0  0  0  0
   40.7300   35.8470   39.5250 C   0  0  0  0  0  0  0  0  0  0  0  0
   41.1840   34.7230   40.4270 C   0  0  1  0  0  0  0  0  0  0  0  0
   46.2670   35.9680   41.0510 H   0  0  0  0  0  0  0  0  0  0  0  0
   47.0380   31.9250   43.7830 H   0  0  0  0  0  0  0  0  0  0  0  0
   43.3050   35.0460   42.3920 H   0  0  0  0  0  0  0  0  0  0  0  0
   43.2450   34.9140   37.9270 H   0  0  0  0  0  0  0  0  0  0  0  0
   42.1410   33.4550   38.0380 H   0  0  0  0  0  0  0  0  0  0  0  0
   40.3810   34.9640   37.5910 H   0  0  0  0  0  0  0  0  0  0  0  0
   41.5290   36.3200   37.5280 H   0  0  0  0  0  0  0  0  0  0  0  0
   41.5050   36.6450   39.8060 H   0  0  0  0  0  0  0  0  0  0  0  0
   39.8290   36.3520   39.6400 H   0  0  0  0  0  0  0  0  0  0  0  0
   41.0890   35.1280   41.4240 H   0  0  0  0  0  0  0  0  0  0  0  0
   39.7680   32.8350   41.4460 C   0  0  0  0  0  0  0  0  0  0  0  0
   39.7590   33.5890   42.4410 O   0  0  0  0  0  0  0  0  0  0  0  0
   40.4050   33.4980   40.3230 N   0  0  0  0  0  0  0  0  0  0  0  0
   40.2890   33.0510   39.3620 H   0  0  0  0  0  0  0  0  0  0  0  0
   39.2310   31.5110   41.4100 C   0  0  0  0  0  0  0  0  0  0  0  0
   37.8970   31.4140   41.0840 C   0  0  0  0  0  0  0  0  0  0  0  0
   37.2620   32.2460   40.8640 H   0  0  0  0  0  0  0  0  0  0  0  0
   37.3140   30.1460   41.0330 C   0  0  0  0  0  0  0  0  0  0  0  0
   38.1060   29.0490   41.3120 C   0  0  0  0  0  0  0  0  0  0  0  0
   37.4960   27.8510   41.2500 N   0  0  0  0  0  0  0  0  0  0  0  0
   38.2230   26.7360   41.5140 C   0  0  0  0  0  0  0  0  0  0  0  0
   37.8170   25.7320   41.4880 H   0  0  0  0  0  0  0  0  0  0  0  0
   39.5670   26.8190   41.8440 C   0  0  0  0  0  0  0  0  0  0  0  0
   40.1990   28.0390   41.9100 C   0  0  0  0  0  0  0  0  0  0  0  0
   39.4420   29.1680   41.6370 C   0  0  0  0  0  0  0  0  0  0  0  0
   40.0230   30.4180   41.6890 C   0  0  0  0  0  0  0  0  0  0  0  0
   48.8530   35.5200   41.5280 C   0  0  0  0  0  0  0  0  0  0  0  0
   50.0700   34.9670   41.9000 F   0  0  0  0  0  0  0  0  0  0  0  0
   48.7640   36.7320   42.2400 F   0  0  0  0  0  0  0  0  0  0  0  0
   48.8480   35.7020   40.1760 F   0  0  0  0  0  0  0  0  0  0  0  0
  1  6  1  0  0  0  0
  2  3  1  0  0  0  0
  2  1  2  0  0  0  0
  3  4  2  0  0  0  0
  4  5  1  0  0  0  0
  5 16  1  0  0  0  0
  6  5  2  0  0  0  0
  7  9  1  0  0  0  0
  8  7  2  0  0  0  0
  9  1  1  0  0  0  0
  9 17  1  0  0  0  0
 10 14  1  0  0  0  0
 10  7  1  0  0  0  0
 11 10  1  0  0  0  0
 12 11  1  0  0  0  0
 12 13  1  0  0  0  0
 13 23  1  0  0  0  0
 13 22  1  0  0  0  0
 13 14  1  0  0  0  0
 14 24  1  1  0  0  0
 15  2  1  0  0  0  0
 18 11  1  0  0  0  0
 19 11  1  0  0  0  0
 20 12  1  0  0  0  0
 21 12  1  0  0  0  0
 25 26  2  0  0  0  0
 27 14  1  0  0  0  0
 27 25  1  0  0  0  0
 28 27  1  0  0  0  0
 29 25  1  0  0  0  0
 29 40  1  0  0  0  0
 30 29  2  0  0  0  0
 31 30  1  0  0  0  0
 32 30  1  0  0  0  0
 32 33  2  0  0  0  0
 33 39  1  0  0  0  0
 34 33  1  0  0  0  0
 34 35  2  0  0  0  0
 35 37  1  0  0  0  0
 36 35  1  0  0  0  0
 37 38  2  0  0  0  0
 39 40  2  0  0  0  0
 39 38  1  0  0  0  0
 41 42  1  0  0  0  0
 41  3  1  0  0  0  0
 41 43  1  0  0  0  0
 44 41  1  0  0  0  0
M  END
>  <minimizedAffinity>
-7.366539

>  <minimizedRMSD>
1.62603176

$$$$
