
 OpenBabel03252507173D

 32 35  0  0  0  0  0  0  0  0999 V2000
   36.0150   28.9240   38.4280 C   0  0  0  0  0  0  0  0  0  0  0  0
   36.6770   29.9570   39.1180 C   0  0  0  0  0  0  0  0  0  0  0  0
   37.3430   30.8970   38.3330 C   0  0  0  0  0  0  0  0  0  0  0  0
   37.3260   30.7850   37.0000 N   0  0  0  0  0  0  0  0  0  0  0  0
   36.6770   29.7740   36.3550 C   0  0  0  0  0  0  0  0  0  0  0  0
   36.0380   28.8710   37.0920 N   0  0  0  0  0  0  0  0  0  0  0  0
   35.4720   28.1520   38.9740 H   0  0  0  0  0  0  0  0  0  0  0  0
   36.7800   29.8550   35.2800 H   0  0  0  0  0  0  0  0  0  0  0  0
   38.0460   31.9910   39.0160 C   0  0  0  0  0  0  0  0  0  0  0  0
   37.3570   33.1320   39.3540 C   0  0  0  0  0  0  0  0  0  0  0  0
   38.0680   34.1290   39.9950 C   0  0  0  0  0  0  0  0  0  0  0  0
   39.4120   34.0590   40.3190 C   0  0  0  0  0  0  0  0  0  0  0  0
   40.0320   32.8710   39.9420 C   0  0  0  0  0  0  0  0  0  0  0  0
   39.3420   31.9000   39.3180 N   0  0  0  0  0  0  0  0  0  0  0  0
   36.3030   33.2690   39.1380 H   0  0  0  0  0  0  0  0  0  0  0  0
   37.5600   35.0520   40.2800 H   0  0  0  0  0  0  0  0  0  0  0  0
   39.9380   34.8420   40.8140 H   0  0  0  0  0  0  0  0  0  0  0  0
   41.0830   32.7310   40.1560 H   0  0  0  0  0  0  0  0  0  0  0  0
   36.6600   30.0280   40.5380 C   0  0  0  0  0  0  0  0  0  0  0  0
   35.7390   30.7230   41.0700 O   0  0  0  0  0  0  0  0  0  0  0  0
   37.6390   29.3460   41.3790 C   0  0  0  0  0  0  0  0  0  0  0  0
   38.5910   29.9900   42.1540 C   0  0  0  0  0  0  0  0  0  0  0  0
   38.5800   31.0690   42.1090 H   0  0  0  0  0  0  0  0  0  0  0  0
   39.4670   29.2110   42.9110 C   0  0  0  0  0  3  0  0  0  0  0  0
   39.3850   27.8340   42.8880 C   0  0  0  0  0  0  0  0  0  0  0  0
   40.2530   27.1320   43.6360 N   0  0  0  0  0  0  0  0  0  0  0  0
   40.2290   25.7690   43.6610 C   0  0  0  0  0  0  0  0  0  0  0  0
   40.9650   25.2900   44.2910 H   0  0  0  0  0  0  0  0  0  0  0  0
   39.2850   25.0770   42.8950 C   0  0  0  0  0  3  0  0  0  0  0  0
   38.3850   25.8170   42.1190 C   0  0  0  0  0  3  0  0  0  0  0  0
   38.4430   27.1890   42.1230 C   0  0  0  0  0  0  0  0  0  0  0  0
   37.5720   27.9490   41.3690 C   0  0  0  0  0  3  0  0  0  0  0  0
  1  7  1  0  0  0  0
  1  2  1  0  0  0  0
  2 19  1  0  0  0  0
  3  9  1  0  0  0  0
  3  2  2  0  0  0  0
  4  3  1  0  0  0  0
  5  4  2  0  0  0  0
  5  6  1  0  0  0  0
  6  1  2  0  0  0  0
  8  5  1  0  0  0  0
  9 14  2  0  0  0  0
  9 10  1  0  0  0  0
 10 11  2  0  0  0  0
 11 16  1  0  0  0  0
 11 12  1  0  0  0  0
 12 17  1  0  0  0  0
 13 18  1  0  0  0  0
 13 12  2  0  0  0  0
 14 13  1  0  0  0  0
 15 10  1  0  0  0  0
 19 20  2  0  0  0  0
 19 21  1  0  0  0  0
 21 22  1  0  0  0  0
 22 24  2  0  0  0  0
 23 22  1  0  0  0  0
 25 24  1  0  0  0  0
 25 26  1  0  0  0  0
 26 27  2  0  0  0  0
 27 28  1  0  0  0  0
 29 27  1  0  0  0  0
 30 31  1  0  0  0  0
 30 29  2  0  0  0  0
 31 25  2  0  0  0  0
 32 21  2  0  0  0  0
 32 31  1  0  0  0  0
M  END
>  <minimizedAffinity>
-6.02016783

$$$$

 OpenBabel03252507173D

 32 35  0  0  0  0  0  0  0  0999 V2000
   39.2030   32.2820   40.6010 C   0  0  0  0  0  0  0  0  0  0  0  0
   38.4600   31.1330   40.9290 C   0  0  0  0  0  0  0  0  0  0  0  0
   39.1020   30.1870   41.7270 C   0  0  0  0  0  0  0  0  0  0  0  0
   40.3570   30.4020   42.1370 N   0  0  0  0  0  0  0  0  0  0  0  0
   41.0560   31.5250   41.8050 C   0  0  0  0  0  0  0  0  0  0  0  0
   40.4560   32.4350   41.0450 N   0  0  0  0  0  0  0  0  0  0  0  0
   38.7670   33.0650   39.9810 H   0  0  0  0  0  0  0  0  0  0  0  0
   42.0520   31.5150   42.2300 H   0  0  0  0  0  0  0  0  0  0  0  0
   38.3590   28.9730   42.0910 C   0  0  0  0  0  0  0  0  0  0  0  0
   37.7170   28.9110   43.3050 C   0  0  0  0  0  0  0  0  0  0  0  0
   37.0340   27.7450   43.5950 C   0  0  0  0  0  0  0  0  0  0  0  0
   36.9490   26.6470   42.7560 C   0  0  0  0  0  0  0  0  0  0  0  0
   37.6260   26.7960   41.5480 C   0  0  0  0  0  0  0  0  0  0  0  0
   38.2920   27.9280   41.2640 N   0  0  0  0  0  0  0  0  0  0  0  0
   37.7320   29.7240   44.0210 H   0  0  0  0  0  0  0  0  0  0  0  0
   36.5110   27.6520   44.5490 H   0  0  0  0  0  0  0  0  0  0  0  0
   36.4150   25.7600   43.0030 H   0  0  0  0  0  0  0  0  0  0  0  0
   37.6130   25.9850   40.8320 H   0  0  0  0  0  0  0  0  0  0  0  0
   37.1260   30.9560   40.4660 C   0  0  0  0  0  0  0  0  0  0  0  0
   36.1910   31.2750   41.2650 O   0  0  0  0  0  0  0  0  0  0  0  0
   36.8080   30.4370   39.1400 C   0  0  0  0  0  0  0  0  0  0  0  0
   37.5200   30.7360   37.9880 C   0  0  0  0  0  0  0  0  0  0  0  0
   38.3610   31.4010   38.1170 H   0  0  0  0  0  0  0  0  0  0  0  0
   37.1030   30.1680   36.7840 C   0  0  0  0  0  3  0  0  0  0  0  0
   36.0090   29.3290   36.7430 C   0  0  0  0  0  0  0  0  0  0  0  0
   35.6500   28.8090   35.5570 N   0  0  0  0  0  0  0  0  0  0  0  0
   34.5790   27.9720   35.4430 C   0  0  0  0  0  0  0  0  0  0  0  0
   34.3660   27.6030   34.4500 H   0  0  0  0  0  0  0  0  0  0  0  0
   33.8320   27.6420   36.5780 C   0  0  0  0  0  3  0  0  0  0  0  0
   34.2130   28.1890   37.8090 C   0  0  0  0  0  3  0  0  0  0  0  0
   35.2980   29.0270   37.8800 C   0  0  0  0  0  0  0  0  0  0  0  0
   35.7010   29.5840   39.0770 C   0  0  0  0  0  3  0  0  0  0  0  0
  1  2  2  0  0  0  0
  1  6  1  0  0  0  0
  2  3  1  0  0  0  0
  3  9  1  0  0  0  0
  3  4  2  0  0  0  0
  5  4  1  0  0  0  0
  5  8  1  0  0  0  0
  6  5  2  0  0  0  0
  7  1  1  0  0  0  0
  9 10  1  0  0  0  0
 10 11  2  0  0  0  0
 10 15  1  0  0  0  0
 11 16  1  0  0  0  0
 12 17  1  0  0  0  0
 12 11  1  0  0  0  0
 13 12  2  0  0  0  0
 14 13  1  0  0  0  0
 14  9  2  0  0  0  0
 18 13  1  0  0  0  0
 19  2  1  0  0  0  0
 19 20  2  0  0  0  0
 21 19  1  0  0  0  0
 22 23  1  0  0  0  0
 22 21  2  0  0  0  0
 24 22  1  0  0  0  0
 25 24  2  0  0  0  0
 25 31  1  0  0  0  0
 26 25  1  0  0  0  0
 27 26  2  0  0  0  0
 27 29  1  0  0  0  0
 28 27  1  0  0  0  0
 29 30  2  0  0  0  0
 30 31  1  0  0  0  0
 31 32  2  0  0  0  0
 32 21  1  0  0  0  0
M  END
>  <minimizedAffinity>
-5.96166325

$$$$

 OpenBabel03252507173D

 32 35  0  0  0  0  0  0  0  0999 V2000
   37.0430   24.6640   41.9480 C   0  0  0  0  0  0  0  0  0  0  0  0
   37.0770   26.0530   41.7210 C   0  0  0  0  0  0  0  0  0  0  0  0
   36.7120   26.4810   40.4460 C   0  0  0  0  0  0  0  0  0  0  0  0
   36.3540   25.5850   39.5190 N   0  0  0  0  0  0  0  0  0  0  0  0
   36.3300   24.2430   39.7640 C   0  0  0  0  0  0  0  0  0  0  0  0
   36.6760   23.8220   40.9760 N   0  0  0  0  0  0  0  0  0  0  0  0
   37.3160   24.2550   42.9210 H   0  0  0  0  0  0  0  0  0  0  0  0
   36.0150   23.6830   38.8920 H   0  0  0  0  0  0  0  0  0  0  0  0
   36.7340   27.9230   40.1700 C   0  0  0  0  0  0  0  0  0  0  0  0
   35.6780   28.7060   40.5730 C   0  0  0  0  0  0  0  0  0  0  0  0
   35.7520   30.0560   40.2870 C   0  0  0  0  0  0  0  0  0  0  0  0
   36.8050   30.6700   39.6310 C   0  0  0  0  0  0  0  0  0  0  0  0
   37.8310   29.8050   39.2600 C   0  0  0  0  0  0  0  0  0  0  0  0
   37.7620   28.4910   39.5360 N   0  0  0  0  0  0  0  0  0  0  0  0
   34.8140   28.3070   41.0920 H   0  0  0  0  0  0  0  0  0  0  0  0
   34.9350   30.7140   40.5880 H   0  0  0  0  0  0  0  0  0  0  0  0
   36.8390   31.7130   39.4230 H   0  0  0  0  0  0  0  0  0  0  0  0
   38.6950   30.2000   38.7410 H   0  0  0  0  0  0  0  0  0  0  0  0
   37.4650   26.9610   42.7450 C   0  0  0  0  0  0  0  0  0  0  0  0
   36.5550   27.3570   43.5400 O   0  0  0  0  0  0  0  0  0  0  0  0
   38.8340   27.4370   42.9080 C   0  0  0  0  0  0  0  0  0  0  0  0
   39.9090   26.6320   43.2520 C   0  0  0  0  0  0  0  0  0  0  0  0
   39.6820   25.5860   43.4020 H   0  0  0  0  0  0  0  0  0  0  0  0
   41.1680   27.2220   43.3750 C   0  0  0  0  0  3  0  0  0  0  0  0
   41.3360   28.5740   43.1580 C   0  0  0  0  0  0  0  0  0  0  0  0
   42.5690   29.0910   43.2890 N   0  0  0  0  0  0  0  0  0  0  0  0
   42.8080   30.4180   43.0890 C   0  0  0  0  0  0  0  0  0  0  0  0
   43.8310   30.7440   43.2160 H   0  0  0  0  0  0  0  0  0  0  0  0
   41.7540   31.2690   42.7400 C   0  0  0  0  0  3  0  0  0  0  0  0
   40.4730   30.7210   42.6060 C   0  0  0  0  0  3  0  0  0  0  0  0
   40.2750   29.3780   42.8150 C   0  0  0  0  0  0  0  0  0  0  0  0
   39.0250   28.8060   42.6920 C   0  0  0  0  0  3  0  0  0  0  0  0
  1  7  1  0  0  0  0
  2  1  1  0  0  0  0
  2 19  1  0  0  0  0
  3  2  2  0  0  0  0
  4  5  2  0  0  0  0
  4  3  1  0  0  0  0
  5  6  1  0  0  0  0
  6  1  2  0  0  0  0
  8  5  1  0  0  0  0
  9  3  1  0  0  0  0
  9 10  1  0  0  0  0
 10 15  1  0  0  0  0
 11 10  2  0  0  0  0
 11 16  1  0  0  0  0
 12 11  1  0  0  0  0
 13 14  1  0  0  0  0
 13 12  2  0  0  0  0
 14  9  2  0  0  0  0
 17 12  1  0  0  0  0
 18 13  1  0  0  0  0
 19 21  1  0  0  0  0
 19 20  2  0  0  0  0
 21 22  1  0  0  0  0
 22 24  2  0  0  0  0
 22 23  1  0  0  0  0
 25 26  1  0  0  0  0
 25 24  1  0  0  0  0
 27 28  1  0  0  0  0
 27 26  2  0  0  0  0
 29 27  1  0  0  0  0
 30 29  2  0  0  0  0
 30 31  1  0  0  0  0
 31 25  2  0  0  0  0
 32 31  1  0  0  0  0
 32 21  2  0  0  0  0
M  END
>  <minimizedAffinity>
-5.92290258

$$$$

 OpenBabel03252507173D

 32 35  0  0  0  0  0  0  0  0999 V2000
   40.5970   33.8820   39.5480 C   0  0  0  0  0  0  0  0  0  0  0  0
   39.7050   32.8380   39.2350 C   0  0  0  0  0  0  0  0  0  0  0  0
   39.9640   32.1340   38.0600 C   0  0  0  0  0  0  0  0  0  0  0  0
   41.0160   32.4660   37.3030 N   0  0  0  0  0  0  0  0  0  0  0  0
   41.8660   33.4820   37.6280 C   0  0  0  0  0  0  0  0  0  0  0  0
   41.6300   34.1610   38.7460 N   0  0  0  0  0  0  0  0  0  0  0  0
   40.4580   34.4760   40.4510 H   0  0  0  0  0  0  0  0  0  0  0  0
   42.6520   33.5970   36.8920 H   0  0  0  0  0  0  0  0  0  0  0  0
   39.0570   31.0370   37.6990 C   0  0  0  0  0  0  0  0  0  0  0  0
   39.4610   29.7360   37.8810 C   0  0  0  0  0  0  0  0  0  0  0  0
   38.5670   28.7450   37.5230 C   0  0  0  0  0  0  0  0  0  0  0  0
   37.3040   28.9680   37.0030 C   0  0  0  0  0  0  0  0  0  0  0  0
   36.9750   30.3130   36.8540 C   0  0  0  0  0  0  0  0  0  0  0  0
   37.8430   31.2790   37.1990 N   0  0  0  0  0  0  0  0  0  0  0  0
   40.4330   29.4720   38.2820 H   0  0  0  0  0  0  0  0  0  0  0  0
   38.8470   27.6970   37.6490 H   0  0  0  0  0  0  0  0  0  0  0  0
   36.6320   28.1860   36.7360 H   0  0  0  0  0  0  0  0  0  0  0  0
   36.0060   30.5800   36.4530 H   0  0  0  0  0  0  0  0  0  0  0  0
   38.6030   32.5280   40.0790 C   0  0  0  0  0  0  0  0  0  0  0  0
   37.5720   33.2640   39.9740 O   0  0  0  0  0  0  0  0  0  0  0  0
   38.6180   31.4230   41.0320 C   0  0  0  0  0  0  0  0  0  0  0  0
   39.5900   31.2380   42.0030 C   0  0  0  0  0  0  0  0  0  0  0  0
   40.3740   31.9810   42.0290 H   0  0  0  0  0  0  0  0  0  0  0  0
   39.4800   30.1350   42.8500 C   0  0  0  0  0  3  0  0  0  0  0  0
   38.4290   29.2500   42.7220 C   0  0  0  0  0  0  0  0  0  0  0  0
   38.3710   28.2040   43.5630 N   0  0  0  0  0  0  0  0  0  0  0  0
   37.3600   27.2920   43.4940 C   0  0  0  0  0  0  0  0  0  0  0  0
   37.3970   26.4840   44.2110 H   0  0  0  0  0  0  0  0  0  0  0  0
   36.3580   27.4380   42.5300 C   0  0  0  0  0  3  0  0  0  0  0  0
   36.4270   28.5310   41.6580 C   0  0  0  0  0  3  0  0  0  0  0  0
   37.4610   29.4280   41.7620 C   0  0  0  0  0  0  0  0  0  0  0  0
   37.5600   30.5160   40.9180 C   0  0  0  0  0  3  0  0  0  0  0  0
  1  7  1  0  0  0  0
  2  1  1  0  0  0  0
  2 19  1  0  0  0  0
  3  2  2  0  0  0  0
  4  5  2  0  0  0  0
  4  3  1  0  0  0  0
  5  6  1  0  0  0  0
  6  1  2  0  0  0  0
  8  5  1  0  0  0  0
  9 10  1  0  0  0  0
  9  3  1  0  0  0  0
 10 15  1  0  0  0  0
 11 16  1  0  0  0  0
 11 10  2  0  0  0  0
 12 11  1  0  0  0  0
 13 12  2  0  0  0  0
 13 14  1  0  0  0  0
 14  9  2  0  0  0  0
 17 12  1  0  0  0  0
 18 13  1  0  0  0  0
 19 21  1  0  0  0  0
 20 19  2  0  0  0  0
 21 22  1  0  0  0  0
 22 23  1  0  0  0  0
 22 24  2  0  0  0  0
 25 24  1  0  0  0  0
 25 26  1  0  0  0  0
 27 26  2  0  0  0  0
 27 28  1  0  0  0  0
 29 27  1  0  0  0  0
 30 31  1  0  0  0  0
 30 29  2  0  0  0  0
 31 25  2  0  0  0  0
 32 21  2  0  0  0  0
 32 31  1  0  0  0  0
M  END
>  <minimizedAffinity>
-5.8336134

$$$$

 OpenBabel03252507173D

 32 35  0  0  0  0  0  0  0  0999 V2000
   35.8220   29.1890   41.0910 C   0  0  0  0  0  0  0  0  0  0  0  0
   36.5100   27.9850   41.3320 C   0  0  0  0  0  0  0  0  0  0  0  0
   36.6400   27.1180   40.2490 C   0  0  0  0  0  0  0  0  0  0  0  0
   36.1240   27.4540   39.0610 N   0  0  0  0  0  0  0  0  0  0  0  0
   35.4610   28.6270   38.8520 C   0  0  0  0  0  0  0  0  0  0  0  0
   35.3300   29.4630   39.8770 N   0  0  0  0  0  0  0  0  0  0  0  0
   35.6810   29.9170   41.8900 H   0  0  0  0  0  0  0  0  0  0  0  0
   35.1180   28.7150   37.8290 H   0  0  0  0  0  0  0  0  0  0  0  0
   37.3530   25.8510   40.4610 C   0  0  0  0  0  0  0  0  0  0  0  0
   36.7280   24.8280   41.1340 C   0  0  0  0  0  0  0  0  0  0  0  0
   37.4460   23.6590   41.3060 C   0  0  0  0  0  0  0  0  0  0  0  0
   38.7360   23.4490   40.8500 C   0  0  0  0  0  0  0  0  0  0  0  0
   39.2920   24.5350   40.1780 C   0  0  0  0  0  0  0  0  0  0  0  0
   38.5960   25.6730   40.0110 N   0  0  0  0  0  0  0  0  0  0  0  0
   35.7210   24.9090   41.5250 H   0  0  0  0  0  0  0  0  0  0  0  0
   36.9900   22.8210   41.8360 H   0  0  0  0  0  0  0  0  0  0  0  0
   39.2680   22.5370   40.9940 H   0  0  0  0  0  0  0  0  0  0  0  0
   40.2970   24.4570   39.7880 H   0  0  0  0  0  0  0  0  0  0  0  0
   37.0400   27.6800   42.6170 C   0  0  0  0  0  0  0  0  0  0  0  0
   36.2050   27.3960   43.5320 O   0  0  0  0  0  0  0  0  0  0  0  0
   38.4700   27.6830   42.9080 C   0  0  0  0  0  0  0  0  0  0  0  0
   39.1620   26.6130   43.4520 C   0  0  0  0  0  0  0  0  0  0  0  0
   38.5720   25.7320   43.6630 H   0  0  0  0  0  0  0  0  0  0  0  0
   40.5310   26.7550   43.6800 C   0  0  0  0  0  3  0  0  0  0  0  0
   41.1790   27.9320   43.3690 C   0  0  0  0  0  0  0  0  0  0  0  0
   42.4980   28.0160   43.6080 N   0  0  0  0  0  0  0  0  0  0  0  0
   43.2010   29.1490   43.3250 C   0  0  0  0  0  0  0  0  0  0  0  0
   44.2580   29.1240   43.5510 H   0  0  0  0  0  0  0  0  0  0  0  0
   42.5450   30.2540   42.7740 C   0  0  0  0  0  3  0  0  0  0  0  0
   41.1700   30.1580   42.5290 C   0  0  0  0  0  3  0  0  0  0  0  0
   40.4990   28.9980   42.8280 C   0  0  0  0  0  0  0  0  0  0  0  0
   39.1440   28.8690   42.6000 C   0  0  0  0  0  3  0  0  0  0  0  0
  1  2  1  0  0  0  0
  1  7  1  0  0  0  0
  2 19  1  0  0  0  0
  3  9  1  0  0  0  0
  3  2  2  0  0  0  0
  4  3  1  0  0  0  0
  5  4  2  0  0  0  0
  5  6  1  0  0  0  0
  6  1  2  0  0  0  0
  8  5  1  0  0  0  0
  9 10  1  0  0  0  0
 10 11  2  0  0  0  0
 10 15  1  0  0  0  0
 11 16  1  0  0  0  0
 12 17  1  0  0  0  0
 12 11  1  0  0  0  0
 13 12  2  0  0  0  0
 14 13  1  0  0  0  0
 14  9  2  0  0  0  0
 18 13  1  0  0  0  0
 19 21  1  0  0  0  0
 19 20  2  0  0  0  0
 21 22  1  0  0  0  0
 22 23  1  0  0  0  0
 22 24  2  0  0  0  0
 25 26  1  0  0  0  0
 25 24  1  0  0  0  0
 27 28  1  0  0  0  0
 27 26  2  0  0  0  0
 29 27  1  0  0  0  0
 30 29  2  0  0  0  0
 30 31  1  0  0  0  0
 31 25  2  0  0  0  0
 32 31  1  0  0  0  0
 32 21  2  0  0  0  0
M  END
>  <minimizedAffinity>
-5.78593016

$$$$

 OpenBabel03252507173D

 32 35  0  0  0  0  0  0  0  0999 V2000
   36.5330   27.9840   42.3660 C   0  0  0  0  0  0  0  0  0  0  0  0
   37.1160   29.0430   41.6440 C   0  0  0  0  0  0  0  0  0  0  0  0
   38.5040   29.1480   41.7130 C   0  0  0  0  0  0  0  0  0  0  0  0
   39.2040   28.2670   42.4360 N   0  0  0  0  0  0  0  0  0  0  0  0
   38.6150   27.2500   43.1270 C   0  0  0  0  0  0  0  0  0  0  0  0
   37.2920   27.1380   43.0700 N   0  0  0  0  0  0  0  0  0  0  0  0
   35.4520   27.8380   42.3600 H   0  0  0  0  0  0  0  0  0  0  0  0
   39.3470   26.6460   43.6510 H   0  0  0  0  0  0  0  0  0  0  0  0
   39.1500   30.2400   40.9730 C   0  0  0  0  0  0  0  0  0  0  0  0
   39.5960   30.0190   39.6920 C   0  0  0  0  0  0  0  0  0  0  0  0
   40.1970   31.0820   39.0430 C   0  0  0  0  0  0  0  0  0  0  0  0
   40.3760   32.3420   39.5880 C   0  0  0  0  0  0  0  0  0  0  0  0
   39.8940   32.4790   40.8870 C   0  0  0  0  0  0  0  0  0  0  0  0
   39.3110   31.4470   41.5210 N   0  0  0  0  0  0  0  0  0  0  0  0
   39.4960   29.0630   39.1900 H   0  0  0  0  0  0  0  0  0  0  0  0
   40.5670   30.9500   38.0250 H   0  0  0  0  0  0  0  0  0  0  0  0
   40.8420   33.1450   39.0670 H   0  0  0  0  0  0  0  0  0  0  0  0
   39.9930   33.4320   41.3900 H   0  0  0  0  0  0  0  0  0  0  0  0
   36.3210   29.9500   40.8900 C   0  0  0  0  0  0  0  0  0  0  0  0
   36.1590   31.1140   41.3750 O   0  0  0  0  0  0  0  0  0  0  0  0
   35.7070   29.5970   39.6140 C   0  0  0  0  0  0  0  0  0  0  0  0
   34.4470   29.0350   39.4790 C   0  0  0  0  0  0  0  0  0  0  0  0
   33.9110   28.8590   40.4010 H   0  0  0  0  0  0  0  0  0  0  0  0
   33.9840   28.7470   38.1950 C   0  0  0  0  0  3  0  0  0  0  0  0
   34.7610   29.0160   37.0880 C   0  0  0  0  0  0  0  0  0  0  0  0
   34.2670   28.7190   35.8750 N   0  0  0  0  0  0  0  0  0  0  0  0
   34.9800   28.9590   34.7380 C   0  0  0  0  0  0  0  0  0  0  0  0
   34.5020   28.6880   33.8080 H   0  0  0  0  0  0  0  0  0  0  0  0
   36.2560   29.5260   34.8260 C   0  0  0  0  0  3  0  0  0  0  0  0
   36.7630   29.8320   36.0940 C   0  0  0  0  0  3  0  0  0  0  0  0
   36.0110   29.5750   37.2140 C   0  0  0  0  0  0  0  0  0  0  0  0
   36.4810   29.8630   38.4800 C   0  0  0  0  0  3  0  0  0  0  0  0
  1  6  1  0  0  0  0
  2  3  1  0  0  0  0
  2  1  2  0  0  0  0
  3  4  2  0  0  0  0
  4  5  1  0  0  0  0
  5  8  1  0  0  0  0
  6  5  2  0  0  0  0
  7  1  1  0  0  0  0
  9 14  1  0  0  0  0
  9  3  1  0  0  0  0
 10  9  2  0  0  0  0
 11 12  2  0  0  0  0
 11 10  1  0  0  0  0
 12 13  1  0  0  0  0
 13 18  1  0  0  0  0
 13 14  2  0  0  0  0
 15 10  1  0  0  0  0
 16 11  1  0  0  0  0
 17 12  1  0  0  0  0
 19 20  2  0  0  0  0
 19  2  1  0  0  0  0
 21 19  1  0  0  0  0
 22 21  1  0  0  0  0
 22 23  1  0  0  0  0
 24 22  2  0  0  0  0
 25 31  1  0  0  0  0
 25 24  1  0  0  0  0
 26 25  2  0  0  0  0
 27 29  2  0  0  0  0
 27 26  1  0  0  0  0
 28 27  1  0  0  0  0
 29 30  1  0  0  0  0
 30 31  2  0  0  0  0
 31 32  1  0  0  0  0
 32 21  2  0  0  0  0
M  END
>  <minimizedAffinity>
-5.774755

$$$$

 OpenBabel03252507173D

 32 35  0  0  0  0  0  0  0  0999 V2000
   35.7440   29.6310   38.0660 C   0  0  0  0  0  0  0  0  0  0  0  0
   36.3720   29.5210   39.3210 C   0  0  0  0  0  0  0  0  0  0  0  0
   36.6690   28.2290   39.7540 C   0  0  0  0  0  0  0  0  0  0  0  0
   36.3580   27.1810   38.9840 N   0  0  0  0  0  0  0  0  0  0  0  0
   35.7500   27.3140   37.7700 C   0  0  0  0  0  0  0  0  0  0  0  0
   35.4610   28.5400   37.3460 N   0  0  0  0  0  0  0  0  0  0  0  0
   35.4820   30.6090   37.6620 H   0  0  0  0  0  0  0  0  0  0  0  0
   35.5800   26.3530   37.3000 H   0  0  0  0  0  0  0  0  0  0  0  0
   37.3240   28.0730   41.0590 C   0  0  0  0  0  0  0  0  0  0  0  0
   36.5680   27.7550   42.1620 C   0  0  0  0  0  0  0  0  0  0  0  0
   37.2370   27.6210   43.3650 C   0  0  0  0  0  0  0  0  0  0  0  0
   38.6010   27.7810   43.5330 C   0  0  0  0  0  0  0  0  0  0  0  0
   39.2900   28.1000   42.3660 C   0  0  0  0  0  0  0  0  0  0  0  0
   38.6420   28.2320   41.1950 N   0  0  0  0  0  0  0  0  0  0  0  0
   35.4940   27.6130   42.1190 H   0  0  0  0  0  0  0  0  0  0  0  0
   36.6750   27.3710   44.2670 H   0  0  0  0  0  0  0  0  0  0  0  0
   39.0930   27.6710   44.4710 H   0  0  0  0  0  0  0  0  0  0  0  0
   40.3610   28.2430   42.4060 H   0  0  0  0  0  0  0  0  0  0  0  0
   36.6800   30.6720   40.0980 C   0  0  0  0  0  0  0  0  0  0  0  0
   35.9250   30.9170   41.0910 O   0  0  0  0  0  0  0  0  0  0  0  0
   37.8040   31.5530   39.8010 C   0  0  0  0  0  0  0  0  0  0  0  0
   38.0040   32.7950   40.3840 C   0  0  0  0  0  0  0  0  0  0  0  0
   37.2580   33.0990   41.1050 H   0  0  0  0  0  0  0  0  0  0  0  0
   39.1250   33.5340   40.0040 C   0  0  0  0  0  3  0  0  0  0  0  0
   40.0120   33.0400   39.0710 C   0  0  0  0  0  0  0  0  0  0  0  0
   41.0740   33.7920   38.7410 N   0  0  0  0  0  0  0  0  0  0  0  0
   41.9910   33.3660   37.8260 C   0  0  0  0  0  0  0  0  0  0  0  0
   42.8120   34.0380   37.6240 H   0  0  0  0  0  0  0  0  0  0  0  0
   41.8300   32.1200   37.2110 C   0  0  0  0  0  3  0  0  0  0  0  0
   40.7200   31.3430   37.5610 C   0  0  0  0  0  3  0  0  0  0  0  0
   39.8210   31.8090   38.4880 C   0  0  0  0  0  0  0  0  0  0  0  0
   38.7150   31.0690   38.8560 C   0  0  0  0  0  3  0  0  0  0  0  0
  1  2  1  0  0  0  0
  2  3  2  0  0  0  0
  2 19  1  0  0  0  0
  3  9  1  0  0  0  0
  4  3  1  0  0  0  0
  5  4  2  0  0  0  0
  6  5  1  0  0  0  0
  6  1  2  0  0  0  0
  7  1  1  0  0  0  0
  8  5  1  0  0  0  0
  9 14  2  0  0  0  0
  9 10  1  0  0  0  0
 10 11  2  0  0  0  0
 11 12  1  0  0  0  0
 11 16  1  0  0  0  0
 12 17  1  0  0  0  0
 13 18  1  0  0  0  0
 13 12  2  0  0  0  0
 14 13  1  0  0  0  0
 15 10  1  0  0  0  0
 19 20  2  0  0  0  0
 21 19  1  0  0  0  0
 21 22  1  0  0  0  0
 22 23  1  0  0  0  0
 24 22  2  0  0  0  0
 25 24  1  0  0  0  0
 26 25  1  0  0  0  0
 27 26  2  0  0  0  0
 28 27  1  0  0  0  0
 29 30  2  0  0  0  0
 29 27  1  0  0  0  0
 30 31  1  0  0  0  0
 31 32  1  0  0  0  0
 31 25  2  0  0  0  0
 32 21  2  0  0  0  0
M  END
>  <minimizedAffinity>
-5.75905943

$$$$

 OpenBabel03252507173D

 32 35  0  0  0  0  0  0  0  0999 V2000
   39.9690   32.1960   40.2360 C   0  0  0  0  0  0  0  0  0  0  0  0
   38.9950   31.2400   39.8910 C   0  0  0  0  0  0  0  0  0  0  0  0
   37.6800   31.6950   39.8120 C   0  0  0  0  0  0  0  0  0  0  0  0
   37.4050   32.9810   40.0590 N   0  0  0  0  0  0  0  0  0  0  0  0
   38.3670   33.8890   40.3920 C   0  0  0  0  0  0  0  0  0  0  0  0
   39.6250   33.4670   40.4710 N   0  0  0  0  0  0  0  0  0  0  0  0
   41.0190   31.9130   40.3170 H   0  0  0  0  0  0  0  0  0  0  0  0
   37.9480   34.8740   40.5540 H   0  0  0  0  0  0  0  0  0  0  0  0
   36.6350   30.7280   39.4540 C   0  0  0  0  0  0  0  0  0  0  0  0
   35.8420   30.1910   40.4400 C   0  0  0  0  0  0  0  0  0  0  0  0
   34.8760   29.2850   40.0460 C   0  0  0  0  0  0  0  0  0  0  0  0
   34.6520   28.8860   38.7400 C   0  0  0  0  0  0  0  0  0  0  0  0
   35.4970   29.4780   37.8060 C   0  0  0  0  0  0  0  0  0  0  0  0
   36.4390   30.3590   38.1870 N   0  0  0  0  0  0  0  0  0  0  0  0
   35.9500   30.4490   41.4880 H   0  0  0  0  0  0  0  0  0  0  0  0
   34.2240   28.8340   40.7960 H   0  0  0  0  0  0  0  0  0  0  0  0
   33.8990   28.1850   38.4610 H   0  0  0  0  0  0  0  0  0  0  0  0
   35.3930   29.2230   36.7600 H   0  0  0  0  0  0  0  0  0  0  0  0
   39.3460   29.8840   39.6380 C   0  0  0  0  0  0  0  0  0  0  0  0
   40.0650   29.6560   38.6150 O   0  0  0  0  0  0  0  0  0  0  0  0
   38.9190   28.7810   40.4910 C   0  0  0  0  0  0  0  0  0  0  0  0
   39.0670   28.7520   41.8690 C   0  0  0  0  0  0  0  0  0  0  0  0
   39.5330   29.6230   42.3090 H   0  0  0  0  0  0  0  0  0  0  0  0
   38.6130   27.6300   42.5620 C   0  0  0  0  0  3  0  0  0  0  0  0
   38.0320   26.5740   41.8900 C   0  0  0  0  0  0  0  0  0  0  0  0
   37.6120   25.5180   42.6060 N   0  0  0  0  0  0  0  0  0  0  0  0
   37.0280   24.4410   42.0070 C   0  0  0  0  0  0  0  0  0  0  0  0
   36.7230   23.6380   42.6630 H   0  0  0  0  0  0  0  0  0  0  0  0
   36.8580   24.4250   40.6190 C   0  0  0  0  0  3  0  0  0  0  0  0
   37.2990   25.5310   39.8820 C   0  0  0  0  0  3  0  0  0  0  0  0
   37.8810   26.5960   40.5240 C   0  0  0  0  0  0  0  0  0  0  0  0
   38.3270   27.7010   39.8280 C   0  0  0  0  0  3  0  0  0  0  0  0
  1  7  1  0  0  0  0
  1  6  1  0  0  0  0
  2  1  2  0  0  0  0
  3  2  1  0  0  0  0
  3  4  2  0  0  0  0
  4  5  1  0  0  0  0
  5  6  2  0  0  0  0
  5  8  1  0  0  0  0
  9  3  1  0  0  0  0
  9 10  1  0  0  0  0
 10 15  1  0  0  0  0
 11 10  2  0  0  0  0
 11 16  1  0  0  0  0
 12 11  1  0  0  0  0
 13 14  1  0  0  0  0
 13 12  2  0  0  0  0
 14  9  2  0  0  0  0
 17 12  1  0  0  0  0
 18 13  1  0  0  0  0
 19  2  1  0  0  0  0
 19 21  1  0  0  0  0
 20 19  2  0  0  0  0
 21 22  1  0  0  0  0
 22 23  1  0  0  0  0
 22 24  2  0  0  0  0
 25 24  1  0  0  0  0
 25 26  1  0  0  0  0
 27 26  2  0  0  0  0
 27 28  1  0  0  0  0
 29 27  1  0  0  0  0
 30 31  1  0  0  0  0
 30 29  2  0  0  0  0
 31 25  2  0  0  0  0
 32 21  2  0  0  0  0
 32 31  1  0  0  0  0
M  END
>  <minimizedAffinity>
-5.67130709

$$$$

 OpenBabel03252507173D

 32 35  0  0  0  0  0  0  0  0999 V2000
   36.7370   31.5750   40.6780 C   0  0  0  0  0  0  0  0  0  0  0  0
   36.5390   30.3220   40.0680 C   0  0  0  0  0  0  0  0  0  0  0  0
   36.7940   30.2530   38.6990 C   0  0  0  0  0  0  0  0  0  0  0  0
   37.2040   31.3440   38.0420 N   0  0  0  0  0  0  0  0  0  0  0  0
   37.3890   32.5470   38.6560 C   0  0  0  0  0  0  0  0  0  0  0  0
   37.1490   32.6270   39.9610 N   0  0  0  0  0  0  0  0  0  0  0  0
   36.5580   31.7060   41.7450 H   0  0  0  0  0  0  0  0  0  0  0  0
   37.7210   33.3060   37.9580 H   0  0  0  0  0  0  0  0  0  0  0  0
   36.5990   28.9620   38.0260 C   0  0  0  0  0  0  0  0  0  0  0  0
   37.6690   28.1140   37.8670 C   0  0  0  0  0  0  0  0  0  0  0  0
   37.4280   26.9130   37.2260 C   0  0  0  0  0  0  0  0  0  0  0  0
   36.1970   26.5090   36.7390 C   0  0  0  0  0  0  0  0  0  0  0  0
   35.1700   27.4270   36.9430 C   0  0  0  0  0  0  0  0  0  0  0  0
   35.4020   28.5960   37.5660 N   0  0  0  0  0  0  0  0  0  0  0  0
   38.6670   28.3510   38.2180 H   0  0  0  0  0  0  0  0  0  0  0  0
   38.2490   26.2090   37.0780 H   0  0  0  0  0  0  0  0  0  0  0  0
   36.0370   25.5770   36.2490 H   0  0  0  0  0  0  0  0  0  0  0  0
   34.1730   27.1920   36.5940 H   0  0  0  0  0  0  0  0  0  0  0  0
   36.1020   29.1950   40.8170 C   0  0  0  0  0  0  0  0  0  0  0  0
   34.8570   28.9390   40.8000 O   0  0  0  0  0  0  0  0  0  0  0  0
   37.0120   28.3470   41.5800 C   0  0  0  0  0  0  0  0  0  0  0  0
   37.7400   28.7700   42.6820 C   0  0  0  0  0  0  0  0  0  0  0  0
   37.6000   29.8020   42.9670 H   0  0  0  0  0  0  0  0  0  0  0  0
   38.5750   27.8500   43.3180 C   0  0  0  0  0  3  0  0  0  0  0  0
   38.6720   26.5520   42.8600 C   0  0  0  0  0  0  0  0  0  0  0  0
   39.4900   25.7080   43.5100 N   0  0  0  0  0  0  0  0  0  0  0  0
   39.6340   24.4120   43.1120 C   0  0  0  0  0  0  0  0  0  0  0  0
   40.3150   23.8070   43.6950 H   0  0  0  0  0  0  0  0  0  0  0  0
   38.9200   23.9410   42.0060 C   0  0  0  0  0  3  0  0  0  0  0  0
   38.0690   24.8280   41.3360 C   0  0  0  0  0  3  0  0  0  0  0  0
   37.9530   26.1260   41.7690 C   0  0  0  0  0  0  0  0  0  0  0  0
   37.1240   27.0270   41.1310 C   0  0  0  0  0  3  0  0  0  0  0  0
  1  7  1  0  0  0  0
  2  1  1  0  0  0  0
  2 19  1  0  0  0  0
  3  2  2  0  0  0  0
  4  5  2  0  0  0  0
  4  3  1  0  0  0  0
  5  6  1  0  0  0  0
  6  1  2  0  0  0  0
  8  5  1  0  0  0  0
  9  3  1  0  0  0  0
 10  9  1  0  0  0  0
 10 15  1  0  0  0  0
 11 10  2  0  0  0  0
 12 13  2  0  0  0  0
 12 11  1  0  0  0  0
 13 14  1  0  0  0  0
 14  9  2  0  0  0  0
 16 11  1  0  0  0  0
 17 12  1  0  0  0  0
 18 13  1  0  0  0  0
 19 21  1  0  0  0  0
 20 19  2  0  0  0  0
 21 22  1  0  0  0  0
 22 23  1  0  0  0  0
 22 24  2  0  0  0  0
 25 24  1  0  0  0  0
 25 26  1  0  0  0  0
 27 26  2  0  0  0  0
 27 28  1  0  0  0  0
 29 27  1  0  0  0  0
 30 31  1  0  0  0  0
 30 29  2  0  0  0  0
 31 25  2  0  0  0  0
 32 21  2  0  0  0  0
 32 31  1  0  0  0  0
M  END
>  <minimizedAffinity>
-5.61787081

$$$$
