
 OpenBabel03252507173D

 32 35  0  0  0  0  0  0  0  0999 V2000
   45.2430   36.2060   43.5200 C   0  0  0  0  0  0  0  0  0  0  0  0
   45.8650   35.0000   43.1460 C   0  0  0  0  0  0  0  0  0  0  0  0
   45.8040   33.9590   44.0720 C   0  0  0  0  0  0  0  0  0  0  0  0
   45.1750   34.1410   45.2390 N   0  0  0  0  0  0  0  0  0  0  0  0
   44.5810   35.3210   45.5780 C   0  0  0  0  0  0  0  0  0  0  0  0
   44.6320   36.3210   44.7040 N   0  0  0  0  0  0  0  0  0  0  0  0
   45.2510   37.0650   42.8480 H   0  0  0  0  0  0  0  0  0  0  0  0
   44.1280   35.2720   46.5600 H   0  0  0  0  0  0  0  0  0  0  0  0
   46.4400   32.6840   43.7180 C   0  0  0  0  0  0  0  0  0  0  0  0
   45.6610   31.6290   43.3060 C   0  0  0  0  0  0  0  0  0  0  0  0
   46.3130   30.4530   42.9870 C   0  0  0  0  0  0  0  0  0  0  0  0
   47.6830   30.2650   43.0500 C   0  0  0  0  0  0  0  0  0  0  0  0
   48.3960   31.3830   43.4750 C   0  0  0  0  0  0  0  0  0  0  0  0
   47.7640   32.5280   43.7880 N   0  0  0  0  0  0  0  0  0  0  0  0
   44.5810   31.6900   43.2280 H   0  0  0  0  0  0  0  0  0  0  0  0
   45.7330   29.5900   42.6560 H   0  0  0  0  0  0  0  0  0  0  0  0
   48.1620   29.3480   42.7980 H   0  0  0  0  0  0  0  0  0  0  0  0
   49.4730   31.3260   43.5540 H   0  0  0  0  0  0  0  0  0  0  0  0
   46.5180   34.8620   41.8900 C   0  0  0  0  0  0  0  0  0  0  0  0
   47.6950   35.3350   41.7970 O   0  0  0  0  0  0  0  0  0  0  0  0
   45.8990   34.2120   40.7400 C   0  0  0  0  0  0  0  0  0  0  0  0
   44.5300   34.0770   40.5590 C   0  0  0  0  0  0  0  0  0  0  0  0
   43.9100   34.4920   41.3400 H   0  0  0  0  0  0  0  0  0  0  0  0
   44.0740   33.4310   39.4090 C   0  0  0  0  0  3  0  0  0  0  0  0
   44.9640   32.9390   38.4780 C   0  0  0  0  0  0  0  0  0  0  0  0
   44.4720   32.3260   37.3890 N   0  0  0  0  0  0  0  0  0  0  0  0
   45.2920   31.8160   36.4270 C   0  0  0  0  0  0  0  0  0  0  0  0
   44.8070   31.3390   35.5870 H   0  0  0  0  0  0  0  0  0  0  0  0
   46.6800   31.9290   36.5680 C   0  0  0  0  0  3  0  0  0  0  0  0
   47.1840   32.5700   37.7060 C   0  0  0  0  0  3  0  0  0  0  0  0
   46.3220   33.0690   38.6500 C   0  0  0  0  0  0  0  0  0  0  0  0
   46.7850   33.7060   39.7840 C   0  0  0  0  0  3  0  0  0  0  0  0
  1  6  1  0  0  0  0
  2  1  2  0  0  0  0
  2  3  1  0  0  0  0
  3  4  2  0  0  0  0
  4  5  1  0  0  0  0
  5  8  1  0  0  0  0
  6  5  2  0  0  0  0
  7  1  1  0  0  0  0
  9 14  1  0  0  0  0
  9  3  1  0  0  0  0
 10  9  2  0  0  0  0
 11 12  2  0  0  0  0
 11 10  1  0  0  0  0
 12 13  1  0  0  0  0
 13 18  1  0  0  0  0
 13 14  2  0  0  0  0
 15 10  1  0  0  0  0
 16 11  1  0  0  0  0
 17 12  1  0  0  0  0
 19  2  1  0  0  0  0
 20 19  2  0  0  0  0
 21 19  1  0  0  0  0
 22 21  1  0  0  0  0
 22 23  1  0  0  0  0
 24 22  2  0  0  0  0
 25 31  1  0  0  0  0
 25 24  1  0  0  0  0
 26 25  2  0  0  0  0
 27 29  2  0  0  0  0
 27 26  1  0  0  0  0
 28 27  1  0  0  0  0
 29 30  1  0  0  0  0
 30 31  2  0  0  0  0
 31 32  1  0  0  0  0
 32 21  2  0  0  0  0
M  END
>  <minimizedAffinity>
-5.1276865

>  <minimizedRMSD>
0.750774562

$$$$
