
 OpenBabel03252502023D

 37 41  0  0  0  0  0  0  0  0999 V2000
   47.7140   32.2390   48.3380 C   0  0  0  0  0  0  0  0  0  0  0  0
   47.5410   30.8660   48.2940 C   0  0  0  0  0  0  0  0  0  0  0  0
   46.8100   30.3740   47.2460 C   0  0  0  0  0  0  0  0  0  0  0  0
   46.3020   31.2100   46.3260 N   0  0  0  0  0  0  0  0  0  0  0  0
   46.4630   32.5150   46.3640 C   0  0  0  0  0  0  0  0  0  0  0  0
   47.1730   32.9890   47.3820 N   0  0  0  0  0  0  0  0  0  0  0  0
   48.2970   32.6130   49.1770 H   0  0  0  0  0  0  0  0  0  0  0  0
   46.0070   33.5930   45.4860 C   0  0  0  0  0  0  0  0  0  0  0  0
   45.0180   34.4540   45.7870 N   0  0  0  0  0  0  0  0  0  0  0  0
   44.5690   35.4470   45.0240 C   0  0  0  0  0  0  0  0  0  0  0  0
   45.1300   35.6520   43.8130 N   0  0  0  0  0  0  0  0  0  0  0  0
   46.1380   34.8610   43.3810 C   0  0  0  0  0  0  0  0  0  0  0  0
   46.7100   35.0740   42.1420 C   0  0  0  0  0  0  0  0  0  0  0  0
   47.7300   34.2830   41.6880 C   0  0  0  0  0  0  0  0  0  0  0  0
   48.1590   33.2660   42.5200 C   0  0  0  0  0  0  0  0  0  0  0  0
   47.5630   33.0880   43.7410 C   0  0  0  0  0  0  0  0  0  0  0  0
   46.5330   33.8600   44.2420 C   0  0  0  0  0  0  0  0  0  0  0  0
   43.7650   36.1010   45.3390 H   0  0  0  0  0  0  0  0  0  0  0  0
   46.3290   35.8870   41.5380 H   0  0  0  0  0  0  0  0  0  0  0  0
   48.1440   34.4790   40.7290 H   0  0  0  0  0  0  0  0  0  0  0  0
   48.9590   32.6160   42.2060 H   0  0  0  0  0  0  0  0  0  0  0  0
   47.9400   32.2670   44.3650 H   0  0  0  0  0  0  0  0  0  0  0  0
   46.5830   28.9720   47.1210 C   0  0  0  0  0  0  0  0  0  0  0  0
   47.5320   28.0480   46.7320 C   0  0  0  0  0  0  0  0  0  0  0  0
   48.5380   28.4210   46.5010 H   0  0  0  0  0  0  0  0  0  0  0  0
   47.3460   26.6870   46.6030 C   0  0  0  0  0  0  0  0  0  0  0  0
   46.0850   26.2170   46.8930 C   0  0  0  0  0  0  0  0  0  0  0  0
   45.7970   24.8910   46.7950 N   0  0  0  0  0  0  0  0  0  0  0  0
   44.5570   24.4470   47.0830 C   0  0  0  0  0  0  0  0  0  0  0  0
   44.3880   23.3690   46.9870 H   0  0  0  0  0  0  0  0  0  0  0  0
   43.4980   25.2380   47.4850 C   0  0  0  0  0  0  0  0  0  0  0  0
   43.7730   26.6050   47.5910 C   0  0  0  0  0  0  0  0  0  0  0  0
   45.0450   27.0500   47.2950 C   0  0  0  0  0  0  0  0  0  0  0  0
   45.3370   28.4020   47.3940 C   0  0  0  0  0  0  0  0  0  0  0  0
   48.0990   30.0350   49.2870 N   0  0  0  0  0  0  0  0  0  0  0  0
   47.6810   29.1460   49.6560 H   0  0  0  0  0  0  0  0  0  0  0  0
   49.0140   30.3090   49.7130 H   0  0  0  0  0  0  0  0  0  0  0  0
  1  7  1  0  0  0  0
  2  1  1  0  0  0  0
  2 35  1  0  0  0  0
  3  2  2  0  0  0  0
  4  5  2  0  0  0  0
  4  3  1  0  0  0  0
  5  6  1  0  0  0  0
  6  1  2  0  0  0  0
  8  9  1  0  0  0  0
  8  5  1  0  0  0  0
 10 18  1  0  0  0  0
 10  9  2  0  0  0  0
 11 10  1  0  0  0  0
 12 11  2  0  0  0  0
 12 17  1  0  0  0  0
 13 12  1  0  0  0  0
 14 13  2  0  0  0  0
 14 15  1  0  0  0  0
 15 16  2  0  0  0  0
 16 17  1  0  0  0  0
 16 22  1  0  0  0  0
 17  8  2  0  0  0  0
 19 13  1  0  0  0  0
 20 14  1  0  0  0  0
 21 15  1  0  0  0  0
 23  3  1  0  0  0  0
 23 34  1  0  0  0  0
 24 23  2  0  0  0  0
 25 24  1  0  0  0  0
 26 24  1  0  0  0  0
 26 27  2  0  0  0  0
 27 33  1  0  0  0  0
 28 27  1  0  0  0  0
 28 29  2  0  0  0  0
 29 31  1  0  0  0  0
 30 29  1  0  0  0  0
 31 32  2  0  0  0  0
 33 34  2  0  0  0  0
 33 32  1  0  0  0  0
 35 36  1  0  0  0  0
 35 37  1  0  0  0  0
M  END
>  <minimizedAffinity>
-6.868361

>  <minimizedRMSD>
0.793778419

$$$$
