
 OpenBabel03252506493D

 32 35  0  0  0  0  0  0  0  0999 V2000
   44.0610   33.6790   39.8050 C   0  0  0  0  0  0  0  0  0  0  0  0
   45.1680   32.8400   39.6410 C   0  0  0  0  0  0  0  0  0  0  0  0
   46.2060   32.9450   40.5830 C   0  0  0  0  0  0  0  0  0  0  0  0
   46.0860   33.8480   41.5990 N   0  0  0  0  0  0  0  0  0  0  0  0
   44.9980   34.6310   41.7100 C   0  0  0  0  0  0  0  0  0  0  0  0
   43.9720   34.5650   40.8250 N   0  0  0  0  0  0  0  0  0  0  0  0
   45.2900   32.1280   38.8600 H   0  0  0  0  0  0  0  0  0  0  0  0
   47.0750   32.3080   40.4800 H   0  0  0  0  0  0  0  0  0  0  0  0
   44.9470   35.5700   42.8240 C   0  0  0  0  0  0  0  0  0  0  0  0
   44.6070   35.1770   44.1020 C   0  0  0  0  0  0  0  0  0  0  0  0
   44.3680   34.1390   44.3030 H   0  0  0  0  0  0  0  0  0  0  0  0
   44.5740   36.1170   45.1270 C   0  0  0  0  0  3  0  0  0  0  0  0
   44.8780   37.4390   44.8720 C   0  0  0  0  0  0  0  0  0  0  0  0
   44.8650   38.3990   45.8150 N   0  0  0  0  0  0  0  0  0  0  0  0
   45.1590   39.6850   45.5770 C   0  0  0  0  0  0  0  0  0  0  0  0
   45.1470   40.4530   46.3380 H   0  0  0  0  0  0  0  0  0  0  0  0
   45.5050   40.1050   44.2900 C   0  0  0  0  0  3  0  0  0  0  0  0
   45.5330   39.1620   43.2920 C   0  0  0  0  0  3  0  0  0  0  0  0
   45.2200   37.8580   43.6030 C   0  0  0  0  0  0  0  0  0  0  0  0
   45.2430   36.8890   42.6050 C   0  0  0  0  0  3  0  0  0  0  0  0
   42.7740   33.4940   38.5690 S   0  0  0  0  0  0  0  0  0  0  0  0
   41.3570   31.0640   40.0970 Cl  0  0  0  0  0  0  0  0  0  0  0  0
   40.4670   32.5690   39.9050 C   0  0  0  0  0  0  0  0  0  0  0  0
   41.1480   33.5530   39.2410 C   0  0  0  0  0  0  0  0  0  0  0  0
   40.4980   34.7720   39.0540 C   0  0  0  0  0  0  0  0  0  0  0  0
   39.1910   34.9400   39.5490 C   0  0  0  0  0  0  0  0  0  0  0  0
   38.5230   33.9390   40.2140 C   0  0  0  0  0  0  0  0  0  0  0  0
   39.1930   32.7350   40.3860 C   0  0  0  0  0  0  0  0  0  0  0  0
   38.4250   31.3950   41.2220 Cl  0  0  0  0  0  0  0  0  0  0  0  0
   40.9140   35.6110   38.5590 H   0  0  0  0  0  0  0  0  0  0  0  0
   38.6770   35.8860   39.4090 H   0  0  0  0  0  0  0  0  0  0  0  0
   37.5210   34.0600   40.5960 H   0  0  0  0  0  0  0  0  0  0  0  0
  1  6  1  0  0  0  0
  2  1  2  0  0  0  0
  2  3  1  0  0  0  0
  3  4  2  0  0  0  0
  4  5  1  0  0  0  0
  5  9  1  0  0  0  0
  6  5  2  0  0  0  0
  7  2  1  0  0  0  0
  8  3  1  0  0  0  0
  9 10  1  0  0  0  0
 10 11  1  0  0  0  0
 10 12  2  0  0  0  0
 13 12  1  0  0  0  0
 13 14  1  0  0  0  0
 15 14  2  0  0  0  0
 15 16  1  0  0  0  0
 17 15  1  0  0  0  0
 18 19  1  0  0  0  0
 18 17  2  0  0  0  0
 19 13  2  0  0  0  0
 20  9  2  0  0  0  0
 20 19  1  0  0  0  0
 21 24  1  0  0  0  0
 21  1  1  0  0  0  0
 23 22  1  0  0  0  0
 23 28  1  0  0  0  0
 24 23  2  0  0  0  0
 25 24  1  0  0  0  0
 25 26  2  0  0  0  0
 26 27  1  0  0  0  0
 27 28  2  0  0  0  0
 27 32  1  0  0  0  0
 28 29  1  0  0  0  0
 30 25  1  0  0  0  0
 31 26  1  0  0  0  0
M  END
>  <minimizedAffinity>
-3.61518979

>  <minimizedRMSD>
2.81555247

$$$$
