REMARK  Name = 
REMARK  5 active torsions:
REMARK  status: ('A' for Active; 'I' for Inactive)
REMARK    1  A    between atoms: C_1  and  C_2
REMARK    2  A    between atoms: C_1  and  C_9
REMARK    3  A    between atoms: C_4  and  C_5
REMARK    4  A    between atoms: C_8  and  C_14
REMARK    5  A    between atoms: C_12  and  C_31
REMARK                            x       y       z     vdW  Elec       q    Type
REMARK                         _______ _______ _______ _____ _____    ______ ____
ROOT
ATOM      1  C   UNL     1      45.931  33.148  45.916  0.00  0.00    +0.000 C 
ATOM      2  C   UNL     1      46.939  32.397  45.700  0.00  0.00    +0.000 C 
ENDROOT
BRANCH   1   7
ATOM      3  C   UNL     1      44.511  36.167  44.356  0.00  0.00    +0.000 A 
ATOM      4  C   UNL     1      45.111  36.181  43.105  0.00  0.00    +0.000 A 
ATOM      5  C   UNL     1      45.992  35.182  42.826  0.00  0.00    +0.000 A 
ATOM      6  N   UNL     1      46.234  34.238  43.771  0.00  0.00    +0.000 NA
ATOM      7  C   UNL     1      45.653  34.221  44.982  0.00  0.00    +0.000 A 
ATOM      8  N   UNL     1      44.794  35.211  45.234  0.00  0.00    +0.000 NA
ATOM      9  H   UNL     1      43.814  36.968  44.563  0.00  0.00    +0.000 HD
ATOM     10  H   UNL     1      44.888  36.954  42.383  0.00  0.00    +0.000 HD
BRANCH   5  11
ATOM     11  C   UNL     1      46.697  35.070  41.553  0.00  0.00    +0.000 A 
ATOM     12  C   UNL     1      46.832  33.891  40.854  0.00  0.00    +0.000 A 
ATOM     13  H   UNL     1      46.404  32.990  41.246  0.00  0.00    +0.000 HD
ATOM     14  C   UNL     1      47.501  33.788  39.648  0.00  0.00    +0.000 A 
ATOM     15  C   UNL     1      48.063  34.930  39.117  0.00  0.00    +0.000 A 
ATOM     16  N   UNL     1      48.732  34.907  37.943  0.00  0.00    +0.000 NA
ATOM     17  C   UNL     1      49.286  36.013  37.412  0.00  0.00    +0.000 A 
ATOM     18  H   UNL     1      49.810  35.938  36.468  0.00  0.00    +0.000 HD
ATOM     19  C   UNL     1      49.217  37.251  38.018  0.00  0.00    +0.000 A 
ATOM     20  C   UNL     1      48.535  37.282  39.218  0.00  0.00    +0.000 A 
ATOM     21  C   UNL     1      47.968  36.147  39.760  0.00  0.00    +0.000 A 
ATOM     22  C   UNL     1      47.285  36.167  40.959  0.00  0.00    +0.000 A 
ENDBRANCH   5  11
ENDBRANCH   1   7
BRANCH   2  23
ATOM     23  C   UNL     1      47.172  31.283  46.711  0.00  0.00    +0.000 C 
ATOM     24  H   UNL     1      46.617  30.389  46.380  0.00  0.00    +0.000 HD
ATOM     25  H   UNL     1      48.255  31.040  46.750  0.00  0.00    +0.000 HD
BRANCH  23  26
ATOM     26  C   UNL     1      46.775  31.762  48.084  0.00  0.00    +0.000 C 
ATOM     27  C   UNL     1      46.176  30.762  49.011  0.00  0.00    +0.000 C 
ATOM     28  C   UNL     1      47.514  31.259  49.269  0.00  0.00    +0.000 C 
ATOM     29  H   UNL     1      46.401  32.809  48.144  0.00  0.00    +0.000 HD
ATOM     30  H   UNL     1      45.296  31.057  49.599  0.00  0.00    +0.000 HD
ATOM     31  H   UNL     1      46.068  29.719  48.605  0.00  0.00    +0.000 HD
ATOM     32  H   UNL     1      47.592  31.986  50.136  0.00  0.00    +0.000 HD
BRANCH  28  33
ATOM     33  C   UNL     1      48.767  30.509  49.043  0.00  0.00    +0.000 C 
ATOM     34  C   UNL     1      49.588  30.239  50.332  0.00  0.00    +0.000 C 
ATOM     35  C   UNL     1      50.080  31.254  49.365  0.00  0.00    +0.000 C 
ATOM     36  H   UNL     1      48.793  29.731  48.264  0.00  0.00    +0.000 HD
ATOM     37  H   UNL     1      50.059  29.248  50.349  0.00  0.00    +0.000 HD
ATOM     38  H   UNL     1      49.182  30.632  51.288  0.00  0.00    +0.000 HD
ATOM     39  H   UNL     1      50.903  31.018  48.648  0.00  0.00    +0.000 HD
ATOM     40  H   UNL     1      49.980  32.329  49.535  0.00  0.00    +0.000 HD
ENDBRANCH  28  33
ENDBRANCH  23  26
ENDBRANCH   2  23
TORSDOF 5
