
     RDKit          3D

 34 37  0  0  0  0  0  0  0  0999 V2000
   44.6254   35.4612   45.1334 C   0  0  0  0  0  0  0  0  0  0  0  0
   45.0977   35.7136   43.8034 C   0  0  0  0  0  0  0  0  0  0  0  0
   46.0416   34.8232   43.3604 C   0  0  0  0  0  0  0  0  0  0  0  0
   46.4958   33.7701   44.1457 N   0  0  0  0  0  0  0  0  0  0  0  0
   46.0130   33.5934   45.3777 C   0  0  0  0  0  0  0  0  0  0  0  0
   45.0745   34.4399   45.8756 N   0  0  0  0  0  0  0  0  0  0  0  0
   46.5398   34.9764   41.9409 C   0  0  1  0  0  0  0  0  0  0  0  0
   48.0641   35.2742   41.9359 C   0  0  0  0  0  0  0  0  0  0  0  0
   47.3863   33.9758   41.3978 C   0  0  2  0  0  0  0  0  0  0  0  0
   44.6447   36.8131   43.0174 N   0  0  0  0  0  0  0  0  0  0  0  0
   43.8785   36.1374   45.5257 H   0  0  0  0  0  0  0  0  0  0  0  0
   46.4627   32.7365   45.8587 H   0  0  0  0  0  0  0  0  0  0  0  0
   45.9600   35.7187   41.3560 H   0  0  0  0  0  0  0  0  0  0  0  0
   48.4612   35.9110   41.1369 H   0  0  0  0  0  0  0  0  0  0  0  0
   48.6300   35.1979   42.8577 H   0  0  0  0  0  0  0  0  0  0  0  0
   47.6190   33.0839   42.0289 H   0  0  0  0  0  0  0  0  0  0  0  0
   44.2333   36.7267   42.0500 H   0  0  0  0  0  0  0  0  0  0  0  0
   44.8002   37.6913   43.5803 H   0  0  0  0  0  0  0  0  0  0  0  0
   47.4838   33.7390   39.9214 C   0  0  0  0  0  0  0  0  0  0  0  0
   46.8928   34.7157   39.1225 C   0  0  0  0  0  0  0  0  0  0  0  0
   46.3994   35.5822   39.5409 H   0  0  0  0  0  0  0  0  0  0  0  0
   46.9357   34.5772   37.7432 C   0  0  0  0  0  0  0  0  0  0  0  0
   47.5595   33.4800   37.1838 C   0  0  0  0  0  0  0  0  0  0  0  0
   47.6254   33.3034   35.8358 N   0  0  0  0  0  0  0  0  0  0  0  0
   48.2384   32.2265   35.3120 C   0  0  0  0  0  0  0  0  0  0  0  0
   48.2765   32.1104   34.2336 H   0  0  0  0  0  0  0  0  0  0  0  0
   48.8322   31.2434   36.0761 C   0  0  0  0  0  0  0  0  0  0  0  0
   48.7460   31.4561   37.4482 C   0  0  0  0  0  0  0  0  0  0  0  0
   48.1253   32.5492   38.0367 C   0  0  0  0  0  0  0  0  0  0  0  0
   48.1164   32.6293   39.4149 C   0  0  0  0  0  0  0  0  0  0  0  0
   46.4818   35.3261   37.1044 H   0  0  0  0  0  0  0  0  0  0  0  0
   49.3313   30.3699   35.7182 H   0  0  0  0  0  0  0  0  0  0  0  0
   49.2066   30.6963   38.0973 H   0  0  0  0  0  0  0  0  0  0  0  0
   48.5517   31.9128   40.0639 H   0  0  0  0  0  0  0  0  0  0  0  0
  1  6  2  0
  2  1  1  0
  3  2  2  0
  3  4  1  0
  4  5  2  0
  5  6  1  0
  7  3  1  0
  8  7  1  0
  9  8  1  0
  9  7  1  0
 10  2  1  0
  1 11  1  0
  5 12  1  0
  7 13  1  6
  8 14  1  0
  8 15  1  0
  9 16  1  1
 10 17  1  0
 10 18  1  0
 19 20  2  0
 20 21  1  0
 20 22  1  0
 22 23  2  0
 23 24  1  0
 24 25  2  0
 25 26  1  0
 25 27  1  0
 27 28  2  0
 28 29  1  0
 29 30  2  0
 30 19  1  0
 29 23  1  0
 22 31  1  0
 27 32  1  0
 28 33  1  0
 30 34  1  0
  9 19  1  0
M  ISO  8  11  14  12  14  13  13  14  13  15  13  16  13  21  16  26  16
M  END
>  <DihAtoms>  (1) 
7,8,18,19

>  <DihDeg>  (1) 
-46.230478009162624

$$$$
