
 OpenBabel03252509053D

 51 54  0  0  1  0  0  0  0  0999 V2000
   47.0590   34.3370   43.2360 N   0  0  0  0  0  0  0  0  0  0  0  0
   46.6980   34.8590   41.9700 C   0  0  0  0  0  0  0  0  0  0  0  0
   45.2590   34.5970   41.5640 C   0  0  0  0  0  0  0  0  0  0  0  0
   44.2810   34.5960   42.7130 C   0  0  0  0  0  0  0  0  0  0  0  0
   44.9580   34.9440   44.0270 C   0  0  0  0  0  0  0  0  0  0  0  0
   46.1110   33.8800   44.1220 C   0  0  2  0  0  0  0  0  0  0  0  0
   46.7880   35.9800   42.0210 H   0  0  0  0  0  0  0  0  0  0  0  0
   47.3110   34.5610   41.1170 H   0  0  0  0  0  0  0  0  0  0  0  0
   44.9650   35.2820   40.7560 H   0  0  0  0  0  0  0  0  0  0  0  0
   45.2350   33.5630   41.1440 H   0  0  0  0  0  0  0  0  0  0  0  0
   43.5360   35.3980   42.5270 H   0  0  0  0  0  0  0  0  0  0  0  0
   43.7470   33.6390   42.8460 H   0  0  0  0  0  0  0  0  0  0  0  0
   44.2560   34.7460   44.8480 H   0  0  0  0  0  0  0  0  0  0  0  0
   45.4140   35.9370   44.0090 H   0  0  0  0  0  0  0  0  0  0  0  0
   45.6160   32.9100   43.9130 H   0  0  0  0  0  0  0  0  0  0  0  0
   48.3900   33.7800   43.2910 C   0  0  0  0  0  0  0  0  0  0  0  0
   49.0040   34.3600   42.5550 H   0  0  0  0  0  0  0  0  0  0  0  0
   48.8200   33.9060   44.3000 H   0  0  0  0  0  0  0  0  0  0  0  0
   48.3180   32.3520   42.8800 C   0  0  0  0  0  0  0  0  0  0  0  0
   47.3140   32.0830   42.4800 H   0  0  0  0  0  0  0  0  0  0  0  0
   48.5100   31.6520   43.7160 H   0  0  0  0  0  0  0  0  0  0  0  0
   51.5540   31.8830   41.0310 C   0  0  0  0  0  0  0  0  0  0  0  0
   50.6260   32.1160   42.0620 C   0  0  0  0  0  0  0  0  0  0  0  0
   49.2890   32.1040   41.7790 C   0  0  0  0  0  0  0  0  0  0  0  0
   48.9290   31.8680   40.5190 N   0  0  0  0  0  0  0  0  0  0  0  0
   49.7970   31.6460   39.5290 C   0  0  0  0  0  0  0  0  0  0  0  0
   51.1290   31.6500   39.7710 N   0  0  0  0  0  0  0  0  0  0  0  0
   52.6080   31.8850   41.2180 H   0  0  0  0  0  0  0  0  0  0  0  0
   51.0390   32.2920   43.0310 H   0  0  0  0  0  0  0  0  0  0  0  0
   49.2910   31.4780   38.5890 H   0  0  0  0  0  0  0  0  0  0  0  0
   46.5000   34.0140   45.4440 O   0  0  0  0  0  0  0  0  0  0  0  0
   45.8870   31.4220   45.4580 O   0  0  0  0  0  0  0  0  0  0  0  0
   46.2750   32.6230   46.3420 P   0  0  2  0  0  0  0  0  0  0  0  0
   44.8740   32.8800   47.3070 O   0  0  0  0  0  0  0  0  0  0  0  0
   45.1900   33.2590   48.1720 H   0  0  0  0  0  0  0  0  0  0  0  0
   47.5280   32.2600   47.3580 O   0  0  0  0  0  0  0  0  0  0  0  0
   47.8130   30.8930   47.2750 C   0  0  0  0  0  0  0  0  0  0  0  0
   46.9320   30.2460   47.2870 H   0  0  0  0  0  0  0  0  0  0  0  0
   48.3950   30.6890   46.3340 H   0  0  0  0  0  0  0  0  0  0  0  0
   48.7070   30.6080   48.4360 C   0  0  0  0  0  0  0  0  0  0  0  0
   49.1830   31.5300   49.3450 C   0  0  0  0  0  0  0  0  0  0  0  0
   48.8710   32.5530   49.1890 H   0  0  0  0  0  0  0  0  0  0  0  0
   50.0070   31.1250   50.3760 C   0  0  0  0  0  3  0  0  0  0  0  0
   50.3360   29.7880   50.4720 C   0  0  0  0  0  0  0  0  0  0  0  0
   51.1260   29.3390   51.4460 N   0  0  0  0  0  0  0  0  0  0  0  0
   51.4810   28.0490   51.5910 C   0  0  0  0  0  0  0  0  0  0  0  0
   52.1210   27.6650   52.3730 H   0  0  0  0  0  0  0  0  0  0  0  0
   51.0260   27.0900   50.7010 C   0  0  0  0  0  3  0  0  0  0  0  0
   50.2070   27.4910   49.6740 C   0  0  0  0  0  3  0  0  0  0  0  0
   49.8860   28.8300   49.5900 C   0  0  0  0  0  0  0  0  0  0  0  0
   49.0550   29.2590   48.5540 C   0  0  0  0  0  3  0  0  0  0  0  0
  1 16  1  0  0  0  0
  1  6  1  0  0  0  0
  2  7  1  0  0  0  0
  2  1  1  0  0  0  0
  3  2  1  0  0  0  0
  3  4  1  0  0  0  0
  4 12  1  0  0  0  0
  4  5  1  0  0  0  0
  5  6  1  0  0  0  0
  5 13  1  0  0  0  0
  6 15  1  6  0  0  0
  6 31  1  0  0  0  0
  8  2  1  0  0  0  0
  9  3  1  0  0  0  0
 10  3  1  0  0  0  0
 11  4  1  0  0  0  0
 14  5  1  0  0  0  0
 16 18  1  0  0  0  0
 17 16  1  0  0  0  0
 19 16  1  0  0  0  0
 19 21  1  0  0  0  0
 20 19  1  0  0  0  0
 22 28  1  0  0  0  0
 22 23  1  0  0  0  0
 23 29  1  0  0  0  0
 24 23  2  0  0  0  0
 24 19  1  0  0  0  0
 25 24  1  0  0  0  0
 26 27  1  0  0  0  0
 26 25  2  0  0  0  0
 27 22  2  0  0  0  0
 30 26  1  0  0  0  0
 31 33  1  0  0  0  0
 33 32  2  6  0  0  0
 33 34  1  0  0  0  0
 33 36  1  0  0  0  0
 34 35  1  0  0  0  0
 37 38  1  0  0  0  0
 37 36  1  0  0  0  0
 37 40  1  0  0  0  0
 39 37  1  0  0  0  0
 40 51  2  0  0  0  0
 40 41  1  0  0  0  0
 41 43  2  0  0  0  0
 42 41  1  0  0  0  0
 43 44  1  0  0  0  0
 44 45  1  0  0  0  0
 45 46  2  0  0  0  0
 46 47  1  0  0  0  0
 48 46  1  0  0  0  0
 49 48  2  0  0  0  0
 50 49  1  0  0  0  0
 50 44  2  0  0  0  0
 51 50  1  0  0  0  0
M  END
>  <minimizedAffinity>
-5.57850838

>  <minimizedRMSD>
2.99426365

$$$$
