
 OpenBabel03252507273D

 30 33  0  0  0  0  0  0  0  0999 V2000
   39.2520   27.3620   42.3470 C   0  0  0  0  0  0  0  0  0  0  0  0
   40.0290   26.9220   43.4190 C   0  0  0  0  0  0  0  0  0  0  0  0
   40.0660   25.5340   43.6800 C   0  0  0  0  0  0  0  0  0  0  0  0
   39.3400   24.6860   42.8690 N   0  0  0  0  0  0  0  0  0  0  0  0
   38.6050   25.1810   41.8440 C   0  0  0  0  0  0  0  0  0  0  0  0
   38.5670   26.4830   41.5970 N   0  0  0  0  0  0  0  0  0  0  0  0
   40.5920   27.5630   44.0480 H   0  0  0  0  0  0  0  0  0  0  0  0
   40.6440   25.1430   44.4870 H   0  0  0  0  0  0  0  0  0  0  0  0
   39.1780   28.7840   42.0350 C   0  0  0  0  0  0  0  0  0  0  0  0
   39.9250   29.7660   42.6190 C   0  0  0  0  0  0  0  0  0  0  0  0
   40.6390   29.4910   43.3810 H   0  0  0  0  0  0  0  0  0  0  0  0
   39.7960   31.1010   42.2660 C   0  0  0  0  0  3  0  0  0  0  0  0
   38.8950   31.4960   41.2990 C   0  0  0  0  0  0  0  0  0  0  0  0
   38.7360   32.7800   40.9240 N   0  0  0  0  0  0  0  0  0  0  0  0
   37.8370   33.1300   39.9650 C   0  0  0  0  0  0  0  0  0  0  0  0
   37.6890   34.1520   39.6450 H   0  0  0  0  0  0  0  0  0  0  0  0
   37.0460   32.1680   39.3330 C   0  0  0  0  0  3  0  0  0  0  0  0
   37.1860   30.8450   39.6960 C   0  0  0  0  0  3  0  0  0  0  0  0
   38.1240   30.5430   40.6860 C   0  0  0  0  0  0  0  0  0  0  0  0
   38.2930   29.2340   41.0750 C   0  0  0  0  0  3  0  0  0  0  0  0
   37.8580   24.2590   41.0100 C   0  0  0  0  0  0  0  0  0  0  0  0
   36.6150   24.5820   40.5370 C   0  0  0  0  0  0  0  0  0  0  0  0
   35.8230   23.7790   39.7440 C   0  0  0  0  0  0  0  0  0  0  0  0
   36.3970   22.5520   39.4360 C   0  0  0  0  0  0  0  0  0  0  0  0
   37.6520   22.1900   39.8960 C   0  0  0  0  0  0  0  0  0  0  0  0
   38.3810   23.0500   40.6840 N   0  0  0  0  0  0  0  0  0  0  0  0
   36.2270   25.5580   40.8160 H   0  0  0  0  0  0  0  0  0  0  0  0
   34.8550   24.1080   39.4140 H   0  0  0  0  0  0  0  0  0  0  0  0
   35.8340   21.8650   38.8160 H   0  0  0  0  0  0  0  0  0  0  0  0
   38.0640   21.2230   39.6320 H   0  0  0  0  0  0  0  0  0  0  0  0
  1  2  1  0  0  0  0
  2  3  2  0  0  0  0
  2  7  1  0  0  0  0
  3  8  1  0  0  0  0
  4  3  1  0  0  0  0
  5  4  2  0  0  0  0
  6  5  1  0  0  0  0
  6  1  2  0  0  0  0
  9  1  1  0  0  0  0
  9 10  1  0  0  0  0
 10 11  1  0  0  0  0
 12 10  2  0  0  0  0
 13 12  1  0  0  0  0
 14 13  1  0  0  0  0
 15 14  2  0  0  0  0
 16 15  1  0  0  0  0
 17 18  2  0  0  0  0
 17 15  1  0  0  0  0
 18 19  1  0  0  0  0
 19 20  1  0  0  0  0
 19 13  2  0  0  0  0
 20  9  2  0  0  0  0
 21  5  1  0  0  0  0
 22 27  1  0  0  0  0
 22 21  2  0  0  0  0
 23 22  1  0  0  0  0
 24 23  2  0  0  0  0
 24 25  1  0  0  0  0
 25 26  2  0  0  0  0
 26 21  1  0  0  0  0
 28 23  1  0  0  0  0
 29 24  1  0  0  0  0
 30 25  1  0  0  0  0
M  END
>  <minimizedAffinity>
-5.71214771

$$$$

 OpenBabel03252507273D

 30 33  0  0  0  0  0  0  0  0999 V2000
   37.4380   26.9220   41.7770 C   0  0  0  0  0  0  0  0  0  0  0  0
   37.5890   27.0610   43.1570 C   0  0  0  0  0  0  0  0  0  0  0  0
   37.6950   28.3700   43.6800 C   0  0  0  0  0  0  0  0  0  0  0  0
   37.6450   29.4390   42.8080 N   0  0  0  0  0  0  0  0  0  0  0  0
   37.4980   29.2310   41.4780 C   0  0  0  0  0  0  0  0  0  0  0  0
   37.3980   28.0060   40.9840 N   0  0  0  0  0  0  0  0  0  0  0  0
   37.6270   26.2480   43.8360 H   0  0  0  0  0  0  0  0  0  0  0  0
   37.8110   28.5340   44.7270 H   0  0  0  0  0  0  0  0  0  0  0  0
   37.3240   25.5940   41.1860 C   0  0  0  0  0  0  0  0  0  0  0  0
   37.9080   24.4570   41.6660 C   0  0  0  0  0  0  0  0  0  0  0  0
   38.5120   24.5210   42.5590 H   0  0  0  0  0  0  0  0  0  0  0  0
   37.7510   23.2280   41.0450 C   0  0  0  0  0  3  0  0  0  0  0  0
   36.9900   23.1020   39.9020 C   0  0  0  0  0  0  0  0  0  0  0  0
   36.8090   21.9280   39.2650 N   0  0  0  0  0  0  0  0  0  0  0  0
   36.0500   21.8440   38.1400 C   0  0  0  0  0  0  0  0  0  0  0  0
   35.8880   20.9160   37.6100 H   0  0  0  0  0  0  0  0  0  0  0  0
   35.4280   22.9730   37.6050 C   0  0  0  0  0  3  0  0  0  0  0  0
   35.5940   24.1890   38.2330 C   0  0  0  0  0  3  0  0  0  0  0  0
   36.3840   24.2170   39.3860 C   0  0  0  0  0  0  0  0  0  0  0  0
   36.5730   25.4110   40.0420 C   0  0  0  0  0  3  0  0  0  0  0  0
   37.4450   30.3800   40.5930 C   0  0  0  0  0  0  0  0  0  0  0  0
   37.0320   30.2530   39.2940 C   0  0  0  0  0  0  0  0  0  0  0  0
   36.9500   31.2760   38.3740 C   0  0  0  0  0  0  0  0  0  0  0  0
   37.3330   32.5140   38.8730 C   0  0  0  0  0  0  0  0  0  0  0  0
   37.7570   32.6820   40.1820 C   0  0  0  0  0  0  0  0  0  0  0  0
   37.8100   31.6080   41.0400 N   0  0  0  0  0  0  0  0  0  0  0  0
   36.7460   29.2560   38.9700 H   0  0  0  0  0  0  0  0  0  0  0  0
   36.6140   31.0920   37.3700 H   0  0  0  0  0  0  0  0  0  0  0  0
   37.2960   33.3680   38.2080 H   0  0  0  0  0  0  0  0  0  0  0  0
   38.0470   33.6660   40.5320 H   0  0  0  0  0  0  0  0  0  0  0  0
  1  2  1  0  0  0  0
  2  3  2  0  0  0  0
  2  7  1  0  0  0  0
  3  8  1  0  0  0  0
  4  3  1  0  0  0  0
  5  4  2  0  0  0  0
  6  5  1  0  0  0  0
  6  1  2  0  0  0  0
  9 10  1  0  0  0  0
  9  1  1  0  0  0  0
 10 11  1  0  0  0  0
 12 10  2  0  0  0  0
 13 12  1  0  0  0  0
 14 13  2  0  0  0  0
 15 14  1  0  0  0  0
 16 15  1  0  0  0  0
 17 15  2  0  0  0  0
 17 18  1  0  0  0  0
 18 19  2  0  0  0  0
 19 13  1  0  0  0  0
 19 20  1  0  0  0  0
 20  9  2  0  0  0  0
 21 26  1  0  0  0  0
 21  5  1  0  0  0  0
 22 21  2  0  0  0  0
 23 24  2  0  0  0  0
 23 22  1  0  0  0  0
 24 25  1  0  0  0  0
 25 30  1  0  0  0  0
 25 26  2  0  0  0  0
 27 22  1  0  0  0  0
 28 23  1  0  0  0  0
 29 24  1  0  0  0  0
M  END
>  <minimizedAffinity>
-5.65133429

$$$$

 OpenBabel03252507273D

 30 33  0  0  0  0  0  0  0  0999 V2000
   38.0240   30.7670   40.9280 C   0  0  0  0  0  0  0  0  0  0  0  0
   36.9670   31.5380   40.4460 C   0  0  0  0  0  0  0  0  0  0  0  0
   37.2660   32.8210   39.9340 C   0  0  0  0  0  0  0  0  0  0  0  0
   38.5790   33.2470   39.9350 N   0  0  0  0  0  0  0  0  0  0  0  0
   39.5570   32.4460   40.4210 C   0  0  0  0  0  0  0  0  0  0  0  0
   39.2800   31.2430   40.9020 N   0  0  0  0  0  0  0  0  0  0  0  0
   35.9550   31.2210   40.4380 H   0  0  0  0  0  0  0  0  0  0  0  0
   36.4950   33.4520   39.5520 H   0  0  0  0  0  0  0  0  0  0  0  0
   37.7710   29.4360   41.4670 C   0  0  0  0  0  0  0  0  0  0  0  0
   37.6860   29.1180   42.7920 C   0  0  0  0  0  0  0  0  0  0  0  0
   37.8140   29.9020   43.5230 H   0  0  0  0  0  0  0  0  0  0  0  0
   37.4400   27.8250   43.2260 C   0  0  0  0  0  3  0  0  0  0  0  0
   37.2710   26.7940   42.3270 C   0  0  0  0  0  0  0  0  0  0  0  0
   37.0310   25.5220   42.7030 N   0  0  0  0  0  0  0  0  0  0  0  0
   36.8690   24.5320   41.7840 C   0  0  0  0  0  0  0  0  0  0  0  0
   36.6750   23.5040   42.0580 H   0  0  0  0  0  0  0  0  0  0  0  0
   36.9450   24.7990   40.4160 C   0  0  0  0  0  3  0  0  0  0  0  0
   37.1900   26.0900   39.9990 C   0  0  0  0  0  3  0  0  0  0  0  0
   37.3480   27.0680   40.9860 C   0  0  0  0  0  0  0  0  0  0  0  0
   37.5930   28.3680   40.6100 C   0  0  0  0  0  3  0  0  0  0  0  0
   40.9260   32.9260   40.4020 C   0  0  0  0  0  0  0  0  0  0  0  0
   41.4040   33.6610   39.3510 C   0  0  0  0  0  0  0  0  0  0  0  0
   42.6840   34.1590   39.2340 C   0  0  0  0  0  0  0  0  0  0  0  0
   43.5070   33.8510   40.3090 C   0  0  0  0  0  0  0  0  0  0  0  0
   43.0610   33.1090   41.3910 C   0  0  0  0  0  0  0  0  0  0  0  0
   41.7650   32.6490   41.4320 N   0  0  0  0  0  0  0  0  0  0  0  0
   40.7060   33.8660   38.5440 H   0  0  0  0  0  0  0  0  0  0  0  0
   42.9800   34.7290   38.3730 H   0  0  0  0  0  0  0  0  0  0  0  0
   44.5300   34.2070   40.2900 H   0  0  0  0  0  0  0  0  0  0  0  0
   43.7350   32.8920   42.2110 H   0  0  0  0  0  0  0  0  0  0  0  0
  1  9  1  0  0  0  0
  2  1  2  0  0  0  0
  3  4  2  0  0  0  0
  3  2  1  0  0  0  0
  4  5  1  0  0  0  0
  5  6  2  0  0  0  0
  6  1  1  0  0  0  0
  7  2  1  0  0  0  0
  8  3  1  0  0  0  0
  9 10  1  0  0  0  0
 10 12  2  0  0  0  0
 10 11  1  0  0  0  0
 13 14  1  0  0  0  0
 13 12  1  0  0  0  0
 15 16  1  0  0  0  0
 15 14  2  0  0  0  0
 17 15  1  0  0  0  0
 18 17  2  0  0  0  0
 18 19  1  0  0  0  0
 19 13  2  0  0  0  0
 20 19  1  0  0  0  0
 20  9  2  0  0  0  0
 21  5  1  0  0  0  0
 21 26  1  0  0  0  0
 22 21  2  0  0  0  0
 23 22  1  0  0  0  0
 23 24  2  0  0  0  0
 24 25  1  0  0  0  0
 25 26  2  0  0  0  0
 25 30  1  0  0  0  0
 27 22  1  0  0  0  0
 28 23  1  0  0  0  0
 29 24  1  0  0  0  0
M  END
>  <minimizedAffinity>
-5.64141083

$$$$

 OpenBabel03252507273D

 30 33  0  0  0  0  0  0  0  0999 V2000
   34.6550   28.2100   38.1330 C   0  0  0  0  0  0  0  0  0  0  0  0
   34.8340   26.9550   37.5510 C   0  0  0  0  0  0  0  0  0  0  0  0
   34.0840   26.6540   36.3910 C   0  0  0  0  0  0  0  0  0  0  0  0
   33.2190   27.6070   35.8930 N   0  0  0  0  0  0  0  0  0  0  0  0
   33.0950   28.8070   36.5090 C   0  0  0  0  0  0  0  0  0  0  0  0
   33.7960   29.0930   37.5970 N   0  0  0  0  0  0  0  0  0  0  0  0
   35.4950   26.2160   37.9230 H   0  0  0  0  0  0  0  0  0  0  0  0
   34.1820   25.7090   35.9060 H   0  0  0  0  0  0  0  0  0  0  0  0
   35.4040   28.5720   39.3310 C   0  0  0  0  0  0  0  0  0  0  0  0
   35.4670   29.8190   39.8820 C   0  0  0  0  0  0  0  0  0  0  0  0
   34.9260   30.6240   39.4080 H   0  0  0  0  0  0  0  0  0  0  0  0
   36.2030   30.0830   41.0270 C   0  0  0  0  0  3  0  0  0  0  0  0
   36.9100   29.0850   41.6630 C   0  0  0  0  0  0  0  0  0  0  0  0
   37.6380   29.2950   42.7780 N   0  0  0  0  0  0  0  0  0  0  0  0
   38.3210   28.2840   43.3760 C   0  0  0  0  0  0  0  0  0  0  0  0
   38.9130   28.4240   44.2710 H   0  0  0  0  0  0  0  0  0  0  0  0
   38.2920   26.9880   42.8580 C   0  0  0  0  0  3  0  0  0  0  0  0
   37.5560   26.7400   41.7180 C   0  0  0  0  0  3  0  0  0  0  0  0
   36.8740   27.8170   41.1440 C   0  0  0  0  0  0  0  0  0  0  0  0
   36.1280   27.6100   40.0070 C   0  0  0  0  0  3  0  0  0  0  0  0
   32.1790   29.7860   35.9540 C   0  0  0  0  0  0  0  0  0  0  0  0
   31.2540   30.4150   36.7420 C   0  0  0  0  0  0  0  0  0  0  0  0
   30.3390   31.3540   36.3150 C   0  0  0  0  0  0  0  0  0  0  0  0
   30.4180   31.6380   34.9580 C   0  0  0  0  0  0  0  0  0  0  0  0
   31.3410   31.0220   34.1280 C   0  0  0  0  0  0  0  0  0  0  0  0
   32.2220   30.0950   34.6340 N   0  0  0  0  0  0  0  0  0  0  0  0
   31.2480   30.1450   37.7950 H   0  0  0  0  0  0  0  0  0  0  0  0
   29.6440   31.8020   37.0000 H   0  0  0  0  0  0  0  0  0  0  0  0
   29.7300   32.3670   34.5460 H   0  0  0  0  0  0  0  0  0  0  0  0
   31.3700   31.2730   33.0740 H   0  0  0  0  0  0  0  0  0  0  0  0
  1  9  1  0  0  0  0
  2  7  1  0  0  0  0
  2  1  2  0  0  0  0
  3  2  1  0  0  0  0
  4  3  2  0  0  0  0
  4  5  1  0  0  0  0
  5  6  2  0  0  0  0
  6  1  1  0  0  0  0
  8  3  1  0  0  0  0
  9 10  2  0  0  0  0
  9 20  1  0  0  0  0
 10 12  1  0  0  0  0
 11 10  1  0  0  0  0
 12 13  2  0  0  0  0
 13 14  1  0  0  0  0
 14 15  2  0  0  0  0
 15 16  1  0  0  0  0
 17 15  1  0  0  0  0
 18 17  2  0  0  0  0
 19 13  1  0  0  0  0
 19 18  1  0  0  0  0
 20 19  2  0  0  0  0
 21  5  1  0  0  0  0
 21 22  1  0  0  0  0
 22 27  1  0  0  0  0
 23 22  2  0  0  0  0
 23 28  1  0  0  0  0
 24 23  1  0  0  0  0
 25 26  1  0  0  0  0
 25 24  2  0  0  0  0
 26 21  2  0  0  0  0
 29 24  1  0  0  0  0
 30 25  1  0  0  0  0
M  END
>  <minimizedAffinity>
-5.60979557

$$$$

 OpenBabel03252507273D

 30 33  0  0  0  0  0  0  0  0999 V2000
   37.7000   30.3950   40.3470 C   0  0  0  0  0  0  0  0  0  0  0  0
   36.3360   30.6820   40.3130 C   0  0  0  0  0  0  0  0  0  0  0  0
   35.4360   29.6510   40.6680 C   0  0  0  0  0  0  0  0  0  0  0  0
   35.9450   28.4200   41.0300 N   0  0  0  0  0  0  0  0  0  0  0  0
   37.2830   28.2100   41.0400 C   0  0  0  0  0  0  0  0  0  0  0  0
   38.1300   29.1740   40.7070 N   0  0  0  0  0  0  0  0  0  0  0  0
   35.9320   31.6230   40.0390 H   0  0  0  0  0  0  0  0  0  0  0  0
   34.3820   29.8160   40.6590 H   0  0  0  0  0  0  0  0  0  0  0  0
   38.6710   31.4220   39.9900 C   0  0  0  0  0  0  0  0  0  0  0  0
   38.8070   32.6340   40.6020 C   0  0  0  0  0  0  0  0  0  0  0  0
   38.1510   32.8770   41.4250 H   0  0  0  0  0  0  0  0  0  0  0  0
   39.7590   33.5600   40.2030 C   0  0  0  0  0  3  0  0  0  0  0  0
   40.6160   33.2920   39.1560 C   0  0  0  0  0  0  0  0  0  0  0  0
   41.5550   34.1610   38.7340 N   0  0  0  0  0  0  0  0  0  0  0  0
   42.3820   33.8580   37.6980 C   0  0  0  0  0  0  0  0  0  0  0  0
   43.1440   34.5360   37.3380 H   0  0  0  0  0  0  0  0  0  0  0  0
   42.2890   32.6330   37.0340 C   0  0  0  0  0  3  0  0  0  0  0  0
   41.3380   31.7230   37.4430 C   0  0  0  0  0  3  0  0  0  0  0  0
   40.5140   32.0860   38.5120 C   0  0  0  0  0  0  0  0  0  0  0  0
   39.5530   31.2040   38.9500 C   0  0  0  0  0  3  0  0  0  0  0  0
   37.7830   26.9050   41.4300 C   0  0  0  0  0  0  0  0  0  0  0  0
   36.9280   25.9020   41.7990 C   0  0  0  0  0  0  0  0  0  0  0  0
   37.2990   24.6320   42.1880 C   0  0  0  0  0  0  0  0  0  0  0  0
   38.6710   24.4210   42.1840 C   0  0  0  0  0  0  0  0  0  0  0  0
   39.5680   25.4120   41.8170 C   0  0  0  0  0  0  0  0  0  0  0  0
   39.1170   26.6550   41.4390 N   0  0  0  0  0  0  0  0  0  0  0  0
   35.8670   26.1350   41.7790 H   0  0  0  0  0  0  0  0  0  0  0  0
   36.5630   23.9000   42.4640 H   0  0  0  0  0  0  0  0  0  0  0  0
   39.0410   23.4470   42.4790 H   0  0  0  0  0  0  0  0  0  0  0  0
   40.6320   25.2060   41.8260 H   0  0  0  0  0  0  0  0  0  0  0  0
  1  6  1  0  0  0  0
  2  1  2  0  0  0  0
  2  3  1  0  0  0  0
  3  4  2  0  0  0  0
  4  5  1  0  0  0  0
  5 21  1  0  0  0  0
  6  5  2  0  0  0  0
  7  2  1  0  0  0  0
  8  3  1  0  0  0  0
  9  1  1  0  0  0  0
  9 10  1  0  0  0  0
 10 11  1  0  0  0  0
 12 10  2  0  0  0  0
 13 12  1  0  0  0  0
 14 13  1  0  0  0  0
 15 14  2  0  0  0  0
 16 15  1  0  0  0  0
 17 18  2  0  0  0  0
 17 15  1  0  0  0  0
 18 19  1  0  0  0  0
 19 20  1  0  0  0  0
 19 13  2  0  0  0  0
 20  9  2  0  0  0  0
 21 26  2  0  0  0  0
 21 22  1  0  0  0  0
 22 23  2  0  0  0  0
 23 28  1  0  0  0  0
 24 23  1  0  0  0  0
 24 29  1  0  0  0  0
 25 30  1  0  0  0  0
 25 24  2  0  0  0  0
 26 25  1  0  0  0  0
 27 22  1  0  0  0  0
M  END
>  <minimizedAffinity>
-5.48459911

$$$$

 OpenBabel03252507273D

 30 33  0  0  0  0  0  0  0  0999 V2000
   35.8630   28.5140   39.8710 C   0  0  0  0  0  0  0  0  0  0  0  0
   35.8400   29.8180   40.3650 C   0  0  0  0  0  0  0  0  0  0  0  0
   36.6240   30.1040   41.5060 C   0  0  0  0  0  0  0  0  0  0  0  0
   37.3690   29.0900   42.0720 N   0  0  0  0  0  0  0  0  0  0  0  0
   37.3440   27.8450   41.5400 C   0  0  0  0  0  0  0  0  0  0  0  0
   36.6100   27.5720   40.4710 N   0  0  0  0  0  0  0  0  0  0  0  0
   35.2740   30.6060   39.9380 H   0  0  0  0  0  0  0  0  0  0  0  0
   36.6430   31.0850   41.9250 H   0  0  0  0  0  0  0  0  0  0  0  0
   35.0730   28.1650   38.6970 C   0  0  0  0  0  0  0  0  0  0  0  0
   35.3100   27.1090   37.8640 C   0  0  0  0  0  0  0  0  0  0  0  0
   36.1500   26.4630   38.0710 H   0  0  0  0  0  0  0  0  0  0  0  0
   34.5090   26.8420   36.7640 C   0  0  0  0  0  3  0  0  0  0  0  0
   33.4270   27.6430   36.4630 C   0  0  0  0  0  0  0  0  0  0  0  0
   32.6210   27.4210   35.4050 N   0  0  0  0  0  0  0  0  0  0  0  0
   31.5630   28.2340   35.1410 C   0  0  0  0  0  0  0  0  0  0  0  0
   30.9010   28.0800   34.3000 H   0  0  0  0  0  0  0  0  0  0  0  0
   31.2720   29.3270   35.9590 C   0  0  0  0  0  3  0  0  0  0  0  0
   32.0780   29.5800   37.0490 C   0  0  0  0  0  3  0  0  0  0  0  0
   33.1510   28.7130   37.2720 C   0  0  0  0  0  0  0  0  0  0  0  0
   33.9780   28.9320   38.3500 C   0  0  0  0  0  3  0  0  0  0  0  0
   38.1430   26.8040   42.1600 C   0  0  0  0  0  0  0  0  0  0  0  0
   37.9830   25.4890   41.8150 C   0  0  0  0  0  0  0  0  0  0  0  0
   38.6860   24.4280   42.3430 C   0  0  0  0  0  0  0  0  0  0  0  0
   39.6190   24.7950   43.3040 C   0  0  0  0  0  0  0  0  0  0  0  0
   39.8100   26.1140   43.6800 C   0  0  0  0  0  0  0  0  0  0  0  0
   39.0680   27.1180   43.1020 N   0  0  0  0  0  0  0  0  0  0  0  0
   37.2350   25.2730   41.0560 H   0  0  0  0  0  0  0  0  0  0  0  0
   38.4990   23.4220   42.0170 H   0  0  0  0  0  0  0  0  0  0  0  0
   40.2120   24.0150   43.7670 H   0  0  0  0  0  0  0  0  0  0  0  0
   40.5510   26.3590   44.4330 H   0  0  0  0  0  0  0  0  0  0  0  0
  1  2  2  0  0  0  0
  1  6  1  0  0  0  0
  2  3  1  0  0  0  0
  3  8  1  0  0  0  0
  3  4  2  0  0  0  0
  5  4  1  0  0  0  0
  5 21  1  0  0  0  0
  6  5  2  0  0  0  0
  7  2  1  0  0  0  0
  9  1  1  0  0  0  0
 10 11  1  0  0  0  0
 10  9  2  0  0  0  0
 12 10  1  0  0  0  0
 13 12  2  0  0  0  0
 13 19  1  0  0  0  0
 14 13  1  0  0  0  0
 15 14  2  0  0  0  0
 15 17  1  0  0  0  0
 16 15  1  0  0  0  0
 17 18  2  0  0  0  0
 18 19  1  0  0  0  0
 19 20  2  0  0  0  0
 20  9  1  0  0  0  0
 21 26  1  0  0  0  0
 22 21  2  0  0  0  0
 22 23  1  0  0  0  0
 23 24  2  0  0  0  0
 24 25  1  0  0  0  0
 24 29  1  0  0  0  0
 25 30  1  0  0  0  0
 26 25  2  0  0  0  0
 27 22  1  0  0  0  0
 28 23  1  0  0  0  0
M  END
>  <minimizedAffinity>
-5.46314287

$$$$

 OpenBabel03252507273D

 30 33  0  0  0  0  0  0  0  0999 V2000
   36.4330   28.8270   40.2290 C   0  0  0  0  0  0  0  0  0  0  0  0
   36.4430   28.2180   41.4840 C   0  0  0  0  0  0  0  0  0  0  0  0
   37.2000   28.8310   42.5080 C   0  0  0  0  0  0  0  0  0  0  0  0
   37.8870   29.9930   42.2210 N   0  0  0  0  0  0  0  0  0  0  0  0
   37.8340   30.5300   40.9790 C   0  0  0  0  0  0  0  0  0  0  0  0
   37.1260   29.9580   40.0160 N   0  0  0  0  0  0  0  0  0  0  0  0
   35.9180   27.3270   41.7170 H   0  0  0  0  0  0  0  0  0  0  0  0
   37.2420   28.4080   43.4860 H   0  0  0  0  0  0  0  0  0  0  0  0
   35.6680   28.2350   39.1370 C   0  0  0  0  0  0  0  0  0  0  0  0
   35.9550   27.0550   38.5140 C   0  0  0  0  0  0  0  0  0  0  0  0
   36.8170   26.4920   38.8390 H   0  0  0  0  0  0  0  0  0  0  0  0
   35.1760   26.5580   37.4810 C   0  0  0  0  0  3  0  0  0  0  0  0
   34.0670   27.2450   37.0330 C   0  0  0  0  0  0  0  0  0  0  0  0
   33.2810   26.8000   36.0330 N   0  0  0  0  0  0  0  0  0  0  0  0
   32.1950   27.5070   35.6210 C   0  0  0  0  0  0  0  0  0  0  0  0
   31.5470   27.1740   34.8210 H   0  0  0  0  0  0  0  0  0  0  0  0
   31.8530   28.7200   36.2220 C   0  0  0  0  0  3  0  0  0  0  0  0
   32.6370   29.2020   37.2480 C   0  0  0  0  0  3  0  0  0  0  0  0
   33.7420   28.4350   37.6310 C   0  0  0  0  0  0  0  0  0  0  0  0
   34.5480   28.8810   38.6520 C   0  0  0  0  0  3  0  0  0  0  0  0
   38.5660   31.7540   40.7150 C   0  0  0  0  0  0  0  0  0  0  0  0
   37.9120   32.9260   40.4480 C   0  0  0  0  0  0  0  0  0  0  0  0
   38.5100   34.1390   40.1810 C   0  0  0  0  0  0  0  0  0  0  0  0
   39.8980   34.0970   40.2000 C   0  0  0  0  0  0  0  0  0  0  0  0
   40.5970   32.9300   40.4670 C   0  0  0  0  0  0  0  0  0  0  0  0
   39.9230   31.7590   40.7250 N   0  0  0  0  0  0  0  0  0  0  0  0
   36.8250   32.8870   40.4490 H   0  0  0  0  0  0  0  0  0  0  0  0
   37.9220   35.0150   39.9800 H   0  0  0  0  0  0  0  0  0  0  0  0
   40.4420   35.0120   39.9990 H   0  0  0  0  0  0  0  0  0  0  0  0
   41.6810   32.9400   40.4730 H   0  0  0  0  0  0  0  0  0  0  0  0
  1  2  1  0  0  0  0
  2  7  1  0  0  0  0
  2  3  2  0  0  0  0
  3  8  1  0  0  0  0
  4  3  1  0  0  0  0
  5  4  2  0  0  0  0
  6  1  2  0  0  0  0
  6  5  1  0  0  0  0
  9  1  1  0  0  0  0
 10 11  1  0  0  0  0
 10  9  2  0  0  0  0
 12 10  1  0  0  0  0
 13 12  2  0  0  0  0
 13 19  1  0  0  0  0
 14 13  1  0  0  0  0
 15 14  2  0  0  0  0
 15 17  1  0  0  0  0
 16 15  1  0  0  0  0
 17 18  2  0  0  0  0
 18 19  1  0  0  0  0
 19 20  2  0  0  0  0
 20  9  1  0  0  0  0
 21 26  1  0  0  0  0
 21  5  1  0  0  0  0
 22 27  1  0  0  0  0
 22 21  2  0  0  0  0
 23 24  2  0  0  0  0
 23 22  1  0  0  0  0
 24 25  1  0  0  0  0
 25 30  1  0  0  0  0
 25 26  2  0  0  0  0
 28 23  1  0  0  0  0
 29 24  1  0  0  0  0
M  END
>  <minimizedAffinity>
-5.45919657

$$$$

 OpenBabel03252507273D

 30 33  0  0  0  0  0  0  0  0999 V2000
   37.7700   26.9570   41.6960 C   0  0  0  0  0  0  0  0  0  0  0  0
   37.6840   27.1400   43.0760 C   0  0  0  0  0  0  0  0  0  0  0  0
   37.5170   28.4580   43.5570 C   0  0  0  0  0  0  0  0  0  0  0  0
   37.4450   29.4930   42.6470 N   0  0  0  0  0  0  0  0  0  0  0  0
   37.5360   29.2440   41.3190 C   0  0  0  0  0  0  0  0  0  0  0  0
   37.6930   28.0090   40.8640 N   0  0  0  0  0  0  0  0  0  0  0  0
   37.7370   26.3530   43.7840 H   0  0  0  0  0  0  0  0  0  0  0  0
   37.4460   28.6550   44.6030 H   0  0  0  0  0  0  0  0  0  0  0  0
   37.9430   25.6180   41.1470 C   0  0  0  0  0  0  0  0  0  0  0  0
   37.2450   24.5070   41.5240 C   0  0  0  0  0  0  0  0  0  0  0  0
   36.4940   24.6030   42.2930 H   0  0  0  0  0  0  0  0  0  0  0  0
   37.4690   23.2650   40.9510 C   0  0  0  0  0  3  0  0  0  0  0  0
   38.4200   23.0980   39.9660 C   0  0  0  0  0  0  0  0  0  0  0  0
   38.6710   21.9100   39.3810 N   0  0  0  0  0  0  0  0  0  0  0  0
   39.6170   21.7860   38.4120 C   0  0  0  0  0  0  0  0  0  0  0  0
   39.8390   20.8460   37.9260 H   0  0  0  0  0  0  0  0  0  0  0  0
   40.3610   22.8880   37.9850 C   0  0  0  0  0  3  0  0  0  0  0  0
   40.1270   24.1170   38.5640 C   0  0  0  0  0  3  0  0  0  0  0  0
   39.1440   24.1860   39.5560 C   0  0  0  0  0  0  0  0  0  0  0  0
   38.8810   25.3950   40.1570 C   0  0  0  0  0  3  0  0  0  0  0  0
   37.4520   30.3570   40.3920 C   0  0  0  0  0  0  0  0  0  0  0  0
   37.3270   30.1480   39.0450 C   0  0  0  0  0  0  0  0  0  0  0  0
   37.2430   31.1310   38.0830 C   0  0  0  0  0  0  0  0  0  0  0  0
   37.2970   32.4220   38.5930 C   0  0  0  0  0  0  0  0  0  0  0  0
   37.4230   32.6740   39.9490 C   0  0  0  0  0  0  0  0  0  0  0  0
   37.4990   31.6350   40.8470 N   0  0  0  0  0  0  0  0  0  0  0  0
   37.2910   29.1120   38.7150 H   0  0  0  0  0  0  0  0  0  0  0  0
   37.1470   30.8820   37.0430 H   0  0  0  0  0  0  0  0  0  0  0  0
   37.2380   33.2500   37.8970 H   0  0  0  0  0  0  0  0  0  0  0  0
   37.4610   33.6970   40.3060 H   0  0  0  0  0  0  0  0  0  0  0  0
  1  2  1  0  0  0  0
  2  3  2  0  0  0  0
  2  7  1  0  0  0  0
  3  8  1  0  0  0  0
  4  3  1  0  0  0  0
  5  4  2  0  0  0  0
  6  5  1  0  0  0  0
  6  1  2  0  0  0  0
  9 10  1  0  0  0  0
  9  1  1  0  0  0  0
 10 11  1  0  0  0  0
 12 10  2  0  0  0  0
 13 12  1  0  0  0  0
 14 13  2  0  0  0  0
 15 14  1  0  0  0  0
 16 15  1  0  0  0  0
 17 15  2  0  0  0  0
 17 18  1  0  0  0  0
 18 19  2  0  0  0  0
 19 13  1  0  0  0  0
 19 20  1  0  0  0  0
 20  9  2  0  0  0  0
 21 26  1  0  0  0  0
 21  5  1  0  0  0  0
 22 21  2  0  0  0  0
 23 24  2  0  0  0  0
 23 22  1  0  0  0  0
 24 25  1  0  0  0  0
 25 30  1  0  0  0  0
 25 26  2  0  0  0  0
 27 22  1  0  0  0  0
 28 23  1  0  0  0  0
 29 24  1  0  0  0  0
M  END
>  <minimizedAffinity>
-5.44529009

$$$$

 OpenBabel03252507273D

 30 33  0  0  0  0  0  0  0  0999 V2000
   37.9820   30.5670   40.4980 C   0  0  0  0  0  0  0  0  0  0  0  0
   37.0330   31.5850   40.5940 C   0  0  0  0  0  0  0  0  0  0  0  0
   37.3400   32.8300   39.9970 C   0  0  0  0  0  0  0  0  0  0  0  0
   38.5510   32.9770   39.3530 N   0  0  0  0  0  0  0  0  0  0  0  0
   39.4260   31.9450   39.2980 C   0  0  0  0  0  0  0  0  0  0  0  0
   39.1430   30.7770   39.8570 N   0  0  0  0  0  0  0  0  0  0  0  0
   36.1000   31.4840   41.0850 H   0  0  0  0  0  0  0  0  0  0  0  0
   36.6500   33.6420   40.0410 H   0  0  0  0  0  0  0  0  0  0  0  0
   37.7160   29.2650   41.0970 C   0  0  0  0  0  0  0  0  0  0  0  0
   37.6810   28.9970   42.4350 C   0  0  0  0  0  0  0  0  0  0  0  0
   37.8620   29.8030   43.1300 H   0  0  0  0  0  0  0  0  0  0  0  0
   37.4200   27.7280   42.9270 C   0  0  0  0  0  3  0  0  0  0  0  0
   37.1840   26.6700   42.0750 C   0  0  0  0  0  0  0  0  0  0  0  0
   36.9260   25.4200   42.5080 N   0  0  0  0  0  0  0  0  0  0  0  0
   36.6980   24.4030   41.6350 C   0  0  0  0  0  0  0  0  0  0  0  0
   36.4890   23.3910   41.9550 H   0  0  0  0  0  0  0  0  0  0  0  0
   36.7200   24.6180   40.2560 C   0  0  0  0  0  3  0  0  0  0  0  0
   36.9820   25.8860   39.7810 C   0  0  0  0  0  3  0  0  0  0  0  0
   37.2090   26.8930   40.7230 C   0  0  0  0  0  0  0  0  0  0  0  0
   37.4730   28.1720   40.2890 C   0  0  0  0  0  3  0  0  0  0  0  0
   40.6890   32.1350   38.6080 C   0  0  0  0  0  0  0  0  0  0  0  0
   41.1370   33.3870   38.2860 C   0  0  0  0  0  0  0  0  0  0  0  0
   42.3150   33.6760   37.6310 C   0  0  0  0  0  0  0  0  0  0  0  0
   43.0620   32.5530   37.2970 C   0  0  0  0  0  0  0  0  0  0  0  0
   42.6410   31.2690   37.6050 C   0  0  0  0  0  0  0  0  0  0  0  0
   41.4500   31.0660   38.2640 N   0  0  0  0  0  0  0  0  0  0  0  0
   40.5030   34.2210   38.5780 H   0  0  0  0  0  0  0  0  0  0  0  0
   42.5950   34.6900   37.4150 H   0  0  0  0  0  0  0  0  0  0  0  0
   44.0020   32.6980   36.7780 H   0  0  0  0  0  0  0  0  0  0  0  0
   43.2540   30.4200   37.3270 H   0  0  0  0  0  0  0  0  0  0  0  0
  1  2  1  0  0  0  0
  1  9  1  0  0  0  0
  2  7  1  0  0  0  0
  3  8  1  0  0  0  0
  3  2  2  0  0  0  0
  4  3  1  0  0  0  0
  5  4  2  0  0  0  0
  5  6  1  0  0  0  0
  6  1  2  0  0  0  0
  9 10  1  0  0  0  0
 10 12  2  0  0  0  0
 10 11  1  0  0  0  0
 13 14  1  0  0  0  0
 13 12  1  0  0  0  0
 15 16  1  0  0  0  0
 15 14  2  0  0  0  0
 17 15  1  0  0  0  0
 18 17  2  0  0  0  0
 18 19  1  0  0  0  0
 19 13  2  0  0  0  0
 20 19  1  0  0  0  0
 20  9  2  0  0  0  0
 21  5  1  0  0  0  0
 22 27  1  0  0  0  0
 22 21  1  0  0  0  0
 23 22  2  0  0  0  0
 24 25  2  0  0  0  0
 24 23  1  0  0  0  0
 25 26  1  0  0  0  0
 26 21  2  0  0  0  0
 28 23  1  0  0  0  0
 29 24  1  0  0  0  0
 30 25  1  0  0  0  0
M  END
>  <minimizedAffinity>
-5.43721008

$$$$
