
 OpenBabel03252507223D

 50 54  0  0  1  0  0  0  0  0999 V2000
   47.5020   33.7370   42.8260 C   0  0  0  0  0  0  0  0  0  0  0  0
   48.5900   33.6620   43.4690 O   0  0  0  0  0  0  0  0  0  0  0  0
   47.2530   33.1320   41.5400 N   0  0  0  0  0  0  0  0  0  0  0  0
   46.1140   32.3970   41.0390 C   0  0  0  0  0  0  0  0  0  0  0  0
   45.6850   33.0200   39.7020 C   0  0  0  0  0  0  0  0  0  0  0  0
   46.7720   32.8790   38.6860 C   0  0  0  0  0  0  0  0  0  0  0  0
   48.0630   32.4990   39.3660 C   0  0  0  0  0  0  0  0  0  0  0  0
   48.3410   33.3270   40.6040 C   0  0  2  0  0  0  0  0  0  0  0  0
   46.2840   31.3280   40.8920 H   0  0  0  0  0  0  0  0  0  0  0  0
   45.2230   32.5470   41.7100 H   0  0  0  0  0  0  0  0  0  0  0  0
   44.8180   32.4470   39.3670 H   0  0  0  0  0  0  0  0  0  0  0  0
   45.4460   34.0890   39.9100 H   0  0  0  0  0  0  0  0  0  0  0  0
   46.5390   32.0690   37.9600 H   0  0  0  0  0  0  0  0  0  0  0  0
   46.9130   33.8670   38.1810 H   0  0  0  0  0  0  0  0  0  0  0  0
   48.9180   32.7130   38.6670 H   0  0  0  0  0  0  0  0  0  0  0  0
   48.0950   31.4190   39.5850 H   0  0  0  0  0  0  0  0  0  0  0  0
   48.3280   34.3850   40.2940 H   0  0  0  0  0  0  0  0  0  0  0  0
   46.0390   35.7150   42.8380 C   0  0  0  0  0  0  0  0  0  0  0  0
   46.4280   34.4950   43.4450 C   0  0  0  0  0  0  0  0  0  0  0  0
   45.7840   34.0720   44.5860 C   0  0  0  0  0  0  0  0  0  0  0  0
   44.7980   34.8460   45.0840 N   0  0  0  0  0  0  0  0  0  0  0  0
   44.4150   36.0220   44.5100 C   0  0  0  0  0  0  0  0  0  0  0  0
   45.0460   36.4270   43.4010 N   0  0  0  0  0  0  0  0  0  0  0  0
   46.5500   36.0350   41.9480 H   0  0  0  0  0  0  0  0  0  0  0  0
   43.6230   36.5950   44.9520 H   0  0  0  0  0  0  0  0  0  0  0  0
   46.1990   32.8230   45.1870 C   0  0  0  0  0  0  0  0  0  0  0  0
   45.8920   31.6430   44.5860 C   0  0  0  0  0  0  0  0  0  0  0  0
   46.3020   30.4690   45.1830 C   0  0  0  0  0  0  0  0  0  0  0  0
   47.0150   30.4370   46.3730 C   0  0  0  0  0  0  0  0  0  0  0  0
   47.2990   31.6740   46.9410 C   0  0  0  0  0  0  0  0  0  0  0  0
   46.8880   32.7920   46.3360 N   0  0  0  0  0  0  0  0  0  0  0  0
   45.3490   31.5370   43.6700 H   0  0  0  0  0  0  0  0  0  0  0  0
   46.1010   29.4740   44.7730 H   0  0  0  0  0  0  0  0  0  0  0  0
   47.3490   29.5470   46.8660 H   0  0  0  0  0  0  0  0  0  0  0  0
   47.8510   31.6980   47.8670 H   0  0  0  0  0  0  0  0  0  0  0  0
   49.6910   32.9790   41.0930 C   0  0  0  0  0  0  0  0  0  0  0  0
   50.0450   33.5790   41.9660 H   0  0  0  0  0  0  0  0  0  0  0  0
   50.3370   33.4500   40.3030 H   0  0  0  0  0  0  0  0  0  0  0  0
   50.0770   31.5770   41.1480 C   0  0  0  0  0  0  0  0  0  0  0  0
   50.7310   30.6970   40.3230 C   0  0  0  0  0  0  0  0  0  0  0  0
   51.0530   31.0710   39.3900 H   0  0  0  0  0  0  0  0  0  0  0  0
   51.0130   29.3780   40.5620 C   0  0  0  0  0  3  0  0  0  0  0  0
   50.6340   28.8000   41.7310 C   0  0  0  0  0  0  0  0  0  0  0  0
   50.9050   27.5160   41.9710 N   0  0  0  0  0  0  0  0  0  0  0  0
   50.5610   26.8740   43.1020 C   0  0  0  0  0  0  0  0  0  0  0  0
   50.7670   25.8350   43.3260 H   0  0  0  0  0  0  0  0  0  0  0  0
   49.8910   27.6560   44.0190 C   0  0  0  0  0  3  0  0  0  0  0  0
   49.5790   28.9890   43.8340 C   0  0  0  0  0  3  0  0  0  0  0  0
   49.9740   29.5530   42.6440 C   0  0  0  0  0  0  0  0  0  0  0  0
   49.7230   30.8840   42.3320 C   0  0  0  0  0  3  0  0  0  0  0  0
  1 19  1  0  0  0  0
  1  2  2  0  0  0  0
  3  1  1  0  0  0  0
  4  3  1  0  0  0  0
  4 10  1  0  0  0  0
  5 12  1  0  0  0  0
  5  4  1  0  0  0  0
  6  7  1  0  0  0  0
  6  5  1  0  0  0  0
  7 16  1  0  0  0  0
  7  8  1  0  0  0  0
  8 17  1  6  0  0  0
  8 36  1  0  0  0  0
  8  3  1  0  0  0  0
  9  4  1  0  0  0  0
 11  5  1  0  0  0  0
 13  6  1  0  0  0  0
 14  6  1  0  0  0  0
 15  7  1  0  0  0  0
 18 23  2  0  0  0  0
 18 19  1  0  0  0  0
 19 20  2  0  0  0  0
 20 21  1  0  0  0  0
 20 26  1  0  0  0  0
 22 25  1  0  0  0  0
 22 21  2  0  0  0  0
 23 22  1  0  0  0  0
 24 18  1  0  0  0  0
 26 31  1  0  0  0  0
 27 28  1  0  0  0  0
 27 26  2  0  0  0  0
 28 29  2  0  0  0  0
 29 34  1  0  0  0  0
 29 30  1  0  0  0  0
 30 35  1  0  0  0  0
 31 30  2  0  0  0  0
 32 27  1  0  0  0  0
 33 28  1  0  0  0  0
 36 39  1  0  0  0  0
 36 37  1  0  0  0  0
 38 36  1  0  0  0  0
 39 50  1  0  0  0  0
 40 42  1  0  0  0  0
 40 39  2  0  0  0  0
 41 40  1  0  0  0  0
 42 43  2  0  0  0  0
 43 44  1  0  0  0  0
 43 49  1  0  0  0  0
 44 45  2  0  0  0  0
 45 46  1  0  0  0  0
 45 47  1  0  0  0  0
 48 47  2  0  0  0  0
 49 48  1  0  0  0  0
 50 49  2  0  0  0  0
M  END
>  <minimizedAffinity>
-5.01802874

>  <minimizedRMSD>
0.653132141

$$$$
