
 OpenBabel03242518173D

 26 28  0  0  0  0  0  0  0  0999 V2000
   45.7200   32.3860   46.8640 C   0  0  0  0  0  0  0  0  0  0  0  0
   45.2800   33.1300   47.5560 H   0  0  0  0  0  0  0  0  0  0  0  0
   44.8740   31.6890   46.6280 H   0  0  0  0  0  0  0  0  0  0  0  0
   46.8600   31.6440   47.4930 C   0  0  0  0  0  0  0  0  0  0  0  0
   47.6580   32.4220   48.3310 C   0  0  0  0  0  0  0  0  0  0  0  0
   47.4680   33.4720   48.5090 H   0  0  0  0  0  0  0  0  0  0  0  0
   48.7320   31.8020   48.9480 C   0  0  0  0  0  3  0  0  0  0  0  0
   48.9700   30.4670   48.7180 C   0  0  0  0  0  0  0  0  0  0  0  0
   50.0460   29.9320   49.3620 N   0  0  0  0  0  0  0  0  0  0  0  0
   50.3320   28.6360   49.1810 C   0  0  0  0  0  0  0  0  0  0  0  0
   51.1840   28.2450   49.7010 H   0  0  0  0  0  0  0  0  0  0  0  0
   49.5380   27.8690   48.3490 C   0  0  0  0  0  3  0  0  0  0  0  0
   48.4540   28.3570   47.6850 C   0  0  0  0  0  3  0  0  0  0  0  0
   48.1640   29.7010   47.8790 C   0  0  0  0  0  0  0  0  0  0  0  0
   47.0850   30.3060   47.2520 C   0  0  0  0  0  3  0  0  0  0  0  0
   45.6420   34.7440   44.0890 C   0  0  0  0  0  0  0  0  0  0  0  0
   46.7380   34.3770   43.2970 C   0  0  0  0  0  0  0  0  0  0  0  0
   47.5050   33.3160   43.7210 C   0  0  0  0  0  0  0  0  0  0  0  0
   47.1760   32.6760   44.8680 N   0  0  0  0  0  0  0  0  0  0  0  0
   46.1200   33.0520   45.6030 C   0  0  0  0  0  0  0  0  0  0  0  0
   45.3400   34.0900   45.2240 N   0  0  0  0  0  0  0  0  0  0  0  0
   45.0100   35.5720   43.7980 H   0  0  0  0  0  0  0  0  0  0  0  0
   48.3470   33.0460   43.0970 H   0  0  0  0  0  0  0  0  0  0  0  0
   46.9420   35.1490   42.1290 N   0  0  0  0  0  0  0  0  0  0  0  0
   47.5040   36.0270   42.0400 H   0  0  0  0  0  0  0  0  0  0  0  0
   46.3990   34.6150   41.4300 H   0  0  0  0  0  0  0  0  0  0  0  0
  1  4  1  0  0  0  0
  1  2  1  0  0  0  0
  3  1  1  0  0  0  0
  4  5  1  0  0  0  0
  5  6  1  0  0  0  0
  5  7  2  0  0  0  0
  8  7  1  0  0  0  0
  8  9  1  0  0  0  0
 10  9  2  0  0  0  0
 10 11  1  0  0  0  0
 12 10  1  0  0  0  0
 13 14  1  0  0  0  0
 13 12  2  0  0  0  0
 14  8  2  0  0  0  0
 15  4  2  0  0  0  0
 15 14  1  0  0  0  0
 16 21  1  0  0  0  0
 17 18  1  0  0  0  0
 17 16  2  0  0  0  0
 18 19  2  0  0  0  0
 19 20  1  0  0  0  0
 20  1  1  0  0  0  0
 21 20  2  0  0  0  0
 22 16  1  0  0  0  0
 23 18  1  0  0  0  0
 24 17  1  0  0  0  0
 25 24  1  0  0  0  0
 26 24  1  0  0  0  0
M  END
>  <minimizedAffinity>
-4.49065304

>  <minimizedRMSD>
3.29334021

$$$$
