REMARK  Name = 
REMARK  6 active torsions:
REMARK  status: ('A' for Active; 'I' for Inactive)
REMARK    1  A    between atoms: C_1  and  O_14
REMARK    2  A    between atoms: C_2  and  C_11
REMARK    3  A    between atoms: C_6  and  O_15
REMARK    4  A    between atoms: C_7  and  O_13
REMARK    5  A    between atoms: O_15  and  C_18
REMARK    6  A    between atoms: C_22  and  C_37
REMARK                            x       y       z     vdW  Elec       q    Type
REMARK                         _______ _______ _______ _____ _____    ______ ____
ROOT
ATOM      1  C   UNL     1      47.409  33.017  44.405  0.00  0.00    +0.000 C 
ATOM      2  C   UNL     1      47.229  33.291  42.955  0.00  0.00    +0.000 C 
ATOM      3  C   UNL     1      47.052  32.011  42.137  0.00  0.00    +0.000 C 
ATOM      4  O   UNL     1      48.169  31.240  42.469  0.00  0.00    +0.000 OA
ATOM      5  C   UNL     1      48.071  30.722  43.743  0.00  0.00    +0.000 C 
ATOM      6  C   UNL     1      47.191  31.513  44.661  0.00  0.00    +0.000 C 
ATOM      7  H   UNL     1      48.447  33.222  44.698  0.00  0.00    +0.000 HD
ATOM      8  H   UNL     1      48.151  33.797  42.548  0.00  0.00    +0.000 HD
ATOM      9  H   UNL     1      47.167  32.253  41.062  0.00  0.00    +0.000 HD
ATOM     10  H   UNL     1      46.095  31.520  42.363  0.00  0.00    +0.000 HD
ATOM     11  H   UNL     1      49.083  30.669  44.232  0.00  0.00    +0.000 HD
ATOM     12  H   UNL     1      47.662  29.681  43.723  0.00  0.00    +0.000 HD
ATOM     13  H   UNL     1      46.103  31.384  44.472  0.00  0.00    +0.000 HD
ENDROOT
BRANCH   2  18
ATOM     14  C   UNL     1      44.975  36.172  42.775  0.00  0.00    +0.000 A 
ATOM     15  C   UNL     1      43.881  35.712  41.983  0.00  0.00    +0.000 A 
ATOM     16  C   UNL     1      43.980  34.370  41.529  0.00  0.00    +0.000 A 
ATOM     17  N   UNL     1      45.064  33.634  41.861  0.00  0.00    +0.000 NA
ATOM     18  C   UNL     1      46.066  34.135  42.616  0.00  0.00    +0.000 A 
ATOM     19  N   UNL     1      46.019  35.403  43.071  0.00  0.00    +0.000 NA
ATOM     20  H   UNL     1      43.035  36.303  41.730  0.00  0.00    +0.000 HD
ATOM     21  H   UNL     1      43.193  33.943  40.923  0.00  0.00    +0.000 HD
BRANCH  14  22
ATOM     22  O   UNL     1      44.901  37.459  43.224  0.00  0.00    +0.000 OA
ATOM     23  H   UNL     1      45.683  38.115  43.174  0.00  0.00    +0.000 HD
ENDBRANCH  14  22
ENDBRANCH   2  18
BRANCH   1  24
ATOM     24  O   UNL     1      46.533  33.725  45.227  0.00  0.00    +0.000 OA
ATOM     25  H   UNL     1      47.041  34.375  45.790  0.00  0.00    +0.000 HD
ENDBRANCH   1  24
BRANCH   6  26
ATOM     26  O   UNL     1      47.455  31.298  45.995  0.00  0.00    +0.000 OA
BRANCH  26  29
ATOM     27  F   UNL     1      45.916  29.094  46.279  0.00  0.00    +0.000 F 
ATOM     28  C   UNL     1      45.996  30.102  47.172  0.00  0.00    +0.000 A 
ATOM     29  C   UNL     1      46.751  31.256  47.112  0.00  0.00    +0.000 A 
ATOM     30  C   UNL     1      46.619  32.102  48.201  0.00  0.00    +0.000 A 
ATOM     31  C   UNL     1      45.823  31.892  49.301  0.00  0.00    +0.000 A 
ATOM     32  C   UNL     1      45.100  30.738  49.308  0.00  0.00    +0.000 A 
ATOM     33  C   UNL     1      45.162  29.828  48.269  0.00  0.00    +0.000 A 
ATOM     34  H   UNL     1      47.252  33.000  48.079  0.00  0.00    +0.000 HD
ATOM     35  H   UNL     1      45.807  32.619  50.077  0.00  0.00    +0.000 HD
ATOM     36  H   UNL     1      44.464  30.569  50.188  0.00  0.00    +0.000 HD
BRANCH  33  37
ATOM     37  C   UNL     1      44.324  28.643  48.435  0.00  0.00    +0.000 A 
ATOM     38  C   UNL     1      43.154  28.592  47.668  0.00  0.00    +0.000 A 
ATOM     39  H   UNL     1      42.921  29.422  46.991  0.00  0.00    +0.000 HD
ATOM     40  C   UNL     1      42.243  27.552  47.694  0.00  0.00    +0.000 A 
ATOM     41  C   UNL     1      42.517  26.497  48.538  0.00  0.00    +0.000 A 
ATOM     42  N   UNL     1      41.656  25.465  48.593  0.00  0.00    +0.000 NA
ATOM     43  C   UNL     1      41.838  24.398  49.383  0.00  0.00    +0.000 A 
ATOM     44  H   UNL     1      41.130  23.581  49.409  0.00  0.00    +0.000 HD
ATOM     45  C   UNL     1      42.991  24.419  50.158  0.00  0.00    +0.000 A 
ATOM     46  C   UNL     1      43.910  25.448  50.145  0.00  0.00    +0.000 A 
ATOM     47  C   UNL     1      43.664  26.517  49.310  0.00  0.00    +0.000 A 
ATOM     48  C   UNL     1      44.543  27.569  49.255  0.00  0.00    +0.000 A 
ENDBRANCH  33  37
ENDBRANCH  26  29
ENDBRANCH   6  26
TORSDOF 6
