
 OpenBabel03252507393D

 41 46  0  0  0  0  0  0  0  0999 V2000
   37.6080   26.6280   42.5840 C   0  0  0  0  0  0  0  0  0  0  0  0
   38.9160   26.9240   43.0490 C   0  0  0  0  0  0  0  0  0  0  0  0
   39.8140   25.8770   43.1190 C   0  0  0  0  0  0  0  0  0  0  0  0
   39.4160   24.6440   42.7500 N   0  0  0  0  0  0  0  0  0  0  0  0
   38.1600   24.3850   42.3090 C   0  0  0  0  0  0  0  0  0  0  0  0
   37.2750   25.3750   42.2320 N   0  0  0  0  0  0  0  0  0  0  0  0
   39.2420   27.9090   43.3450 H   0  0  0  0  0  0  0  0  0  0  0  0
   37.8950   23.3800   42.0280 H   0  0  0  0  0  0  0  0  0  0  0  0
   41.4520   27.0350   44.5000 C   0  0  0  0  0  0  0  0  0  0  0  0
   41.1960   26.0250   43.5760 C   0  0  0  0  0  0  0  0  0  0  0  0
   42.2310   25.2490   43.1640 C   0  0  0  0  0  0  0  0  0  0  0  0
   43.5270   25.4050   43.6090 C   0  0  0  0  0  0  0  0  0  0  0  0
   44.6810   24.7630   43.3410 N   0  0  0  0  0  0  0  0  0  0  0  0
   45.6740   25.3700   44.0960 C   0  0  0  0  0  0  0  0  0  0  0  0
   45.0980   26.3690   44.8100 N   0  0  0  0  0  0  0  0  0  0  0  0
   43.7930   26.4000   44.5210 C   0  0  0  0  0  0  0  0  0  0  0  0
   42.7660   27.2050   44.9610 C   0  0  0  0  0  0  0  0  0  0  0  0
   40.6920   27.6990   44.8830 H   0  0  0  0  0  0  0  0  0  0  0  0
   41.9930   24.4690   42.4420 H   0  0  0  0  0  0  0  0  0  0  0  0
   44.7780   23.9600   42.6790 H   0  0  0  0  0  0  0  0  0  0  0  0
   46.7200   25.0750   44.0980 H   0  0  0  0  0  0  0  0  0  0  0  0
   42.9420   27.9860   45.6690 H   0  0  0  0  0  0  0  0  0  0  0  0
   36.7030   27.6900   42.5160 O   0  0  0  0  0  0  0  0  0  0  0  0
   37.0760   28.8780   41.8970 C   0  0  0  0  0  0  0  0  0  0  0  0
   35.9740   29.1420   41.1680 C   0  0  0  0  0  0  0  0  0  0  0  0
   36.4660   30.7780   40.3100 S   0  0  0  0  0  0  0  0  0  0  0  0
   38.1330   30.7080   41.1900 C   0  0  0  0  0  0  0  0  0  0  0  0
   38.0210   29.7760   41.7630 N   0  0  0  0  0  0  0  0  0  0  0  0
   34.8580   29.0050   40.7020 H   0  0  0  0  0  0  0  0  0  0  0  0
   39.0770   31.8060   40.9210 C   0  0  0  0  0  0  0  0  0  0  0  0
   40.4360   31.6440   40.8910 C   0  0  0  0  0  0  0  0  0  0  0  0
   40.8620   30.6670   41.0700 H   0  0  0  0  0  0  0  0  0  0  0  0
   41.2090   32.7790   40.6220 C   0  0  0  0  0  3  0  0  0  0  0  0
   40.6020   34.0180   40.3980 C   0  0  0  0  0  0  0  0  0  0  0  0
   41.3880   35.0800   40.1440 N   0  0  0  0  0  0  0  0  0  0  0  0
   40.8760   36.3080   39.9180 C   0  0  0  0  0  0  0  0  0  0  0  0
   41.5460   37.1360   39.7180 H   0  0  0  0  0  0  0  0  0  0  0  0
   39.4830   36.4510   39.9540 C   0  0  0  0  0  3  0  0  0  0  0  0
   38.6640   35.3620   40.2150 C   0  0  0  0  0  3  0  0  0  0  0  0
   39.2270   34.1230   40.4420 C   0  0  0  0  0  0  0  0  0  0  0  0
   38.4320   33.0020   40.7080 C   0  0  0  0  0  3  0  0  0  0  0  0
  1  2  1  0  0  0  0
  2  3  2  0  0  0  0
  2  7  1  0  0  0  0
  3 10  1  0  0  0  0
  4  3  1  0  0  0  0
  5  4  2  0  0  0  0
  6  5  1  0  0  0  0
  6  1  2  0  0  0  0
  8  5  1  0  0  0  0
  9 18  1  0  0  0  0
  9 17  1  0  0  0  0
 10  9  2  0  0  0  0
 11 10  1  0  0  0  0
 11 12  2  0  0  0  0
 12 16  1  0  0  0  0
 13 12  1  0  0  0  0
 13 14  1  0  0  0  0
 14 21  1  0  0  0  0
 14 15  2  0  0  0  0
 16 15  1  0  0  0  0
 16 17  2  0  0  0  0
 17 22  1  0  0  0  0
 19 11  1  0  0  0  0
 20 13  1  0  0  0  0
 23  1  1  0  0  0  0
 24 23  1  0  0  0  0
 25 24  2  0  0  0  0
 26 25  1  0  0  0  0
 26 27  1  0  0  0  0
 27 28  2  0  0  0  0
 28 24  1  0  0  0  0
 29 25  1  0  0  0  0
 30 27  1  0  0  0  0
 31 30  1  0  0  0  0
 31 32  1  0  0  0  0
 33 31  2  0  0  0  0
 34 40  1  0  0  0  0
 34 33  1  0  0  0  0
 35 34  2  0  0  0  0
 36 38  2  0  0  0  0
 36 35  1  0  0  0  0
 37 36  1  0  0  0  0
 38 39  1  0  0  0  0
 39 40  2  0  0  0  0
 40 41  1  0  0  0  0
 41 30  2  0  0  0  0
M  END
>  <minimizedAffinity>
-7.86719179

$$$$

 OpenBabel03252507393D

 41 46  0  0  0  0  0  0  0  0999 V2000
   38.4990   33.6570   40.0210 C   0  0  0  0  0  0  0  0  0  0  0  0
   39.7790   33.1340   39.6990 C   0  0  0  0  0  0  0  0  0  0  0  0
   40.8150   34.0380   39.5650 C   0  0  0  0  0  0  0  0  0  0  0  0
   40.5690   35.3500   39.7430 N   0  0  0  0  0  0  0  0  0  0  0  0
   39.3370   35.8270   40.0500 C   0  0  0  0  0  0  0  0  0  0  0  0
   38.3210   34.9780   40.1840 N   0  0  0  0  0  0  0  0  0  0  0  0
   39.9840   32.0840   39.5570 H   0  0  0  0  0  0  0  0  0  0  0  0
   39.1960   36.8860   40.1790 H   0  0  0  0  0  0  0  0  0  0  0  0
   42.8780   32.9040   40.1870 C   0  0  0  0  0  0  0  0  0  0  0  0
   42.1880   33.6530   39.2380 C   0  0  0  0  0  0  0  0  0  0  0  0
   42.8240   33.9760   38.0820 C   0  0  0  0  0  0  0  0  0  0  0  0
   44.1200   33.6020   37.7940 C   0  0  0  0  0  0  0  0  0  0  0  0
   44.9270   33.8060   36.7340 N   0  0  0  0  0  0  0  0  0  0  0  0
   46.1360   33.1850   37.0140 C   0  0  0  0  0  0  0  0  0  0  0  0
   46.0340   32.6140   38.2400 N   0  0  0  0  0  0  0  0  0  0  0  0
   44.8130   32.8610   38.7240 C   0  0  0  0  0  0  0  0  0  0  0  0
   44.1970   32.5170   39.9070 C   0  0  0  0  0  0  0  0  0  0  0  0
   42.4540   32.6020   41.1320 H   0  0  0  0  0  0  0  0  0  0  0  0
   42.2530   34.5610   37.3640 H   0  0  0  0  0  0  0  0  0  0  0  0
   44.6630   34.3400   35.8760 H   0  0  0  0  0  0  0  0  0  0  0  0
   46.9950   33.1720   36.3480 H   0  0  0  0  0  0  0  0  0  0  0  0
   44.7100   31.9430   40.6480 H   0  0  0  0  0  0  0  0  0  0  0  0
   37.4540   32.7390   40.1550 O   0  0  0  0  0  0  0  0  0  0  0  0
   37.6750   31.5300   40.8060 C   0  0  0  0  0  0  0  0  0  0  0  0
   36.4560   30.9640   40.7100 C   0  0  0  0  0  0  0  0  0  0  0  0
   36.7380   29.2940   41.5970 S   0  0  0  0  0  0  0  0  0  0  0  0
   38.5340   29.7900   41.9010 C   0  0  0  0  0  0  0  0  0  0  0  0
   38.5520   30.7830   41.4290 N   0  0  0  0  0  0  0  0  0  0  0  0
   35.2810   30.8340   40.4190 H   0  0  0  0  0  0  0  0  0  0  0  0
   39.3810   28.8230   42.6210 C   0  0  0  0  0  0  0  0  0  0  0  0
   38.8920   27.7040   43.2370 C   0  0  0  0  0  0  0  0  0  0  0  0
   37.8320   27.4960   43.2070 H   0  0  0  0  0  0  0  0  0  0  0  0
   39.8170   26.8750   43.8830 C   0  0  0  0  0  3  0  0  0  0  0  0
   41.1780   27.1940   43.8880 C   0  0  0  0  0  0  0  0  0  0  0  0
   42.0270   26.3660   44.5230 N   0  0  0  0  0  0  0  0  0  0  0  0
   43.3550   26.6070   44.5720 C   0  0  0  0  0  0  0  0  0  0  0  0
   44.0030   25.9140   45.0940 H   0  0  0  0  0  0  0  0  0  0  0  0
   43.8320   27.7590   43.9340 C   0  0  0  0  0  3  0  0  0  0  0  0
   42.9640   28.6190   43.2770 C   0  0  0  0  0  3  0  0  0  0  0  0
   41.6140   28.3370   43.2510 C   0  0  0  0  0  0  0  0  0  0  0  0
   40.7090   29.1820   42.5970 C   0  0  0  0  0  3  0  0  0  0  0  0
  1 23  1  0  0  0  0
  1  6  1  0  0  0  0
  2  1  2  0  0  0  0
  3  2  1  0  0  0  0
  3  4  2  0  0  0  0
  4  5  1  0  0  0  0
  5  8  1  0  0  0  0
  5  6  2  0  0  0  0
  7  2  1  0  0  0  0
  9 18  1  0  0  0  0
 10  3  1  0  0  0  0
 10  9  2  0  0  0  0
 11 10  1  0  0  0  0
 12 11  2  0  0  0  0
 12 16  1  0  0  0  0
 13 14  1  0  0  0  0
 13 12  1  0  0  0  0
 14 15  2  0  0  0  0
 15 16  1  0  0  0  0
 16 17  2  0  0  0  0
 17  9  1  0  0  0  0
 17 22  1  0  0  0  0
 19 11  1  0  0  0  0
 20 13  1  0  0  0  0
 21 14  1  0  0  0  0
 23 24  1  0  0  0  0
 24 28  1  0  0  0  0
 25 24  2  0  0  0  0
 25 26  1  0  0  0  0
 26 27  1  0  0  0  0
 27 30  1  0  0  0  0
 28 27  2  0  0  0  0
 29 25  1  0  0  0  0
 30 31  1  0  0  0  0
 31 33  2  0  0  0  0
 32 31  1  0  0  0  0
 33 34  1  0  0  0  0
 34 35  1  0  0  0  0
 35 36  2  0  0  0  0
 36 37  1  0  0  0  0
 38 36  1  0  0  0  0
 39 38  2  0  0  0  0
 40 39  1  0  0  0  0
 40 34  2  0  0  0  0
 41 30  2  0  0  0  0
 41 40  1  0  0  0  0
M  END
>  <minimizedAffinity>
-7.52494049

$$$$

 OpenBabel03252507393D

 41 46  0  0  0  0  0  0  0  0999 V2000
   36.4260   28.3100   39.7190 C   0  0  0  0  0  0  0  0  0  0  0  0
   36.9230   29.6100   39.4400 C   0  0  0  0  0  0  0  0  0  0  0  0
   37.3400   30.3710   40.5160 C   0  0  0  0  0  0  0  0  0  0  0  0
   37.2560   29.8540   41.7570 N   0  0  0  0  0  0  0  0  0  0  0  0
   36.7770   28.6090   41.9990 C   0  0  0  0  0  0  0  0  0  0  0  0
   36.3690   27.8560   40.9800 N   0  0  0  0  0  0  0  0  0  0  0  0
   36.9940   30.0300   38.4490 H   0  0  0  0  0  0  0  0  0  0  0  0
   36.7320   28.2460   43.0110 H   0  0  0  0  0  0  0  0  0  0  0  0
   37.0550   32.6780   39.7910 C   0  0  0  0  0  0  0  0  0  0  0  0
   37.8760   31.7260   40.3900 C   0  0  0  0  0  0  0  0  0  0  0  0
   39.1060   32.1110   40.8160 C   0  0  0  0  0  0  0  0  0  0  0  0
   39.5910   33.3960   40.6880 C   0  0  0  0  0  0  0  0  0  0  0  0
   40.7530   33.9840   41.0330 N   0  0  0  0  0  0  0  0  0  0  0  0
   40.6700   35.3150   40.6490 C   0  0  0  0  0  0  0  0  0  0  0  0
   39.4540   35.5060   40.0790 N   0  0  0  0  0  0  0  0  0  0  0  0
   38.7890   34.3450   40.0970 C   0  0  0  0  0  0  0  0  0  0  0  0
   37.5350   33.9890   39.6540 C   0  0  0  0  0  0  0  0  0  0  0  0
   36.0630   32.4630   39.4220 H   0  0  0  0  0  0  0  0  0  0  0  0
   39.7190   31.3410   41.2800 H   0  0  0  0  0  0  0  0  0  0  0  0
   41.5520   33.5010   41.5020 H   0  0  0  0  0  0  0  0  0  0  0  0
   41.4550   36.0530   40.7930 H   0  0  0  0  0  0  0  0  0  0  0  0
   36.8900   34.7040   39.1910 H   0  0  0  0  0  0  0  0  0  0  0  0
   36.0050   27.5450   38.6270 O   0  0  0  0  0  0  0  0  0  0  0  0
   34.8320   27.8790   37.9600 C   0  0  0  0  0  0  0  0  0  0  0  0
   34.6640   26.7910   37.1830 C   0  0  0  0  0  0  0  0  0  0  0  0
   33.0490   27.2290   36.2570 S   0  0  0  0  0  0  0  0  0  0  0  0
   32.9880   28.8670   37.1930 C   0  0  0  0  0  0  0  0  0  0  0  0
   33.8940   28.7820   37.8090 N   0  0  0  0  0  0  0  0  0  0  0  0
   34.8820   25.7010   36.6900 H   0  0  0  0  0  0  0  0  0  0  0  0
   31.8560   29.7630   36.8980 C   0  0  0  0  0  0  0  0  0  0  0  0
   30.9010   30.1000   37.8170 C   0  0  0  0  0  0  0  0  0  0  0  0
   30.9580   29.7010   38.8200 H   0  0  0  0  0  0  0  0  0  0  0  0
   29.8830   30.9630   37.3930 C   0  0  0  0  0  3  0  0  0  0  0  0
   29.8610   31.4490   36.0830 C   0  0  0  0  0  0  0  0  0  0  0  0
   28.8620   32.2750   35.7240 N   0  0  0  0  0  0  0  0  0  0  0  0
   28.7710   32.7850   34.4770 C   0  0  0  0  0  0  0  0  0  0  0  0
   27.9500   33.4460   34.2300 H   0  0  0  0  0  0  0  0  0  0  0  0
   29.7600   32.4260   33.5530 C   0  0  0  0  0  3  0  0  0  0  0  0
   30.7950   31.5740   33.9140 C   0  0  0  0  0  3  0  0  0  0  0  0
   30.8500   31.0740   35.1990 C   0  0  0  0  0  0  0  0  0  0  0  0
   31.8790   30.2130   35.5970 C   0  0  0  0  0  3  0  0  0  0  0  0
  1  6  1  0  0  0  0
  2  1  2  0  0  0  0
  2  3  1  0  0  0  0
  3  4  2  0  0  0  0
  4  5  1  0  0  0  0
  5  8  1  0  0  0  0
  6  5  2  0  0  0  0
  7  2  1  0  0  0  0
  9 10  1  0  0  0  0
 10  3  1  0  0  0  0
 10 11  2  0  0  0  0
 11 19  1  0  0  0  0
 12 11  1  0  0  0  0
 12 13  1  0  0  0  0
 13 20  1  0  0  0  0
 14 21  1  0  0  0  0
 14 13  1  0  0  0  0
 15 16  1  0  0  0  0
 15 14  2  0  0  0  0
 16 12  2  0  0  0  0
 17  9  2  0  0  0  0
 17 16  1  0  0  0  0
 18  9  1  0  0  0  0
 22 17  1  0  0  0  0
 23  1  1  0  0  0  0
 24 23  1  0  0  0  0
 25 24  2  0  0  0  0
 26 25  1  0  0  0  0
 26 27  1  0  0  0  0
 27 28  2  0  0  0  0
 28 24  1  0  0  0  0
 29 25  1  0  0  0  0
 30 27  1  0  0  0  0
 30 31  1  0  0  0  0
 31 32  1  0  0  0  0
 33 31  2  0  0  0  0
 34 33  1  0  0  0  0
 35 34  1  0  0  0  0
 36 35  2  0  0  0  0
 37 36  1  0  0  0  0
 38 39  2  0  0  0  0
 38 36  1  0  0  0  0
 39 40  1  0  0  0  0
 40 41  1  0  0  0  0
 40 34  2  0  0  0  0
 41 30  2  0  0  0  0
M  END
>  <minimizedAffinity>
-7.50327921

$$$$

 OpenBabel03252507393D

 41 46  0  0  0  0  0  0  0  0999 V2000
   39.2570   34.5390   40.1920 C   0  0  0  0  0  0  0  0  0  0  0  0
   40.2350   33.8190   39.4570 C   0  0  0  0  0  0  0  0  0  0  0  0
   41.5470   34.2350   39.5740 C   0  0  0  0  0  0  0  0  0  0  0  0
   41.8340   35.2870   40.3660 N   0  0  0  0  0  0  0  0  0  0  0  0
   40.8820   35.9610   41.0580 C   0  0  0  0  0  0  0  0  0  0  0  0
   39.6100   35.5800   40.9630 N   0  0  0  0  0  0  0  0  0  0  0  0
   40.0130   32.9750   38.8220 H   0  0  0  0  0  0  0  0  0  0  0  0
   41.1670   36.7950   41.6750 H   0  0  0  0  0  0  0  0  0  0  0  0
   43.9470   33.9170   39.3190 C   0  0  0  0  0  0  0  0  0  0  0  0
   42.6650   33.5950   38.8820 C   0  0  0  0  0  0  0  0  0  0  0  0
   42.5340   32.7180   37.8540 C   0  0  0  0  0  0  0  0  0  0  0  0
   43.6040   32.1260   37.2150 C   0  0  0  0  0  0  0  0  0  0  0  0
   43.7020   31.2470   36.1980 N   0  0  0  0  0  0  0  0  0  0  0  0
   45.0530   31.0120   35.9880 C   0  0  0  0  0  0  0  0  0  0  0  0
   45.7470   31.7540   36.8870 N   0  0  0  0  0  0  0  0  0  0  0  0
   44.8760   32.4360   37.6370 C   0  0  0  0  0  0  0  0  0  0  0  0
   45.0440   33.3220   38.6780 C   0  0  0  0  0  0  0  0  0  0  0  0
   44.1470   34.6040   40.1280 H   0  0  0  0  0  0  0  0  0  0  0  0
   41.5170   32.4900   37.5400 H   0  0  0  0  0  0  0  0  0  0  0  0
   42.8910   30.8370   35.6810 H   0  0  0  0  0  0  0  0  0  0  0  0
   45.4560   30.3440   35.2310 H   0  0  0  0  0  0  0  0  0  0  0  0
   46.0200   33.5820   39.0280 H   0  0  0  0  0  0  0  0  0  0  0  0
   37.9310   34.1140   40.0690 O   0  0  0  0  0  0  0  0  0  0  0  0
   37.6400   32.7550   40.0510 C   0  0  0  0  0  0  0  0  0  0  0  0
   37.1780   32.6120   38.7930 C   0  0  0  0  0  0  0  0  0  0  0  0
   36.7740   30.7440   38.7440 S   0  0  0  0  0  0  0  0  0  0  0  0
   37.3590   30.5980   40.5330 C   0  0  0  0  0  0  0  0  0  0  0  0
   37.6450   31.6390   40.7370 N   0  0  0  0  0  0  0  0  0  0  0  0
   36.8500   32.9120   37.6610 H   0  0  0  0  0  0  0  0  0  0  0  0
   37.2950   29.2610   41.1490 C   0  0  0  0  0  0  0  0  0  0  0  0
   37.4560   29.0400   42.4900 C   0  0  0  0  0  0  0  0  0  0  0  0
   37.6400   29.8750   43.1520 H   0  0  0  0  0  0  0  0  0  0  0  0
   37.3690   27.7160   42.9330 C   0  0  0  0  0  3  0  0  0  0  0  0
   37.1280   26.6760   42.0310 C   0  0  0  0  0  0  0  0  0  0  0  0
   37.0530   25.4200   42.5060 N   0  0  0  0  0  0  0  0  0  0  0  0
   36.8240   24.3630   41.6970 C   0  0  0  0  0  0  0  0  0  0  0  0
   36.7720   23.3680   42.1220 H   0  0  0  0  0  0  0  0  0  0  0  0
   36.6630   24.6140   40.3280 C   0  0  0  0  0  3  0  0  0  0  0  0
   36.7380   25.9060   39.8290 C   0  0  0  0  0  3  0  0  0  0  0  0
   36.9740   26.9580   40.6900 C   0  0  0  0  0  0  0  0  0  0  0  0
   37.0570   28.2740   40.2200 C   0  0  0  0  0  3  0  0  0  0  0  0
  1  6  1  0  0  0  0
  2  3  1  0  0  0  0
  2  1  2  0  0  0  0
  3  4  2  0  0  0  0
  4  5  1  0  0  0  0
  5  8  1  0  0  0  0
  6  5  2  0  0  0  0
  7  2  1  0  0  0  0
  9 18  1  0  0  0  0
 10  9  1  0  0  0  0
 10  3  1  0  0  0  0
 11 10  2  0  0  0  0
 12 16  2  0  0  0  0
 12 11  1  0  0  0  0
 13 12  1  0  0  0  0
 14 13  1  0  0  0  0
 14 15  2  0  0  0  0
 15 16  1  0  0  0  0
 16 17  1  0  0  0  0
 17 22  1  0  0  0  0
 17  9  2  0  0  0  0
 19 11  1  0  0  0  0
 20 13  1  0  0  0  0
 21 14  1  0  0  0  0
 23  1  1  0  0  0  0
 24 23  1  0  0  0  0
 24 28  1  0  0  0  0
 25 24  2  0  0  0  0
 26 25  1  0  0  0  0
 26 27  1  0  0  0  0
 27 28  2  0  0  0  0
 27 30  1  0  0  0  0
 29 25  1  0  0  0  0
 30 31  1  0  0  0  0
 31 33  2  0  0  0  0
 31 32  1  0  0  0  0
 34 35  1  0  0  0  0
 34 33  1  0  0  0  0
 36 37  1  0  0  0  0
 36 35  2  0  0  0  0
 38 36  1  0  0  0  0
 39 38  2  0  0  0  0
 39 40  1  0  0  0  0
 40 34  2  0  0  0  0
 41 40  1  0  0  0  0
 41 30  2  0  0  0  0
M  END
>  <minimizedAffinity>
-7.38098335

$$$$

 OpenBabel03252507393D

 41 46  0  0  0  0  0  0  0  0999 V2000
   37.7120   29.3230   42.3140 C   0  0  0  0  0  0  0  0  0  0  0  0
   38.6270   30.3820   42.0750 C   0  0  0  0  0  0  0  0  0  0  0  0
   38.2280   31.3750   41.2020 C   0  0  0  0  0  0  0  0  0  0  0  0
   37.0130   31.2960   40.6260 N   0  0  0  0  0  0  0  0  0  0  0  0
   36.1560   30.2730   40.8700 C   0  0  0  0  0  0  0  0  0  0  0  0
   36.5150   29.3040   41.7070 N   0  0  0  0  0  0  0  0  0  0  0  0
   39.6010   30.4530   42.5330 H   0  0  0  0  0  0  0  0  0  0  0  0
   35.1960   30.2590   40.3820 H   0  0  0  0  0  0  0  0  0  0  0  0
   40.4350   32.3300   40.8140 C   0  0  0  0  0  0  0  0  0  0  0  0
   39.0580   32.5300   40.8550 C   0  0  0  0  0  0  0  0  0  0  0  0
   38.5760   33.7680   40.5740 C   0  0  0  0  0  0  0  0  0  0  0  0
   39.3770   34.8430   40.2490 C   0  0  0  0  0  0  0  0  0  0  0  0
   39.1180   36.1290   39.9400 N   0  0  0  0  0  0  0  0  0  0  0  0
   40.3370   36.7470   39.7030 C   0  0  0  0  0  0  0  0  0  0  0  0
   41.3120   35.8200   39.8730 N   0  0  0  0  0  0  0  0  0  0  0  0
   40.7400   34.6580   40.2050 C   0  0  0  0  0  0  0  0  0  0  0  0
   41.2610   33.4150   40.4850 C   0  0  0  0  0  0  0  0  0  0  0  0
   40.9060   31.3810   41.0230 H   0  0  0  0  0  0  0  0  0  0  0  0
   37.4950   33.8870   40.6160 H   0  0  0  0  0  0  0  0  0  0  0  0
   38.1640   36.5530   39.8960 H   0  0  0  0  0  0  0  0  0  0  0  0
   40.4600   37.7920   39.4300 H   0  0  0  0  0  0  0  0  0  0  0  0
   42.3160   33.2400   40.4590 H   0  0  0  0  0  0  0  0  0  0  0  0
   38.1200   28.3200   43.1980 O   0  0  0  0  0  0  0  0  0  0  0  0
   38.2420   27.0100   42.7480 C   0  0  0  0  0  0  0  0  0  0  0  0
   39.2890   26.5870   43.4830 C   0  0  0  0  0  0  0  0  0  0  0  0
   39.4730   24.7810   42.8820 S   0  0  0  0  0  0  0  0  0  0  0  0
   38.0100   25.0480   41.7190 C   0  0  0  0  0  0  0  0  0  0  0  0
   37.7620   26.0940   41.9430 N   0  0  0  0  0  0  0  0  0  0  0  0
   40.2000   26.6180   44.2890 H   0  0  0  0  0  0  0  0  0  0  0  0
   37.6040   23.9040   40.8840 C   0  0  0  0  0  0  0  0  0  0  0  0
   38.4500   22.8870   40.5330 C   0  0  0  0  0  0  0  0  0  0  0  0
   39.4750   22.9020   40.8760 H   0  0  0  0  0  0  0  0  0  0  0  0
   37.9240   21.8660   39.7340 C   0  0  0  0  0  3  0  0  0  0  0  0
   36.5900   21.9000   39.3210 C   0  0  0  0  0  0  0  0  0  0  0  0
   36.1310   20.8950   38.5530 N   0  0  0  0  0  0  0  0  0  0  0  0
   34.8540   20.8580   38.1140 C   0  0  0  0  0  0  0  0  0  0  0  0
   34.5270   20.0290   37.4980 H   0  0  0  0  0  0  0  0  0  0  0  0
   34.0070   21.9090   38.4860 C   0  0  0  0  0  3  0  0  0  0  0  0
   34.4700   22.9500   39.2770 C   0  0  0  0  0  3  0  0  0  0  0  0
   35.7830   22.9510   39.7040 C   0  0  0  0  0  0  0  0  0  0  0  0
   36.2840   23.9850   40.5030 C   0  0  0  0  0  3  0  0  0  0  0  0
  1 23  1  0  0  0  0
  2  1  1  0  0  0  0
  2  7  1  0  0  0  0
  3  2  2  0  0  0  0
  4  5  2  0  0  0  0
  4  3  1  0  0  0  0
  5  6  1  0  0  0  0
  6  1  2  0  0  0  0
  8  5  1  0  0  0  0
  9 10  1  0  0  0  0
  9 18  1  0  0  0  0
 10  3  1  0  0  0  0
 11 19  1  0  0  0  0
 11 10  2  0  0  0  0
 12 11  1  0  0  0  0
 13 12  1  0  0  0  0
 14 15  2  0  0  0  0
 14 13  1  0  0  0  0
 15 16  1  0  0  0  0
 16 12  2  0  0  0  0
 16 17  1  0  0  0  0
 17  9  2  0  0  0  0
 20 13  1  0  0  0  0
 21 14  1  0  0  0  0
 22 17  1  0  0  0  0
 24 23  1  0  0  0  0
 24 25  2  0  0  0  0
 25 29  1  0  0  0  0
 26 25  1  0  0  0  0
 27 28  2  0  0  0  0
 27 26  1  0  0  0  0
 28 24  1  0  0  0  0
 30 27  1  0  0  0  0
 31 32  1  0  0  0  0
 31 30  1  0  0  0  0
 33 31  2  0  0  0  0
 34 40  1  0  0  0  0
 34 33  1  0  0  0  0
 35 34  2  0  0  0  0
 36 38  2  0  0  0  0
 36 35  1  0  0  0  0
 37 36  1  0  0  0  0
 38 39  1  0  0  0  0
 39 40  2  0  0  0  0
 40 41  1  0  0  0  0
 41 30  2  0  0  0  0
M  END
>  <minimizedAffinity>
-7.36229229

$$$$

 OpenBabel03252507393D

 41 46  0  0  0  0  0  0  0  0999 V2000
   36.9250   28.0130   40.1380 C   0  0  0  0  0  0  0  0  0  0  0  0
   37.2580   29.3410   39.7650 C   0  0  0  0  0  0  0  0  0  0  0  0
   37.5350   30.2330   40.7820 C   0  0  0  0  0  0  0  0  0  0  0  0
   37.4770   29.8110   42.0600 N   0  0  0  0  0  0  0  0  0  0  0  0
   37.1550   28.5360   42.3930 C   0  0  0  0  0  0  0  0  0  0  0  0
   36.8840   27.6570   41.4320 N   0  0  0  0  0  0  0  0  0  0  0  0
   37.3080   29.6870   38.7440 H   0  0  0  0  0  0  0  0  0  0  0  0
   37.1220   28.2530   43.4310 H   0  0  0  0  0  0  0  0  0  0  0  0
   36.9990   32.4060   39.8230 C   0  0  0  0  0  0  0  0  0  0  0  0
   37.8950   31.6340   40.5570 C   0  0  0  0  0  0  0  0  0  0  0  0
   39.0310   32.2200   41.0140 C   0  0  0  0  0  0  0  0  0  0  0  0
   39.3500   33.5440   40.7890 C   0  0  0  0  0  0  0  0  0  0  0  0
   40.3970   34.3150   41.1420 N   0  0  0  0  0  0  0  0  0  0  0  0
   40.1660   35.5820   40.6270 C   0  0  0  0  0  0  0  0  0  0  0  0
   38.9780   35.5520   39.9720 N   0  0  0  0  0  0  0  0  0  0  0  0
   38.4730   34.3170   40.0640 C   0  0  0  0  0  0  0  0  0  0  0  0
   37.3110   33.7530   39.5870 C   0  0  0  0  0  0  0  0  0  0  0  0
   36.0730   32.0240   39.4210 H   0  0  0  0  0  0  0  0  0  0  0  0
   39.7070   31.5860   41.5840 H   0  0  0  0  0  0  0  0  0  0  0  0
   41.2190   33.9890   41.7000 H   0  0  0  0  0  0  0  0  0  0  0  0
   40.8340   36.4310   40.7430 H   0  0  0  0  0  0  0  0  0  0  0  0
   36.6110   34.3290   39.0210 H   0  0  0  0  0  0  0  0  0  0  0  0
   36.6450   27.1150   39.1050 O   0  0  0  0  0  0  0  0  0  0  0  0
   35.5760   27.3570   38.2490 C   0  0  0  0  0  0  0  0  0  0  0  0
   35.3370   26.1150   37.7840 C   0  0  0  0  0  0  0  0  0  0  0  0
   33.8650   26.4250   36.6040 S   0  0  0  0  0  0  0  0  0  0  0  0
   33.9300   28.2590   37.0480 C   0  0  0  0  0  0  0  0  0  0  0  0
   34.7690   28.2650   37.7580 N   0  0  0  0  0  0  0  0  0  0  0  0
   35.4600   24.9140   37.6320 H   0  0  0  0  0  0  0  0  0  0  0  0
   32.9420   29.1380   36.3990 C   0  0  0  0  0  0  0  0  0  0  0  0
   32.9720   29.4550   35.0680 C   0  0  0  0  0  0  0  0  0  0  0  0
   33.7520   29.0490   34.4390 H   0  0  0  0  0  0  0  0  0  0  0  0
   31.9670   30.3030   34.5910 C   0  0  0  0  0  3  0  0  0  0  0  0
   30.9830   30.7970   35.4520 C   0  0  0  0  0  0  0  0  0  0  0  0
   30.0380   31.6090   34.9450 N   0  0  0  0  0  0  0  0  0  0  0  0
   29.0550   32.1260   35.7130 C   0  0  0  0  0  0  0  0  0  0  0  0
   28.3140   32.7770   35.2640 H   0  0  0  0  0  0  0  0  0  0  0  0
   29.0440   31.7890   37.0730 C   0  0  0  0  0  3  0  0  0  0  0  0
   30.0150   30.9520   37.6050 C   0  0  0  0  0  3  0  0  0  0  0  0
   31.0030   30.4450   36.7850 C   0  0  0  0  0  0  0  0  0  0  0  0
   31.9970   29.5970   37.2880 C   0  0  0  0  0  3  0  0  0  0  0  0
  1  6  1  0  0  0  0
  2  1  2  0  0  0  0
  2  3  1  0  0  0  0
  3  4  2  0  0  0  0
  4  5  1  0  0  0  0
  5  8  1  0  0  0  0
  6  5  2  0  0  0  0
  7  2  1  0  0  0  0
  9 10  1  0  0  0  0
 10  3  1  0  0  0  0
 10 11  2  0  0  0  0
 11 19  1  0  0  0  0
 12 11  1  0  0  0  0
 12 13  1  0  0  0  0
 13 20  1  0  0  0  0
 14 21  1  0  0  0  0
 14 13  1  0  0  0  0
 15 16  1  0  0  0  0
 15 14  2  0  0  0  0
 16 12  2  0  0  0  0
 17  9  2  0  0  0  0
 17 16  1  0  0  0  0
 18  9  1  0  0  0  0
 22 17  1  0  0  0  0
 23  1  1  0  0  0  0
 24 23  1  0  0  0  0
 25 24  2  0  0  0  0
 26 27  1  0  0  0  0
 26 25  1  0  0  0  0
 27 28  2  0  0  0  0
 28 24  1  0  0  0  0
 29 25  1  0  0  0  0
 30 27  1  0  0  0  0
 30 41  1  0  0  0  0
 31 30  2  0  0  0  0
 32 31  1  0  0  0  0
 33 31  1  0  0  0  0
 33 34  2  0  0  0  0
 34 40  1  0  0  0  0
 35 34  1  0  0  0  0
 35 36  2  0  0  0  0
 36 38  1  0  0  0  0
 37 36  1  0  0  0  0
 38 39  2  0  0  0  0
 40 41  2  0  0  0  0
 40 39  1  0  0  0  0
M  END
>  <minimizedAffinity>
-7.34256554

$$$$

 OpenBabel03252507393D

 41 46  0  0  0  0  0  0  0  0999 V2000
   37.1920   29.0930   41.9580 C   0  0  0  0  0  0  0  0  0  0  0  0
   38.1380   30.1450   41.8470 C   0  0  0  0  0  0  0  0  0  0  0  0
   37.8450   31.1670   40.9660 C   0  0  0  0  0  0  0  0  0  0  0  0
   36.6960   31.1210   40.2640 N   0  0  0  0  0  0  0  0  0  0  0  0
   35.8070   30.1040   40.3870 C   0  0  0  0  0  0  0  0  0  0  0  0
   36.0650   29.1070   41.2290 N   0  0  0  0  0  0  0  0  0  0  0  0
   39.0600   30.1890   42.4060 H   0  0  0  0  0  0  0  0  0  0  0  0
   34.9040   30.1170   39.8010 H   0  0  0  0  0  0  0  0  0  0  0  0
   40.0900   32.1070   40.8670 C   0  0  0  0  0  0  0  0  0  0  0  0
   38.7190   32.3190   40.7420 C   0  0  0  0  0  0  0  0  0  0  0  0
   38.2850   33.5650   40.4220 C   0  0  0  0  0  0  0  0  0  0  0  0
   39.1280   34.6370   40.2150 C   0  0  0  0  0  0  0  0  0  0  0  0
   38.9190   35.9290   39.8950 N   0  0  0  0  0  0  0  0  0  0  0  0
   40.1620   36.5400   39.8200 C   0  0  0  0  0  0  0  0  0  0  0  0
   41.1020   35.6010   40.0940 N   0  0  0  0  0  0  0  0  0  0  0  0
   40.4840   34.4400   40.3360 C   0  0  0  0  0  0  0  0  0  0  0  0
   40.9580   33.1880   40.6590 C   0  0  0  0  0  0  0  0  0  0  0  0
   40.5240   31.1510   41.1180 H   0  0  0  0  0  0  0  0  0  0  0  0
   37.2080   33.6930   40.3320 H   0  0  0  0  0  0  0  0  0  0  0  0
   37.9810   36.3630   39.7400 H   0  0  0  0  0  0  0  0  0  0  0  0
   40.3260   37.5870   39.5800 H   0  0  0  0  0  0  0  0  0  0  0  0
   42.0060   33.0050   40.7610 H   0  0  0  0  0  0  0  0  0  0  0  0
   37.4930   28.0600   42.8510 O   0  0  0  0  0  0  0  0  0  0  0  0
   37.6420   26.7600   42.3800 C   0  0  0  0  0  0  0  0  0  0  0  0
   38.7530   26.3770   43.0400 C   0  0  0  0  0  0  0  0  0  0  0  0
   38.9740   24.5860   42.4080 S   0  0  0  0  0  0  0  0  0  0  0  0
   37.4280   24.7980   41.3460 C   0  0  0  0  0  0  0  0  0  0  0  0
   37.1500   25.8310   41.5980 N   0  0  0  0  0  0  0  0  0  0  0  0
   39.7120   26.4420   43.7850 H   0  0  0  0  0  0  0  0  0  0  0  0
   37.0180   23.6450   40.5260 C   0  0  0  0  0  0  0  0  0  0  0  0
   35.8450   23.5980   39.8230 C   0  0  0  0  0  0  0  0  0  0  0  0
   35.1680   24.4400   39.8550 H   0  0  0  0  0  0  0  0  0  0  0  0
   35.5880   22.4350   39.0880 C   0  0  0  0  0  3  0  0  0  0  0  0
   36.5020   21.3780   39.0830 C   0  0  0  0  0  0  0  0  0  0  0  0
   36.2090   20.2810   38.3610 N   0  0  0  0  0  0  0  0  0  0  0  0
   37.0410   19.2190   38.3080 C   0  0  0  0  0  0  0  0  0  0  0  0
   36.7660   18.3560   37.7130 H   0  0  0  0  0  0  0  0  0  0  0  0
   38.2360   19.2900   39.0350 C   0  0  0  0  0  3  0  0  0  0  0  0
   38.5460   20.4160   39.7840 C   0  0  0  0  0  3  0  0  0  0  0  0
   37.6680   21.4800   39.8120 C   0  0  0  0  0  0  0  0  0  0  0  0
   37.9490   22.6320   40.5560 C   0  0  0  0  0  3  0  0  0  0  0  0
  1 23  1  0  0  0  0
  2  1  1  0  0  0  0
  2  7  1  0  0  0  0
  3  2  2  0  0  0  0
  4  5  2  0  0  0  0
  4  3  1  0  0  0  0
  5  6  1  0  0  0  0
  6  1  2  0  0  0  0
  8  5  1  0  0  0  0
  9 18  1  0  0  0  0
 10  9  1  0  0  0  0
 10  3  1  0  0  0  0
 11 10  2  0  0  0  0
 12 16  2  0  0  0  0
 12 11  1  0  0  0  0
 13 12  1  0  0  0  0
 14 13  1  0  0  0  0
 14 15  2  0  0  0  0
 15 16  1  0  0  0  0
 16 17  1  0  0  0  0
 17 22  1  0  0  0  0
 17  9  2  0  0  0  0
 19 11  1  0  0  0  0
 20 13  1  0  0  0  0
 21 14  1  0  0  0  0
 24 23  1  0  0  0  0
 24 25  2  0  0  0  0
 25 29  1  0  0  0  0
 26 25  1  0  0  0  0
 27 28  2  0  0  0  0
 27 26  1  0  0  0  0
 28 24  1  0  0  0  0
 30 41  1  0  0  0  0
 30 27  1  0  0  0  0
 31 32  1  0  0  0  0
 31 30  2  0  0  0  0
 33 31  1  0  0  0  0
 34 33  2  0  0  0  0
 34 40  1  0  0  0  0
 35 34  1  0  0  0  0
 36 35  2  0  0  0  0
 36 38  1  0  0  0  0
 37 36  1  0  0  0  0
 38 39  2  0  0  0  0
 39 40  1  0  0  0  0
 40 41  2  0  0  0  0
M  END
>  <minimizedAffinity>
-7.30680895

$$$$

 OpenBabel03252507393D

 41 46  0  0  0  0  0  0  0  0999 V2000
   37.5110   26.8280   42.5890 C   0  0  0  0  0  0  0  0  0  0  0  0
   38.8320   27.0680   43.0500 C   0  0  0  0  0  0  0  0  0  0  0  0
   39.6870   25.9850   43.1090 C   0  0  0  0  0  0  0  0  0  0  0  0
   39.2370   24.7720   42.7350 N   0  0  0  0  0  0  0  0  0  0  0  0
   37.9700   24.5660   42.2990 C   0  0  0  0  0  0  0  0  0  0  0  0
   37.1260   25.5930   42.2320 N   0  0  0  0  0  0  0  0  0  0  0  0
   39.2000   28.0370   43.3500 H   0  0  0  0  0  0  0  0  0  0  0  0
   37.6630   23.5740   42.0140 H   0  0  0  0  0  0  0  0  0  0  0  0
   42.0140   25.3060   42.8750 C   0  0  0  0  0  0  0  0  0  0  0  0
   41.0760   26.0730   43.5610 C   0  0  0  0  0  0  0  0  0  0  0  0
   41.5040   26.8450   44.5920 C   0  0  0  0  0  0  0  0  0  0  0  0
   42.8200   26.9130   45.0010 C   0  0  0  0  0  0  0  0  0  0  0  0
   43.4510   27.5980   45.9750 N   0  0  0  0  0  0  0  0  0  0  0  0
   44.7950   27.2610   45.9080 C   0  0  0  0  0  0  0  0  0  0  0  0
   44.9510   26.3790   44.8890 N   0  0  0  0  0  0  0  0  0  0  0  0
   43.7560   26.1600   44.3310 C   0  0  0  0  0  0  0  0  0  0  0  0
   43.3560   25.3650   43.2800 C   0  0  0  0  0  0  0  0  0  0  0  0
   41.7650   24.6630   42.0440 H   0  0  0  0  0  0  0  0  0  0  0  0
   40.7430   27.4320   45.1040 H   0  0  0  0  0  0  0  0  0  0  0  0
   42.9860   28.2530   46.6430 H   0  0  0  0  0  0  0  0  0  0  0  0
   45.5670   27.6520   46.5660 H   0  0  0  0  0  0  0  0  0  0  0  0
   44.0600   24.7680   42.7410 H   0  0  0  0  0  0  0  0  0  0  0  0
   36.6500   27.9270   42.5310 O   0  0  0  0  0  0  0  0  0  0  0  0
   36.9730   29.0170   41.7300 C   0  0  0  0  0  0  0  0  0  0  0  0
   35.9060   29.0530   40.9080 C   0  0  0  0  0  0  0  0  0  0  0  0
   36.3290   30.5520   39.7980 S   0  0  0  0  0  0  0  0  0  0  0  0
   37.9340   30.7810   40.7650 C   0  0  0  0  0  0  0  0  0  0  0  0
   37.8540   29.9570   41.4880 N   0  0  0  0  0  0  0  0  0  0  0  0
   34.8390   28.7400   40.4160 H   0  0  0  0  0  0  0  0  0  0  0  0
   38.8070   31.8940   40.3550 C   0  0  0  0  0  0  0  0  0  0  0  0
   38.7870   33.1270   40.9480 C   0  0  0  0  0  0  0  0  0  0  0  0
   38.1040   33.3180   41.7630 H   0  0  0  0  0  0  0  0  0  0  0  0
   39.6760   34.0880   40.4520 C   0  0  0  0  0  3  0  0  0  0  0  0
   40.5380   33.7840   39.3950 C   0  0  0  0  0  0  0  0  0  0  0  0
   41.3730   34.7420   38.9540 N   0  0  0  0  0  0  0  0  0  0  0  0
   42.2340   34.5240   37.9370 C   0  0  0  0  0  0  0  0  0  0  0  0
   42.8890   35.3240   37.6130 H   0  0  0  0  0  0  0  0  0  0  0  0
   42.2360   33.2550   37.3450 C   0  0  0  0  0  3  0  0  0  0  0  0
   41.3790   32.2600   37.7930 C   0  0  0  0  0  3  0  0  0  0  0  0
   40.5130   32.5240   38.8350 C   0  0  0  0  0  0  0  0  0  0  0  0
   39.6350   31.5440   39.3130 C   0  0  0  0  0  3  0  0  0  0  0  0
  1  2  1  0  0  0  0
  2  3  2  0  0  0  0
  2  7  1  0  0  0  0
  3 10  1  0  0  0  0
  4  3  1  0  0  0  0
  5  4  2  0  0  0  0
  6  5  1  0  0  0  0
  6  1  2  0  0  0  0
  8  5  1  0  0  0  0
  9 17  2  0  0  0  0
  9 10  1  0  0  0  0
 10 11  2  0  0  0  0
 11 12  1  0  0  0  0
 11 19  1  0  0  0  0
 12 13  1  0  0  0  0
 13 20  1  0  0  0  0
 14 13  1  0  0  0  0
 14 21  1  0  0  0  0
 15 14  2  0  0  0  0
 16 15  1  0  0  0  0
 16 12  2  0  0  0  0
 17 16  1  0  0  0  0
 18  9  1  0  0  0  0
 22 17  1  0  0  0  0
 23  1  1  0  0  0  0
 24 23  1  0  0  0  0
 25 24  2  0  0  0  0
 26 27  1  0  0  0  0
 26 25  1  0  0  0  0
 27 28  2  0  0  0  0
 28 24  1  0  0  0  0
 29 25  1  0  0  0  0
 30 27  1  0  0  0  0
 30 31  1  0  0  0  0
 31 32  1  0  0  0  0
 33 31  2  0  0  0  0
 34 33  1  0  0  0  0
 35 34  1  0  0  0  0
 36 35  2  0  0  0  0
 37 36  1  0  0  0  0
 38 39  2  0  0  0  0
 38 36  1  0  0  0  0
 39 40  1  0  0  0  0
 40 41  1  0  0  0  0
 40 34  2  0  0  0  0
 41 30  2  0  0  0  0
M  END
>  <minimizedAffinity>
-7.1913538

$$$$

 OpenBabel03252507393D

 41 46  0  0  0  0  0  0  0  0999 V2000
   38.9440   34.0850   40.0770 C   0  0  0  0  0  0  0  0  0  0  0  0
   39.9420   33.2750   39.4760 C   0  0  0  0  0  0  0  0  0  0  0  0
   41.1260   33.8910   39.1190 C   0  0  0  0  0  0  0  0  0  0  0  0
   41.2760   35.2100   39.3520 N   0  0  0  0  0  0  0  0  0  0  0  0
   40.3070   35.9640   39.9270 C   0  0  0  0  0  0  0  0  0  0  0  0
   39.1570   35.3950   40.2800 N   0  0  0  0  0  0  0  0  0  0  0  0
   39.8300   32.2180   39.2870 H   0  0  0  0  0  0  0  0  0  0  0  0
   40.4800   37.0140   40.0890 H   0  0  0  0  0  0  0  0  0  0  0  0
   42.2480   31.8010   38.5720 C   0  0  0  0  0  0  0  0  0  0  0  0
   42.2470   33.1910   38.4930 C   0  0  0  0  0  0  0  0  0  0  0  0
   43.2740   33.8020   37.8480 C   0  0  0  0  0  0  0  0  0  0  0  0
   44.3220   33.1210   37.2640 C   0  0  0  0  0  0  0  0  0  0  0  0
   45.4180   33.5170   36.5870 N   0  0  0  0  0  0  0  0  0  0  0  0
   46.1190   32.3710   36.2370 C   0  0  0  0  0  0  0  0  0  0  0  0
   45.4290   31.3030   36.7090 N   0  0  0  0  0  0  0  0  0  0  0  0
   44.3340   31.7470   37.3350 C   0  0  0  0  0  0  0  0  0  0  0  0
   43.3080   31.0960   37.9820 C   0  0  0  0  0  0  0  0  0  0  0  0
   41.4750   31.2310   39.0650 H   0  0  0  0  0  0  0  0  0  0  0  0
   43.2390   34.8890   37.8060 H   0  0  0  0  0  0  0  0  0  0  0  0
   45.6690   34.5100   36.3810 H   0  0  0  0  0  0  0  0  0  0  0  0
   47.0530   32.3610   35.6810 H   0  0  0  0  0  0  0  0  0  0  0  0
   43.2910   30.0300   38.0540 H   0  0  0  0  0  0  0  0  0  0  0  0
   37.7480   33.4570   40.4350 O   0  0  0  0  0  0  0  0  0  0  0  0
   37.6080   32.0840   40.2580 C   0  0  0  0  0  0  0  0  0  0  0  0
   36.8590   32.0490   39.1390 C   0  0  0  0  0  0  0  0  0  0  0  0
   36.6570   30.1660   38.8740 S   0  0  0  0  0  0  0  0  0  0  0  0
   37.6900   29.8640   40.4240 C   0  0  0  0  0  0  0  0  0  0  0  0
   37.9060   30.8980   40.7280 N   0  0  0  0  0  0  0  0  0  0  0  0
   36.2230   32.4500   38.1820 H   0  0  0  0  0  0  0  0  0  0  0  0
   37.9270   28.4610   40.8060 C   0  0  0  0  0  0  0  0  0  0  0  0
   37.3330   27.3980   40.1820 C   0  0  0  0  0  0  0  0  0  0  0  0
   36.6500   27.5720   39.3620 H   0  0  0  0  0  0  0  0  0  0  0  0
   37.6540   26.1200   40.6530 C   0  0  0  0  0  3  0  0  0  0  0  0
   38.5450   25.9560   41.7170 C   0  0  0  0  0  0  0  0  0  0  0  0
   38.8220   24.7070   42.1340 N   0  0  0  0  0  0  0  0  0  0  0  0
   39.6720   24.4680   43.1560 C   0  0  0  0  0  0  0  0  0  0  0  0
   39.8660   23.4460   43.4590 H   0  0  0  0  0  0  0  0  0  0  0  0
   40.2680   25.5710   43.7790 C   0  0  0  0  0  3  0  0  0  0  0  0
   39.9890   26.8630   43.3570 C   0  0  0  0  0  3  0  0  0  0  0  0
   39.1140   27.0640   42.3090 C   0  0  0  0  0  0  0  0  0  0  0  0
   38.8100   28.3540   41.8560 C   0  0  0  0  0  3  0  0  0  0  0  0
  1  6  1  0  0  0  0
  1 23  1  0  0  0  0
  2  1  2  0  0  0  0
  3  4  2  0  0  0  0
  3  2  1  0  0  0  0
  4  5  1  0  0  0  0
  5  8  1  0  0  0  0
  5  6  2  0  0  0  0
  7  2  1  0  0  0  0
  9 18  1  0  0  0  0
 10  9  1  0  0  0  0
 10  3  1  0  0  0  0
 11 10  2  0  0  0  0
 12 16  2  0  0  0  0
 12 11  1  0  0  0  0
 13 12  1  0  0  0  0
 14 13  1  0  0  0  0
 14 15  2  0  0  0  0
 15 16  1  0  0  0  0
 16 17  1  0  0  0  0
 17 22  1  0  0  0  0
 17  9  2  0  0  0  0
 19 11  1  0  0  0  0
 20 13  1  0  0  0  0
 21 14  1  0  0  0  0
 24 23  1  0  0  0  0
 24 28  1  0  0  0  0
 25 24  2  0  0  0  0
 26 25  1  0  0  0  0
 26 27  1  0  0  0  0
 27 28  2  0  0  0  0
 27 30  1  0  0  0  0
 29 25  1  0  0  0  0
 30 41  1  0  0  0  0
 31 33  1  0  0  0  0
 31 30  2  0  0  0  0
 32 31  1  0  0  0  0
 33 34  2  0  0  0  0
 34 35  1  0  0  0  0
 34 40  1  0  0  0  0
 35 36  2  0  0  0  0
 36 37  1  0  0  0  0
 36 38  1  0  0  0  0
 39 38  2  0  0  0  0
 40 39  1  0  0  0  0
 41 40  2  0  0  0  0
M  END
>  <minimizedAffinity>
-7.13059998

$$$$
