
 OpenBabel03242518553D

 45 48  0  0  1  0  0  0  0  0999 V2000
   45.7030   31.1210   46.6180 C   0  0  2  0  0  0  0  0  0  0  0  0
   45.7680   30.3390   47.8930 C   0  0  0  0  0  0  0  0  0  0  0  0
   44.9980   29.0860   47.6850 C   0  0  0  0  0  0  0  0  0  0  0  0
   44.2900   28.9730   46.3730 C   0  0  0  0  0  0  0  0  0  0  0  0
   45.2520   29.1600   45.2270 C   0  0  0  0  0  0  0  0  0  0  0  0
   46.1870   30.2470   45.4800 C   0  0  2  0  0  0  0  0  0  0  0  0
   44.6390   31.3180   46.3740 H   0  0  0  0  0  0  0  0  0  0  0  0
   45.2730   31.0060   48.6640 H   0  0  0  0  0  0  0  0  0  0  0  0
   46.7940   30.2170   48.2870 H   0  0  0  0  0  0  0  0  0  0  0  0
   44.1780   29.0550   48.4640 H   0  0  0  0  0  0  0  0  0  0  0  0
   45.5600   28.1410   47.8900 H   0  0  0  0  0  0  0  0  0  0  0  0
   43.4130   29.6380   46.2770 H   0  0  0  0  0  0  0  0  0  0  0  0
   43.8700   27.9380   46.3440 H   0  0  0  0  0  0  0  0  0  0  0  0
   45.6310   28.1760   44.9300 H   0  0  0  0  0  0  0  0  0  0  0  0
   44.5960   29.4690   44.3480 H   0  0  0  0  0  0  0  0  0  0  0  0
   46.3500   30.9000   44.5970 H   0  0  0  0  0  0  0  0  0  0  0  0
   47.4900   29.6230   45.8310 C   0  0  0  0  0  0  0  0  0  0  0  0
   47.4360   28.5300   46.0050 H   0  0  0  0  0  0  0  0  0  0  0  0
   47.8240   30.0810   46.7990 H   0  0  0  0  0  0  0  0  0  0  0  0
   48.5550   29.8900   44.8460 C   0  0  0  0  0  0  0  0  0  0  0  0
   49.7820   29.3040   44.7080 C   0  0  0  0  0  0  0  0  0  0  0  0
   50.0590   28.5600   45.4160 H   0  0  0  0  0  0  0  0  0  0  0  0
   50.6620   29.6500   43.7170 C   0  0  0  0  0  0  0  0  0  0  0  0
   50.3680   30.6220   42.7830 C   0  0  0  0  0  0  0  0  0  0  0  0
   51.2220   30.9600   41.8180 N   0  0  0  0  0  0  0  0  0  0  0  0
   50.8960   31.9070   40.9360 C   0  0  0  0  0  0  0  0  0  0  0  0
   51.5450   32.2410   40.1130 H   0  0  0  0  0  0  0  0  0  0  0  0
   49.6840   32.5710   40.9740 C   0  0  0  0  0  0  0  0  0  0  0  0
   48.8020   32.2210   41.9710 C   0  0  0  0  0  0  0  0  0  0  0  0
   49.1460   31.2540   42.8660 C   0  0  0  0  0  0  0  0  0  0  0  0
   48.2950   30.8710   43.8800 C   0  0  0  0  0  0  0  0  0  0  0  0
   46.3830   32.4350   46.6700 C   0  0  0  0  0  0  0  0  0  0  0  0
   47.3960   32.6490   47.3810 O   0  0  0  0  0  0  0  0  0  0  0  0
   44.4730   35.3690   45.6380 C   0  0  0  0  0  0  0  0  0  0  0  0
   44.7610   35.5090   44.2590 C   0  0  0  0  0  0  0  0  0  0  0  0
   45.6230   34.5750   43.7150 C   0  0  0  0  0  0  0  0  0  0  0  0
   46.0750   33.6550   44.5700 N   0  0  0  0  0  0  0  0  0  0  0  0
   45.8190   33.5130   45.8450 C   0  0  0  0  0  0  0  0  0  0  0  0
   44.9850   34.4080   46.3970 N   0  0  0  0  0  0  0  0  0  0  0  0
   43.7870   36.1030   46.0950 H   0  0  0  0  0  0  0  0  0  0  0  0
   44.3390   36.2950   43.6490 H   0  0  0  0  0  0  0  0  0  0  0  0
   45.9320   34.6900   42.2880 C   0  0  0  0  0  0  0  0  0  0  0  0
   45.9060   33.4530   41.6950 F   0  0  0  0  0  0  0  0  0  0  0  0
   47.1800   35.2180   42.2090 F   0  0  0  0  0  0  0  0  0  0  0  0
   44.9850   35.4640   41.6270 F   0  0  0  0  0  0  0  0  0  0  0  0
  1  7  1  6  0  0  0
  1 32  1  0  0  0  0
  1  2  1  0  0  0  0
  2  9  1  0  0  0  0
  2  8  1  0  0  0  0
  3 11  1  0  0  0  0
  3  2  1  0  0  0  0
  3 10  1  0  0  0  0
  4  3  1  0  0  0  0
  5  6  1  0  0  0  0
  5  4  1  0  0  0  0
  6 16  1  6  0  0  0
  6 17  1  0  0  0  0
  6  1  1  0  0  0  0
 12  4  1  0  0  0  0
 13  4  1  0  0  0  0
 14  5  1  0  0  0  0
 15  5  1  0  0  0  0
 17 18  1  0  0  0  0
 17 19  1  0  0  0  0
 20 17  1  0  0  0  0
 21 20  1  0  0  0  0
 21 22  1  0  0  0  0
 23 21  2  0  0  0  0
 24 30  1  0  0  0  0
 24 23  1  0  0  0  0
 25 24  2  0  0  0  0
 26 28  2  0  0  0  0
 26 25  1  0  0  0  0
 27 26  1  0  0  0  0
 28 29  1  0  0  0  0
 29 30  2  0  0  0  0
 30 31  1  0  0  0  0
 31 20  2  0  0  0  0
 32 33  2  0  0  0  0
 34 40  1  0  0  0  0
 34 39  1  0  0  0  0
 35 34  2  0  0  0  0
 36 35  1  0  0  0  0
 36 37  2  0  0  0  0
 37 38  1  0  0  0  0
 38 39  2  0  0  0  0
 38 32  1  0  0  0  0
 41 35  1  0  0  0  0
 42 36  1  0  0  0  0
 43 42  1  0  0  0  0
 44 42  1  0  0  0  0
 45 42  1  0  0  0  0
M  END
>  <minimizedAffinity>
-5.85773706

>  <minimizedRMSD>
2.26347017

$$$$
