
 OpenBabel03252505443D

 45 49  0  0  1  0  0  0  0  0999 V2000
   36.5080   26.6190   39.5810 C   0  0  0  0  0  0  0  0  0  0  0  0
   37.1960   25.4390   39.4360 C   0  0  0  0  0  0  0  0  0  0  0  0
   37.9150   24.8640   40.4510 C   0  0  0  0  0  0  0  0  0  0  0  0
   37.9390   25.4970   41.6350 N   0  0  0  0  0  0  0  0  0  0  0  0
   37.2660   26.6640   41.7960 C   0  0  0  0  0  0  0  0  0  0  0  0
   36.5630   27.2160   40.7910 N   0  0  0  0  0  0  0  0  0  0  0  0
   37.1810   24.9250   38.4830 H   0  0  0  0  0  0  0  0  0  0  0  0
   38.4500   23.9280   40.3110 H   0  0  0  0  0  0  0  0  0  0  0  0
   36.4810   28.2250   37.6950 C   0  0  1  0  0  0  0  0  0  0  0  0
   35.3000   28.6880   38.6120 C   0  0  0  0  0  0  0  0  0  0  0  0
   35.7470   27.2390   38.4310 C   0  0  2  0  0  0  0  0  0  0  0  0
   37.4590   28.6250   38.0970 H   0  0  0  0  0  0  0  0  0  0  0  0
   34.3590   28.9170   38.0800 H   0  0  0  0  0  0  0  0  0  0  0  0
   35.5410   29.1520   39.5640 H   0  0  0  0  0  0  0  0  0  0  0  0
   35.0070   26.5330   38.0410 H   0  0  0  0  0  0  0  0  0  0  0  0
   36.2780   28.5260   36.2630 C   0  0  0  0  0  0  0  0  0  0  0  0
   35.9030   27.4540   35.4230 C   0  0  0  0  0  0  0  0  0  0  0  0
   35.7030   27.7100   34.0720 C   0  0  0  0  0  0  0  0  0  0  0  0
   35.8800   28.9840   33.6310 N   0  0  0  0  0  0  0  0  0  0  0  0
   36.2360   29.9700   34.4570 C   0  0  0  0  0  0  0  0  0  0  0  0
   36.4260   29.7140   35.7560 N   0  0  0  0  0  0  0  0  0  0  0  0
   35.7830   26.4830   35.8420 H   0  0  0  0  0  0  0  0  0  0  0  0
   35.4120   26.8960   33.4000 H   0  0  0  0  0  0  0  0  0  0  0  0
   36.3740   31.3020   33.7740 C   0  0  0  0  0  0  0  0  0  0  0  0
   35.1450   31.7800   33.3440 F   0  0  0  0  0  0  0  0  0  0  0  0
   37.1440   31.1370   32.6000 F   0  0  0  0  0  0  0  0  0  0  0  0
   37.0540   32.1720   34.5800 F   0  0  0  0  0  0  0  0  0  0  0  0
   37.2800   27.4070   43.0750 C   0  0  0  0  0  0  0  0  0  0  0  0
   37.1510   26.7690   43.9590 H   0  0  0  0  0  0  0  0  0  0  0  0
   36.4250   28.1390   43.0940 H   0  0  0  0  0  0  0  0  0  0  0  0
   38.5250   28.1980   43.2590 C   0  0  0  0  0  0  0  0  0  0  0  0
   38.6460   28.3730   44.3540 H   0  0  0  0  0  0  0  0  0  0  0  0
   39.3800   27.4970   43.0140 H   0  0  0  0  0  0  0  0  0  0  0  0
   38.6390   29.4560   42.5440 C   0  0  0  0  0  0  0  0  0  0  0  0
   39.8700   30.0870   42.7050 C   0  0  0  0  0  0  0  0  0  0  0  0
   40.6840   29.6820   43.3250 H   0  0  0  0  0  0  0  0  0  0  0  0
   40.2160   31.2810   42.1180 C   0  0  0  0  0  3  0  0  0  0  0  0
   39.3220   31.9260   41.3120 C   0  0  0  0  0  0  0  0  0  0  0  0
   39.5670   33.0930   40.6950 N   0  0  0  0  0  0  0  0  0  0  0  0
   38.6490   33.7090   39.8960 C   0  0  0  0  0  0  0  0  0  0  0  0
   38.8630   34.6450   39.4100 H   0  0  0  0  0  0  0  0  0  0  0  0
   37.4280   33.1100   39.7190 C   0  0  0  0  0  3  0  0  0  0  0  0
   37.0920   31.9080   40.3180 C   0  0  0  0  0  3  0  0  0  0  0  0
   38.0880   31.3470   41.1170 C   0  0  0  0  0  0  0  0  0  0  0  0
   37.7830   30.1510   41.7240 C   0  0  0  0  0  3  0  0  0  0  0  0
  1  6  1  0  0  0  0
  2  1  2  0  0  0  0
  2  3  1  0  0  0  0
  3  4  2  0  0  0  0
  4  5  1  0  0  0  0
  5 28  1  0  0  0  0
  6  5  2  0  0  0  0
  7  2  1  0  0  0  0
  8  3  1  0  0  0  0
  9 12  1  1  0  0  0
  9 11  1  0  0  0  0
  9 10  1  0  0  0  0
 10 14  1  0  0  0  0
 11 15  1  6  0  0  0
 11 10  1  0  0  0  0
 11  1  1  0  0  0  0
 13 10  1  0  0  0  0
 16  9  1  0  0  0  0
 17 22  1  0  0  0  0
 17 16  2  0  0  0  0
 18 17  1  0  0  0  0
 19 18  2  0  0  0  0
 19 20  1  0  0  0  0
 20 21  2  0  0  0  0
 21 16  1  0  0  0  0
 23 18  1  0  0  0  0
 24 20  1  0  0  0  0
 24 27  1  0  0  0  0
 25 24  1  0  0  0  0
 26 24  1  0  0  0  0
 28 30  1  0  0  0  0
 28 31  1  0  0  0  0
 28 29  1  0  0  0  0
 31 32  1  0  0  0  0
 33 31  1  0  0  0  0
 34 35  1  0  0  0  0
 34 31  1  0  0  0  0
 35 36  1  0  0  0  0
 37 35  2  0  0  0  0
 38 37  1  0  0  0  0
 39 38  2  0  0  0  0
 40 39  1  0  0  0  0
 41 40  1  0  0  0  0
 42 40  2  0  0  0  0
 42 43  1  0  0  0  0
 43 44  2  0  0  0  0
 44 38  1  0  0  0  0
 44 45  1  0  0  0  0
 45 34  2  0  0  0  0
M  END
>  <minimizedAffinity>
-6.76086283

$$$$

 OpenBabel03252505443D

 45 49  0  0  1  0  0  0  0  0999 V2000
   35.7770   27.6420   38.7350 C   0  0  0  0  0  0  0  0  0  0  0  0
   34.9390   27.4070   37.6730 C   0  0  0  0  0  0  0  0  0  0  0  0
   34.6620   26.1500   37.2040 C   0  0  0  0  0  0  0  0  0  0  0  0
   35.2460   25.1100   37.8220 N   0  0  0  0  0  0  0  0  0  0  0  0
   36.0780   25.3230   38.8730 C   0  0  0  0  0  0  0  0  0  0  0  0
   36.3390   26.5640   39.3240 N   0  0  0  0  0  0  0  0  0  0  0  0
   34.4670   28.2410   37.1700 H   0  0  0  0  0  0  0  0  0  0  0  0
   33.9940   25.9900   36.3620 H   0  0  0  0  0  0  0  0  0  0  0  0
   36.7930   29.1110   40.4520 C   0  0  1  0  0  0  0  0  0  0  0  0
   35.2890   29.5450   40.4140 C   0  0  0  0  0  0  0  0  0  0  0  0
   36.0820   29.0450   39.2100 C   0  0  2  0  0  0  0  0  0  0  0  0
   36.9100   28.1860   41.0920 H   0  0  0  0  0  0  0  0  0  0  0  0
   35.1190   30.6360   40.3940 H   0  0  0  0  0  0  0  0  0  0  0  0
   34.5480   28.8630   40.8220 H   0  0  0  0  0  0  0  0  0  0  0  0
   36.1730   29.7230   38.3560 H   0  0  0  0  0  0  0  0  0  0  0  0
   37.7180   30.1990   40.8320 C   0  0  0  0  0  0  0  0  0  0  0  0
   38.7180   29.8950   41.7820 C   0  0  0  0  0  0  0  0  0  0  0  0
   39.6030   30.8980   42.1560 C   0  0  0  0  0  0  0  0  0  0  0  0
   39.4580   32.1230   41.5840 N   0  0  0  0  0  0  0  0  0  0  0  0
   38.4980   32.3720   40.6900 C   0  0  0  0  0  0  0  0  0  0  0  0
   37.6510   31.3990   40.3370 N   0  0  0  0  0  0  0  0  0  0  0  0
   38.7700   28.9110   42.1850 H   0  0  0  0  0  0  0  0  0  0  0  0
   40.3880   30.6880   42.8900 H   0  0  0  0  0  0  0  0  0  0  0  0
   38.5100   33.7840   40.1760 C   0  0  0  0  0  0  0  0  0  0  0  0
   39.5830   34.0020   39.3240 F   0  0  0  0  0  0  0  0  0  0  0  0
   38.7070   34.6650   41.2620 F   0  0  0  0  0  0  0  0  0  0  0  0
   37.2970   34.0910   39.6250 F   0  0  0  0  0  0  0  0  0  0  0  0
   36.7590   24.2130   39.5730 C   0  0  0  0  0  0  0  0  0  0  0  0
   37.8260   24.1250   39.3300 H   0  0  0  0  0  0  0  0  0  0  0  0
   36.2910   23.2340   39.2710 H   0  0  0  0  0  0  0  0  0  0  0  0
   36.6320   24.3090   41.0510 C   0  0  0  0  0  0  0  0  0  0  0  0
   35.6830   24.8550   41.2670 H   0  0  0  0  0  0  0  0  0  0  0  0
   36.4120   23.2590   41.4150 H   0  0  0  0  0  0  0  0  0  0  0  0
   37.7270   24.9160   41.7850 C   0  0  0  0  0  0  0  0  0  0  0  0
   37.3540   26.0270   42.5380 C   0  0  0  0  0  0  0  0  0  0  0  0
   36.3280   26.4230   42.5710 H   0  0  0  0  0  0  0  0  0  0  0  0
   38.2130   26.7580   43.3240 C   0  0  0  0  0  3  0  0  0  0  0  0
   39.5290   26.4070   43.4020 C   0  0  0  0  0  0  0  0  0  0  0  0
   40.4430   27.0580   44.1400 N   0  0  0  0  0  0  0  0  0  0  0  0
   41.7510   26.6780   44.1940 C   0  0  0  0  0  0  0  0  0  0  0  0
   42.4690   27.2120   44.7920 H   0  0  0  0  0  0  0  0  0  0  0  0
   42.1470   25.5870   43.4630 C   0  0  0  0  0  3  0  0  0  0  0  0
   41.2720   24.8590   42.6750 C   0  0  0  0  0  3  0  0  0  0  0  0
   39.9540   25.3160   42.6780 C   0  0  0  0  0  0  0  0  0  0  0  0
   39.0620   24.6110   41.9040 C   0  0  0  0  0  3  0  0  0  0  0  0
  1 11  1  0  0  0  0
  1  6  1  0  0  0  0
  2  1  2  0  0  0  0
  3  2  1  0  0  0  0
  3  4  2  0  0  0  0
  4  5  1  0  0  0  0
  5  6  2  0  0  0  0
  5 28  1  0  0  0  0
  7  2  1  0  0  0  0
  8  3  1  0  0  0  0
  9 16  1  0  0  0  0
  9 12  1  1  0  0  0
 10  9  1  0  0  0  0
 10 14  1  0  0  0  0
 11 15  1  6  0  0  0
 11 10  1  0  0  0  0
 11  9  1  0  0  0  0
 13 10  1  0  0  0  0
 16 17  1  0  0  0  0
 17 18  2  0  0  0  0
 17 22  1  0  0  0  0
 18 23  1  0  0  0  0
 19 18  1  0  0  0  0
 20 19  2  0  0  0  0
 21 20  1  0  0  0  0
 21 16  2  0  0  0  0
 24 20  1  0  0  0  0
 24 26  1  0  0  0  0
 25 24  1  0  0  0  0
 27 24  1  0  0  0  0
 28 31  1  0  0  0  0
 29 28  1  0  0  0  0
 30 28  1  0  0  0  0
 31 32  1  0  0  0  0
 31 33  1  0  0  0  0
 31 34  1  0  0  0  0
 34 45  2  0  0  0  0
 34 35  1  0  0  0  0
 35 36  1  0  0  0  0
 35 37  2  0  0  0  0
 37 38  1  0  0  0  0
 38 39  1  0  0  0  0
 39 40  2  0  0  0  0
 40 41  1  0  0  0  0
 42 40  1  0  0  0  0
 43 44  1  0  0  0  0
 43 42  2  0  0  0  0
 44 38  2  0  0  0  0
 45 44  1  0  0  0  0
M  END
>  <minimizedAffinity>
-6.72376251

$$$$

 OpenBabel03252505443D

 45 49  0  0  1  0  0  0  0  0999 V2000
   38.4440   32.5920   40.5440 C   0  0  0  0  0  0  0  0  0  0  0  0
   37.9240   33.8050   40.1650 C   0  0  0  0  0  0  0  0  0  0  0  0
   38.6910   34.9280   40.0020 C   0  0  0  0  0  0  0  0  0  0  0  0
   40.0100   34.8220   40.2300 N   0  0  0  0  0  0  0  0  0  0  0  0
   40.5420   33.6310   40.6060 C   0  0  0  0  0  0  0  0  0  0  0  0
   39.7760   32.5350   40.7600 N   0  0  0  0  0  0  0  0  0  0  0  0
   36.8610   33.8970   39.9810 H   0  0  0  0  0  0  0  0  0  0  0  0
   38.2550   35.8770   39.7000 H   0  0  0  0  0  0  0  0  0  0  0  0
   38.2690   30.1310   40.7780 C   0  0  1  0  0  0  0  0  0  0  0  0
   37.3820   30.4640   39.5310 C   0  0  0  0  0  0  0  0  0  0  0  0
   37.5640   31.3780   40.7400 C   0  0  2  0  0  0  0  0  0  0  0  0
   39.3570   30.0830   40.4730 H   0  0  0  0  0  0  0  0  0  0  0  0
   36.3970   29.9650   39.5130 H   0  0  0  0  0  0  0  0  0  0  0  0
   37.8800   30.7710   38.6150 H   0  0  0  0  0  0  0  0  0  0  0  0
   36.6640   31.6480   41.3010 H   0  0  0  0  0  0  0  0  0  0  0  0
   37.8240   28.9370   41.5250 C   0  0  0  0  0  0  0  0  0  0  0  0
   37.5280   29.1040   42.8960 C   0  0  0  0  0  0  0  0  0  0  0  0
   37.1050   27.9980   43.6210 C   0  0  0  0  0  0  0  0  0  0  0  0
   36.9990   26.8100   42.9700 N   0  0  0  0  0  0  0  0  0  0  0  0
   37.2880   26.6920   41.6720 C   0  0  0  0  0  0  0  0  0  0  0  0
   37.6950   27.7630   40.9820 N   0  0  0  0  0  0  0  0  0  0  0  0
   37.6350   30.0670   43.3370 H   0  0  0  0  0  0  0  0  0  0  0  0
   36.8700   28.1010   44.6860 H   0  0  0  0  0  0  0  0  0  0  0  0
   37.1010   25.2980   41.1410 C   0  0  0  0  0  0  0  0  0  0  0  0
   36.2390   25.2830   40.0540 F   0  0  0  0  0  0  0  0  0  0  0  0
   36.4710   24.5120   42.1310 F   0  0  0  0  0  0  0  0  0  0  0  0
   38.3170   24.7270   40.8890 F   0  0  0  0  0  0  0  0  0  0  0  0
   41.9840   33.4700   40.8870 C   0  0  0  0  0  0  0  0  0  0  0  0
   42.3120   32.4230   40.9360 H   0  0  0  0  0  0  0  0  0  0  0  0
   42.2250   33.9170   41.8920 H   0  0  0  0  0  0  0  0  0  0  0  0
   42.8380   34.1710   39.8920 C   0  0  0  0  0  0  0  0  0  0  0  0
   42.2320   35.0040   39.4640 H   0  0  0  0  0  0  0  0  0  0  0  0
   43.6340   34.7120   40.4890 H   0  0  0  0  0  0  0  0  0  0  0  0
   43.4140   33.3800   38.8190 C   0  0  0  0  0  0  0  0  0  0  0  0
   44.7420   33.6910   38.5400 C   0  0  0  0  0  0  0  0  0  0  0  0
   45.3090   34.4720   39.0700 H   0  0  0  0  0  0  0  0  0  0  0  0
   45.5010   33.0700   37.5760 C   0  0  0  0  0  3  0  0  0  0  0  0
   44.9560   32.0730   36.8190 C   0  0  0  0  0  0  0  0  0  0  0  0
   45.6160   31.4090   35.8560 N   0  0  0  0  0  0  0  0  0  0  0  0
   45.0380   30.4180   35.1190 C   0  0  0  0  0  0  0  0  0  0  0  0
   45.5830   29.8960   34.3510 H   0  0  0  0  0  0  0  0  0  0  0  0
   43.7310   30.0890   35.3730 C   0  0  0  0  0  3  0  0  0  0  0  0
   42.9770   30.7230   36.3460 C   0  0  0  0  0  3  0  0  0  0  0  0
   43.6460   31.7240   37.0520 C   0  0  0  0  0  0  0  0  0  0  0  0
   42.9220   32.3710   38.0270 C   0  0  0  0  0  3  0  0  0  0  0  0
  1 11  1  0  0  0  0
  1  6  1  0  0  0  0
  2  1  2  0  0  0  0
  3  2  1  0  0  0  0
  3  4  2  0  0  0  0
  4  5  1  0  0  0  0
  5  6  2  0  0  0  0
  5 28  1  0  0  0  0
  7  2  1  0  0  0  0
  8  3  1  0  0  0  0
  9 12  1  6  0  0  0
  9 16  1  0  0  0  0
 10 11  1  0  0  0  0
 10  9  1  0  0  0  0
 11  9  1  0  0  0  0
 11 15  1  1  0  0  0
 13 10  1  0  0  0  0
 14 10  1  0  0  0  0
 16 17  1  0  0  0  0
 17 22  1  0  0  0  0
 17 18  2  0  0  0  0
 18 23  1  0  0  0  0
 19 18  1  0  0  0  0
 20 19  2  0  0  0  0
 21 16  2  0  0  0  0
 21 20  1  0  0  0  0
 24 20  1  0  0  0  0
 24 26  1  0  0  0  0
 25 24  1  0  0  0  0
 27 24  1  0  0  0  0
 28 29  1  0  0  0  0
 28 30  1  0  0  0  0
 31 33  1  0  0  0  0
 31 28  1  0  0  0  0
 32 31  1  0  0  0  0
 34 31  1  0  0  0  0
 35 34  1  0  0  0  0
 35 36  1  0  0  0  0
 37 35  2  0  0  0  0
 38 44  1  0  0  0  0
 38 37  1  0  0  0  0
 39 38  2  0  0  0  0
 40 42  2  0  0  0  0
 40 39  1  0  0  0  0
 41 40  1  0  0  0  0
 42 43  1  0  0  0  0
 43 44  2  0  0  0  0
 44 45  1  0  0  0  0
 45 34  2  0  0  0  0
M  END
>  <minimizedAffinity>
-6.72221422

$$$$

 OpenBabel03252505443D

 45 49  0  0  1  0  0  0  0  0999 V2000
   40.5120   31.1610   41.4080 C   0  0  0  0  0  0  0  0  0  0  0  0
   41.6160   31.2480   40.5960 C   0  0  0  0  0  0  0  0  0  0  0  0
   41.8710   32.3290   39.7940 C   0  0  0  0  0  0  0  0  0  0  0  0
   40.9890   33.3420   39.8140 N   0  0  0  0  0  0  0  0  0  0  0  0
   39.8910   33.2730   40.6090 C   0  0  0  0  0  0  0  0  0  0  0  0
   39.6550   32.2040   41.3930 N   0  0  0  0  0  0  0  0  0  0  0  0
   42.3300   30.4340   40.5750 H   0  0  0  0  0  0  0  0  0  0  0  0
   42.7530   32.3750   39.1620 H   0  0  0  0  0  0  0  0  0  0  0  0
   39.3190   29.0080   41.6920 C   0  0  1  0  0  0  0  0  0  0  0  0
   38.8800   29.8580   42.9310 C   0  0  0  0  0  0  0  0  0  0  0  0
   40.2480   29.9390   42.2600 C   0  0  2  0  0  0  0  0  0  0  0  0
   38.7030   29.2960   40.7890 H   0  0  0  0  0  0  0  0  0  0  0  0
   38.9050   29.3230   43.8970 H   0  0  0  0  0  0  0  0  0  0  0  0
   38.2100   30.6980   42.7650 H   0  0  0  0  0  0  0  0  0  0  0  0
   41.1220   29.7130   42.8780 H   0  0  0  0  0  0  0  0  0  0  0  0
   39.3320   27.5520   41.9430 C   0  0  0  0  0  0  0  0  0  0  0  0
   40.5090   27.0000   42.4960 C   0  0  0  0  0  0  0  0  0  0  0  0
   40.5470   25.6340   42.7440 C   0  0  0  0  0  0  0  0  0  0  0  0
   39.4450   24.8990   42.4390 N   0  0  0  0  0  0  0  0  0  0  0  0
   38.3510   25.4570   41.9170 C   0  0  0  0  0  0  0  0  0  0  0  0
   38.3240   26.7740   41.6820 N   0  0  0  0  0  0  0  0  0  0  0  0
   41.3330   27.6400   42.7090 H   0  0  0  0  0  0  0  0  0  0  0  0
   41.4480   25.1820   43.1720 H   0  0  0  0  0  0  0  0  0  0  0  0
   37.2430   24.4750   41.6570 C   0  0  0  0  0  0  0  0  0  0  0  0
   37.7390   23.1960   41.4550 F   0  0  0  0  0  0  0  0  0  0  0  0
   36.5970   24.8230   40.4500 F   0  0  0  0  0  0  0  0  0  0  0  0
   36.3060   24.5550   42.6500 F   0  0  0  0  0  0  0  0  0  0  0  0
   38.8830   34.3530   40.6500 C   0  0  0  0  0  0  0  0  0  0  0  0
   39.2960   35.3520   40.4560 H   0  0  0  0  0  0  0  0  0  0  0  0
   38.4230   34.4020   41.6770 H   0  0  0  0  0  0  0  0  0  0  0  0
   37.7680   34.1260   39.6930 C   0  0  0  0  0  0  0  0  0  0  0  0
   36.9000   34.7310   40.0470 H   0  0  0  0  0  0  0  0  0  0  0  0
   38.0690   34.6460   38.7330 H   0  0  0  0  0  0  0  0  0  0  0  0
   37.3490   32.7570   39.4560 C   0  0  0  0  0  0  0  0  0  0  0  0
   37.6480   32.2890   38.1790 C   0  0  0  0  0  0  0  0  0  0  0  0
   38.1450   32.8980   37.4080 H   0  0  0  0  0  0  0  0  0  0  0  0
   37.3600   31.0230   37.7260 C   0  0  0  0  0  3  0  0  0  0  0  0
   36.7410   30.1300   38.5520 C   0  0  0  0  0  0  0  0  0  0  0  0
   36.4190   28.8740   38.2020 N   0  0  0  0  0  0  0  0  0  0  0  0
   35.8000   28.0090   39.0550 C   0  0  0  0  0  0  0  0  0  0  0  0
   35.5500   27.0050   38.7570 H   0  0  0  0  0  0  0  0  0  0  0  0
   35.4940   28.4420   40.3200 C   0  0  0  0  0  3  0  0  0  0  0  0
   35.7890   29.7200   40.7630 C   0  0  0  0  0  3  0  0  0  0  0  0
   36.4220   30.5390   39.8270 C   0  0  0  0  0  0  0  0  0  0  0  0
   36.7280   31.8150   40.2400 C   0  0  0  0  0  3  0  0  0  0  0  0
  1 11  1  0  0  0  0
  2  1  2  0  0  0  0
  3  4  2  0  0  0  0
  3  2  1  0  0  0  0
  4  5  1  0  0  0  0
  5 28  1  0  0  0  0
  5  6  2  0  0  0  0
  6  1  1  0  0  0  0
  7  2  1  0  0  0  0
  8  3  1  0  0  0  0
  9 12  1  6  0  0  0
  9 16  1  0  0  0  0
  9 11  1  0  0  0  0
  9 10  1  0  0  0  0
 10 13  1  0  0  0  0
 11 15  1  1  0  0  0
 11 10  1  0  0  0  0
 14 10  1  0  0  0  0
 16 17  1  0  0  0  0
 17 22  1  0  0  0  0
 17 18  2  0  0  0  0
 18 23  1  0  0  0  0
 19 18  1  0  0  0  0
 20 19  2  0  0  0  0
 21 20  1  0  0  0  0
 21 16  2  0  0  0  0
 24 20  1  0  0  0  0
 24 27  1  0  0  0  0
 25 24  1  0  0  0  0
 26 24  1  0  0  0  0
 28 30  1  0  0  0  0
 29 28  1  0  0  0  0
 31 32  1  0  0  0  0
 31 28  1  0  0  0  0
 33 31  1  0  0  0  0
 34 31  1  0  0  0  0
 34 45  1  0  0  0  0
 35 34  2  0  0  0  0
 36 35  1  0  0  0  0
 37 35  1  0  0  0  0
 37 38  2  0  0  0  0
 38 44  1  0  0  0  0
 39 38  1  0  0  0  0
 39 40  2  0  0  0  0
 40 42  1  0  0  0  0
 41 40  1  0  0  0  0
 42 43  2  0  0  0  0
 44 45  2  0  0  0  0
 44 43  1  0  0  0  0
M  END
>  <minimizedAffinity>
-6.71620798

$$$$

 OpenBabel03252505443D

 45 49  0  0  1  0  0  0  0  0999 V2000
   40.7500   28.1970   42.2960 C   0  0  0  0  0  0  0  0  0  0  0  0
   41.4040   27.1150   42.8330 C   0  0  0  0  0  0  0  0  0  0  0  0
   40.8120   26.2450   43.7100 C   0  0  0  0  0  0  0  0  0  0  0  0
   39.5330   26.4750   44.0510 N   0  0  0  0  0  0  0  0  0  0  0  0
   38.8720   27.5400   43.5310 C   0  0  0  0  0  0  0  0  0  0  0  0
   39.4660   28.3860   42.6690 N   0  0  0  0  0  0  0  0  0  0  0  0
   42.4350   26.9250   42.5630 H   0  0  0  0  0  0  0  0  0  0  0  0
   41.3500   25.3950   44.1210 H   0  0  0  0  0  0  0  0  0  0  0  0
   40.7290   29.4100   40.1360 C   0  0  1  0  0  0  0  0  0  0  0  0
   42.0350   28.5480   40.0810 C   0  0  0  0  0  0  0  0  0  0  0  0
   41.4430   29.1530   41.3510 C   0  0  2  0  0  0  0  0  0  0  0  0
   39.8370   28.7750   39.8540 H   0  0  0  0  0  0  0  0  0  0  0  0
   42.9330   29.0850   39.7270 H   0  0  0  0  0  0  0  0  0  0  0  0
   41.9350   27.4730   39.9670 H   0  0  0  0  0  0  0  0  0  0  0  0
   42.0730   29.8510   41.9120 H   0  0  0  0  0  0  0  0  0  0  0  0
   40.8110   30.6670   39.3640 C   0  0  0  0  0  0  0  0  0  0  0  0
   40.8280   30.5620   37.9560 C   0  0  0  0  0  0  0  0  0  0  0  0
   40.9020   31.7300   37.2060 C   0  0  0  0  0  0  0  0  0  0  0  0
   40.9550   32.9140   37.8710 N   0  0  0  0  0  0  0  0  0  0  0  0
   40.9370   32.9710   39.2050 C   0  0  0  0  0  0  0  0  0  0  0  0
   40.8660   31.8420   39.9190 N   0  0  0  0  0  0  0  0  0  0  0  0
   40.7830   29.5990   37.5060 H   0  0  0  0  0  0  0  0  0  0  0  0
   40.9170   31.6750   36.1130 H   0  0  0  0  0  0  0  0  0  0  0  0
   40.9990   34.3730   39.7450 C   0  0  0  0  0  0  0  0  0  0  0  0
   41.1850   34.3780   41.1190 F   0  0  0  0  0  0  0  0  0  0  0  0
   39.7500   35.0000   39.5320 F   0  0  0  0  0  0  0  0  0  0  0  0
   41.9330   35.0980   39.0580 F   0  0  0  0  0  0  0  0  0  0  0  0
   37.4710   27.8450   43.8910 C   0  0  0  0  0  0  0  0  0  0  0  0
   37.3320   28.8460   44.3190 H   0  0  0  0  0  0  0  0  0  0  0  0
   37.1180   27.1210   44.6770 H   0  0  0  0  0  0  0  0  0  0  0  0
   36.5450   27.7090   42.7360 C   0  0  0  0  0  0  0  0  0  0  0  0
   36.6050   26.6510   42.3870 H   0  0  0  0  0  0  0  0  0  0  0  0
   35.4980   27.7790   43.1650 H   0  0  0  0  0  0  0  0  0  0  0  0
   36.7270   28.6100   41.6130 C   0  0  0  0  0  0  0  0  0  0  0  0
   36.7300   27.9730   40.3740 C   0  0  0  0  0  0  0  0  0  0  0  0
   36.6170   26.8860   40.2490 H   0  0  0  0  0  0  0  0  0  0  0  0
   36.8750   28.6170   39.1680 C   0  0  0  0  0  3  0  0  0  0  0  0
   37.0280   29.9740   39.1360 C   0  0  0  0  0  0  0  0  0  0  0  0
   37.1760   30.6910   38.0100 N   0  0  0  0  0  0  0  0  0  0  0  0
   37.3260   32.0460   38.0160 C   0  0  0  0  0  0  0  0  0  0  0  0
   37.4440   32.6040   37.1030 H   0  0  0  0  0  0  0  0  0  0  0  0
   37.3260   32.7000   39.2220 C   0  0  0  0  0  3  0  0  0  0  0  0
   37.1800   32.0390   40.4300 C   0  0  0  0  0  3  0  0  0  0  0  0
   37.0320   30.6550   40.3320 C   0  0  0  0  0  0  0  0  0  0  0  0
   36.8840   29.9720   41.5160 C   0  0  0  0  0  3  0  0  0  0  0  0
  1  6  2  0  0  0  0
  1  2  1  0  0  0  0
  2  3  2  0  0  0  0
  3  4  1  0  0  0  0
  3  8  1  0  0  0  0
  5 28  1  0  0  0  0
  5  4  2  0  0  0  0
  6  5  1  0  0  0  0
  7  2  1  0  0  0  0
  9 12  1  6  0  0  0
  9 11  1  0  0  0  0
 10  9  1  0  0  0  0
 10 11  1  0  0  0  0
 11 15  1  1  0  0  0
 11  1  1  0  0  0  0
 13 10  1  0  0  0  0
 14 10  1  0  0  0  0
 16 21  1  0  0  0  0
 16  9  1  0  0  0  0
 17 16  2  0  0  0  0
 18 19  2  0  0  0  0
 18 17  1  0  0  0  0
 19 20  1  0  0  0  0
 20 24  1  0  0  0  0
 20 21  2  0  0  0  0
 22 17  1  0  0  0  0
 23 18  1  0  0  0  0
 24 25  1  0  0  0  0
 26 24  1  0  0  0  0
 27 24  1  0  0  0  0
 28 29  1  0  0  0  0
 28 30  1  0  0  0  0
 31 33  1  0  0  0  0
 31 28  1  0  0  0  0
 32 31  1  0  0  0  0
 34 31  1  0  0  0  0
 35 34  2  0  0  0  0
 36 35  1  0  0  0  0
 37 35  1  0  0  0  0
 38 37  2  0  0  0  0
 38 44  1  0  0  0  0
 39 40  2  0  0  0  0
 39 38  1  0  0  0  0
 40 42  1  0  0  0  0
 41 40  1  0  0  0  0
 42 43  2  0  0  0  0
 44 43  1  0  0  0  0
 44 45  2  0  0  0  0
 45 34  1  0  0  0  0
M  END
>  <minimizedAffinity>
-6.43642473

$$$$

 OpenBabel03252505443D

 45 49  0  0  1  0  0  0  0  0999 V2000
   37.5490   31.6360   39.2070 C   0  0  0  0  0  0  0  0  0  0  0  0
   37.3900   32.9960   39.3070 C   0  0  0  0  0  0  0  0  0  0  0  0
   38.0640   33.7620   40.2210 C   0  0  0  0  0  0  0  0  0  0  0  0
   38.9160   33.1380   41.0510 N   0  0  0  0  0  0  0  0  0  0  0  0
   39.0850   31.7940   40.9680 C   0  0  0  0  0  0  0  0  0  0  0  0
   38.4160   31.0540   40.0640 N   0  0  0  0  0  0  0  0  0  0  0  0
   36.7040   33.5040   38.6400 H   0  0  0  0  0  0  0  0  0  0  0  0
   37.9220   34.8380   40.2790 H   0  0  0  0  0  0  0  0  0  0  0  0
   36.9450   29.4010   38.3250 C   0  0  1  0  0  0  0  0  0  0  0  0
   37.5740   30.1420   37.0980 C   0  0  0  0  0  0  0  0  0  0  0  0
   36.7670   30.8170   38.2040 C   0  0  2  0  0  0  0  0  0  0  0  0
   37.7650   28.9830   38.9830 H   0  0  0  0  0  0  0  0  0  0  0  0
   37.0100   30.0420   36.1530 H   0  0  0  0  0  0  0  0  0  0  0  0
   38.6450   30.3240   37.1020 H   0  0  0  0  0  0  0  0  0  0  0  0
   35.8590   31.3490   37.9060 H   0  0  0  0  0  0  0  0  0  0  0  0
   35.9300   28.3930   37.9560 C   0  0  0  0  0  0  0  0  0  0  0  0
   34.7310   28.8640   37.3750 C   0  0  0  0  0  0  0  0  0  0  0  0
   33.7610   27.9370   37.0170 C   0  0  0  0  0  0  0  0  0  0  0  0
   34.0180   26.6220   37.2460 N   0  0  0  0  0  0  0  0  0  0  0  0
   35.1640   26.2160   37.7980 C   0  0  0  0  0  0  0  0  0  0  0  0
   36.0930   27.1160   38.1400 N   0  0  0  0  0  0  0  0  0  0  0  0
   34.6020   29.9090   37.2270 H   0  0  0  0  0  0  0  0  0  0  0  0
   32.8230   28.2760   36.5650 H   0  0  0  0  0  0  0  0  0  0  0  0
   35.2550   24.7250   37.9620 C   0  0  0  0  0  0  0  0  0  0  0  0
   35.8360   24.3840   39.1740 F   0  0  0  0  0  0  0  0  0  0  0  0
   36.1210   24.2080   36.9720 F   0  0  0  0  0  0  0  0  0  0  0  0
   34.0280   24.1560   37.7570 F   0  0  0  0  0  0  0  0  0  0  0  0
   39.9950   31.0610   41.8730 C   0  0  0  0  0  0  0  0  0  0  0  0
   40.7930   31.6830   42.2980 H   0  0  0  0  0  0  0  0  0  0  0  0
   40.5130   30.2400   41.3020 H   0  0  0  0  0  0  0  0  0  0  0  0
   39.2740   30.4100   42.9990 C   0  0  0  0  0  0  0  0  0  0  0  0
   39.9350   30.4750   43.8960 H   0  0  0  0  0  0  0  0  0  0  0  0
   38.4160   31.1000   43.2610 H   0  0  0  0  0  0  0  0  0  0  0  0
   38.8280   29.0410   42.8140 C   0  0  0  0  0  0  0  0  0  0  0  0
   37.4430   28.8980   42.7870 C   0  0  0  0  0  0  0  0  0  0  0  0
   36.7420   29.7390   42.9050 H   0  0  0  0  0  0  0  0  0  0  0  0
   36.7870   27.7030   42.6130 C   0  0  0  0  0  3  0  0  0  0  0  0
   37.5030   26.5520   42.4490 C   0  0  0  0  0  0  0  0  0  0  0  0
   36.9530   25.3390   42.2730 N   0  0  0  0  0  0  0  0  0  0  0  0
   37.7010   24.2100   42.1140 C   0  0  0  0  0  0  0  0  0  0  0  0
   37.2430   23.2460   41.9730 H   0  0  0  0  0  0  0  0  0  0  0  0
   39.0680   24.3200   42.1360 C   0  0  0  0  0  3  0  0  0  0  0  0
   39.7160   25.5310   42.3130 C   0  0  0  0  0  3  0  0  0  0  0  0
   38.8760   26.6340   42.4680 C   0  0  0  0  0  0  0  0  0  0  0  0
   39.4930   27.8500   42.6450 C   0  0  0  0  0  3  0  0  0  0  0  0
  1  2  2  0  0  0  0
  1  6  1  0  0  0  0
  2  3  1  0  0  0  0
  3  8  1  0  0  0  0
  3  4  2  0  0  0  0
  5  4  1  0  0  0  0
  5 28  1  0  0  0  0
  6  5  2  0  0  0  0
  7  2  1  0  0  0  0
  9 12  1  1  0  0  0
 10 14  1  0  0  0  0
 10 11  1  0  0  0  0
 10  9  1  0  0  0  0
 11 15  1  6  0  0  0
 11  9  1  0  0  0  0
 11  1  1  0  0  0  0
 13 10  1  0  0  0  0
 16 21  1  0  0  0  0
 16  9  1  0  0  0  0
 17 16  2  0  0  0  0
 18 19  2  0  0  0  0
 18 17  1  0  0  0  0
 19 20  1  0  0  0  0
 20 24  1  0  0  0  0
 20 21  2  0  0  0  0
 22 17  1  0  0  0  0
 23 18  1  0  0  0  0
 24 25  1  0  0  0  0
 26 24  1  0  0  0  0
 27 24  1  0  0  0  0
 28 29  1  0  0  0  0
 28 31  1  0  0  0  0
 30 28  1  0  0  0  0
 31 33  1  0  0  0  0
 31 32  1  0  0  0  0
 34 31  1  0  0  0  0
 35 34  1  0  0  0  0
 35 36  1  0  0  0  0
 37 35  2  0  0  0  0
 38 44  1  0  0  0  0
 38 37  1  0  0  0  0
 39 38  2  0  0  0  0
 40 42  2  0  0  0  0
 40 39  1  0  0  0  0
 41 40  1  0  0  0  0
 42 43  1  0  0  0  0
 43 44  2  0  0  0  0
 44 45  1  0  0  0  0
 45 34  2  0  0  0  0
M  END
>  <minimizedAffinity>
-6.41697788

$$$$

 OpenBabel03252505443D

 45 49  0  0  1  0  0  0  0  0999 V2000
   34.4660   28.5970   37.3930 C   0  0  0  0  0  0  0  0  0  0  0  0
   34.8160   27.2730   37.4840 C   0  0  0  0  0  0  0  0  0  0  0  0
   35.8110   26.8180   38.3090 C   0  0  0  0  0  0  0  0  0  0  0  0
   36.4650   27.7230   39.0560 N   0  0  0  0  0  0  0  0  0  0  0  0
   36.1330   29.0370   38.9780 C   0  0  0  0  0  0  0  0  0  0  0  0
   35.1520   29.4680   38.1640 N   0  0  0  0  0  0  0  0  0  0  0  0
   34.2920   26.5390   36.8850 H   0  0  0  0  0  0  0  0  0  0  0  0
   36.0680   25.7640   38.3650 H   0  0  0  0  0  0  0  0  0  0  0  0
   32.1320   29.3690   37.0860 C   0  0  1  0  0  0  0  0  0  0  0  0
   32.2360   28.0920   36.1870 C   0  0  0  0  0  0  0  0  0  0  0  0
   33.3800   29.0680   36.4510 C   0  0  2  0  0  0  0  0  0  0  0  0
   31.9520   29.0680   38.1620 H   0  0  0  0  0  0  0  0  0  0  0  0
   31.8060   28.1970   35.1750 H   0  0  0  0  0  0  0  0  0  0  0  0
   32.3050   27.1240   36.6760 H   0  0  0  0  0  0  0  0  0  0  0  0
   33.8210   29.5670   35.5830 H   0  0  0  0  0  0  0  0  0  0  0  0
   31.1590   30.3670   36.5950 C   0  0  0  0  0  0  0  0  0  0  0  0
   30.1640   30.8010   37.4980 C   0  0  0  0  0  0  0  0  0  0  0  0
   29.2390   31.7410   37.0620 C   0  0  0  0  0  0  0  0  0  0  0  0
   29.3420   32.1930   35.7850 N   0  0  0  0  0  0  0  0  0  0  0  0
   30.2970   31.7580   34.9600 C   0  0  0  0  0  0  0  0  0  0  0  0
   31.1830   30.8520   35.3890 N   0  0  0  0  0  0  0  0  0  0  0  0
   30.1480   30.4010   38.4840 H   0  0  0  0  0  0  0  0  0  0  0  0
   28.4580   32.0940   37.7440 H   0  0  0  0  0  0  0  0  0  0  0  0
   30.2400   32.3840   33.5950 C   0  0  0  0  0  0  0  0  0  0  0  0
   31.3230   33.2240   33.3790 F   0  0  0  0  0  0  0  0  0  0  0  0
   29.1000   33.2140   33.5190 F   0  0  0  0  0  0  0  0  0  0  0  0
   30.0940   31.4140   32.6410 F   0  0  0  0  0  0  0  0  0  0  0  0
   36.8380   30.0710   39.7640 C   0  0  0  0  0  0  0  0  0  0  0  0
   37.8230   29.7550   40.1300 H   0  0  0  0  0  0  0  0  0  0  0  0
   36.2340   30.3250   40.6800 H   0  0  0  0  0  0  0  0  0  0  0  0
   37.0170   31.3380   39.0060 C   0  0  0  0  0  0  0  0  0  0  0  0
   37.1000   31.0680   37.9270 H   0  0  0  0  0  0  0  0  0  0  0  0
   36.0230   31.8780   39.0610 H   0  0  0  0  0  0  0  0  0  0  0  0
   38.1200   32.2020   39.3840 C   0  0  0  0  0  0  0  0  0  0  0  0
   37.7220   33.4390   39.8830 C   0  0  0  0  0  0  0  0  0  0  0  0
   36.6700   33.7480   39.9760 H   0  0  0  0  0  0  0  0  0  0  0  0
   38.5850   34.4180   40.3160 C   0  0  0  0  0  3  0  0  0  0  0  0
   39.9330   34.2040   40.2730 C   0  0  0  0  0  0  0  0  0  0  0  0
   40.8530   35.0970   40.6720 N   0  0  0  0  0  0  0  0  0  0  0  0
   42.1920   34.8490   40.6140 C   0  0  0  0  0  0  0  0  0  0  0  0
   42.9150   35.5770   40.9380 H   0  0  0  0  0  0  0  0  0  0  0  0
   42.6140   33.6380   40.1270 C   0  0  0  0  0  3  0  0  0  0  0  0
   41.7340   32.6600   39.6930 C   0  0  0  0  0  3  0  0  0  0  0  0
   40.3830   32.9970   39.7880 C   0  0  0  0  0  0  0  0  0  0  0  0
   39.4860   32.0450   39.3650 C   0  0  0  0  0  3  0  0  0  0  0  0
  1  2  2  0  0  0  0
  1  6  1  0  0  0  0
  2  3  1  0  0  0  0
  3  8  1  0  0  0  0
  3  4  2  0  0  0  0
  5  4  1  0  0  0  0
  5 28  1  0  0  0  0
  6  5  2  0  0  0  0
  7  2  1  0  0  0  0
  9 12  1  1  0  0  0
 10 11  1  0  0  0  0
 10 14  1  0  0  0  0
 10  9  1  0  0  0  0
 11 15  1  6  0  0  0
 11  9  1  0  0  0  0
 11  1  1  0  0  0  0
 13 10  1  0  0  0  0
 16  9  1  0  0  0  0
 16 17  1  0  0  0  0
 17 22  1  0  0  0  0
 18 17  2  0  0  0  0
 18 23  1  0  0  0  0
 19 18  1  0  0  0  0
 20 21  1  0  0  0  0
 20 19  2  0  0  0  0
 21 16  2  0  0  0  0
 24 20  1  0  0  0  0
 25 24  1  0  0  0  0
 26 24  1  0  0  0  0
 27 24  1  0  0  0  0
 28 29  1  0  0  0  0
 28 30  1  0  0  0  0
 31 33  1  0  0  0  0
 31 34  1  0  0  0  0
 31 28  1  0  0  0  0
 32 31  1  0  0  0  0
 34 35  1  0  0  0  0
 35 36  1  0  0  0  0
 35 37  2  0  0  0  0
 38 37  1  0  0  0  0
 38 39  1  0  0  0  0
 40 39  2  0  0  0  0
 40 41  1  0  0  0  0
 42 40  1  0  0  0  0
 43 44  1  0  0  0  0
 43 42  2  0  0  0  0
 44 38  2  0  0  0  0
 45 34  2  0  0  0  0
 45 44  1  0  0  0  0
M  END
>  <minimizedAffinity>
-6.41549397

$$$$

 OpenBabel03252505443D

 45 49  0  0  1  0  0  0  0  0999 V2000
   37.1630   25.9870   40.7060 C   0  0  0  0  0  0  0  0  0  0  0  0
   36.6070   24.8230   40.2340 C   0  0  0  0  0  0  0  0  0  0  0  0
   37.0980   23.5820   40.5440 C   0  0  0  0  0  0  0  0  0  0  0  0
   38.1730   23.5180   41.3470 N   0  0  0  0  0  0  0  0  0  0  0  0
   38.7360   24.6590   41.8210 C   0  0  0  0  0  0  0  0  0  0  0  0
   38.2420   25.8710   41.5100 N   0  0  0  0  0  0  0  0  0  0  0  0
   35.7410   24.8680   39.5860 H   0  0  0  0  0  0  0  0  0  0  0  0
   36.6400   22.6750   40.1590 H   0  0  0  0  0  0  0  0  0  0  0  0
   37.5030   28.4370   40.5620 C   0  0  1  0  0  0  0  0  0  0  0  0
   36.2370   28.2760   41.4690 C   0  0  0  0  0  0  0  0  0  0  0  0
   36.6110   27.3420   40.3210 C   0  0  2  0  0  0  0  0  0  0  0  0
   38.4390   28.2850   41.1780 H   0  0  0  0  0  0  0  0  0  0  0  0
   35.3970   28.9490   41.2200 H   0  0  0  0  0  0  0  0  0  0  0  0
   36.3720   27.8860   42.4730 H   0  0  0  0  0  0  0  0  0  0  0  0
   35.8900   27.2400   39.5050 H   0  0  0  0  0  0  0  0  0  0  0  0
   37.5220   29.6910   39.7810 C   0  0  0  0  0  0  0  0  0  0  0  0
   37.1060   29.6200   38.4320 C   0  0  0  0  0  0  0  0  0  0  0  0
   37.1130   30.7850   37.6760 C   0  0  0  0  0  0  0  0  0  0  0  0
   37.5200   31.9340   38.2770 N   0  0  0  0  0  0  0  0  0  0  0  0
   37.9070   31.9600   39.5540 C   0  0  0  0  0  0  0  0  0  0  0  0
   37.8970   30.8330   40.2750 N   0  0  0  0  0  0  0  0  0  0  0  0
   36.8000   28.6830   38.0320 H   0  0  0  0  0  0  0  0  0  0  0  0
   36.7950   30.7560   36.6280 H   0  0  0  0  0  0  0  0  0  0  0  0
   38.3140   33.3270   40.0280 C   0  0  0  0  0  0  0  0  0  0  0  0
   37.3540   34.2780   39.7160 F   0  0  0  0  0  0  0  0  0  0  0  0
   39.4770   33.7250   39.3310 F   0  0  0  0  0  0  0  0  0  0  0  0
   38.6380   33.2840   41.3560 F   0  0  0  0  0  0  0  0  0  0  0  0
   39.9310   24.6400   42.6910 C   0  0  0  0  0  0  0  0  0  0  0  0
   40.8750   24.7920   42.1510 H   0  0  0  0  0  0  0  0  0  0  0  0
   40.0190   23.6340   43.1890 H   0  0  0  0  0  0  0  0  0  0  0  0
   39.8590   25.6510   43.7790 C   0  0  0  0  0  0  0  0  0  0  0  0
   38.7800   25.8840   43.9420 H   0  0  0  0  0  0  0  0  0  0  0  0
   40.1510   25.1080   44.7290 H   0  0  0  0  0  0  0  0  0  0  0  0
   40.6080   26.8820   43.6090 C   0  0  0  0  0  0  0  0  0  0  0  0
   41.9110   26.8210   44.0980 C   0  0  0  0  0  0  0  0  0  0  0  0
   42.3380   25.9300   44.5810 H   0  0  0  0  0  0  0  0  0  0  0  0
   42.8130   27.8570   44.0390 C   0  0  0  0  0  3  0  0  0  0  0  0
   42.4510   29.0430   43.4690 C   0  0  0  0  0  0  0  0  0  0  0  0
   43.2590   30.1110   43.3660 N   0  0  0  0  0  0  0  0  0  0  0  0
   42.8620   31.2810   42.7900 C   0  0  0  0  0  0  0  0  0  0  0  0
   43.5250   32.1260   42.7160 H   0  0  0  0  0  0  0  0  0  0  0  0
   41.5850   31.3690   42.2990 C   0  0  0  0  0  3  0  0  0  0  0  0
   40.6850   30.3180   42.3650 C   0  0  0  0  0  3  0  0  0  0  0  0
   41.1740   29.1600   42.9690 C   0  0  0  0  0  0  0  0  0  0  0  0
   40.3020   28.0990   43.0480 C   0  0  0  0  0  3  0  0  0  0  0  0
  1  6  1  0  0  0  0
  2  3  1  0  0  0  0
  2  1  2  0  0  0  0
  3  4  2  0  0  0  0
  4  5  1  0  0  0  0
  5 28  1  0  0  0  0
  6  5  2  0  0  0  0
  7  2  1  0  0  0  0
  8  3  1  0  0  0  0
  9 12  1  1  0  0  0
  9 10  1  0  0  0  0
 10 14  1  0  0  0  0
 11 15  1  6  0  0  0
 11  9  1  0  0  0  0
 11  1  1  0  0  0  0
 11 10  1  0  0  0  0
 13 10  1  0  0  0  0
 16 21  1  0  0  0  0
 16  9  1  0  0  0  0
 17 16  2  0  0  0  0
 18 19  2  0  0  0  0
 18 17  1  0  0  0  0
 19 20  1  0  0  0  0
 20 24  1  0  0  0  0
 20 21  2  0  0  0  0
 22 17  1  0  0  0  0
 23 18  1  0  0  0  0
 24 27  1  0  0  0  0
 25 24  1  0  0  0  0
 26 24  1  0  0  0  0
 28 30  1  0  0  0  0
 28 31  1  0  0  0  0
 29 28  1  0  0  0  0
 31 32  1  0  0  0  0
 31 33  1  0  0  0  0
 34 31  1  0  0  0  0
 34 35  1  0  0  0  0
 35 36  1  0  0  0  0
 37 35  2  0  0  0  0
 38 37  1  0  0  0  0
 39 38  1  0  0  0  0
 40 39  2  0  0  0  0
 41 40  1  0  0  0  0
 42 43  2  0  0  0  0
 42 40  1  0  0  0  0
 43 44  1  0  0  0  0
 44 45  1  0  0  0  0
 44 38  2  0  0  0  0
 45 34  2  0  0  0  0
M  END
>  <minimizedAffinity>
-6.40277195

$$$$

 OpenBabel03252505443D

 45 49  0  0  1  0  0  0  0  0999 V2000
   36.1640   26.4880   38.5390 C   0  0  0  0  0  0  0  0  0  0  0  0
   35.2940   25.7440   37.7800 C   0  0  0  0  0  0  0  0  0  0  0  0
   34.9830   24.4400   38.0610 C   0  0  0  0  0  0  0  0  0  0  0  0
   35.5660   23.8770   39.1320 N   0  0  0  0  0  0  0  0  0  0  0  0
   36.4300   24.5960   39.8930 C   0  0  0  0  0  0  0  0  0  0  0  0
   36.7240   25.8780   39.6050 N   0  0  0  0  0  0  0  0  0  0  0  0
   34.8210   26.1930   36.9150 H   0  0  0  0  0  0  0  0  0  0  0  0
   34.2900   23.8730   37.4460 H   0  0  0  0  0  0  0  0  0  0  0  0
   36.9900   28.7030   39.2780 C   0  0  1  0  0  0  0  0  0  0  0  0
   35.5610   28.9950   38.7100 C   0  0  0  0  0  0  0  0  0  0  0  0
   36.5050   27.9180   38.1830 C   0  0  2  0  0  0  0  0  0  0  0  0
   36.9110   28.3150   40.3370 H   0  0  0  0  0  0  0  0  0  0  0  0
   35.4950   29.8730   38.0430 H   0  0  0  0  0  0  0  0  0  0  0  0
   34.7030   28.6490   39.2790 H   0  0  0  0  0  0  0  0  0  0  0  0
   36.8030   27.9860   37.1330 H   0  0  0  0  0  0  0  0  0  0  0  0
   37.9280   29.8380   39.1460 C   0  0  0  0  0  0  0  0  0  0  0  0
   39.1040   29.6220   38.3940 C   0  0  0  0  0  0  0  0  0  0  0  0
   40.0010   30.6730   38.2530 C   0  0  0  0  0  0  0  0  0  0  0  0
   39.6970   31.8560   38.8480 N   0  0  0  0  0  0  0  0  0  0  0  0
   38.5750   32.0210   39.5520 C   0  0  0  0  0  0  0  0  0  0  0  0
   37.7170   31.0030   39.6830 N   0  0  0  0  0  0  0  0  0  0  0  0
   39.2720   28.6660   37.9570 H   0  0  0  0  0  0  0  0  0  0  0  0
   40.9200   30.5310   37.6740 H   0  0  0  0  0  0  0  0  0  0  0  0
   38.4240   33.4030   40.1240 C   0  0  0  0  0  0  0  0  0  0  0  0
   37.1880   33.9480   39.8080 F   0  0  0  0  0  0  0  0  0  0  0  0
   39.3760   34.2550   39.5190 F   0  0  0  0  0  0  0  0  0  0  0  0
   38.6950   33.3860   41.4640 F   0  0  0  0  0  0  0  0  0  0  0  0
   37.1110   24.0140   41.0690 C   0  0  0  0  0  0  0  0  0  0  0  0
   38.1920   23.8790   40.9330 H   0  0  0  0  0  0  0  0  0  0  0  0
   36.6950   22.9880   41.2760 H   0  0  0  0  0  0  0  0  0  0  0  0
   36.9010   24.8170   42.3030 C   0  0  0  0  0  0  0  0  0  0  0  0
   35.8000   24.9260   42.4430 H   0  0  0  0  0  0  0  0  0  0  0  0
   37.2050   24.1490   43.1660 H   0  0  0  0  0  0  0  0  0  0  0  0
   37.5390   26.1180   42.3790 C   0  0  0  0  0  0  0  0  0  0  0  0
   36.7660   27.0890   43.0110 C   0  0  0  0  0  0  0  0  0  0  0  0
   35.7570   26.8990   43.4090 H   0  0  0  0  0  0  0  0  0  0  0  0
   37.1610   28.3900   43.2110 C   0  0  0  0  0  3  0  0  0  0  0  0
   38.3890   28.8020   42.7800 C   0  0  0  0  0  0  0  0  0  0  0  0
   38.8630   30.0500   42.9290 N   0  0  0  0  0  0  0  0  0  0  0  0
   40.0960   30.4250   42.4840 C   0  0  0  0  0  0  0  0  0  0  0  0
   40.4600   31.4300   42.6130 H   0  0  0  0  0  0  0  0  0  0  0  0
   40.8800   29.4900   41.8580 C   0  0  0  0  0  3  0  0  0  0  0  0
   40.4690   28.1820   41.6610 C   0  0  0  0  0  3  0  0  0  0  0  0
   39.1960   27.8840   42.1470 C   0  0  0  0  0  0  0  0  0  0  0  0
   38.7620   26.5910   41.9670 C   0  0  0  0  0  3  0  0  0  0  0  0
  1  6  1  0  0  0  0
  2  3  1  0  0  0  0
  2  1  2  0  0  0  0
  3  4  2  0  0  0  0
  4  5  1  0  0  0  0
  5 28  1  0  0  0  0
  6  5  2  0  0  0  0
  7  2  1  0  0  0  0
  8  3  1  0  0  0  0
  9 12  1  1  0  0  0
 10  9  1  0  0  0  0
 10 14  1  0  0  0  0
 11 15  1  6  0  0  0
 11  1  1  0  0  0  0
 11 10  1  0  0  0  0
 11  9  1  0  0  0  0
 13 10  1  0  0  0  0
 16  9  1  0  0  0  0
 16 21  1  0  0  0  0
 17 16  2  0  0  0  0
 18 17  1  0  0  0  0
 18 19  2  0  0  0  0
 19 20  1  0  0  0  0
 20 21  2  0  0  0  0
 20 24  1  0  0  0  0
 22 17  1  0  0  0  0
 23 18  1  0  0  0  0
 24 27  1  0  0  0  0
 25 24  1  0  0  0  0
 26 24  1  0  0  0  0
 28 30  1  0  0  0  0
 28 31  1  0  0  0  0
 29 28  1  0  0  0  0
 31 34  1  0  0  0  0
 31 32  1  0  0  0  0
 31 33  1  0  0  0  0
 34 35  1  0  0  0  0
 35 37  2  0  0  0  0
 35 36  1  0  0  0  0
 38 39  1  0  0  0  0
 38 37  1  0  0  0  0
 40 41  1  0  0  0  0
 40 39  2  0  0  0  0
 42 40  1  0  0  0  0
 43 42  2  0  0  0  0
 43 44  1  0  0  0  0
 44 38  2  0  0  0  0
 45 44  1  0  0  0  0
 45 34  2  0  0  0  0
M  END
>  <minimizedAffinity>
-6.38458252

$$$$
