
 OpenBabel03252509123D

 34 38  0  0  0  0  0  0  0  0999 V2000
   39.3810   30.1690   41.9250 C   0  0  0  0  0  0  0  0  0  0  0  0
   38.3150   29.6230   41.2560 C   0  0  0  0  0  0  0  0  0  0  0  0
   37.4510   30.3790   40.4590 C   0  0  0  0  0  0  0  0  0  0  0  0
   37.6750   31.7520   40.3320 C   0  0  0  0  0  0  0  0  0  0  0  0
   37.0640   32.7730   39.6660 N   0  0  0  0  0  0  0  0  0  0  0  0
   37.7470   33.9130   39.9280 C   0  0  0  0  0  0  0  0  0  0  0  0
   38.7620   33.5810   40.7450 N   0  0  0  0  0  0  0  0  0  0  0  0
   38.7540   32.2720   41.0150 C   0  0  0  0  0  0  0  0  0  0  0  0
   39.6080   31.5410   41.7990 C   0  0  0  0  0  0  0  0  0  0  0  0
   39.9940   29.5120   42.5150 H   0  0  0  0  0  0  0  0  0  0  0  0
   36.2270   32.6800   39.0700 H   0  0  0  0  0  0  0  0  0  0  0  0
   37.4830   34.9060   39.5230 H   0  0  0  0  0  0  0  0  0  0  0  0
   40.4400   31.9720   42.3200 H   0  0  0  0  0  0  0  0  0  0  0  0
   36.2950   29.8840   39.7270 C   0  0  0  0  0  0  0  0  0  0  0  0
   35.0580   29.5220   40.2360 C   0  0  0  0  0  0  0  0  0  0  0  0
   34.9520   29.6380   41.3090 H   0  0  0  0  0  0  0  0  0  0  0  0
   34.0660   29.0580   39.4010 C   0  0  0  0  0  3  0  0  0  0  0  0
   34.3160   28.9570   38.0330 C   0  0  0  0  0  0  0  0  0  0  0  0
   33.3490   28.5060   37.2300 N   0  0  0  0  0  0  0  0  0  0  0  0
   33.5030   28.3760   35.9020 C   0  0  0  0  0  0  0  0  0  0  0  0
   32.7000   28.0030   35.2530 H   0  0  0  0  0  0  0  0  0  0  0  0
   34.7070   28.7210   35.3450 C   0  0  0  0  0  3  0  0  0  0  0  0
   35.7320   29.1900   36.1420 C   0  0  0  0  0  3  0  0  0  0  0  0
   35.5510   29.3150   37.5020 C   0  0  0  0  0  0  0  0  0  0  0  0
   36.5310   29.7780   38.3650 C   0  0  0  0  0  3  0  0  0  0  0  0
   38.2130   26.0180   40.5230 C   0  0  0  0  0  0  0  0  0  0  0  0
   37.4570   25.5140   41.6050 C   0  0  0  0  0  0  0  0  0  0  0  0
   36.9950   26.4170   42.5690 C   0  0  0  0  0  0  0  0  0  0  0  0
   37.3110   27.7320   42.3930 N   0  0  0  0  0  0  0  0  0  0  0  0
   38.0360   28.1990   41.3500 C   0  0  0  0  0  0  0  0  0  0  0  0
   38.4760   27.3410   40.4350 N   0  0  0  0  0  0  0  0  0  0  0  0
   38.5990   25.3650   39.7410 H   0  0  0  0  0  0  0  0  0  0  0  0
   37.2550   24.4670   41.6680 H   0  0  0  0  0  0  0  0  0  0  0  0
   36.4140   26.0800   43.4110 H   0  0  0  0  0  0  0  0  0  0  0  0
  1 10  1  0  0  0  0
  2 30  1  0  0  0  0
  2  1  2  0  0  0  0
  3  2  1  0  0  0  0
  4  3  2  0  0  0  0
  4  8  1  0  0  0  0
  5  6  1  0  0  0  0
  5  4  1  0  0  0  0
  6  7  2  0  0  0  0
  7  8  1  0  0  0  0
  8  9  2  0  0  0  0
  9  1  1  0  0  0  0
  9 13  1  0  0  0  0
 11  5  1  0  0  0  0
 12  6  1  0  0  0  0
 14 15  1  0  0  0  0
 14  3  1  0  0  0  0
 15 16  1  0  0  0  0
 17 15  2  0  0  0  0
 18 17  1  0  0  0  0
 19 18  2  0  0  0  0
 20 19  1  0  0  0  0
 21 20  1  0  0  0  0
 22 20  2  0  0  0  0
 22 23  1  0  0  0  0
 23 24  2  0  0  0  0
 24 18  1  0  0  0  0
 24 25  1  0  0  0  0
 25 14  2  0  0  0  0
 26 27  1  0  0  0  0
 27 33  1  0  0  0  0
 27 28  2  0  0  0  0
 28 34  1  0  0  0  0
 29 28  1  0  0  0  0
 30 29  2  0  0  0  0
 31 26  2  0  0  0  0
 31 30  1  0  0  0  0
 32 26  1  0  0  0  0
M  END
>  <minimizedAffinity>
-6.4813962

$$$$

 OpenBabel03252509123D

 34 38  0  0  0  0  0  0  0  0999 V2000
   37.5480   33.1020   39.6780 C   0  0  0  0  0  0  0  0  0  0  0  0
   37.7990   31.7630   39.8410 C   0  0  0  0  0  0  0  0  0  0  0  0
   39.0460   31.2690   40.2320 C   0  0  0  0  0  0  0  0  0  0  0  0
   40.0880   32.1670   40.4710 C   0  0  0  0  0  0  0  0  0  0  0  0
   41.3920   32.0570   40.8520 N   0  0  0  0  0  0  0  0  0  0  0  0
   41.9180   33.3040   40.9180 C   0  0  0  0  0  0  0  0  0  0  0  0
   40.9370   34.1590   40.5790 N   0  0  0  0  0  0  0  0  0  0  0  0
   39.8050   33.5060   40.2990 C   0  0  0  0  0  0  0  0  0  0  0  0
   38.5870   34.0040   39.9160 C   0  0  0  0  0  0  0  0  0  0  0  0
   36.5580   33.3950   39.3750 H   0  0  0  0  0  0  0  0  0  0  0  0
   41.8820   31.1710   41.0520 H   0  0  0  0  0  0  0  0  0  0  0  0
   42.9620   33.5270   41.2010 H   0  0  0  0  0  0  0  0  0  0  0  0
   38.3940   35.0510   39.7900 H   0  0  0  0  0  0  0  0  0  0  0  0
   39.4010   29.8690   40.4170 C   0  0  0  0  0  0  0  0  0  0  0  0
   39.8530   28.9730   39.4620 C   0  0  0  0  0  0  0  0  0  0  0  0
   39.9620   29.3840   38.4640 H   0  0  0  0  0  0  0  0  0  0  0  0
   40.1370   27.6690   39.8030 C   0  0  0  0  0  3  0  0  0  0  0  0
   39.9650   27.2560   41.1230 C   0  0  0  0  0  0  0  0  0  0  0  0
   40.2420   25.9900   41.4450 N   0  0  0  0  0  0  0  0  0  0  0  0
   40.1050   25.5060   42.6910 C   0  0  0  0  0  0  0  0  0  0  0  0
   40.3340   24.4630   42.9430 H   0  0  0  0  0  0  0  0  0  0  0  0
   39.6610   26.3490   43.6770 C   0  0  0  0  0  3  0  0  0  0  0  0
   39.3640   27.6650   43.3820 C   0  0  0  0  0  3  0  0  0  0  0  0
   39.5120   28.1390   42.0980 C   0  0  0  0  0  0  0  0  0  0  0  0
   39.2350   29.4450   41.7260 C   0  0  0  0  0  3  0  0  0  0  0  0
   35.0260   29.4060   40.3850 C   0  0  0  0  0  0  0  0  0  0  0  0
   34.7890   28.9180   39.0800 C   0  0  0  0  0  0  0  0  0  0  0  0
   35.5820   29.4050   38.0350 C   0  0  0  0  0  0  0  0  0  0  0  0
   36.5370   30.3240   38.3540 N   0  0  0  0  0  0  0  0  0  0  0  0
   36.7520   30.7820   39.6090 C   0  0  0  0  0  0  0  0  0  0  0  0
   35.9980   30.3210   40.6020 N   0  0  0  0  0  0  0  0  0  0  0  0
   34.4430   29.0650   41.2380 H   0  0  0  0  0  0  0  0  0  0  0  0
   34.0190   28.1960   38.9160 H   0  0  0  0  0  0  0  0  0  0  0  0
   35.4390   29.0610   37.0240 H   0  0  0  0  0  0  0  0  0  0  0  0
  1  2  2  0  0  0  0
  1  9  1  0  0  0  0
  2  3  1  0  0  0  0
  3 14  1  0  0  0  0
  3  4  2  0  0  0  0
  4  5  1  0  0  0  0
  5  6  1  0  0  0  0
  5 11  1  0  0  0  0
  6 12  1  0  0  0  0
  7  6  2  0  0  0  0
  8  4  1  0  0  0  0
  8  7  1  0  0  0  0
  9  8  2  0  0  0  0
 10  1  1  0  0  0  0
 13  9  1  0  0  0  0
 14 25  1  0  0  0  0
 15 17  1  0  0  0  0
 15 14  2  0  0  0  0
 16 15  1  0  0  0  0
 17 18  2  0  0  0  0
 18 19  1  0  0  0  0
 18 24  1  0  0  0  0
 19 20  2  0  0  0  0
 20 21  1  0  0  0  0
 20 22  1  0  0  0  0
 23 22  2  0  0  0  0
 24 23  1  0  0  0  0
 25 24  2  0  0  0  0
 26 31  1  0  0  0  0
 26 32  1  0  0  0  0
 27 26  2  0  0  0  0
 28 29  2  0  0  0  0
 28 27  1  0  0  0  0
 29 30  1  0  0  0  0
 30  2  1  0  0  0  0
 30 31  2  0  0  0  0
 33 27  1  0  0  0  0
 34 28  1  0  0  0  0
M  END
>  <minimizedAffinity>
-6.08410454

$$$$

 OpenBabel03252509123D

 34 38  0  0  0  0  0  0  0  0999 V2000
   35.0800   27.2130   37.7800 C   0  0  0  0  0  0  0  0  0  0  0  0
   36.0490   27.9940   38.3580 C   0  0  0  0  0  0  0  0  0  0  0  0
   36.7020   29.0220   37.6720 C   0  0  0  0  0  0  0  0  0  0  0  0
   36.3610   29.2730   36.3410 C   0  0  0  0  0  0  0  0  0  0  0  0
   36.7700   30.1580   35.3890 N   0  0  0  0  0  0  0  0  0  0  0  0
   36.0630   29.9160   34.2590 C   0  0  0  0  0  0  0  0  0  0  0  0
   35.2340   28.8930   34.5290 N   0  0  0  0  0  0  0  0  0  0  0  0
   35.3840   28.4710   35.7890 C   0  0  0  0  0  0  0  0  0  0  0  0
   34.7360   27.4610   36.4500 C   0  0  0  0  0  0  0  0  0  0  0  0
   34.6290   26.4440   38.3820 H   0  0  0  0  0  0  0  0  0  0  0  0
   37.4940   30.8810   35.5190 H   0  0  0  0  0  0  0  0  0  0  0  0
   36.1790   30.4810   33.3160 H   0  0  0  0  0  0  0  0  0  0  0  0
   33.9790   26.8530   35.9960 H   0  0  0  0  0  0  0  0  0  0  0  0
   37.7450   29.8870   38.2030 C   0  0  0  0  0  0  0  0  0  0  0  0
   39.1040   29.6300   38.2840 C   0  0  0  0  0  0  0  0  0  0  0  0
   39.4120   28.6680   37.8890 H   0  0  0  0  0  0  0  0  0  0  0  0
   39.9620   30.5600   38.8280 C   0  0  0  0  0  3  0  0  0  0  0  0
   39.4500   31.7690   39.2980 C   0  0  0  0  0  0  0  0  0  0  0  0
   40.2880   32.6650   39.8250 N   0  0  0  0  0  0  0  0  0  0  0  0
   39.8820   33.8530   40.3020 C   0  0  0  0  0  0  0  0  0  0  0  0
   40.5810   34.5810   40.7340 H   0  0  0  0  0  0  0  0  0  0  0  0
   38.5480   34.1610   40.2460 C   0  0  0  0  0  3  0  0  0  0  0  0
   37.6500   33.2600   39.7090 C   0  0  0  0  0  3  0  0  0  0  0  0
   38.0890   32.0470   39.2260 C   0  0  0  0  0  0  0  0  0  0  0  0
   37.2490   31.0930   38.6730 C   0  0  0  0  0  3  0  0  0  0  0  0
   36.2740   28.2830   42.0200 C   0  0  0  0  0  0  0  0  0  0  0  0
   37.2510   27.3110   42.3360 C   0  0  0  0  0  0  0  0  0  0  0  0
   37.8150   26.5720   41.2900 C   0  0  0  0  0  0  0  0  0  0  0  0
   37.3780   26.8460   40.0270 N   0  0  0  0  0  0  0  0  0  0  0  0
   36.4420   27.7800   39.7410 C   0  0  0  0  0  0  0  0  0  0  0  0
   35.9050   28.4820   40.7340 N   0  0  0  0  0  0  0  0  0  0  0  0
   35.8000   28.8890   42.7890 H   0  0  0  0  0  0  0  0  0  0  0  0
   37.5360   27.1590   43.3540 H   0  0  0  0  0  0  0  0  0  0  0  0
   38.5640   25.8210   41.4820 H   0  0  0  0  0  0  0  0  0  0  0  0
  1  2  1  0  0  0  0
  1 10  1  0  0  0  0
  2 30  1  0  0  0  0
  3 14  1  0  0  0  0
  3  2  2  0  0  0  0
  4  3  1  0  0  0  0
  5 11  1  0  0  0  0
  5  4  1  0  0  0  0
  6  7  2  0  0  0  0
  6  5  1  0  0  0  0
  7  8  1  0  0  0  0
  8  4  2  0  0  0  0
  8  9  1  0  0  0  0
  9  1  2  0  0  0  0
 12  6  1  0  0  0  0
 13  9  1  0  0  0  0
 14 15  2  0  0  0  0
 14 25  1  0  0  0  0
 15 17  1  0  0  0  0
 16 15  1  0  0  0  0
 17 18  2  0  0  0  0
 18 19  1  0  0  0  0
 19 20  2  0  0  0  0
 20 21  1  0  0  0  0
 22 20  1  0  0  0  0
 23 22  2  0  0  0  0
 24 18  1  0  0  0  0
 24 23  1  0  0  0  0
 25 24  2  0  0  0  0
 26 27  1  0  0  0  0
 26 32  1  0  0  0  0
 27 33  1  0  0  0  0
 28 34  1  0  0  0  0
 28 27  2  0  0  0  0
 29 28  1  0  0  0  0
 30 29  2  0  0  0  0
 30 31  1  0  0  0  0
 31 26  2  0  0  0  0
M  END
>  <minimizedAffinity>
-5.91467953

$$$$

 OpenBabel03252509123D

 34 38  0  0  0  0  0  0  0  0999 V2000
   37.6110   29.0090   42.8310 C   0  0  0  0  0  0  0  0  0  0  0  0
   37.6310   29.2360   41.4780 C   0  0  0  0  0  0  0  0  0  0  0  0
   37.4270   28.2240   40.5370 C   0  0  0  0  0  0  0  0  0  0  0  0
   37.1910   26.9210   40.9810 C   0  0  0  0  0  0  0  0  0  0  0  0
   36.9580   25.7220   40.3790 N   0  0  0  0  0  0  0  0  0  0  0  0
   36.8010   24.7880   41.3470 C   0  0  0  0  0  0  0  0  0  0  0  0
   36.9380   25.4210   42.5250 N   0  0  0  0  0  0  0  0  0  0  0  0
   37.1770   26.7240   42.3460 C   0  0  0  0  0  0  0  0  0  0  0  0
   37.3750   27.7080   43.2800 C   0  0  0  0  0  0  0  0  0  0  0  0
   37.7780   29.8460   43.4840 H   0  0  0  0  0  0  0  0  0  0  0  0
   36.9130   25.5650   39.3590 H   0  0  0  0  0  0  0  0  0  0  0  0
   36.5990   23.7180   41.1570 H   0  0  0  0  0  0  0  0  0  0  0  0
   37.3590   27.5260   44.3360 H   0  0  0  0  0  0  0  0  0  0  0  0
   37.4430   28.3750   39.0890 C   0  0  0  0  0  0  0  0  0  0  0  0
   38.5400   28.3540   38.2440 C   0  0  0  0  0  0  0  0  0  0  0  0
   39.4940   28.1930   38.7350 H   0  0  0  0  0  0  0  0  0  0  0  0
   38.3820   28.5240   36.8860 C   0  0  0  0  0  3  0  0  0  0  0  0
   37.1040   28.7180   36.3660 C   0  0  0  0  0  0  0  0  0  0  0  0
   36.9590   28.8820   35.0490 N   0  0  0  0  0  0  0  0  0  0  0  0
   35.7660   29.0750   34.4630 C   0  0  0  0  0  0  0  0  0  0  0  0
   35.6610   29.2100   33.3790 H   0  0  0  0  0  0  0  0  0  0  0  0
   34.6450   29.1040   35.2510 C   0  0  0  0  0  3  0  0  0  0  0  0
   34.7540   28.9380   36.6180 C   0  0  0  0  0  3  0  0  0  0  0  0
   35.9880   28.7420   37.1970 C   0  0  0  0  0  0  0  0  0  0  0  0
   36.1770   28.5680   38.5590 C   0  0  0  0  0  3  0  0  0  0  0  0
   37.0920   32.6030   40.0930 C   0  0  0  0  0  0  0  0  0  0  0  0
   38.4130   33.0930   39.9790 C   0  0  0  0  0  0  0  0  0  0  0  0
   39.4660   32.2640   40.3780 C   0  0  0  0  0  0  0  0  0  0  0  0
   39.1400   31.0270   40.8540 N   0  0  0  0  0  0  0  0  0  0  0  0
   37.8700   30.5730   40.9580 C   0  0  0  0  0  0  0  0  0  0  0  0
   36.8690   31.3610   40.5790 N   0  0  0  0  0  0  0  0  0  0  0  0
   36.2320   33.2010   39.7980 H   0  0  0  0  0  0  0  0  0  0  0  0
   38.5810   34.0760   39.5950 H   0  0  0  0  0  0  0  0  0  0  0  0
   40.4900   32.5930   40.3080 H   0  0  0  0  0  0  0  0  0  0  0  0
  1  9  1  0  0  0  0
  1 10  1  0  0  0  0
  2  1  2  0  0  0  0
  3  4  2  0  0  0  0
  3  2  1  0  0  0  0
  4  8  1  0  0  0  0
  5  4  1  0  0  0  0
  5  6  1  0  0  0  0
  6  7  2  0  0  0  0
  8  7  1  0  0  0  0
  8  9  2  0  0  0  0
  9 13  1  0  0  0  0
 11  5  1  0  0  0  0
 12  6  1  0  0  0  0
 14  3  1  0  0  0  0
 15 16  1  0  0  0  0
 15 14  2  0  0  0  0
 17 15  1  0  0  0  0
 18 17  2  0  0  0  0
 18 24  1  0  0  0  0
 19 18  1  0  0  0  0
 20 19  2  0  0  0  0
 20 22  1  0  0  0  0
 21 20  1  0  0  0  0
 22 23  2  0  0  0  0
 23 24  1  0  0  0  0
 24 25  2  0  0  0  0
 25 14  1  0  0  0  0
 26 31  1  0  0  0  0
 27 26  2  0  0  0  0
 27 28  1  0  0  0  0
 28 29  2  0  0  0  0
 29 30  1  0  0  0  0
 30  2  1  0  0  0  0
 31 30  2  0  0  0  0
 32 26  1  0  0  0  0
 33 27  1  0  0  0  0
 34 28  1  0  0  0  0
M  END
>  <minimizedAffinity>
-5.87499285

$$$$

 OpenBabel03252509123D

 34 38  0  0  0  0  0  0  0  0999 V2000
   36.3340   29.9010   35.1080 C   0  0  0  0  0  0  0  0  0  0  0  0
   36.5880   29.7070   36.4430 C   0  0  0  0  0  0  0  0  0  0  0  0
   35.6480   29.1630   37.3220 C   0  0  0  0  0  0  0  0  0  0  0  0
   34.3920   28.7980   36.8310 C   0  0  0  0  0  0  0  0  0  0  0  0
   33.2630   28.2580   37.3700 N   0  0  0  0  0  0  0  0  0  0  0  0
   32.3450   28.1280   36.3830 C   0  0  0  0  0  0  0  0  0  0  0  0
   32.9180   28.5870   35.2560 N   0  0  0  0  0  0  0  0  0  0  0  0
   34.1670   29.0050   35.4860 C   0  0  0  0  0  0  0  0  0  0  0  0
   35.0800   29.5360   34.6140 C   0  0  0  0  0  0  0  0  0  0  0  0
   37.1160   30.3250   34.5040 H   0  0  0  0  0  0  0  0  0  0  0  0
   33.1410   27.9980   38.3620 H   0  0  0  0  0  0  0  0  0  0  0  0
   31.3300   27.7180   36.5240 H   0  0  0  0  0  0  0  0  0  0  0  0
   34.8780   29.6860   33.5720 H   0  0  0  0  0  0  0  0  0  0  0  0
   35.8300   28.9350   38.7480 C   0  0  0  0  0  0  0  0  0  0  0  0
   35.6050   29.8230   39.7870 C   0  0  0  0  0  0  0  0  0  0  0  0
   35.2390   30.7990   39.4840 H   0  0  0  0  0  0  0  0  0  0  0  0
   35.8390   29.4490   41.0920 C   0  0  0  0  0  3  0  0  0  0  0  0
   36.3040   28.1630   41.3610 C   0  0  0  0  0  0  0  0  0  0  0  0
   36.5280   27.8080   42.6280 N   0  0  0  0  0  0  0  0  0  0  0  0
   36.9770   26.5910   42.9780 C   0  0  0  0  0  0  0  0  0  0  0  0
   37.1590   26.3120   44.0240 H   0  0  0  0  0  0  0  0  0  0  0  0
   37.2150   25.6710   41.9900 C   0  0  0  0  0  3  0  0  0  0  0  0
   36.9950   26.0010   40.6670 C   0  0  0  0  0  3  0  0  0  0  0  0
   36.5360   27.2550   40.3320 C   0  0  0  0  0  0  0  0  0  0  0  0
   36.2920   27.6590   39.0290 C   0  0  0  0  0  3  0  0  0  0  0  0
   40.0470   29.5040   37.6840 C   0  0  0  0  0  0  0  0  0  0  0  0
   40.2950   30.8340   38.0940 C   0  0  0  0  0  0  0  0  0  0  0  0
   39.2740   31.7780   37.9390 C   0  0  0  0  0  0  0  0  0  0  0  0
   38.1000   31.3430   37.3970 N   0  0  0  0  0  0  0  0  0  0  0  0
   37.8780   30.0660   37.0080 C   0  0  0  0  0  0  0  0  0  0  0  0
   38.8480   29.1690   37.1550 N   0  0  0  0  0  0  0  0  0  0  0  0
   40.8010   28.7260   37.7800 H   0  0  0  0  0  0  0  0  0  0  0  0
   41.2440   31.0910   38.5100 H   0  0  0  0  0  0  0  0  0  0  0  0
   39.4160   32.8030   38.2380 H   0  0  0  0  0  0  0  0  0  0  0  0
  1  2  1  0  0  0  0
  2 30  1  0  0  0  0
  2  3  2  0  0  0  0
  3 14  1  0  0  0  0
  4  3  1  0  0  0  0
  4  5  1  0  0  0  0
  5 11  1  0  0  0  0
  6 12  1  0  0  0  0
  6  5  1  0  0  0  0
  7  8  1  0  0  0  0
  7  6  2  0  0  0  0
  8  4  2  0  0  0  0
  9  1  2  0  0  0  0
  9  8  1  0  0  0  0
 10  1  1  0  0  0  0
 13  9  1  0  0  0  0
 14 25  2  0  0  0  0
 14 15  1  0  0  0  0
 15 17  2  0  0  0  0
 16 15  1  0  0  0  0
 17 18  1  0  0  0  0
 18 19  1  0  0  0  0
 19 20  2  0  0  0  0
 20 21  1  0  0  0  0
 22 20  1  0  0  0  0
 23 22  2  0  0  0  0
 24 23  1  0  0  0  0
 24 18  2  0  0  0  0
 25 24  1  0  0  0  0
 26 32  1  0  0  0  0
 26 27  1  0  0  0  0
 27 33  1  0  0  0  0
 28 27  2  0  0  0  0
 28 34  1  0  0  0  0
 29 28  1  0  0  0  0
 30 31  1  0  0  0  0
 30 29  2  0  0  0  0
 31 26  2  0  0  0  0
M  END
>  <minimizedAffinity>
-5.83822107

$$$$

 OpenBabel03252509123D

 34 38  0  0  0  0  0  0  0  0999 V2000
   36.4430   25.5440   39.5120 C   0  0  0  0  0  0  0  0  0  0  0  0
   36.7750   26.8020   39.9490 C   0  0  0  0  0  0  0  0  0  0  0  0
   36.4080   27.9630   39.2640 C   0  0  0  0  0  0  0  0  0  0  0  0
   35.6700   27.8500   38.0830 C   0  0  0  0  0  0  0  0  0  0  0  0
   35.1540   28.7280   37.1790 N   0  0  0  0  0  0  0  0  0  0  0  0
   34.5230   28.0170   36.2140 C   0  0  0  0  0  0  0  0  0  0  0  0
   34.6590   26.7180   36.5360 N   0  0  0  0  0  0  0  0  0  0  0  0
   35.3520   26.5740   37.6700 C   0  0  0  0  0  0  0  0  0  0  0  0
   35.7060   25.4270   38.3320 C   0  0  0  0  0  0  0  0  0  0  0  0
   36.7670   24.7050   40.1010 H   0  0  0  0  0  0  0  0  0  0  0  0
   35.2370   29.7560   37.2300 H   0  0  0  0  0  0  0  0  0  0  0  0
   34.0080   28.4630   35.3450 H   0  0  0  0  0  0  0  0  0  0  0  0
   35.4450   24.4460   37.9870 H   0  0  0  0  0  0  0  0  0  0  0  0
   36.7260   29.3300   39.6500 C   0  0  0  0  0  0  0  0  0  0  0  0
   35.9830   30.1840   40.4490 C   0  0  0  0  0  0  0  0  0  0  0  0
   35.0610   29.7630   40.8350 H   0  0  0  0  0  0  0  0  0  0  0  0
   36.4250   31.4620   40.7100 C   0  0  0  0  0  3  0  0  0  0  0  0
   37.6340   31.8910   40.1640 C   0  0  0  0  0  0  0  0  0  0  0  0
   38.0550   33.1320   40.4210 N   0  0  0  0  0  0  0  0  0  0  0  0
   39.2050   33.6290   39.9360 C   0  0  0  0  0  0  0  0  0  0  0  0
   39.5400   34.6510   40.1550 H   0  0  0  0  0  0  0  0  0  0  0  0
   39.9820   32.8270   39.1400 C   0  0  0  0  0  3  0  0  0  0  0  0
   39.5790   31.5390   38.8500 C   0  0  0  0  0  3  0  0  0  0  0  0
   38.3950   31.0510   39.3590 C   0  0  0  0  0  0  0  0  0  0  0  0
   37.9260   29.7700   39.1120 C   0  0  0  0  0  3  0  0  0  0  0  0
   39.5730   27.0480   42.3260 C   0  0  0  0  0  0  0  0  0  0  0  0
   38.9090   27.3280   43.5410 C   0  0  0  0  0  0  0  0  0  0  0  0
   37.5130   27.4290   43.5270 C   0  0  0  0  0  0  0  0  0  0  0  0
   36.8880   27.2470   42.3280 N   0  0  0  0  0  0  0  0  0  0  0  0
   37.5390   26.9800   41.1730 C   0  0  0  0  0  0  0  0  0  0  0  0
   38.8650   26.8850   41.1860 N   0  0  0  0  0  0  0  0  0  0  0  0
   40.6570   26.9570   42.2740 H   0  0  0  0  0  0  0  0  0  0  0  0
   39.4760   27.4560   44.4370 H   0  0  0  0  0  0  0  0  0  0  0  0
   36.9630   27.6390   44.4290 H   0  0  0  0  0  0  0  0  0  0  0  0
  1  2  1  0  0  0  0
  1 10  1  0  0  0  0
  2 30  1  0  0  0  0
  3 14  1  0  0  0  0
  3  2  2  0  0  0  0
  4  3  1  0  0  0  0
  5 11  1  0  0  0  0
  5  4  1  0  0  0  0
  6  7  2  0  0  0  0
  6  5  1  0  0  0  0
  7  8  1  0  0  0  0
  8  4  2  0  0  0  0
  8  9  1  0  0  0  0
  9  1  2  0  0  0  0
 12  6  1  0  0  0  0
 13  9  1  0  0  0  0
 14 15  1  0  0  0  0
 15 17  2  0  0  0  0
 15 16  1  0  0  0  0
 18 19  1  0  0  0  0
 18 17  1  0  0  0  0
 20 21  1  0  0  0  0
 20 19  2  0  0  0  0
 22 20  1  0  0  0  0
 23 22  2  0  0  0  0
 23 24  1  0  0  0  0
 24 18  2  0  0  0  0
 25 24  1  0  0  0  0
 25 14  2  0  0  0  0
 26 27  1  0  0  0  0
 27 33  1  0  0  0  0
 28 27  2  0  0  0  0
 28 34  1  0  0  0  0
 29 28  1  0  0  0  0
 30 31  1  0  0  0  0
 30 29  2  0  0  0  0
 31 26  2  0  0  0  0
 32 26  1  0  0  0  0
M  END
>  <minimizedAffinity>
-5.81273079

$$$$

 OpenBabel03252509123D

 34 38  0  0  0  0  0  0  0  0999 V2000
   35.8800   25.2470   38.4870 C   0  0  0  0  0  0  0  0  0  0  0  0
   35.9600   26.6100   38.6350 C   0  0  0  0  0  0  0  0  0  0  0  0
   36.5860   27.2170   39.7270 C   0  0  0  0  0  0  0  0  0  0  0  0
   37.1570   26.4130   40.7160 C   0  0  0  0  0  0  0  0  0  0  0  0
   37.8250   26.6410   41.8810 N   0  0  0  0  0  0  0  0  0  0  0  0
   38.1410   25.4430   42.4270 C   0  0  0  0  0  0  0  0  0  0  0  0
   37.6680   24.4980   41.5950 N   0  0  0  0  0  0  0  0  0  0  0  0
   37.0600   25.0480   40.5390 C   0  0  0  0  0  0  0  0  0  0  0  0
   36.4510   24.4400   39.4730 C   0  0  0  0  0  0  0  0  0  0  0  0
   35.3810   24.8650   37.6140 H   0  0  0  0  0  0  0  0  0  0  0  0
   38.0440   27.5720   42.2700 H   0  0  0  0  0  0  0  0  0  0  0  0
   38.6880   25.3140   43.3780 H   0  0  0  0  0  0  0  0  0  0  0  0
   36.3900   23.3760   39.3600 H   0  0  0  0  0  0  0  0  0  0  0  0
   36.7050   28.6480   39.9680 C   0  0  0  0  0  0  0  0  0  0  0  0
   35.8360   29.4680   40.6680 C   0  0  0  0  0  0  0  0  0  0  0  0
   34.9730   28.9650   41.0920 H   0  0  0  0  0  0  0  0  0  0  0  0
   36.0930   30.8150   40.7950 C   0  0  0  0  0  3  0  0  0  0  0  0
   37.2410   31.3500   40.2120 C   0  0  0  0  0  0  0  0  0  0  0  0
   37.4830   32.6570   40.3390 N   0  0  0  0  0  0  0  0  0  0  0  0
   38.5620   33.2550   39.8100 C   0  0  0  0  0  0  0  0  0  0  0  0
   38.7490   34.3310   39.9200 H   0  0  0  0  0  0  0  0  0  0  0  0
   39.4570   32.4910   39.1070 C   0  0  0  0  0  3  0  0  0  0  0  0
   39.2420   31.1360   38.9530 C   0  0  0  0  0  3  0  0  0  0  0  0
   38.1270   30.5440   39.5040 C   0  0  0  0  0  0  0  0  0  0  0  0
   37.8430   29.1920   39.3920 C   0  0  0  0  0  3  0  0  0  0  0  0
   33.6210   28.8040   36.8310 C   0  0  0  0  0  0  0  0  0  0  0  0
   34.3720   29.1670   35.6910 C   0  0  0  0  0  0  0  0  0  0  0  0
   35.6680   28.6570   35.5580 C   0  0  0  0  0  0  0  0  0  0  0  0
   36.1180   27.8350   36.5500 N   0  0  0  0  0  0  0  0  0  0  0  0
   35.3860   27.4960   37.6360 C   0  0  0  0  0  0  0  0  0  0  0  0
   34.1550   27.9820   37.7630 N   0  0  0  0  0  0  0  0  0  0  0  0
   32.6070   29.1680   36.9880 H   0  0  0  0  0  0  0  0  0  0  0  0
   33.9440   29.8180   34.9600 H   0  0  0  0  0  0  0  0  0  0  0  0
   36.2780   28.9050   34.7060 H   0  0  0  0  0  0  0  0  0  0  0  0
  1  2  2  0  0  0  0
  1  9  1  0  0  0  0
  2  3  1  0  0  0  0
  3 14  1  0  0  0  0
  3  4  2  0  0  0  0
  4  5  1  0  0  0  0
  5 11  1  0  0  0  0
  5  6  1  0  0  0  0
  6 12  1  0  0  0  0
  7  6  2  0  0  0  0
  8  4  1  0  0  0  0
  8  7  1  0  0  0  0
  9  8  2  0  0  0  0
 10  1  1  0  0  0  0
 13  9  1  0  0  0  0
 14 15  1  0  0  0  0
 15 17  2  0  0  0  0
 15 16  1  0  0  0  0
 18 19  1  0  0  0  0
 18 17  1  0  0  0  0
 20 21  1  0  0  0  0
 20 19  2  0  0  0  0
 22 20  1  0  0  0  0
 23 22  2  0  0  0  0
 23 24  1  0  0  0  0
 24 18  2  0  0  0  0
 25 24  1  0  0  0  0
 25 14  2  0  0  0  0
 26 32  1  0  0  0  0
 26 31  1  0  0  0  0
 27 26  2  0  0  0  0
 28 27  1  0  0  0  0
 28 29  2  0  0  0  0
 29 30  1  0  0  0  0
 30 31  2  0  0  0  0
 30  2  1  0  0  0  0
 33 27  1  0  0  0  0
 34 28  1  0  0  0  0
M  END
>  <minimizedAffinity>
-5.59267759

$$$$

 OpenBabel03252509123D

 34 38  0  0  0  0  0  0  0  0999 V2000
   40.7290   32.2870   37.2640 C   0  0  0  0  0  0  0  0  0  0  0  0
   39.9270   31.5330   38.0840 C   0  0  0  0  0  0  0  0  0  0  0  0
   39.9330   31.6600   39.4750 C   0  0  0  0  0  0  0  0  0  0  0  0
   40.7880   32.5920   40.0680 C   0  0  0  0  0  0  0  0  0  0  0  0
   41.0580   32.9800   41.3460 N   0  0  0  0  0  0  0  0  0  0  0  0
   42.0030   33.9490   41.3000 C   0  0  0  0  0  0  0  0  0  0  0  0
   42.3010   34.1430   40.0040 N   0  0  0  0  0  0  0  0  0  0  0  0
   41.5810   33.3350   39.2190 C   0  0  0  0  0  0  0  0  0  0  0  0
   41.5850   33.2210   37.8530 C   0  0  0  0  0  0  0  0  0  0  0  0
   40.6590   32.1240   36.2040 H   0  0  0  0  0  0  0  0  0  0  0  0
   40.6120   32.5940   42.1930 H   0  0  0  0  0  0  0  0  0  0  0  0
   42.4220   34.4560   42.1880 H   0  0  0  0  0  0  0  0  0  0  0  0
   42.2120   33.8110   37.2160 H   0  0  0  0  0  0  0  0  0  0  0  0
   39.1260   30.8950   40.4160 C   0  0  0  0  0  0  0  0  0  0  0  0
   37.8270   31.1490   40.8240 C   0  0  0  0  0  0  0  0  0  0  0  0
   37.3660   32.0190   40.3700 H   0  0  0  0  0  0  0  0  0  0  0  0
   37.2070   30.3250   41.7370 C   0  0  0  0  0  3  0  0  0  0  0  0
   37.8980   29.2280   42.2480 C   0  0  0  0  0  0  0  0  0  0  0  0
   37.2900   28.4350   43.1330 N   0  0  0  0  0  0  0  0  0  0  0  0
   37.8810   27.3580   43.6780 C   0  0  0  0  0  0  0  0  0  0  0  0
   37.3700   26.7150   44.4050 H   0  0  0  0  0  0  0  0  0  0  0  0
   39.1670   27.0600   43.3090 C   0  0  0  0  0  3  0  0  0  0  0  0
   39.8300   27.8570   42.3960 C   0  0  0  0  0  3  0  0  0  0  0  0
   39.2040   28.9560   41.8520 C   0  0  0  0  0  0  0  0  0  0  0  0
   39.8030   29.8010   40.9320 C   0  0  0  0  0  3  0  0  0  0  0  0
   36.9200   29.9480   36.6740 C   0  0  0  0  0  0  0  0  0  0  0  0
   37.3530   28.6190   36.4660 C   0  0  0  0  0  0  0  0  0  0  0  0
   38.6680   28.2870   36.8110 C   0  0  0  0  0  0  0  0  0  0  0  0
   39.4450   29.2810   37.3290 N   0  0  0  0  0  0  0  0  0  0  0  0
   39.0160   30.5490   37.5220 C   0  0  0  0  0  0  0  0  0  0  0  0
   37.7670   30.8650   37.1930 N   0  0  0  0  0  0  0  0  0  0  0  0
   35.9090   30.2660   36.4260 H   0  0  0  0  0  0  0  0  0  0  0  0
   36.6780   27.9010   36.0540 H   0  0  0  0  0  0  0  0  0  0  0  0
   39.0420   27.2870   36.6720 H   0  0  0  0  0  0  0  0  0  0  0  0
  1  9  2  0  0  0  0
  1  2  1  0  0  0  0
  2  3  2  0  0  0  0
  3  4  1  0  0  0  0
  3 14  1  0  0  0  0
  4  5  1  0  0  0  0
  5 11  1  0  0  0  0
  6  5  1  0  0  0  0
  6 12  1  0  0  0  0
  7  6  2  0  0  0  0
  8  7  1  0  0  0  0
  8  4  2  0  0  0  0
  9  8  1  0  0  0  0
 10  1  1  0  0  0  0
 13  9  1  0  0  0  0
 14 15  2  0  0  0  0
 14 25  1  0  0  0  0
 15 17  1  0  0  0  0
 16 15  1  0  0  0  0
 17 18  2  0  0  0  0
 18 19  1  0  0  0  0
 19 20  2  0  0  0  0
 20 21  1  0  0  0  0
 22 20  1  0  0  0  0
 23 22  2  0  0  0  0
 24 18  1  0  0  0  0
 24 23  1  0  0  0  0
 25 24  2  0  0  0  0
 26 31  1  0  0  0  0
 27 26  2  0  0  0  0
 27 28  1  0  0  0  0
 28 29  2  0  0  0  0
 29 30  1  0  0  0  0
 30  2  1  0  0  0  0
 31 30  2  0  0  0  0
 32 26  1  0  0  0  0
 33 27  1  0  0  0  0
 34 28  1  0  0  0  0
M  END
>  <minimizedAffinity>
-5.55285168

$$$$

 OpenBabel03252509123D

 34 38  0  0  0  0  0  0  0  0999 V2000
   36.6400   24.1490   40.9400 C   0  0  0  0  0  0  0  0  0  0  0  0
   37.2250   25.3770   40.7620 C   0  0  0  0  0  0  0  0  0  0  0  0
   37.0230   26.1550   39.6190 C   0  0  0  0  0  0  0  0  0  0  0  0
   36.1910   25.6700   38.6070 C   0  0  0  0  0  0  0  0  0  0  0  0
   35.7750   26.1300   37.3940 N   0  0  0  0  0  0  0  0  0  0  0  0
   34.9560   25.1990   36.8490 C   0  0  0  0  0  0  0  0  0  0  0  0
   34.8800   24.1850   37.7280 N   0  0  0  0  0  0  0  0  0  0  0  0
   35.6180   24.4320   38.8140 C   0  0  0  0  0  0  0  0  0  0  0  0
   35.8080   23.6600   39.9310 C   0  0  0  0  0  0  0  0  0  0  0  0
   36.8510   23.6190   41.8510 H   0  0  0  0  0  0  0  0  0  0  0  0
   36.0460   27.0340   36.9740 H   0  0  0  0  0  0  0  0  0  0  0  0
   34.4660   25.2980   35.8640 H   0  0  0  0  0  0  0  0  0  0  0  0
   35.3500   22.7010   40.0650 H   0  0  0  0  0  0  0  0  0  0  0  0
   37.6110   27.4580   39.3460 C   0  0  0  0  0  0  0  0  0  0  0  0
   38.8100   27.7340   38.7100 C   0  0  0  0  0  0  0  0  0  0  0  0
   39.3600   26.8620   38.3710 H   0  0  0  0  0  0  0  0  0  0  0  0
   39.2300   29.0350   38.5390 C   0  0  0  0  0  3  0  0  0  0  0  0
   38.4340   30.0770   39.0120 C   0  0  0  0  0  0  0  0  0  0  0  0
   38.8480   31.3350   38.8430 N   0  0  0  0  0  0  0  0  0  0  0  0
   38.1460   32.3990   39.2670 C   0  0  0  0  0  0  0  0  0  0  0  0
   38.4980   33.4280   39.1230 H   0  0  0  0  0  0  0  0  0  0  0  0
   36.9500   32.1850   39.9030 C   0  0  0  0  0  3  0  0  0  0  0  0
   36.4890   30.8980   40.0970 C   0  0  0  0  0  3  0  0  0  0  0  0
   37.2260   29.8220   39.6540 C   0  0  0  0  0  0  0  0  0  0  0  0
   36.8280   28.5040   39.8110 C   0  0  0  0  0  3  0  0  0  0  0  0
   38.4470   27.2600   43.6790 C   0  0  0  0  0  0  0  0  0  0  0  0
   39.8250   26.9470   43.6800 C   0  0  0  0  0  0  0  0  0  0  0  0
   40.3140   26.0970   42.6820 C   0  0  0  0  0  0  0  0  0  0  0  0
   39.4150   25.6250   41.7700 N   0  0  0  0  0  0  0  0  0  0  0  0
   38.0980   25.9330   41.7830 C   0  0  0  0  0  0  0  0  0  0  0  0
   37.6330   26.7410   42.7320 N   0  0  0  0  0  0  0  0  0  0  0  0
   38.0090   27.9160   44.4290 H   0  0  0  0  0  0  0  0  0  0  0  0
   40.4610   27.3600   44.4320 H   0  0  0  0  0  0  0  0  0  0  0  0
   41.3570   25.8310   42.6410 H   0  0  0  0  0  0  0  0  0  0  0  0
  1 10  1  0  0  0  0
  2  1  1  0  0  0  0
  2 30  1  0  0  0  0
  3  2  2  0  0  0  0
  4  8  2  0  0  0  0
  4  3  1  0  0  0  0
  5  4  1  0  0  0  0
  6  5  1  0  0  0  0
  6  7  2  0  0  0  0
  7  8  1  0  0  0  0
  8  9  1  0  0  0  0
  9 13  1  0  0  0  0
  9  1  2  0  0  0  0
 11  5  1  0  0  0  0
 12  6  1  0  0  0  0
 14  3  1  0  0  0  0
 14 25  1  0  0  0  0
 15 14  2  0  0  0  0
 16 15  1  0  0  0  0
 17 15  1  0  0  0  0
 17 18  2  0  0  0  0
 18 24  1  0  0  0  0
 19 18  1  0  0  0  0
 19 20  2  0  0  0  0
 20 22  1  0  0  0  0
 21 20  1  0  0  0  0
 22 23  2  0  0  0  0
 24 25  2  0  0  0  0
 24 23  1  0  0  0  0
 26 27  1  0  0  0  0
 26 32  1  0  0  0  0
 27 33  1  0  0  0  0
 28 27  2  0  0  0  0
 29 30  2  0  0  0  0
 29 28  1  0  0  0  0
 30 31  1  0  0  0  0
 31 26  2  0  0  0  0
 34 28  1  0  0  0  0
M  END
>  <minimizedAffinity>
-5.5448513

$$$$
