
     RDKit          3D

 54 58  0  0  0  0  0  0  0  0999 V2000
   47.3293   33.6118   42.8340 C   0  0  0  0  0  0  0  0  0  0  0  0
   48.4235   33.4228   43.4423 O   0  0  0  0  0  0  0  0  0  0  0  0
   47.0012   33.0902   41.5303 N   0  0  0  0  0  0  0  0  0  0  0  0
   45.7960   32.4701   41.0290 C   0  0  0  0  0  0  0  0  0  0  0  0
   45.3852   33.1856   39.7340 C   0  0  0  0  0  0  0  0  0  0  0  0
   46.4325   33.0087   38.6819 C   0  0  0  0  0  0  0  0  0  0  0  0
   47.7049   32.4982   39.3070 C   0  0  0  0  0  0  0  0  0  0  0  0
   48.0779   33.2435   40.5729 C   0  0  2  0  0  0  0  0  0  0  0  0
   45.9583   35.6525   42.9246 C   0  0  0  0  0  0  0  0  0  0  0  0
   46.3338   34.4216   43.5174 C   0  0  0  0  0  0  0  0  0  0  0  0
   45.7522   34.0360   44.7035 C   0  0  0  0  0  0  0  0  0  0  0  0
   44.8370   34.8568   45.2593 N   0  0  0  0  0  0  0  0  0  0  0  0
   44.4666   36.0438   44.6996 C   0  0  0  0  0  0  0  0  0  0  0  0
   45.0367   36.4120   43.5459 N   0  0  0  0  0  0  0  0  0  0  0  0
   46.1527   32.7750   45.2881 C   0  0  0  0  0  0  0  0  0  0  0  0
   45.7709   31.6046   44.7106 C   0  0  0  0  0  0  0  0  0  0  0  0
   46.1685   30.4186   45.2908 C   0  0  0  0  0  0  0  0  0  0  0  0
   46.9438   30.3637   46.4422 C   0  0  0  0  0  0  0  0  0  0  0  0
   47.3029   31.5917   46.9866 C   0  0  0  0  0  0  0  0  0  0  0  0
   46.9008   32.7225   46.3992 N   0  0  0  0  0  0  0  0  0  0  0  0
   49.4082   32.7691   41.0070 C   0  0  0  0  0  0  0  0  0  0  0  0
   45.8773   31.3986   40.8287 H   0  0  0  0  0  0  0  0  0  0  0  0
   44.9361   32.6574   41.7313 H   0  0  0  0  0  0  0  0  0  0  0  0
   44.4671   32.6986   39.3985 H   0  0  0  0  0  0  0  0  0  0  0  0
   45.2362   34.2600   39.9960 H   0  0  0  0  0  0  0  0  0  0  0  0
   46.1170   32.2552   37.9270 H   0  0  0  0  0  0  0  0  0  0  0  0
   46.6384   34.0064   38.2184 H   0  0  0  0  0  0  0  0  0  0  0  0
   48.5568   32.6785   38.5954 H   0  0  0  0  0  0  0  0  0  0  0  0
   47.6565   31.4103   39.4770 H   0  0  0  0  0  0  0  0  0  0  0  0
   48.1414   34.3119   40.3113 H   0  0  0  0  0  0  0  0  0  0  0  0
   46.4196   35.9430   41.9978 H   0  0  0  0  0  0  0  0  0  0  0  0
   43.7328   36.6539   45.1893 H   0  0  0  0  0  0  0  0  0  0  0  0
   45.1762   31.5156   43.8264 H   0  0  0  0  0  0  0  0  0  0  0  0
   45.9099   29.4298   44.8977 H   0  0  0  0  0  0  0  0  0  0  0  0
   47.2713   29.4637   46.9207 H   0  0  0  0  0  0  0  0  0  0  0  0
   47.9052   31.5992   47.8815 H   0  0  0  0  0  0  0  0  0  0  0  0
   49.9401   33.4447   41.7204 H   0  0  0  0  0  0  0  0  0  0  0  0
   50.0249   32.9830   40.0925 H   0  0  0  0  0  0  0  0  0  0  0  0
   49.5881   31.3534   41.2942 C   0  0  0  0  0  0  0  0  0  0  0  0
   49.9241   30.2327   40.5766 C   0  0  0  0  0  0  0  0  0  0  0  0
   50.0981   30.3644   39.5447 H   0  0  0  0  0  0  0  0  0  0  0  0
   50.0541   28.9505   41.0407 C   0  0  0  0  0  0  0  0  0  0  0  0
   49.8416   28.6739   42.3537 C   0  0  0  0  0  0  0  0  0  0  0  0
   49.9662   27.4286   42.8130 N   0  0  0  0  0  0  0  0  0  0  0  0
   49.7723   27.0776   44.0968 C   0  0  0  0  0  0  0  0  0  0  0  0
   49.8654   26.0775   44.5006 H   0  0  0  0  0  0  0  0  0  0  0  0
   49.4265   28.1237   44.9267 C   0  0  0  0  0  0  0  0  0  0  0  0
   49.2807   29.4345   44.5168 C   0  0  0  0  0  0  0  0  0  0  0  0
   49.5010   29.6901   43.1832 C   0  0  0  0  0  0  0  0  0  0  0  0
   49.3876   30.9652   42.6420 C   0  0  0  0  0  0  0  0  0  0  0  0
   50.3247   28.1545   40.3712 H   0  0  0  0  0  0  0  0  0  0  0  0
   49.2565   27.8933   45.9849 H   0  0  0  0  0  0  0  0  0  0  0  0
   49.0116   30.2380   45.1717 H   0  0  0  0  0  0  0  0  0  0  0  0
   49.1021   31.7099   43.4000 H   0  0  0  0  0  0  0  0  0  0  0  0
  1  2  2  0
  1 10  1  0
  3  1  1  0
  4  3  1  0
  5  4  1  0
  6  7  1  0
  6  5  1  0
  7  8  1  0
  8 21  1  0
  8  3  1  0
  9 10  2  0
  9 14  1  0
 10 11  1  0
 11 12  2  0
 11 15  1  0
 13 12  1  0
 14 13  2  0
 15 20  1  0
 16 15  2  0
 16 17  1  0
 17 18  2  0
 18 19  1  0
 20 19  2  0
  4 22  1  0
  4 23  1  0
  5 24  1  0
  5 25  1  0
  6 26  1  0
  6 27  1  0
  7 28  1  0
  7 29  1  0
  8 30  1  6
  9 31  1  0
 13 32  1  0
 16 33  1  0
 17 34  1  0
 18 35  1  0
 19 36  1  0
 21 37  1  0
 21 38  1  0
 39 40  2  0
 40 41  1  0
 40 42  1  0
 42 43  2  0
 43 44  1  0
 44 45  2  0
 45 46  1  0
 45 47  1  0
 47 48  2  0
 48 49  1  0
 49 50  2  0
 50 39  1  0
 49 43  1  0
 42 51  1  0
 47 52  1  0
 48 53  1  0
 50 54  1  0
 21 39  1  0
M  ISO  8  22  13  23  13  24  13  25  13  26  13  27  13  28  13  29  13
M  ISO  8  30  13  31  14  32  14  33  14  34  14  35  14  36  14  37   8
M  ISO  3  38   8  41  16  46  16
M  END
>  <DihAtoms>  (1) 
7,20,38,39

>  <DihDeg>  (1) 
-91.72404346983588

$$$$
