REMARK  Name = 
REMARK  7 active torsions:
REMARK  status: ('A' for Active; 'I' for Inactive)
REMARK    1  A    between atoms: C_3  and  C_12
REMARK    2  A    between atoms: C_7  and  O_15
REMARK    3  A    between atoms: C_8  and  N_14
REMARK    4  A    between atoms: O_15  and  P_17
REMARK    5  A    between atoms: P_17  and  O_18
REMARK    6  A    between atoms: P_17  and  O_19
REMARK    7  A    between atoms: O_19  and  C_28
REMARK                            x       y       z     vdW  Elec       q    Type
REMARK                         _______ _______ _______ _____ _____    ______ ____
ROOT
ATOM      1  F   UNL     1      45.139  33.504  41.158  0.00  0.00    +0.000 F 
ATOM      2  C   UNL     1      46.331  34.086  41.048  0.00  0.00    +0.000 A 
ATOM      3  C   UNL     1      46.832  34.799  42.112  0.00  0.00    +0.000 A 
ATOM      4  C   UNL     1      48.073  35.439  42.084  0.00  0.00    +0.000 A 
ATOM      5  C   UNL     1      48.854  35.360  40.930  0.00  0.00    +0.000 A 
ATOM      6  C   UNL     1      48.316  34.633  39.884  0.00  0.00    +0.000 A 
ATOM      7  C   UNL     1      47.110  34.007  39.898  0.00  0.00    +0.000 A 
ATOM      8  H   UNL     1      48.397  35.983  42.966  0.00  0.00    +0.000 HD
ATOM      9  H   UNL     1      49.805  35.867  40.951  0.00  0.00    +0.000 HD
ATOM     10  H   UNL     1      49.022  34.644  39.059  0.00  0.00    +0.000 HD
ENDROOT
BRANCH   3  15
ATOM     11  C   UNL     1      45.452  34.018  45.425  0.00  0.00    +0.000 A 
ATOM     12  C   UNL     1      44.609  35.128  45.656  0.00  0.00    +0.000 A 
ATOM     13  C   UNL     1      44.517  36.146  44.667  0.00  0.00    +0.000 A 
ATOM     14  N   UNL     1      45.268  35.972  43.540  0.00  0.00    +0.000 NA
ATOM     15  C   UNL     1      46.053  34.912  43.356  0.00  0.00    +0.000 A 
ATOM     16  N   UNL     1      46.141  33.948  44.290  0.00  0.00    +0.000 NA
ATOM     17  H   UNL     1      44.023  35.247  46.553  0.00  0.00    +0.000 HD
ATOM     18  H   UNL     1      43.885  37.003  44.812  0.00  0.00    +0.000 HD
BRANCH  11  19
ATOM     19  N   UNL     1      45.531  33.015  46.420  0.00  0.00    +0.000 N 
ATOM     20  H   UNL     1      45.562  33.356  47.407  0.00  0.00    +0.000 HD
ATOM     21  H   UNL     1      45.563  31.975  46.324  0.00  0.00    +0.000 HD
ENDBRANCH  11  19
ENDBRANCH   3  15
BRANCH   7  22
ATOM     22  O   UNL     1      46.673  33.315  38.802  0.00  0.00    +0.000 OA
BRANCH  22  24
ATOM     23  O   UNL     1      48.087  34.657  37.000  0.00  0.00    +0.000 OA
ATOM     24  P   UNL     1      47.323  33.376  37.249  0.00  0.00    +0.000 P 
BRANCH  24  25
ATOM     25  O   UNL     1      46.060  33.207  36.125  0.00  0.00    +0.000 OA
ATOM     26  H   UNL     1      46.268  32.637  35.369  0.00  0.00    +0.000 HD
ENDBRANCH  24  25
BRANCH  24  27
ATOM     27  O   UNL     1      48.372  32.077  36.934  0.00  0.00    +0.000 OA
BRANCH  27  28
ATOM     28  C   UNL     1      47.950  30.890  36.319  0.00  0.00    +0.000 A 
ATOM     29  C   UNL     1      46.724  30.788  35.676  0.00  0.00    +0.000 A 
ATOM     30  H   UNL     1      46.092  31.647  35.657  0.00  0.00    +0.000 HD
ATOM     31  C   UNL     1      46.392  29.572  35.096  0.00  0.00    +0.000 A 
ATOM     32  C   UNL     1      47.271  28.510  35.167  0.00  0.00    +0.000 A 
ATOM     33  N   UNL     1      46.999  27.304  34.620  0.00  0.00    +0.000 NA
ATOM     34  C   UNL     1      47.887  26.277  34.708  0.00  0.00    +0.000 A 
ATOM     35  H   UNL     1      47.653  25.309  34.261  0.00  0.00    +0.000 HD
ATOM     36  C   UNL     1      49.108  26.369  35.345  0.00  0.00    +0.000 A 
ATOM     37  C   UNL     1      49.424  27.603  35.924  0.00  0.00    +0.000 A 
ATOM     38  C   UNL     1      48.489  28.610  35.806  0.00  0.00    +0.000 A 
ATOM     39  C   UNL     1      48.851  29.823  36.400  0.00  0.00    +0.000 A 
ENDBRANCH  27  28
ENDBRANCH  24  27
ENDBRANCH  22  24
ENDBRANCH   7  22
TORSDOF 7
