
 OpenBabel03252500323D

 46 50  0  0  1  0  0  0  0  0999 V2000
   46.0420   31.6690   47.3400 N   0  0  0  0  0  0  0  0  0  0  0  0
   46.8040   32.5220   48.1910 C   0  0  0  0  0  0  0  0  0  0  0  0
   48.2170   31.9930   48.3760 C   0  0  0  0  0  0  0  0  0  0  0  0
   48.0760   30.6910   49.1480 C   0  0  0  0  0  0  0  0  0  0  0  0
   47.3130   29.7560   48.2190 C   0  0  0  0  0  0  0  0  0  0  0  0
   45.9900   30.3570   47.7790 C   0  0  2  0  0  0  0  0  0  0  0  0
   46.7110   33.5850   48.0690 H   0  0  0  0  0  0  0  0  0  0  0  0
   46.3260   32.3540   49.2090 H   0  0  0  0  0  0  0  0  0  0  0  0
   48.8500   32.7220   48.8940 H   0  0  0  0  0  0  0  0  0  0  0  0
   48.6870   31.7370   47.3850 H   0  0  0  0  0  0  0  0  0  0  0  0
   47.4890   30.8930   50.0680 H   0  0  0  0  0  0  0  0  0  0  0  0
   49.0400   30.2240   49.3610 H   0  0  0  0  0  0  0  0  0  0  0  0
   47.0530   28.8240   48.7760 H   0  0  0  0  0  0  0  0  0  0  0  0
   47.9960   29.5360   47.3860 H   0  0  0  0  0  0  0  0  0  0  0  0
   45.4420   30.4210   48.7840 H   0  0  0  0  0  0  0  0  0  0  0  0
   45.2690   29.3490   47.0190 C   0  0  0  0  0  0  0  0  0  0  0  0
   44.8760   29.3540   45.7000 C   0  0  0  0  0  0  0  0  0  0  0  0
   45.1420   30.2060   45.0970 H   0  0  0  0  0  0  0  0  0  0  0  0
   44.1800   28.3760   45.0280 C   0  0  0  0  0  0  0  0  0  0  0  0
   43.8250   27.2510   45.7370 C   0  0  0  0  0  0  0  0  0  0  0  0
   43.1450   26.2720   45.1180 N   0  0  0  0  0  0  0  0  0  0  0  0
   42.7600   25.1400   45.7360 C   0  0  0  0  0  0  0  0  0  0  0  0
   42.2080   24.3550   45.2220 H   0  0  0  0  0  0  0  0  0  0  0  0
   43.1030   25.0280   47.0680 C   0  0  0  0  0  0  0  0  0  0  0  0
   43.7990   25.9980   47.7550 C   0  0  0  0  0  0  0  0  0  0  0  0
   44.1570   27.1170   47.0670 C   0  0  0  0  0  0  0  0  0  0  0  0
   44.8460   28.1490   47.6240 C   0  0  0  0  0  0  0  0  0  0  0  0
   46.0380   32.0240   45.9690 C   0  0  0  0  0  0  0  0  0  0  0  0
   45.1470   31.6840   45.4110 H   0  0  0  0  0  0  0  0  0  0  0  0
   46.9580   31.5690   45.4870 H   0  0  0  0  0  0  0  0  0  0  0  0
   46.1240   34.1620   44.4850 C   0  0  1  0  0  0  0  0  0  0  0  0
   45.1260   34.3710   45.4690 C   0  0  0  0  0  0  0  0  0  0  0  0
   46.2530   33.4920   45.8680 C   0  0  1  0  0  0  0  0  0  0  0  0
   46.8670   34.9710   44.2570 H   0  0  0  0  0  0  0  0  0  0  0  0
   44.1180   33.8940   45.4400 H   0  0  0  0  0  0  0  0  0  0  0  0
   45.0790   35.3540   46.0000 H   0  0  0  0  0  0  0  0  0  0  0  0
   47.1630   33.8650   46.3670 H   0  0  0  0  0  0  0  0  0  0  0  0
   44.6770   32.9800   42.8360 C   0  0  0  0  0  0  0  0  0  0  0  0
   45.9900   33.2670   43.3050 C   0  0  0  0  0  0  0  0  0  0  0  0
   47.0490   32.6980   42.6460 C   0  0  0  0  0  0  0  0  0  0  0  0
   46.7800   31.8880   41.5750 N   0  0  0  0  0  0  0  0  0  0  0  0
   45.5290   31.6300   41.1470 C   0  0  0  0  0  0  0  0  0  0  0  0
   44.4440   32.1760   41.7750 N   0  0  0  0  0  0  0  0  0  0  0  0
   43.7780   33.3840   43.2940 H   0  0  0  0  0  0  0  0  0  0  0  0
   48.0540   32.9040   42.9870 H   0  0  0  0  0  0  0  0  0  0  0  0
   45.4610   30.9740   40.2900 H   0  0  0  0  0  0  0  0  0  0  0  0
  1  6  1  0  0  0  0
  1  2  1  0  0  0  0
  2  3  1  0  0  0  0
  2  8  1  0  0  0  0
  3  9  1  0  0  0  0
  3  4  1  0  0  0  0
  4 12  1  0  0  0  0
  4 11  1  0  0  0  0
  5 13  1  0  0  0  0
  5  4  1  0  0  0  0
  6  5  1  0  0  0  0
  6 15  1  1  0  0  0
  7  2  1  0  0  0  0
 10  3  1  0  0  0  0
 14  5  1  0  0  0  0
 16 27  1  0  0  0  0
 16  6  1  0  0  0  0
 17 16  2  0  0  0  0
 18 17  1  0  0  0  0
 19 17  1  0  0  0  0
 19 20  2  0  0  0  0
 20 26  1  0  0  0  0
 21 22  2  0  0  0  0
 21 20  1  0  0  0  0
 22 24  1  0  0  0  0
 23 22  1  0  0  0  0
 24 25  2  0  0  0  0
 26 27  2  0  0  0  0
 26 25  1  0  0  0  0
 28  1  1  0  0  0  0
 29 28  1  0  0  0  0
 30 28  1  0  0  0  0
 31 34  1  6  0  0  0
 31 32  1  0  0  0  0
 31 33  1  0  0  0  0
 32 33  1  0  0  0  0
 32 36  1  0  0  0  0
 33 28  1  0  0  0  0
 33 37  1  1  0  0  0
 35 32  1  0  0  0  0
 38 44  1  0  0  0  0
 38 39  1  0  0  0  0
 39 31  1  0  0  0  0
 40 45  1  0  0  0  0
 40 39  2  0  0  0  0
 41 40  1  0  0  0  0
 42 41  2  0  0  0  0
 42 43  1  0  0  0  0
 43 38  2  0  0  0  0
 46 42  1  0  0  0  0
M  END
>  <minimizedAffinity>
-4.89694738

>  <minimizedRMSD>
0.996487319

$$$$
