
 OpenBabel03242519303D

 46 50  0  0  0  0  0  0  0  0999 V2000
   40.8750   34.0460   40.4550 C   0  0  0  0  0  0  0  0  0  0  0  0
   40.3050   35.3490   40.3500 C   0  0  0  0  0  0  0  0  0  0  0  0
   38.9280   35.4730   40.1520 C   0  0  0  0  0  0  0  0  0  0  0  0
   38.2060   34.3070   40.0700 N   0  0  0  0  0  0  0  0  0  0  0  0
   38.8070   33.0690   40.1770 C   0  0  0  0  0  0  0  0  0  0  0  0
   40.1060   32.9670   40.3650 N   0  0  0  0  0  0  0  0  0  0  0  0
   40.7960   36.2890   40.4050 H   0  0  0  0  0  0  0  0  0  0  0  0
   38.4240   36.4170   40.0640 H   0  0  0  0  0  0  0  0  0  0  0  0
   42.3330   34.0330   40.6580 C   0  0  0  0  0  0  0  0  0  0  0  0
   42.8780   32.7770   41.1360 C   0  0  0  0  0  0  0  0  0  0  0  0
   43.4150   32.8140   42.5120 C   0  0  0  0  0  0  0  0  0  0  0  0
   44.4490   33.9220   42.6980 C   0  0  0  0  0  0  0  0  0  0  0  0
   44.1080   35.1870   41.9990 C   0  0  0  0  0  0  0  0  0  0  0  0
   42.6390   35.2170   41.6140 C   0  0  0  0  0  0  0  0  0  0  0  0
   42.8010   34.3860   39.6930 H   0  0  0  0  0  0  0  0  0  0  0  0
   43.7310   32.4580   40.4680 H   0  0  0  0  0  0  0  0  0  0  0  0
   42.1530   31.9540   41.0630 H   0  0  0  0  0  0  0  0  0  0  0  0
   43.9940   31.8620   42.6920 H   0  0  0  0  0  0  0  0  0  0  0  0
   42.6950   32.8640   43.3340 H   0  0  0  0  0  0  0  0  0  0  0  0
   45.4650   33.5490   42.4010 H   0  0  0  0  0  0  0  0  0  0  0  0
   44.5140   34.1230   43.7960 H   0  0  0  0  0  0  0  0  0  0  0  0
   44.6890   35.2670   41.0530 H   0  0  0  0  0  0  0  0  0  0  0  0
   44.2690   36.0780   42.6320 H   0  0  0  0  0  0  0  0  0  0  0  0
   42.3830   36.1440   41.1050 H   0  0  0  0  0  0  0  0  0  0  0  0
   41.9890   35.1050   42.5140 H   0  0  0  0  0  0  0  0  0  0  0  0
   37.8800   31.9550   40.0610 C   0  0  0  0  0  0  0  0  0  0  0  0
   37.3830   31.6510   38.8430 N   0  0  0  0  0  0  0  0  0  0  0  0
   36.5490   30.5930   38.9540 C   0  0  0  0  0  0  0  0  0  0  0  0
   36.5350   30.2430   40.2730 N   0  0  0  0  0  0  0  0  0  0  0  0
   37.3420   31.0690   40.9470 N   0  0  0  0  0  0  0  0  0  0  0  0
   35.9870   30.0980   38.1710 H   0  0  0  0  0  0  0  0  0  0  0  0
   35.7810   29.1550   40.9030 C   0  0  0  0  0  0  0  0  0  0  0  0
   34.9880   28.8740   40.2090 H   0  0  0  0  0  0  0  0  0  0  0  0
   35.3380   29.5120   41.8760 H   0  0  0  0  0  0  0  0  0  0  0  0
   36.6650   28.0290   41.2340 C   0  0  0  0  0  0  0  0  0  0  0  0
   36.6650   26.8920   40.4380 C   0  0  0  0  0  0  0  0  0  0  0  0
   36.0110   26.8210   39.5600 H   0  0  0  0  0  0  0  0  0  0  0  0
   37.4520   25.7830   40.6580 C   0  0  0  0  0  3  0  0  0  0  0  0
   38.2950   25.7970   41.7380 C   0  0  0  0  0  0  0  0  0  0  0  0
   39.0760   24.7080   41.9650 N   0  0  0  0  0  0  0  0  0  0  0  0
   39.9310   24.6540   43.0120 C   0  0  0  0  0  0  0  0  0  0  0  0
   40.5420   23.7960   43.1850 H   0  0  0  0  0  0  0  0  0  0  0  0
   39.9710   25.7600   43.8380 C   0  0  0  0  0  3  0  0  0  0  0  0
   39.2010   26.9140   43.6700 C   0  0  0  0  0  3  0  0  0  0  0  0
   38.3500   26.8950   42.5780 C   0  0  0  0  0  0  0  0  0  0  0  0
   37.5300   27.9720   42.2910 C   0  0  0  0  0  3  0  0  0  0  0  0
  1  9  1  0  0  0  0
  2  7  1  0  0  0  0
  2  1  2  0  0  0  0
  3  2  1  0  0  0  0
  4  3  2  0  0  0  0
  4  5  1  0  0  0  0
  5  6  2  0  0  0  0
  6  1  1  0  0  0  0
  8  3  1  0  0  0  0
  9 10  1  0  0  0  0
  9 14  1  0  0  0  0
 10 11  1  0  0  0  0
 11 18  1  0  0  0  0
 11 12  1  0  0  0  0
 11 19  1  0  0  0  0
 12 21  1  0  0  0  0
 13 23  1  0  0  0  0
 13 12  1  0  0  0  0
 14 13  1  0  0  0  0
 14 25  1  0  0  0  0
 15  9  1  0  0  0  0
 16 10  1  0  0  0  0
 17 10  1  0  0  0  0
 20 12  1  0  0  0  0
 22 13  1  0  0  0  0
 24 14  1  0  0  0  0
 26  5  1  0  0  0  0
 26 30  2  0  0  0  0
 27 28  2  0  0  0  0
 27 26  1  0  0  0  0
 28 29  1  0  0  0  0
 29 32  1  0  0  0  0
 29 30  1  0  0  0  0
 31 28  1  0  0  0  0
 32 35  1  0  0  0  0
 32 34  1  0  0  0  0
 33 32  1  0  0  0  0
 35 46  1  0  0  0  0
 36 38  1  0  0  0  0
 36 35  2  0  0  0  0
 37 36  1  0  0  0  0
 38 39  2  0  0  0  0
 39 40  1  0  0  0  0
 39 45  1  0  0  0  0
 40 41  2  0  0  0  0
 41 42  1  0  0  0  0
 41 43  1  0  0  0  0
 44 43  2  0  0  0  0
 45 44  1  0  0  0  0
 46 45  2  0  0  0  0
M  END
>  <minimizedAffinity>
-7.1742034

$$$$

 OpenBabel03242519303D

 46 50  0  0  0  0  0  0  0  0999 V2000
   40.8660   34.2880   39.1980 C   0  0  0  0  0  0  0  0  0  0  0  0
   40.4520   35.4570   39.9020 C   0  0  0  0  0  0  0  0  0  0  0  0
   39.2140   35.4580   40.5490 C   0  0  0  0  0  0  0  0  0  0  0  0
   38.4670   34.3080   40.4580 N   0  0  0  0  0  0  0  0  0  0  0  0
   38.9140   33.2020   39.7630 C   0  0  0  0  0  0  0  0  0  0  0  0
   40.0830   33.2160   39.1600 N   0  0  0  0  0  0  0  0  0  0  0  0
   40.9720   36.3770   40.0160 H   0  0  0  0  0  0  0  0  0  0  0  0
   38.8320   36.2970   41.0980 H   0  0  0  0  0  0  0  0  0  0  0  0
   42.1830   34.4010   38.5510 C   0  0  0  0  0  0  0  0  0  0  0  0
   42.3350   33.6390   37.3260 C   0  0  0  0  0  0  0  0  0  0  0  0
   43.2790   32.5050   37.4100 C   0  0  0  0  0  0  0  0  0  0  0  0
   44.6530   32.9360   37.9170 C   0  0  0  0  0  0  0  0  0  0  0  0
   44.6040   33.9440   39.0050 C   0  0  0  0  0  0  0  0  0  0  0  0
   43.2230   34.0020   39.6320 C   0  0  0  0  0  0  0  0  0  0  0  0
   42.3910   35.5030   38.4220 H   0  0  0  0  0  0  0  0  0  0  0  0
   42.7200   34.3150   36.5070 H   0  0  0  0  0  0  0  0  0  0  0  0
   41.3730   33.2690   36.9440 H   0  0  0  0  0  0  0  0  0  0  0  0
   43.4750   32.1290   36.3640 H   0  0  0  0  0  0  0  0  0  0  0  0
   42.9580   31.6220   37.9700 H   0  0  0  0  0  0  0  0  0  0  0  0
   45.2840   33.2880   37.0570 H   0  0  0  0  0  0  0  0  0  0  0  0
   45.1600   32.0160   38.3000 H   0  0  0  0  0  0  0  0  0  0  0  0
   44.8130   34.9570   38.5940 H   0  0  0  0  0  0  0  0  0  0  0  0
   45.2990   33.7090   39.8320 H   0  0  0  0  0  0  0  0  0  0  0  0
   43.1830   34.7370   40.4350 H   0  0  0  0  0  0  0  0  0  0  0  0
   42.9280   33.0050   40.0390 H   0  0  0  0  0  0  0  0  0  0  0  0
   37.9830   32.0860   39.7780 C   0  0  0  0  0  0  0  0  0  0  0  0
   37.4990   31.6300   38.6030 N   0  0  0  0  0  0  0  0  0  0  0  0
   36.6590   30.5980   38.8380 C   0  0  0  0  0  0  0  0  0  0  0  0
   36.6280   30.4180   40.1900 N   0  0  0  0  0  0  0  0  0  0  0  0
   37.4310   31.3210   40.7630 N   0  0  0  0  0  0  0  0  0  0  0  0
   36.1030   30.0080   38.1170 H   0  0  0  0  0  0  0  0  0  0  0  0
   35.8630   29.4210   40.9450 C   0  0  0  0  0  0  0  0  0  0  0  0
   34.9900   29.1660   40.3420 H   0  0  0  0  0  0  0  0  0  0  0  0
   35.5380   29.8570   41.9320 H   0  0  0  0  0  0  0  0  0  0  0  0
   36.6930   28.2500   41.2570 C   0  0  0  0  0  0  0  0  0  0  0  0
   36.6410   27.1280   40.4410 C   0  0  0  0  0  0  0  0  0  0  0  0
   35.9870   27.1020   39.5610 H   0  0  0  0  0  0  0  0  0  0  0  0
   37.3760   25.9800   40.6420 C   0  0  0  0  0  3  0  0  0  0  0  0
   38.2170   25.9360   41.7230 C   0  0  0  0  0  0  0  0  0  0  0  0
   38.9470   24.8080   41.9310 N   0  0  0  0  0  0  0  0  0  0  0  0
   39.7970   24.6960   42.9780 C   0  0  0  0  0  0  0  0  0  0  0  0
   40.3670   23.8080   43.1360 H   0  0  0  0  0  0  0  0  0  0  0  0
   39.8860   25.7850   43.8230 C   0  0  0  0  0  3  0  0  0  0  0  0
   39.1710   26.9760   43.6750 C   0  0  0  0  0  3  0  0  0  0  0  0
   38.3220   27.0160   42.5810 C   0  0  0  0  0  0  0  0  0  0  0  0
   37.5530   28.1340   42.3130 C   0  0  0  0  0  3  0  0  0  0  0  0
  1  2  1  0  0  0  0
  2  7  1  0  0  0  0
  2  3  2  0  0  0  0
  3  8  1  0  0  0  0
  4  3  1  0  0  0  0
  5 26  1  0  0  0  0
  5  4  2  0  0  0  0
  6  1  2  0  0  0  0
  6  5  1  0  0  0  0
  9  1  1  0  0  0  0
  9 14  1  0  0  0  0
 10 11  1  0  0  0  0
 10  9  1  0  0  0  0
 11 12  1  0  0  0  0
 11 19  1  0  0  0  0
 12 21  1  0  0  0  0
 12 13  1  0  0  0  0
 13 14  1  0  0  0  0
 13 23  1  0  0  0  0
 14 25  1  0  0  0  0
 14 24  1  0  0  0  0
 15  9  1  0  0  0  0
 16 10  1  0  0  0  0
 17 10  1  0  0  0  0
 18 11  1  0  0  0  0
 20 12  1  0  0  0  0
 22 13  1  0  0  0  0
 26 30  2  0  0  0  0
 27 28  2  0  0  0  0
 27 26  1  0  0  0  0
 28 29  1  0  0  0  0
 29 30  1  0  0  0  0
 29 32  1  0  0  0  0
 31 28  1  0  0  0  0
 32 35  1  0  0  0  0
 32 34  1  0  0  0  0
 33 32  1  0  0  0  0
 35 46  1  0  0  0  0
 36 38  1  0  0  0  0
 36 35  2  0  0  0  0
 37 36  1  0  0  0  0
 38 39  2  0  0  0  0
 39 40  1  0  0  0  0
 39 45  1  0  0  0  0
 40 41  2  0  0  0  0
 41 42  1  0  0  0  0
 41 43  1  0  0  0  0
 44 43  2  0  0  0  0
 45 44  1  0  0  0  0
 46 45  2  0  0  0  0
M  END
>  <minimizedAffinity>
-7.12232018

$$$$

 OpenBabel03242519303D

 46 50  0  0  0  0  0  0  0  0999 V2000
   38.0310   28.4000   42.3550 C   0  0  0  0  0  0  0  0  0  0  0  0
   36.7960   27.7780   42.0060 C   0  0  0  0  0  0  0  0  0  0  0  0
   35.8850   28.4750   41.2080 C   0  0  0  0  0  0  0  0  0  0  0  0
   36.2520   29.7370   40.8100 N   0  0  0  0  0  0  0  0  0  0  0  0
   37.4600   30.2960   41.1760 C   0  0  0  0  0  0  0  0  0  0  0  0
   38.3080   29.6260   41.9270 N   0  0  0  0  0  0  0  0  0  0  0  0
   36.4470   26.8110   42.2740 H   0  0  0  0  0  0  0  0  0  0  0  0
   34.9380   28.0750   40.9030 H   0  0  0  0  0  0  0  0  0  0  0  0
   38.9100   27.5770   43.2010 C   0  0  0  0  0  0  0  0  0  0  0  0
   40.3020   27.9850   43.2220 C   0  0  0  0  0  0  0  0  0  0  0  0
   41.2390   27.0380   42.5820 C   0  0  0  0  0  0  0  0  0  0  0  0
   41.1110   25.6270   43.1520 C   0  0  0  0  0  0  0  0  0  0  0  0
   39.7120   25.2150   43.4320 C   0  0  0  0  0  0  0  0  0  0  0  0
   38.7250   26.1170   42.7120 C   0  0  0  0  0  0  0  0  0  0  0  0
   38.4380   27.5420   44.2260 H   0  0  0  0  0  0  0  0  0  0  0  0
   40.6450   28.1000   44.2920 H   0  0  0  0  0  0  0  0  0  0  0  0
   40.4510   28.9800   42.7810 H   0  0  0  0  0  0  0  0  0  0  0  0
   42.2910   27.3490   42.8450 H   0  0  0  0  0  0  0  0  0  0  0  0
   41.2280   26.9780   41.4900 H   0  0  0  0  0  0  0  0  0  0  0  0
   41.7610   25.5240   44.0620 H   0  0  0  0  0  0  0  0  0  0  0  0
   41.5480   24.9310   42.3940 H   0  0  0  0  0  0  0  0  0  0  0  0
   39.4990   25.3100   44.5200 H   0  0  0  0  0  0  0  0  0  0  0  0
   39.4940   24.1910   43.0790 H   0  0  0  0  0  0  0  0  0  0  0  0
   37.6980   25.8150   42.9090 H   0  0  0  0  0  0  0  0  0  0  0  0
   38.9020   26.1010   41.6090 H   0  0  0  0  0  0  0  0  0  0  0  0
   37.6650   31.6390   40.6600 C   0  0  0  0  0  0  0  0  0  0  0  0
   36.8950   32.0640   39.6350 N   0  0  0  0  0  0  0  0  0  0  0  0
   37.2440   33.3290   39.3120 C   0  0  0  0  0  0  0  0  0  0  0  0
   38.2500   33.6870   40.1600 N   0  0  0  0  0  0  0  0  0  0  0  0
   38.5080   32.6620   40.9800 N   0  0  0  0  0  0  0  0  0  0  0  0
   36.8260   33.9620   38.5370 H   0  0  0  0  0  0  0  0  0  0  0  0
   38.9670   34.9650   40.2110 C   0  0  0  0  0  0  0  0  0  0  0  0
   38.6200   35.4890   41.1020 H   0  0  0  0  0  0  0  0  0  0  0  0
   38.7350   35.5700   39.2890 H   0  0  0  0  0  0  0  0  0  0  0  0
   40.4210   34.7490   40.2150 C   0  0  0  0  0  0  0  0  0  0  0  0
   41.0150   34.0270   39.1890 C   0  0  0  0  0  0  0  0  0  0  0  0
   40.4140   33.6130   38.3710 H   0  0  0  0  0  0  0  0  0  0  0  0
   42.3650   33.7680   39.0950 C   0  0  0  0  0  3  0  0  0  0  0  0
   43.1830   34.2530   40.0820 C   0  0  0  0  0  0  0  0  0  0  0  0
   44.5170   34.0020   40.0000 N   0  0  0  0  0  0  0  0  0  0  0  0
   45.3810   34.4510   40.9390 C   0  0  0  0  0  0  0  0  0  0  0  0
   46.4270   34.2510   40.8690 H   0  0  0  0  0  0  0  0  0  0  0  0
   44.8410   35.1760   41.9840 C   0  0  0  0  0  3  0  0  0  0  0  0
   43.4850   35.4740   42.1370 C   0  0  0  0  0  3  0  0  0  0  0  0
   42.6620   34.9810   41.1370 C   0  0  0  0  0  0  0  0  0  0  0  0
   41.2970   35.2010   41.1620 C   0  0  0  0  0  3  0  0  0  0  0  0
  1  9  1  0  0  0  0
  2  7  1  0  0  0  0
  2  1  1  0  0  0  0
  3  2  2  0  0  0  0
  4  5  2  0  0  0  0
  4  3  1  0  0  0  0
  5  6  1  0  0  0  0
  6  1  2  0  0  0  0
  8  3  1  0  0  0  0
  9 10  1  0  0  0  0
  9 15  1  0  0  0  0
 10 16  1  0  0  0  0
 11 18  1  0  0  0  0
 11 12  1  0  0  0  0
 11 10  1  0  0  0  0
 12 13  1  0  0  0  0
 12 20  1  0  0  0  0
 13 22  1  0  0  0  0
 14 24  1  0  0  0  0
 14  9  1  0  0  0  0
 14 13  1  0  0  0  0
 17 10  1  0  0  0  0
 19 11  1  0  0  0  0
 21 12  1  0  0  0  0
 23 13  1  0  0  0  0
 25 14  1  0  0  0  0
 26 30  2  0  0  0  0
 26  5  1  0  0  0  0
 27 26  1  0  0  0  0
 28 27  2  0  0  0  0
 28 29  1  0  0  0  0
 29 32  1  0  0  0  0
 29 30  1  0  0  0  0
 31 28  1  0  0  0  0
 32 35  1  0  0  0  0
 32 33  1  0  0  0  0
 34 32  1  0  0  0  0
 35 46  1  0  0  0  0
 36 35  2  0  0  0  0
 37 36  1  0  0  0  0
 38 36  1  0  0  0  0
 38 39  2  0  0  0  0
 39 45  1  0  0  0  0
 40 39  1  0  0  0  0
 40 41  2  0  0  0  0
 41 43  1  0  0  0  0
 42 41  1  0  0  0  0
 43 44  2  0  0  0  0
 45 46  2  0  0  0  0
 45 44  1  0  0  0  0
M  END
>  <minimizedAffinity>
-6.99307299

$$$$

 OpenBabel03242519303D

 46 50  0  0  0  0  0  0  0  0999 V2000
   37.0130   26.5270   42.1020 C   0  0  0  0  0  0  0  0  0  0  0  0
   37.2260   26.8430   43.4760 C   0  0  0  0  0  0  0  0  0  0  0  0
   37.3750   28.1810   43.8500 C   0  0  0  0  0  0  0  0  0  0  0  0
   37.3040   29.1150   42.8460 N   0  0  0  0  0  0  0  0  0  0  0  0
   37.0960   28.7570   41.5290 C   0  0  0  0  0  0  0  0  0  0  0  0
   36.9570   27.4920   41.1920 N   0  0  0  0  0  0  0  0  0  0  0  0
   37.2910   26.1790   44.3030 H   0  0  0  0  0  0  0  0  0  0  0  0
   37.5380   28.4990   44.8620 H   0  0  0  0  0  0  0  0  0  0  0  0
   36.8750   25.0880   41.8220 C   0  0  0  0  0  0  0  0  0  0  0  0
   37.9920   24.2680   42.2490 C   0  0  0  0  0  0  0  0  0  0  0  0
   38.7800   23.6670   41.1530 C   0  0  0  0  0  0  0  0  0  0  0  0
   37.9070   22.8760   40.1820 C   0  0  0  0  0  0  0  0  0  0  0  0
   36.5970   23.5120   39.8940 C   0  0  0  0  0  0  0  0  0  0  0  0
   36.6030   24.9760   40.2990 C   0  0  0  0  0  0  0  0  0  0  0  0
   35.8870   24.7630   42.2600 H   0  0  0  0  0  0  0  0  0  0  0  0
   37.6110   23.4090   42.8760 H   0  0  0  0  0  0  0  0  0  0  0  0
   38.6750   24.8100   42.9180 H   0  0  0  0  0  0  0  0  0  0  0  0
   39.4730   22.8950   41.5970 H   0  0  0  0  0  0  0  0  0  0  0  0
   39.4320   24.3320   40.5780 H   0  0  0  0  0  0  0  0  0  0  0  0
   37.7810   21.8240   40.5540 H   0  0  0  0  0  0  0  0  0  0  0  0
   38.4830   22.7870   39.2280 H   0  0  0  0  0  0  0  0  0  0  0  0
   35.7960   23.0180   40.4880 H   0  0  0  0  0  0  0  0  0  0  0  0
   36.3480   23.5000   38.8180 H   0  0  0  0  0  0  0  0  0  0  0  0
   35.6460   25.4490   40.0850 H   0  0  0  0  0  0  0  0  0  0  0  0
   37.4100   25.5330   39.7660 H   0  0  0  0  0  0  0  0  0  0  0  0
   37.0560   29.8860   40.6140 C   0  0  0  0  0  0  0  0  0  0  0  0
   36.7250   29.6620   39.3240 N   0  0  0  0  0  0  0  0  0  0  0  0
   36.7450   30.8340   38.6510 C   0  0  0  0  0  0  0  0  0  0  0  0
   37.0970   31.7970   39.5500 N   0  0  0  0  0  0  0  0  0  0  0  0
   37.2870   31.2230   40.7430 N   0  0  0  0  0  0  0  0  0  0  0  0
   36.5300   31.0080   37.6020 H   0  0  0  0  0  0  0  0  0  0  0  0
   37.2580   33.2340   39.3080 C   0  0  0  0  0  0  0  0  0  0  0  0
   36.4470   33.7380   39.8350 H   0  0  0  0  0  0  0  0  0  0  0  0
   37.1930   33.4440   38.2030 H   0  0  0  0  0  0  0  0  0  0  0  0
   38.5840   33.6930   39.7440 C   0  0  0  0  0  0  0  0  0  0  0  0
   38.7250   34.9460   40.3250 C   0  0  0  0  0  0  0  0  0  0  0  0
   37.8580   35.6020   40.4650 H   0  0  0  0  0  0  0  0  0  0  0  0
   39.9190   35.4720   40.7680 C   0  0  0  0  0  3  0  0  0  0  0  0
   41.0500   34.7100   40.6260 C   0  0  0  0  0  0  0  0  0  0  0  0
   42.2330   35.2200   41.0590 N   0  0  0  0  0  0  0  0  0  0  0  0
   43.3880   34.5230   40.9510 C   0  0  0  0  0  0  0  0  0  0  0  0
   44.3140   34.9290   41.2920 H   0  0  0  0  0  0  0  0  0  0  0  0
   43.3030   33.2690   40.3780 C   0  0  0  0  0  3  0  0  0  0  0  0
   42.1270   32.6780   39.9110 C   0  0  0  0  0  3  0  0  0  0  0  0
   40.9870   33.4510   40.0560 C   0  0  0  0  0  0  0  0  0  0  0  0
   39.7520   32.9910   39.6360 C   0  0  0  0  0  3  0  0  0  0  0  0
  1  2  1  0  0  0  0
  2  3  2  0  0  0  0
  2  7  1  0  0  0  0
  3  8  1  0  0  0  0
  4  3  1  0  0  0  0
  5  4  2  0  0  0  0
  6  5  1  0  0  0  0
  6  1  2  0  0  0  0
  9  1  1  0  0  0  0
  9 10  1  0  0  0  0
  9 15  1  0  0  0  0
 10 16  1  0  0  0  0
 10 17  1  0  0  0  0
 11 18  1  0  0  0  0
 11 10  1  0  0  0  0
 12 20  1  0  0  0  0
 12 11  1  0  0  0  0
 13 12  1  0  0  0  0
 13 14  1  0  0  0  0
 13 22  1  0  0  0  0
 14  9  1  0  0  0  0
 19 11  1  0  0  0  0
 21 12  1  0  0  0  0
 23 13  1  0  0  0  0
 24 14  1  0  0  0  0
 25 14  1  0  0  0  0
 26 30  2  0  0  0  0
 26  5  1  0  0  0  0
 27 26  1  0  0  0  0
 28 27  2  0  0  0  0
 28 29  1  0  0  0  0
 29 30  1  0  0  0  0
 31 28  1  0  0  0  0
 32 29  1  0  0  0  0
 32 35  1  0  0  0  0
 32 33  1  0  0  0  0
 34 32  1  0  0  0  0
 35 36  1  0  0  0  0
 36 37  1  0  0  0  0
 36 38  2  0  0  0  0
 39 38  1  0  0  0  0
 39 40  1  0  0  0  0
 41 40  2  0  0  0  0
 41 42  1  0  0  0  0
 43 41  1  0  0  0  0
 44 45  1  0  0  0  0
 44 43  2  0  0  0  0
 45 39  2  0  0  0  0
 46 35  2  0  0  0  0
 46 45  1  0  0  0  0
M  END
>  <minimizedAffinity>
-6.95089722

$$$$

 OpenBabel03242519303D

 46 50  0  0  0  0  0  0  0  0999 V2000
   38.0330   30.3510   41.1740 C   0  0  0  0  0  0  0  0  0  0  0  0
   38.5790   31.6610   41.0260 C   0  0  0  0  0  0  0  0  0  0  0  0
   38.3640   32.3550   39.8330 C   0  0  0  0  0  0  0  0  0  0  0  0
   37.6280   31.7130   38.8670 N   0  0  0  0  0  0  0  0  0  0  0  0
   37.1220   30.4430   39.0590 C   0  0  0  0  0  0  0  0  0  0  0  0
   37.3320   29.8020   40.1890 N   0  0  0  0  0  0  0  0  0  0  0  0
   39.1530   32.2170   41.7240 H   0  0  0  0  0  0  0  0  0  0  0  0
   38.7400   33.3420   39.6460 H   0  0  0  0  0  0  0  0  0  0  0  0
   38.3250   29.7120   42.4670 C   0  0  0  0  0  0  0  0  0  0  0  0
   39.6730   29.1940   42.6080 C   0  0  0  0  0  0  0  0  0  0  0  0
   39.7720   27.7220   42.6780 C   0  0  0  0  0  0  0  0  0  0  0  0
   38.8830   27.1360   43.7730 C   0  0  0  0  0  0  0  0  0  0  0  0
   37.5600   27.7990   43.8940 C   0  0  0  0  0  0  0  0  0  0  0  0
   37.2450   28.6130   42.6520 C   0  0  0  0  0  0  0  0  0  0  0  0
   38.0440   30.4540   43.2700 H   0  0  0  0  0  0  0  0  0  0  0  0
   40.1310   29.5910   43.5610 H   0  0  0  0  0  0  0  0  0  0  0  0
   40.3430   29.5550   41.8140 H   0  0  0  0  0  0  0  0  0  0  0  0
   40.8200   27.4520   42.9980 H   0  0  0  0  0  0  0  0  0  0  0  0
   39.6070   27.1600   41.7540 H   0  0  0  0  0  0  0  0  0  0  0  0
   39.4340   27.1360   44.7510 H   0  0  0  0  0  0  0  0  0  0  0  0
   38.7250   26.0590   43.5200 H   0  0  0  0  0  0  0  0  0  0  0  0
   37.5690   28.5100   44.7500 H   0  0  0  0  0  0  0  0  0  0  0  0
   36.7310   27.0760   43.9960 H   0  0  0  0  0  0  0  0  0  0  0  0
   36.2730   29.0980   42.7330 H   0  0  0  0  0  0  0  0  0  0  0  0
   37.2530   27.9690   41.7400 H   0  0  0  0  0  0  0  0  0  0  0  0
   36.3740   29.9320   37.9230 C   0  0  0  0  0  0  0  0  0  0  0  0
   36.9110   30.0480   36.6890 N   0  0  0  0  0  0  0  0  0  0  0  0
   36.0630   29.5140   35.7830 C   0  0  0  0  0  0  0  0  0  0  0  0
   34.9800   29.0610   36.4790 N   0  0  0  0  0  0  0  0  0  0  0  0
   35.1670   29.3150   37.7780 N   0  0  0  0  0  0  0  0  0  0  0  0
   36.1880   29.4440   34.7080 H   0  0  0  0  0  0  0  0  0  0  0  0
   33.7840   28.4010   35.9460 C   0  0  0  0  0  0  0  0  0  0  0  0
   33.5960   27.5290   36.5740 H   0  0  0  0  0  0  0  0  0  0  0  0
   33.9680   28.0810   34.8820 H   0  0  0  0  0  0  0  0  0  0  0  0
   32.6460   29.3290   35.9130 C   0  0  0  0  0  0  0  0  0  0  0  0
   31.8490   29.4860   37.0400 C   0  0  0  0  0  0  0  0  0  0  0  0
   32.0580   28.9260   37.9590 H   0  0  0  0  0  0  0  0  0  0  0  0
   30.7610   30.3270   37.1160 C   0  0  0  0  0  3  0  0  0  0  0  0
   30.4360   31.0610   36.0050 C   0  0  0  0  0  0  0  0  0  0  0  0
   29.3630   31.8940   36.0700 N   0  0  0  0  0  0  0  0  0  0  0  0
   28.9860   32.6480   35.0110 C   0  0  0  0  0  0  0  0  0  0  0  0
   28.1430   33.3000   35.0680 H   0  0  0  0  0  0  0  0  0  0  0  0
   29.7450   32.5290   33.8630 C   0  0  0  0  0  3  0  0  0  0  0  0
   30.8590   31.6970   33.7210 C   0  0  0  0  0  3  0  0  0  0  0  0
   31.1830   30.9570   34.8460 C   0  0  0  0  0  0  0  0  0  0  0  0
   32.2630   30.0920   34.8460 C   0  0  0  0  0  3  0  0  0  0  0  0
  1  9  1  0  0  0  0
  2  1  1  0  0  0  0
  2  7  1  0  0  0  0
  3  2  2  0  0  0  0
  4  5  2  0  0  0  0
  4  3  1  0  0  0  0
  5  6  1  0  0  0  0
  6  1  2  0  0  0  0
  8  3  1  0  0  0  0
  9 10  1  0  0  0  0
  9 14  1  0  0  0  0
  9 15  1  0  0  0  0
 10 11  1  0  0  0  0
 10 16  1  0  0  0  0
 11 18  1  0  0  0  0
 11 12  1  0  0  0  0
 12 13  1  0  0  0  0
 12 20  1  0  0  0  0
 13 23  1  0  0  0  0
 13 22  1  0  0  0  0
 14 24  1  0  0  0  0
 14 13  1  0  0  0  0
 17 10  1  0  0  0  0
 19 11  1  0  0  0  0
 21 12  1  0  0  0  0
 25 14  1  0  0  0  0
 26  5  1  0  0  0  0
 27 26  1  0  0  0  0
 28 29  1  0  0  0  0
 28 27  2  0  0  0  0
 29 30  1  0  0  0  0
 30 26  2  0  0  0  0
 31 28  1  0  0  0  0
 32 29  1  0  0  0  0
 32 33  1  0  0  0  0
 34 32  1  0  0  0  0
 35 32  1  0  0  0  0
 35 36  1  0  0  0  0
 36 38  2  0  0  0  0
 36 37  1  0  0  0  0
 39 40  1  0  0  0  0
 39 38  1  0  0  0  0
 41 42  1  0  0  0  0
 41 40  2  0  0  0  0
 43 41  1  0  0  0  0
 44 43  2  0  0  0  0
 44 45  1  0  0  0  0
 45 39  2  0  0  0  0
 46 45  1  0  0  0  0
 46 35  2  0  0  0  0
M  END
>  <minimizedAffinity>
-6.74340296

$$$$

 OpenBabel03242519303D

 46 50  0  0  0  0  0  0  0  0999 V2000
   41.1210   34.2410   39.3950 C   0  0  0  0  0  0  0  0  0  0  0  0
   40.4690   35.4740   39.6960 C   0  0  0  0  0  0  0  0  0  0  0  0
   39.2910   35.4530   40.4460 C   0  0  0  0  0  0  0  0  0  0  0  0
   38.8340   34.2220   40.8480 N   0  0  0  0  0  0  0  0  0  0  0  0
   39.5030   33.0560   40.5300 C   0  0  0  0  0  0  0  0  0  0  0  0
   40.6120   33.0920   39.8230 N   0  0  0  0  0  0  0  0  0  0  0  0
   40.7610   36.4570   39.4220 H   0  0  0  0  0  0  0  0  0  0  0  0
   38.7430   36.3360   40.7130 H   0  0  0  0  0  0  0  0  0  0  0  0
   42.3490   34.3810   38.5950 C   0  0  0  0  0  0  0  0  0  0  0  0
   42.3580   33.6440   37.3460 C   0  0  0  0  0  0  0  0  0  0  0  0
   43.3150   32.5190   37.2920 C   0  0  0  0  0  0  0  0  0  0  0  0
   44.7370   32.9560   37.6380 C   0  0  0  0  0  0  0  0  0  0  0  0
   44.8110   33.9430   38.7440 C   0  0  0  0  0  0  0  0  0  0  0  0
   43.5150   33.9740   39.5350 C   0  0  0  0  0  0  0  0  0  0  0  0
   42.5300   35.4870   38.4640 H   0  0  0  0  0  0  0  0  0  0  0  0
   42.6350   34.3400   36.5000 H   0  0  0  0  0  0  0  0  0  0  0  0
   41.3600   33.2700   37.0760 H   0  0  0  0  0  0  0  0  0  0  0  0
   43.3860   32.1650   36.2230 H   0  0  0  0  0  0  0  0  0  0  0  0
   43.0730   31.6230   37.8700 H   0  0  0  0  0  0  0  0  0  0  0  0
   45.2550   33.3310   36.7160 H   0  0  0  0  0  0  0  0  0  0  0  0
   45.2940   32.0350   37.9390 H   0  0  0  0  0  0  0  0  0  0  0  0
   44.9600   34.9660   38.3310 H   0  0  0  0  0  0  0  0  0  0  0  0
   45.6030   33.7010   39.4770 H   0  0  0  0  0  0  0  0  0  0  0  0
   43.5660   34.6930   40.3500 H   0  0  0  0  0  0  0  0  0  0  0  0
   43.2800   32.9660   39.9540 H   0  0  0  0  0  0  0  0  0  0  0  0
   38.8630   31.8550   41.0410 C   0  0  0  0  0  0  0  0  0  0  0  0
   39.5780   31.0280   41.8320 N   0  0  0  0  0  0  0  0  0  0  0  0
   38.8040   29.9820   42.1960 C   0  0  0  0  0  0  0  0  0  0  0  0
   37.5850   30.1740   41.6130 N   0  0  0  0  0  0  0  0  0  0  0  0
   37.6200   31.3110   40.9100 N   0  0  0  0  0  0  0  0  0  0  0  0
   39.0680   29.1390   42.8260 H   0  0  0  0  0  0  0  0  0  0  0  0
   36.4020   29.3140   41.7040 C   0  0  0  0  0  0  0  0  0  0  0  0
   35.5780   29.8550   41.2360 H   0  0  0  0  0  0  0  0  0  0  0  0
   36.1650   29.1050   42.7860 H   0  0  0  0  0  0  0  0  0  0  0  0
   36.6520   28.0120   41.0710 C   0  0  0  0  0  0  0  0  0  0  0  0
   36.6180   27.8970   39.6880 C   0  0  0  0  0  0  0  0  0  0  0  0
   36.4070   28.7680   39.0570 H   0  0  0  0  0  0  0  0  0  0  0  0
   36.8380   26.7270   38.9950 C   0  0  0  0  0  3  0  0  0  0  0  0
   37.1070   25.5930   39.7160 C   0  0  0  0  0  0  0  0  0  0  0  0
   37.3250   24.4320   39.0420 N   0  0  0  0  0  0  0  0  0  0  0  0
   37.5960   23.2760   39.6900 C   0  0  0  0  0  0  0  0  0  0  0  0
   37.7660   22.3680   39.1560 H   0  0  0  0  0  0  0  0  0  0  0  0
   37.6410   23.3350   41.0700 C   0  0  0  0  0  3  0  0  0  0  0  0
   37.4290   24.4860   41.8310 C   0  0  0  0  0  3  0  0  0  0  0  0
   37.1570   25.6300   41.0980 C   0  0  0  0  0  0  0  0  0  0  0  0
   36.9260   26.8420   41.7230 C   0  0  0  0  0  3  0  0  0  0  0  0
  1  2  2  0  0  0  0
  1  6  1  0  0  0  0
  2  3  1  0  0  0  0
  3  8  1  0  0  0  0
  3  4  2  0  0  0  0
  5  4  1  0  0  0  0
  5 26  1  0  0  0  0
  6  5  2  0  0  0  0
  7  2  1  0  0  0  0
  9  1  1  0  0  0  0
  9 14  1  0  0  0  0
 10  9  1  0  0  0  0
 11 10  1  0  0  0  0
 11 12  1  0  0  0  0
 11 19  1  0  0  0  0
 12 21  1  0  0  0  0
 12 13  1  0  0  0  0
 13 23  1  0  0  0  0
 13 14  1  0  0  0  0
 14 25  1  0  0  0  0
 14 24  1  0  0  0  0
 15  9  1  0  0  0  0
 16 10  1  0  0  0  0
 17 10  1  0  0  0  0
 18 11  1  0  0  0  0
 20 12  1  0  0  0  0
 22 13  1  0  0  0  0
 26 27  1  0  0  0  0
 27 28  2  0  0  0  0
 28 31  1  0  0  0  0
 29 32  1  0  0  0  0
 29 28  1  0  0  0  0
 30 26  2  0  0  0  0
 30 29  1  0  0  0  0
 32 34  1  0  0  0  0
 33 32  1  0  0  0  0
 35 32  1  0  0  0  0
 35 46  1  0  0  0  0
 36 35  2  0  0  0  0
 37 36  1  0  0  0  0
 38 36  1  0  0  0  0
 38 39  2  0  0  0  0
 39 45  1  0  0  0  0
 40 41  2  0  0  0  0
 40 39  1  0  0  0  0
 41 43  1  0  0  0  0
 42 41  1  0  0  0  0
 43 44  2  0  0  0  0
 45 46  2  0  0  0  0
 45 44  1  0  0  0  0
M  END
>  <minimizedAffinity>
-6.6111927

$$$$

 OpenBabel03242519303D

 46 50  0  0  0  0  0  0  0  0999 V2000
   41.0670   34.1160   39.2240 C   0  0  0  0  0  0  0  0  0  0  0  0
   40.5330   35.3630   39.6660 C   0  0  0  0  0  0  0  0  0  0  0  0
   39.4200   35.3640   40.5100 C   0  0  0  0  0  0  0  0  0  0  0  0
   38.9070   34.1390   40.8600 N   0  0  0  0  0  0  0  0  0  0  0  0
   39.4610   32.9590   40.4040 C   0  0  0  0  0  0  0  0  0  0  0  0
   40.5110   32.9740   39.6110 N   0  0  0  0  0  0  0  0  0  0  0  0
   40.8740   36.3430   39.4390 H   0  0  0  0  0  0  0  0  0  0  0  0
   38.9610   36.2590   40.8840 H   0  0  0  0  0  0  0  0  0  0  0  0
   42.2350   34.2340   38.3370 C   0  0  0  0  0  0  0  0  0  0  0  0
   42.2480   33.3200   37.2100 C   0  0  0  0  0  0  0  0  0  0  0  0
   43.2980   32.2820   37.2600 C   0  0  0  0  0  0  0  0  0  0  0  0
   44.6900   32.8810   37.4470 C   0  0  0  0  0  0  0  0  0  0  0  0
   44.7310   34.0270   38.3900 C   0  0  0  0  0  0  0  0  0  0  0  0
   43.4800   34.0700   39.2490 C   0  0  0  0  0  0  0  0  0  0  0  0
   42.3080   35.3190   38.0340 H   0  0  0  0  0  0  0  0  0  0  0  0
   42.4160   33.9010   36.2560 H   0  0  0  0  0  0  0  0  0  0  0  0
   41.2750   32.8290   37.0610 H   0  0  0  0  0  0  0  0  0  0  0  0
   43.3460   31.7780   36.2520 H   0  0  0  0  0  0  0  0  0  0  0  0
   43.1680   31.4660   37.9760 H   0  0  0  0  0  0  0  0  0  0  0  0
   45.1250   33.1540   36.4480 H   0  0  0  0  0  0  0  0  0  0  0  0
   45.3440   32.0640   37.8430 H   0  0  0  0  0  0  0  0  0  0  0  0
   44.7660   34.9840   37.8230 H   0  0  0  0  0  0  0  0  0  0  0  0
   45.5780   33.9630   39.0980 H   0  0  0  0  0  0  0  0  0  0  0  0
   43.5070   34.9060   39.9460 H   0  0  0  0  0  0  0  0  0  0  0  0
   43.3590   33.1210   39.8250 H   0  0  0  0  0  0  0  0  0  0  0  0
   38.7770   31.7680   40.8810 C   0  0  0  0  0  0  0  0  0  0  0  0
   37.8430   31.1980   40.0900 N   0  0  0  0  0  0  0  0  0  0  0  0
   37.3350   30.1120   40.7150 C   0  0  0  0  0  0  0  0  0  0  0  0
   37.9730   30.0170   41.9170 N   0  0  0  0  0  0  0  0  0  0  0  0
   38.8490   31.0220   42.0200 N   0  0  0  0  0  0  0  0  0  0  0  0
   36.5700   29.4310   40.3580 H   0  0  0  0  0  0  0  0  0  0  0  0
   37.7740   29.0070   42.9600 C   0  0  0  0  0  0  0  0  0  0  0  0
   36.9150   28.4040   42.6600 H   0  0  0  0  0  0  0  0  0  0  0  0
   37.5670   29.5120   43.9460 H   0  0  0  0  0  0  0  0  0  0  0  0
   38.9880   28.2020   43.1490 C   0  0  0  0  0  0  0  0  0  0  0  0
   38.9000   26.9420   43.7250 C   0  0  0  0  0  0  0  0  0  0  0  0
   37.9330   26.5360   44.0430 H   0  0  0  0  0  0  0  0  0  0  0  0
   39.9740   26.1080   43.9470 C   0  0  0  0  0  3  0  0  0  0  0  0
   41.2180   26.5470   43.5760 C   0  0  0  0  0  0  0  0  0  0  0  0
   42.2840   25.7310   43.7910 N   0  0  0  0  0  0  0  0  0  0  0  0
   43.5400   26.1010   43.4490 C   0  0  0  0  0  0  0  0  0  0  0  0
   44.3730   25.4560   43.6200 H   0  0  0  0  0  0  0  0  0  0  0  0
   43.6830   27.3470   42.8710 C   0  0  0  0  0  3  0  0  0  0  0  0
   42.6390   28.2400   42.6190 C   0  0  0  0  0  3  0  0  0  0  0  0
   41.3840   27.7920   42.9950 C   0  0  0  0  0  0  0  0  0  0  0  0
   40.2580   28.5730   42.8040 C   0  0  0  0  0  3  0  0  0  0  0  0
  1  6  2  0  0  0  0
  1  2  1  0  0  0  0
  2  3  2  0  0  0  0
  3  4  1  0  0  0  0
  3  8  1  0  0  0  0
  5  4  2  0  0  0  0
  5 26  1  0  0  0  0
  6  5  1  0  0  0  0
  7  2  1  0  0  0  0
  9  1  1  0  0  0  0
  9 14  1  0  0  0  0
 10 11  1  0  0  0  0
 10  9  1  0  0  0  0
 11 12  1  0  0  0  0
 11 19  1  0  0  0  0
 12 21  1  0  0  0  0
 12 13  1  0  0  0  0
 13 23  1  0  0  0  0
 13 14  1  0  0  0  0
 14 25  1  0  0  0  0
 14 24  1  0  0  0  0
 15  9  1  0  0  0  0
 16 10  1  0  0  0  0
 17 10  1  0  0  0  0
 18 11  1  0  0  0  0
 20 12  1  0  0  0  0
 22 13  1  0  0  0  0
 26 30  2  0  0  0  0
 27 28  2  0  0  0  0
 27 26  1  0  0  0  0
 28 29  1  0  0  0  0
 29 30  1  0  0  0  0
 29 32  1  0  0  0  0
 31 28  1  0  0  0  0
 32 35  1  0  0  0  0
 32 34  1  0  0  0  0
 33 32  1  0  0  0  0
 35 36  1  0  0  0  0
 36 38  2  0  0  0  0
 36 37  1  0  0  0  0
 39 40  1  0  0  0  0
 39 38  1  0  0  0  0
 41 42  1  0  0  0  0
 41 40  2  0  0  0  0
 43 41  1  0  0  0  0
 44 43  2  0  0  0  0
 44 45  1  0  0  0  0
 45 39  2  0  0  0  0
 46 45  1  0  0  0  0
 46 35  2  0  0  0  0
M  END
>  <minimizedAffinity>
-6.50907993

$$$$

 OpenBabel03242519303D

 46 50  0  0  0  0  0  0  0  0999 V2000
   37.1750   27.1320   41.5790 C   0  0  0  0  0  0  0  0  0  0  0  0
   37.2200   27.0650   43.0030 C   0  0  0  0  0  0  0  0  0  0  0  0
   37.4310   28.2380   43.7320 C   0  0  0  0  0  0  0  0  0  0  0  0
   37.5850   29.3960   43.0100 N   0  0  0  0  0  0  0  0  0  0  0  0
   37.5340   29.4080   41.6300 C   0  0  0  0  0  0  0  0  0  0  0  0
   37.3330   28.2950   40.9570 N   0  0  0  0  0  0  0  0  0  0  0  0
   37.1090   26.2120   43.6260 H   0  0  0  0  0  0  0  0  0  0  0  0
   37.4780   28.2690   44.8040 H   0  0  0  0  0  0  0  0  0  0  0  0
   36.9520   25.8380   40.9150 C   0  0  0  0  0  0  0  0  0  0  0  0
   36.9390   24.6860   41.7970 C   0  0  0  0  0  0  0  0  0  0  0  0
   38.0760   23.7580   41.6270 C   0  0  0  0  0  0  0  0  0  0  0  0
   38.2270   23.2910   40.1810 C   0  0  0  0  0  0  0  0  0  0  0  0
   37.9800   24.3550   39.1760 C   0  0  0  0  0  0  0  0  0  0  0  0
   38.0410   25.7320   39.8140 C   0  0  0  0  0  0  0  0  0  0  0  0
   36.0100   25.9420   40.3020 H   0  0  0  0  0  0  0  0  0  0  0  0
   36.0030   24.0820   41.6150 H   0  0  0  0  0  0  0  0  0  0  0  0
   36.8750   24.9740   42.8560 H   0  0  0  0  0  0  0  0  0  0  0  0
   37.8510   22.8130   42.2020 H   0  0  0  0  0  0  0  0  0  0  0  0
   39.0530   24.0840   41.9950 H   0  0  0  0  0  0  0  0  0  0  0  0
   37.5770   22.3940   40.0010 H   0  0  0  0  0  0  0  0  0  0  0  0
   39.2780   22.9250   40.0670 H   0  0  0  0  0  0  0  0  0  0  0  0
   36.9580   24.2440   38.7500 H   0  0  0  0  0  0  0  0  0  0  0  0
   38.7380   24.3640   38.3730 H   0  0  0  0  0  0  0  0  0  0  0  0
   37.8650   26.5160   39.0800 H   0  0  0  0  0  0  0  0  0  0  0  0
   39.0320   25.9030   40.2970 H   0  0  0  0  0  0  0  0  0  0  0  0
   37.7220   30.7260   41.0480 C   0  0  0  0  0  0  0  0  0  0  0  0
   36.7510   31.2280   40.2550 N   0  0  0  0  0  0  0  0  0  0  0  0
   37.1210   32.4540   39.8220 C   0  0  0  0  0  0  0  0  0  0  0  0
   38.3470   32.7080   40.3630 N   0  0  0  0  0  0  0  0  0  0  0  0
   38.7140   31.6590   41.1070 N   0  0  0  0  0  0  0  0  0  0  0  0
   36.5730   33.1280   39.1720 H   0  0  0  0  0  0  0  0  0  0  0  0
   39.1720   33.9070   40.1920 C   0  0  0  0  0  0  0  0  0  0  0  0
   39.2740   34.3660   41.1760 H   0  0  0  0  0  0  0  0  0  0  0  0
   38.6650   34.6200   39.4810 H   0  0  0  0  0  0  0  0  0  0  0  0
   40.4690   33.5690   39.5900 C   0  0  0  0  0  0  0  0  0  0  0  0
   41.6250   34.1880   40.0470 C   0  0  0  0  0  0  0  0  0  0  0  0
   41.5850   34.9290   40.8540 H   0  0  0  0  0  0  0  0  0  0  0  0
   42.8880   33.9450   39.5540 C   0  0  0  0  0  3  0  0  0  0  0  0
   43.0190   33.0300   38.5420 C   0  0  0  0  0  0  0  0  0  0  0  0
   44.2620   32.7830   38.0480 N   0  0  0  0  0  0  0  0  0  0  0  0
   44.4640   31.8930   37.0500 C   0  0  0  0  0  0  0  0  0  0  0  0
   45.4410   31.7030   36.6660 H   0  0  0  0  0  0  0  0  0  0  0  0
   43.3450   31.2490   36.5580 C   0  0  0  0  0  3  0  0  0  0  0  0
   42.0390   31.4490   37.0120 C   0  0  0  0  0  3  0  0  0  0  0  0
   41.9120   32.3740   38.0350 C   0  0  0  0  0  0  0  0  0  0  0  0
   40.6760   32.6700   38.5820 C   0  0  0  0  0  3  0  0  0  0  0  0
  1  2  1  0  0  0  0
  2  7  1  0  0  0  0
  2  3  2  0  0  0  0
  3  8  1  0  0  0  0
  4  3  1  0  0  0  0
  5  4  2  0  0  0  0
  6  1  2  0  0  0  0
  6  5  1  0  0  0  0
  9  1  1  0  0  0  0
  9 10  1  0  0  0  0
 10 17  1  0  0  0  0
 11 10  1  0  0  0  0
 11 19  1  0  0  0  0
 11 18  1  0  0  0  0
 12 11  1  0  0  0  0
 13 14  1  0  0  0  0
 13 12  1  0  0  0  0
 14 25  1  0  0  0  0
 14  9  1  0  0  0  0
 15  9  1  0  0  0  0
 16 10  1  0  0  0  0
 20 12  1  0  0  0  0
 21 12  1  0  0  0  0
 22 13  1  0  0  0  0
 23 13  1  0  0  0  0
 24 14  1  0  0  0  0
 26 30  2  0  0  0  0
 26  5  1  0  0  0  0
 27 26  1  0  0  0  0
 28 27  2  0  0  0  0
 28 29  1  0  0  0  0
 29 30  1  0  0  0  0
 31 28  1  0  0  0  0
 32 29  1  0  0  0  0
 32 33  1  0  0  0  0
 34 32  1  0  0  0  0
 35 36  1  0  0  0  0
 35 32  1  0  0  0  0
 36 37  1  0  0  0  0
 38 36  2  0  0  0  0
 39 38  1  0  0  0  0
 40 39  1  0  0  0  0
 41 40  2  0  0  0  0
 42 41  1  0  0  0  0
 43 44  2  0  0  0  0
 43 41  1  0  0  0  0
 44 45  1  0  0  0  0
 45 39  2  0  0  0  0
 45 46  1  0  0  0  0
 46 35  2  0  0  0  0
M  END
>  <minimizedAffinity>
-6.47318649

$$$$

 OpenBabel03242519303D

 46 50  0  0  0  0  0  0  0  0999 V2000
   35.9600   22.7110   39.4290 C   0  0  0  0  0  0  0  0  0  0  0  0
   36.9620   21.7120   39.2510 C   0  0  0  0  0  0  0  0  0  0  0  0
   38.1840   21.8480   39.9150 C   0  0  0  0  0  0  0  0  0  0  0  0
   38.3360   22.9600   40.7080 N   0  0  0  0  0  0  0  0  0  0  0  0
   37.3340   23.9000   40.8460 C   0  0  0  0  0  0  0  0  0  0  0  0
   36.1880   23.7570   40.2150 N   0  0  0  0  0  0  0  0  0  0  0  0
   36.9160   20.8310   38.6590 H   0  0  0  0  0  0  0  0  0  0  0  0
   38.9860   21.1410   39.8320 H   0  0  0  0  0  0  0  0  0  0  0  0
   34.7170   22.4680   38.6790 C   0  0  0  0  0  0  0  0  0  0  0  0
   34.5650   23.2510   37.4680 C   0  0  0  0  0  0  0  0  0  0  0  0
   33.4880   24.2620   37.5100 C   0  0  0  0  0  0  0  0  0  0  0  0
   32.1420   23.6540   37.8970 C   0  0  0  0  0  0  0  0  0  0  0  0
   32.2320   22.6190   38.9570 C   0  0  0  0  0  0  0  0  0  0  0  0
   33.5610   22.7010   39.6870 C   0  0  0  0  0  0  0  0  0  0  0  0
   34.6530   21.3550   38.5030 H   0  0  0  0  0  0  0  0  0  0  0  0
   34.3260   22.5650   36.6030 H   0  0  0  0  0  0  0  0  0  0  0  0
   35.5010   23.7460   37.1710 H   0  0  0  0  0  0  0  0  0  0  0  0
   33.3260   24.6510   36.4630 H   0  0  0  0  0  0  0  0  0  0  0  0
   33.6580   25.1550   38.1180 H   0  0  0  0  0  0  0  0  0  0  0  0
   31.6230   23.2630   36.9820 H   0  0  0  0  0  0  0  0  0  0  0  0
   31.5020   24.4930   38.2660 H   0  0  0  0  0  0  0  0  0  0  0  0
   32.1770   21.6040   38.5030 H   0  0  0  0  0  0  0  0  0  0  0  0
   31.4550   22.7390   39.7340 H   0  0  0  0  0  0  0  0  0  0  0  0
   33.6290   21.9460   40.4690 H   0  0  0  0  0  0  0  0  0  0  0  0
   33.7030   23.7100   40.1430 H   0  0  0  0  0  0  0  0  0  0  0  0
   37.6840   25.0050   41.7230 C   0  0  0  0  0  0  0  0  0  0  0  0
   38.9070   25.0140   42.2970 N   0  0  0  0  0  0  0  0  0  0  0  0
   39.0280   26.1180   43.0660 C   0  0  0  0  0  0  0  0  0  0  0  0
   37.8520   26.8010   42.9610 N   0  0  0  0  0  0  0  0  0  0  0  0
   37.0340   26.1260   42.1460 N   0  0  0  0  0  0  0  0  0  0  0  0
   39.8790   26.4290   43.6620 H   0  0  0  0  0  0  0  0  0  0  0  0
   37.4880   28.0650   43.6090 C   0  0  0  0  0  0  0  0  0  0  0  0
   37.9750   28.0740   44.5850 H   0  0  0  0  0  0  0  0  0  0  0  0
   36.3690   28.1210   43.7320 H   0  0  0  0  0  0  0  0  0  0  0  0
   37.8750   29.2110   42.7750 C   0  0  0  0  0  0  0  0  0  0  0  0
   39.1120   29.8140   42.9600 C   0  0  0  0  0  0  0  0  0  0  0  0
   39.8080   29.4470   43.7230 H   0  0  0  0  0  0  0  0  0  0  0  0
   39.5720   30.8910   42.2350 C   0  0  0  0  0  3  0  0  0  0  0  0
   38.7570   31.4080   41.2620 C   0  0  0  0  0  0  0  0  0  0  0  0
   39.2020   32.4710   40.5410 N   0  0  0  0  0  0  0  0  0  0  0  0
   38.4490   33.0310   39.5660 C   0  0  0  0  0  0  0  0  0  0  0  0
   38.8040   33.8650   39.0030 H   0  0  0  0  0  0  0  0  0  0  0  0
   37.2080   32.4680   39.3400 C   0  0  0  0  0  3  0  0  0  0  0  0
   36.6830   31.3780   40.0380 C   0  0  0  0  0  3  0  0  0  0  0  0
   37.5100   30.8590   41.0200 C   0  0  0  0  0  0  0  0  0  0  0  0
   37.1170   29.7780   41.7890 C   0  0  0  0  0  3  0  0  0  0  0  0
  1  6  1  0  0  0  0
  2  1  2  0  0  0  0
  2  3  1  0  0  0  0
  3  4  2  0  0  0  0
  4  5  1  0  0  0  0
  5 26  1  0  0  0  0
  6  5  2  0  0  0  0
  7  2  1  0  0  0  0
  8  3  1  0  0  0  0
  9  1  1  0  0  0  0
  9 14  1  0  0  0  0
 10 11  1  0  0  0  0
 10  9  1  0  0  0  0
 11 12  1  0  0  0  0
 11 19  1  0  0  0  0
 12 21  1  0  0  0  0
 12 13  1  0  0  0  0
 13 14  1  0  0  0  0
 13 23  1  0  0  0  0
 14 25  1  0  0  0  0
 14 24  1  0  0  0  0
 15  9  1  0  0  0  0
 16 10  1  0  0  0  0
 17 10  1  0  0  0  0
 18 11  1  0  0  0  0
 20 12  1  0  0  0  0
 22 13  1  0  0  0  0
 26 30  2  0  0  0  0
 26 27  1  0  0  0  0
 27 28  2  0  0  0  0
 28 31  1  0  0  0  0
 29 28  1  0  0  0  0
 29 32  1  0  0  0  0
 30 29  1  0  0  0  0
 32 34  1  0  0  0  0
 32 33  1  0  0  0  0
 35 36  1  0  0  0  0
 35 32  1  0  0  0  0
 36 37  1  0  0  0  0
 38 36  2  0  0  0  0
 39 38  1  0  0  0  0
 40 39  2  0  0  0  0
 41 40  1  0  0  0  0
 42 41  1  0  0  0  0
 43 41  2  0  0  0  0
 43 44  1  0  0  0  0
 44 45  2  0  0  0  0
 45 39  1  0  0  0  0
 45 46  1  0  0  0  0
 46 35  2  0  0  0  0
M  END
>  <minimizedAffinity>
-6.46683025

$$$$
