
 OpenBabel03242522473D

 44 48  0  0  0  0  0  0  0  0999 V2000
   48.2330   34.0930   38.5950 C   0  0  0  0  0  0  0  0  0  0  0  0
   48.0500   32.7710   38.1200 C   0  0  0  0  0  0  0  0  0  0  0  0
   47.1910   31.9010   38.8320 C   0  0  0  0  0  0  0  0  0  0  0  0
   46.5900   32.3940   39.9400 N   0  0  0  0  0  0  0  0  0  0  0  0
   46.7890   33.6680   40.3670 C   0  0  0  0  0  0  0  0  0  0  0  0
   47.5980   34.4950   39.6990 N   0  0  0  0  0  0  0  0  0  0  0  0
   49.0890   34.9560   37.8840 N   0  0  0  0  0  0  0  0  0  0  0  0
   47.0330   30.9010   38.4990 H   0  0  0  0  0  0  0  0  0  0  0  0
   49.6040   35.7400   38.3300 H   0  0  0  0  0  0  0  0  0  0  0  0
   49.2400   34.8380   36.8570 H   0  0  0  0  0  0  0  0  0  0  0  0
   48.7090   32.2670   36.9350 C   0  0  0  0  0  0  0  0  0  0  0  0
   49.8210   31.4310   36.8740 C   0  0  0  0  0  0  0  0  0  0  0  0
   50.3500   31.0260   35.6690 C   0  0  0  0  0  0  0  0  0  0  0  0
   49.7860   31.4430   34.4700 C   0  0  0  0  0  0  0  0  0  0  0  0
   50.3470   31.0130   33.3260 N   0  0  0  0  0  0  0  0  0  0  0  0
   49.8020   31.4140   32.1310 C   0  0  0  0  0  0  0  0  0  0  0  0
   48.7060   32.2380   32.1830 C   0  0  0  0  0  0  0  0  0  0  0  0
   48.1110   32.6930   33.3390 C   0  0  0  0  0  0  0  0  0  0  0  0
   48.6700   32.2810   34.5280 C   0  0  0  0  0  0  0  0  0  0  0  0
   48.1420   32.6860   35.7470 C   0  0  0  0  0  0  0  0  0  0  0  0
   50.2130   31.1430   37.8360 H   0  0  0  0  0  0  0  0  0  0  0  0
   51.2130   30.3770   35.7170 H   0  0  0  0  0  0  0  0  0  0  0  0
   50.2520   31.0700   31.2090 H   0  0  0  0  0  0  0  0  0  0  0  0
   48.3310   32.5140   31.2060 H   0  0  0  0  0  0  0  0  0  0  0  0
   47.2490   33.3400   33.3240 H   0  0  0  0  0  0  0  0  0  0  0  0
   47.2810   33.3330   35.6860 H   0  0  0  0  0  0  0  0  0  0  0  0
   46.0790   34.0970   41.6130 C   0  0  0  0  0  0  0  0  0  0  0  0
   45.3300   33.3930   41.9650 H   0  0  0  0  0  0  0  0  0  0  0  0
   45.6370   35.0930   41.4070 H   0  0  0  0  0  0  0  0  0  0  0  0
   47.1310   34.3840   42.7090 C   0  0  0  0  0  0  0  0  0  0  0  0
   47.3800   35.4640   42.6970 H   0  0  0  0  0  0  0  0  0  0  0  0
   48.0700   33.8270   42.5190 H   0  0  0  0  0  0  0  0  0  0  0  0
   46.5910   33.9980   44.0380 C   0  0  0  0  0  0  0  0  0  0  0  0
   45.5230   34.6880   44.5590 C   0  0  0  0  0  0  0  0  0  0  0  0
   45.0620   35.5160   44.0160 H   0  0  0  0  0  0  0  0  0  0  0  0
   45.0390   34.3080   45.7960 C   0  0  0  0  0  0  0  0  0  0  0  0
   45.6090   33.2680   46.4950 C   0  0  0  0  0  0  0  0  0  0  0  0
   45.1370   32.8920   47.7110 N   0  0  0  0  0  0  0  0  0  0  0  0
   45.6940   31.8720   48.3950 C   0  0  0  0  0  0  0  0  0  0  0  0
   45.2450   31.6450   49.3660 H   0  0  0  0  0  0  0  0  0  0  0  0
   46.7610   31.1520   47.9200 C   0  0  0  0  0  0  0  0  0  0  0  0
   47.2780   31.5040   46.6760 C   0  0  0  0  0  0  0  0  0  0  0  0
   46.6960   32.5590   45.9730 C   0  0  0  0  0  0  0  0  0  0  0  0
   47.1610   32.9560   44.7350 C   0  0  0  0  0  0  0  0  0  0  0  0
  1  6  1  0  0  0  0
  2  1  2  0  0  0  0
  2  3  1  0  0  0  0
  3  4  2  0  0  0  0
  4  5  1  0  0  0  0
  5 27  1  0  0  0  0
  6  5  2  0  0  0  0
  7  9  1  0  0  0  0
  7  1  1  0  0  0  0
  8  3  1  0  0  0  0
 10  7  1  0  0  0  0
 11  2  1  0  0  0  0
 12 11  1  0  0  0  0
 12 21  1  0  0  0  0
 13 22  1  0  0  0  0
 13 12  2  0  0  0  0
 14 19  1  0  0  0  0
 14 13  1  0  0  0  0
 15 14  2  0  0  0  0
 16 17  2  0  0  0  0
 16 15  1  0  0  0  0
 17 18  1  0  0  0  0
 18 19  2  0  0  0  0
 19 20  1  0  0  0  0
 20 11  2  0  0  0  0
 23 16  1  0  0  0  0
 24 17  1  0  0  0  0
 25 18  1  0  0  0  0
 26 20  1  0  0  0  0
 27 28  1  0  0  0  0
 27 30  1  0  0  0  0
 29 27  1  0  0  0  0
 30 33  1  0  0  0  0
 31 30  1  0  0  0  0
 32 30  1  0  0  0  0
 33 34  2  0  0  0  0
 33 44  1  0  0  0  0
 34 36  1  0  0  0  0
 35 34  1  0  0  0  0
 36 37  2  0  0  0  0
 37 38  1  0  0  0  0
 38 39  2  0  0  0  0
 39 40  1  0  0  0  0
 41 39  1  0  0  0  0
 42 41  2  0  0  0  0
 43 37  1  0  0  0  0
 43 42  1  0  0  0  0
 44 43  2  0  0  0  0
M  END
>  <minimizedAffinity>
-6.54871225

>  <minimizedRMSD>
5.9854846

$$$$
