
 OpenBabel03242521473D

 50 54  0  0  1  0  0  0  0  0999 V2000
   37.8850   34.3880   39.9410 C   0  0  0  0  0  0  0  0  0  0  0  0
   37.5880   34.5330   38.8960 H   0  0  0  0  0  0  0  0  0  0  0  0
   37.2930   35.0980   40.5650 H   0  0  0  0  0  0  0  0  0  0  0  0
   39.3490   34.6700   40.1450 C   0  0  0  0  0  0  0  0  0  0  0  0
   40.2900   33.8650   39.4990 C   0  0  0  0  0  0  0  0  0  0  0  0
   41.6600   34.1170   39.6680 C   0  0  0  0  0  0  0  0  0  0  0  0
   42.0010   35.1270   40.4470 N   0  0  0  0  0  0  0  0  0  0  0  0
   41.0900   35.9070   41.0720 C   0  0  0  0  0  0  0  0  0  0  0  0
   39.7640   35.6870   40.9280 N   0  0  0  0  0  0  0  0  0  0  0  0
   39.8820   33.0780   38.8960 H   0  0  0  0  0  0  0  0  0  0  0  0
   41.4360   36.7230   41.7020 H   0  0  0  0  0  0  0  0  0  0  0  0
   42.3440   33.0970   37.5030 C   0  0  2  0  0  0  0  0  0  0  0  0
   42.5550   33.2210   38.9560 C   0  0  2  0  0  0  0  0  0  0  0  0
   42.4620   31.8450   39.3760 O   0  0  0  0  0  0  0  0  0  0  0  0
   43.3860   31.2690   38.5060 C   0  0  0  0  0  0  0  0  0  0  0  0
   43.4040   32.0090   37.2140 C   0  0  1  0  0  0  0  0  0  0  0  0
   41.3750   32.6030   37.2670 H   0  0  0  0  0  0  0  0  0  0  0  0
   43.6080   33.5180   39.1770 H   0  0  0  0  0  0  0  0  0  0  0  0
   43.0750   30.2070   38.3400 H   0  0  0  0  0  0  0  0  0  0  0  0
   44.3920   31.2210   38.9470 H   0  0  0  0  0  0  0  0  0  0  0  0
   44.3690   32.4680   36.9770 H   0  0  0  0  0  0  0  0  0  0  0  0
   42.4960   34.2240   36.7780 O   0  0  0  0  0  0  0  0  0  0  0  0
   42.4550   35.0710   37.3020 H   0  0  0  0  0  0  0  0  0  0  0  0
   42.9860   31.2620   36.1070 O   0  0  0  0  0  0  0  0  0  0  0  0
   43.3910   31.6520   35.3090 H   0  0  0  0  0  0  0  0  0  0  0  0
   37.2450   31.9000   39.6670 C   0  0  0  0  0  0  0  0  0  0  0  0
   37.1600   32.0760   38.4180 O   0  0  0  0  0  0  0  0  0  0  0  0
   37.6510   33.0390   40.4200 N   0  0  0  0  0  0  0  0  0  0  0  0
   37.7980   32.8710   41.4600 H   0  0  0  0  0  0  0  0  0  0  0  0
   36.9570   30.6330   40.3420 C   0  0  0  0  0  0  0  0  0  0  0  0
   35.7270   30.0760   40.2420 C   0  0  0  0  0  0  0  0  0  0  0  0
   35.5440   28.8740   40.9160 C   0  0  0  0  0  0  0  0  0  0  0  0
   36.5310   28.2380   41.6600 C   0  0  0  0  0  0  0  0  0  0  0  0
   37.7330   28.8710   41.7030 C   0  0  0  0  0  0  0  0  0  0  0  0
   37.9360   30.0260   41.0660 N   0  0  0  0  0  0  0  0  0  0  0  0
   34.9210   30.5260   39.6770 H   0  0  0  0  0  0  0  0  0  0  0  0
   34.5600   28.3990   40.8540 H   0  0  0  0  0  0  0  0  0  0  0  0
   36.3530   27.3030   42.1710 H   0  0  0  0  0  0  0  0  0  0  0  0
   38.8760   28.3400   42.4400 C   0  0  0  0  0  0  0  0  0  0  0  0
   38.7370   27.1870   43.1830 C   0  0  0  0  0  0  0  0  0  0  0  0
   37.7840   26.6600   43.2340 H   0  0  0  0  0  0  0  0  0  0  0  0
   39.7560   26.5920   43.9250 C   0  0  0  0  0  3  0  0  0  0  0  0
   41.0030   27.1990   43.9140 C   0  0  0  0  0  0  0  0  0  0  0  0
   41.9980   26.6380   44.6230 N   0  0  0  0  0  0  0  0  0  0  0  0
   43.2440   27.1940   44.6480 C   0  0  0  0  0  0  0  0  0  0  0  0
   44.0980   26.8100   45.1890 H   0  0  0  0  0  0  0  0  0  0  0  0
   43.3730   28.3470   43.9000 C   0  0  0  0  0  3  0  0  0  0  0  0
   42.4120   28.9880   43.1470 C   0  0  0  0  0  3  0  0  0  0  0  0
   41.1720   28.3550   43.1770 C   0  0  0  0  0  0  0  0  0  0  0  0
   40.1320   28.9080   42.4590 C   0  0  0  0  0  3  0  0  0  0  0  0
  1  4  1  0  0  0  0
  1 28  1  0  0  0  0
  1  3  1  0  0  0  0
  2  1  1  0  0  0  0
  4  9  1  0  0  0  0
  5  6  1  0  0  0  0
  5  4  2  0  0  0  0
  6  7  2  0  0  0  0
  7  8  1  0  0  0  0
  8 11  1  0  0  0  0
  9  8  2  0  0  0  0
 10  5  1  0  0  0  0
 12 17  1  6  0  0  0
 12 13  1  0  0  0  0
 13 18  1  1  0  0  0
 13 14  1  0  0  0  0
 13  6  1  0  0  0  0
 15 20  1  0  0  0  0
 15 14  1  0  0  0  0
 16 21  1  6  0  0  0
 16 12  1  0  0  0  0
 16 15  1  0  0  0  0
 19 15  1  0  0  0  0
 22 23  1  0  0  0  0
 22 12  1  0  0  0  0
 24 16  1  0  0  0  0
 25 24  1  0  0  0  0
 26 30  1  0  0  0  0
 26 28  1  0  0  0  0
 27 26  2  0  0  0  0
 28 29  1  0  0  0  0
 30 35  1  0  0  0  0
 31 30  2  0  0  0  0
 31 32  1  0  0  0  0
 32 33  2  0  0  0  0
 33 34  1  0  0  0  0
 33 38  1  0  0  0  0
 34 39  1  0  0  0  0
 35 34  2  0  0  0  0
 36 31  1  0  0  0  0
 37 32  1  0  0  0  0
 39 50  2  0  0  0  0
 39 40  1  0  0  0  0
 40 41  1  0  0  0  0
 40 42  2  0  0  0  0
 43 42  1  0  0  0  0
 43 44  1  0  0  0  0
 44 45  2  0  0  0  0
 45 46  1  0  0  0  0
 47 45  1  0  0  0  0
 48 49  1  0  0  0  0
 48 47  2  0  0  0  0
 49 43  2  0  0  0  0
 50 49  1  0  0  0  0
M  END
>  <minimizedAffinity>
-8.35046959

$$$$

 OpenBabel03242521473D

 50 54  0  0  1  0  0  0  0  0999 V2000
   41.0370   34.4880   39.4420 C   0  0  0  0  0  0  0  0  0  0  0  0
   41.1490   34.5840   38.3570 H   0  0  0  0  0  0  0  0  0  0  0  0
   40.5670   35.4260   39.8200 H   0  0  0  0  0  0  0  0  0  0  0  0
   42.3680   34.3060   40.1220 C   0  0  0  0  0  0  0  0  0  0  0  0
   42.6790   35.1040   41.2250 C   0  0  0  0  0  0  0  0  0  0  0  0
   43.9100   34.9430   41.8790 C   0  0  0  0  0  0  0  0  0  0  0  0
   44.7330   34.0240   41.4100 N   0  0  0  0  0  0  0  0  0  0  0  0
   44.4310   33.2500   40.3420 C   0  0  0  0  0  0  0  0  0  0  0  0
   43.2530   33.3840   39.6920 N   0  0  0  0  0  0  0  0  0  0  0  0
   41.9250   35.8130   41.5040 H   0  0  0  0  0  0  0  0  0  0  0  0
   45.1530   32.5110   40.0040 H   0  0  0  0  0  0  0  0  0  0  0  0
   44.5620   35.1840   44.2690 C   0  0  2  0  0  0  0  0  0  0  0  0
   44.1370   35.8240   43.0120 C   0  0  2  0  0  0  0  0  0  0  0  0
   42.9630   36.5420   43.4400 O   0  0  0  0  0  0  0  0  0  0  0  0
   43.4940   37.2400   44.5240 C   0  0  0  0  0  0  0  0  0  0  0  0
   44.5710   36.4410   45.1700 C   0  0  1  0  0  0  0  0  0  0  0  0
   43.7580   34.5460   44.7010 H   0  0  0  0  0  0  0  0  0  0  0  0
   44.8630   36.6160   42.7090 H   0  0  0  0  0  0  0  0  0  0  0  0
   42.6600   37.4230   45.2470 H   0  0  0  0  0  0  0  0  0  0  0  0
   43.8610   38.2350   44.2320 H   0  0  0  0  0  0  0  0  0  0  0  0
   45.5550   36.9200   45.1480 H   0  0  0  0  0  0  0  0  0  0  0  0
   45.7340   34.5190   44.2360 O   0  0  0  0  0  0  0  0  0  0  0  0
   46.0580   34.2820   43.3240 H   0  0  0  0  0  0  0  0  0  0  0  0
   44.2990   36.0500   46.4850 O   0  0  0  0  0  0  0  0  0  0  0  0
   45.1510   35.9050   46.9400 H   0  0  0  0  0  0  0  0  0  0  0  0
   38.8390   33.3710   40.2150 C   0  0  0  0  0  0  0  0  0  0  0  0
   38.2560   34.4880   40.1180 O   0  0  0  0  0  0  0  0  0  0  0  0
   40.2120   33.3610   39.8350 N   0  0  0  0  0  0  0  0  0  0  0  0
   40.6820   32.4060   39.8420 H   0  0  0  0  0  0  0  0  0  0  0  0
   38.1940   32.1410   40.6810 C   0  0  0  0  0  0  0  0  0  0  0  0
   36.8710   31.9500   40.4700 C   0  0  0  0  0  0  0  0  0  0  0  0
   36.3430   30.7540   40.9460 C   0  0  0  0  0  0  0  0  0  0  0  0
   37.0850   29.7810   41.6040 C   0  0  0  0  0  0  0  0  0  0  0  0
   38.4050   30.0610   41.7700 C   0  0  0  0  0  0  0  0  0  0  0  0
   38.9370   31.2000   41.3240 N   0  0  0  0  0  0  0  0  0  0  0  0
   36.2440   32.6720   39.9630 H   0  0  0  0  0  0  0  0  0  0  0  0
   35.2760   30.5700   40.7900 H   0  0  0  0  0  0  0  0  0  0  0  0
   36.6410   28.8630   41.9600 H   0  0  0  0  0  0  0  0  0  0  0  0
   39.3240   29.1480   42.4400 C   0  0  0  0  0  0  0  0  0  0  0  0
   38.8510   27.9690   42.9790 C   0  0  0  0  0  0  0  0  0  0  0  0
   37.7960   27.7050   42.9150 H   0  0  0  0  0  0  0  0  0  0  0  0
   39.6350   27.0260   43.6400 C   0  0  0  0  0  3  0  0  0  0  0  0
   40.9920   27.2850   43.7650 C   0  0  0  0  0  0  0  0  0  0  0  0
   41.7640   26.3850   44.3990 N   0  0  0  0  0  0  0  0  0  0  0  0
   43.1040   26.5910   44.5500 C   0  0  0  0  0  0  0  0  0  0  0  0
   43.7960   25.9220   45.0450 H   0  0  0  0  0  0  0  0  0  0  0  0
   43.5680   27.7720   44.0080 C   0  0  0  0  0  3  0  0  0  0  0  0
   42.8520   28.7470   43.3440 C   0  0  0  0  0  3  0  0  0  0  0  0
   41.4940   28.4570   43.2340 C   0  0  0  0  0  0  0  0  0  0  0  0
   40.6790   29.3630   42.5880 C   0  0  0  0  0  3  0  0  0  0  0  0
  1  3  1  0  0  0  0
  1 28  1  0  0  0  0
  1  4  1  0  0  0  0
  2  1  1  0  0  0  0
  4  5  1  0  0  0  0
  5 10  1  0  0  0  0
  5  6  2  0  0  0  0
  6 13  1  0  0  0  0
  7  6  1  0  0  0  0
  8  7  2  0  0  0  0
  9  4  2  0  0  0  0
  9  8  1  0  0  0  0
 11  8  1  0  0  0  0
 12 17  1  1  0  0  0
 12 16  1  0  0  0  0
 13 18  1  6  0  0  0
 13 14  1  0  0  0  0
 13 12  1  0  0  0  0
 14 15  1  0  0  0  0
 15 16  1  0  0  0  0
 15 19  1  0  0  0  0
 16 21  1  6  0  0  0
 16 24  1  0  0  0  0
 20 15  1  0  0  0  0
 22 12  1  0  0  0  0
 23 22  1  0  0  0  0
 24 25  1  0  0  0  0
 26 30  1  0  0  0  0
 27 26  2  0  0  0  0
 28 29  1  0  0  0  0
 28 26  1  0  0  0  0
 30 35  1  0  0  0  0
 31 30  2  0  0  0  0
 31 32  1  0  0  0  0
 32 33  2  0  0  0  0
 33 34  1  0  0  0  0
 33 38  1  0  0  0  0
 34 39  1  0  0  0  0
 35 34  2  0  0  0  0
 36 31  1  0  0  0  0
 37 32  1  0  0  0  0
 39 50  2  0  0  0  0
 39 40  1  0  0  0  0
 40 42  2  0  0  0  0
 41 40  1  0  0  0  0
 42 43  1  0  0  0  0
 43 44  1  0  0  0  0
 44 45  2  0  0  0  0
 45 46  1  0  0  0  0
 47 45  1  0  0  0  0
 48 47  2  0  0  0  0
 49 48  1  0  0  0  0
 49 43  2  0  0  0  0
 50 49  1  0  0  0  0
M  END
>  <minimizedAffinity>
-8.29130077

$$$$

 OpenBabel03242521473D

 50 54  0  0  1  0  0  0  0  0999 V2000
   37.6550   33.3550   40.1230 C   0  0  0  0  0  0  0  0  0  0  0  0
   37.0670   33.2930   39.2010 H   0  0  0  0  0  0  0  0  0  0  0  0
   37.0170   33.8350   40.9020 H   0  0  0  0  0  0  0  0  0  0  0  0
   38.8960   34.1850   39.9350 C   0  0  0  0  0  0  0  0  0  0  0  0
   40.0670   33.5620   39.4990 C   0  0  0  0  0  0  0  0  0  0  0  0
   41.2330   34.3190   39.3070 C   0  0  0  0  0  0  0  0  0  0  0  0
   41.1640   35.6140   39.5530 N   0  0  0  0  0  0  0  0  0  0  0  0
   40.0290   36.2180   39.9740 C   0  0  0  0  0  0  0  0  0  0  0  0
   38.8920   35.5130   40.1680 N   0  0  0  0  0  0  0  0  0  0  0  0
   39.9900   32.5050   39.3360 H   0  0  0  0  0  0  0  0  0  0  0  0
   40.0380   37.2890   40.1610 H   0  0  0  0  0  0  0  0  0  0  0  0
   42.5350   33.3890   37.4010 C   0  0  2  0  0  0  0  0  0  0  0  0
   42.3960   33.5750   38.8550 C   0  0  2  0  0  0  0  0  0  0  0  0
   42.4380   32.2130   39.3230 O   0  0  0  0  0  0  0  0  0  0  0  0
   43.6120   31.7860   38.7050 C   0  0  0  0  0  0  0  0  0  0  0  0
   43.7950   32.4920   37.4080 C   0  0  1  0  0  0  0  0  0  0  0  0
   41.7360   32.7320   36.9900 H   0  0  0  0  0  0  0  0  0  0  0  0
   43.3120   34.0520   39.2800 H   0  0  0  0  0  0  0  0  0  0  0  0
   43.5220   30.6830   38.5370 H   0  0  0  0  0  0  0  0  0  0  0  0
   44.4900   31.9190   39.3550 H   0  0  0  0  0  0  0  0  0  0  0  0
   44.7010   33.1060   37.3580 H   0  0  0  0  0  0  0  0  0  0  0  0
   42.6590   34.5110   36.6620 O   0  0  0  0  0  0  0  0  0  0  0  0
   42.3650   35.3480   37.1170 H   0  0  0  0  0  0  0  0  0  0  0  0
   43.7600   31.6640   36.2810 O   0  0  0  0  0  0  0  0  0  0  0  0
   44.2630   32.1020   35.5670 H   0  0  0  0  0  0  0  0  0  0  0  0
   37.2830   30.9520   41.0000 C   0  0  0  0  0  0  0  0  0  0  0  0
   36.0410   31.0950   40.8180 O   0  0  0  0  0  0  0  0  0  0  0  0
   38.0910   32.0600   40.6110 N   0  0  0  0  0  0  0  0  0  0  0  0
   39.1410   31.9100   40.6910 H   0  0  0  0  0  0  0  0  0  0  0  0
   37.9010   29.7520   41.5670 C   0  0  0  0  0  0  0  0  0  0  0  0
   38.8480   29.8680   42.5290 C   0  0  0  0  0  0  0  0  0  0  0  0
   39.3790   28.6760   43.0100 C   0  0  0  0  0  0  0  0  0  0  0  0
   38.9970   27.4160   42.5660 C   0  0  0  0  0  0  0  0  0  0  0  0
   38.0410   27.3990   41.5990 C   0  0  0  0  0  0  0  0  0  0  0  0
   37.5150   28.5270   41.1200 N   0  0  0  0  0  0  0  0  0  0  0  0
   39.1830   30.8230   42.9130 H   0  0  0  0  0  0  0  0  0  0  0  0
   40.1460   28.7370   43.7880 H   0  0  0  0  0  0  0  0  0  0  0  0
   39.4320   26.5110   42.9630 H   0  0  0  0  0  0  0  0  0  0  0  0
   37.5290   26.1610   41.0220 C   0  0  0  0  0  0  0  0  0  0  0  0
   37.8110   24.9530   41.6260 C   0  0  0  0  0  0  0  0  0  0  0  0
   38.4160   24.9040   42.5320 H   0  0  0  0  0  0  0  0  0  0  0  0
   37.3760   23.7120   41.1640 C   0  0  0  0  0  3  0  0  0  0  0  0
   36.6000   23.6850   40.0150 C   0  0  0  0  0  0  0  0  0  0  0  0
   36.1710   22.4960   39.5560 N   0  0  0  0  0  0  0  0  0  0  0  0
   35.4050   22.4130   38.4300 C   0  0  0  0  0  0  0  0  0  0  0  0
   35.0180   21.5020   37.9930 H   0  0  0  0  0  0  0  0  0  0  0  0
   35.1270   23.6260   37.8340 C   0  0  0  0  0  3  0  0  0  0  0  0
   35.5230   24.8850   38.2340 C   0  0  0  0  0  3  0  0  0  0  0  0
   36.3000   24.8800   39.3900 C   0  0  0  0  0  0  0  0  0  0  0  0
   36.7540   26.0850   39.8830 C   0  0  0  0  0  3  0  0  0  0  0  0
  1 28  1  0  0  0  0
  1  3  1  0  0  0  0
  2  1  1  0  0  0  0
  4  1  1  0  0  0  0
  4  9  1  0  0  0  0
  5  4  2  0  0  0  0
  6  5  1  0  0  0  0
  6  7  2  0  0  0  0
  7  8  1  0  0  0  0
  8 11  1  0  0  0  0
  8  9  2  0  0  0  0
 10  5  1  0  0  0  0
 12 17  1  6  0  0  0
 12 16  1  0  0  0  0
 12 13  1  0  0  0  0
 13 18  1  1  0  0  0
 13  6  1  0  0  0  0
 13 14  1  0  0  0  0
 15 14  1  0  0  0  0
 15 20  1  0  0  0  0
 16 21  1  1  0  0  0
 16 15  1  0  0  0  0
 19 15  1  0  0  0  0
 22 23  1  0  0  0  0
 22 12  1  0  0  0  0
 24 16  1  0  0  0  0
 25 24  1  0  0  0  0
 26 30  1  0  0  0  0
 27 26  2  0  0  0  0
 28 29  1  0  0  0  0
 28 26  1  0  0  0  0
 30 31  1  0  0  0  0
 31 36  1  0  0  0  0
 31 32  2  0  0  0  0
 32 37  1  0  0  0  0
 33 38  1  0  0  0  0
 33 32  1  0  0  0  0
 34 33  2  0  0  0  0
 35 30  2  0  0  0  0
 35 34  1  0  0  0  0
 39 34  1  0  0  0  0
 39 40  1  0  0  0  0
 40 41  1  0  0  0  0
 42 40  2  0  0  0  0
 43 42  1  0  0  0  0
 44 43  1  0  0  0  0
 45 44  2  0  0  0  0
 46 45  1  0  0  0  0
 47 48  2  0  0  0  0
 47 45  1  0  0  0  0
 48 49  1  0  0  0  0
 49 50  1  0  0  0  0
 49 43  2  0  0  0  0
 50 39  2  0  0  0  0
M  END
>  <minimizedAffinity>
-8.13010883

$$$$

 OpenBabel03242521473D

 50 54  0  0  1  0  0  0  0  0999 V2000
   36.5480   30.3560   41.2150 C   0  0  0  0  0  0  0  0  0  0  0  0
   35.9620   30.9660   41.9110 H   0  0  0  0  0  0  0  0  0  0  0  0
   35.8760   30.0530   40.3780 H   0  0  0  0  0  0  0  0  0  0  0  0
   37.0800   29.1160   41.8800 C   0  0  0  0  0  0  0  0  0  0  0  0
   36.7840   27.8690   41.3250 C   0  0  0  0  0  0  0  0  0  0  0  0
   37.2790   26.7010   41.9230 C   0  0  0  0  0  0  0  0  0  0  0  0
   38.0190   26.8400   43.0070 N   0  0  0  0  0  0  0  0  0  0  0  0
   38.3070   28.0470   43.5460 C   0  0  0  0  0  0  0  0  0  0  0  0
   37.8430   29.1880   42.9900 N   0  0  0  0  0  0  0  0  0  0  0  0
   36.1720   27.8940   40.4440 H   0  0  0  0  0  0  0  0  0  0  0  0
   38.9220   28.0940   44.4410 H   0  0  0  0  0  0  0  0  0  0  0  0
   37.8880   24.3580   41.3460 C   0  0  2  0  0  0  0  0  0  0  0  0
   36.9110   25.4570   41.2690 C   0  0  2  0  0  0  0  0  0  0  0  0
   36.7260   25.5770   39.8450 O   0  0  0  0  0  0  0  0  0  0  0  0
   36.4270   24.2520   39.5330 C   0  0  0  0  0  0  0  0  0  0  0  0
   37.1430   23.3320   40.4590 C   0  0  1  0  0  0  0  0  0  0  0  0
   38.8150   24.5890   40.7740 H   0  0  0  0  0  0  0  0  0  0  0  0
   35.9180   25.1290   41.6600 H   0  0  0  0  0  0  0  0  0  0  0  0
   36.7550   24.0720   38.4780 H   0  0  0  0  0  0  0  0  0  0  0  0
   35.3440   24.0600   39.5450 H   0  0  0  0  0  0  0  0  0  0  0  0
   36.4810   22.7090   41.0690 H   0  0  0  0  0  0  0  0  0  0  0  0
   38.1870   23.9060   42.5800 O   0  0  0  0  0  0  0  0  0  0  0  0
   37.9490   24.5260   43.3240 H   0  0  0  0  0  0  0  0  0  0  0  0
   38.0880   22.5040   39.8450 O   0  0  0  0  0  0  0  0  0  0  0  0
   38.2020   21.7090   40.4020 H   0  0  0  0  0  0  0  0  0  0  0  0
   37.8530   31.5750   39.3470 C   0  0  0  0  0  0  0  0  0  0  0  0
   36.8390   31.4800   38.5990 O   0  0  0  0  0  0  0  0  0  0  0  0
   37.6920   31.0570   40.6650 N   0  0  0  0  0  0  0  0  0  0  0  0
   38.5180   31.2070   41.3190 H   0  0  0  0  0  0  0  0  0  0  0  0
   39.1270   32.1680   38.9380 C   0  0  0  0  0  0  0  0  0  0  0  0
   39.6670   31.8500   37.7380 C   0  0  0  0  0  0  0  0  0  0  0  0
   40.8790   32.4600   37.4320 C   0  0  0  0  0  0  0  0  0  0  0  0
   41.5380   33.3510   38.2710 C   0  0  0  0  0  0  0  0  0  0  0  0
   40.9200   33.6100   39.4540 C   0  0  0  0  0  0  0  0  0  0  0  0
   39.7580   33.0380   39.7730 N   0  0  0  0  0  0  0  0  0  0  0  0
   39.1990   31.1630   37.0440 H   0  0  0  0  0  0  0  0  0  0  0  0
   41.3410   32.2230   36.4680 H   0  0  0  0  0  0  0  0  0  0  0  0
   42.4790   33.8060   38.0000 H   0  0  0  0  0  0  0  0  0  0  0  0
   41.4770   34.5210   40.4490 C   0  0  0  0  0  0  0  0  0  0  0  0
   40.8350   35.7090   40.7270 C   0  0  0  0  0  0  0  0  0  0  0  0
   39.9140   35.9860   40.2140 H   0  0  0  0  0  0  0  0  0  0  0  0
   41.2750   36.6520   41.6540 C   0  0  0  0  0  3  0  0  0  0  0  0
   42.4410   36.3780   42.3520 C   0  0  0  0  0  0  0  0  0  0  0  0
   42.8800   37.2770   43.2510 N   0  0  0  0  0  0  0  0  0  0  0  0
   44.0220   37.0560   43.9650 C   0  0  0  0  0  0  0  0  0  0  0  0
   44.4450   37.7230   44.7050 H   0  0  0  0  0  0  0  0  0  0  0  0
   44.6560   35.8640   43.6800 C   0  0  0  0  0  3  0  0  0  0  0  0
   44.2790   34.8900   42.7790 C   0  0  0  0  0  3  0  0  0  0  0  0
   43.1050   35.1940   42.0950 C   0  0  0  0  0  0  0  0  0  0  0  0
   42.6320   34.2910   41.1660 C   0  0  0  0  0  3  0  0  0  0  0  0
  1  4  1  0  0  0  0
  1  2  1  0  0  0  0
  3  1  1  0  0  0  0
  4  9  1  0  0  0  0
  5  4  2  0  0  0  0
  5  6  1  0  0  0  0
  6  7  2  0  0  0  0
  7  8  1  0  0  0  0
  8 11  1  0  0  0  0
  9  8  2  0  0  0  0
 10  5  1  0  0  0  0
 12 17  1  6  0  0  0
 12 22  1  0  0  0  0
 13 12  1  0  0  0  0
 13 18  1  1  0  0  0
 13  6  1  0  0  0  0
 14 13  1  0  0  0  0
 15 20  1  0  0  0  0
 15 14  1  0  0  0  0
 15 16  1  0  0  0  0
 16 21  1  1  0  0  0
 16 12  1  0  0  0  0
 19 15  1  0  0  0  0
 22 23  1  0  0  0  0
 24 25  1  0  0  0  0
 24 16  1  0  0  0  0
 26 28  1  0  0  0  0
 27 26  2  0  0  0  0
 28  1  1  0  0  0  0
 28 29  1  0  0  0  0
 30 26  1  0  0  0  0
 30 35  1  0  0  0  0
 31 30  2  0  0  0  0
 32 31  1  0  0  0  0
 32 33  2  0  0  0  0
 33 34  1  0  0  0  0
 34 35  2  0  0  0  0
 34 39  1  0  0  0  0
 36 31  1  0  0  0  0
 37 32  1  0  0  0  0
 38 33  1  0  0  0  0
 39 40  2  0  0  0  0
 39 50  1  0  0  0  0
 40 42  1  0  0  0  0
 41 40  1  0  0  0  0
 42 43  2  0  0  0  0
 43 44  1  0  0  0  0
 44 45  2  0  0  0  0
 45 46  1  0  0  0  0
 47 45  1  0  0  0  0
 48 47  2  0  0  0  0
 49 43  1  0  0  0  0
 49 48  1  0  0  0  0
 50 49  2  0  0  0  0
M  END
>  <minimizedAffinity>
-8.01464939

$$$$

 OpenBabel03242521473D

 50 54  0  0  1  0  0  0  0  0999 V2000
   37.7940   31.5320   38.7380 C   0  0  0  0  0  0  0  0  0  0  0  0
   38.1220   31.2660   37.7270 H   0  0  0  0  0  0  0  0  0  0  0  0
   36.7280   31.8530   38.6760 H   0  0  0  0  0  0  0  0  0  0  0  0
   38.6080   32.6640   39.3040 C   0  0  0  0  0  0  0  0  0  0  0  0
   39.9830   32.6970   39.0620 C   0  0  0  0  0  0  0  0  0  0  0  0
   40.7590   33.7490   39.5720 C   0  0  0  0  0  0  0  0  0  0  0  0
   40.1360   34.6800   40.2720 N   0  0  0  0  0  0  0  0  0  0  0  0
   38.8040   34.6490   40.5060 C   0  0  0  0  0  0  0  0  0  0  0  0
   38.0330   33.6470   40.0270 N   0  0  0  0  0  0  0  0  0  0  0  0
   40.3640   31.8810   38.4800 H   0  0  0  0  0  0  0  0  0  0  0  0
   38.3520   35.4450   41.0910 H   0  0  0  0  0  0  0  0  0  0  0  0
   42.6050   34.3010   37.9970 C   0  0  2  0  0  0  0  0  0  0  0  0
   42.1770   33.6870   39.2660 C   0  0  2  0  0  0  0  0  0  0  0  0
   42.6870   32.3470   39.1210 O   0  0  0  0  0  0  0  0  0  0  0  0
   44.0150   32.6310   38.8070 C   0  0  0  0  0  0  0  0  0  0  0  0
   44.1010   33.9100   38.0510 C   0  0  1  0  0  0  0  0  0  0  0  0
   42.2110   33.7460   37.1160 H   0  0  0  0  0  0  0  0  0  0  0  0
   42.7470   34.1190   40.1240 H   0  0  0  0  0  0  0  0  0  0  0  0
   44.4020   31.7860   38.1840 H   0  0  0  0  0  0  0  0  0  0  0  0
   44.6530   32.6580   39.7030 H   0  0  0  0  0  0  0  0  0  0  0  0
   44.6810   34.6900   38.5570 H   0  0  0  0  0  0  0  0  0  0  0  0
   42.3840   35.6240   37.8670 O   0  0  0  0  0  0  0  0  0  0  0  0
   41.7120   36.0030   38.5000 H   0  0  0  0  0  0  0  0  0  0  0  0
   44.5770   33.7850   36.7420 O   0  0  0  0  0  0  0  0  0  0  0  0
   44.9670   34.6410   36.4780 H   0  0  0  0  0  0  0  0  0  0  0  0
   37.0330   30.1310   40.7710 C   0  0  0  0  0  0  0  0  0  0  0  0
   36.0090   30.8650   40.8730 O   0  0  0  0  0  0  0  0  0  0  0  0
   37.8980   30.4340   39.6800 N   0  0  0  0  0  0  0  0  0  0  0  0
   38.7170   29.7680   39.5480 H   0  0  0  0  0  0  0  0  0  0  0  0
   37.3540   29.0310   41.6840 C   0  0  0  0  0  0  0  0  0  0  0  0
   36.3870   28.1660   42.0680 C   0  0  0  0  0  0  0  0  0  0  0  0
   36.7820   27.1540   42.9360 C   0  0  0  0  0  0  0  0  0  0  0  0
   38.0790   26.9940   43.4090 C   0  0  0  0  0  0  0  0  0  0  0  0
   38.9820   27.9100   42.9690 C   0  0  0  0  0  0  0  0  0  0  0  0
   38.6300   28.8920   42.1370 N   0  0  0  0  0  0  0  0  0  0  0  0
   35.3600   28.2420   41.7310 H   0  0  0  0  0  0  0  0  0  0  0  0
   36.0220   26.4380   43.2650 H   0  0  0  0  0  0  0  0  0  0  0  0
   38.3500   26.1950   44.0830 H   0  0  0  0  0  0  0  0  0  0  0  0
   40.3840   27.8870   43.3700 C   0  0  0  0  0  0  0  0  0  0  0  0
   40.8620   26.8460   44.1390 C   0  0  0  0  0  0  0  0  0  0  0  0
   40.2080   26.0350   44.4570 H   0  0  0  0  0  0  0  0  0  0  0  0
   42.1780   26.7220   44.5790 C   0  0  0  0  0  3  0  0  0  0  0  0
   43.0780   27.7140   44.2180 C   0  0  0  0  0  0  0  0  0  0  0  0
   44.3530   27.6090   44.6330 N   0  0  0  0  0  0  0  0  0  0  0  0
   45.2780   28.5570   44.3060 C   0  0  0  0  0  0  0  0  0  0  0  0
   46.3200   28.5510   44.5970 H   0  0  0  0  0  0  0  0  0  0  0  0
   44.7910   29.5940   43.5360 C   0  0  0  0  0  3  0  0  0  0  0  0
   43.5070   29.7790   43.0680 C   0  0  0  0  0  3  0  0  0  0  0  0
   42.6280   28.7680   43.4470 C   0  0  0  0  0  0  0  0  0  0  0  0
   41.3140   28.8490   43.0350 C   0  0  0  0  0  3  0  0  0  0  0  0
  1  4  1  0  0  0  0
  1 28  1  0  0  0  0
  2  1  1  0  0  0  0
  3  1  1  0  0  0  0
  4  9  1  0  0  0  0
  5  4  2  0  0  0  0
  5  6  1  0  0  0  0
  6  7  2  0  0  0  0
  7  8  1  0  0  0  0
  8 11  1  0  0  0  0
  9  8  2  0  0  0  0
 10  5  1  0  0  0  0
 12 17  1  6  0  0  0
 12 16  1  0  0  0  0
 12 13  1  0  0  0  0
 13  6  1  0  0  0  0
 13 18  1  1  0  0  0
 14 13  1  0  0  0  0
 15 14  1  0  0  0  0
 15 20  1  0  0  0  0
 16 21  1  1  0  0  0
 16 15  1  0  0  0  0
 19 15  1  0  0  0  0
 22 12  1  0  0  0  0
 22 23  1  0  0  0  0
 24 16  1  0  0  0  0
 25 24  1  0  0  0  0
 26 27  2  0  0  0  0
 26 30  1  0  0  0  0
 28 26  1  0  0  0  0
 29 28  1  0  0  0  0
 30 31  2  0  0  0  0
 30 35  1  0  0  0  0
 31 32  1  0  0  0  0
 32 37  1  0  0  0  0
 32 33  2  0  0  0  0
 33 38  1  0  0  0  0
 34 39  1  0  0  0  0
 34 33  1  0  0  0  0
 35 34  2  0  0  0  0
 36 31  1  0  0  0  0
 39 40  1  0  0  0  0
 40 41  1  0  0  0  0
 40 42  2  0  0  0  0
 43 42  1  0  0  0  0
 43 44  1  0  0  0  0
 45 46  1  0  0  0  0
 45 44  2  0  0  0  0
 47 45  1  0  0  0  0
 48 49  1  0  0  0  0
 48 47  2  0  0  0  0
 49 43  2  0  0  0  0
 50 39  2  0  0  0  0
 50 49  1  0  0  0  0
M  END
>  <minimizedAffinity>
-7.81690741

$$$$

 OpenBabel03242521473D

 50 54  0  0  1  0  0  0  0  0999 V2000
   43.6230   32.1160   40.7940 C   0  0  0  0  0  0  0  0  0  0  0  0
   44.4070   32.8160   41.1030 H   0  0  0  0  0  0  0  0  0  0  0  0
   43.9310   31.6660   39.8220 H   0  0  0  0  0  0  0  0  0  0  0  0
   42.3020   32.8130   40.6070 C   0  0  0  0  0  0  0  0  0  0  0  0
   41.1440   32.0440   40.4710 C   0  0  0  0  0  0  0  0  0  0  0  0
   39.9010   32.6750   40.3060 C   0  0  0  0  0  0  0  0  0  0  0  0
   39.8860   33.9940   40.2860 N   0  0  0  0  0  0  0  0  0  0  0  0
   41.0080   34.7400   40.4170 C   0  0  0  0  0  0  0  0  0  0  0  0
   42.2180   34.1590   40.5770 N   0  0  0  0  0  0  0  0  0  0  0  0
   41.2930   30.9830   40.5040 H   0  0  0  0  0  0  0  0  0  0  0  0
   40.9290   35.8230   40.3910 H   0  0  0  0  0  0  0  0  0  0  0  0
   37.4660   32.2970   40.6500 C   0  0  2  0  0  0  0  0  0  0  0  0
   38.7610   31.7850   40.1710 C   0  0  2  0  0  0  0  0  0  0  0  0
   38.8810   30.5610   40.9240 O   0  0  0  0  0  0  0  0  0  0  0  0
   37.6540   29.9740   40.6180 C   0  0  0  0  0  0  0  0  0  0  0  0
   36.6190   31.0240   40.4140 C   0  0  1  0  0  0  0  0  0  0  0  0
   37.4570   32.4280   41.7560 H   0  0  0  0  0  0  0  0  0  0  0  0
   38.6850   31.4590   39.1060 H   0  0  0  0  0  0  0  0  0  0  0  0
   37.3730   29.3140   41.4770 H   0  0  0  0  0  0  0  0  0  0  0  0
   37.7220   29.3120   39.7420 H   0  0  0  0  0  0  0  0  0  0  0  0
   36.1850   31.0350   39.4090 H   0  0  0  0  0  0  0  0  0  0  0  0
   36.9920   33.3980   40.0340 O   0  0  0  0  0  0  0  0  0  0  0  0
   37.6710   33.9190   39.5230 H   0  0  0  0  0  0  0  0  0  0  0  0
   35.5750   31.0040   41.3450 O   0  0  0  0  0  0  0  0  0  0  0  0
   34.7920   31.4160   40.9310 H   0  0  0  0  0  0  0  0  0  0  0  0
   43.6490   31.0640   43.1540 C   0  0  0  0  0  0  0  0  0  0  0  0
   44.0390   32.1700   43.6250 O   0  0  0  0  0  0  0  0  0  0  0  0
   43.3980   31.0500   41.7520 N   0  0  0  0  0  0  0  0  0  0  0  0
   42.9960   30.1420   41.3690 H   0  0  0  0  0  0  0  0  0  0  0  0
   43.4540   29.8510   43.9510 C   0  0  0  0  0  0  0  0  0  0  0  0
   44.2100   29.6370   45.0540 C   0  0  0  0  0  0  0  0  0  0  0  0
   43.9560   28.4590   45.7490 C   0  0  0  0  0  0  0  0  0  0  0  0
   42.9960   27.5260   45.3780 C   0  0  0  0  0  0  0  0  0  0  0  0
   42.2860   27.8270   44.2580 C   0  0  0  0  0  0  0  0  0  0  0  0
   42.5090   28.9490   43.5720 N   0  0  0  0  0  0  0  0  0  0  0  0
   44.9720   30.3290   45.3900 H   0  0  0  0  0  0  0  0  0  0  0  0
   44.5510   28.2580   46.6450 H   0  0  0  0  0  0  0  0  0  0  0  0
   42.8260   26.6220   45.9430 H   0  0  0  0  0  0  0  0  0  0  0  0
   41.2410   26.9550   43.7310 C   0  0  0  0  0  0  0  0  0  0  0  0
   41.5410   25.6520   43.3920 C   0  0  0  0  0  0  0  0  0  0  0  0
   42.5500   25.2570   43.5090 H   0  0  0  0  0  0  0  0  0  0  0  0
   40.6270   24.7330   42.8810 C   0  0  0  0  0  3  0  0  0  0  0  0
   39.3180   25.1550   42.7010 C   0  0  0  0  0  0  0  0  0  0  0  0
   38.4210   24.2800   42.2100 N   0  0  0  0  0  0  0  0  0  0  0  0
   37.1210   24.6440   42.0130 C   0  0  0  0  0  0  0  0  0  0  0  0
   36.3370   24.0070   41.6240 H   0  0  0  0  0  0  0  0  0  0  0  0
   36.8310   25.9480   42.3560 C   0  0  0  0  0  3  0  0  0  0  0  0
   37.6820   26.9070   42.8640 C   0  0  0  0  0  3  0  0  0  0  0  0
   38.9880   26.4540   43.0340 C   0  0  0  0  0  0  0  0  0  0  0  0
   39.9280   27.3290   43.5360 C   0  0  0  0  0  3  0  0  0  0  0  0
  1  2  1  0  0  0  0
  1 28  1  0  0  0  0
  3  1  1  0  0  0  0
  4  1  1  0  0  0  0
  5 10  1  0  0  0  0
  5  4  2  0  0  0  0
  6  5  1  0  0  0  0
  7  6  2  0  0  0  0
  7  8  1  0  0  0  0
  8  9  2  0  0  0  0
  9  4  1  0  0  0  0
 11  8  1  0  0  0  0
 12 17  1  1  0  0  0
 13 18  1  6  0  0  0
 13  6  1  0  0  0  0
 13 12  1  0  0  0  0
 13 14  1  0  0  0  0
 15 14  1  0  0  0  0
 15 19  1  0  0  0  0
 16 21  1  6  0  0  0
 16 15  1  0  0  0  0
 16 12  1  0  0  0  0
 16 24  1  0  0  0  0
 20 15  1  0  0  0  0
 22 12  1  0  0  0  0
 23 22  1  0  0  0  0
 25 24  1  0  0  0  0
 26 27  2  0  0  0  0
 26 30  1  0  0  0  0
 28 26  1  0  0  0  0
 29 28  1  0  0  0  0
 30 31  1  0  0  0  0
 31 36  1  0  0  0  0
 31 32  2  0  0  0  0
 32 37  1  0  0  0  0
 33 32  1  0  0  0  0
 33 38  1  0  0  0  0
 34 33  2  0  0  0  0
 35 30  2  0  0  0  0
 35 34  1  0  0  0  0
 39 34  1  0  0  0  0
 40 41  1  0  0  0  0
 40 39  2  0  0  0  0
 42 40  1  0  0  0  0
 43 42  2  0  0  0  0
 43 49  1  0  0  0  0
 44 43  1  0  0  0  0
 45 44  2  0  0  0  0
 45 47  1  0  0  0  0
 46 45  1  0  0  0  0
 47 48  2  0  0  0  0
 48 49  1  0  0  0  0
 49 50  2  0  0  0  0
 50 39  1  0  0  0  0
M  END
>  <minimizedAffinity>
-7.79166031

$$$$

 OpenBabel03242521473D

 50 54  0  0  1  0  0  0  0  0999 V2000
   36.6490   30.3660   41.0550 C   0  0  0  0  0  0  0  0  0  0  0  0
   36.0290   30.9780   41.7190 H   0  0  0  0  0  0  0  0  0  0  0  0
   36.0140   30.0470   40.1950 H   0  0  0  0  0  0  0  0  0  0  0  0
   37.1660   29.1380   41.7560 C   0  0  0  0  0  0  0  0  0  0  0  0
   38.5390   29.0120   41.9750 C   0  0  0  0  0  0  0  0  0  0  0  0
   39.0410   27.8800   42.6360 C   0  0  0  0  0  0  0  0  0  0  0  0
   38.1700   26.9690   43.0280 N   0  0  0  0  0  0  0  0  0  0  0  0
   36.8400   27.0910   42.8160 C   0  0  0  0  0  0  0  0  0  0  0  0
   36.3290   28.1700   42.1820 N   0  0  0  0  0  0  0  0  0  0  0  0
   39.1380   29.8220   41.6070 H   0  0  0  0  0  0  0  0  0  0  0  0
   36.1750   26.3040   43.1630 H   0  0  0  0  0  0  0  0  0  0  0  0
   40.9810   27.2230   44.0490 C   0  0  2  0  0  0  0  0  0  0  0  0
   40.4830   27.8450   42.8100 C   0  0  2  0  0  0  0  0  0  0  0  0
   41.0970   29.1470   42.8770 O   0  0  0  0  0  0  0  0  0  0  0  0
   42.4250   28.7730   43.0760 C   0  0  0  0  0  0  0  0  0  0  0  0
   42.4890   27.5040   43.8510 C   0  0  1  0  0  0  0  0  0  0  0  0
   40.7100   27.8200   44.9490 H   0  0  0  0  0  0  0  0  0  0  0  0
   40.9390   27.3590   41.9150 H   0  0  0  0  0  0  0  0  0  0  0  0
   42.9260   29.5980   43.6420 H   0  0  0  0  0  0  0  0  0  0  0  0
   42.9740   28.6850   42.1270 H   0  0  0  0  0  0  0  0  0  0  0  0
   42.9650   26.6770   43.3130 H   0  0  0  0  0  0  0  0  0  0  0  0
   40.6800   25.9210   44.2290 O   0  0  0  0  0  0  0  0  0  0  0  0
   39.9290   25.5820   43.6690 H   0  0  0  0  0  0  0  0  0  0  0  0
   43.0920   27.6160   45.1080 O   0  0  0  0  0  0  0  0  0  0  0  0
   43.4440   26.7390   45.3550 H   0  0  0  0  0  0  0  0  0  0  0  0
   37.9860   31.6420   39.2500 C   0  0  0  0  0  0  0  0  0  0  0  0
   36.9770   31.5930   38.4910 O   0  0  0  0  0  0  0  0  0  0  0  0
   37.8080   31.0720   40.5430 N   0  0  0  0  0  0  0  0  0  0  0  0
   38.6310   31.1820   41.2090 H   0  0  0  0  0  0  0  0  0  0  0  0
   39.2730   32.2320   38.8750 C   0  0  0  0  0  0  0  0  0  0  0  0
   39.8360   31.9270   37.6820 C   0  0  0  0  0  0  0  0  0  0  0  0
   41.0570   32.5330   37.4100 C   0  0  0  0  0  0  0  0  0  0  0  0
   41.7040   33.4080   38.2740 C   0  0  0  0  0  0  0  0  0  0  0  0
   41.0640   33.6550   39.4470 C   0  0  0  0  0  0  0  0  0  0  0  0
   39.8910   33.0860   39.7340 N   0  0  0  0  0  0  0  0  0  0  0  0
   39.3770   31.2530   36.9690 H   0  0  0  0  0  0  0  0  0  0  0  0
   41.5370   32.3060   36.4520 H   0  0  0  0  0  0  0  0  0  0  0  0
   42.6530   33.8610   38.0280 H   0  0  0  0  0  0  0  0  0  0  0  0
   41.6050   34.5480   40.4660 C   0  0  0  0  0  0  0  0  0  0  0  0
   40.9840   35.7520   40.7250 C   0  0  0  0  0  0  0  0  0  0  0  0
   40.0900   36.0530   40.1790 H   0  0  0  0  0  0  0  0  0  0  0  0
   41.4120   36.6800   41.6710 C   0  0  0  0  0  3  0  0  0  0  0  0
   42.5450   36.3740   42.4110 C   0  0  0  0  0  0  0  0  0  0  0  0
   42.9720   37.2590   43.3300 N   0  0  0  0  0  0  0  0  0  0  0  0
   44.0810   37.0080   44.0850 C   0  0  0  0  0  0  0  0  0  0  0  0
   44.4920   37.6610   44.8430 H   0  0  0  0  0  0  0  0  0  0  0  0
   44.6950   35.8010   43.8190 C   0  0  0  0  0  3  0  0  0  0  0  0
   44.3270   34.8390   42.9010 C   0  0  0  0  0  3  0  0  0  0  0  0
   43.1870   35.1750   42.1750 C   0  0  0  0  0  0  0  0  0  0  0  0
   42.7270   34.2860   41.2250 C   0  0  0  0  0  3  0  0  0  0  0  0
  1  2  1  0  0  0  0
  1  4  1  0  0  0  0
  3  1  1  0  0  0  0
  4  5  2  0  0  0  0
  4  9  1  0  0  0  0
  5  6  1  0  0  0  0
  6 13  1  0  0  0  0
  6  7  2  0  0  0  0
  8  7  1  0  0  0  0
  8 11  1  0  0  0  0
  9  8  2  0  0  0  0
 10  5  1  0  0  0  0
 12 22  1  0  0  0  0
 12 17  1  1  0  0  0
 13 18  1  6  0  0  0
 13 14  1  0  0  0  0
 13 12  1  0  0  0  0
 14 15  1  0  0  0  0
 15 19  1  0  0  0  0
 15 16  1  0  0  0  0
 16 21  1  6  0  0  0
 16 12  1  0  0  0  0
 16 24  1  0  0  0  0
 20 15  1  0  0  0  0
 23 22  1  0  0  0  0
 24 25  1  0  0  0  0
 26 28  1  0  0  0  0
 27 26  2  0  0  0  0
 28  1  1  0  0  0  0
 28 29  1  0  0  0  0
 30 26  1  0  0  0  0
 30 35  1  0  0  0  0
 31 30  2  0  0  0  0
 32 31  1  0  0  0  0
 32 33  2  0  0  0  0
 33 34  1  0  0  0  0
 34 35  2  0  0  0  0
 34 39  1  0  0  0  0
 36 31  1  0  0  0  0
 37 32  1  0  0  0  0
 38 33  1  0  0  0  0
 39 40  2  0  0  0  0
 39 50  1  0  0  0  0
 40 42  1  0  0  0  0
 41 40  1  0  0  0  0
 42 43  2  0  0  0  0
 43 44  1  0  0  0  0
 44 45  2  0  0  0  0
 45 46  1  0  0  0  0
 47 45  1  0  0  0  0
 48 47  2  0  0  0  0
 49 43  1  0  0  0  0
 49 48  1  0  0  0  0
 50 49  2  0  0  0  0
M  END
>  <minimizedAffinity>
-7.76594448

$$$$

 OpenBabel03242521473D

 50 54  0  0  1  0  0  0  0  0999 V2000
   38.0030   33.9020   39.8390 C   0  0  0  0  0  0  0  0  0  0  0  0
   37.8600   33.7990   38.7580 H   0  0  0  0  0  0  0  0  0  0  0  0
   37.0710   34.3420   40.2660 H   0  0  0  0  0  0  0  0  0  0  0  0
   39.1590   34.8110   40.1610 C   0  0  0  0  0  0  0  0  0  0  0  0
   40.3930   34.2460   40.4890 C   0  0  0  0  0  0  0  0  0  0  0  0
   41.4860   35.0760   40.7830 C   0  0  0  0  0  0  0  0  0  0  0  0
   41.2900   36.3800   40.7320 N   0  0  0  0  0  0  0  0  0  0  0  0
   40.0950   36.9280   40.4140 C   0  0  0  0  0  0  0  0  0  0  0  0
   39.0250   36.1520   40.1270 N   0  0  0  0  0  0  0  0  0  0  0  0
   40.4190   33.1740   40.4950 H   0  0  0  0  0  0  0  0  0  0  0  0
   39.9980   38.0100   40.3910 H   0  0  0  0  0  0  0  0  0  0  0  0
   43.6910   35.1360   41.9340 C   0  0  2  0  0  0  0  0  0  0  0  0
   42.7220   34.3890   41.1150 C   0  0  2  0  0  0  0  0  0  0  0  0
   43.5250   34.0410   39.9690 O   0  0  0  0  0  0  0  0  0  0  0  0
   44.6130   33.4530   40.6120 C   0  0  0  0  0  0  0  0  0  0  0  0
   44.8350   34.0950   41.9350 C   0  0  1  0  0  0  0  0  0  0  0  0
   44.1160   36.0060   41.3820 H   0  0  0  0  0  0  0  0  0  0  0  0
   42.4710   33.4130   41.5950 H   0  0  0  0  0  0  0  0  0  0  0  0
   45.5080   33.5950   39.9560 H   0  0  0  0  0  0  0  0  0  0  0  0
   44.4890   32.3640   40.7160 H   0  0  0  0  0  0  0  0  0  0  0  0
   44.7300   33.4130   42.7860 H   0  0  0  0  0  0  0  0  0  0  0  0
   43.2780   35.5050   43.1630 O   0  0  0  0  0  0  0  0  0  0  0  0
   42.2900   35.4940   43.2960 H   0  0  0  0  0  0  0  0  0  0  0  0
   46.0540   34.7710   42.0600 O   0  0  0  0  0  0  0  0  0  0  0  0
   46.2870   34.8020   43.0080 H   0  0  0  0  0  0  0  0  0  0  0  0
   37.6330   31.3840   40.2860 C   0  0  0  0  0  0  0  0  0  0  0  0
   36.7930   31.3560   39.3420 O   0  0  0  0  0  0  0  0  0  0  0  0
   38.2690   32.6400   40.5030 N   0  0  0  0  0  0  0  0  0  0  0  0
   39.0320   32.6440   41.2450 H   0  0  0  0  0  0  0  0  0  0  0  0
   37.9660   30.2330   41.1280 C   0  0  0  0  0  0  0  0  0  0  0  0
   38.7070   30.4050   42.2480 C   0  0  0  0  0  0  0  0  0  0  0  0
   38.9740   29.2570   42.9860 C   0  0  0  0  0  0  0  0  0  0  0  0
   38.5320   27.9860   42.6400 C   0  0  0  0  0  0  0  0  0  0  0  0
   37.7960   27.9110   41.4990 C   0  0  0  0  0  0  0  0  0  0  0  0
   37.5240   28.9960   40.7720 N   0  0  0  0  0  0  0  0  0  0  0  0
   39.0780   31.3710   42.5660 H   0  0  0  0  0  0  0  0  0  0  0  0
   39.5710   29.3640   43.8970 H   0  0  0  0  0  0  0  0  0  0  0  0
   38.7590   27.1160   43.2380 H   0  0  0  0  0  0  0  0  0  0  0  0
   37.2560   26.6530   40.9940 C   0  0  0  0  0  0  0  0  0  0  0  0
   37.2460   25.5360   41.8020 C   0  0  0  0  0  0  0  0  0  0  0  0
   37.6380   25.5720   42.8180 H   0  0  0  0  0  0  0  0  0  0  0  0
   36.7570   24.2860   41.4250 C   0  0  0  0  0  3  0  0  0  0  0  0
   36.2390   24.1530   40.1460 C   0  0  0  0  0  0  0  0  0  0  0  0
   35.7620   22.9550   39.7660 N   0  0  0  0  0  0  0  0  0  0  0  0
   35.2420   22.7690   38.5180 C   0  0  0  0  0  0  0  0  0  0  0  0
   34.8380   21.8430   38.1310 H   0  0  0  0  0  0  0  0  0  0  0  0
   35.2550   23.8930   37.7170 C   0  0  0  0  0  3  0  0  0  0  0  0
   35.7220   25.1540   38.0230 C   0  0  0  0  0  3  0  0  0  0  0  0
   36.2350   25.2560   39.3140 C   0  0  0  0  0  0  0  0  0  0  0  0
   36.7310   26.4740   39.7310 C   0  0  0  0  0  3  0  0  0  0  0  0
  1  4  1  0  0  0  0
  1  3  1  0  0  0  0
  1 28  1  0  0  0  0
  2  1  1  0  0  0  0
  4  5  1  0  0  0  0
  5 10  1  0  0  0  0
  5  6  2  0  0  0  0
  6 13  1  0  0  0  0
  7  6  1  0  0  0  0
  8  7  2  0  0  0  0
  9  4  2  0  0  0  0
  9  8  1  0  0  0  0
 11  8  1  0  0  0  0
 12 17  1  6  0  0  0
 12 16  1  0  0  0  0
 12 22  1  0  0  0  0
 13 18  1  1  0  0  0
 13 12  1  0  0  0  0
 14 15  1  0  0  0  0
 14 13  1  0  0  0  0
 15 20  1  0  0  0  0
 15 16  1  0  0  0  0
 16 24  1  0  0  0  0
 16 21  1  1  0  0  0
 19 15  1  0  0  0  0
 22 23  1  0  0  0  0
 24 25  1  0  0  0  0
 26 28  1  0  0  0  0
 26 30  1  0  0  0  0
 27 26  2  0  0  0  0
 28 29  1  0  0  0  0
 30 31  1  0  0  0  0
 31 36  1  0  0  0  0
 31 32  2  0  0  0  0
 32 37  1  0  0  0  0
 33 32  1  0  0  0  0
 33 38  1  0  0  0  0
 34 33  2  0  0  0  0
 35 30  2  0  0  0  0
 35 34  1  0  0  0  0
 39 34  1  0  0  0  0
 39 40  1  0  0  0  0
 40 41  1  0  0  0  0
 42 40  2  0  0  0  0
 43 42  1  0  0  0  0
 44 43  1  0  0  0  0
 45 44  2  0  0  0  0
 46 45  1  0  0  0  0
 47 48  2  0  0  0  0
 47 45  1  0  0  0  0
 48 49  1  0  0  0  0
 49 50  1  0  0  0  0
 49 43  2  0  0  0  0
 50 39  2  0  0  0  0
M  END
>  <minimizedAffinity>
-7.7106328

$$$$

 OpenBabel03242521473D

 50 54  0  0  1  0  0  0  0  0999 V2000
   38.4550   30.8500   38.0290 C   0  0  0  0  0  0  0  0  0  0  0  0
   38.4450   30.3940   37.0340 H   0  0  0  0  0  0  0  0  0  0  0  0
   37.6440   31.6150   38.0630 H   0  0  0  0  0  0  0  0  0  0  0  0
   39.7690   31.5270   38.3150 C   0  0  0  0  0  0  0  0  0  0  0  0
   39.7660   32.8350   38.8010 C   0  0  0  0  0  0  0  0  0  0  0  0
   40.9790   33.4810   39.0830 C   0  0  0  0  0  0  0  0  0  0  0  0
   42.0920   32.8030   38.8700 N   0  0  0  0  0  0  0  0  0  0  0  0
   42.0960   31.5350   38.3990 C   0  0  0  0  0  0  0  0  0  0  0  0
   40.9420   30.8900   38.1180 N   0  0  0  0  0  0  0  0  0  0  0  0
   38.7950   33.2730   38.9300 H   0  0  0  0  0  0  0  0  0  0  0  0
   43.0470   31.0310   38.2430 H   0  0  0  0  0  0  0  0  0  0  0  0
   41.5720   35.1430   40.8380 C   0  0  2  0  0  0  0  0  0  0  0  0
   40.8650   34.8400   39.5820 C   0  0  2  0  0  0  0  0  0  0  0  0
   39.5170   35.2320   39.9100 O   0  0  0  0  0  0  0  0  0  0  0  0
   39.7540   36.5250   40.3750 C   0  0  0  0  0  0  0  0  0  0  0  0
   41.0920   36.6020   41.0210 C   0  0  1  0  0  0  0  0  0  0  0  0
   41.1270   34.6000   41.7040 H   0  0  0  0  0  0  0  0  0  0  0  0
   41.1790   35.5440   38.7740 H   0  0  0  0  0  0  0  0  0  0  0  0
   38.9510   36.7680   41.1160 H   0  0  0  0  0  0  0  0  0  0  0  0
   39.6580   37.2740   39.5740 H   0  0  0  0  0  0  0  0  0  0  0  0
   41.7840   37.2950   40.5320 H   0  0  0  0  0  0  0  0  0  0  0  0
   42.9120   34.9990   40.8210 O   0  0  0  0  0  0  0  0  0  0  0  0
   43.2660   34.4430   40.0740 H   0  0  0  0  0  0  0  0  0  0  0  0
   41.0650   36.8950   42.3880 O   0  0  0  0  0  0  0  0  0  0  0  0
   41.9180   37.3070   42.6260 H   0  0  0  0  0  0  0  0  0  0  0  0
   37.5310   30.0880   40.3190 C   0  0  0  0  0  0  0  0  0  0  0  0
   36.9540   31.2070   40.4400 O   0  0  0  0  0  0  0  0  0  0  0  0
   38.2400   29.8940   39.0990 N   0  0  0  0  0  0  0  0  0  0  0  0
   38.6590   28.9250   38.9630 H   0  0  0  0  0  0  0  0  0  0  0  0
   37.5030   29.0320   41.3330 C   0  0  0  0  0  0  0  0  0  0  0  0
   37.4990   29.3550   42.6470 C   0  0  0  0  0  0  0  0  0  0  0  0
   37.4720   28.2880   43.5390 C   0  0  0  0  0  0  0  0  0  0  0  0
   37.4470   26.9530   43.1560 C   0  0  0  0  0  0  0  0  0  0  0  0
   37.4520   26.7250   41.8160 C   0  0  0  0  0  0  0  0  0  0  0  0
   37.4790   27.7300   40.9390 N   0  0  0  0  0  0  0  0  0  0  0  0
   37.5170   30.3780   43.0030 H   0  0  0  0  0  0  0  0  0  0  0  0
   37.4680   28.5170   44.6090 H   0  0  0  0  0  0  0  0  0  0  0  0
   37.4260   26.1490   43.8780 H   0  0  0  0  0  0  0  0  0  0  0  0
   37.4290   25.3820   41.2460 C   0  0  0  0  0  0  0  0  0  0  0  0
   38.5110   24.5440   41.4200 C   0  0  0  0  0  0  0  0  0  0  0  0
   39.3900   24.8670   41.9770 H   0  0  0  0  0  0  0  0  0  0  0  0
   38.5990   23.2460   40.9210 C   0  0  0  0  0  3  0  0  0  0  0  0
   37.5210   22.7560   40.1990 C   0  0  0  0  0  0  0  0  0  0  0  0
   37.5890   21.5040   39.7110 N   0  0  0  0  0  0  0  0  0  0  0  0
   36.5560   20.9730   38.9940 C   0  0  0  0  0  0  0  0  0  0  0  0
   36.5270   19.9800   38.5670 H   0  0  0  0  0  0  0  0  0  0  0  0
   35.4790   21.8180   38.8270 C   0  0  0  0  0  3  0  0  0  0  0  0
   35.3250   23.1090   39.2900 C   0  0  0  0  0  3  0  0  0  0  0  0
   36.4230   23.5720   40.0100 C   0  0  0  0  0  0  0  0  0  0  0  0
   36.3820   24.8520   40.5230 C   0  0  0  0  0  3  0  0  0  0  0  0
  1  3  1  0  0  0  0
  1  4  1  0  0  0  0
  1 28  1  0  0  0  0
  2  1  1  0  0  0  0
  4  5  1  0  0  0  0
  5 10  1  0  0  0  0
  5  6  2  0  0  0  0
  6 13  1  0  0  0  0
  7  6  1  0  0  0  0
  8  7  2  0  0  0  0
  9  4  2  0  0  0  0
  9  8  1  0  0  0  0
 11  8  1  0  0  0  0
 12 16  1  0  0  0  0
 12 17  1  1  0  0  0
 13 18  1  6  0  0  0
 13 14  1  0  0  0  0
 13 12  1  0  0  0  0
 14 15  1  0  0  0  0
 15 16  1  0  0  0  0
 15 19  1  0  0  0  0
 16 21  1  6  0  0  0
 16 24  1  0  0  0  0
 20 15  1  0  0  0  0
 22 12  1  0  0  0  0
 23 22  1  0  0  0  0
 24 25  1  0  0  0  0
 26 27  2  0  0  0  0
 26 30  1  0  0  0  0
 28 26  1  0  0  0  0
 29 28  1  0  0  0  0
 30 31  1  0  0  0  0
 31 36  1  0  0  0  0
 31 32  2  0  0  0  0
 32 37  1  0  0  0  0
 33 32  1  0  0  0  0
 33 38  1  0  0  0  0
 34 33  2  0  0  0  0
 35 30  2  0  0  0  0
 35 34  1  0  0  0  0
 39 40  1  0  0  0  0
 39 34  1  0  0  0  0
 40 41  1  0  0  0  0
 42 40  2  0  0  0  0
 43 42  1  0  0  0  0
 44 43  2  0  0  0  0
 45 44  1  0  0  0  0
 46 45  1  0  0  0  0
 47 45  2  0  0  0  0
 47 48  1  0  0  0  0
 48 49  2  0  0  0  0
 49 43  1  0  0  0  0
 49 50  1  0  0  0  0
 50 39  2  0  0  0  0
M  END
>  <minimizedAffinity>
-7.60484266

$$$$
