
 OpenBabel03242514383D

 36 39  0  0  0  0  0  0  0  0999 V2000
   38.6760   33.0300   40.3740 C   0  0  0  0  0  0  0  0  0  0  0  0
   37.3300   32.7750   39.9860 C   0  0  0  0  0  0  0  0  0  0  0  0
   36.8740   31.5270   40.3130 C   0  0  0  0  0  0  0  0  0  0  0  0
   37.6400   30.6200   40.9490 C   0  0  0  0  0  0  0  0  0  0  0  0
   39.2490   31.5740   41.1560 S   0  0  0  0  0  0  0  0  0  0  0  0
   36.7920   33.5390   39.4890 H   0  0  0  0  0  0  0  0  0  0  0  0
   35.8680   31.2060   40.0750 H   0  0  0  0  0  0  0  0  0  0  0  0
   37.4850   29.3090   41.4090 C   0  0  0  0  0  0  0  0  0  0  0  0
   37.5860   29.0070   42.7510 C   0  0  0  0  0  0  0  0  0  0  0  0
   37.7870   29.7580   43.4930 H   0  0  0  0  0  0  0  0  0  0  0  0
   37.4130   27.6650   43.1050 C   0  0  0  0  0  3  0  0  0  0  0  0
   37.1540   26.6920   42.1490 C   0  0  0  0  0  0  0  0  0  0  0  0
   36.9880   25.3870   42.5070 N   0  0  0  0  0  0  0  0  0  0  0  0
   36.7340   24.4600   41.5400 C   0  0  0  0  0  0  0  0  0  0  0  0
   36.6090   23.4340   41.8730 H   0  0  0  0  0  0  0  0  0  0  0  0
   36.6290   24.7380   40.1930 C   0  0  0  0  0  3  0  0  0  0  0  0
   36.8000   26.0780   39.8290 C   0  0  0  0  0  3  0  0  0  0  0  0
   37.0570   27.0280   40.7940 C   0  0  0  0  0  0  0  0  0  0  0  0
   37.2330   28.3780   40.4580 C   0  0  0  0  0  3  0  0  0  0  0  0
   39.4390   34.2710   40.1600 C   0  0  0  0  0  0  0  0  0  0  0  0
   39.0300   35.0950   41.0740 O   0  0  0  0  0  0  0  0  0  0  0  0
   40.3780   34.8220   39.3740 O   0  0  0  0  0  0  0  0  0  0  0  0
   42.5150   35.0790   37.9600 O   0  0  0  0  0  0  0  0  0  0  0  0
   41.7190   34.0620   38.7190 P   0  0  2  0  0  0  0  0  0  0  0  0
   41.2090   32.8950   37.6400 O   0  0  0  0  0  0  0  0  0  0  0  0
   40.5790   32.2590   38.0620 H   0  0  0  0  0  0  0  0  0  0  0  0
   42.6730   33.3760   39.9840 O   0  0  0  0  0  0  0  0  0  0  0  0
   42.9380   34.9620   41.7350 C   0  0  0  0  0  0  0  0  0  0  0  0
   43.5070   34.1750   40.7580 C   0  0  0  0  0  0  0  0  0  0  0  0
   44.8940   34.2190   40.5930 C   0  0  0  0  0  0  0  0  0  0  0  0
   45.6070   35.0530   41.4240 N   0  0  0  0  0  0  0  0  0  0  0  0
   45.0150   35.7990   42.3590 C   0  0  0  0  0  0  0  0  0  0  0  0
   43.6960   35.7580   42.5160 N   0  0  0  0  0  0  0  0  0  0  0  0
   41.8830   35.0190   41.9620 H   0  0  0  0  0  0  0  0  0  0  0  0
   45.3370   33.6080   39.8350 H   0  0  0  0  0  0  0  0  0  0  0  0
   45.7280   36.3980   42.9250 H   0  0  0  0  0  0  0  0  0  0  0  0
  1  5  1  0  0  0  0
  2  3  1  0  0  0  0
  2  1  2  0  0  0  0
  3  4  2  0  0  0  0
  4  5  1  0  0  0  0
  4  8  1  0  0  0  0
  6  2  1  0  0  0  0
  7  3  1  0  0  0  0
  8  9  1  0  0  0  0
  9 11  2  0  0  0  0
  9 10  1  0  0  0  0
 12 13  1  0  0  0  0
 12 11  1  0  0  0  0
 14 15  1  0  0  0  0
 14 13  2  0  0  0  0
 16 14  1  0  0  0  0
 17 16  2  0  0  0  0
 17 18  1  0  0  0  0
 18 12  2  0  0  0  0
 19 18  1  0  0  0  0
 19  8  2  0  0  0  0
 20  1  1  0  0  0  0
 20 21  2  0  0  0  0
 22 20  1  0  0  0  0
 24 23  2  6  0  0  0
 24 22  1  0  0  0  0
 24 27  1  0  0  0  0
 25 26  1  0  0  0  0
 25 24  1  0  0  0  0
 27 29  1  0  0  0  0
 28 34  1  0  0  0  0
 28 33  1  0  0  0  0
 29 28  2  0  0  0  0
 30 29  1  0  0  0  0
 30 31  2  0  0  0  0
 31 32  1  0  0  0  0
 32 33  2  0  0  0  0
 32 36  1  0  0  0  0
 35 30  1  0  0  0  0
M  END
>  <minimizedAffinity>
-6.68134165

$$$$

 OpenBabel03242514383D

 36 39  0  0  0  0  0  0  0  0999 V2000
   38.8380   32.1810   39.8660 C   0  0  0  0  0  0  0  0  0  0  0  0
   37.4190   32.3040   39.8870 C   0  0  0  0  0  0  0  0  0  0  0  0
   36.7470   31.1190   39.7630 C   0  0  0  0  0  0  0  0  0  0  0  0
   37.3810   29.9380   39.6310 C   0  0  0  0  0  0  0  0  0  0  0  0
   39.1830   30.4760   39.6790 S   0  0  0  0  0  0  0  0  0  0  0  0
   36.9950   33.2680   39.9940 H   0  0  0  0  0  0  0  0  0  0  0  0
   35.6650   31.0730   39.7640 H   0  0  0  0  0  0  0  0  0  0  0  0
   37.0050   28.5980   39.4880 C   0  0  0  0  0  0  0  0  0  0  0  0
   36.4120   28.1440   38.3290 C   0  0  0  0  0  0  0  0  0  0  0  0
   36.2140   28.7920   37.4960 H   0  0  0  0  0  0  0  0  0  0  0  0
   36.0760   26.7860   38.2900 C   0  0  0  0  0  3  0  0  0  0  0  0
   36.3300   25.9460   39.3650 C   0  0  0  0  0  0  0  0  0  0  0  0
   35.9980   24.6250   39.3130 N   0  0  0  0  0  0  0  0  0  0  0  0
   36.2630   23.8310   40.3890 C   0  0  0  0  0  0  0  0  0  0  0  0
   35.9810   22.7860   40.3020 H   0  0  0  0  0  0  0  0  0  0  0  0
   36.8550   24.2620   41.5590 C   0  0  0  0  0  3  0  0  0  0  0  0
   37.1940   25.6190   41.6070 C   0  0  0  0  0  3  0  0  0  0  0  0
   36.9340   26.4360   40.5280 C   0  0  0  0  0  0  0  0  0  0  0  0
   37.2630   27.7980   40.5510 C   0  0  0  0  0  3  0  0  0  0  0  0
   39.8230   33.2700   39.9770 C   0  0  0  0  0  0  0  0  0  0  0  0
   40.5650   33.1800   38.9180 O   0  0  0  0  0  0  0  0  0  0  0  0
   40.2020   34.2860   40.7680 O   0  0  0  0  0  0  0  0  0  0  0  0
   39.4680   36.5990   39.9050 O   0  0  0  0  0  0  0  0  0  0  0  0
   40.6870   35.8150   40.2850 P   0  0  2  0  0  0  0  0  0  0  0  0
   41.6550   35.6760   38.9330 O   0  0  0  0  0  0  0  0  0  0  0  0
   42.4180   35.0680   39.0930 H   0  0  0  0  0  0  0  0  0  0  0  0
   41.5210   36.5950   41.5800 O   0  0  0  0  0  0  0  0  0  0  0  0
   43.1720   36.5950   43.2910 C   0  0  0  0  0  0  0  0  0  0  0  0
   42.6270   35.9990   42.1750 C   0  0  0  0  0  0  0  0  0  0  0  0
   43.2140   34.8250   41.6950 C   0  0  0  0  0  0  0  0  0  0  0  0
   44.3070   34.3370   42.3750 N   0  0  0  0  0  0  0  0  0  0  0  0
   44.8020   34.9460   43.4550 C   0  0  0  0  0  0  0  0  0  0  0  0
   44.2440   36.0630   43.9100 N   0  0  0  0  0  0  0  0  0  0  0  0
   42.8130   37.5010   43.7580 H   0  0  0  0  0  0  0  0  0  0  0  0
   42.7920   34.3610   40.8290 H   0  0  0  0  0  0  0  0  0  0  0  0
   45.6650   34.4250   43.8660 H   0  0  0  0  0  0  0  0  0  0  0  0
  1  2  2  0  0  0  0
  1 20  1  0  0  0  0
  2  6  1  0  0  0  0
  3  7  1  0  0  0  0
  3  2  1  0  0  0  0
  4  5  1  0  0  0  0
  4  3  2  0  0  0  0
  5  1  1  0  0  0  0
  8  4  1  0  0  0  0
  8 19  1  0  0  0  0
  9  8  2  0  0  0  0
 10  9  1  0  0  0  0
 11  9  1  0  0  0  0
 11 12  2  0  0  0  0
 12 18  1  0  0  0  0
 13 12  1  0  0  0  0
 13 14  2  0  0  0  0
 14 16  1  0  0  0  0
 15 14  1  0  0  0  0
 16 17  2  0  0  0  0
 18 19  2  0  0  0  0
 18 17  1  0  0  0  0
 20 22  1  0  0  0  0
 21 20  2  0  0  0  0
 24 23  2  6  0  0  0
 24 22  1  0  0  0  0
 24 27  1  0  0  0  0
 25 26  1  0  0  0  0
 25 24  1  0  0  0  0
 27 29  1  0  0  0  0
 28 34  1  0  0  0  0
 28 33  1  0  0  0  0
 29 28  2  0  0  0  0
 30 29  1  0  0  0  0
 30 31  2  0  0  0  0
 31 32  1  0  0  0  0
 32 36  1  0  0  0  0
 32 33  2  0  0  0  0
 35 30  1  0  0  0  0
M  END
>  <minimizedAffinity>
-6.63937902

$$$$

 OpenBabel03242514383D

 36 39  0  0  0  0  0  0  0  0999 V2000
   38.8690   33.2760   40.2960 C   0  0  0  0  0  0  0  0  0  0  0  0
   37.5140   33.0300   39.9320 C   0  0  0  0  0  0  0  0  0  0  0  0
   37.0500   31.7930   40.2880 C   0  0  0  0  0  0  0  0  0  0  0  0
   37.8150   30.8890   40.9280 C   0  0  0  0  0  0  0  0  0  0  0  0
   39.4360   31.8280   41.0960 S   0  0  0  0  0  0  0  0  0  0  0  0
   36.9780   33.7910   39.4280 H   0  0  0  0  0  0  0  0  0  0  0  0
   36.0360   31.4790   40.0690 H   0  0  0  0  0  0  0  0  0  0  0  0
   37.6510   29.5880   41.4150 C   0  0  0  0  0  0  0  0  0  0  0  0
   37.7600   29.3110   42.7610 C   0  0  0  0  0  0  0  0  0  0  0  0
   37.9730   30.0740   43.4870 H   0  0  0  0  0  0  0  0  0  0  0  0
   37.5790   27.9770   43.1420 C   0  0  0  0  0  3  0  0  0  0  0  0
   37.3030   26.9880   42.2070 C   0  0  0  0  0  0  0  0  0  0  0  0
   37.1280   25.6920   42.5910 N   0  0  0  0  0  0  0  0  0  0  0  0
   36.8590   24.7500   41.6430 C   0  0  0  0  0  0  0  0  0  0  0  0
   36.7270   23.7310   41.9960 H   0  0  0  0  0  0  0  0  0  0  0  0
   36.7460   25.0020   40.2910 C   0  0  0  0  0  3  0  0  0  0  0  0
   36.9260   26.3340   39.9020 C   0  0  0  0  0  3  0  0  0  0  0  0
   37.1980   27.3000   40.8460 C   0  0  0  0  0  0  0  0  0  0  0  0
   37.3830   28.6410   40.4830 C   0  0  0  0  0  3  0  0  0  0  0  0
   39.6430   34.5050   40.0480 C   0  0  0  0  0  0  0  0  0  0  0  0
   38.9320   35.4700   40.5420 O   0  0  0  0  0  0  0  0  0  0  0  0
   40.7880   34.9510   39.5090 O   0  0  0  0  0  0  0  0  0  0  0  0
   42.7420   33.2750   39.4810 O   0  0  0  0  0  0  0  0  0  0  0  0
   41.8680   34.0810   38.5700 P   0  0  2  0  0  0  0  0  0  0  0  0
   42.8390   35.1460   37.7300 O   0  0  0  0  0  0  0  0  0  0  0  0
   42.3040   35.7860   37.1990 H   0  0  0  0  0  0  0  0  0  0  0  0
   40.9990   33.0420   37.4990 O   0  0  0  0  0  0  0  0  0  0  0  0
   40.6260   30.7030   37.7010 C   0  0  0  0  0  0  0  0  0  0  0  0
   41.4260   31.7380   37.2710 C   0  0  0  0  0  0  0  0  0  0  0  0
   42.6270   31.4280   36.6290 C   0  0  0  0  0  0  0  0  0  0  0  0
   42.9350   30.0960   36.4660 N   0  0  0  0  0  0  0  0  0  0  0  0
   42.1290   29.1230   36.8970 C   0  0  0  0  0  0  0  0  0  0  0  0
   40.9870   29.4180   37.5080 N   0  0  0  0  0  0  0  0  0  0  0  0
   39.6770   30.8090   38.2080 H   0  0  0  0  0  0  0  0  0  0  0  0
   43.2500   32.2310   36.2950 H   0  0  0  0  0  0  0  0  0  0  0  0
   42.5270   28.1310   36.6850 H   0  0  0  0  0  0  0  0  0  0  0  0
  1  5  1  0  0  0  0
  2  3  1  0  0  0  0
  2  1  2  0  0  0  0
  3  4  2  0  0  0  0
  4  5  1  0  0  0  0
  4  8  1  0  0  0  0
  6  2  1  0  0  0  0
  7  3  1  0  0  0  0
  8  9  1  0  0  0  0
  9 11  2  0  0  0  0
  9 10  1  0  0  0  0
 12 13  1  0  0  0  0
 12 11  1  0  0  0  0
 14 15  1  0  0  0  0
 14 13  2  0  0  0  0
 16 14  1  0  0  0  0
 17 16  2  0  0  0  0
 17 18  1  0  0  0  0
 18 12  2  0  0  0  0
 19 18  1  0  0  0  0
 19  8  2  0  0  0  0
 20  1  1  0  0  0  0
 20 21  2  0  0  0  0
 22 20  1  0  0  0  0
 24 23  2  1  0  0  0
 24 22  1  0  0  0  0
 25 24  1  0  0  0  0
 26 25  1  0  0  0  0
 27 24  1  0  0  0  0
 28 34  1  0  0  0  0
 29 27  1  0  0  0  0
 29 28  2  0  0  0  0
 30 29  1  0  0  0  0
 31 30  2  0  0  0  0
 31 32  1  0  0  0  0
 32 33  2  0  0  0  0
 33 28  1  0  0  0  0
 35 30  1  0  0  0  0
 36 32  1  0  0  0  0
M  END
>  <minimizedAffinity>
-6.62713575

$$$$

 OpenBabel03242514383D

 36 39  0  0  0  0  0  0  0  0999 V2000
   38.2690   32.7530   40.5940 C   0  0  0  0  0  0  0  0  0  0  0  0
   36.9690   32.2750   40.2650 C   0  0  0  0  0  0  0  0  0  0  0  0
   36.7830   30.9400   40.4960 C   0  0  0  0  0  0  0  0  0  0  0  0
   37.7530   30.1490   40.9930 C   0  0  0  0  0  0  0  0  0  0  0  0
   39.1640   31.3760   41.1950 S   0  0  0  0  0  0  0  0  0  0  0  0
   36.2600   32.9590   39.8780 H   0  0  0  0  0  0  0  0  0  0  0  0
   35.8400   30.4500   40.2880 H   0  0  0  0  0  0  0  0  0  0  0  0
   37.8830   28.7980   41.3320 C   0  0  0  0  0  0  0  0  0  0  0  0
   36.9560   27.8660   40.9180 C   0  0  0  0  0  0  0  0  0  0  0  0
   36.1020   28.1340   40.3230 H   0  0  0  0  0  0  0  0  0  0  0  0
   37.1800   26.5430   41.3110 C   0  0  0  0  0  3  0  0  0  0  0  0
   38.2820   26.1930   42.0800 C   0  0  0  0  0  0  0  0  0  0  0  0
   38.4890   24.8990   42.4560 N   0  0  0  0  0  0  0  0  0  0  0  0
   39.5830   24.5950   43.2110 C   0  0  0  0  0  0  0  0  0  0  0  0
   39.7070   23.5520   43.4870 H   0  0  0  0  0  0  0  0  0  0  0  0
   40.5240   25.5090   43.6380 C   0  0  0  0  0  3  0  0  0  0  0  0
   40.3080   26.8360   43.2490 C   0  0  0  0  0  3  0  0  0  0  0  0
   39.2070   27.1620   42.4860 C   0  0  0  0  0  0  0  0  0  0  0  0
   38.9660   28.4820   42.0820 C   0  0  0  0  0  3  0  0  0  0  0  0
   38.7660   34.1330   40.4570 C   0  0  0  0  0  0  0  0  0  0  0  0
   37.9300   34.7280   39.6640 O   0  0  0  0  0  0  0  0  0  0  0  0
   39.7500   34.9550   40.8550 O   0  0  0  0  0  0  0  0  0  0  0  0
   41.9460   33.6250   41.0610 O   0  0  0  0  0  0  0  0  0  0  0  0
   41.3710   34.8630   40.4430 P   0  0  2  0  0  0  0  0  0  0  0  0
   42.1700   36.1800   41.0850 O   0  0  0  0  0  0  0  0  0  0  0  0
   41.7540   37.0320   40.8030 H   0  0  0  0  0  0  0  0  0  0  0  0
   41.5310   34.8050   38.7250 O   0  0  0  0  0  0  0  0  0  0  0  0
   43.1460   33.3700   37.7350 C   0  0  0  0  0  0  0  0  0  0  0  0
   41.8350   33.6120   38.0800 C   0  0  0  0  0  0  0  0  0  0  0  0
   40.8750   32.6470   37.7630 C   0  0  0  0  0  0  0  0  0  0  0  0
   41.3070   31.5080   37.1220 N   0  0  0  0  0  0  0  0  0  0  0  0
   42.5900   31.3130   36.8060 C   0  0  0  0  0  0  0  0  0  0  0  0
   43.5020   32.2310   37.1070 N   0  0  0  0  0  0  0  0  0  0  0  0
   43.9790   34.0330   37.9230 H   0  0  0  0  0  0  0  0  0  0  0  0
   39.8570   32.8330   38.0300 H   0  0  0  0  0  0  0  0  0  0  0  0
   42.7530   30.3610   36.3040 H   0  0  0  0  0  0  0  0  0  0  0  0
  1  5  1  0  0  0  0
  2  3  1  0  0  0  0
  2  1  2  0  0  0  0
  3  4  2  0  0  0  0
  4  5  1  0  0  0  0
  4  8  1  0  0  0  0
  6  2  1  0  0  0  0
  7  3  1  0  0  0  0
  8 19  1  0  0  0  0
  9 11  1  0  0  0  0
  9  8  2  0  0  0  0
 10  9  1  0  0  0  0
 11 12  2  0  0  0  0
 12 13  1  0  0  0  0
 12 18  1  0  0  0  0
 13 14  2  0  0  0  0
 14 15  1  0  0  0  0
 14 16  1  0  0  0  0
 17 16  2  0  0  0  0
 18 17  1  0  0  0  0
 19 18  2  0  0  0  0
 20  1  1  0  0  0  0
 20 22  1  0  0  0  0
 21 20  2  0  0  0  0
 24 22  1  0  0  0  0
 24 23  2  1  0  0  0
 24 25  1  0  0  0  0
 26 25  1  0  0  0  0
 27 24  1  0  0  0  0
 28 34  1  0  0  0  0
 28 29  1  0  0  0  0
 29 27  1  0  0  0  0
 30 35  1  0  0  0  0
 30 29  2  0  0  0  0
 31 30  1  0  0  0  0
 32 33  1  0  0  0  0
 32 31  2  0  0  0  0
 33 28  2  0  0  0  0
 36 32  1  0  0  0  0
M  END
>  <minimizedAffinity>
-6.39086676

$$$$

 OpenBabel03242514383D

 36 39  0  0  0  0  0  0  0  0999 V2000
   39.1590   30.3890   41.4910 C   0  0  0  0  0  0  0  0  0  0  0  0
   38.7000   29.9330   42.7600 C   0  0  0  0  0  0  0  0  0  0  0  0
   38.1170   28.6960   42.7380 C   0  0  0  0  0  0  0  0  0  0  0  0
   37.9900   27.9750   41.6070 C   0  0  0  0  0  0  0  0  0  0  0  0
   38.7770   29.1260   40.3440 S   0  0  0  0  0  0  0  0  0  0  0  0
   38.8350   30.5580   43.6030 H   0  0  0  0  0  0  0  0  0  0  0  0
   37.7250   28.2320   43.6350 H   0  0  0  0  0  0  0  0  0  0  0  0
   37.4640   26.7270   41.2550 C   0  0  0  0  0  0  0  0  0  0  0  0
   37.4800   25.6710   42.1420 C   0  0  0  0  0  0  0  0  0  0  0  0
   37.8930   25.7600   43.1300 H   0  0  0  0  0  0  0  0  0  0  0  0
   36.9280   24.4680   41.6900 C   0  0  0  0  0  3  0  0  0  0  0  0
   36.3940   24.3500   40.4150 C   0  0  0  0  0  0  0  0  0  0  0  0
   35.8590   23.1710   39.9870 N   0  0  0  0  0  0  0  0  0  0  0  0
   35.3440   23.0950   38.7270 C   0  0  0  0  0  0  0  0  0  0  0  0
   34.9290   22.1360   38.4300 H   0  0  0  0  0  0  0  0  0  0  0  0
   35.3180   24.1360   37.8230 C   0  0  0  0  0  3  0  0  0  0  0  0
   35.8670   25.3450   38.2660 C   0  0  0  0  0  3  0  0  0  0  0  0
   36.3920   25.4400   39.5370 C   0  0  0  0  0  0  0  0  0  0  0  0
   36.9490   26.6380   40.0060 C   0  0  0  0  0  3  0  0  0  0  0  0
   39.8220   31.6720   41.1990 C   0  0  0  0  0  0  0  0  0  0  0  0
   40.9550   31.3610   40.6510 O   0  0  0  0  0  0  0  0  0  0  0  0
   39.6620   33.0010   41.3000 O   0  0  0  0  0  0  0  0  0  0  0  0
   37.9430   34.3230   39.9130 O   0  0  0  0  0  0  0  0  0  0  0  0
   39.4150   34.0860   40.0490 P   0  0  2  0  0  0  0  0  0  0  0  0
   39.9640   33.4080   38.6260 O   0  0  0  0  0  0  0  0  0  0  0  0
   40.9070   33.1210   38.6990 H   0  0  0  0  0  0  0  0  0  0  0  0
   40.2310   35.5670   40.3960 O   0  0  0  0  0  0  0  0  0  0  0  0
   41.6430   36.5380   42.0440 C   0  0  0  0  0  0  0  0  0  0  0  0
   41.4380   35.5690   41.0870 C   0  0  0  0  0  0  0  0  0  0  0  0
   42.4530   34.6380   40.8560 C   0  0  0  0  0  0  0  0  0  0  0  0
   43.6020   34.7490   41.6070 N   0  0  0  0  0  0  0  0  0  0  0  0
   43.7580   35.7040   42.5270 C   0  0  0  0  0  0  0  0  0  0  0  0
   42.7930   36.5900   42.7460 N   0  0  0  0  0  0  0  0  0  0  0  0
   40.9400   37.3130   42.3160 H   0  0  0  0  0  0  0  0  0  0  0  0
   42.2960   33.8850   40.1130 H   0  0  0  0  0  0  0  0  0  0  0  0
   44.7240   35.6450   43.0260 H   0  0  0  0  0  0  0  0  0  0  0  0
  1  2  2  0  0  0  0
  2  6  1  0  0  0  0
  3  2  1  0  0  0  0
  3  7  1  0  0  0  0
  4  3  2  0  0  0  0
  5  1  1  0  0  0  0
  5  4  1  0  0  0  0
  8  4  1  0  0  0  0
  8  9  1  0  0  0  0
  9 10  1  0  0  0  0
 11  9  2  0  0  0  0
 12 11  1  0  0  0  0
 13 12  1  0  0  0  0
 14 13  2  0  0  0  0
 15 14  1  0  0  0  0
 16 17  2  0  0  0  0
 16 14  1  0  0  0  0
 17 18  1  0  0  0  0
 18 19  1  0  0  0  0
 18 12  2  0  0  0  0
 19  8  2  0  0  0  0
 20 22  1  0  0  0  0
 20  1  1  0  0  0  0
 21 20  2  0  0  0  0
 24 23  2  6  0  0  0
 24 27  1  0  0  0  0
 24 22  1  0  0  0  0
 25 26  1  0  0  0  0
 25 24  1  0  0  0  0
 27 29  1  0  0  0  0
 28 34  1  0  0  0  0
 28 33  1  0  0  0  0
 29 28  2  0  0  0  0
 30 29  1  0  0  0  0
 30 31  2  0  0  0  0
 31 32  1  0  0  0  0
 32 33  2  0  0  0  0
 32 36  1  0  0  0  0
 35 30  1  0  0  0  0
M  END
>  <minimizedAffinity>
-6.24507904

$$$$

 OpenBabel03242514383D

 36 39  0  0  0  0  0  0  0  0999 V2000
   38.6420   31.3500   39.1640 C   0  0  0  0  0  0  0  0  0  0  0  0
   38.3450   32.6980   39.5110 C   0  0  0  0  0  0  0  0  0  0  0  0
   39.4330   33.4370   39.8900 C   0  0  0  0  0  0  0  0  0  0  0  0
   40.6770   32.9240   39.9300 C   0  0  0  0  0  0  0  0  0  0  0  0
   40.3680   31.1560   39.3690 S   0  0  0  0  0  0  0  0  0  0  0  0
   37.3410   33.0280   39.4550 H   0  0  0  0  0  0  0  0  0  0  0  0
   39.3450   34.4770   40.1790 H   0  0  0  0  0  0  0  0  0  0  0  0
   41.9540   33.3910   40.2600 C   0  0  0  0  0  0  0  0  0  0  0  0
   43.0770   32.9040   39.6250 C   0  0  0  0  0  0  0  0  0  0  0  0
   43.0210   32.1520   38.8600 H   0  0  0  0  0  0  0  0  0  0  0  0
   44.3050   33.4380   40.0300 C   0  0  0  0  0  3  0  0  0  0  0  0
   44.3820   34.4090   41.0190 C   0  0  0  0  0  0  0  0  0  0  0  0
   45.5840   34.9220   41.4040 N   0  0  0  0  0  0  0  0  0  0  0  0
   45.6190   35.8740   42.3790 C   0  0  0  0  0  0  0  0  0  0  0  0
   46.5990   36.2530   42.6520 H   0  0  0  0  0  0  0  0  0  0  0  0
   44.5100   36.3770   43.0270 C   0  0  0  0  0  3  0  0  0  0  0  0
   43.2770   35.8480   42.6290 C   0  0  0  0  0  3  0  0  0  0  0  0
   43.2230   34.8850   41.6450 C   0  0  0  0  0  0  0  0  0  0  0  0
   42.0020   34.3380   41.2270 C   0  0  0  0  0  3  0  0  0  0  0  0
   37.6880   30.3190   38.7210 C   0  0  0  0  0  0  0  0  0  0  0  0
   38.3710   29.5080   37.9740 O   0  0  0  0  0  0  0  0  0  0  0  0
   36.4020   29.9450   38.8210 O   0  0  0  0  0  0  0  0  0  0  0  0
   34.1530   29.2850   39.8870 O   0  0  0  0  0  0  0  0  0  0  0  0
   35.6150   29.3980   40.1940 P   0  0  2  0  0  0  0  0  0  0  0  0
   35.8020   30.5230   41.4120 O   0  0  0  0  0  0  0  0  0  0  0  0
   36.7550   30.7270   41.5770 H   0  0  0  0  0  0  0  0  0  0  0  0
   36.2500   27.8600   40.6540 O   0  0  0  0  0  0  0  0  0  0  0  0
   37.0050   27.5850   42.8920 C   0  0  0  0  0  0  0  0  0  0  0  0
   37.3020   27.7680   41.5590 C   0  0  0  0  0  0  0  0  0  0  0  0
   38.6450   27.8510   41.1840 C   0  0  0  0  0  0  0  0  0  0  0  0
   39.5910   27.7450   42.1780 N   0  0  0  0  0  0  0  0  0  0  0  0
   39.2590   27.5670   43.4590 C   0  0  0  0  0  0  0  0  0  0  0  0
   37.9810   27.4890   43.8160 N   0  0  0  0  0  0  0  0  0  0  0  0
   36.0110   27.5050   43.3100 H   0  0  0  0  0  0  0  0  0  0  0  0
   38.8770   27.9920   40.1490 H   0  0  0  0  0  0  0  0  0  0  0  0
   40.1300   27.5040   44.1080 H   0  0  0  0  0  0  0  0  0  0  0  0
  1  5  1  0  0  0  0
  1  2  2  0  0  0  0
  2  3  1  0  0  0  0
  3  4  2  0  0  0  0
  3  7  1  0  0  0  0
  4  8  1  0  0  0  0
  5  4  1  0  0  0  0
  6  2  1  0  0  0  0
  8 19  1  0  0  0  0
  9 11  1  0  0  0  0
  9  8  2  0  0  0  0
 10  9  1  0  0  0  0
 11 12  2  0  0  0  0
 12 13  1  0  0  0  0
 12 18  1  0  0  0  0
 13 14  2  0  0  0  0
 14 15  1  0  0  0  0
 14 16  1  0  0  0  0
 17 16  2  0  0  0  0
 18 17  1  0  0  0  0
 19 18  2  0  0  0  0
 20 22  1  0  0  0  0
 20  1  1  0  0  0  0
 21 20  2  0  0  0  0
 22 24  1  0  0  0  0
 24 23  2  6  0  0  0
 24 27  1  0  0  0  0
 24 25  1  0  0  0  0
 25 26  1  0  0  0  0
 27 29  1  0  0  0  0
 28 34  1  0  0  0  0
 28 33  1  0  0  0  0
 29 28  2  0  0  0  0
 30 29  1  0  0  0  0
 30 31  2  0  0  0  0
 31 32  1  0  0  0  0
 32 33  2  0  0  0  0
 32 36  1  0  0  0  0
 35 30  1  0  0  0  0
M  END
>  <minimizedAffinity>
-6.14301109

$$$$

 OpenBabel03242514383D

 36 39  0  0  0  0  0  0  0  0999 V2000
   37.4490   27.7900   41.8710 C   0  0  0  0  0  0  0  0  0  0  0  0
   37.2100   26.8330   42.8990 C   0  0  0  0  0  0  0  0  0  0  0  0
   36.9750   25.5640   42.4460 C   0  0  0  0  0  0  0  0  0  0  0  0
   36.9710   25.2520   41.1360 C   0  0  0  0  0  0  0  0  0  0  0  0
   37.3430   26.9230   40.3560 S   0  0  0  0  0  0  0  0  0  0  0  0
   37.2290   27.1560   43.9070 H   0  0  0  0  0  0  0  0  0  0  0  0
   36.7790   24.7430   43.1240 H   0  0  0  0  0  0  0  0  0  0  0  0
   36.7730   24.0980   40.3710 C   0  0  0  0  0  0  0  0  0  0  0  0
   35.7450   24.0170   39.4550 C   0  0  0  0  0  0  0  0  0  0  0  0
   35.0600   24.8280   39.2910 H   0  0  0  0  0  0  0  0  0  0  0  0
   35.6360   22.8180   38.7420 C   0  0  0  0  0  3  0  0  0  0  0  0
   36.5200   21.7690   38.9510 C   0  0  0  0  0  0  0  0  0  0  0  0
   36.4020   20.6060   38.2490 N   0  0  0  0  0  0  0  0  0  0  0  0
   37.2900   19.5970   38.4820 C   0  0  0  0  0  0  0  0  0  0  0  0
   37.1570   18.6910   37.9000 H   0  0  0  0  0  0  0  0  0  0  0  0
   38.3250   19.6550   39.3930 C   0  0  0  0  0  3  0  0  0  0  0  0
   38.4420   20.8500   40.1110 C   0  0  0  0  0  3  0  0  0  0  0  0
   37.5540   21.8800   39.8880 C   0  0  0  0  0  0  0  0  0  0  0  0
   37.6480   23.0880   40.5930 C   0  0  0  0  0  3  0  0  0  0  0  0
   37.7300   29.2250   42.0450 C   0  0  0  0  0  0  0  0  0  0  0  0
   38.1430   29.3550   43.2670 O   0  0  0  0  0  0  0  0  0  0  0  0
   37.7060   30.4010   41.3970 O   0  0  0  0  0  0  0  0  0  0  0  0
   39.9280   30.4700   40.0980 O   0  0  0  0  0  0  0  0  0  0  0  0
   39.0240   31.3240   40.9330 P   0  0  2  0  0  0  0  0  0  0  0  0
   39.8670   31.7910   42.2950 O   0  0  0  0  0  0  0  0  0  0  0  0
   39.2840   32.2600   42.9420 H   0  0  0  0  0  0  0  0  0  0  0  0
   38.4850   32.6900   40.0260 O   0  0  0  0  0  0  0  0  0  0  0  0
   38.7480   35.0370   40.2980 C   0  0  0  0  0  0  0  0  0  0  0  0
   39.2790   33.8260   39.9130 C   0  0  0  0  0  0  0  0  0  0  0  0
   40.5880   33.7990   39.4270 C   0  0  0  0  0  0  0  0  0  0  0  0
   41.2680   34.9950   39.3640 N   0  0  0  0  0  0  0  0  0  0  0  0
   40.7150   36.1470   39.7490 C   0  0  0  0  0  0  0  0  0  0  0  0
   39.4690   36.1730   40.2100 N   0  0  0  0  0  0  0  0  0  0  0  0
   37.7520   35.1920   40.6880 H   0  0  0  0  0  0  0  0  0  0  0  0
   41.0020   32.8590   39.1270 H   0  0  0  0  0  0  0  0  0  0  0  0
   41.3930   36.9920   39.6320 H   0  0  0  0  0  0  0  0  0  0  0  0
  1 20  1  0  0  0  0
  1  2  2  0  0  0  0
  2  6  1  0  0  0  0
  3  2  1  0  0  0  0
  3  7  1  0  0  0  0
  4  3  2  0  0  0  0
  5  4  1  0  0  0  0
  5  1  1  0  0  0  0
  8 19  1  0  0  0  0
  8  4  1  0  0  0  0
  9  8  2  0  0  0  0
 10  9  1  0  0  0  0
 11 12  2  0  0  0  0
 11  9  1  0  0  0  0
 12 18  1  0  0  0  0
 13 14  2  0  0  0  0
 13 12  1  0  0  0  0
 14 16  1  0  0  0  0
 15 14  1  0  0  0  0
 16 17  2  0  0  0  0
 18 17  1  0  0  0  0
 18 19  2  0  0  0  0
 20 21  2  0  0  0  0
 22 20  1  0  0  0  0
 24 23  2  6  0  0  0
 24 22  1  0  0  0  0
 24 25  1  0  0  0  0
 25 26  1  0  0  0  0
 27 24  1  0  0  0  0
 28 34  1  0  0  0  0
 29 27  1  0  0  0  0
 29 28  2  0  0  0  0
 30 29  1  0  0  0  0
 31 30  2  0  0  0  0
 31 32  1  0  0  0  0
 32 33  2  0  0  0  0
 33 28  1  0  0  0  0
 35 30  1  0  0  0  0
 36 32  1  0  0  0  0
M  END
>  <minimizedAffinity>
-6.12399483

$$$$

 OpenBabel03242514383D

 36 39  0  0  0  0  0  0  0  0999 V2000
   38.7180   32.8060   39.9380 C   0  0  0  0  0  0  0  0  0  0  0  0
   37.2950   32.7810   39.9940 C   0  0  0  0  0  0  0  0  0  0  0  0
   36.7490   31.5280   39.9320 C   0  0  0  0  0  0  0  0  0  0  0  0
   37.5010   30.4150   39.8270 C   0  0  0  0  0  0  0  0  0  0  0  0
   39.2360   31.1410   39.8050 S   0  0  0  0  0  0  0  0  0  0  0  0
   36.7740   33.6990   40.0770 H   0  0  0  0  0  0  0  0  0  0  0  0
   35.6780   31.3690   39.9650 H   0  0  0  0  0  0  0  0  0  0  0  0
   37.2650   29.0390   39.7430 C   0  0  0  0  0  0  0  0  0  0  0  0
   36.9790   28.4360   38.5360 C   0  0  0  0  0  0  0  0  0  0  0  0
   36.9240   28.9920   37.6180 H   0  0  0  0  0  0  0  0  0  0  0  0
   36.7610   27.0550   38.5640 C   0  0  0  0  0  3  0  0  0  0  0  0
   36.8300   26.3340   39.7480 C   0  0  0  0  0  0  0  0  0  0  0  0
   36.6160   24.9880   39.7610 N   0  0  0  0  0  0  0  0  0  0  0  0
   36.6930   24.3150   40.9440 C   0  0  0  0  0  0  0  0  0  0  0  0
   36.5150   23.2450   40.9050 H   0  0  0  0  0  0  0  0  0  0  0  0
   36.9770   24.8960   42.1630 C   0  0  0  0  0  3  0  0  0  0  0  0
   37.1970   26.2770   42.1450 C   0  0  0  0  0  3  0  0  0  0  0  0
   37.1240   26.9740   40.9580 C   0  0  0  0  0  0  0  0  0  0  0  0
   37.3390   28.3580   40.9120 C   0  0  0  0  0  3  0  0  0  0  0  0
   39.5850   33.9960   39.9820 C   0  0  0  0  0  0  0  0  0  0  0  0
   39.0470   34.7880   40.8560 O   0  0  0  0  0  0  0  0  0  0  0  0
   40.6980   34.5220   39.4480 O   0  0  0  0  0  0  0  0  0  0  0  0
   42.3010   32.8930   40.6340 O   0  0  0  0  0  0  0  0  0  0  0  0
   42.2810   34.1890   39.8840 P   0  0  2  0  0  0  0  0  0  0  0  0
   42.8260   35.3880   40.9090 O   0  0  0  0  0  0  0  0  0  0  0  0
   42.7230   36.2860   40.5060 H   0  0  0  0  0  0  0  0  0  0  0  0
   43.2620   34.0770   38.4670 O   0  0  0  0  0  0  0  0  0  0  0  0
   44.4960   32.3830   37.3470 C   0  0  0  0  0  0  0  0  0  0  0  0
   43.2770   32.9160   37.7040 C   0  0  0  0  0  0  0  0  0  0  0  0
   42.1170   32.2630   37.2790 C   0  0  0  0  0  0  0  0  0  0  0  0
   42.2700   31.1210   36.5260 N   0  0  0  0  0  0  0  0  0  0  0  0
   43.4720   30.6370   36.2040 C   0  0  0  0  0  0  0  0  0  0  0  0
   44.5750   31.2590   36.6080 N   0  0  0  0  0  0  0  0  0  0  0  0
   45.4620   32.7900   37.6110 H   0  0  0  0  0  0  0  0  0  0  0  0
   41.1700   32.6760   37.5550 H   0  0  0  0  0  0  0  0  0  0  0  0
   43.4070   29.7290   35.6070 H   0  0  0  0  0  0  0  0  0  0  0  0
  1 20  1  0  0  0  0
  1  2  2  0  0  0  0
  2  6  1  0  0  0  0
  3  7  1  0  0  0  0
  3  2  1  0  0  0  0
  4  3  2  0  0  0  0
  5  4  1  0  0  0  0
  5  1  1  0  0  0  0
  8  4  1  0  0  0  0
  8 19  1  0  0  0  0
  9 11  1  0  0  0  0
  9  8  2  0  0  0  0
 10  9  1  0  0  0  0
 11 12  2  0  0  0  0
 12 13  1  0  0  0  0
 12 18  1  0  0  0  0
 13 14  2  0  0  0  0
 14 16  1  0  0  0  0
 15 14  1  0  0  0  0
 17 16  2  0  0  0  0
 18 17  1  0  0  0  0
 19 18  2  0  0  0  0
 20 21  2  0  0  0  0
 22 24  1  0  0  0  0
 22 20  1  0  0  0  0
 24 23  2  1  0  0  0
 24 25  1  0  0  0  0
 26 25  1  0  0  0  0
 27 24  1  0  0  0  0
 28 34  1  0  0  0  0
 28 29  1  0  0  0  0
 29 27  1  0  0  0  0
 30 35  1  0  0  0  0
 30 29  2  0  0  0  0
 31 30  1  0  0  0  0
 32 31  2  0  0  0  0
 32 33  1  0  0  0  0
 33 28  2  0  0  0  0
 36 32  1  0  0  0  0
M  END
>  <minimizedAffinity>
-6.04302311

$$$$

 OpenBabel03242514383D

 36 39  0  0  0  0  0  0  0  0999 V2000
   37.5240   31.4300   40.6640 C   0  0  0  0  0  0  0  0  0  0  0  0
   36.1470   31.0790   40.7500 C   0  0  0  0  0  0  0  0  0  0  0  0
   35.9120   29.7350   40.8520 C   0  0  0  0  0  0  0  0  0  0  0  0
   36.9050   28.8260   40.8700 C   0  0  0  0  0  0  0  0  0  0  0  0
   38.4210   29.9300   40.7260 S   0  0  0  0  0  0  0  0  0  0  0  0
   35.4240   31.8520   40.7290 H   0  0  0  0  0  0  0  0  0  0  0  0
   34.9080   29.3340   40.9250 H   0  0  0  0  0  0  0  0  0  0  0  0
   37.0010   27.4330   40.9600 C   0  0  0  0  0  0  0  0  0  0  0  0
   37.2580   26.8130   42.1650 C   0  0  0  0  0  0  0  0  0  0  0  0
   37.3950   27.3660   43.0760 H   0  0  0  0  0  0  0  0  0  0  0  0
   37.3330   25.4160   42.1450 C   0  0  0  0  0  3  0  0  0  0  0  0
   37.1570   24.6980   40.9700 C   0  0  0  0  0  0  0  0  0  0  0  0
   37.2320   23.3370   40.9650 N   0  0  0  0  0  0  0  0  0  0  0  0
   37.0540   22.6670   39.7910 C   0  0  0  0  0  0  0  0  0  0  0  0
   37.1230   21.5840   39.8350 H   0  0  0  0  0  0  0  0  0  0  0  0
   36.7960   23.2650   38.5750 C   0  0  0  0  0  3  0  0  0  0  0  0
   36.7180   24.6620   38.5850 C   0  0  0  0  0  3  0  0  0  0  0  0
   36.8960   25.3560   39.7630 C   0  0  0  0  0  0  0  0  0  0  0  0
   36.8250   26.7550   39.8010 C   0  0  0  0  0  3  0  0  0  0  0  0
   38.0860   32.7860   40.5450 C   0  0  0  0  0  0  0  0  0  0  0  0
   37.3660   33.3860   39.6490 O   0  0  0  0  0  0  0  0  0  0  0  0
   39.0510   33.5850   41.0280 O   0  0  0  0  0  0  0  0  0  0  0  0
   40.3980   35.7590   41.3210 O   0  0  0  0  0  0  0  0  0  0  0  0
   39.7220   34.9240   40.2780 P   0  0  2  0  0  0  0  0  0  0  0  0
   38.5010   35.8340   39.5970 O   0  0  0  0  0  0  0  0  0  0  0  0
   37.9430   35.2950   38.9840 H   0  0  0  0  0  0  0  0  0  0  0  0
   40.8640   34.4110   39.0880 O   0  0  0  0  0  0  0  0  0  0  0  0
   41.9210   32.3480   39.6140 C   0  0  0  0  0  0  0  0  0  0  0  0
   41.0510   33.0600   38.8180 C   0  0  0  0  0  0  0  0  0  0  0  0
   40.4000   32.3900   37.7790 C   0  0  0  0  0  0  0  0  0  0  0  0
   40.6740   31.0500   37.6170 N   0  0  0  0  0  0  0  0  0  0  0  0
   41.5240   30.3980   38.4130 C   0  0  0  0  0  0  0  0  0  0  0  0
   42.1430   31.0350   39.4010 N   0  0  0  0  0  0  0  0  0  0  0  0
   42.4830   32.7470   40.4460 H   0  0  0  0  0  0  0  0  0  0  0  0
   39.7250   32.9420   37.1600 H   0  0  0  0  0  0  0  0  0  0  0  0
   41.6210   29.3470   38.1430 H   0  0  0  0  0  0  0  0  0  0  0  0
  1  5  1  0  0  0  0
  1  2  2  0  0  0  0
  2  3  1  0  0  0  0
  3  4  2  0  0  0  0
  3  7  1  0  0  0  0
  4  8  1  0  0  0  0
  5  4  1  0  0  0  0
  6  2  1  0  0  0  0
  8  9  1  0  0  0  0
  9 10  1  0  0  0  0
 11  9  2  0  0  0  0
 12 11  1  0  0  0  0
 13 12  1  0  0  0  0
 14 15  1  0  0  0  0
 14 13  2  0  0  0  0
 16 17  2  0  0  0  0
 16 14  1  0  0  0  0
 17 18  1  0  0  0  0
 18 19  1  0  0  0  0
 18 12  2  0  0  0  0
 19  8  2  0  0  0  0
 20  1  1  0  0  0  0
 20 22  1  0  0  0  0
 21 20  2  0  0  0  0
 24 22  1  0  0  0  0
 24 23  2  1  0  0  0
 25 24  1  0  0  0  0
 26 25  1  0  0  0  0
 27 24  1  0  0  0  0
 28 34  1  0  0  0  0
 29 27  1  0  0  0  0
 29 28  2  0  0  0  0
 30 29  1  0  0  0  0
 31 30  2  0  0  0  0
 31 32  1  0  0  0  0
 32 33  2  0  0  0  0
 33 28  1  0  0  0  0
 35 30  1  0  0  0  0
 36 32  1  0  0  0  0
M  END
>  <minimizedAffinity>
-6.03777838

$$$$
