
 OpenBabel03252509053D

 51 54  0  0  1  0  0  0  0  0999 V2000
   46.7560   34.3570   43.4840 N   0  0  0  0  0  0  0  0  0  0  0  0
   46.4760   34.9480   42.2290 C   0  0  0  0  0  0  0  0  0  0  0  0
   45.0030   34.9940   41.8640 C   0  0  0  0  0  0  0  0  0  0  0  0
   44.0790   35.1910   43.0410 C   0  0  0  0  0  0  0  0  0  0  0  0
   44.8510   35.3850   44.3340 C   0  0  0  0  0  0  0  0  0  0  0  0
   45.7590   34.1030   44.3970 C   0  0  2  0  0  0  0  0  0  0  0  0
   46.7990   36.0250   42.2750 H   0  0  0  0  0  0  0  0  0  0  0  0
   46.9890   34.5330   41.3580 H   0  0  0  0  0  0  0  0  0  0  0  0
   44.8350   35.7290   41.0640 H   0  0  0  0  0  0  0  0  0  0  0  0
   44.7520   33.9890   41.4470 H   0  0  0  0  0  0  0  0  0  0  0  0
   43.5130   36.1320   42.8750 H   0  0  0  0  0  0  0  0  0  0  0  0
   43.3610   34.3660   43.1900 H   0  0  0  0  0  0  0  0  0  0  0  0
   44.1460   35.3330   45.1750 H   0  0  0  0  0  0  0  0  0  0  0  0
   45.5030   36.2600   44.3020 H   0  0  0  0  0  0  0  0  0  0  0  0
   45.0670   33.2590   44.2040 H   0  0  0  0  0  0  0  0  0  0  0  0
   47.9430   33.5340   43.5010 C   0  0  0  0  0  0  0  0  0  0  0  0
   48.7590   34.1510   43.0480 H   0  0  0  0  0  0  0  0  0  0  0  0
   48.2180   33.2750   44.5380 H   0  0  0  0  0  0  0  0  0  0  0  0
   47.6910   32.3300   42.6640 C   0  0  0  0  0  0  0  0  0  0  0  0
   46.8100   32.4640   41.9950 H   0  0  0  0  0  0  0  0  0  0  0  0
   47.4820   31.4230   43.2640 H   0  0  0  0  0  0  0  0  0  0  0  0
   51.2280   32.1520   41.4130 C   0  0  0  0  0  0  0  0  0  0  0  0
   50.1140   32.3740   42.2420 C   0  0  0  0  0  0  0  0  0  0  0  0
   48.8610   32.0920   41.7750 C   0  0  0  0  0  0  0  0  0  0  0  0
   48.7600   31.6150   40.5360 N   0  0  0  0  0  0  0  0  0  0  0  0
   49.8060   31.4000   39.7360 C   0  0  0  0  0  0  0  0  0  0  0  0
   51.0630   31.6660   40.1640 N   0  0  0  0  0  0  0  0  0  0  0  0
   52.2230   32.3610   41.7480 H   0  0  0  0  0  0  0  0  0  0  0  0
   50.3250   32.7580   43.2160 H   0  0  0  0  0  0  0  0  0  0  0  0
   49.4990   31.0120   38.7750 H   0  0  0  0  0  0  0  0  0  0  0  0
   46.2050   34.1470   45.7080 O   0  0  0  0  0  0  0  0  0  0  0  0
   45.5690   31.5640   45.5680 O   0  0  0  0  0  0  0  0  0  0  0  0
   46.0440   32.6890   46.5080 P   0  0  2  0  0  0  0  0  0  0  0  0
   44.7350   32.8720   47.6090 O   0  0  0  0  0  0  0  0  0  0  0  0
   45.1280   33.1790   48.4700 H   0  0  0  0  0  0  0  0  0  0  0  0
   47.3770   32.2410   47.3790 O   0  0  0  0  0  0  0  0  0  0  0  0
   47.5490   30.8560   47.2880 C   0  0  0  0  0  0  0  0  0  0  0  0
   46.6520   30.2740   47.5130 H   0  0  0  0  0  0  0  0  0  0  0  0
   47.8980   30.5900   46.2520 H   0  0  0  0  0  0  0  0  0  0  0  0
   48.6530   30.5350   48.2390 C   0  0  0  0  0  0  0  0  0  0  0  0
   48.7860   31.0090   49.5270 C   0  0  0  0  0  0  0  0  0  0  0  0
   48.0060   31.6770   49.8670 H   0  0  0  0  0  0  0  0  0  0  0  0
   49.8650   30.6270   50.2990 C   0  0  0  0  0  3  0  0  0  0  0  0
   50.7970   29.7680   49.7520 C   0  0  0  0  0  0  0  0  0  0  0  0
   51.8580   29.3660   50.4480 N   0  0  0  0  0  0  0  0  0  0  0  0
   52.7980   28.5310   49.9710 C   0  0  0  0  0  0  0  0  0  0  0  0
   53.6660   28.1940   50.5190 H   0  0  0  0  0  0  0  0  0  0  0  0
   52.7050   28.0310   48.6830 C   0  0  0  0  0  3  0  0  0  0  0  0
   51.6320   28.4090   47.9120 C   0  0  0  0  0  3  0  0  0  0  0  0
   50.7090   29.2670   48.4710 C   0  0  0  0  0  0  0  0  0  0  0  0
   49.6120   29.6650   47.7070 C   0  0  0  0  0  3  0  0  0  0  0  0
  1 16  1  0  0  0  0
  1  6  1  0  0  0  0
  2  7  1  0  0  0  0
  2  1  1  0  0  0  0
  3  2  1  0  0  0  0
  3  4  1  0  0  0  0
  4 12  1  0  0  0  0
  4  5  1  0  0  0  0
  5  6  1  0  0  0  0
  5 13  1  0  0  0  0
  6 15  1  6  0  0  0
  6 31  1  0  0  0  0
  8  2  1  0  0  0  0
  9  3  1  0  0  0  0
 10  3  1  0  0  0  0
 11  4  1  0  0  0  0
 14  5  1  0  0  0  0
 16 18  1  0  0  0  0
 17 16  1  0  0  0  0
 19 21  1  0  0  0  0
 19 16  1  0  0  0  0
 20 19  1  0  0  0  0
 22 28  1  0  0  0  0
 22 23  1  0  0  0  0
 23 29  1  0  0  0  0
 24 23  2  0  0  0  0
 24 19  1  0  0  0  0
 25 24  1  0  0  0  0
 26 27  1  0  0  0  0
 26 25  2  0  0  0  0
 27 22  2  0  0  0  0
 30 26  1  0  0  0  0
 31 33  1  0  0  0  0
 33 32  2  6  0  0  0
 33 36  1  0  0  0  0
 33 34  1  0  0  0  0
 34 35  1  0  0  0  0
 37 36  1  0  0  0  0
 37 38  1  0  0  0  0
 37 40  1  0  0  0  0
 39 37  1  0  0  0  0
 40 41  1  0  0  0  0
 41 42  1  0  0  0  0
 41 43  2  0  0  0  0
 44 43  1  0  0  0  0
 44 45  1  0  0  0  0
 46 45  2  0  0  0  0
 46 47  1  0  0  0  0
 48 46  1  0  0  0  0
 49 50  1  0  0  0  0
 49 48  2  0  0  0  0
 50 44  2  0  0  0  0
 51 40  2  0  0  0  0
 51 50  1  0  0  0  0
M  END
>  <minimizedAffinity>
-5.33107901

>  <minimizedRMSD>
3.15949464

$$$$
