
 OpenBabel03242518483D

 48 52  0  0  1  0  0  0  0  0999 V2000
   38.4030   30.9840   40.4520 C   0  0  2  0  0  0  0  0  0  0  0  0
   38.5870   31.8610   39.2650 C   0  0  1  0  0  0  0  0  0  0  0  0
   37.2720   32.1410   38.5370 C   0  0  0  0  0  0  0  0  0  0  0  0
   36.7550   30.8700   38.2710 O   0  0  0  0  0  0  0  0  0  0  0  0
   36.2700   30.2680   39.4130 C   0  0  0  0  0  0  0  0  0  0  0  0
   36.8950   30.7620   40.6810 C   0  0  1  0  0  0  0  0  0  0  0  0
   38.8240   29.9900   40.2510 H   0  0  0  0  0  0  0  0  0  0  0  0
   39.2560   31.3480   38.5160 H   0  0  0  0  0  0  0  0  0  0  0  0
   37.4970   32.5830   37.5470 H   0  0  0  0  0  0  0  0  0  0  0  0
   36.6050   32.7700   39.1430 H   0  0  0  0  0  0  0  0  0  0  0  0
   36.4390   29.1560   39.3810 H   0  0  0  0  0  0  0  0  0  0  0  0
   35.1670   30.4290   39.5140 H   0  0  0  0  0  0  0  0  0  0  0  0
   36.5420   31.7660   41.0010 H   0  0  0  0  0  0  0  0  0  0  0  0
   41.0110   34.5880   39.5750 C   0  0  0  0  0  0  0  0  0  0  0  0
   40.2490   35.6780   40.0920 C   0  0  0  0  0  0  0  0  0  0  0  0
   38.8740   35.4050   40.3180 C   0  0  0  0  0  0  0  0  0  0  0  0
   38.3850   34.1760   40.0400 N   0  0  0  0  0  0  0  0  0  0  0  0
   39.1660   33.1880   39.5510 C   0  0  0  0  0  0  0  0  0  0  0  0
   40.4780   33.3970   39.3190 N   0  0  0  0  0  0  0  0  0  0  0  0
   40.6480   36.6390   40.3060 H   0  0  0  0  0  0  0  0  0  0  0  0
   38.2250   36.1760   40.7090 H   0  0  0  0  0  0  0  0  0  0  0  0
   42.3370   34.8270   39.3510 O   0  0  0  0  0  0  0  0  0  0  0  0
   42.8200   34.5450   38.4960 H   0  0  0  0  0  0  0  0  0  0  0  0
   38.9450   31.5030   41.6270 O   0  0  0  0  0  0  0  0  0  0  0  0
   39.7030   30.9300   41.9370 H   0  0  0  0  0  0  0  0  0  0  0  0
   36.7820   29.8780   41.7300 O   0  0  0  0  0  0  0  0  0  0  0  0
   36.2780   27.5260   40.4960 F   0  0  0  0  0  0  0  0  0  0  0  0
   37.1530   27.6960   41.5090 C   0  0  0  0  0  0  0  0  0  0  0  0
   37.4750   28.8520   42.1920 C   0  0  0  0  0  0  0  0  0  0  0  0
   38.4270   28.7010   43.1870 C   0  0  0  0  0  0  0  0  0  0  0  0
   39.0570   27.5320   43.5370 C   0  0  0  0  0  0  0  0  0  0  0  0
   38.7030   26.4230   42.8310 C   0  0  0  0  0  0  0  0  0  0  0  0
   37.7620   26.4690   41.8180 C   0  0  0  0  0  0  0  0  0  0  0  0
   38.6290   29.6670   43.6850 H   0  0  0  0  0  0  0  0  0  0  0  0
   39.7750   27.5440   44.3220 H   0  0  0  0  0  0  0  0  0  0  0  0
   39.2080   25.4880   43.1100 H   0  0  0  0  0  0  0  0  0  0  0  0
   37.4990   25.1900   41.1620 C   0  0  0  0  0  0  0  0  0  0  0  0
   38.5710   24.2940   41.0860 C   0  0  0  0  0  0  0  0  0  0  0  0
   39.5400   24.5800   41.5110 H   0  0  0  0  0  0  0  0  0  0  0  0
   38.5070   23.0420   40.5020 C   0  0  0  0  0  3  0  0  0  0  0  0
   37.2980   22.6610   39.9600 C   0  0  0  0  0  0  0  0  0  0  0  0
   37.1940   21.4510   39.3830 N   0  0  0  0  0  0  0  0  0  0  0  0
   36.0610   20.9950   38.8320 C   0  0  0  0  0  0  0  0  0  0  0  0
   36.0030   20.0170   38.3730 H   0  0  0  0  0  0  0  0  0  0  0  0
   34.9770   21.8630   38.8910 C   0  0  0  0  0  3  0  0  0  0  0  0
   35.0220   23.1150   39.4690 C   0  0  0  0  0  3  0  0  0  0  0  0
   36.2190   23.5240   40.0190 C   0  0  0  0  0  0  0  0  0  0  0  0
   36.3240   24.7590   40.6080 C   0  0  0  0  0  3  0  0  0  0  0  0
  1  7  1  6  0  0  0
  1  6  1  0  0  0  0
  1 24  1  0  0  0  0
  2  8  1  6  0  0  0
  2 18  1  0  0  0  0
  2  1  1  0  0  0  0
  3 10  1  0  0  0  0
  3  2  1  0  0  0  0
  4  3  1  0  0  0  0
  4  5  1  0  0  0  0
  5 12  1  0  0  0  0
  5  6  1  0  0  0  0
  6 13  1  1  0  0  0
  6 26  1  0  0  0  0
  9  3  1  0  0  0  0
 11  5  1  0  0  0  0
 14 15  1  0  0  0  0
 15 20  1  0  0  0  0
 15 16  2  0  0  0  0
 16 21  1  0  0  0  0
 17 16  1  0  0  0  0
 18 17  2  0  0  0  0
 19 18  1  0  0  0  0
 19 14  2  0  0  0  0
 22 14  1  0  0  0  0
 23 22  1  0  0  0  0
 24 25  1  0  0  0  0
 26 29  1  0  0  0  0
 27 28  1  0  0  0  0
 28 33  2  0  0  0  0
 28 29  1  0  0  0  0
 29 30  2  0  0  0  0
 30 31  1  0  0  0  0
 30 34  1  0  0  0  0
 31 35  1  0  0  0  0
 32 36  1  0  0  0  0
 32 31  2  0  0  0  0
 33 32  1  0  0  0  0
 37 33  1  0  0  0  0
 38 37  1  0  0  0  0
 38 39  1  0  0  0  0
 40 38  2  0  0  0  0
 41 47  1  0  0  0  0
 41 40  1  0  0  0  0
 42 41  2  0  0  0  0
 43 45  2  0  0  0  0
 43 42  1  0  0  0  0
 44 43  1  0  0  0  0
 45 46  1  0  0  0  0
 46 47  2  0  0  0  0
 47 48  1  0  0  0  0
 48 37  2  0  0  0  0
M  END
>  <minimizedAffinity>
-7.90407133

$$$$

 OpenBabel03242518483D

 48 52  0  0  1  0  0  0  0  0999 V2000
   39.3820   30.9080   40.0290 C   0  0  2  0  0  0  0  0  0  0  0  0
   39.0640   32.0730   39.1610 C   0  0  1  0  0  0  0  0  0  0  0  0
   37.8580   32.8650   39.6680 C   0  0  0  0  0  0  0  0  0  0  0  0
   36.8480   31.9070   39.7820 O   0  0  0  0  0  0  0  0  0  0  0  0
   37.0540   31.0740   40.8620 C   0  0  0  0  0  0  0  0  0  0  0  0
   38.4870   30.9580   41.2820 C   0  0  1  0  0  0  0  0  0  0  0  0
   39.1210   29.9750   39.5120 H   0  0  0  0  0  0  0  0  0  0  0  0
   38.7900   31.7120   38.1280 H   0  0  0  0  0  0  0  0  0  0  0  0
   37.5220   33.5570   38.8700 H   0  0  0  0  0  0  0  0  0  0  0  0
   38.0850   33.3810   40.6110 H   0  0  0  0  0  0  0  0  0  0  0  0
   36.6980   30.0310   40.6360 H   0  0  0  0  0  0  0  0  0  0  0  0
   36.4840   31.4290   41.7570 H   0  0  0  0  0  0  0  0  0  0  0  0
   38.8750   31.8450   41.8290 H   0  0  0  0  0  0  0  0  0  0  0  0
   41.8660   33.9610   37.7470 C   0  0  0  0  0  0  0  0  0  0  0  0
   42.1880   34.9170   38.7550 C   0  0  0  0  0  0  0  0  0  0  0  0
   41.3860   34.8620   39.9260 C   0  0  0  0  0  0  0  0  0  0  0  0
   40.4010   33.9400   40.0140 N   0  0  0  0  0  0  0  0  0  0  0  0
   40.1500   33.0630   39.0180 C   0  0  0  0  0  0  0  0  0  0  0  0
   40.8830   33.0750   37.8870 N   0  0  0  0  0  0  0  0  0  0  0  0
   42.9660   35.6360   38.6710 H   0  0  0  0  0  0  0  0  0  0  0  0
   41.5640   35.5520   40.7390 H   0  0  0  0  0  0  0  0  0  0  0  0
   42.6250   33.9940   36.6130 O   0  0  0  0  0  0  0  0  0  0  0  0
   42.2280   33.9510   35.6720 H   0  0  0  0  0  0  0  0  0  0  0  0
   40.7110   30.8640   40.4500 O   0  0  0  0  0  0  0  0  0  0  0  0
   41.1690   30.0690   40.0560 H   0  0  0  0  0  0  0  0  0  0  0  0
   38.7560   29.8170   42.0040 O   0  0  0  0  0  0  0  0  0  0  0  0
   38.6550   27.5850   40.4830 F   0  0  0  0  0  0  0  0  0  0  0  0
   38.0520   27.7330   41.6800 C   0  0  0  0  0  0  0  0  0  0  0  0
   38.0510   28.8270   42.5220 C   0  0  0  0  0  0  0  0  0  0  0  0
   37.3360   28.6650   43.6970 C   0  0  0  0  0  0  0  0  0  0  0  0
   36.6490   27.5380   44.0810 C   0  0  0  0  0  0  0  0  0  0  0  0
   36.6830   26.4890   43.2130 C   0  0  0  0  0  0  0  0  0  0  0  0
   37.3690   26.5510   42.0140 C   0  0  0  0  0  0  0  0  0  0  0  0
   37.3830   29.5800   44.3150 H   0  0  0  0  0  0  0  0  0  0  0  0
   36.1360   27.5350   45.0120 H   0  0  0  0  0  0  0  0  0  0  0  0
   36.1350   25.5870   43.5200 H   0  0  0  0  0  0  0  0  0  0  0  0
   37.3050   25.3390   41.2020 C   0  0  0  0  0  0  0  0  0  0  0  0
   38.2230   24.3300   41.5110 C   0  0  0  0  0  0  0  0  0  0  0  0
   38.9360   24.4850   42.3290 H   0  0  0  0  0  0  0  0  0  0  0  0
   38.3090   23.1180   40.8510 C   0  0  0  0  0  3  0  0  0  0  0  0
   37.4230   22.9000   39.8170 C   0  0  0  0  0  0  0  0  0  0  0  0
   37.4730   21.7340   39.1490 N   0  0  0  0  0  0  0  0  0  0  0  0
   36.6540   21.4330   38.1330 C   0  0  0  0  0  0  0  0  0  0  0  0
   36.7150   20.4880   37.6110 H   0  0  0  0  0  0  0  0  0  0  0  0
   35.7290   22.4160   37.8020 C   0  0  0  0  0  3  0  0  0  0  0  0
   35.6290   23.6310   38.4490 C   0  0  0  0  0  3  0  0  0  0  0  0
   36.5030   23.8780   39.4860 C   0  0  0  0  0  0  0  0  0  0  0  0
   36.4500   25.0670   40.1670 C   0  0  0  0  0  3  0  0  0  0  0  0
  1  7  1  6  0  0  0
  1 24  1  0  0  0  0
  1  6  1  0  0  0  0
  2  8  1  6  0  0  0
  2  3  1  0  0  0  0
  2  1  1  0  0  0  0
  3  4  1  0  0  0  0
  3 10  1  0  0  0  0
  4  5  1  0  0  0  0
  5  6  1  0  0  0  0
  5 12  1  0  0  0  0
  6 13  1  1  0  0  0
  6 26  1  0  0  0  0
  9  3  1  0  0  0  0
 11  5  1  0  0  0  0
 14 19  2  0  0  0  0
 14 15  1  0  0  0  0
 15 16  2  0  0  0  0
 16 17  1  0  0  0  0
 16 21  1  0  0  0  0
 18  2  1  0  0  0  0
 18 17  2  0  0  0  0
 19 18  1  0  0  0  0
 20 15  1  0  0  0  0
 22 14  1  0  0  0  0
 23 22  1  0  0  0  0
 25 24  1  0  0  0  0
 26 29  1  0  0  0  0
 27 28  1  0  0  0  0
 28 33  2  0  0  0  0
 28 29  1  0  0  0  0
 29 30  2  0  0  0  0
 30 31  1  0  0  0  0
 30 34  1  0  0  0  0
 31 35  1  0  0  0  0
 32 36  1  0  0  0  0
 32 31  2  0  0  0  0
 33 32  1  0  0  0  0
 37 38  1  0  0  0  0
 37 33  1  0  0  0  0
 38 39  1  0  0  0  0
 40 38  2  0  0  0  0
 41 40  1  0  0  0  0
 42 41  2  0  0  0  0
 43 42  1  0  0  0  0
 44 43  1  0  0  0  0
 45 43  2  0  0  0  0
 45 46  1  0  0  0  0
 46 47  2  0  0  0  0
 47 41  1  0  0  0  0
 47 48  1  0  0  0  0
 48 37  2  0  0  0  0
M  END
>  <minimizedAffinity>
-7.57548571

$$$$

 OpenBabel03242518483D

 48 52  0  0  1  0  0  0  0  0999 V2000
   40.9320   31.2040   41.7000 C   0  0  2  0  0  0  0  0  0  0  0  0
   41.3810   32.1640   40.6580 C   0  0  1  0  0  0  0  0  0  0  0  0
   41.4600   31.5250   39.2710 C   0  0  0  0  0  0  0  0  0  0  0  0
   42.2830   30.4120   39.4570 O   0  0  0  0  0  0  0  0  0  0  0  0
   41.6350   29.4070   40.1440 C   0  0  0  0  0  0  0  0  0  0  0  0
   40.5180   29.8840   41.0200 C   0  0  1  0  0  0  0  0  0  0  0  0
   41.7720   30.9480   42.3600 H   0  0  0  0  0  0  0  0  0  0  0  0
   42.4240   32.5220   40.8970 H   0  0  0  0  0  0  0  0  0  0  0  0
   42.0210   32.2000   38.5960 H   0  0  0  0  0  0  0  0  0  0  0  0
   40.4600   31.2740   38.8880 H   0  0  0  0  0  0  0  0  0  0  0  0
   42.3520   28.8510   40.8100 H   0  0  0  0  0  0  0  0  0  0  0  0
   41.1950   28.6580   39.4400 H   0  0  0  0  0  0  0  0  0  0  0  0
   39.5960   30.1680   40.4680 H   0  0  0  0  0  0  0  0  0  0  0  0
   38.4350   34.2540   40.0550 C   0  0  0  0  0  0  0  0  0  0  0  0
   38.9220   35.5890   40.1750 C   0  0  0  0  0  0  0  0  0  0  0  0
   40.3050   35.7080   40.4720 C   0  0  0  0  0  0  0  0  0  0  0  0
   41.0520   34.5910   40.6190 N   0  0  0  0  0  0  0  0  0  0  0  0
   40.5240   33.3550   40.4920 C   0  0  0  0  0  0  0  0  0  0  0  0
   39.2160   33.1890   40.2100 N   0  0  0  0  0  0  0  0  0  0  0  0
   38.3220   36.4580   40.0570 H   0  0  0  0  0  0  0  0  0  0  0  0
   40.7550   36.6860   40.5800 H   0  0  0  0  0  0  0  0  0  0  0  0
   37.1070   34.1150   39.7680 O   0  0  0  0  0  0  0  0  0  0  0  0
   36.4950   33.4570   40.2550 H   0  0  0  0  0  0  0  0  0  0  0  0
   39.8520   31.6550   42.4580 O   0  0  0  0  0  0  0  0  0  0  0  0
   40.1320   31.7940   43.4060 H   0  0  0  0  0  0  0  0  0  0  0  0
   40.1980   29.0040   42.0290 O   0  0  0  0  0  0  0  0  0  0  0  0
   39.5720   26.7990   40.5960 F   0  0  0  0  0  0  0  0  0  0  0  0
   38.8660   27.2650   41.6480 C   0  0  0  0  0  0  0  0  0  0  0  0
   39.1110   28.3720   42.4340 C   0  0  0  0  0  0  0  0  0  0  0  0
   38.1960   28.5830   43.4530 C   0  0  0  0  0  0  0  0  0  0  0  0
   37.1000   27.8040   43.7350 C   0  0  0  0  0  0  0  0  0  0  0  0
   36.9060   26.7250   42.9270 C   0  0  0  0  0  0  0  0  0  0  0  0
   37.7630   26.4270   41.8840 C   0  0  0  0  0  0  0  0  0  0  0  0
   38.4590   29.4850   44.0350 H   0  0  0  0  0  0  0  0  0  0  0  0
   36.4680   28.0710   44.5480 H   0  0  0  0  0  0  0  0  0  0  0  0
   36.0310   26.1010   43.1530 H   0  0  0  0  0  0  0  0  0  0  0  0
   37.4110   25.2350   41.1170 C   0  0  0  0  0  0  0  0  0  0  0  0
   38.1060   24.0620   41.4320 C   0  0  0  0  0  0  0  0  0  0  0  0
   38.8670   24.0850   42.2220 H   0  0  0  0  0  0  0  0  0  0  0  0
   37.9080   22.8410   40.8130 C   0  0  0  0  0  3  0  0  0  0  0  0
   36.9570   22.7890   39.8160 C   0  0  0  0  0  0  0  0  0  0  0  0
   36.7330   21.6200   39.1890 N   0  0  0  0  0  0  0  0  0  0  0  0
   35.8290   21.4730   38.2110 C   0  0  0  0  0  0  0  0  0  0  0  0
   35.6680   20.5220   37.7210 H   0  0  0  0  0  0  0  0  0  0  0  0
   35.1220   22.6210   37.8740 C   0  0  0  0  0  3  0  0  0  0  0  0
   35.3060   23.8460   38.4810 C   0  0  0  0  0  3  0  0  0  0  0  0
   36.2520   23.9300   39.4810 C   0  0  0  0  0  0  0  0  0  0  0  0
   36.4790   25.1230   40.1200 C   0  0  0  0  0  3  0  0  0  0  0  0
  1  7  1  1  0  0  0
  1 24  1  0  0  0  0
  2  8  1  1  0  0  0
  2  1  1  0  0  0  0
  3  4  1  0  0  0  0
  3  2  1  0  0  0  0
  4  5  1  0  0  0  0
  5 11  1  0  0  0  0
  5  6  1  0  0  0  0
  6 13  1  6  0  0  0
  6  1  1  0  0  0  0
  6 26  1  0  0  0  0
  9  3  1  0  0  0  0
 10  3  1  0  0  0  0
 12  5  1  0  0  0  0
 14 15  2  0  0  0  0
 14 19  1  0  0  0  0
 15 16  1  0  0  0  0
 16 21  1  0  0  0  0
 16 17  2  0  0  0  0
 18 17  1  0  0  0  0
 18  2  1  0  0  0  0
 19 18  2  0  0  0  0
 20 15  1  0  0  0  0
 22 14  1  0  0  0  0
 22 23  1  0  0  0  0
 24 25  1  0  0  0  0
 26 29  1  0  0  0  0
 27 28  1  0  0  0  0
 28 33  2  0  0  0  0
 28 29  1  0  0  0  0
 29 30  2  0  0  0  0
 30 31  1  0  0  0  0
 30 34  1  0  0  0  0
 31 35  1  0  0  0  0
 32 36  1  0  0  0  0
 32 31  2  0  0  0  0
 33 32  1  0  0  0  0
 37 38  1  0  0  0  0
 37 33  1  0  0  0  0
 38 39  1  0  0  0  0
 40 38  2  0  0  0  0
 41 40  1  0  0  0  0
 42 41  2  0  0  0  0
 43 42  1  0  0  0  0
 44 43  1  0  0  0  0
 45 43  2  0  0  0  0
 45 46  1  0  0  0  0
 46 47  2  0  0  0  0
 47 41  1  0  0  0  0
 47 48  1  0  0  0  0
 48 37  2  0  0  0  0
M  END
>  <minimizedAffinity>
-7.55393028

$$$$

 OpenBabel03242518483D

 48 52  0  0  1  0  0  0  0  0999 V2000
   39.9010   31.8060   39.5230 C   0  0  2  0  0  0  0  0  0  0  0  0
   40.2660   33.2440   39.4340 C   0  0  1  0  0  0  0  0  0  0  0  0
   39.3510   34.1320   40.2790 C   0  0  0  0  0  0  0  0  0  0  0  0
   38.0650   33.8090   39.8380 O   0  0  0  0  0  0  0  0  0  0  0  0
   37.6690   32.5660   40.2860 C   0  0  0  0  0  0  0  0  0  0  0  0
   38.8010   31.6330   40.5880 C   0  0  1  0  0  0  0  0  0  0  0  0
   39.4550   31.4740   38.5770 H   0  0  0  0  0  0  0  0  0  0  0  0
   40.1490   33.5990   38.3690 H   0  0  0  0  0  0  0  0  0  0  0  0
   39.5070   35.1890   39.9880 H   0  0  0  0  0  0  0  0  0  0  0  0
   39.5050   33.9580   41.3530 H   0  0  0  0  0  0  0  0  0  0  0  0
   37.0230   32.0520   39.5210 H   0  0  0  0  0  0  0  0  0  0  0  0
   37.0630   32.6510   41.2220 H   0  0  0  0  0  0  0  0  0  0  0  0
   39.3360   31.8590   41.5370 H   0  0  0  0  0  0  0  0  0  0  0  0
   43.0900   34.1970   41.5620 C   0  0  0  0  0  0  0  0  0  0  0  0
   44.2110   34.1910   40.6790 C   0  0  0  0  0  0  0  0  0  0  0  0
   43.9240   33.8420   39.3330 C   0  0  0  0  0  0  0  0  0  0  0  0
   42.6540   33.5470   38.9790 N   0  0  0  0  0  0  0  0  0  0  0  0
   41.6380   33.5720   39.8690 C   0  0  0  0  0  0  0  0  0  0  0  0
   41.8590   33.8960   41.1580 N   0  0  0  0  0  0  0  0  0  0  0  0
   45.2050   34.4250   40.9730 H   0  0  0  0  0  0  0  0  0  0  0  0
   44.7180   33.8140   38.5990 H   0  0  0  0  0  0  0  0  0  0  0  0
   43.3410   34.5300   42.8610 O   0  0  0  0  0  0  0  0  0  0  0  0
   42.9670   34.0080   43.6560 H   0  0  0  0  0  0  0  0  0  0  0  0
   40.9660   30.9730   39.8650 O   0  0  0  0  0  0  0  0  0  0  0  0
   41.1830   30.3640   39.1040 H   0  0  0  0  0  0  0  0  0  0  0  0
   38.4390   30.3050   40.5690 O   0  0  0  0  0  0  0  0  0  0  0  0
   38.2330   27.7880   39.6070 F   0  0  0  0  0  0  0  0  0  0  0  0
   38.0090   28.1470   40.8880 C   0  0  0  0  0  0  0  0  0  0  0  0
   38.0920   29.3980   41.4650 C   0  0  0  0  0  0  0  0  0  0  0  0
   37.8050   29.4410   42.8190 C   0  0  0  0  0  0  0  0  0  0  0  0
   37.4560   28.3730   43.6100 C   0  0  0  0  0  0  0  0  0  0  0  0
   37.3890   27.1620   42.9890 C   0  0  0  0  0  0  0  0  0  0  0  0
   37.6570   27.0140   41.6410 C   0  0  0  0  0  0  0  0  0  0  0  0
   37.8930   30.4730   43.2060 H   0  0  0  0  0  0  0  0  0  0  0  0
   37.2590   28.5330   44.6420 H   0  0  0  0  0  0  0  0  0  0  0  0
   37.1120   26.3070   43.6210 H   0  0  0  0  0  0  0  0  0  0  0  0
   37.5410   25.6490   41.1340 C   0  0  0  0  0  0  0  0  0  0  0  0
   38.5490   24.7550   41.5100 C   0  0  0  0  0  0  0  0  0  0  0  0
   39.3640   25.1050   42.1540 H   0  0  0  0  0  0  0  0  0  0  0  0
   38.6030   23.4270   41.1270 C   0  0  0  0  0  3  0  0  0  0  0  0
   37.5880   22.9640   40.3170 C   0  0  0  0  0  0  0  0  0  0  0  0
   37.6040   21.6780   39.9220 N   0  0  0  0  0  0  0  0  0  0  0  0
   36.6620   21.1400   39.1360 C   0  0  0  0  0  0  0  0  0  0  0  0
   36.6970   20.1030   38.8310 H   0  0  0  0  0  0  0  0  0  0  0  0
   35.6460   22.0040   38.7450 C   0  0  0  0  0  3  0  0  0  0  0  0
   35.5750   23.3310   39.1170 C   0  0  0  0  0  3  0  0  0  0  0  0
   36.5770   23.8230   39.9270 C   0  0  0  0  0  0  0  0  0  0  0  0
   36.5600   25.1340   40.3300 C   0  0  0  0  0  3  0  0  0  0  0  0
  1  7  1  6  0  0  0
  1 24  1  0  0  0  0
  1  6  1  0  0  0  0
  2  8  1  6  0  0  0
  2  1  1  0  0  0  0
  2 18  1  0  0  0  0
  2  3  1  0  0  0  0
  3 10  1  0  0  0  0
  4  3  1  0  0  0  0
  4  5  1  0  0  0  0
  5  6  1  0  0  0  0
  5 12  1  0  0  0  0
  6 13  1  1  0  0  0
  9  3  1  0  0  0  0
 11  5  1  0  0  0  0
 14 22  1  0  0  0  0
 15 20  1  0  0  0  0
 15 14  2  0  0  0  0
 16 15  1  0  0  0  0
 17 16  2  0  0  0  0
 17 18  1  0  0  0  0
 18 19  2  0  0  0  0
 19 14  1  0  0  0  0
 21 16  1  0  0  0  0
 22 23  1  0  0  0  0
 25 24  1  0  0  0  0
 26  6  1  0  0  0  0
 26 29  1  0  0  0  0
 27 28  1  0  0  0  0
 28 29  2  0  0  0  0
 28 33  1  0  0  0  0
 29 30  1  0  0  0  0
 30 34  1  0  0  0  0
 30 31  2  0  0  0  0
 31 35  1  0  0  0  0
 32 31  1  0  0  0  0
 32 36  1  0  0  0  0
 33 32  2  0  0  0  0
 37 38  1  0  0  0  0
 37 33  1  0  0  0  0
 38 39  1  0  0  0  0
 40 38  2  0  0  0  0
 41 40  1  0  0  0  0
 42 41  2  0  0  0  0
 43 42  1  0  0  0  0
 44 43  1  0  0  0  0
 45 46  1  0  0  0  0
 45 43  2  0  0  0  0
 46 47  2  0  0  0  0
 47 41  1  0  0  0  0
 47 48  1  0  0  0  0
 48 37  2  0  0  0  0
M  END
>  <minimizedAffinity>
-7.26671171

$$$$

 OpenBabel03242518483D

 48 52  0  0  1  0  0  0  0  0999 V2000
   40.7510   32.4730   40.3100 C   0  0  2  0  0  0  0  0  0  0  0  0
   41.2340   33.8340   39.9590 C   0  0  1  0  0  0  0  0  0  0  0  0
   40.2470   34.9270   40.3680 C   0  0  0  0  0  0  0  0  0  0  0  0
   39.0460   34.5420   39.7660 O   0  0  0  0  0  0  0  0  0  0  0  0
   38.4790   33.4600   40.4050 C   0  0  0  0  0  0  0  0  0  0  0  0
   39.4590   32.5990   41.1410 C   0  0  1  0  0  0  0  0  0  0  0  0
   40.4670   31.9300   39.3980 H   0  0  0  0  0  0  0  0  0  0  0  0
   41.3480   33.9180   38.8400 H   0  0  0  0  0  0  0  0  0  0  0  0
   40.5360   35.8760   39.8740 H   0  0  0  0  0  0  0  0  0  0  0  0
   40.1810   35.0190   41.4610 H   0  0  0  0  0  0  0  0  0  0  0  0
   37.9520   32.7920   39.6680 H   0  0  0  0  0  0  0  0  0  0  0  0
   37.7160   33.7900   41.1530 H   0  0  0  0  0  0  0  0  0  0  0  0
   39.8210   33.0360   42.0970 H   0  0  0  0  0  0  0  0  0  0  0  0
   43.6700   35.2050   42.3250 C   0  0  0  0  0  0  0  0  0  0  0  0
   44.9340   34.9470   41.7160 C   0  0  0  0  0  0  0  0  0  0  0  0
   44.8810   34.2820   40.4620 C   0  0  0  0  0  0  0  0  0  0  0  0
   43.6820   33.9450   39.9390 N   0  0  0  0  0  0  0  0  0  0  0  0
   42.5210   34.2200   40.5720 C   0  0  0  0  0  0  0  0  0  0  0  0
   42.5180   34.8490   41.7640 N   0  0  0  0  0  0  0  0  0  0  0  0
   45.8700   35.2180   42.1400 H   0  0  0  0  0  0  0  0  0  0  0  0
   45.7950   34.0490   39.9330 H   0  0  0  0  0  0  0  0  0  0  0  0
   43.6960   35.8450   43.5310 O   0  0  0  0  0  0  0  0  0  0  0  0
   43.1390   35.5480   44.3340 H   0  0  0  0  0  0  0  0  0  0  0  0
   41.6650   31.7210   41.0470 O   0  0  0  0  0  0  0  0  0  0  0  0
   41.9750   30.9360   40.5110 H   0  0  0  0  0  0  0  0  0  0  0  0
   39.0060   31.3180   41.3630 O   0  0  0  0  0  0  0  0  0  0  0  0
   39.3520   28.6410   41.2190 F   0  0  0  0  0  0  0  0  0  0  0  0
   38.1780   29.2810   41.0350 C   0  0  0  0  0  0  0  0  0  0  0  0
   37.9100   30.6330   41.0910 C   0  0  0  0  0  0  0  0  0  0  0  0
   36.5890   30.9810   40.8600 C   0  0  0  0  0  0  0  0  0  0  0  0
   35.5570   30.1150   40.5880 C   0  0  0  0  0  0  0  0  0  0  0  0
   35.8780   28.7920   40.5440 C   0  0  0  0  0  0  0  0  0  0  0  0
   37.1680   28.3440   40.7610 C   0  0  0  0  0  0  0  0  0  0  0  0
   36.4550   32.0760   40.9220 H   0  0  0  0  0  0  0  0  0  0  0  0
   34.5800   30.5040   40.4290 H   0  0  0  0  0  0  0  0  0  0  0  0
   35.0530   28.0990   40.3280 H   0  0  0  0  0  0  0  0  0  0  0  0
   37.3400   26.8950   40.6790 C   0  0  0  0  0  0  0  0  0  0  0  0
   37.1520   26.1750   41.8630 C   0  0  0  0  0  0  0  0  0  0  0  0
   36.8890   26.7120   42.7820 H   0  0  0  0  0  0  0  0  0  0  0  0
   37.2730   24.8020   41.9750 C   0  0  0  0  0  3  0  0  0  0  0  0
   37.6030   24.1050   40.8320 C   0  0  0  0  0  0  0  0  0  0  0  0
   37.7310   22.7670   40.8980 N   0  0  0  0  0  0  0  0  0  0  0  0
   38.0480   22.0070   39.8420 C   0  0  0  0  0  0  0  0  0  0  0  0
   38.1450   20.9330   39.9200 H   0  0  0  0  0  0  0  0  0  0  0  0
   38.2420   22.6940   38.6490 C   0  0  0  0  0  3  0  0  0  0  0  0
   38.1250   24.0620   38.5190 C   0  0  0  0  0  3  0  0  0  0  0  0
   37.7970   24.7870   39.6450 C   0  0  0  0  0  0  0  0  0  0  0  0
   37.6660   26.1510   39.5770 C   0  0  0  0  0  3  0  0  0  0  0  0
  1  7  1  6  0  0  0
  1 24  1  0  0  0  0
  1  6  1  0  0  0  0
  2  8  1  6  0  0  0
  2  1  1  0  0  0  0
  2  3  1  0  0  0  0
  2 18  1  0  0  0  0
  3 10  1  0  0  0  0
  4  3  1  0  0  0  0
  4  5  1  0  0  0  0
  5  6  1  0  0  0  0
  5 12  1  0  0  0  0
  6 26  1  0  0  0  0
  6 13  1  1  0  0  0
  9  3  1  0  0  0  0
 11  5  1  0  0  0  0
 14 22  1  0  0  0  0
 15 20  1  0  0  0  0
 15 14  2  0  0  0  0
 16 15  1  0  0  0  0
 17 16  2  0  0  0  0
 17 18  1  0  0  0  0
 18 19  2  0  0  0  0
 19 14  1  0  0  0  0
 21 16  1  0  0  0  0
 22 23  1  0  0  0  0
 25 24  1  0  0  0  0
 28 29  1  0  0  0  0
 28 27  1  0  0  0  0
 29 26  1  0  0  0  0
 30 34  1  0  0  0  0
 30 29  2  0  0  0  0
 31 30  1  0  0  0  0
 32 31  2  0  0  0  0
 32 33  1  0  0  0  0
 33 28  2  0  0  0  0
 35 31  1  0  0  0  0
 36 32  1  0  0  0  0
 37 33  1  0  0  0  0
 37 38  1  0  0  0  0
 38 40  2  0  0  0  0
 38 39  1  0  0  0  0
 41 42  1  0  0  0  0
 41 40  1  0  0  0  0
 43 44  1  0  0  0  0
 43 42  2  0  0  0  0
 45 43  1  0  0  0  0
 46 45  2  0  0  0  0
 46 47  1  0  0  0  0
 47 41  2  0  0  0  0
 48 47  1  0  0  0  0
 48 37  2  0  0  0  0
M  END
>  <minimizedAffinity>
-7.24159622

$$$$

 OpenBabel03242518483D

 48 52  0  0  1  0  0  0  0  0999 V2000
   40.2630   33.2400   39.2340 C   0  0  2  0  0  0  0  0  0  0  0  0
   40.7840   34.5850   39.5940 C   0  0  1  0  0  0  0  0  0  0  0  0
   39.8640   35.3270   40.5650 C   0  0  0  0  0  0  0  0  0  0  0  0
   38.6200   35.3140   39.9290 O   0  0  0  0  0  0  0  0  0  0  0  0
   38.0410   34.0630   39.9630 C   0  0  0  0  0  0  0  0  0  0  0  0
   39.0210   32.9380   40.0950 C   0  0  1  0  0  0  0  0  0  0  0  0
   39.9110   33.2410   38.1940 H   0  0  0  0  0  0  0  0  0  0  0  0
   40.8450   35.2270   38.6690 H   0  0  0  0  0  0  0  0  0  0  0  0
   40.1670   36.3920   40.6040 H   0  0  0  0  0  0  0  0  0  0  0  0
   39.8570   34.8490   41.5550 H   0  0  0  0  0  0  0  0  0  0  0  0
   37.4510   33.8700   39.0250 H   0  0  0  0  0  0  0  0  0  0  0  0
   37.3300   33.9730   40.8220 H   0  0  0  0  0  0  0  0  0  0  0  0
   39.4470   32.8230   41.1150 H   0  0  0  0  0  0  0  0  0  0  0  0
   43.4260   35.0570   42.0850 C   0  0  0  0  0  0  0  0  0  0  0  0
   44.6110   34.6070   41.4290 C   0  0  0  0  0  0  0  0  0  0  0  0
   44.4310   34.1400   40.1000 C   0  0  0  0  0  0  0  0  0  0  0  0
   43.1940   34.1500   39.5540 N   0  0  0  0  0  0  0  0  0  0  0  0
   42.1140   34.5910   40.2340 C   0  0  0  0  0  0  0  0  0  0  0  0
   42.2330   35.0440   41.4990 N   0  0  0  0  0  0  0  0  0  0  0  0
   45.5770   34.6050   41.8720 H   0  0  0  0  0  0  0  0  0  0  0  0
   45.2780   33.7810   39.5320 H   0  0  0  0  0  0  0  0  0  0  0  0
   43.5750   35.5110   43.3640 O   0  0  0  0  0  0  0  0  0  0  0  0
   42.9530   35.2430   44.1290 H   0  0  0  0  0  0  0  0  0  0  0  0
   41.1810   32.2080   39.4260 O   0  0  0  0  0  0  0  0  0  0  0  0
   41.4300   31.8040   38.5470 H   0  0  0  0  0  0  0  0  0  0  0  0
   38.5270   31.7270   39.6630 O   0  0  0  0  0  0  0  0  0  0  0  0
   36.8600   30.5650   37.8810 F   0  0  0  0  0  0  0  0  0  0  0  0
   36.9400   30.2430   39.1880 C   0  0  0  0  0  0  0  0  0  0  0  0
   37.7570   30.7780   40.1640 C   0  0  0  0  0  0  0  0  0  0  0  0
   37.6070   30.2240   41.4250 C   0  0  0  0  0  0  0  0  0  0  0  0
   36.7380   29.2170   41.7720 C   0  0  0  0  0  0  0  0  0  0  0  0
   35.9560   28.7270   40.7700 C   0  0  0  0  0  0  0  0  0  0  0  0
   36.0300   29.2130   39.4780 C   0  0  0  0  0  0  0  0  0  0  0  0
   38.2920   30.7020   42.1480 H   0  0  0  0  0  0  0  0  0  0  0  0
   36.7140   28.8750   42.7780 H   0  0  0  0  0  0  0  0  0  0  0  0
   35.2610   27.9220   41.0460 H   0  0  0  0  0  0  0  0  0  0  0  0
   35.1230   28.5770   38.5260 C   0  0  0  0  0  0  0  0  0  0  0  0
   35.4530   27.2800   38.1180 C   0  0  0  0  0  0  0  0  0  0  0  0
   36.3560   26.8050   38.5200 H   0  0  0  0  0  0  0  0  0  0  0  0
   34.7140   26.5250   37.2260 C   0  0  0  0  0  3  0  0  0  0  0  0
   33.5740   27.1020   36.7070 C   0  0  0  0  0  0  0  0  0  0  0  0
   32.8260   26.4020   35.8360 N   0  0  0  0  0  0  0  0  0  0  0  0
   31.7040   26.8790   35.2820 C   0  0  0  0  0  0  0  0  0  0  0  0
   31.1200   26.2960   34.5820 H   0  0  0  0  0  0  0  0  0  0  0  0
   31.3490   28.1660   35.6660 C   0  0  0  0  0  3  0  0  0  0  0  0
   32.0740   28.9330   36.5550 C   0  0  0  0  0  3  0  0  0  0  0  0
   33.2200   28.3830   37.0900 C   0  0  0  0  0  0  0  0  0  0  0  0
   33.9810   29.0990   37.9790 C   0  0  0  0  0  3  0  0  0  0  0  0
  1  7  1  6  0  0  0
  1 24  1  0  0  0  0
  1  2  1  0  0  0  0
  1  6  1  0  0  0  0
  2  8  1  6  0  0  0
  2 18  1  0  0  0  0
  2  3  1  0  0  0  0
  3  9  1  0  0  0  0
  3 10  1  0  0  0  0
  4  5  1  0  0  0  0
  4  3  1  0  0  0  0
  5  6  1  0  0  0  0
  5 12  1  0  0  0  0
  6 13  1  1  0  0  0
 11  5  1  0  0  0  0
 14 22  1  0  0  0  0
 15 20  1  0  0  0  0
 15 14  2  0  0  0  0
 16 15  1  0  0  0  0
 17 16  2  0  0  0  0
 17 18  1  0  0  0  0
 18 19  2  0  0  0  0
 19 14  1  0  0  0  0
 21 16  1  0  0  0  0
 22 23  1  0  0  0  0
 25 24  1  0  0  0  0
 26  6  1  0  0  0  0
 26 29  1  0  0  0  0
 27 28  1  0  0  0  0
 28 33  2  0  0  0  0
 28 29  1  0  0  0  0
 29 30  2  0  0  0  0
 30 31  1  0  0  0  0
 30 34  1  0  0  0  0
 31 35  1  0  0  0  0
 32 36  1  0  0  0  0
 32 31  2  0  0  0  0
 33 32  1  0  0  0  0
 37 33  1  0  0  0  0
 38 39  1  0  0  0  0
 38 37  1  0  0  0  0
 40 38  2  0  0  0  0
 41 47  1  0  0  0  0
 41 40  1  0  0  0  0
 42 41  2  0  0  0  0
 43 45  2  0  0  0  0
 43 42  1  0  0  0  0
 44 43  1  0  0  0  0
 45 46  1  0  0  0  0
 46 47  2  0  0  0  0
 47 48  1  0  0  0  0
 48 37  2  0  0  0  0
M  END
>  <minimizedAffinity>
-7.1506443

$$$$

 OpenBabel03242518483D

 48 52  0  0  1  0  0  0  0  0999 V2000
   41.0340   31.7740   41.8620 C   0  0  2  0  0  0  0  0  0  0  0  0
   42.3350   31.9160   41.1580 C   0  0  1  0  0  0  0  0  0  0  0  0
   42.9750   30.5650   40.8350 C   0  0  0  0  0  0  0  0  0  0  0  0
   43.0270   29.9120   42.0690 O   0  0  0  0  0  0  0  0  0  0  0  0
   41.7790   29.4920   42.4780 C   0  0  0  0  0  0  0  0  0  0  0  0
   40.6460   30.2830   41.9010 C   0  0  1  0  0  0  0  0  0  0  0  0
   41.1400   32.0820   42.9100 H   0  0  0  0  0  0  0  0  0  0  0  0
   43.0680   32.4580   41.8220 H   0  0  0  0  0  0  0  0  0  0  0  0
   44.0300   30.7290   40.5410 H   0  0  0  0  0  0  0  0  0  0  0  0
   42.3990   30.0210   40.0730 H   0  0  0  0  0  0  0  0  0  0  0  0
   41.6820   29.5570   43.5970 H   0  0  0  0  0  0  0  0  0  0  0  0
   41.6030   28.4240   42.1950 H   0  0  0  0  0  0  0  0  0  0  0  0
   40.4280   30.0550   40.8350 H   0  0  0  0  0  0  0  0  0  0  0  0
   41.3350   32.8760   37.7680 C   0  0  0  0  0  0  0  0  0  0  0  0
   42.1730   33.9880   37.4570 C   0  0  0  0  0  0  0  0  0  0  0  0
   43.0820   34.3700   38.4790 C   0  0  0  0  0  0  0  0  0  0  0  0
   43.1010   33.6830   39.6430 N   0  0  0  0  0  0  0  0  0  0  0  0
   42.2760   32.6370   39.8710 C   0  0  0  0  0  0  0  0  0  0  0  0
   41.3950   32.2370   38.9320 N   0  0  0  0  0  0  0  0  0  0  0  0
   42.1470   34.5190   36.5370 H   0  0  0  0  0  0  0  0  0  0  0  0
   43.7540   35.2030   38.3240 H   0  0  0  0  0  0  0  0  0  0  0  0
   40.4530   32.4910   36.7990 O   0  0  0  0  0  0  0  0  0  0  0  0
   39.4720   32.2780   36.9890 H   0  0  0  0  0  0  0  0  0  0  0  0
   39.9870   32.4750   41.2630 O   0  0  0  0  0  0  0  0  0  0  0  0
   39.6740   33.2050   41.8680 H   0  0  0  0  0  0  0  0  0  0  0  0
   39.4860   30.1960   42.6360 O   0  0  0  0  0  0  0  0  0  0  0  0
   38.1360   29.8000   40.3280 F   0  0  0  0  0  0  0  0  0  0  0  0
   37.8430   29.2120   41.5060 C   0  0  0  0  0  0  0  0  0  0  0  0
   38.4740   29.3520   42.7260 C   0  0  0  0  0  0  0  0  0  0  0  0
   37.9330   28.6010   43.7570 C   0  0  0  0  0  0  0  0  0  0  0  0
   36.8540   27.7550   43.6660 C   0  0  0  0  0  0  0  0  0  0  0  0
   36.2700   27.6550   42.4400 C   0  0  0  0  0  0  0  0  0  0  0  0
   36.7350   28.3630   41.3470 C   0  0  0  0  0  0  0  0  0  0  0  0
   38.4900   28.7660   44.6970 H   0  0  0  0  0  0  0  0  0  0  0  0
   36.5310   27.2300   44.5320 H   0  0  0  0  0  0  0  0  0  0  0  0
   35.4080   26.9770   42.3660 H   0  0  0  0  0  0  0  0  0  0  0  0
   35.9950   28.1400   40.1070 C   0  0  0  0  0  0  0  0  0  0  0  0
   36.4200   27.0720   39.3090 C   0  0  0  0  0  0  0  0  0  0  0  0
   37.2690   26.4610   39.6380 H   0  0  0  0  0  0  0  0  0  0  0  0
   35.8420   26.7130   38.1050 C   0  0  0  0  0  3  0  0  0  0  0  0
   34.7730   27.4680   37.6700 C   0  0  0  0  0  0  0  0  0  0  0  0
   34.1820   27.1520   36.5050 N   0  0  0  0  0  0  0  0  0  0  0  0
   33.1390   27.8270   36.0030 C   0  0  0  0  0  0  0  0  0  0  0  0
   32.6810   27.5530   35.0620 H   0  0  0  0  0  0  0  0  0  0  0  0
   32.6940   28.8950   36.7730 C   0  0  0  0  0  3  0  0  0  0  0  0
   33.2580   29.2670   37.9760 C   0  0  0  0  0  3  0  0  0  0  0  0
   34.3290   28.5310   38.4360 C   0  0  0  0  0  0  0  0  0  0  0  0
   34.9310   28.8540   39.6250 C   0  0  0  0  0  3  0  0  0  0  0  0
  1  6  1  0  0  0  0
  1  7  1  1  0  0  0
  2  8  1  1  0  0  0
  2  1  1  0  0  0  0
  3  2  1  0  0  0  0
  3  4  1  0  0  0  0
  4  5  1  0  0  0  0
  5 11  1  0  0  0  0
  6 13  1  6  0  0  0
  6  5  1  0  0  0  0
  6 26  1  0  0  0  0
  9  3  1  0  0  0  0
 10  3  1  0  0  0  0
 12  5  1  0  0  0  0
 14 19  1  0  0  0  0
 15 14  2  0  0  0  0
 15 16  1  0  0  0  0
 16 17  2  0  0  0  0
 17 18  1  0  0  0  0
 18  2  1  0  0  0  0
 19 18  2  0  0  0  0
 20 15  1  0  0  0  0
 21 16  1  0  0  0  0
 22 23  1  0  0  0  0
 22 14  1  0  0  0  0
 24  1  1  0  0  0  0
 24 25  1  0  0  0  0
 26 29  1  0  0  0  0
 27 28  1  0  0  0  0
 28 29  1  0  0  0  0
 29 30  2  0  0  0  0
 30 34  1  0  0  0  0
 31 30  1  0  0  0  0
 31 35  1  0  0  0  0
 32 31  2  0  0  0  0
 33 28  2  0  0  0  0
 33 32  1  0  0  0  0
 36 32  1  0  0  0  0
 37 33  1  0  0  0  0
 38 39  1  0  0  0  0
 38 37  2  0  0  0  0
 40 38  1  0  0  0  0
 41 40  2  0  0  0  0
 41 47  1  0  0  0  0
 42 41  1  0  0  0  0
 43 42  2  0  0  0  0
 43 45  1  0  0  0  0
 44 43  1  0  0  0  0
 45 46  2  0  0  0  0
 46 47  1  0  0  0  0
 47 48  2  0  0  0  0
 48 37  1  0  0  0  0
M  END
>  <minimizedAffinity>
-7.13616037

$$$$

 OpenBabel03242518483D

 48 52  0  0  1  0  0  0  0  0999 V2000
   43.1660   32.5420   41.4720 C   0  0  2  0  0  0  0  0  0  0  0  0
   42.7340   33.2060   40.2140 C   0  0  1  0  0  0  0  0  0  0  0  0
   42.6450   32.2290   39.0400 C   0  0  0  0  0  0  0  0  0  0  0  0
   43.9070   31.6300   39.0010 O   0  0  0  0  0  0  0  0  0  0  0  0
   44.0800   30.7380   40.0380 C   0  0  0  0  0  0  0  0  0  0  0  0
   43.2290   31.0200   41.2380 C   0  0  1  0  0  0  0  0  0  0  0  0
   44.1890   32.8480   41.7240 H   0  0  0  0  0  0  0  0  0  0  0  0
   43.4940   33.9840   39.9160 H   0  0  0  0  0  0  0  0  0  0  0  0
   42.5620   32.8070   38.0980 H   0  0  0  0  0  0  0  0  0  0  0  0
   41.8220   31.5140   39.1750 H   0  0  0  0  0  0  0  0  0  0  0  0
   45.1480   30.7390   40.3920 H   0  0  0  0  0  0  0  0  0  0  0  0
   43.8430   29.6940   39.7140 H   0  0  0  0  0  0  0  0  0  0  0  0
   42.1600   30.7430   41.1140 H   0  0  0  0  0  0  0  0  0  0  0  0
   39.1230   33.7040   40.5690 C   0  0  0  0  0  0  0  0  0  0  0  0
   38.9430   35.1070   40.3790 C   0  0  0  0  0  0  0  0  0  0  0  0
   40.1300   35.8450   40.1270 C   0  0  0  0  0  0  0  0  0  0  0  0
   41.3170   35.2000   40.0830 N   0  0  0  0  0  0  0  0  0  0  0  0
   41.4150   33.8660   40.2730 C   0  0  0  0  0  0  0  0  0  0  0  0
   40.3180   33.1210   40.5160 N   0  0  0  0  0  0  0  0  0  0  0  0
   38.0020   35.6000   40.4160 H   0  0  0  0  0  0  0  0  0  0  0  0
   40.0810   36.9130   39.9710 H   0  0  0  0  0  0  0  0  0  0  0  0
   37.9960   32.9740   40.8110 O   0  0  0  0  0  0  0  0  0  0  0  0
   37.9330   32.2690   41.5480 H   0  0  0  0  0  0  0  0  0  0  0  0
   42.3180   32.7770   42.5540 O   0  0  0  0  0  0  0  0  0  0  0  0
   42.7930   33.3100   43.2520 H   0  0  0  0  0  0  0  0  0  0  0  0
   43.7170   30.4630   42.4000 O   0  0  0  0  0  0  0  0  0  0  0  0
   41.5080   29.1070   41.6330 F   0  0  0  0  0  0  0  0  0  0  0  0
   42.2170   28.8600   42.7540 C   0  0  0  0  0  0  0  0  0  0  0  0
   43.3500   29.4950   43.2200 C   0  0  0  0  0  0  0  0  0  0  0  0
   43.8520   29.0000   44.4130 C   0  0  0  0  0  0  0  0  0  0  0  0
   43.3300   27.9610   45.1450 C   0  0  0  0  0  0  0  0  0  0  0  0
   42.2120   27.3720   44.6390 C   0  0  0  0  0  0  0  0  0  0  0  0
   41.6340   27.7920   43.4550 C   0  0  0  0  0  0  0  0  0  0  0  0
   44.7560   29.5580   44.7190 H   0  0  0  0  0  0  0  0  0  0  0  0
   43.8090   27.6720   46.0490 H   0  0  0  0  0  0  0  0  0  0  0  0
   41.7950   26.5400   45.2230 H   0  0  0  0  0  0  0  0  0  0  0  0
   40.4400   27.0510   43.0540 C   0  0  0  0  0  0  0  0  0  0  0  0
   39.2090   27.5980   43.4330 C   0  0  0  0  0  0  0  0  0  0  0  0
   39.1900   28.5360   44.0010 H   0  0  0  0  0  0  0  0  0  0  0  0
   37.9780   27.0370   43.1430 C   0  0  0  0  0  3  0  0  0  0  0  0
   37.9770   25.8570   42.4300 C   0  0  0  0  0  0  0  0  0  0  0  0
   36.8010   25.2790   42.1260 N   0  0  0  0  0  0  0  0  0  0  0  0
   36.7010   24.1350   41.4380 C   0  0  0  0  0  0  0  0  0  0  0  0
   35.7430   23.6890   41.2070 H   0  0  0  0  0  0  0  0  0  0  0  0
   37.9080   23.5670   41.0470 C   0  0  0  0  0  3  0  0  0  0  0  0
   39.1440   24.1110   41.3270 C   0  0  0  0  0  3  0  0  0  0  0  0
   39.1770   25.2910   42.0400 C   0  0  0  0  0  0  0  0  0  0  0  0
   40.3770   25.8800   42.3480 C   0  0  0  0  0  3  0  0  0  0  0  0
  1  7  1  1  0  0  0
  1 24  1  0  0  0  0
  2  8  1  6  0  0  0
  2 18  1  0  0  0  0
  2  1  1  0  0  0  0
  3 10  1  0  0  0  0
  3  2  1  0  0  0  0
  4  3  1  0  0  0  0
  4  5  1  0  0  0  0
  5 11  1  0  0  0  0
  5  6  1  0  0  0  0
  6 13  1  6  0  0  0
  6  1  1  0  0  0  0
  6 26  1  0  0  0  0
  9  3  1  0  0  0  0
 12  5  1  0  0  0  0
 14 22  1  0  0  0  0
 15 20  1  0  0  0  0
 15 14  2  0  0  0  0
 16 15  1  0  0  0  0
 17 16  2  0  0  0  0
 17 18  1  0  0  0  0
 18 19  2  0  0  0  0
 19 14  1  0  0  0  0
 21 16  1  0  0  0  0
 22 23  1  0  0  0  0
 24 25  1  0  0  0  0
 26 29  1  0  0  0  0
 27 28  1  0  0  0  0
 28 29  2  0  0  0  0
 28 33  1  0  0  0  0
 29 30  1  0  0  0  0
 30 34  1  0  0  0  0
 30 31  2  0  0  0  0
 31 35  1  0  0  0  0
 32 31  1  0  0  0  0
 32 36  1  0  0  0  0
 33 32  2  0  0  0  0
 37 38  1  0  0  0  0
 37 33  1  0  0  0  0
 38 39  1  0  0  0  0
 40 38  2  0  0  0  0
 41 40  1  0  0  0  0
 42 41  1  0  0  0  0
 43 42  2  0  0  0  0
 44 43  1  0  0  0  0
 45 46  2  0  0  0  0
 45 43  1  0  0  0  0
 46 47  1  0  0  0  0
 47 48  1  0  0  0  0
 47 41  2  0  0  0  0
 48 37  2  0  0  0  0
M  END
>  <minimizedAffinity>
-7.099051

$$$$

 OpenBabel03242518483D

 48 52  0  0  1  0  0  0  0  0999 V2000
   39.0680   31.1290   40.5320 C   0  0  2  0  0  0  0  0  0  0  0  0
   38.8630   32.1130   39.4360 C   0  0  1  0  0  0  0  0  0  0  0  0
   37.3860   32.4500   39.2240 C   0  0  0  0  0  0  0  0  0  0  0  0
   36.7790   31.2060   39.0360 O   0  0  0  0  0  0  0  0  0  0  0  0
   36.6920   30.4970   40.2160 C   0  0  0  0  0  0  0  0  0  0  0  0
   37.7210   30.8770   41.2370 C   0  0  1  0  0  0  0  0  0  0  0  0
   39.3720   30.1610   40.1130 H   0  0  0  0  0  0  0  0  0  0  0  0
   39.2270   31.6760   38.4620 H   0  0  0  0  0  0  0  0  0  0  0  0
   37.2750   32.9830   38.2590 H   0  0  0  0  0  0  0  0  0  0  0  0
   36.9780   33.0160   40.0730 H   0  0  0  0  0  0  0  0  0  0  0  0
   36.8130   29.3940   40.0300 H   0  0  0  0  0  0  0  0  0  0  0  0
   35.6930   30.6400   40.6980 H   0  0  0  0  0  0  0  0  0  0  0  0
   37.5210   31.8450   41.7460 H   0  0  0  0  0  0  0  0  0  0  0  0
   41.3360   34.8010   39.1820 C   0  0  0  0  0  0  0  0  0  0  0  0
   40.8000   35.8490   39.9890 C   0  0  0  0  0  0  0  0  0  0  0  0
   39.5540   35.5630   40.6080 C   0  0  0  0  0  0  0  0  0  0  0  0
   38.9710   34.3600   40.4050 N   0  0  0  0  0  0  0  0  0  0  0  0
   39.5370   33.4120   39.6260 C   0  0  0  0  0  0  0  0  0  0  0  0
   40.7180   33.6360   39.0160 N   0  0  0  0  0  0  0  0  0  0  0  0
   41.2700   36.7890   40.1390 H   0  0  0  0  0  0  0  0  0  0  0  0
   39.0780   36.3030   41.2370 H   0  0  0  0  0  0  0  0  0  0  0  0
   42.5340   35.0530   38.5780 O   0  0  0  0  0  0  0  0  0  0  0  0
   42.7220   34.8380   37.5970 H   0  0  0  0  0  0  0  0  0  0  0  0
   39.9870   31.5410   41.4960 O   0  0  0  0  0  0  0  0  0  0  0  0
   40.7910   30.9480   41.4790 H   0  0  0  0  0  0  0  0  0  0  0  0
   37.9460   29.8990   42.1790 O   0  0  0  0  0  0  0  0  0  0  0  0
   39.3100   28.2260   40.5510 F   0  0  0  0  0  0  0  0  0  0  0  0
   38.3800   27.8430   41.4510 C   0  0  0  0  0  0  0  0  0  0  0  0
   37.6410   28.6210   42.3190 C   0  0  0  0  0  0  0  0  0  0  0  0
   36.7630   27.9230   43.1320 C   0  0  0  0  0  0  0  0  0  0  0  0
   36.5740   26.5620   43.1440 C   0  0  0  0  0  0  0  0  0  0  0  0
   37.3290   25.8430   42.2670 C   0  0  0  0  0  0  0  0  0  0  0  0
   38.2340   26.4460   41.4140 C   0  0  0  0  0  0  0  0  0  0  0  0
   36.2100   28.6130   43.7960 H   0  0  0  0  0  0  0  0  0  0  0  0
   35.8670   26.1410   43.8180 H   0  0  0  0  0  0  0  0  0  0  0  0
   37.1790   24.7540   42.2770 H   0  0  0  0  0  0  0  0  0  0  0  0
   38.9630   25.5300   40.5390 C   0  0  0  0  0  0  0  0  0  0  0  0
   38.2050   24.5470   39.8940 C   0  0  0  0  0  0  0  0  0  0  0  0
   37.1230   24.5040   40.0670 H   0  0  0  0  0  0  0  0  0  0  0  0
   38.7220   23.5960   39.0330 C   0  0  0  0  0  3  0  0  0  0  0  0
   40.0800   23.6300   38.8010 C   0  0  0  0  0  0  0  0  0  0  0  0
   40.6230   22.7230   37.9690 N   0  0  0  0  0  0  0  0  0  0  0  0
   41.9310   22.6790   37.6830 C   0  0  0  0  0  0  0  0  0  0  0  0
   42.3440   21.9390   37.0110 H   0  0  0  0  0  0  0  0  0  0  0  0
   42.7120   23.6440   38.3090 C   0  0  0  0  0  3  0  0  0  0  0  0
   42.2130   24.5990   39.1710 C   0  0  0  0  0  3  0  0  0  0  0  0
   40.8580   24.5890   39.4230 C   0  0  0  0  0  0  0  0  0  0  0  0
   40.3050   25.5150   40.2720 C   0  0  0  0  0  3  0  0  0  0  0  0
  1  7  1  6  0  0  0
  1  6  1  0  0  0  0
  1 24  1  0  0  0  0
  2  8  1  6  0  0  0
  2 18  1  0  0  0  0
  2  1  1  0  0  0  0
  3  2  1  0  0  0  0
  3 10  1  0  0  0  0
  4  3  1  0  0  0  0
  4  5  1  0  0  0  0
  5 12  1  0  0  0  0
  5  6  1  0  0  0  0
  6 13  1  1  0  0  0
  6 26  1  0  0  0  0
  9  3  1  0  0  0  0
 11  5  1  0  0  0  0
 14 15  1  0  0  0  0
 15 20  1  0  0  0  0
 15 16  2  0  0  0  0
 16 21  1  0  0  0  0
 17 16  1  0  0  0  0
 18 17  2  0  0  0  0
 19 14  2  0  0  0  0
 19 18  1  0  0  0  0
 22 14  1  0  0  0  0
 23 22  1  0  0  0  0
 25 24  1  0  0  0  0
 26 29  1  0  0  0  0
 27 28  1  0  0  0  0
 28 29  1  0  0  0  0
 29 30  2  0  0  0  0
 30 31  1  0  0  0  0
 30 34  1  0  0  0  0
 31 35  1  0  0  0  0
 32 36  1  0  0  0  0
 32 31  2  0  0  0  0
 33 28  2  0  0  0  0
 33 32  1  0  0  0  0
 37 33  1  0  0  0  0
 38 39  1  0  0  0  0
 38 37  2  0  0  0  0
 40 38  1  0  0  0  0
 41 40  2  0  0  0  0
 41 47  1  0  0  0  0
 42 41  1  0  0  0  0
 43 42  2  0  0  0  0
 43 45  1  0  0  0  0
 44 43  1  0  0  0  0
 45 46  2  0  0  0  0
 46 47  1  0  0  0  0
 47 48  2  0  0  0  0
 48 37  1  0  0  0  0
M  END
>  <minimizedAffinity>
-6.82960272

$$$$
