
     RDKit          3D

 34 37  0  0  0  0  0  0  0  0999 V2000
   45.6237   33.9445   45.4404 C   0  0  0  0  0  0  0  0  0  0  0  0
   44.7137   34.9701   45.6942 C   0  0  0  0  0  0  0  0  0  0  0  0
   44.5206   35.9444   44.6876 C   0  0  0  0  0  0  0  0  0  0  0  0
   45.2354   35.8351   43.5120 N   0  0  0  0  0  0  0  0  0  0  0  0
   46.1037   34.8122   43.3318 C   0  0  0  0  0  0  0  0  0  0  0  0
   46.2879   33.8970   44.2726 N   0  0  0  0  0  0  0  0  0  0  0  0
   46.8344   34.7269   42.0809 C   0  0  0  0  0  0  0  0  0  0  0  0
   48.0093   35.4049   41.8999 C   0  0  0  0  0  0  0  0  0  0  0  0
   48.7749   35.3952   40.7537 C   0  0  0  0  0  0  0  0  0  0  0  0
   48.2513   34.6103   39.7350 C   0  0  0  0  0  0  0  0  0  0  0  0
   47.0649   33.9091   39.8804 C   0  0  0  0  0  0  0  0  0  0  0  0
   46.3590   33.9715   41.0595 N   0  0  0  0  0  0  0  0  0  0  0  0
   44.1593   35.0643   46.5923 H   0  0  0  0  0  0  0  0  0  0  0  0
   43.8367   36.7497   44.8301 H   0  0  0  0  0  0  0  0  0  0  0  0
   48.3605   35.9998   42.7392 H   0  0  0  0  0  0  0  0  0  0  0  0
   49.6876   35.9569   40.6929 H   0  0  0  0  0  0  0  0  0  0  0  0
   48.7968   34.5520   38.8009 H   0  0  0  0  0  0  0  0  0  0  0  0
   46.6907   33.3075   39.0601 H   0  0  0  0  0  0  0  0  0  0  0  0
   45.8607   32.9143   46.4439 C   0  0  0  0  0  0  0  0  0  0  0  0
   46.4865   31.7209   46.2257 C   0  0  0  0  0  0  0  0  0  0  0  0
   46.8460   31.4973   45.2329 H   0  0  0  0  0  0  0  0  0  0  0  0
   46.6741   30.7905   47.2363 C   0  0  0  0  0  0  0  0  0  0  0  0
   46.2309   31.0351   48.5187 C   0  0  0  0  0  0  0  0  0  0  0  0
   46.3917   30.1597   49.5310 N   0  0  0  0  0  0  0  0  0  0  0  0
   45.9400   30.4384   50.7833 C   0  0  0  0  0  0  0  0  0  0  0  0
   46.0547   29.7559   51.6143 H   0  0  0  0  0  0  0  0  0  0  0  0
   45.2925   31.6430   51.0654 C   0  0  0  0  0  0  0  0  0  0  0  0
   45.1130   32.5589   50.0508 C   0  0  0  0  0  0  0  0  0  0  0  0
   45.5967   32.2212   48.7835 C   0  0  0  0  0  0  0  0  0  0  0  0
   45.4374   33.1079   47.7441 C   0  0  0  0  0  0  0  0  0  0  0  0
   47.1781   29.8448   47.0318 H   0  0  0  0  0  0  0  0  0  0  0  0
   44.9170   31.9102   52.0395 H   0  0  0  0  0  0  0  0  0  0  0  0
   44.6137   33.5022   50.2413 H   0  0  0  0  0  0  0  0  0  0  0  0
   44.9252   34.0552   47.9782 H   0  0  0  0  0  0  0  0  0  0  0  0
  1  2  2  0
  3  2  1  0
  4  3  2  0
  5  4  1  0
  5  6  2  0
  6  1  1  0
  7  5  1  0
  8  7  2  0
  9  8  1  0
 10 11  1  0
 10  9  2  0
 11 12  2  0
 12  7  1  0
  2 13  1  0
  3 14  1  0
  8 15  1  0
  9 16  1  0
 10 17  1  0
 11 18  1  0
 19 20  2  0
 20 21  1  0
 20 22  1  0
 22 23  2  0
 23 24  1  0
 24 25  2  0
 25 26  1  0
 25 27  1  0
 27 28  2  0
 28 29  1  0
 29 30  2  0
 30 19  1  0
 29 23  1  0
 22 31  1  0
 27 32  1  0
 28 33  1  0
 30 34  1  0
  1 19  1  0
M  ISO  8  13  14  14  14  15  14  16  14  17  14  18  14  21  16  26  16
M  END
>  <DihAtoms>  (1) 
1,0,18,19

>  <DihDeg>  (1) 
-0.0004183182546326304

$$$$
