
 OpenBabel03252501353D

 28 30  0  0  0  0  0  0  0  0999 V2000
   44.1840   35.0980   42.0950 C   0  0  0  0  0  0  0  0  0  0  0  0
   44.1920   33.8320   42.2610 O   0  0  0  0  0  0  0  0  0  0  0  0
   45.0710   35.7690   42.9980 N   0  0  0  0  0  0  0  0  0  0  0  0
   45.1860   36.7900   42.9780 H   0  0  0  0  0  0  0  0  0  0  0  0
   45.7070   34.7780   43.8620 C   0  0  0  0  0  0  0  0  0  0  0  0
   45.3120   34.5210   45.1520 C   0  0  0  0  0  0  0  0  0  0  0  0
   46.0420   33.5350   45.8120 C   0  0  0  0  0  0  0  0  0  0  0  0
   47.0490   32.9310   45.1450 N   0  0  0  0  0  0  0  0  0  0  0  0
   47.3950   33.2170   43.8860 C   0  0  0  0  0  0  0  0  0  0  0  0
   46.7110   34.1730   43.1980 N   0  0  0  0  0  0  0  0  0  0  0  0
   45.7440   33.3210   46.8290 H   0  0  0  0  0  0  0  0  0  0  0  0
   48.2180   32.6680   43.4550 H   0  0  0  0  0  0  0  0  0  0  0  0
   44.2350   35.2570   45.6800 N   0  0  0  0  0  0  0  0  0  0  0  0
   44.1080   36.2360   45.3980 H   0  0  0  0  0  0  0  0  0  0  0  0
   43.6020   34.7470   46.3530 H   0  0  0  0  0  0  0  0  0  0  0  0
   43.4280   35.8100   41.1630 O   0  0  0  0  0  0  0  0  0  0  0  0
   42.1610   35.3460   40.8200 C   0  0  0  0  0  0  0  0  0  0  0  0
   41.2790   35.0960   41.8240 C   0  0  0  0  0  0  0  0  0  0  0  0
   41.5370   35.2460   42.8700 H   0  0  0  0  0  0  0  0  0  0  0  0
   40.0130   34.6340   41.5170 C   0  0  0  0  0  0  0  0  0  0  0  0
   39.6820   34.4400   40.1700 C   0  0  0  0  0  0  0  0  0  0  0  0
   38.4530   33.9890   39.8420 N   0  0  0  0  0  0  0  0  0  0  0  0
   38.1400   33.8050   38.5300 C   0  0  0  0  0  0  0  0  0  0  0  0
   37.1440   33.4430   38.3270 H   0  0  0  0  0  0  0  0  0  0  0  0
   39.0250   34.0540   37.4890 C   0  0  0  0  0  0  0  0  0  0  0  0
   40.2910   34.5190   37.8590 C   0  0  0  0  0  0  0  0  0  0  0  0
   40.6160   34.7110   39.1930 C   0  0  0  0  0  0  0  0  0  0  0  0
   41.8840   35.1710   39.4690 C   0  0  0  0  0  0  0  0  0  0  0  0
  1  2  2  0  0  0  0
  1  3  1  0  0  0  0
  3  5  1  0  0  0  0
  4  3  1  0  0  0  0
  5  6  1  0  0  0  0
  6 13  1  0  0  0  0
  6  7  2  0  0  0  0
  7 11  1  0  0  0  0
  8  7  1  0  0  0  0
  9  8  2  0  0  0  0
 10  5  2  0  0  0  0
 10  9  1  0  0  0  0
 12  9  1  0  0  0  0
 13 15  1  0  0  0  0
 14 13  1  0  0  0  0
 16  1  1  0  0  0  0
 17 16  1  0  0  0  0
 17 18  1  0  0  0  0
 18 19  1  0  0  0  0
 20 18  2  0  0  0  0
 21 20  1  0  0  0  0
 22 21  1  0  0  0  0
 23 22  2  0  0  0  0
 24 23  1  0  0  0  0
 25 26  2  0  0  0  0
 25 23  1  0  0  0  0
 26 27  1  0  0  0  0
 27 28  1  0  0  0  0
 27 21  2  0  0  0  0
 28 17  2  0  0  0  0
M  END
>  <minimizedAffinity>
-6.5304718

>  <minimizedRMSD>
1.33670628

$$$$
