
 OpenBabel03242521093D

 43 47  0  0  1  0  0  0  0  0999 V2000
   39.7840   29.8360   41.6280 C   0  0  2  0  0  0  0  0  0  0  0  0
   40.7320   30.3690   42.6390 C   0  0  0  0  0  0  0  0  0  0  0  0
   39.6470   31.2320   41.9920 C   0  0  1  0  0  0  0  0  0  0  0  0
   40.2350   29.6520   40.6040 H   0  0  0  0  0  0  0  0  0  0  0  0
   40.5990   30.1470   43.7030 H   0  0  0  0  0  0  0  0  0  0  0  0
   41.7520   30.6340   42.2950 H   0  0  0  0  0  0  0  0  0  0  0  0
   38.9230   31.5920   42.7430 H   0  0  0  0  0  0  0  0  0  0  0  0
   37.5910   26.8750   41.6630 C   0  0  0  0  0  0  0  0  0  0  0  0
   37.0110   27.0890   42.8930 C   0  0  0  0  0  0  0  0  0  0  0  0
   37.2920   28.1480   43.7280 C   0  0  0  0  0  0  0  0  0  0  0  0
   38.2280   29.0710   43.3040 C   0  0  0  0  0  0  0  0  0  0  0  0
   38.7930   28.8400   42.0790 C   0  0  0  0  0  0  0  0  0  0  0  0
   38.4880   27.8050   41.3140 N   0  0  0  0  0  0  0  0  0  0  0  0
   36.2650   26.3640   43.2420 H   0  0  0  0  0  0  0  0  0  0  0  0
   36.7610   28.2130   44.6910 H   0  0  0  0  0  0  0  0  0  0  0  0
   38.4530   29.8900   43.9420 H   0  0  0  0  0  0  0  0  0  0  0  0
   36.3830   23.5790   40.3050 C   0  0  0  0  0  0  0  0  0  0  0  0
   36.6280   24.5790   41.2530 C   0  0  0  0  0  0  0  0  0  0  0  0
   37.2590   25.7290   40.8140 C   0  0  0  0  0  0  0  0  0  0  0  0
   37.6060   25.8380   39.5100 N   0  0  0  0  0  0  0  0  0  0  0  0
   37.3490   24.8340   38.6180 C   0  0  0  0  0  0  0  0  0  0  0  0
   36.7440   23.7250   39.0250 N   0  0  0  0  0  0  0  0  0  0  0  0
   35.8880   22.6790   40.6520 H   0  0  0  0  0  0  0  0  0  0  0  0
   36.3620   24.5250   42.3000 H   0  0  0  0  0  0  0  0  0  0  0  0
   37.6820   25.0490   37.6020 H   0  0  0  0  0  0  0  0  0  0  0  0
   40.1060   32.2470   41.1390 O   0  0  0  0  0  0  0  0  0  0  0  0
   38.8900   34.4770   40.9510 O   0  0  0  0  0  0  0  0  0  0  0  0
   38.8630   33.0630   40.3500 P   0  0  1  0  0  0  0  0  0  0  0  0
   39.1880   33.2240   38.7200 O   0  0  0  0  0  0  0  0  0  0  0  0
   38.4220   32.8580   38.2090 H   0  0  0  0  0  0  0  0  0  0  0  0
   37.3250   32.4730   40.6800 O   0  0  0  0  0  0  0  0  0  0  0  0
   36.7510   31.3460   40.1070 C   0  0  0  0  0  0  0  0  0  0  0  0
   35.9120   30.4960   40.8010 C   0  0  0  0  0  0  0  0  0  0  0  0
   35.6760   30.6870   41.8240 H   0  0  0  0  0  0  0  0  0  0  0  0
   35.3250   29.3680   40.2610 C   0  0  0  0  0  3  0  0  0  0  0  0
   35.5800   29.0520   38.9450 C   0  0  0  0  0  0  0  0  0  0  0  0
   35.0010   27.9490   38.4300 N   0  0  0  0  0  0  0  0  0  0  0  0
   35.1980   27.5610   37.1360 C   0  0  0  0  0  0  0  0  0  0  0  0
   34.6880   26.6640   36.8280 H   0  0  0  0  0  0  0  0  0  0  0  0
   36.0210   28.3590   36.3830 C   0  0  0  0  0  3  0  0  0  0  0  0
   36.6220   29.4940   36.8990 C   0  0  0  0  0  3  0  0  0  0  0  0
   36.4120   29.8730   38.2110 C   0  0  0  0  0  0  0  0  0  0  0  0
   36.9810   30.9930   38.7870 C   0  0  0  0  0  3  0  0  0  0  0  0
  1  4  1  6  0  0  0
  1  3  1  0  0  0  0
  1 12  1  0  0  0  0
  1  2  1  0  0  0  0
  2  5  1  0  0  0  0
  3  2  1  0  0  0  0
  3  7  1  1  0  0  0
  6  2  1  0  0  0  0
  8  9  1  0  0  0  0
  9 14  1  0  0  0  0
  9 10  2  0  0  0  0
 10 15  1  0  0  0  0
 11 10  1  0  0  0  0
 11 16  1  0  0  0  0
 12 11  2  0  0  0  0
 13  8  2  0  0  0  0
 13 12  1  0  0  0  0
 17 23  1  0  0  0  0
 17 18  1  0  0  0  0
 18 24  1  0  0  0  0
 19 18  2  0  0  0  0
 19  8  1  0  0  0  0
 20 19  1  0  0  0  0
 21 22  1  0  0  0  0
 21 20  2  0  0  0  0
 22 17  2  0  0  0  0
 25 21  1  0  0  0  0
 26  3  1  0  0  0  0
 28 31  1  0  0  0  0
 28 27  2  1  0  0  0
 28 26  1  0  0  0  0
 29 28  1  0  0  0  0
 30 29  1  0  0  0  0
 32 31  1  0  0  0  0
 32 33  1  0  0  0  0
 33 34  1  0  0  0  0
 35 33  2  0  0  0  0
 36 35  1  0  0  0  0
 37 36  1  0  0  0  0
 38 37  2  0  0  0  0
 39 38  1  0  0  0  0
 40 41  2  0  0  0  0
 40 38  1  0  0  0  0
 41 42  1  0  0  0  0
 42 43  1  0  0  0  0
 42 36  2  0  0  0  0
 43 32  2  0  0  0  0
M  END
>  <minimizedAffinity>
-6.75345469

$$$$

 OpenBabel03242521093D

 43 47  0  0  1  0  0  0  0  0999 V2000
   37.7990   30.7300   41.1090 C   0  0  2  0  0  0  0  0  0  0  0  0
   37.1960   30.9140   39.7640 C   0  0  0  0  0  0  0  0  0  0  0  0
   38.7060   30.9850   40.0080 C   0  0  1  0  0  0  0  0  0  0  0  0
   37.6520   31.6030   41.8180 H   0  0  0  0  0  0  0  0  0  0  0  0
   36.8420   30.0540   39.1860 H   0  0  0  0  0  0  0  0  0  0  0  0
   36.7530   31.9040   39.5320 H   0  0  0  0  0  0  0  0  0  0  0  0
   39.2350   30.1840   39.4630 H   0  0  0  0  0  0  0  0  0  0  0  0
   37.2510   27.1060   41.4850 C   0  0  0  0  0  0  0  0  0  0  0  0
   37.5440   27.0120   42.8270 C   0  0  0  0  0  0  0  0  0  0  0  0
   37.9170   28.0670   43.6310 C   0  0  0  0  0  0  0  0  0  0  0  0
   38.0070   29.3170   43.0520 C   0  0  0  0  0  0  0  0  0  0  0  0
   37.7120   29.3890   41.7170 C   0  0  0  0  0  0  0  0  0  0  0  0
   37.3580   28.3440   40.9880 N   0  0  0  0  0  0  0  0  0  0  0  0
   37.4750   26.0250   43.2990 H   0  0  0  0  0  0  0  0  0  0  0  0
   38.1250   27.8680   44.6940 H   0  0  0  0  0  0  0  0  0  0  0  0
   38.2950   30.1370   43.6640 H   0  0  0  0  0  0  0  0  0  0  0  0
   36.4770   23.6550   40.1970 C   0  0  0  0  0  0  0  0  0  0  0  0
   36.8850   24.6380   41.1060 C   0  0  0  0  0  0  0  0  0  0  0  0
   36.8620   25.9510   40.6720 C   0  0  0  0  0  0  0  0  0  0  0  0
   36.4530   26.2260   39.4110 N   0  0  0  0  0  0  0  0  0  0  0  0
   36.0640   25.2320   38.5560 C   0  0  0  0  0  0  0  0  0  0  0  0
   36.0810   23.9670   38.9580 N   0  0  0  0  0  0  0  0  0  0  0  0
   36.4960   22.6260   40.5400 H   0  0  0  0  0  0  0  0  0  0  0  0
   37.2150   24.4530   42.1190 H   0  0  0  0  0  0  0  0  0  0  0  0
   35.7610   25.5890   37.5720 H   0  0  0  0  0  0  0  0  0  0  0  0
   39.2900   32.2480   39.8340 O   0  0  0  0  0  0  0  0  0  0  0  0
   41.2750   31.1230   38.7020 O   0  0  0  0  0  0  0  0  0  0  0  0
   40.3310   32.3210   38.5120 P   0  0  1  0  0  0  0  0  0  0  0  0
   39.5070   32.0660   37.0830 O   0  0  0  0  0  0  0  0  0  0  0  0
   39.6950   32.8240   36.4730 H   0  0  0  0  0  0  0  0  0  0  0  0
   41.3300   33.6720   38.4880 O   0  0  0  0  0  0  0  0  0  0  0  0
   42.2010   34.0520   39.5000 C   0  0  0  0  0  0  0  0  0  0  0  0
   43.4850   33.5550   39.6110 C   0  0  0  0  0  0  0  0  0  0  0  0
   43.8530   32.8460   38.9050 H   0  0  0  0  0  0  0  0  0  0  0  0
   44.3760   33.9130   40.6050 C   0  0  0  0  0  3  0  0  0  0  0  0
   43.9760   34.8250   41.5570 C   0  0  0  0  0  0  0  0  0  0  0  0
   44.8540   35.1670   42.5220 N   0  0  0  0  0  0  0  0  0  0  0  0
   44.5440   36.0610   43.5040 C   0  0  0  0  0  0  0  0  0  0  0  0
   45.3200   36.2620   44.2240 H   0  0  0  0  0  0  0  0  0  0  0  0
   43.2840   36.5990   43.4580 C   0  0  0  0  0  3  0  0  0  0  0  0
   42.3720   36.2570   42.4740 C   0  0  0  0  0  3  0  0  0  0  0  0
   42.7020   35.3500   41.4860 C   0  0  0  0  0  0  0  0  0  0  0  0
   41.8400   34.9660   40.4770 C   0  0  0  0  0  3  0  0  0  0  0  0
  1 12  1  0  0  0  0
  1  4  1  1  0  0  0
  2  3  1  0  0  0  0
  2  1  1  0  0  0  0
  3  7  1  6  0  0  0
  3  1  1  0  0  0  0
  5  2  1  0  0  0  0
  6  2  1  0  0  0  0
  8  9  1  0  0  0  0
  9 14  1  0  0  0  0
  9 10  2  0  0  0  0
 10 15  1  0  0  0  0
 11 10  1  0  0  0  0
 11 16  1  0  0  0  0
 12 11  2  0  0  0  0
 13  8  2  0  0  0  0
 13 12  1  0  0  0  0
 17 23  1  0  0  0  0
 17 18  1  0  0  0  0
 18 24  1  0  0  0  0
 19 18  2  0  0  0  0
 19  8  1  0  0  0  0
 20 19  1  0  0  0  0
 21 22  1  0  0  0  0
 21 20  2  0  0  0  0
 22 17  2  0  0  0  0
 25 21  1  0  0  0  0
 26  3  1  0  0  0  0
 28 27  2  1  0  0  0
 28 26  1  0  0  0  0
 29 28  1  0  0  0  0
 30 29  1  0  0  0  0
 31 28  1  0  0  0  0
 31 32  1  0  0  0  0
 32 33  2  0  0  0  0
 32 43  1  0  0  0  0
 33 35  1  0  0  0  0
 34 33  1  0  0  0  0
 35 36  2  0  0  0  0
 36 37  1  0  0  0  0
 37 38  2  0  0  0  0
 38 39  1  0  0  0  0
 40 38  1  0  0  0  0
 41 40  2  0  0  0  0
 42 36  1  0  0  0  0
 42 41  1  0  0  0  0
 43 42  2  0  0  0  0
M  END
>  <minimizedAffinity>
-6.64615965

$$$$

 OpenBabel03242521093D

 43 47  0  0  1  0  0  0  0  0999 V2000
   40.8850   29.3190   42.7720 C   0  0  2  0  0  0  0  0  0  0  0  0
   41.3810   27.9200   42.8270 C   0  0  0  0  0  0  0  0  0  0  0  0
   39.9060   28.2640   42.6060 C   0  0  1  0  0  0  0  0  0  0  0  0
   40.8480   29.8510   43.7730 H   0  0  0  0  0  0  0  0  0  0  0  0
   41.9050   27.4770   41.9750 H   0  0  0  0  0  0  0  0  0  0  0  0
   41.5730   27.4850   43.8290 H   0  0  0  0  0  0  0  0  0  0  0  0
   39.5590   27.9110   41.6200 H   0  0  0  0  0  0  0  0  0  0  0  0
   41.1570   32.1630   40.4440 C   0  0  0  0  0  0  0  0  0  0  0  0
   42.0430   31.5930   39.5570 C   0  0  0  0  0  0  0  0  0  0  0  0
   42.5690   30.3240   39.6690 C   0  0  0  0  0  0  0  0  0  0  0  0
   42.1820   29.5610   40.7530 C   0  0  0  0  0  0  0  0  0  0  0  0
   41.3020   30.1450   41.6230 C   0  0  0  0  0  0  0  0  0  0  0  0
   40.8260   31.3700   41.4700 N   0  0  0  0  0  0  0  0  0  0  0  0
   42.3570   32.1880   38.6920 H   0  0  0  0  0  0  0  0  0  0  0  0
   43.2690   29.9770   38.8940 H   0  0  0  0  0  0  0  0  0  0  0  0
   42.5840   28.5820   40.8480 H   0  0  0  0  0  0  0  0  0  0  0  0
   40.7220   35.8520   39.8400 C   0  0  0  0  0  0  0  0  0  0  0  0
   41.3900   34.6280   39.9580 C   0  0  0  0  0  0  0  0  0  0  0  0
   40.6290   33.5190   40.2820 C   0  0  0  0  0  0  0  0  0  0  0  0
   39.2960   33.6620   40.4660 N   0  0  0  0  0  0  0  0  0  0  0  0
   38.6850   34.8780   40.3420 C   0  0  0  0  0  0  0  0  0  0  0  0
   39.4020   35.9520   40.0310 N   0  0  0  0  0  0  0  0  0  0  0  0
   41.3220   36.7200   39.5850 H   0  0  0  0  0  0  0  0  0  0  0  0
   42.4510   34.4800   39.8160 H   0  0  0  0  0  0  0  0  0  0  0  0
   37.6090   34.8540   40.5180 H   0  0  0  0  0  0  0  0  0  0  0  0
   39.0380   27.9160   43.6520 O   0  0  0  0  0  0  0  0  0  0  0  0
   36.7990   27.1870   42.6810 O   0  0  0  0  0  0  0  0  0  0  0  0
   37.4460   28.3940   43.3790 P   0  0  1  0  0  0  0  0  0  0  0  0
   36.6300   28.6170   44.8180 O   0  0  0  0  0  0  0  0  0  0  0  0
   36.2390   29.5270   44.8190 H   0  0  0  0  0  0  0  0  0  0  0  0
   37.2790   29.6700   42.2990 O   0  0  0  0  0  0  0  0  0  0  0  0
   36.9010   29.5600   40.9680 C   0  0  0  0  0  0  0  0  0  0  0  0
   37.7960   29.6700   39.9220 C   0  0  0  0  0  0  0  0  0  0  0  0
   38.8300   29.8460   40.1130 H   0  0  0  0  0  0  0  0  0  0  0  0
   37.4520   29.5650   38.5880 C   0  0  0  0  0  3  0  0  0  0  0  0
   36.1340   29.3370   38.2580 C   0  0  0  0  0  0  0  0  0  0  0  0
   35.8110   29.2360   36.9530 N   0  0  0  0  0  0  0  0  0  0  0  0
   34.5320   29.0110   36.5350 C   0  0  0  0  0  0  0  0  0  0  0  0
   34.3850   28.9490   35.4700 H   0  0  0  0  0  0  0  0  0  0  0  0
   33.5860   28.8910   37.5200 C   0  0  0  0  0  3  0  0  0  0  0  0
   33.9030   28.9910   38.8640 C   0  0  0  0  0  3  0  0  0  0  0  0
   35.2030   29.2200   39.2700 C   0  0  0  0  0  0  0  0  0  0  0  0
   35.5870   29.3300   40.5930 C   0  0  0  0  0  3  0  0  0  0  0  0
  1  2  1  0  0  0  0
  1  4  1  1  0  0  0
  2  6  1  0  0  0  0
  3  7  1  6  0  0  0
  3  1  1  0  0  0  0
  3  2  1  0  0  0  0
  3 26  1  0  0  0  0
  5  2  1  0  0  0  0
  8 13  1  0  0  0  0
  9 10  1  0  0  0  0
  9  8  2  0  0  0  0
 10 11  2  0  0  0  0
 11 16  1  0  0  0  0
 11 12  1  0  0  0  0
 12  1  1  0  0  0  0
 13 12  2  0  0  0  0
 14  9  1  0  0  0  0
 15 10  1  0  0  0  0
 17 18  2  0  0  0  0
 17 22  1  0  0  0  0
 18 19  1  0  0  0  0
 19  8  1  0  0  0  0
 19 20  2  0  0  0  0
 21 20  1  0  0  0  0
 21 25  1  0  0  0  0
 22 21  2  0  0  0  0
 23 17  1  0  0  0  0
 24 18  1  0  0  0  0
 28 27  2  6  0  0  0
 28 26  1  0  0  0  0
 28 29  1  0  0  0  0
 29 30  1  0  0  0  0
 31 28  1  0  0  0  0
 32 31  1  0  0  0  0
 33 34  1  0  0  0  0
 33 32  2  0  0  0  0
 35 33  1  0  0  0  0
 36 35  2  0  0  0  0
 36 42  1  0  0  0  0
 37 36  1  0  0  0  0
 38 37  2  0  0  0  0
 38 40  1  0  0  0  0
 39 38  1  0  0  0  0
 40 41  2  0  0  0  0
 41 42  1  0  0  0  0
 42 43  2  0  0  0  0
 43 32  1  0  0  0  0
M  END
>  <minimizedAffinity>
-6.62341213

$$$$

 OpenBabel03242521093D

 43 47  0  0  1  0  0  0  0  0999 V2000
   37.1130   27.7420   42.8670 C   0  0  2  0  0  0  0  0  0  0  0  0
   37.1190   28.1590   44.2930 C   0  0  0  0  0  0  0  0  0  0  0  0
   38.3630   27.6110   43.5890 C   0  0  1  0  0  0  0  0  0  0  0  0
   36.5770   26.7640   42.6600 H   0  0  0  0  0  0  0  0  0  0  0  0
   37.1480   29.2180   44.5670 H   0  0  0  0  0  0  0  0  0  0  0  0
   36.7000   27.4490   45.0350 H   0  0  0  0  0  0  0  0  0  0  0  0
   39.1640   28.3680   43.5510 H   0  0  0  0  0  0  0  0  0  0  0  0
   37.7280   30.7470   40.8260 C   0  0  0  0  0  0  0  0  0  0  0  0
   36.5970   30.6740   40.0430 C   0  0  0  0  0  0  0  0  0  0  0  0
   35.6330   29.6940   40.1340 C   0  0  0  0  0  0  0  0  0  0  0  0
   35.8090   28.7050   41.0820 C   0  0  0  0  0  0  0  0  0  0  0  0
   36.9390   28.7950   41.8500 C   0  0  0  0  0  0  0  0  0  0  0  0
   37.8360   29.7590   41.7210 N   0  0  0  0  0  0  0  0  0  0  0  0
   36.4450   31.4540   39.2870 H   0  0  0  0  0  0  0  0  0  0  0  0
   34.7700   29.7430   39.4520 H   0  0  0  0  0  0  0  0  0  0  0  0
   35.0710   27.9440   41.1590 H   0  0  0  0  0  0  0  0  0  0  0  0
   40.9030   32.7340   40.4570 C   0  0  0  0  0  0  0  0  0  0  0  0
   40.0900   31.6020   40.5870 C   0  0  0  0  0  0  0  0  0  0  0  0
   38.7260   31.8100   40.6860 C   0  0  0  0  0  0  0  0  0  0  0  0
   38.2440   33.0740   40.6530 N   0  0  0  0  0  0  0  0  0  0  0  0
   39.0760   34.1510   40.5250 C   0  0  0  0  0  0  0  0  0  0  0  0
   40.3880   33.9680   40.4290 N   0  0  0  0  0  0  0  0  0  0  0  0
   41.9720   32.5670   40.3790 H   0  0  0  0  0  0  0  0  0  0  0  0
   40.4420   30.5800   40.6150 H   0  0  0  0  0  0  0  0  0  0  0  0
   38.5600   35.1110   40.5140 H   0  0  0  0  0  0  0  0  0  0  0  0
   38.8100   26.3580   44.0330 O   0  0  0  0  0  0  0  0  0  0  0  0
   39.7530   24.2440   42.9700 O   0  0  0  0  0  0  0  0  0  0  0  0
   40.0750   25.7400   43.1100 P   0  0  1  0  0  0  0  0  0  0  0  0
   40.0660   26.3840   41.5690 O   0  0  0  0  0  0  0  0  0  0  0  0
   40.9570   26.7740   41.3860 H   0  0  0  0  0  0  0  0  0  0  0  0
   41.5770   25.8000   43.8600 O   0  0  0  0  0  0  0  0  0  0  0  0
   42.2280   26.9540   44.2750 C   0  0  0  0  0  0  0  0  0  0  0  0
   42.8870   27.0500   45.4860 C   0  0  0  0  0  0  0  0  0  0  0  0
   42.9140   26.2180   46.1530 H   0  0  0  0  0  0  0  0  0  0  0  0
   43.5440   28.1820   45.9280 C   0  0  0  0  0  3  0  0  0  0  0  0
   43.5550   29.2990   45.1230 C   0  0  0  0  0  0  0  0  0  0  0  0
   44.2000   30.3980   45.5660 N   0  0  0  0  0  0  0  0  0  0  0  0
   44.2620   31.5490   44.8350 C   0  0  0  0  0  0  0  0  0  0  0  0
   44.8030   32.3660   45.2830 H   0  0  0  0  0  0  0  0  0  0  0  0
   43.6300   31.5280   43.6190 C   0  0  0  0  0  3  0  0  0  0  0  0
   42.9650   30.4080   43.1520 C   0  0  0  0  0  3  0  0  0  0  0  0
   42.9110   29.2510   43.9040 C   0  0  0  0  0  0  0  0  0  0  0  0
   42.2650   28.0990   43.4970 C   0  0  0  0  0  3  0  0  0  0  0  0
  1  4  1  6  0  0  0
  1  3  1  0  0  0  0
  1  2  1  0  0  0  0
  2  5  1  0  0  0  0
  2  6  1  0  0  0  0
  3  7  1  6  0  0  0
  3 26  1  0  0  0  0
  3  2  1  0  0  0  0
  8 13  1  0  0  0  0
  9 10  1  0  0  0  0
  9  8  2  0  0  0  0
 10 11  2  0  0  0  0
 11 16  1  0  0  0  0
 11 12  1  0  0  0  0
 12  1  1  0  0  0  0
 13 12  2  0  0  0  0
 14  9  1  0  0  0  0
 15 10  1  0  0  0  0
 17 18  1  0  0  0  0
 18 24  1  0  0  0  0
 18 19  2  0  0  0  0
 19  8  1  0  0  0  0
 20 19  1  0  0  0  0
 21 20  2  0  0  0  0
 22 17  2  0  0  0  0
 22 21  1  0  0  0  0
 23 17  1  0  0  0  0
 25 21  1  0  0  0  0
 28 27  2  6  0  0  0
 28 31  1  0  0  0  0
 28 26  1  0  0  0  0
 29 28  1  0  0  0  0
 30 29  1  0  0  0  0
 31 32  1  0  0  0  0
 32 33  1  0  0  0  0
 33 35  2  0  0  0  0
 33 34  1  0  0  0  0
 36 37  1  0  0  0  0
 36 35  1  0  0  0  0
 38 39  1  0  0  0  0
 38 37  2  0  0  0  0
 40 38  1  0  0  0  0
 41 40  2  0  0  0  0
 41 42  1  0  0  0  0
 42 36  2  0  0  0  0
 43 42  1  0  0  0  0
 43 32  2  0  0  0  0
M  END
>  <minimizedAffinity>
-6.60516357

$$$$

 OpenBabel03242521093D

 43 47  0  0  1  0  0  0  0  0999 V2000
   37.0760   27.7780   42.9550 C   0  0  2  0  0  0  0  0  0  0  0  0
   36.8480   28.2150   44.3560 C   0  0  0  0  0  0  0  0  0  0  0  0
   38.2470   27.9650   43.7870 C   0  0  1  0  0  0  0  0  0  0  0  0
   36.8080   26.6970   42.7430 H   0  0  0  0  0  0  0  0  0  0  0  0
   36.6000   29.2550   44.5860 H   0  0  0  0  0  0  0  0  0  0  0  0
   36.5390   27.4410   45.0890 H   0  0  0  0  0  0  0  0  0  0  0  0
   38.8470   28.8910   43.7870 H   0  0  0  0  0  0  0  0  0  0  0  0
   37.2420   30.7390   40.7660 C   0  0  0  0  0  0  0  0  0  0  0  0
   36.1530   30.4460   39.9750 C   0  0  0  0  0  0  0  0  0  0  0  0
   35.3570   29.3290   40.1060 C   0  0  0  0  0  0  0  0  0  0  0  0
   35.6700   28.4290   41.1060 C   0  0  0  0  0  0  0  0  0  0  0  0
   36.7550   28.7380   41.8810 C   0  0  0  0  0  0  0  0  0  0  0  0
   37.4890   29.8260   41.7130 N   0  0  0  0  0  0  0  0  0  0  0  0
   35.8930   31.1520   39.1780 H   0  0  0  0  0  0  0  0  0  0  0  0
   34.5110   29.2030   39.4120 H   0  0  0  0  0  0  0  0  0  0  0  0
   35.0620   27.5640   41.2140 H   0  0  0  0  0  0  0  0  0  0  0  0
   38.4990   34.2080   40.0290 C   0  0  0  0  0  0  0  0  0  0  0  0
   37.5780   33.1610   40.1470 C   0  0  0  0  0  0  0  0  0  0  0  0
   38.0590   31.9400   40.5830 C   0  0  0  0  0  0  0  0  0  0  0  0
   39.3740   31.8110   40.8740 N   0  0  0  0  0  0  0  0  0  0  0  0
   40.2390   32.8610   40.7440 C   0  0  0  0  0  0  0  0  0  0  0  0
   39.7930   34.0400   40.3260 N   0  0  0  0  0  0  0  0  0  0  0  0
   38.1190   35.1650   39.6870 H   0  0  0  0  0  0  0  0  0  0  0  0
   36.5220   33.2310   39.9250 H   0  0  0  0  0  0  0  0  0  0  0  0
   41.2700   32.6220   41.0080 H   0  0  0  0  0  0  0  0  0  0  0  0
   38.9320   26.8650   44.3220 O   0  0  0  0  0  0  0  0  0  0  0  0
   40.7560   27.8590   42.8480 O   0  0  0  0  0  0  0  0  0  0  0  0
   40.3770   26.5320   43.5230 P   0  0  1  0  0  0  0  0  0  0  0  0
   41.5950   26.1730   44.6070 O   0  0  0  0  0  0  0  0  0  0  0  0
   41.9880   25.2980   44.3600 H   0  0  0  0  0  0  0  0  0  0  0  0
   40.2370   25.4220   42.2690 O   0  0  0  0  0  0  0  0  0  0  0  0
   39.1240   25.2550   41.4570 C   0  0  0  0  0  0  0  0  0  0  0  0
   38.1570   24.2990   41.6960 C   0  0  0  0  0  0  0  0  0  0  0  0
   38.2400   23.6440   42.5340 H   0  0  0  0  0  0  0  0  0  0  0  0
   37.0380   24.1070   40.9080 C   0  0  0  0  0  3  0  0  0  0  0  0
   36.8580   24.9120   39.8050 C   0  0  0  0  0  0  0  0  0  0  0  0
   35.7620   24.7160   39.0440 N   0  0  0  0  0  0  0  0  0  0  0  0
   35.5030   25.4660   37.9350 C   0  0  0  0  0  0  0  0  0  0  0  0
   34.6000   25.2250   37.3990 H   0  0  0  0  0  0  0  0  0  0  0  0
   36.4210   26.4390   37.6330 C   0  0  0  0  0  3  0  0  0  0  0  0
   37.5500   26.6520   38.4060 C   0  0  0  0  0  3  0  0  0  0  0  0
   37.7980   25.8830   39.5260 C   0  0  0  0  0  0  0  0  0  0  0  0
   38.9040   26.0440   40.3390 C   0  0  0  0  0  3  0  0  0  0  0  0
  1  4  1  6  0  0  0
  1  3  1  0  0  0  0
  1  2  1  0  0  0  0
  2  5  1  0  0  0  0
  2  6  1  0  0  0  0
  3  7  1  6  0  0  0
  3 26  1  0  0  0  0
  3  2  1  0  0  0  0
  8 13  1  0  0  0  0
  9 10  1  0  0  0  0
  9  8  2  0  0  0  0
 10 11  2  0  0  0  0
 11 16  1  0  0  0  0
 11 12  1  0  0  0  0
 12  1  1  0  0  0  0
 13 12  2  0  0  0  0
 14  9  1  0  0  0  0
 15 10  1  0  0  0  0
 17 18  2  0  0  0  0
 17 22  1  0  0  0  0
 18 19  1  0  0  0  0
 19  8  1  0  0  0  0
 19 20  2  0  0  0  0
 21 20  1  0  0  0  0
 21 25  1  0  0  0  0
 22 21  2  0  0  0  0
 23 17  1  0  0  0  0
 24 18  1  0  0  0  0
 28 27  2  6  0  0  0
 28 26  1  0  0  0  0
 28 29  1  0  0  0  0
 30 29  1  0  0  0  0
 31 28  1  0  0  0  0
 32 33  1  0  0  0  0
 32 31  1  0  0  0  0
 33 34  1  0  0  0  0
 35 33  2  0  0  0  0
 36 35  1  0  0  0  0
 37 36  2  0  0  0  0
 38 37  1  0  0  0  0
 39 38  1  0  0  0  0
 40 38  2  0  0  0  0
 40 41  1  0  0  0  0
 41 42  2  0  0  0  0
 42 36  1  0  0  0  0
 42 43  1  0  0  0  0
 43 32  2  0  0  0  0
M  END
>  <minimizedAffinity>
-6.52186489

$$$$

 OpenBabel03242521093D

 43 47  0  0  1  0  0  0  0  0999 V2000
   37.3020   27.6820   42.6700 C   0  0  2  0  0  0  0  0  0  0  0  0
   37.2550   27.9700   44.1260 C   0  0  0  0  0  0  0  0  0  0  0  0
   38.5640   27.6950   43.3820 C   0  0  1  0  0  0  0  0  0  0  0  0
   36.9300   26.6520   42.3770 H   0  0  0  0  0  0  0  0  0  0  0  0
   37.1140   28.9920   44.4910 H   0  0  0  0  0  0  0  0  0  0  0  0
   36.9650   27.1400   44.8030 H   0  0  0  0  0  0  0  0  0  0  0  0
   39.2310   28.5730   43.4130 H   0  0  0  0  0  0  0  0  0  0  0  0
   37.4750   30.8510   40.7970 C   0  0  0  0  0  0  0  0  0  0  0  0
   36.2870   30.7270   40.1120 C   0  0  0  0  0  0  0  0  0  0  0  0
   35.4190   29.6620   40.2190 C   0  0  0  0  0  0  0  0  0  0  0  0
   35.7630   28.6350   41.0760 C   0  0  0  0  0  0  0  0  0  0  0  0
   36.9470   28.7770   41.7470 C   0  0  0  0  0  0  0  0  0  0  0  0
   37.7470   29.8220   41.6090 N   0  0  0  0  0  0  0  0  0  0  0  0
   36.0020   31.5360   39.4290 H   0  0  0  0  0  0  0  0  0  0  0  0
   34.4950   29.6760   39.6190 H   0  0  0  0  0  0  0  0  0  0  0  0
   35.1010   27.8090   41.1640 H   0  0  0  0  0  0  0  0  0  0  0  0
   40.4390   33.1640   40.6250 C   0  0  0  0  0  0  0  0  0  0  0  0
   39.7380   31.9670   40.8090 C   0  0  0  0  0  0  0  0  0  0  0  0
   38.3650   32.0040   40.6450 C   0  0  0  0  0  0  0  0  0  0  0  0
   37.7680   33.1730   40.3190 N   0  0  0  0  0  0  0  0  0  0  0  0
   38.4920   34.3200   40.1490 C   0  0  0  0  0  0  0  0  0  0  0  0
   39.8110   34.3010   40.3030 N   0  0  0  0  0  0  0  0  0  0  0  0
   41.5150   33.1320   40.7540 H   0  0  0  0  0  0  0  0  0  0  0  0
   40.1840   31.0170   41.0690 H   0  0  0  0  0  0  0  0  0  0  0  0
   37.8890   35.1910   39.8890 H   0  0  0  0  0  0  0  0  0  0  0  0
   39.2130   26.4980   43.7170 O   0  0  0  0  0  0  0  0  0  0  0  0
   41.5030   27.3300   42.9760 O   0  0  0  0  0  0  0  0  0  0  0  0
   40.5360   26.1620   42.7300 P   0  0  1  0  0  0  0  0  0  0  0  0
   41.3180   24.7720   43.2250 O   0  0  0  0  0  0  0  0  0  0  0  0
   41.3840   24.1570   42.4520 H   0  0  0  0  0  0  0  0  0  0  0  0
   40.2030   26.2030   41.0840 O   0  0  0  0  0  0  0  0  0  0  0  0
   39.2270   25.4580   40.4370 C   0  0  0  0  0  0  0  0  0  0  0  0
   38.2750   26.0220   39.6110 C   0  0  0  0  0  0  0  0  0  0  0  0
   38.2620   27.0760   39.4430 H   0  0  0  0  0  0  0  0  0  0  0  0
   37.2910   25.3090   38.9530 C   0  0  0  0  0  3  0  0  0  0  0  0
   37.2400   23.9430   39.1190 C   0  0  0  0  0  0  0  0  0  0  0  0
   36.2760   23.2570   38.4710 N   0  0  0  0  0  0  0  0  0  0  0  0
   36.1500   21.9030   38.5770 C   0  0  0  0  0  0  0  0  0  0  0  0
   35.3450   21.4560   38.0170 H   0  0  0  0  0  0  0  0  0  0  0  0
   37.0630   21.2710   39.3810 C   0  0  0  0  0  3  0  0  0  0  0  0
   38.0580   21.9610   40.0520 C   0  0  0  0  0  3  0  0  0  0  0  0
   38.1710   23.3330   39.9340 C   0  0  0  0  0  0  0  0  0  0  0  0
   39.1400   24.0810   40.5750 C   0  0  0  0  0  3  0  0  0  0  0  0
  1  4  1  6  0  0  0
  1  3  1  0  0  0  0
  1  2  1  0  0  0  0
  2  5  1  0  0  0  0
  2  6  1  0  0  0  0
  3  7  1  6  0  0  0
  3 26  1  0  0  0  0
  3  2  1  0  0  0  0
  8 13  1  0  0  0  0
  9 10  1  0  0  0  0
  9  8  2  0  0  0  0
 10 11  2  0  0  0  0
 11 16  1  0  0  0  0
 11 12  1  0  0  0  0
 12  1  1  0  0  0  0
 13 12  2  0  0  0  0
 14  9  1  0  0  0  0
 15 10  1  0  0  0  0
 17 23  1  0  0  0  0
 17 18  1  0  0  0  0
 18 24  1  0  0  0  0
 19  8  1  0  0  0  0
 19 18  2  0  0  0  0
 20 19  1  0  0  0  0
 21 22  1  0  0  0  0
 21 20  2  0  0  0  0
 22 17  2  0  0  0  0
 25 21  1  0  0  0  0
 28 27  2  1  0  0  0
 28 29  1  0  0  0  0
 28 26  1  0  0  0  0
 30 29  1  0  0  0  0
 31 28  1  0  0  0  0
 32 43  1  0  0  0  0
 32 31  1  0  0  0  0
 33 32  2  0  0  0  0
 34 33  1  0  0  0  0
 35 36  2  0  0  0  0
 35 33  1  0  0  0  0
 36 42  1  0  0  0  0
 37 38  2  0  0  0  0
 37 36  1  0  0  0  0
 38 40  1  0  0  0  0
 39 38  1  0  0  0  0
 40 41  2  0  0  0  0
 42 41  1  0  0  0  0
 42 43  2  0  0  0  0
M  END
>  <minimizedAffinity>
-6.30939293

$$$$

 OpenBabel03242521093D

 43 47  0  0  1  0  0  0  0  0999 V2000
   37.8880   27.1130   39.0450 C   0  0  2  0  0  0  0  0  0  0  0  0
   37.2130   26.3700   37.9500 C   0  0  0  0  0  0  0  0  0  0  0  0
   37.2630   25.8520   39.3890 C   0  0  1  0  0  0  0  0  0  0  0  0
   39.0210   27.0900   39.0080 H   0  0  0  0  0  0  0  0  0  0  0  0
   36.2300   26.6810   37.5840 H   0  0  0  0  0  0  0  0  0  0  0  0
   37.8540   25.7820   37.2610 H   0  0  0  0  0  0  0  0  0  0  0  0
   36.2510   25.7770   39.8200 H   0  0  0  0  0  0  0  0  0  0  0  0
   37.5150   30.6930   39.8380 C   0  0  0  0  0  0  0  0  0  0  0  0
   36.2040   30.6540   40.2570 C   0  0  0  0  0  0  0  0  0  0  0  0
   35.4180   29.5230   40.2970 C   0  0  0  0  0  0  0  0  0  0  0  0
   35.9830   28.3320   39.8850 C   0  0  0  0  0  0  0  0  0  0  0  0
   37.2870   28.3910   39.4720 C   0  0  0  0  0  0  0  0  0  0  0  0
   37.9990   29.5060   39.4520 N   0  0  0  0  0  0  0  0  0  0  0  0
   35.7430   31.5930   40.5880 H   0  0  0  0  0  0  0  0  0  0  0  0
   34.3800   29.6170   40.6540 H   0  0  0  0  0  0  0  0  0  0  0  0
   35.3850   27.4540   39.9110 H   0  0  0  0  0  0  0  0  0  0  0  0
   38.7700   34.2220   40.2000 C   0  0  0  0  0  0  0  0  0  0  0  0
   37.8830   33.1450   40.3050 C   0  0  0  0  0  0  0  0  0  0  0  0
   38.3070   31.9240   39.8110 C   0  0  0  0  0  0  0  0  0  0  0  0
   39.5390   31.8240   39.2600 N   0  0  0  0  0  0  0  0  0  0  0  0
   40.3730   32.9040   39.1780 C   0  0  0  0  0  0  0  0  0  0  0  0
   39.9790   34.0830   39.6470 N   0  0  0  0  0  0  0  0  0  0  0  0
   38.4340   35.1780   40.5880 H   0  0  0  0  0  0  0  0  0  0  0  0
   36.8940   33.1900   40.7400 H   0  0  0  0  0  0  0  0  0  0  0  0
   41.3330   32.6870   38.7110 H   0  0  0  0  0  0  0  0  0  0  0  0
   38.0350   24.6990   39.5920 O   0  0  0  0  0  0  0  0  0  0  0  0
   36.2000   24.0620   41.2400 O   0  0  0  0  0  0  0  0  0  0  0  0
   37.7220   23.9420   41.0640 P   0  0  1  0  0  0  0  0  0  0  0  0
   38.0740   22.3120   40.9900 O   0  0  0  0  0  0  0  0  0  0  0  0
   38.6980   22.0910   41.7270 H   0  0  0  0  0  0  0  0  0  0  0  0
   38.3830   24.7190   42.4000 O   0  0  0  0  0  0  0  0  0  0  0  0
   38.5050   26.0920   42.5590 C   0  0  0  0  0  0  0  0  0  0  0  0
   37.4800   26.8870   43.0320 C   0  0  0  0  0  0  0  0  0  0  0  0
   36.5410   26.4570   43.2950 H   0  0  0  0  0  0  0  0  0  0  0  0
   37.5700   28.2560   43.2010 C   0  0  0  0  0  3  0  0  0  0  0  0
   38.7510   28.8880   42.8830 C   0  0  0  0  0  0  0  0  0  0  0  0
   38.8270   30.2230   43.0540 N   0  0  0  0  0  0  0  0  0  0  0  0
   39.9570   30.9310   42.7650 C   0  0  0  0  0  0  0  0  0  0  0  0
   39.9080   31.9930   42.9380 H   0  0  0  0  0  0  0  0  0  0  0  0
   41.0200   30.2070   42.2890 C   0  0  0  0  0  3  0  0  0  0  0  0
   40.9570   28.8350   42.1100 C   0  0  0  0  0  3  0  0  0  0  0  0
   39.8050   28.1340   42.4070 C   0  0  0  0  0  0  0  0  0  0  0  0
   39.6760   26.7670   42.2510 C   0  0  0  0  0  3  0  0  0  0  0  0
  1  4  1  6  0  0  0
  1  3  1  0  0  0  0
  1 12  1  0  0  0  0
  2  1  1  0  0  0  0
  2  3  1  0  0  0  0
  3 26  1  0  0  0  0
  3  7  1  1  0  0  0
  5  2  1  0  0  0  0
  6  2  1  0  0  0  0
  8  9  1  0  0  0  0
  9 10  2  0  0  0  0
  9 14  1  0  0  0  0
 10 15  1  0  0  0  0
 11 16  1  0  0  0  0
 11 10  1  0  0  0  0
 12 11  2  0  0  0  0
 13 12  1  0  0  0  0
 13  8  2  0  0  0  0
 17 18  1  0  0  0  0
 17 23  1  0  0  0  0
 18 24  1  0  0  0  0
 19  8  1  0  0  0  0
 19 18  2  0  0  0  0
 20 19  1  0  0  0  0
 21 20  2  0  0  0  0
 21 22  1  0  0  0  0
 22 17  2  0  0  0  0
 25 21  1  0  0  0  0
 26 28  1  0  0  0  0
 28 27  2  1  0  0  0
 28 31  1  0  0  0  0
 29 28  1  0  0  0  0
 29 30  1  0  0  0  0
 31 32  1  0  0  0  0
 32 33  1  0  0  0  0
 33 35  2  0  0  0  0
 33 34  1  0  0  0  0
 36 37  1  0  0  0  0
 36 35  1  0  0  0  0
 38 39  1  0  0  0  0
 38 37  2  0  0  0  0
 40 38  1  0  0  0  0
 41 40  2  0  0  0  0
 41 42  1  0  0  0  0
 42 36  2  0  0  0  0
 43 42  1  0  0  0  0
 43 32  2  0  0  0  0
M  END
>  <minimizedAffinity>
-6.29015064

$$$$

 OpenBabel03242521093D

 43 47  0  0  1  0  0  0  0  0999 V2000
   41.5790   29.9170   40.0580 C   0  0  2  0  0  0  0  0  0  0  0  0
   42.8400   30.4230   40.6590 C   0  0  0  0  0  0  0  0  0  0  0  0
   41.8890   31.3190   39.8620 C   0  0  1  0  0  0  0  0  0  0  0  0
   41.7170   29.2650   39.1410 H   0  0  0  0  0  0  0  0  0  0  0  0
   42.9070   30.6260   41.7320 H   0  0  0  0  0  0  0  0  0  0  0  0
   43.7850   30.2130   40.1170 H   0  0  0  0  0  0  0  0  0  0  0  0
   41.4760   32.1230   40.4950 H   0  0  0  0  0  0  0  0  0  0  0  0
   39.0480   27.8410   41.7510 C   0  0  0  0  0  0  0  0  0  0  0  0
   38.5680   28.8010   42.6140 C   0  0  0  0  0  0  0  0  0  0  0  0
   39.0220   30.1000   42.6850 C   0  0  0  0  0  0  0  0  0  0  0  0
   40.0390   30.4750   41.8290 C   0  0  0  0  0  0  0  0  0  0  0  0
   40.5020   29.5060   40.9790 C   0  0  0  0  0  0  0  0  0  0  0  0
   40.0310   28.2700   40.9500 N   0  0  0  0  0  0  0  0  0  0  0  0
   37.7600   28.5170   43.2990 H   0  0  0  0  0  0  0  0  0  0  0  0
   38.5580   30.7780   43.4180 H   0  0  0  0  0  0  0  0  0  0  0  0
   40.3960   31.4740   41.8770 H   0  0  0  0  0  0  0  0  0  0  0  0
   36.9680   24.7250   42.1040 C   0  0  0  0  0  0  0  0  0  0  0  0
   37.3070   26.0780   42.2220 C   0  0  0  0  0  0  0  0  0  0  0  0
   38.5320   26.4710   41.7160 C   0  0  0  0  0  0  0  0  0  0  0  0
   39.3380   25.5500   41.1390 N   0  0  0  0  0  0  0  0  0  0  0  0
   38.9670   24.2370   41.0460 C   0  0  0  0  0  0  0  0  0  0  0  0
   37.7930   23.8440   41.5270 N   0  0  0  0  0  0  0  0  0  0  0  0
   36.0070   24.4190   42.5020 H   0  0  0  0  0  0  0  0  0  0  0  0
   36.6870   26.8380   42.6760 H   0  0  0  0  0  0  0  0  0  0  0  0
   39.7070   23.6010   40.5600 H   0  0  0  0  0  0  0  0  0  0  0  0
   42.3790   31.7830   38.6330 O   0  0  0  0  0  0  0  0  0  0  0  0
   41.0040   33.8910   39.0250 O   0  0  0  0  0  0  0  0  0  0  0  0
   41.3670   32.9110   37.8980 P   0  0  1  0  0  0  0  0  0  0  0  0
   42.1860   33.7880   36.7370 O   0  0  0  0  0  0  0  0  0  0  0  0
   41.6870   33.7220   35.8840 H   0  0  0  0  0  0  0  0  0  0  0  0
   39.9000   32.2860   37.3670 O   0  0  0  0  0  0  0  0  0  0  0  0
   38.8890   31.7920   38.1800 C   0  0  0  0  0  0  0  0  0  0  0  0
   38.2620   32.5550   39.1460 C   0  0  0  0  0  0  0  0  0  0  0  0
   38.5450   33.5720   39.2980 H   0  0  0  0  0  0  0  0  0  0  0  0
   37.2540   32.0930   39.9700 C   0  0  0  0  0  3  0  0  0  0  0  0
   36.8310   30.7890   39.8350 C   0  0  0  0  0  0  0  0  0  0  0  0
   35.8460   30.3510   40.6450 N   0  0  0  0  0  0  0  0  0  0  0  0
   35.3660   29.0760   40.5820 C   0  0  0  0  0  0  0  0  0  0  0  0
   34.5780   28.8310   41.2750 H   0  0  0  0  0  0  0  0  0  0  0  0
   35.9410   28.2580   39.6430 C   0  0  0  0  0  3  0  0  0  0  0  0
   36.9530   28.6940   38.8050 C   0  0  0  0  0  3  0  0  0  0  0  0
   37.4280   29.9890   38.8830 C   0  0  0  0  0  0  0  0  0  0  0  0
   38.4340   30.4870   38.0770 C   0  0  0  0  0  3  0  0  0  0  0  0
  1  4  1  6  0  0  0
  1  2  1  0  0  0  0
  1 12  1  0  0  0  0
  2  5  1  0  0  0  0
  3  1  1  0  0  0  0
  3  7  1  1  0  0  0
  3  2  1  0  0  0  0
  6  2  1  0  0  0  0
  8  9  1  0  0  0  0
  9 10  2  0  0  0  0
  9 14  1  0  0  0  0
 10 15  1  0  0  0  0
 11 16  1  0  0  0  0
 11 10  1  0  0  0  0
 12 11  2  0  0  0  0
 13 12  1  0  0  0  0
 13  8  2  0  0  0  0
 17 18  1  0  0  0  0
 17 23  1  0  0  0  0
 18 24  1  0  0  0  0
 19  8  1  0  0  0  0
 19 18  2  0  0  0  0
 20 19  1  0  0  0  0
 21 20  2  0  0  0  0
 21 22  1  0  0  0  0
 22 17  2  0  0  0  0
 25 21  1  0  0  0  0
 26  3  1  0  0  0  0
 28 26  1  0  0  0  0
 28 27  2  1  0  0  0
 29 28  1  0  0  0  0
 30 29  1  0  0  0  0
 31 28  1  0  0  0  0
 31 32  1  0  0  0  0
 32 33  1  0  0  0  0
 33 34  1  0  0  0  0
 33 35  2  0  0  0  0
 36 35  1  0  0  0  0
 36 37  1  0  0  0  0
 38 37  2  0  0  0  0
 38 39  1  0  0  0  0
 40 38  1  0  0  0  0
 41 42  1  0  0  0  0
 41 40  2  0  0  0  0
 42 36  2  0  0  0  0
 43 32  2  0  0  0  0
 43 42  1  0  0  0  0
M  END
>  <minimizedAffinity>
-6.22881746

$$$$

 OpenBabel03242521093D

 43 47  0  0  1  0  0  0  0  0999 V2000
   37.1650   30.3310   41.1720 C   0  0  2  0  0  0  0  0  0  0  0  0
   35.7750   30.3960   40.6520 C   0  0  0  0  0  0  0  0  0  0  0  0
   36.9960   30.3020   39.7330 C   0  0  1  0  0  0  0  0  0  0  0  0
   37.5640   31.3090   41.5860 H   0  0  0  0  0  0  0  0  0  0  0  0
   35.1250   29.5170   40.6790 H   0  0  0  0  0  0  0  0  0  0  0  0
   35.2890   31.3930   40.6160 H   0  0  0  0  0  0  0  0  0  0  0  0
   36.9800   29.3680   39.1450 H   0  0  0  0  0  0  0  0  0  0  0  0
   39.2350   27.8670   42.9660 C   0  0  0  0  0  0  0  0  0  0  0  0
   38.2510   26.9320   43.1990 C   0  0  0  0  0  0  0  0  0  0  0  0
   36.9350   27.0540   42.8080 C   0  0  0  0  0  0  0  0  0  0  0  0
   36.5690   28.2000   42.1300 C   0  0  0  0  0  0  0  0  0  0  0  0
   37.5610   29.1160   41.9080 C   0  0  0  0  0  0  0  0  0  0  0  0
   38.8120   28.9510   42.3050 N   0  0  0  0  0  0  0  0  0  0  0  0
   38.5290   26.0170   43.7360 H   0  0  0  0  0  0  0  0  0  0  0  0
   36.2380   26.2370   43.0520 H   0  0  0  0  0  0  0  0  0  0  0  0
   35.5560   28.3030   41.8250 H   0  0  0  0  0  0  0  0  0  0  0  0
   42.4270   26.6440   44.5410 C   0  0  0  0  0  0  0  0  0  0  0  0
   41.0660   26.6630   44.2170 C   0  0  0  0  0  0  0  0  0  0  0  0
   40.6210   27.6910   43.4060 C   0  0  0  0  0  0  0  0  0  0  0  0
   41.5040   28.6180   42.9670 N   0  0  0  0  0  0  0  0  0  0  0  0
   42.8260   28.5610   43.3090 C   0  0  0  0  0  0  0  0  0  0  0  0
   43.2680   27.5800   44.0870 N   0  0  0  0  0  0  0  0  0  0  0  0
   42.7730   25.8370   45.1770 H   0  0  0  0  0  0  0  0  0  0  0  0
   40.3350   25.9380   44.5500 H   0  0  0  0  0  0  0  0  0  0  0  0
   43.4270   29.3680   42.8900 H   0  0  0  0  0  0  0  0  0  0  0  0
   37.2590   31.4390   38.9540 O   0  0  0  0  0  0  0  0  0  0  0  0
   37.9300   29.7630   37.1570 O   0  0  0  0  0  0  0  0  0  0  0  0
   38.3370   31.1440   37.6940 P   0  0  1  0  0  0  0  0  0  0  0  0
   38.1170   32.2330   36.4480 O   0  0  0  0  0  0  0  0  0  0  0  0
   38.9860   32.6660   36.2520 H   0  0  0  0  0  0  0  0  0  0  0  0
   39.9380   30.9770   38.1740 O   0  0  0  0  0  0  0  0  0  0  0  0
   40.6520   31.8880   38.9410 C   0  0  0  0  0  0  0  0  0  0  0  0
   40.6460   33.2460   38.6910 C   0  0  0  0  0  0  0  0  0  0  0  0
   40.0780   33.6440   37.8800 H   0  0  0  0  0  0  0  0  0  0  0  0
   41.3450   34.1790   39.4340 C   0  0  0  0  0  3  0  0  0  0  0  0
   42.1040   33.7450   40.4980 C   0  0  0  0  0  0  0  0  0  0  0  0
   42.7810   34.6640   41.2160 N   0  0  0  0  0  0  0  0  0  0  0  0
   43.5570   34.3250   42.2860 C   0  0  0  0  0  0  0  0  0  0  0  0
   44.0540   35.1380   42.7870 H   0  0  0  0  0  0  0  0  0  0  0  0
   43.6110   32.9900   42.5950 C   0  0  0  0  0  3  0  0  0  0  0  0
   42.9210   32.0360   41.8680 C   0  0  0  0  0  3  0  0  0  0  0  0
   42.1400   32.3960   40.7870 C   0  0  0  0  0  0  0  0  0  0  0  0
   41.4270   31.4950   40.0200 C   0  0  0  0  0  3  0  0  0  0  0  0
  1  4  1  1  0  0  0
  1 12  1  0  0  0  0
  2  5  1  0  0  0  0
  2  1  1  0  0  0  0
  3  7  1  6  0  0  0
  3  2  1  0  0  0  0
  3  1  1  0  0  0  0
  6  2  1  0  0  0  0
  8  9  1  0  0  0  0
  8 19  1  0  0  0  0
  9 14  1  0  0  0  0
 10 15  1  0  0  0  0
 10  9  2  0  0  0  0
 11 10  1  0  0  0  0
 12 11  2  0  0  0  0
 12 13  1  0  0  0  0
 13  8  2  0  0  0  0
 16 11  1  0  0  0  0
 17 23  1  0  0  0  0
 18 17  1  0  0  0  0
 18 24  1  0  0  0  0
 19 18  2  0  0  0  0
 20 21  2  0  0  0  0
 20 19  1  0  0  0  0
 21 22  1  0  0  0  0
 22 17  2  0  0  0  0
 25 21  1  0  0  0  0
 26  3  1  0  0  0  0
 28 27  2  6  0  0  0
 28 31  1  0  0  0  0
 28 26  1  0  0  0  0
 29 28  1  0  0  0  0
 30 29  1  0  0  0  0
 31 32  1  0  0  0  0
 32 43  1  0  0  0  0
 33 32  2  0  0  0  0
 33 35  1  0  0  0  0
 34 33  1  0  0  0  0
 35 36  2  0  0  0  0
 36 42  1  0  0  0  0
 36 37  1  0  0  0  0
 37 38  2  0  0  0  0
 38 40  1  0  0  0  0
 38 39  1  0  0  0  0
 41 40  2  0  0  0  0
 42 41  1  0  0  0  0
 43 42  2  0  0  0  0
M  END
>  <minimizedAffinity>
-6.21867037

$$$$
