REMARK  Name = 
REMARK  4 active torsions:
REMARK  status: ('A' for Active; 'I' for Inactive)
REMARK    1  A    between atoms: C_1  and  C_10
REMARK    2  A    between atoms: C_8  and  C_21
REMARK    3  A    between atoms: C_11  and  C_15
REMARK    4  A    between atoms: C_21  and  C_39
REMARK                            x       y       z     vdW  Elec       q    Type
REMARK                         _______ _______ _______ _____ _____    ______ ____
ROOT
ATOM      1  C   UNL     1      47.329  33.612  42.834  0.00  0.00    +0.000 C 
ATOM      2  O   UNL     1      48.423  33.423  43.442  0.00  0.00    +0.000 OA
ATOM      3  N   UNL     1      47.001  33.090  41.530  0.00  0.00    +0.000 N 
ATOM      4  C   UNL     1      45.796  32.470  41.029  0.00  0.00    +0.000 C 
ATOM      5  C   UNL     1      45.385  33.186  39.734  0.00  0.00    +0.000 C 
ATOM      6  C   UNL     1      46.432  33.009  38.682  0.00  0.00    +0.000 C 
ATOM      7  C   UNL     1      47.705  32.498  39.307  0.00  0.00    +0.000 C 
ATOM      8  C   UNL     1      48.078  33.243  40.573  0.00  0.00    +0.000 C 
ATOM      9  H   UNL     1      45.877  31.399  40.829  0.00  0.00    +0.000 HD
ATOM     10  H   UNL     1      44.936  32.657  41.731  0.00  0.00    +0.000 HD
ATOM     11  H   UNL     1      44.467  32.699  39.398  0.00  0.00    +0.000 HD
ATOM     12  H   UNL     1      45.236  34.260  39.996  0.00  0.00    +0.000 HD
ATOM     13  H   UNL     1      46.117  32.255  37.927  0.00  0.00    +0.000 HD
ATOM     14  H   UNL     1      46.638  34.006  38.218  0.00  0.00    +0.000 HD
ATOM     15  H   UNL     1      48.557  32.678  38.595  0.00  0.00    +0.000 HD
ATOM     16  H   UNL     1      47.657  31.410  39.477  0.00  0.00    +0.000 HD
ATOM     17  H   UNL     1      48.141  34.312  40.311  0.00  0.00    +0.000 HD
ENDROOT
BRANCH   1  19
ATOM     18  C   UNL     1      45.958  35.653  42.925  0.00  0.00    +0.000 A 
ATOM     19  C   UNL     1      46.334  34.422  43.517  0.00  0.00    +0.000 A 
ATOM     20  C   UNL     1      45.752  34.036  44.703  0.00  0.00    +0.000 A 
ATOM     21  N   UNL     1      44.837  34.857  45.259  0.00  0.00    +0.000 NA
ATOM     22  C   UNL     1      44.467  36.044  44.700  0.00  0.00    +0.000 A 
ATOM     23  N   UNL     1      45.037  36.412  43.546  0.00  0.00    +0.000 NA
ATOM     24  H   UNL     1      46.420  35.943  41.998  0.00  0.00    +0.000 HD
ATOM     25  H   UNL     1      43.733  36.654  45.189  0.00  0.00    +0.000 HD
BRANCH  20  26
ATOM     26  C   UNL     1      46.153  32.775  45.288  0.00  0.00    +0.000 A 
ATOM     27  C   UNL     1      45.771  31.605  44.711  0.00  0.00    +0.000 A 
ATOM     28  C   UNL     1      46.169  30.419  45.291  0.00  0.00    +0.000 A 
ATOM     29  C   UNL     1      46.944  30.364  46.442  0.00  0.00    +0.000 A 
ATOM     30  C   UNL     1      47.303  31.592  46.987  0.00  0.00    +0.000 A 
ATOM     31  N   UNL     1      46.901  32.722  46.399  0.00  0.00    +0.000 NA
ATOM     32  H   UNL     1      45.176  31.516  43.826  0.00  0.00    +0.000 HD
ATOM     33  H   UNL     1      45.910  29.430  44.898  0.00  0.00    +0.000 HD
ATOM     34  H   UNL     1      47.271  29.464  46.921  0.00  0.00    +0.000 HD
ATOM     35  H   UNL     1      47.905  31.599  47.882  0.00  0.00    +0.000 HD
ENDBRANCH  20  26
ENDBRANCH   1  19
BRANCH   8  36
ATOM     36  C   UNL     1      49.408  32.769  41.007  0.00  0.00    +0.000 C 
ATOM     37  H   UNL     1      49.940  33.445  41.720  0.00  0.00    +0.000 HD
ATOM     38  H   UNL     1      50.025  32.983  40.093  0.00  0.00    +0.000 HD
BRANCH  36  39
ATOM     39  C   UNL     1      49.588  31.353  41.294  0.00  0.00    +0.000 A 
ATOM     40  C   UNL     1      50.613  30.446  41.196  0.00  0.00    +0.000 A 
ATOM     41  H   UNL     1      51.528  30.803  40.810  0.00  0.00    +0.000 HD
ATOM     42  C   UNL     1      50.590  29.119  41.534  0.00  0.00    +0.000 A 
ATOM     43  C   UNL     1      49.456  28.559  42.032  0.00  0.00    +0.000 A 
ATOM     44  N   UNL     1      49.426  27.269  42.363  0.00  0.00    +0.000 NA
ATOM     45  C   UNL     1      48.343  26.645  42.860  0.00  0.00    +0.000 A 
ATOM     46  H   UNL     1      48.286  25.600  43.138  0.00  0.00    +0.000 HD
ATOM     47  C   UNL     1      47.237  27.456  43.007  0.00  0.00    +0.000 A 
ATOM     48  C   UNL     1      47.200  28.798  42.684  0.00  0.00    +0.000 A 
ATOM     49  C   UNL     1      48.360  29.342  42.183  0.00  0.00    +0.000 A 
ATOM     50  C   UNL     1      48.457  30.680  41.819  0.00  0.00    +0.000 A 
ENDBRANCH  36  39
ENDBRANCH   8  36
TORSDOF 4
