
 OpenBabel03252501363D

 28 30  0  0  0  0  0  0  0  0999 V2000
   37.8160   30.9930   41.0310 C   0  0  0  0  0  0  0  0  0  0  0  0
   39.0690   30.8970   41.2580 O   0  0  0  0  0  0  0  0  0  0  0  0
   37.5230   31.9440   40.0010 N   0  0  0  0  0  0  0  0  0  0  0  0
   36.5580   32.1230   39.6940 H   0  0  0  0  0  0  0  0  0  0  0  0
   38.7730   32.5370   39.5340 C   0  0  0  0  0  0  0  0  0  0  0  0
   39.3900   33.6010   40.1440 C   0  0  0  0  0  0  0  0  0  0  0  0
   40.5790   34.0200   39.5500 C   0  0  0  0  0  0  0  0  0  0  0  0
   41.0120   33.3620   38.4530 N   0  0  0  0  0  0  0  0  0  0  0  0
   40.3740   32.3280   37.8960 C   0  0  0  0  0  0  0  0  0  0  0  0
   39.2080   31.8810   38.4400 N   0  0  0  0  0  0  0  0  0  0  0  0
   41.0770   34.8580   40.0180 H   0  0  0  0  0  0  0  0  0  0  0  0
   40.8160   31.8790   37.0210 H   0  0  0  0  0  0  0  0  0  0  0  0
   38.7840   34.1610   41.2840 N   0  0  0  0  0  0  0  0  0  0  0  0
   37.7600   34.1870   41.3480 H   0  0  0  0  0  0  0  0  0  0  0  0
   39.4340   34.5310   42.0280 H   0  0  0  0  0  0  0  0  0  0  0  0
   36.7980   30.2860   41.6720 O   0  0  0  0  0  0  0  0  0  0  0  0
   36.9080   28.9040   41.8020 C   0  0  0  0  0  0  0  0  0  0  0  0
   37.2270   28.4010   43.0240 C   0  0  0  0  0  0  0  0  0  0  0  0
   37.3960   29.0420   43.8860 H   0  0  0  0  0  0  0  0  0  0  0  0
   37.3440   27.0330   43.1860 C   0  0  0  0  0  3  0  0  0  0  0  0
   37.1270   26.2090   42.0750 C   0  0  0  0  0  0  0  0  0  0  0  0
   37.2360   24.8690   42.2050 N   0  0  0  0  0  0  0  0  0  0  0  0
   37.0220   24.0760   41.1200 C   0  0  0  0  0  0  0  0  0  0  0  0
   37.1220   23.0140   41.2830 H   0  0  0  0  0  0  0  0  0  0  0  0
   36.6960   24.5680   39.8630 C   0  0  0  0  0  3  0  0  0  0  0  0
   36.5910   25.9590   39.7580 C   0  0  0  0  0  3  0  0  0  0  0  0
   36.8060   26.7730   40.8590 C   0  0  0  0  0  0  0  0  0  0  0  0
   36.6820   28.1320   40.6680 C   0  0  0  0  0  3  0  0  0  0  0  0
  1  2  2  0  0  0  0
  1 16  1  0  0  0  0
  3  1  1  0  0  0  0
  4  3  1  0  0  0  0
  5  3  1  0  0  0  0
  5  6  1  0  0  0  0
  6 13  1  0  0  0  0
  7 11  1  0  0  0  0
  7  6  2  0  0  0  0
  8  7  1  0  0  0  0
  9 10  1  0  0  0  0
  9  8  2  0  0  0  0
 10  5  2  0  0  0  0
 12  9  1  0  0  0  0
 13 14  1  0  0  0  0
 13 15  1  0  0  0  0
 16 17  1  0  0  0  0
 17 18  1  0  0  0  0
 18 20  2  0  0  0  0
 18 19  1  0  0  0  0
 21 22  1  0  0  0  0
 21 20  1  0  0  0  0
 23 24  1  0  0  0  0
 23 22  2  0  0  0  0
 25 23  1  0  0  0  0
 26 25  2  0  0  0  0
 26 27  1  0  0  0  0
 27 21  2  0  0  0  0
 28 27  1  0  0  0  0
 28 17  2  0  0  0  0
M  END
>  <minimizedAffinity>
-5.89151001

$$$$

 OpenBabel03252501363D

 28 30  0  0  0  0  0  0  0  0999 V2000
   39.3930   30.8110   42.1220 C   0  0  0  0  0  0  0  0  0  0  0  0
   38.9340   30.7840   40.9310 O   0  0  0  0  0  0  0  0  0  0  0  0
   40.4470   31.7690   42.2760 N   0  0  0  0  0  0  0  0  0  0  0  0
   40.9090   31.9180   43.1820 H   0  0  0  0  0  0  0  0  0  0  0  0
   40.6890   32.4180   40.9900 C   0  0  0  0  0  0  0  0  0  0  0  0
   39.9980   33.5180   40.5450 C   0  0  0  0  0  0  0  0  0  0  0  0
   40.3800   33.9930   39.2920 C   0  0  0  0  0  0  0  0  0  0  0  0
   41.3710   33.3500   38.6390 N   0  0  0  0  0  0  0  0  0  0  0  0
   42.0150   32.2800   39.1170 C   0  0  0  0  0  0  0  0  0  0  0  0
   41.6790   31.7780   40.3370 N   0  0  0  0  0  0  0  0  0  0  0  0
   39.8450   34.8590   38.9270 H   0  0  0  0  0  0  0  0  0  0  0  0
   42.7920   31.8490   38.5050 H   0  0  0  0  0  0  0  0  0  0  0  0
   38.9920   34.0540   41.3710 N   0  0  0  0  0  0  0  0  0  0  0  0
   38.4300   33.4220   41.9520 H   0  0  0  0  0  0  0  0  0  0  0  0
   38.8700   35.1010   41.3430 H   0  0  0  0  0  0  0  0  0  0  0  0
   38.9660   30.0280   43.1960 O   0  0  0  0  0  0  0  0  0  0  0  0
   38.4600   28.7550   42.9490 C   0  0  0  0  0  0  0  0  0  0  0  0
   37.1150   28.5770   43.0250 C   0  0  0  0  0  0  0  0  0  0  0  0
   36.4370   29.3920   43.2690 H   0  0  0  0  0  0  0  0  0  0  0  0
   36.5810   27.3240   42.7860 C   0  0  0  0  0  3  0  0  0  0  0  0
   37.4540   26.2760   42.4720 C   0  0  0  0  0  0  0  0  0  0  0  0
   36.9600   25.0420   42.2350 N   0  0  0  0  0  0  0  0  0  0  0  0
   37.8160   24.0300   41.9290 C   0  0  0  0  0  0  0  0  0  0  0  0
   37.3650   23.0660   41.7490 H   0  0  0  0  0  0  0  0  0  0  0  0
   39.1930   24.1890   41.8470 C   0  0  0  0  0  3  0  0  0  0  0  0
   39.6770   25.4770   42.0990 C   0  0  0  0  0  3  0  0  0  0  0  0
   38.8110   26.5140   42.4090 C   0  0  0  0  0  0  0  0  0  0  0  0
   39.3710   27.7500   42.6420 C   0  0  0  0  0  3  0  0  0  0  0  0
  1  3  1  0  0  0  0
  1 16  1  0  0  0  0
  2  1  2  0  0  0  0
  3  4  1  0  0  0  0
  5  3  1  0  0  0  0
  6  5  1  0  0  0  0
  6 13  1  0  0  0  0
  7  6  2  0  0  0  0
  8  9  2  0  0  0  0
  8  7  1  0  0  0  0
  9 10  1  0  0  0  0
 10  5  2  0  0  0  0
 11  7  1  0  0  0  0
 12  9  1  0  0  0  0
 13 14  1  0  0  0  0
 15 13  1  0  0  0  0
 17 18  1  0  0  0  0
 17 16  1  0  0  0  0
 18 19  1  0  0  0  0
 20 18  2  0  0  0  0
 21 20  1  0  0  0  0
 22 21  2  0  0  0  0
 23 22  1  0  0  0  0
 24 23  1  0  0  0  0
 25 23  2  0  0  0  0
 25 26  1  0  0  0  0
 26 27  2  0  0  0  0
 27 21  1  0  0  0  0
 27 28  1  0  0  0  0
 28 17  2  0  0  0  0
M  END
>  <minimizedAffinity>
-5.76837683

$$$$

 OpenBabel03252501363D

 28 30  0  0  0  0  0  0  0  0999 V2000
   36.8010   30.5260   39.7000 C   0  0  0  0  0  0  0  0  0  0  0  0
   37.8600   30.5660   38.9870 O   0  0  0  0  0  0  0  0  0  0  0  0
   36.7770   31.5580   40.6930 N   0  0  0  0  0  0  0  0  0  0  0  0
   35.9820   31.6650   41.3360 H   0  0  0  0  0  0  0  0  0  0  0  0
   38.0060   32.3400   40.5930 C   0  0  0  0  0  0  0  0  0  0  0  0
   38.0830   33.5710   39.9900 C   0  0  0  0  0  0  0  0  0  0  0  0
   39.3460   34.1610   40.0010 C   0  0  0  0  0  0  0  0  0  0  0  0
   40.3590   33.4910   40.5890 N   0  0  0  0  0  0  0  0  0  0  0  0
   40.2330   32.2910   41.1660 C   0  0  0  0  0  0  0  0  0  0  0  0
   39.0190   31.6730   41.1810 N   0  0  0  0  0  0  0  0  0  0  0  0
   39.4230   35.1310   39.5290 H   0  0  0  0  0  0  0  0  0  0  0  0
   41.1140   31.8510   41.6050 H   0  0  0  0  0  0  0  0  0  0  0  0
   36.9130   34.1140   39.4270 N   0  0  0  0  0  0  0  0  0  0  0  0
   36.2250   33.4870   38.9960 H   0  0  0  0  0  0  0  0  0  0  0  0
   36.8070   35.1620   39.4830 H   0  0  0  0  0  0  0  0  0  0  0  0
   35.7520   29.6130   39.5810 O   0  0  0  0  0  0  0  0  0  0  0  0
   36.0270   28.2500   39.6510 C   0  0  0  0  0  0  0  0  0  0  0  0
   35.8040   27.4960   38.5420 C   0  0  0  0  0  0  0  0  0  0  0  0
   35.4220   27.9260   37.6180 H   0  0  0  0  0  0  0  0  0  0  0  0
   36.0660   26.1390   38.5780 C   0  0  0  0  0  3  0  0  0  0  0  0
   36.5560   25.5860   39.7680 C   0  0  0  0  0  0  0  0  0  0  0  0
   36.8200   24.2640   39.8310 N   0  0  0  0  0  0  0  0  0  0  0  0
   37.2970   23.7360   40.9910 C   0  0  0  0  0  0  0  0  0  0  0  0
   37.4900   22.6740   40.9840 H   0  0  0  0  0  0  0  0  0  0  0  0
   37.5320   24.4870   42.1350 C   0  0  0  0  0  3  0  0  0  0  0  0
   37.2490   25.8530   42.0410 C   0  0  0  0  0  3  0  0  0  0  0  0
   36.7640   26.3980   40.8620 C   0  0  0  0  0  0  0  0  0  0  0  0
   36.5120   27.7520   40.8550 C   0  0  0  0  0  3  0  0  0  0  0  0
  1  3  1  0  0  0  0
  2  1  2  0  0  0  0
  3  4  1  0  0  0  0
  5  3  1  0  0  0  0
  5 10  1  0  0  0  0
  6  7  1  0  0  0  0
  6  5  2  0  0  0  0
  7  8  2  0  0  0  0
  8  9  1  0  0  0  0
  9 10  2  0  0  0  0
  9 12  1  0  0  0  0
 11  7  1  0  0  0  0
 13 15  1  0  0  0  0
 13  6  1  0  0  0  0
 14 13  1  0  0  0  0
 16 17  1  0  0  0  0
 16  1  1  0  0  0  0
 17 28  1  0  0  0  0
 18 20  1  0  0  0  0
 18 17  2  0  0  0  0
 19 18  1  0  0  0  0
 20 21  2  0  0  0  0
 21 22  1  0  0  0  0
 21 27  1  0  0  0  0
 22 23  2  0  0  0  0
 23 25  1  0  0  0  0
 24 23  1  0  0  0  0
 26 25  2  0  0  0  0
 27 26  1  0  0  0  0
 28 27  2  0  0  0  0
M  END
>  <minimizedAffinity>
-5.62668371

$$$$

 OpenBabel03252501363D

 28 30  0  0  0  0  0  0  0  0999 V2000
   38.1390   28.5240   42.0800 C   0  0  0  0  0  0  0  0  0  0  0  0
   38.4720   28.5740   40.8480 O   0  0  0  0  0  0  0  0  0  0  0  0
   37.8210   29.8170   42.6090 N   0  0  0  0  0  0  0  0  0  0  0  0
   37.5210   29.9380   43.5850 H   0  0  0  0  0  0  0  0  0  0  0  0
   38.0010   30.8150   41.5590 C   0  0  0  0  0  0  0  0  0  0  0  0
   36.9680   31.3630   40.8380 C   0  0  0  0  0  0  0  0  0  0  0  0
   37.3430   32.3040   39.8820 C   0  0  0  0  0  0  0  0  0  0  0  0
   38.6560   32.5910   39.7480 N   0  0  0  0  0  0  0  0  0  0  0  0
   39.6260   32.0300   40.4770 C   0  0  0  0  0  0  0  0  0  0  0  0
   39.3100   31.1040   41.4240 N   0  0  0  0  0  0  0  0  0  0  0  0
   36.5420   32.7440   39.3050 H   0  0  0  0  0  0  0  0  0  0  0  0
   40.6410   32.3380   40.2820 H   0  0  0  0  0  0  0  0  0  0  0  0
   35.6570   30.9360   41.1200 N   0  0  0  0  0  0  0  0  0  0  0  0
   35.4940   29.9610   41.3980 H   0  0  0  0  0  0  0  0  0  0  0  0
   34.8970   31.6620   41.0280 H   0  0  0  0  0  0  0  0  0  0  0  0
   38.0700   27.3810   42.8770 O   0  0  0  0  0  0  0  0  0  0  0  0
   38.1220   26.1270   42.2740 C   0  0  0  0  0  0  0  0  0  0  0  0
   39.1970   25.3370   42.5330 C   0  0  0  0  0  0  0  0  0  0  0  0
   40.0030   25.6560   43.1900 H   0  0  0  0  0  0  0  0  0  0  0  0
   39.2770   24.0870   41.9490 C   0  0  0  0  0  3  0  0  0  0  0  0
   38.2390   23.6770   41.1030 C   0  0  0  0  0  0  0  0  0  0  0  0
   38.2930   22.4610   40.5190 N   0  0  0  0  0  0  0  0  0  0  0  0
   37.2790   22.0710   39.7000 C   0  0  0  0  0  0  0  0  0  0  0  0
   37.3760   21.0900   39.2620 H   0  0  0  0  0  0  0  0  0  0  0  0
   36.1730   22.8620   39.4210 C   0  0  0  0  0  3  0  0  0  0  0  0
   36.1440   24.1160   40.0390 C   0  0  0  0  0  3  0  0  0  0  0  0
   37.1730   24.5200   40.8760 C   0  0  0  0  0  0  0  0  0  0  0  0
   37.0650   25.7700   41.4430 C   0  0  0  0  0  3  0  0  0  0  0  0
  1  3  1  0  0  0  0
  1 16  1  0  0  0  0
  2  1  2  0  0  0  0
  3  4  1  0  0  0  0
  5  3  1  0  0  0  0
  6 13  1  0  0  0  0
  6  5  2  0  0  0  0
  7  6  1  0  0  0  0
  8  7  2  0  0  0  0
  8  9  1  0  0  0  0
  9 10  2  0  0  0  0
 10  5  1  0  0  0  0
 11  7  1  0  0  0  0
 12  9  1  0  0  0  0
 13 14  1  0  0  0  0
 15 13  1  0  0  0  0
 17 18  1  0  0  0  0
 17 16  1  0  0  0  0
 18 19  1  0  0  0  0
 20 18  2  0  0  0  0
 21 20  1  0  0  0  0
 22 21  2  0  0  0  0
 23 22  1  0  0  0  0
 24 23  1  0  0  0  0
 25 23  2  0  0  0  0
 25 26  1  0  0  0  0
 26 27  2  0  0  0  0
 27 21  1  0  0  0  0
 27 28  1  0  0  0  0
 28 17  2  0  0  0  0
M  END
>  <minimizedAffinity>
-5.57798529

$$$$

 OpenBabel03252501363D

 28 30  0  0  0  0  0  0  0  0999 V2000
   37.9010   27.0570   42.2050 C   0  0  0  0  0  0  0  0  0  0  0  0
   38.7580   26.8120   41.2910 O   0  0  0  0  0  0  0  0  0  0  0  0
   36.9790   25.9760   42.3880 N   0  0  0  0  0  0  0  0  0  0  0  0
   36.2370   26.0180   43.0980 H   0  0  0  0  0  0  0  0  0  0  0  0
   37.3000   24.9140   41.4380 C   0  0  0  0  0  0  0  0  0  0  0  0
   38.2480   23.9460   41.6630 C   0  0  0  0  0  0  0  0  0  0  0  0
   38.4040   23.0170   40.6360 C   0  0  0  0  0  0  0  0  0  0  0  0
   37.6300   23.1430   39.5370 N   0  0  0  0  0  0  0  0  0  0  0  0
   36.7180   24.1050   39.3650 C   0  0  0  0  0  0  0  0  0  0  0  0
   36.5280   25.0380   40.3400 N   0  0  0  0  0  0  0  0  0  0  0  0
   39.1470   22.2480   40.7980 H   0  0  0  0  0  0  0  0  0  0  0  0
   36.1580   24.1060   38.4440 H   0  0  0  0  0  0  0  0  0  0  0  0
   38.9590   23.9770   42.8770 N   0  0  0  0  0  0  0  0  0  0  0  0
   39.1860   24.8830   43.3030 H   0  0  0  0  0  0  0  0  0  0  0  0
   39.2250   23.0440   43.2890 H   0  0  0  0  0  0  0  0  0  0  0  0
   37.8140   28.2190   42.9730 O   0  0  0  0  0  0  0  0  0  0  0  0
   38.2040   29.4330   42.4160 C   0  0  0  0  0  0  0  0  0  0  0  0
   39.4090   29.9460   42.7810 C   0  0  0  0  0  0  0  0  0  0  0  0
   40.0630   29.4370   43.4870 H   0  0  0  0  0  0  0  0  0  0  0  0
   39.8260   31.1500   42.2460 C   0  0  0  0  0  3  0  0  0  0  0  0
   38.9830   31.8040   41.3390 C   0  0  0  0  0  0  0  0  0  0  0  0
   39.3650   32.9820   40.8010 N   0  0  0  0  0  0  0  0  0  0  0  0
   38.5390   33.6090   39.9200 C   0  0  0  0  0  0  0  0  0  0  0  0
   38.8970   34.5470   39.5220 H   0  0  0  0  0  0  0  0  0  0  0  0
   37.3050   33.1050   39.5330 C   0  0  0  0  0  3  0  0  0  0  0  0
   36.9350   31.8840   40.1060 C   0  0  0  0  0  3  0  0  0  0  0  0
   37.7710   31.2380   41.0040 C   0  0  0  0  0  0  0  0  0  0  0  0
   37.3300   30.0400   41.5210 C   0  0  0  0  0  3  0  0  0  0  0  0
  1  3  1  0  0  0  0
  1 16  1  0  0  0  0
  2  1  2  0  0  0  0
  3  4  1  0  0  0  0
  5  6  1  0  0  0  0
  5  3  1  0  0  0  0
  6 13  1  0  0  0  0
  7 11  1  0  0  0  0
  7  6  2  0  0  0  0
  8  7  1  0  0  0  0
  9  8  2  0  0  0  0
  9 10  1  0  0  0  0
 10  5  2  0  0  0  0
 12  9  1  0  0  0  0
 13 15  1  0  0  0  0
 13 14  1  0  0  0  0
 17 18  1  0  0  0  0
 17 16  1  0  0  0  0
 18 19  1  0  0  0  0
 20 18  2  0  0  0  0
 21 20  1  0  0  0  0
 22 21  2  0  0  0  0
 23 22  1  0  0  0  0
 24 23  1  0  0  0  0
 25 23  2  0  0  0  0
 25 26  1  0  0  0  0
 26 27  2  0  0  0  0
 27 21  1  0  0  0  0
 27 28  1  0  0  0  0
 28 17  2  0  0  0  0
M  END
>  <minimizedAffinity>
-5.456954

$$$$

 OpenBabel03252501363D

 28 30  0  0  0  0  0  0  0  0999 V2000
   37.9580   31.4680   39.5480 C   0  0  0  0  0  0  0  0  0  0  0  0
   37.9940   32.7390   39.6680 O   0  0  0  0  0  0  0  0  0  0  0  0
   39.2550   30.9090   39.3100 N   0  0  0  0  0  0  0  0  0  0  0  0
   39.3910   29.8950   39.2050 H   0  0  0  0  0  0  0  0  0  0  0  0
   40.2350   31.9900   39.2560 C   0  0  0  0  0  0  0  0  0  0  0  0
   40.5600   32.6710   38.1090 C   0  0  0  0  0  0  0  0  0  0  0  0
   41.5170   33.6730   38.2630 C   0  0  0  0  0  0  0  0  0  0  0  0
   42.0280   33.8840   39.4950 N   0  0  0  0  0  0  0  0  0  0  0  0
   41.6770   33.1930   40.5840 C   0  0  0  0  0  0  0  0  0  0  0  0
   40.7460   32.2030   40.4840 N   0  0  0  0  0  0  0  0  0  0  0  0
   41.7840   34.2190   37.3690 H   0  0  0  0  0  0  0  0  0  0  0  0
   42.1530   33.4500   41.5160 H   0  0  0  0  0  0  0  0  0  0  0  0
   39.9180   32.3080   36.9100 N   0  0  0  0  0  0  0  0  0  0  0  0
   39.6750   31.3240   36.7500 H   0  0  0  0  0  0  0  0  0  0  0  0
   39.7190   33.0870   36.2290 H   0  0  0  0  0  0  0  0  0  0  0  0
   36.8250   30.6580   39.6290 O   0  0  0  0  0  0  0  0  0  0  0  0
   36.8790   29.4870   40.3800 C   0  0  0  0  0  0  0  0  0  0  0  0
   37.0100   29.6000   41.7290 C   0  0  0  0  0  0  0  0  0  0  0  0
   37.0730   30.5660   42.2240 H   0  0  0  0  0  0  0  0  0  0  0  0
   37.0670   28.4560   42.5030 C   0  0  0  0  0  3  0  0  0  0  0  0
   36.9860   27.2130   41.8640 C   0  0  0  0  0  0  0  0  0  0  0  0
   37.0400   26.0800   42.5970 N   0  0  0  0  0  0  0  0  0  0  0  0
   36.9600   24.8770   41.9670 C   0  0  0  0  0  0  0  0  0  0  0  0
   37.0080   24.0060   42.6030 H   0  0  0  0  0  0  0  0  0  0  0  0
   36.8260   24.7380   40.5930 C   0  0  0  0  0  3  0  0  0  0  0  0
   36.7740   25.9280   39.8590 C   0  0  0  0  0  3  0  0  0  0  0  0
   36.8540   27.1580   40.4940 C   0  0  0  0  0  0  0  0  0  0  0  0
   36.7940   28.2790   39.6960 C   0  0  0  0  0  3  0  0  0  0  0  0
  1 16  1  0  0  0  0
  1  2  2  0  0  0  0
  3  1  1  0  0  0  0
  4  3  1  0  0  0  0
  5  3  1  0  0  0  0
  5 10  1  0  0  0  0
  6  7  1  0  0  0  0
  6  5  2  0  0  0  0
  7  8  2  0  0  0  0
  8  9  1  0  0  0  0
  9 12  1  0  0  0  0
 10  9  2  0  0  0  0
 11  7  1  0  0  0  0
 13  6  1  0  0  0  0
 14 13  1  0  0  0  0
 15 13  1  0  0  0  0
 16 17  1  0  0  0  0
 17 18  1  0  0  0  0
 18 19  1  0  0  0  0
 18 20  2  0  0  0  0
 21 20  1  0  0  0  0
 21 22  1  0  0  0  0
 23 22  2  0  0  0  0
 23 24  1  0  0  0  0
 25 23  1  0  0  0  0
 26 27  1  0  0  0  0
 26 25  2  0  0  0  0
 27 21  2  0  0  0  0
 28 17  2  0  0  0  0
 28 27  1  0  0  0  0
M  END
>  <minimizedAffinity>
-5.4303627

$$$$

 OpenBabel03252501363D

 28 30  0  0  0  0  0  0  0  0999 V2000
   38.6920   32.9490   39.9210 C   0  0  0  0  0  0  0  0  0  0  0  0
   39.0940   34.1600   39.9540 O   0  0  0  0  0  0  0  0  0  0  0  0
   39.7310   32.0430   39.5300 N   0  0  0  0  0  0  0  0  0  0  0  0
   39.5650   31.0300   39.4700 H   0  0  0  0  0  0  0  0  0  0  0  0
   40.9480   32.8040   39.2630 C   0  0  0  0  0  0  0  0  0  0  0  0
   41.8490   33.1710   40.2330 C   0  0  0  0  0  0  0  0  0  0  0  0
   42.9520   33.8910   39.7780 C   0  0  0  0  0  0  0  0  0  0  0  0
   43.0390   34.1610   38.4580 N   0  0  0  0  0  0  0  0  0  0  0  0
   42.1330   33.7800   37.5510 C   0  0  0  0  0  0  0  0  0  0  0  0
   41.0380   33.0740   37.9460 N   0  0  0  0  0  0  0  0  0  0  0  0
   43.6710   34.1880   40.5290 H   0  0  0  0  0  0  0  0  0  0  0  0
   42.3090   34.0530   36.5220 H   0  0  0  0  0  0  0  0  0  0  0  0
   41.5870   32.7980   41.5640 N   0  0  0  0  0  0  0  0  0  0  0  0
   40.6160   32.7660   41.8950 H   0  0  0  0  0  0  0  0  0  0  0  0
   42.4250   32.5650   42.1610 H   0  0  0  0  0  0  0  0  0  0  0  0
   37.4080   32.4900   40.2190 O   0  0  0  0  0  0  0  0  0  0  0  0
   37.2270   31.1540   40.5660 C   0  0  0  0  0  0  0  0  0  0  0  0
   36.5830   30.3470   39.6810 C   0  0  0  0  0  0  0  0  0  0  0  0
   36.2130   30.7150   38.7270 H   0  0  0  0  0  0  0  0  0  0  0  0
   36.3870   29.0150   39.9960 C   0  0  0  0  0  3  0  0  0  0  0  0
   36.8620   28.5430   41.2250 C   0  0  0  0  0  0  0  0  0  0  0  0
   36.6830   27.2470   41.5570 N   0  0  0  0  0  0  0  0  0  0  0  0
   37.1500   26.7970   42.7540 C   0  0  0  0  0  0  0  0  0  0  0  0
   36.9790   25.7520   42.9650 H   0  0  0  0  0  0  0  0  0  0  0  0
   37.8100   27.6030   43.6710 C   0  0  0  0  0  3  0  0  0  0  0  0
   37.9800   28.9410   43.3010 C   0  0  0  0  0  3  0  0  0  0  0  0
   37.5090   29.4060   42.0830 C   0  0  0  0  0  0  0  0  0  0  0  0
   37.7190   30.7370   41.7980 C   0  0  0  0  0  3  0  0  0  0  0  0
  1  2  2  0  0  0  0
  1 16  1  0  0  0  0
  3  1  1  0  0  0  0
  4  3  1  0  0  0  0
  5  3  1  0  0  0  0
  5  6  1  0  0  0  0
  6 13  1  0  0  0  0
  7  6  2  0  0  0  0
  7 11  1  0  0  0  0
  8  7  1  0  0  0  0
  9 10  1  0  0  0  0
  9  8  2  0  0  0  0
 10  5  2  0  0  0  0
 12  9  1  0  0  0  0
 13 14  1  0  0  0  0
 13 15  1  0  0  0  0
 16 17  1  0  0  0  0
 17 28  1  0  0  0  0
 18 20  1  0  0  0  0
 18 17  2  0  0  0  0
 19 18  1  0  0  0  0
 20 21  2  0  0  0  0
 21 22  1  0  0  0  0
 21 27  1  0  0  0  0
 22 23  2  0  0  0  0
 23 24  1  0  0  0  0
 23 25  1  0  0  0  0
 26 25  2  0  0  0  0
 27 26  1  0  0  0  0
 28 27  2  0  0  0  0
M  END
>  <minimizedAffinity>
-5.36227989

$$$$

 OpenBabel03252501363D

 28 30  0  0  0  0  0  0  0  0999 V2000
   37.1110   30.3870   40.9630 C   0  0  0  0  0  0  0  0  0  0  0  0
   38.1990   30.6160   41.5930 O   0  0  0  0  0  0  0  0  0  0  0  0
   36.9880   31.1930   39.7850 N   0  0  0  0  0  0  0  0  0  0  0  0
   36.1720   31.1130   39.1640 H   0  0  0  0  0  0  0  0  0  0  0  0
   38.1580   32.0590   39.6780 C   0  0  0  0  0  0  0  0  0  0  0  0
   39.3300   31.6900   39.0640 C   0  0  0  0  0  0  0  0  0  0  0  0
   40.3310   32.6600   39.0610 C   0  0  0  0  0  0  0  0  0  0  0  0
   40.0710   33.8490   39.6460 N   0  0  0  0  0  0  0  0  0  0  0  0
   38.9100   34.1610   40.2320 C   0  0  0  0  0  0  0  0  0  0  0  0
   37.9010   33.2460   40.2610 N   0  0  0  0  0  0  0  0  0  0  0  0
   41.2600   32.3850   38.5820 H   0  0  0  0  0  0  0  0  0  0  0  0
   38.8170   35.1430   40.6670 H   0  0  0  0  0  0  0  0  0  0  0  0
   39.4150   30.4000   38.5070 N   0  0  0  0  0  0  0  0  0  0  0  0
   38.9280   29.6220   38.9660 H   0  0  0  0  0  0  0  0  0  0  0  0
   39.9900   30.3050   37.6280 H   0  0  0  0  0  0  0  0  0  0  0  0
   36.1180   29.4760   41.3230 O   0  0  0  0  0  0  0  0  0  0  0  0
   36.4460   28.1290   41.4510 C   0  0  0  0  0  0  0  0  0  0  0  0
   36.6810   27.6450   42.7000 C   0  0  0  0  0  0  0  0  0  0  0  0
   36.6200   28.2750   43.5840 H   0  0  0  0  0  0  0  0  0  0  0  0
   37.0090   26.3120   42.8610 C   0  0  0  0  0  3  0  0  0  0  0  0
   37.0880   25.5020   41.7210 C   0  0  0  0  0  0  0  0  0  0  0  0
   37.4070   24.1960   41.8500 N   0  0  0  0  0  0  0  0  0  0  0  0
   37.4810   23.4170   40.7370 C   0  0  0  0  0  0  0  0  0  0  0  0
   37.7390   22.3820   40.9010 H   0  0  0  0  0  0  0  0  0  0  0  0
   37.2450   23.8900   39.4530 C   0  0  0  0  0  3  0  0  0  0  0  0
   36.9180   25.2450   39.3500 C   0  0  0  0  0  3  0  0  0  0  0  0
   36.8400   26.0460   40.4790 C   0  0  0  0  0  0  0  0  0  0  0  0
   36.5110   27.3690   40.2880 C   0  0  0  0  0  3  0  0  0  0  0  0
  1 16  1  0  0  0  0
  1  2  2  0  0  0  0
  3  1  1  0  0  0  0
  4  3  1  0  0  0  0
  5  3  1  0  0  0  0
  5 10  1  0  0  0  0
  6  5  2  0  0  0  0
  7  6  1  0  0  0  0
  7  8  2  0  0  0  0
  8  9  1  0  0  0  0
  9 10  2  0  0  0  0
  9 12  1  0  0  0  0
 11  7  1  0  0  0  0
 13 14  1  0  0  0  0
 13  6  1  0  0  0  0
 15 13  1  0  0  0  0
 16 17  1  0  0  0  0
 17 18  1  0  0  0  0
 18 20  2  0  0  0  0
 18 19  1  0  0  0  0
 21 22  1  0  0  0  0
 21 20  1  0  0  0  0
 23 24  1  0  0  0  0
 23 22  2  0  0  0  0
 25 23  1  0  0  0  0
 26 25  2  0  0  0  0
 26 27  1  0  0  0  0
 27 21  2  0  0  0  0
 28 27  1  0  0  0  0
 28 17  2  0  0  0  0
M  END
>  <minimizedAffinity>
-5.25816107

$$$$

 OpenBabel03252501363D

 28 30  0  0  0  0  0  0  0  0999 V2000
   38.9670   30.4110   42.4760 C   0  0  0  0  0  0  0  0  0  0  0  0
   40.0440   31.0650   42.6820 O   0  0  0  0  0  0  0  0  0  0  0  0
   38.3300   30.7890   41.2500 N   0  0  0  0  0  0  0  0  0  0  0  0
   37.4590   30.3400   40.9370 H   0  0  0  0  0  0  0  0  0  0  0  0
   39.1150   31.8420   40.6120 C   0  0  0  0  0  0  0  0  0  0  0  0
   40.1770   31.6050   39.7750 C   0  0  0  0  0  0  0  0  0  0  0  0
   40.7960   32.7440   39.2620 C   0  0  0  0  0  0  0  0  0  0  0  0
   40.3110   33.9520   39.6230 N   0  0  0  0  0  0  0  0  0  0  0  0
   39.2710   34.1300   40.4430 C   0  0  0  0  0  0  0  0  0  0  0  0
   38.6330   33.0480   40.9700 N   0  0  0  0  0  0  0  0  0  0  0  0
   41.6340   32.5750   38.6010 H   0  0  0  0  0  0  0  0  0  0  0  0
   38.9720   35.1440   40.6600 H   0  0  0  0  0  0  0  0  0  0  0  0
   40.5380   30.2700   39.5150 N   0  0  0  0  0  0  0  0  0  0  0  0
   40.4340   29.5680   40.2570 H   0  0  0  0  0  0  0  0  0  0  0  0
   40.9050   30.0620   38.5480 H   0  0  0  0  0  0  0  0  0  0  0  0
   38.4180   29.4310   43.3030 O   0  0  0  0  0  0  0  0  0  0  0  0
   38.6110   28.0890   42.9880 C   0  0  0  0  0  0  0  0  0  0  0  0
   39.7900   27.5120   43.3440 C   0  0  0  0  0  0  0  0  0  0  0  0
   40.5700   28.0660   43.8600 H   0  0  0  0  0  0  0  0  0  0  0  0
   40.0120   26.1810   43.0450 C   0  0  0  0  0  3  0  0  0  0  0  0
   39.0070   25.4690   42.3800 C   0  0  0  0  0  0  0  0  0  0  0  0
   39.1990   24.1680   42.0750 N   0  0  0  0  0  0  0  0  0  0  0  0
   38.2150   23.4850   41.4290 C   0  0  0  0  0  0  0  0  0  0  0  0
   38.4240   22.4480   41.2120 H   0  0  0  0  0  0  0  0  0  0  0  0
   37.0050   24.0530   41.0560 C   0  0  0  0  0  3  0  0  0  0  0  0
   36.8340   25.4020   41.3830 C   0  0  0  0  0  3  0  0  0  0  0  0
   37.8310   26.1050   42.0420 C   0  0  0  0  0  0  0  0  0  0  0  0
   37.5810   27.4280   42.3270 C   0  0  0  0  0  3  0  0  0  0  0  0
  1  2  2  0  0  0  0
  1 16  1  0  0  0  0
  3  1  1  0  0  0  0
  4  3  1  0  0  0  0
  5 10  1  0  0  0  0
  5  3  1  0  0  0  0
  6  5  2  0  0  0  0
  7  8  2  0  0  0  0
  7  6  1  0  0  0  0
  8  9  1  0  0  0  0
  9 12  1  0  0  0  0
  9 10  2  0  0  0  0
 11  7  1  0  0  0  0
 13  6  1  0  0  0  0
 13 14  1  0  0  0  0
 15 13  1  0  0  0  0
 17 16  1  0  0  0  0
 17 18  1  0  0  0  0
 18 19  1  0  0  0  0
 20 18  2  0  0  0  0
 21 20  1  0  0  0  0
 22 21  1  0  0  0  0
 23 22  2  0  0  0  0
 24 23  1  0  0  0  0
 25 26  2  0  0  0  0
 25 23  1  0  0  0  0
 26 27  1  0  0  0  0
 27 28  1  0  0  0  0
 27 21  2  0  0  0  0
 28 17  2  0  0  0  0
M  END
>  <minimizedAffinity>
-5.21401405

$$$$
