
 OpenBabel03252500423D

 31 34  0  0  1  0  0  0  0  0999 V2000
   47.7680   35.3370   42.0160 C   0  0  1  0  0  0  0  0  0  0  0  0
   49.2500   35.0910   42.1380 C   0  0  0  0  0  0  0  0  0  0  0  0
   48.6190   35.2240   40.8000 C   0  0  1  0  0  0  0  0  0  0  0  0
   47.3320   36.3600   42.0700 H   0  0  0  0  0  0  0  0  0  0  0  0
   49.8400   35.9610   42.5440 H   0  0  0  0  0  0  0  0  0  0  0  0
   49.5870   34.1390   42.5470 H   0  0  0  0  0  0  0  0  0  0  0  0
   48.8860   36.1870   40.2550 H   0  0  0  0  0  0  0  0  0  0  0  0
   48.4440   34.1200   39.8640 C   0  0  0  0  0  0  0  0  0  0  0  0
   49.0760   32.9220   40.1940 C   0  0  0  0  0  0  0  0  0  0  0  0
   49.6870   32.7890   41.0940 H   0  0  0  0  0  0  0  0  0  0  0  0
   48.9820   31.7770   39.3930 C   0  0  0  0  0  0  0  0  0  0  0  0
   48.2450   31.7980   38.2280 C   0  0  0  0  0  0  0  0  0  0  0  0
   48.1100   30.7450   37.4130 N   0  0  0  0  0  0  0  0  0  0  0  0
   47.3820   30.7980   36.2810 C   0  0  0  0  0  0  0  0  0  0  0  0
   47.2860   29.9300   35.6330 H   0  0  0  0  0  0  0  0  0  0  0  0
   46.7210   31.9570   35.8840 C   0  0  0  0  0  0  0  0  0  0  0  0
   46.8540   33.0490   36.7180 C   0  0  0  0  0  0  0  0  0  0  0  0
   47.6070   32.9610   37.8700 C   0  0  0  0  0  0  0  0  0  0  0  0
   47.7320   34.0570   38.6930 C   0  0  0  0  0  0  0  0  0  0  0  0
   46.9080   34.2040   42.4290 C   0  0  0  0  0  0  0  0  0  0  0  0
   46.2720   33.8500   41.5840 H   0  0  0  0  0  0  0  0  0  0  0  0
   47.5110   33.3080   42.7680 H   0  0  0  0  0  0  0  0  0  0  0  0
   46.0910   34.5240   43.6230 C   0  0  0  0  0  0  0  0  0  0  0  0
   45.2770   35.6320   43.5470 C   0  0  0  0  0  0  0  0  0  0  0  0
   44.4880   35.9660   44.6700 C   0  0  0  0  0  0  0  0  0  0  0  0
   44.5870   35.1640   45.7580 N   0  0  0  0  0  0  0  0  0  0  0  0
   45.4090   34.0820   45.7750 C   0  0  0  0  0  0  0  0  0  0  0  0
   46.1600   33.7600   44.7140 N   0  0  0  0  0  0  0  0  0  0  0  0
   45.0770   36.3710   42.7930 H   0  0  0  0  0  0  0  0  0  0  0  0
   43.8130   36.7760   44.7830 H   0  0  0  0  0  0  0  0  0  0  0  0
   45.4980   33.4300   46.6420 H   0  0  0  0  0  0  0  0  0  0  0  0
  1  4  1  1  0  0  0
  1  2  1  0  0  0  0
  1 20  1  0  0  0  0
  2  5  1  0  0  0  0
  2  6  1  0  0  0  0
  3  7  1  6  0  0  0
  3  1  1  0  0  0  0
  3  2  1  0  0  0  0
  8  9  1  0  0  0  0
  8  3  1  0  0  0  0
  9 10  1  0  0  0  0
 11  9  2  0  0  0  0
 12 11  1  0  0  0  0
 13 12  2  0  0  0  0
 14 13  1  0  0  0  0
 15 14  1  0  0  0  0
 16 14  2  0  0  0  0
 16 17  1  0  0  0  0
 17 18  2  0  0  0  0
 18 12  1  0  0  0  0
 18 19  1  0  0  0  0
 19  8  2  0  0  0  0
 20 22  1  0  0  0  0
 20 23  1  0  0  0  0
 21 20  1  0  0  0  0
 23 28  1  0  0  0  0
 24 23  2  0  0  0  0
 24 25  1  0  0  0  0
 25 30  1  0  0  0  0
 25 26  2  0  0  0  0
 26 27  1  0  0  0  0
 27 31  1  0  0  0  0
 28 27  2  0  0  0  0
 29 24  1  0  0  0  0
M  END
>  <minimizedAffinity>
-5.48199415

>  <minimizedRMSD>
2.41686511

$$$$
