
 OpenBabel03242514373D

 36 39  0  0  0  0  0  0  0  0999 V2000
   47.3100   33.0830   37.7290 C   0  0  0  0  0  0  0  0  0  0  0  0
   48.5120   33.6210   37.1870 C   0  0  0  0  0  0  0  0  0  0  0  0
   48.7860   33.2170   35.9090 C   0  0  0  0  0  0  0  0  0  0  0  0
   47.9820   32.3790   35.2270 C   0  0  0  0  0  0  0  0  0  0  0  0
   46.6210   32.0640   36.4870 S   0  0  0  0  0  0  0  0  0  0  0  0
   49.0910   34.2740   37.7870 H   0  0  0  0  0  0  0  0  0  0  0  0
   49.6690   33.5540   35.3810 H   0  0  0  0  0  0  0  0  0  0  0  0
   47.9750   31.7940   33.9570 C   0  0  0  0  0  0  0  0  0  0  0  0
   47.3790   30.5700   33.7390 C   0  0  0  0  0  0  0  0  0  0  0  0
   46.8990   30.0180   34.5270 H   0  0  0  0  0  0  0  0  0  0  0  0
   47.4270   30.0740   32.4320 C   0  0  0  0  0  0  0  0  0  0  0  0
   48.0450   30.7830   31.4110 C   0  0  0  0  0  0  0  0  0  0  0  0
   48.0860   30.2900   30.1410 N   0  0  0  0  0  0  0  0  0  0  0  0
   48.7020   31.0150   29.1660 C   0  0  0  0  0  0  0  0  0  0  0  0
   48.7090   30.5820   28.1700 H   0  0  0  0  0  0  0  0  0  0  0  0
   49.3060   32.2410   29.3590 C   0  0  0  0  0  0  0  0  0  0  0  0
   49.2620   32.7450   30.6640 C   0  0  0  0  0  0  0  0  0  0  0  0
   48.6420   32.0240   31.6630 C   0  0  0  0  0  0  0  0  0  0  0  0
   48.5840   32.5050   32.9780 C   0  0  0  0  0  0  0  0  0  0  0  0
   46.7550   33.3310   39.0710 C   0  0  0  0  0  0  0  0  0  0  0  0
   45.8300   32.4380   39.2370 O   0  0  0  0  0  0  0  0  0  0  0  0
   46.8740   34.1340   40.1410 O   0  0  0  0  0  0  0  0  0  0  0  0
   48.6360   35.6430   41.2580 O   0  0  0  0  0  0  0  0  0  0  0  0
   48.1700   34.2210   41.1980 P   0  0  2  0  0  0  0  0  0  0  0  0
   49.4210   33.2910   40.6020 O   0  0  0  0  0  0  0  0  0  0  0  0
   49.1330   32.3610   40.4290 H   0  0  0  0  0  0  0  0  0  0  0  0
   47.6780   33.6850   42.7640 O   0  0  0  0  0  0  0  0  0  0  0  0
   46.0650   35.4290   42.8610 C   0  0  0  0  0  0  0  0  0  0  0  0
   46.6330   34.3130   43.4340 C   0  0  0  0  0  0  0  0  0  0  0  0
   46.1330   33.8670   44.6600 C   0  0  0  0  0  0  0  0  0  0  0  0
   45.0960   34.5790   45.2200 N   0  0  0  0  0  0  0  0  0  0  0  0
   44.5740   35.6560   44.6300 C   0  0  0  0  0  0  0  0  0  0  0  0
   45.0500   36.0800   43.4640 N   0  0  0  0  0  0  0  0  0  0  0  0
   46.3590   35.8730   41.9200 H   0  0  0  0  0  0  0  0  0  0  0  0
   46.5740   33.0010   45.1060 H   0  0  0  0  0  0  0  0  0  0  0  0
   43.7630   36.0940   45.2100 H   0  0  0  0  0  0  0  0  0  0  0  0
  1 20  1  0  0  0  0
  2  1  2  0  0  0  0
  2  6  1  0  0  0  0
  3  2  1  0  0  0  0
  4  3  2  0  0  0  0
  4  5  1  0  0  0  0
  5  1  1  0  0  0  0
  7  3  1  0  0  0  0
  8  4  1  0  0  0  0
  9  8  1  0  0  0  0
  9 10  1  0  0  0  0
 11  9  2  0  0  0  0
 12 18  1  0  0  0  0
 12 11  1  0  0  0  0
 13 12  2  0  0  0  0
 14 16  2  0  0  0  0
 14 13  1  0  0  0  0
 15 14  1  0  0  0  0
 16 17  1  0  0  0  0
 17 18  2  0  0  0  0
 18 19  1  0  0  0  0
 19  8  2  0  0  0  0
 20 21  2  0  0  0  0
 20 22  1  0  0  0  0
 22 24  1  0  0  0  0
 24 23  2  1  0  0  0
 24 27  1  0  0  0  0
 25 24  1  0  0  0  0
 26 25  1  0  0  0  0
 27 29  1  0  0  0  0
 28 29  2  0  0  0  0
 28 33  1  0  0  0  0
 29 30  1  0  0  0  0
 30 35  1  0  0  0  0
 30 31  2  0  0  0  0
 32 36  1  0  0  0  0
 32 31  1  0  0  0  0
 33 32  2  0  0  0  0
 34 28  1  0  0  0  0
M  END
>  <minimizedAffinity>
-6.6704793

>  <minimizedRMSD>
1.29595256

$$$$
