
     RDKit          3D

 30 32  0  0  0  0  0  0  0  0999 V2000
   44.4217   35.8028   44.7009 C   0  0  0  0  0  0  0  0  0  0  0  0
   44.6727   35.4863   43.3604 C   0  0  0  0  0  0  0  0  0  0  0  0
   45.3657   34.3267   43.0966 C   0  0  0  0  0  0  0  0  0  0  0  0
   45.7719   33.5483   44.1282 N   0  0  0  0  0  0  0  0  0  0  0  0
   45.5150   33.8804   45.4007 C   0  0  0  0  0  0  0  0  0  0  0  0
   44.8372   35.0110   45.7044 N   0  0  0  0  0  0  0  0  0  0  0  0
   44.1799   36.4061   42.4050 N   0  0  0  0  0  0  0  0  0  0  0  0
   45.9369   33.0644   46.5627 C   0  0  0  0  0  0  0  0  0  0  0  0
   43.8807   36.7039   44.9578 H   0  0  0  0  0  0  0  0  0  0  0  0
   45.5513   34.0967   42.0561 H   0  0  0  0  0  0  0  0  0  0  0  0
   44.6705   37.2488   42.0252 H   0  0  0  0  0  0  0  0  0  0  0  0
   43.2429   36.0174   42.2065 H   0  0  0  0  0  0  0  0  0  0  0  0
   45.1725   33.1254   47.3602 H   0  0  0  0  0  0  0  0  0  0  0  0
   45.9271   31.9892   46.2456 H   0  0  0  0  0  0  0  0  0  0  0  0
   47.2954   33.4584   47.0613 C   0  0  0  0  0  0  0  0  0  0  0  0
   47.3888   34.7843   47.4802 C   0  0  0  0  0  0  0  0  0  0  0  0
   46.5516   35.4683   47.4474 H   0  0  0  0  0  0  0  0  0  0  0  0
   48.6157   35.2199   47.9540 C   0  0  0  0  0  0  0  0  0  0  0  0
   49.6783   34.3462   47.9941 C   0  0  0  0  0  0  0  0  0  0  0  0
   50.8497   34.8522   48.4733 N   0  0  0  0  0  0  0  0  0  0  0  0
   51.9230   34.0519   48.5381 C   0  0  0  0  0  0  0  0  0  0  0  0
   52.8286   34.4787   48.9191 H   0  0  0  0  0  0  0  0  0  0  0  0
   51.8240   32.7377   48.1211 C   0  0  0  0  0  0  0  0  0  0  0  0
   50.6767   32.1878   47.6357 C   0  0  0  0  0  0  0  0  0  0  0  0
   49.5699   33.0231   47.5719 C   0  0  0  0  0  0  0  0  0  0  0  0
   48.3495   32.5697   47.0945 C   0  0  0  0  0  0  0  0  0  0  0  0
   48.6774   36.2494   48.2763 H   0  0  0  0  0  0  0  0  0  0  0  0
   52.7172   32.1050   48.1848 H   0  0  0  0  0  0  0  0  0  0  0  0
   50.5857   31.1605   47.3059 H   0  0  0  0  0  0  0  0  0  0  0  0
   48.2233   31.5596   46.7600 H   0  0  0  0  0  0  0  0  0  0  0  0
  1  6  2  0
  2  1  1  0
  3  2  2  0
  3  4  1  0
  4  5  2  0
  5  6  1  0
  5  8  1  0
  7  2  1  0
  1  9  1  0
  3 10  1  0
  7 11  1  0
  7 12  1  0
  8 13  1  0
  8 14  1  0
 15 16  2  0
 16 17  1  0
 16 18  1  0
 18 19  2  0
 19 20  1  0
 20 21  2  0
 21 22  1  0
 21 23  1  0
 23 24  2  0
 24 25  1  0
 25 26  2  0
 26 15  1  0
 25 19  1  0
 18 27  1  0
 23 28  1  0
 24 29  1  0
 26 30  1  0
  8 15  1  0
M  ISO  6   9  14  10  14  13   8  14   8  17  16  22  16
M  END
>  <DihAtoms>  (1) 
4,7,14,15

>  <DihDeg>  (1) 
-90.00051213784356

$$$$
