
 OpenBabel03252508173D

 50 55  0  0  1  0  0  0  0  0999 V2000
   46.9010   31.7190   48.2860 C   0  0  1  0  0  0  0  0  0  0  0  0
   46.2290   30.8110   49.2570 C   0  0  0  0  0  0  0  0  0  0  0  0
   47.6260   31.1850   49.4550 C   0  0  1  0  0  0  0  0  0  0  0  0
   46.3680   32.7160   48.2910 H   0  0  0  0  0  0  0  0  0  0  0  0
   45.4780   31.1690   49.9890 H   0  0  0  0  0  0  0  0  0  0  0  0
   46.0350   29.7560   48.9420 H   0  0  0  0  0  0  0  0  0  0  0  0
   47.8330   31.9110   50.2680 H   0  0  0  0  0  0  0  0  0  0  0  0
   48.7470   30.2240   49.2060 C   0  0  2  0  0  0  0  0  0  0  0  0
   49.7290   30.1160   50.4010 C   0  0  0  0  0  0  0  0  0  0  0  0
   50.1640   30.7880   49.1660 C   0  0  1  0  0  0  0  0  0  0  0  0
   48.5830   29.2310   48.7720 H   0  0  0  0  0  0  0  0  0  0  0  0
   49.5680   30.7810   51.2690 H   0  0  0  0  0  0  0  0  0  0  0  0
   50.1710   29.1620   50.6650 H   0  0  0  0  0  0  0  0  0  0  0  0
   50.2620   31.8930   49.1560 H   0  0  0  0  0  0  0  0  0  0  0  0
   51.1720   30.0890   48.3450 C   0  0  0  0  0  0  0  0  0  0  0  0
   50.7120   29.1900   47.3760 C   0  0  0  0  0  0  0  0  0  0  0  0
   49.6550   28.9860   47.2030 H   0  0  0  0  0  0  0  0  0  0  0  0
   51.6140   28.5000   46.5690 C   0  0  0  0  0  3  0  0  0  0  0  0
   52.9810   28.6850   46.7040 C   0  0  0  0  0  0  0  0  0  0  0  0
   53.8330   28.0150   45.9230 N   0  0  0  0  0  0  0  0  0  0  0  0
   55.1670   28.1510   46.0060 C   0  0  0  0  0  0  0  0  0  0  0  0
   55.8220   27.5900   45.3550 H   0  0  0  0  0  0  0  0  0  0  0  0
   55.6400   29.0380   46.9610 C   0  0  0  0  0  3  0  0  0  0  0  0
   54.7820   29.7590   47.7990 C   0  0  0  0  0  3  0  0  0  0  0  0
   53.4040   29.5850   47.6760 C   0  0  0  0  0  0  0  0  0  0  0  0
   52.5300   30.2860   48.4940 C   0  0  0  0  0  3  0  0  0  0  0  0
   47.1280   31.1480   46.9340 C   0  0  0  0  0  0  0  0  0  0  0  0
   46.3080   30.3870   46.7690 H   0  0  0  0  0  0  0  0  0  0  0  0
   48.0580   30.6520   46.7300 H   0  0  0  0  0  0  0  0  0  0  0  0
   46.0540   33.0980   46.1700 C   0  0  0  0  0  3  0  0  0  0  0  0
   46.8650   32.1760   45.8600 C   0  0  0  0  0  3  0  0  0  0  0  0
   44.5230   35.9380   44.3860 C   0  0  0  0  0  0  0  0  0  0  0  0
   45.1600   35.9090   43.1510 C   0  0  0  0  0  0  0  0  0  0  0  0
   46.0840   34.9290   42.9710 C   0  0  0  0  0  0  0  0  0  0  0  0
   46.3430   34.0400   43.9700 N   0  0  0  0  0  0  0  0  0  0  0  0
   45.7090   34.0960   45.1540 C   0  0  0  0  0  0  0  0  0  0  0  0
   44.8110   35.0480   45.3300 N   0  0  0  0  0  0  0  0  0  0  0  0
   43.7740   36.7010   44.5850 H   0  0  0  0  0  0  0  0  0  0  0  0
   44.9350   36.6280   42.3730 H   0  0  0  0  0  0  0  0  0  0  0  0
   46.8310   34.7740   41.7290 C   0  0  0  0  0  0  0  0  0  0  0  0
   48.0400   35.3490   41.4660 C   0  0  0  0  0  0  0  0  0  0  0  0
   48.7340   35.1910   40.2840 C   0  0  0  0  0  0  0  0  0  0  0  0
   48.2030   34.4080   39.2790 C   0  0  0  0  0  0  0  0  0  0  0  0
   46.9920   33.8030   39.4830 C   0  0  0  0  0  0  0  0  0  0  0  0
   46.3410   33.9980   40.6890 C   0  0  0  0  0  0  0  0  0  0  0  0
   48.4920   35.9780   42.2400 H   0  0  0  0  0  0  0  0  0  0  0  0
   49.6840   35.6500   40.0910 H   0  0  0  0  0  0  0  0  0  0  0  0
   48.6620   34.2160   38.3120 H   0  0  0  0  0  0  0  0  0  0  0  0
   46.5310   33.1800   38.7320 H   0  0  0  0  0  0  0  0  0  0  0  0
   45.3760   33.4970   40.8120 H   0  0  0  0  0  0  0  0  0  0  0  0
  1  4  1  1  0  0  0
  1  2  1  0  0  0  0
  1  3  1  0  0  0  0
  2  3  1  0  0  0  0
  2  5  1  0  0  0  0
  3  7  1  1  0  0  0
  6  2  1  0  0  0  0
  8 11  1  6  0  0  0
  8  3  1  0  0  0  0
  8  9  1  0  0  0  0
  9 13  1  0  0  0  0
  9 12  1  0  0  0  0
 10 14  1  1  0  0  0
 10  8  1  0  0  0  0
 10  9  1  0  0  0  0
 15 26  1  0  0  0  0
 15 10  1  0  0  0  0
 16 15  2  0  0  0  0
 17 16  1  0  0  0  0
 18 19  2  0  0  0  0
 18 16  1  0  0  0  0
 19 25  1  0  0  0  0
 20 21  2  0  0  0  0
 20 19  1  0  0  0  0
 21 23  1  0  0  0  0
 22 21  1  0  0  0  0
 23 24  2  0  0  0  0
 25 24  1  0  0  0  0
 25 26  2  0  0  0  0
 27  1  1  0  0  0  0
 28 27  1  0  0  0  0
 29 27  1  0  0  0  0
 31 30  2  0  0  0  0
 31 27  1  0  0  0  0
 32 38  1  0  0  0  0
 32 37  1  0  0  0  0
 33 32  2  0  0  0  0
 34 33  1  0  0  0  0
 34 35  2  0  0  0  0
 35 36  1  0  0  0  0
 36 37  2  0  0  0  0
 36 30  1  0  0  0  0
 39 33  1  0  0  0  0
 40 34  1  0  0  0  0
 41 40  1  0  0  0  0
 41 46  1  0  0  0  0
 42 41  2  0  0  0  0
 43 44  2  0  0  0  0
 43 42  1  0  0  0  0
 44 45  1  0  0  0  0
 45 50  1  0  0  0  0
 45 40  2  0  0  0  0
 47 42  1  0  0  0  0
 48 43  1  0  0  0  0
 49 44  1  0  0  0  0
M  END
>  <minimizedAffinity>
-6.52303982

>  <minimizedRMSD>
1.29093254

$$$$
