
 OpenBabel03252507223D

 50 54  0  0  1  0  0  0  0  0999 V2000
   47.5070   33.7260   42.8220 C   0  0  0  0  0  0  0  0  0  0  0  0
   48.5870   33.6350   43.4760 O   0  0  0  0  0  0  0  0  0  0  0  0
   47.2660   33.1360   41.5280 N   0  0  0  0  0  0  0  0  0  0  0  0
   46.1260   32.4170   41.0080 C   0  0  0  0  0  0  0  0  0  0  0  0
   45.7180   33.0550   39.6720 C   0  0  0  0  0  0  0  0  0  0  0  0
   46.8140   32.9140   38.6660 C   0  0  0  0  0  0  0  0  0  0  0  0
   48.0940   32.5150   39.3560 C   0  0  0  0  0  0  0  0  0  0  0  0
   48.3660   33.3290   40.6050 C   0  0  2  0  0  0  0  0  0  0  0  0
   46.2870   31.3470   40.8520 H   0  0  0  0  0  0  0  0  0  0  0  0
   45.2290   32.5680   41.6700 H   0  0  0  0  0  0  0  0  0  0  0  0
   44.8490   32.4940   39.3220 H   0  0  0  0  0  0  0  0  0  0  0  0
   45.4860   34.1250   39.8870 H   0  0  0  0  0  0  0  0  0  0  0  0
   46.5810   32.1130   37.9300 H   0  0  0  0  0  0  0  0  0  0  0  0
   46.9700   33.9050   38.1720 H   0  0  0  0  0  0  0  0  0  0  0  0
   48.9590   32.7280   38.6690 H   0  0  0  0  0  0  0  0  0  0  0  0
   48.1140   31.4330   39.5660 H   0  0  0  0  0  0  0  0  0  0  0  0
   48.3670   34.3900   40.3050 H   0  0  0  0  0  0  0  0  0  0  0  0
   46.0560   35.7130   42.8310 C   0  0  0  0  0  0  0  0  0  0  0  0
   46.4330   34.4890   43.4370 C   0  0  0  0  0  0  0  0  0  0  0  0
   45.7800   34.0660   44.5710 C   0  0  0  0  0  0  0  0  0  0  0  0
   44.7950   34.8440   45.0660 N   0  0  0  0  0  0  0  0  0  0  0  0
   44.4230   36.0240   44.4930 C   0  0  0  0  0  0  0  0  0  0  0  0
   45.0630   36.4290   43.3890 N   0  0  0  0  0  0  0  0  0  0  0  0
   46.5740   36.0320   41.9440 H   0  0  0  0  0  0  0  0  0  0  0  0
   43.6310   36.6000   44.9320 H   0  0  0  0  0  0  0  0  0  0  0  0
   46.1840   32.8130   45.1720 C   0  0  0  0  0  0  0  0  0  0  0  0
   45.8440   31.6350   44.5830 C   0  0  0  0  0  0  0  0  0  0  0  0
   46.2440   30.4580   45.1780 C   0  0  0  0  0  0  0  0  0  0  0  0
   46.9800   30.4180   46.3550 C   0  0  0  0  0  0  0  0  0  0  0  0
   47.2970   31.6530   46.9110 C   0  0  0  0  0  0  0  0  0  0  0  0
   46.8940   32.7750   46.3080 N   0  0  0  0  0  0  0  0  0  0  0  0
   45.2820   31.5350   43.6790 H   0  0  0  0  0  0  0  0  0  0  0  0
   46.0180   29.4640   44.7780 H   0  0  0  0  0  0  0  0  0  0  0  0
   47.3070   29.5250   46.8460 H   0  0  0  0  0  0  0  0  0  0  0  0
   47.8680   31.6720   47.8260 H   0  0  0  0  0  0  0  0  0  0  0  0
   49.7080   32.9640   41.1050 C   0  0  0  0  0  0  0  0  0  0  0  0
   50.1320   33.6610   41.8680 H   0  0  0  0  0  0  0  0  0  0  0  0
   50.3530   33.2650   40.2360 H   0  0  0  0  0  0  0  0  0  0  0  0
   50.0020   31.5620   41.3610 C   0  0  0  0  0  0  0  0  0  0  0  0
   49.6150   30.3560   40.8330 C   0  0  0  0  0  0  0  0  0  0  0  0
   48.9160   30.3860   40.0430 H   0  0  0  0  0  0  0  0  0  0  0  0
   50.0210   29.1050   41.2170 C   0  0  0  0  0  3  0  0  0  0  0  0
   50.9110   28.9580   42.2330 C   0  0  0  0  0  0  0  0  0  0  0  0
   51.3110   27.7440   42.6120 N   0  0  0  0  0  0  0  0  0  0  0  0
   52.1880   27.5180   43.6070 C   0  0  0  0  0  0  0  0  0  0  0  0
   52.5320   26.5470   43.9380 H   0  0  0  0  0  0  0  0  0  0  0  0
   52.6560   28.6600   44.2230 C   0  0  0  0  0  3  0  0  0  0  0  0
   52.2820   29.9440   43.8800 C   0  0  0  0  0  3  0  0  0  0  0  0
   51.3810   30.0700   42.8500 C   0  0  0  0  0  0  0  0  0  0  0  0
   50.9240   31.3050   42.4070 C   0  0  0  0  0  3  0  0  0  0  0  0
  1 19  1  0  0  0  0
  1  2  2  0  0  0  0
  3  1  1  0  0  0  0
  4  3  1  0  0  0  0
  4 10  1  0  0  0  0
  5 12  1  0  0  0  0
  5  4  1  0  0  0  0
  6  7  1  0  0  0  0
  6  5  1  0  0  0  0
  7 16  1  0  0  0  0
  7  8  1  0  0  0  0
  8 17  1  6  0  0  0
  8 36  1  0  0  0  0
  8  3  1  0  0  0  0
  9  4  1  0  0  0  0
 11  5  1  0  0  0  0
 13  6  1  0  0  0  0
 14  6  1  0  0  0  0
 15  7  1  0  0  0  0
 18 23  2  0  0  0  0
 18 19  1  0  0  0  0
 19 20  2  0  0  0  0
 20 21  1  0  0  0  0
 20 26  1  0  0  0  0
 22 25  1  0  0  0  0
 22 21  2  0  0  0  0
 23 22  1  0  0  0  0
 24 18  1  0  0  0  0
 26 31  1  0  0  0  0
 27 26  2  0  0  0  0
 27 28  1  0  0  0  0
 28 29  2  0  0  0  0
 29 34  1  0  0  0  0
 29 30  1  0  0  0  0
 30 35  1  0  0  0  0
 31 30  2  0  0  0  0
 32 27  1  0  0  0  0
 33 28  1  0  0  0  0
 36 39  1  0  0  0  0
 36 37  1  0  0  0  0
 38 36  1  0  0  0  0
 39 50  1  0  0  0  0
 40 42  1  0  0  0  0
 40 39  2  0  0  0  0
 41 40  1  0  0  0  0
 42 43  2  0  0  0  0
 43 44  1  0  0  0  0
 43 49  1  0  0  0  0
 44 45  2  0  0  0  0
 45 46  1  0  0  0  0
 45 47  1  0  0  0  0
 48 47  2  0  0  0  0
 49 48  1  0  0  0  0
 50 49  2  0  0  0  0
M  END
>  <minimizedAffinity>
-5.20885897

>  <minimizedRMSD>
0.489663959

$$$$
