
 OpenBabel03252509113D

 34 38  0  0  0  0  0  0  0  0999 V2000
   45.8590   32.6250   44.9620 C   0  0  0  0  0  0  0  0  0  0  0  0
   45.8510   32.7210   43.5930 C   0  0  0  0  0  0  0  0  0  0  0  0
   46.6730   31.9420   42.7740 C   0  0  0  0  0  0  0  0  0  0  0  0
   47.5450   31.0250   43.3650 C   0  0  0  0  0  0  0  0  0  0  0  0
   48.4630   30.1290   42.9040 N   0  0  0  0  0  0  0  0  0  0  0  0
   49.0150   29.5060   43.9720 C   0  0  0  0  0  0  0  0  0  0  0  0
   48.4340   30.0230   45.0690 N   0  0  0  0  0  0  0  0  0  0  0  0
   47.5310   30.9520   44.7420 C   0  0  0  0  0  0  0  0  0  0  0  0
   46.7290   31.7090   45.5560 C   0  0  0  0  0  0  0  0  0  0  0  0
   45.1920   33.2630   45.5140 H   0  0  0  0  0  0  0  0  0  0  0  0
   48.6890   29.9650   41.9110 H   0  0  0  0  0  0  0  0  0  0  0  0
   49.7950   28.7260   43.9060 H   0  0  0  0  0  0  0  0  0  0  0  0
   46.7390   31.6320   46.6250 H   0  0  0  0  0  0  0  0  0  0  0  0
   46.7360   31.9870   41.3210 C   0  0  0  0  0  0  0  0  0  0  0  0
   46.1990   31.0840   40.4180 C   0  0  0  0  0  0  0  0  0  0  0  0
   45.6600   30.2550   40.8650 H   0  0  0  0  0  0  0  0  0  0  0  0
   46.3590   31.2690   39.0630 C   0  0  0  0  0  0  0  0  0  0  0  0
   47.0670   32.3780   38.6030 C   0  0  0  0  0  0  0  0  0  0  0  0
   47.2180   32.5500   37.2880 N   0  0  0  0  0  0  0  0  0  0  0  0
   47.8860   33.5880   36.7580 C   0  0  0  0  0  0  0  0  0  0  0  0
   48.0040   33.7180   35.6750 H   0  0  0  0  0  0  0  0  0  0  0  0
   48.4370   34.5140   37.6050 C   0  0  0  0  0  0  0  0  0  0  0  0
   48.3030   34.3710   38.9720 C   0  0  0  0  0  0  0  0  0  0  0  0
   47.6150   33.2970   39.4930 C   0  0  0  0  0  0  0  0  0  0  0  0
   47.4380   33.0860   40.8510 C   0  0  0  0  0  0  0  0  0  0  0  0
   44.3450   35.8370   42.3430 C   0  0  0  0  0  0  0  0  0  0  0  0
   43.2220   35.3610   41.6290 C   0  0  0  0  0  0  0  0  0  0  0  0
   42.9990   33.9800   41.5870 C   0  0  0  0  0  0  0  0  0  0  0  0
   43.8910   33.1850   42.2450 N   0  0  0  0  0  0  0  0  0  0  0  0
   44.9620   33.6560   42.9240 C   0  0  0  0  0  0  0  0  0  0  0  0
   45.1750   34.9680   42.9640 N   0  0  0  0  0  0  0  0  0  0  0  0
   44.5700   36.9000   42.4120 H   0  0  0  0  0  0  0  0  0  0  0  0
   42.5720   36.0540   41.1410 H   0  0  0  0  0  0  0  0  0  0  0  0
   42.1560   33.5700   41.0570 H   0  0  0  0  0  0  0  0  0  0  0  0
  1 10  1  0  0  0  0
  1  9  1  0  0  0  0
  2  1  2  0  0  0  0
  3  4  2  0  0  0  0
  3  2  1  0  0  0  0
  4  8  1  0  0  0  0
  5  4  1  0  0  0  0
  5  6  1  0  0  0  0
  6  7  2  0  0  0  0
  8  7  1  0  0  0  0
  8  9  2  0  0  0  0
  9 13  1  0  0  0  0
 11  5  1  0  0  0  0
 12  6  1  0  0  0  0
 14  3  1  0  0  0  0
 15 16  1  0  0  0  0
 15 14  2  0  0  0  0
 17 15  1  0  0  0  0
 18 17  2  0  0  0  0
 18 24  1  0  0  0  0
 19 18  1  0  0  0  0
 20 19  2  0  0  0  0
 20 22  1  0  0  0  0
 21 20  1  0  0  0  0
 22 23  2  0  0  0  0
 23 24  1  0  0  0  0
 24 25  2  0  0  0  0
 25 14  1  0  0  0  0
 26 32  1  0  0  0  0
 26 31  1  0  0  0  0
 27 26  2  0  0  0  0
 28 27  1  0  0  0  0
 28 29  2  0  0  0  0
 29 30  1  0  0  0  0
 30 31  2  0  0  0  0
 30  2  1  0  0  0  0
 33 27  1  0  0  0  0
 34 28  1  0  0  0  0
M  END
>  <minimizedAffinity>
-4.68341351

>  <minimizedRMSD>
6.12031364

$$$$
