
 OpenBabel03252500583D

 41 44  0  0  0  0  0  0  0  0999 V2000
   41.8280   35.3450   41.9670 O   0  0  0  0  0  0  0  0  0  0  0  0
   40.7580   34.7200   41.3530 C   0  0  0  0  0  0  0  0  0  0  0  0
   39.9710   35.4670   40.4930 C   0  0  0  0  0  0  0  0  0  0  0  0
   38.8790   34.9290   39.8330 C   0  0  0  0  0  0  0  0  0  0  0  0
   38.5880   33.6240   40.0500 N   0  0  0  0  0  0  0  0  0  0  0  0
   39.3470   32.8960   40.8820 C   0  0  0  0  0  0  0  0  0  0  0  0
   40.3880   33.4430   41.5010 N   0  0  0  0  0  0  0  0  0  0  0  0
   40.1700   36.5110   40.2950 H   0  0  0  0  0  0  0  0  0  0  0  0
   38.2720   35.5190   39.1660 H   0  0  0  0  0  0  0  0  0  0  0  0
   39.0100   31.4930   41.0960 C   0  0  0  0  0  0  0  0  0  0  0  0
   39.6840   30.7300   42.0310 C   0  0  0  0  0  0  0  0  0  0  0  0
   40.4790   31.1490   42.6280 H   0  0  0  0  0  0  0  0  0  0  0  0
   39.3910   29.3820   42.2670 C   0  0  0  0  0  3  0  0  0  0  0  0
   38.3800   28.8200   41.5170 C   0  0  0  0  0  0  0  0  0  0  0  0
   38.0070   27.5140   41.6610 N   0  0  0  0  0  0  0  0  0  0  0  0
   36.9970   27.0200   40.8870 C   0  0  0  0  0  0  0  0  0  0  0  0
   36.7870   25.9620   41.0890 H   0  0  0  0  0  0  0  0  0  0  0  0
   36.3000   27.7480   39.9440 C   0  0  0  0  0  3  0  0  0  0  0  0
   36.6590   29.0900   39.7740 C   0  0  0  0  0  3  0  0  0  0  0  0
   37.6850   29.5500   40.5750 C   0  0  0  0  0  0  0  0  0  0  0  0
   38.0020   30.8920   40.3660 C   0  0  0  0  0  3  0  0  0  0  0  0
   43.6840   35.3800   40.0890 O   0  0  0  0  0  0  0  0  0  0  0  0
   43.3900   34.9130   41.5030 P   0  0  2  0  0  0  0  0  0  0  0  0
   43.4850   33.2250   41.5330 O   0  0  0  0  0  0  0  0  0  0  0  0
   43.1110   32.9400   42.4150 H   0  0  0  0  0  0  0  0  0  0  0  0
   44.5790   35.5130   42.5610 O   0  0  0  0  0  0  0  0  0  0  0  0
   46.5930   34.3630   42.9470 C   0  0  0  0  0  0  0  0  0  0  0  0
   45.3710   34.7650   43.4240 C   0  0  0  0  0  0  0  0  0  0  0  0
   45.0190   34.3940   44.7340 C   0  0  0  0  0  0  0  0  0  0  0  0
   45.9130   33.6640   45.4340 N   0  0  0  0  0  0  0  0  0  0  0  0
   47.0960   33.2870   44.9450 C   0  0  0  0  0  0  0  0  0  0  0  0
   47.4300   33.6370   43.7040 N   0  0  0  0  0  0  0  0  0  0  0  0
   44.0590   34.7280   45.0620 H   0  0  0  0  0  0  0  0  0  0  0  0
   47.7890   32.6970   45.5430 H   0  0  0  0  0  0  0  0  0  0  0  0
   47.0240   34.7170   41.5850 C   0  0  0  0  0  0  0  0  0  0  0  0
   46.3440   35.4050   41.0690 H   0  0  0  0  0  0  0  0  0  0  0  0
   47.0880   33.7730   41.0000 H   0  0  0  0  0  0  0  0  0  0  0  0
   48.3860   35.3440   41.6520 C   0  0  0  0  0  0  0  0  0  0  0  0
   48.4200   36.2900   41.0830 H   0  0  0  0  0  0  0  0  0  0  0  0
   49.1850   34.6890   41.2070 H   0  0  0  0  0  0  0  0  0  0  0  0
   48.6550   35.5880   42.7110 H   0  0  0  0  0  0  0  0  0  0  0  0
  2  7  1  0  0  0  0
  2  1  1  0  0  0  0
  3  2  2  0  0  0  0
  4  5  2  0  0  0  0
  4  3  1  0  0  0  0
  5  6  1  0  0  0  0
  6 10  1  0  0  0  0
  6  7  2  0  0  0  0
  8  3  1  0  0  0  0
  9  4  1  0  0  0  0
 10 11  1  0  0  0  0
 11 13  2  0  0  0  0
 11 12  1  0  0  0  0
 14 15  1  0  0  0  0
 14 13  1  0  0  0  0
 16 17  1  0  0  0  0
 16 15  2  0  0  0  0
 18 16  1  0  0  0  0
 19 18  2  0  0  0  0
 19 20  1  0  0  0  0
 20 14  2  0  0  0  0
 21 20  1  0  0  0  0
 21 10  2  0  0  0  0
 23 22  2  6  0  0  0
 23 24  1  0  0  0  0
 23  1  1  0  0  0  0
 23 26  1  0  0  0  0
 24 25  1  0  0  0  0
 26 28  1  0  0  0  0
 27 28  2  0  0  0  0
 27 32  1  0  0  0  0
 28 29  1  0  0  0  0
 29 33  1  0  0  0  0
 29 30  2  0  0  0  0
 31 30  1  0  0  0  0
 31 34  1  0  0  0  0
 32 31  2  0  0  0  0
 35 38  1  0  0  0  0
 35 27  1  0  0  0  0
 36 35  1  0  0  0  0
 37 35  1  0  0  0  0
 38 41  1  0  0  0  0
 39 38  1  0  0  0  0
 40 38  1  0  0  0  0
M  END
>  <minimizedAffinity>
-6.33560419

>  <minimizedRMSD>
0.853007495

$$$$
