
 OpenBabel03252509053D

 51 54  0  0  1  0  0  0  0  0999 V2000
   47.1730   34.2080   43.7950 N   0  0  0  0  0  0  0  0  0  0  0  0
   46.7730   35.1970   42.8650 C   0  0  0  0  0  0  0  0  0  0  0  0
   45.2710   35.3630   42.7230 C   0  0  0  0  0  0  0  0  0  0  0  0
   44.5000   35.1390   44.0010 C   0  0  0  0  0  0  0  0  0  0  0  0
   45.4250   34.8740   45.1760 C   0  0  0  0  0  0  0  0  0  0  0  0
   46.2800   33.6510   44.6810 C   0  0  2  0  0  0  0  0  0  0  0  0
   47.1440   36.1920   43.2380 H   0  0  0  0  0  0  0  0  0  0  0  0
   47.1640   35.1100   41.8480 H   0  0  0  0  0  0  0  0  0  0  0  0
   45.0410   36.3300   42.2520 H   0  0  0  0  0  0  0  0  0  0  0  0
   44.9320   34.5650   42.0200 H   0  0  0  0  0  0  0  0  0  0  0  0
   43.9570   36.0780   44.2400 H   0  0  0  0  0  0  0  0  0  0  0  0
   43.7710   34.3130   43.9450 H   0  0  0  0  0  0  0  0  0  0  0  0
   44.8220   34.5330   46.0280 H   0  0  0  0  0  0  0  0  0  0  0  0
   46.1040   35.7080   45.3660 H   0  0  0  0  0  0  0  0  0  0  0  0
   45.5360   32.9260   44.2970 H   0  0  0  0  0  0  0  0  0  0  0  0
   48.3190   33.4320   43.3810 C   0  0  0  0  0  0  0  0  0  0  0  0
   48.9270   34.0990   42.7180 H   0  0  0  0  0  0  0  0  0  0  0  0
   48.9250   33.1420   44.2570 H   0  0  0  0  0  0  0  0  0  0  0  0
   47.8340   32.2550   42.6110 C   0  0  0  0  0  0  0  0  0  0  0  0
   46.7230   32.2180   42.5610 H   0  0  0  0  0  0  0  0  0  0  0  0
   48.1510   31.2900   43.0540 H   0  0  0  0  0  0  0  0  0  0  0  0
   49.7770   31.5910   39.4660 C   0  0  0  0  0  0  0  0  0  0  0  0
   49.3140   31.5120   40.7910 C   0  0  0  0  0  0  0  0  0  0  0  0
   48.3160   32.3500   41.2060 C   0  0  0  0  0  0  0  0  0  0  0  0
   47.8280   33.2120   40.3170 N   0  0  0  0  0  0  0  0  0  0  0  0
   48.2570   33.3010   39.0560 C   0  0  0  0  0  0  0  0  0  0  0  0
   49.2430   32.4880   38.6090 N   0  0  0  0  0  0  0  0  0  0  0  0
   50.5560   30.9500   39.1080 H   0  0  0  0  0  0  0  0  0  0  0  0
   49.7840   30.7780   41.4080 H   0  0  0  0  0  0  0  0  0  0  0  0
   47.7270   34.0670   38.5090 H   0  0  0  0  0  0  0  0  0  0  0  0
   46.8780   33.2400   45.8610 O   0  0  0  0  0  0  0  0  0  0  0  0
   45.9750   30.8360   45.1500 O   0  0  0  0  0  0  0  0  0  0  0  0
   46.3990   31.7140   46.3450 P   0  0  2  0  0  0  0  0  0  0  0  0
   44.9400   31.9130   47.2350 O   0  0  0  0  0  0  0  0  0  0  0  0
   45.2010   32.0170   48.1890 H   0  0  0  0  0  0  0  0  0  0  0  0
   47.4840   30.9390   47.3220 O   0  0  0  0  0  0  0  0  0  0  0  0
   47.9430   29.7820   46.6840 C   0  0  0  0  0  0  0  0  0  0  0  0
   47.1560   29.1750   46.2290 H   0  0  0  0  0  0  0  0  0  0  0  0
   48.6840   30.0640   45.8870 H   0  0  0  0  0  0  0  0  0  0  0  0
   48.6720   29.0170   47.7370 C   0  0  0  0  0  0  0  0  0  0  0  0
   48.7390   27.6440   47.8540 C   0  0  0  0  0  0  0  0  0  0  0  0
   48.2050   27.0800   47.1010 H   0  0  0  0  0  0  0  0  0  0  0  0
   49.4550   27.0690   48.8840 C   0  0  0  0  0  3  0  0  0  0  0  0
   50.0950   27.8950   49.7850 C   0  0  0  0  0  0  0  0  0  0  0  0
   50.8010   27.3980   50.7990 N   0  0  0  0  0  0  0  0  0  0  0  0
   51.4450   28.1510   51.7070 C   0  0  0  0  0  0  0  0  0  0  0  0
   52.0220   27.7670   52.5370 H   0  0  0  0  0  0  0  0  0  0  0  0
   51.4060   29.5340   51.6300 C   0  0  0  0  0  3  0  0  0  0  0  0
   50.6940   30.1090   50.6050 C   0  0  0  0  0  3  0  0  0  0  0  0
   50.0590   29.2710   49.7110 C   0  0  0  0  0  0  0  0  0  0  0  0
   49.3300   29.8340   48.6640 C   0  0  0  0  0  3  0  0  0  0  0  0
  1  6  1  0  0  0  0
  2  7  1  0  0  0  0
  2  1  1  0  0  0  0
  3  2  1  0  0  0  0
  3  4  1  0  0  0  0
  4 11  1  0  0  0  0
  4  5  1  0  0  0  0
  5 14  1  0  0  0  0
  5 13  1  0  0  0  0
  6 15  1  6  0  0  0
  6  5  1  0  0  0  0
  6 31  1  0  0  0  0
  8  2  1  0  0  0  0
  9  3  1  0  0  0  0
 10  3  1  0  0  0  0
 12  4  1  0  0  0  0
 16  1  1  0  0  0  0
 16 18  1  0  0  0  0
 17 16  1  0  0  0  0
 19 21  1  0  0  0  0
 19 16  1  0  0  0  0
 20 19  1  0  0  0  0
 22 23  1  0  0  0  0
 23 24  2  0  0  0  0
 23 29  1  0  0  0  0
 24 19  1  0  0  0  0
 25 24  1  0  0  0  0
 26 25  2  0  0  0  0
 27 26  1  0  0  0  0
 27 22  2  0  0  0  0
 28 22  1  0  0  0  0
 30 26  1  0  0  0  0
 31 33  1  0  0  0  0
 33 32  2  6  0  0  0
 33 34  1  0  0  0  0
 33 36  1  0  0  0  0
 34 35  1  0  0  0  0
 37 36  1  0  0  0  0
 37 40  1  0  0  0  0
 38 37  1  0  0  0  0
 39 37  1  0  0  0  0
 40 41  2  0  0  0  0
 40 51  1  0  0  0  0
 41 43  1  0  0  0  0
 42 41  1  0  0  0  0
 43 44  2  0  0  0  0
 44 45  1  0  0  0  0
 45 46  2  0  0  0  0
 46 47  1  0  0  0  0
 48 46  1  0  0  0  0
 49 48  2  0  0  0  0
 50 44  1  0  0  0  0
 50 49  1  0  0  0  0
 51 50  2  0  0  0  0
M  END
>  <minimizedAffinity>
-4.77442026

>  <minimizedRMSD>
2.4485867

$$$$
