
 OpenBabel03252509243D

 30 33  0  0  1  0  0  0  0  0999 V2000
   46.4380   34.7640   42.0490 C   0  0  1  0  0  0  0  0  0  0  0  0
   47.9190   35.2300   42.0320 C   0  0  0  0  0  0  0  0  0  0  0  0
   47.4090   33.7980   41.6820 C   0  0  2  0  0  0  0  0  0  0  0  0
   45.8030   35.3410   41.3460 H   0  0  0  0  0  0  0  0  0  0  0  0
   48.2740   35.7830   41.1540 H   0  0  0  0  0  0  0  0  0  0  0  0
   48.4540   35.3570   42.9670 H   0  0  0  0  0  0  0  0  0  0  0  0
   47.7140   33.0420   42.4460 H   0  0  0  0  0  0  0  0  0  0  0  0
   47.5890   33.3580   40.2610 C   0  0  0  0  0  0  0  0  0  0  0  0
   46.4820   33.5500   39.4350 C   0  0  0  0  0  0  0  0  0  0  0  0
   45.5620   33.9850   39.7970 H   0  0  0  0  0  0  0  0  0  0  0  0
   46.5600   33.1700   38.1040 C   0  0  0  0  0  3  0  0  0  0  0  0
   47.7240   32.6120   37.6160 C   0  0  0  0  0  0  0  0  0  0  0  0
   47.8450   32.2260   36.3170 N   0  0  0  0  0  0  0  0  0  0  0  0
   48.9900   31.6830   35.8640 C   0  0  0  0  0  0  0  0  0  0  0  0
   49.0590   31.3830   34.8230 H   0  0  0  0  0  0  0  0  0  0  0  0
   50.1010   31.4800   36.6560 C   0  0  0  0  0  3  0  0  0  0  0  0
   49.9420   31.8870   37.9780 C   0  0  0  0  0  3  0  0  0  0  0  0
   48.7840   32.4500   38.4930 C   0  0  0  0  0  0  0  0  0  0  0  0
   48.7690   32.8070   39.8260 C   0  0  0  0  0  3  0  0  0  0  0  0
   44.5070   35.6500   45.1440 C   0  0  0  0  0  0  0  0  0  0  0  0
   45.0190   35.7550   43.8090 C   0  0  0  0  0  0  0  0  0  0  0  0
   45.9060   34.7670   43.4640 C   0  0  0  0  0  0  0  0  0  0  0  0
   46.2710   33.7560   44.3460 N   0  0  0  0  0  0  0  0  0  0  0  0
   45.7550   33.7180   45.5770 C   0  0  0  0  0  0  0  0  0  0  0  0
   44.8710   34.6670   45.9800 N   0  0  0  0  0  0  0  0  0  0  0  0
   43.8030   36.4060   45.4620 H   0  0  0  0  0  0  0  0  0  0  0  0
   46.1360   32.8770   46.1380 H   0  0  0  0  0  0  0  0  0  0  0  0
   44.6590   36.8120   42.9230 N   0  0  0  0  0  0  0  0  0  0  0  0
   44.2580   36.6720   41.9580 H   0  0  0  0  0  0  0  0  0  0  0  0
   44.8650   37.7220   43.4140 H   0  0  0  0  0  0  0  0  0  0  0  0
  1  4  1  6  0  0  0
  1 22  1  0  0  0  0
  2  1  1  0  0  0  0
  2  6  1  0  0  0  0
  3  2  1  0  0  0  0
  3  1  1  0  0  0  0
  3  7  1  1  0  0  0
  5  2  1  0  0  0  0
  8  3  1  0  0  0  0
  9 10  1  0  0  0  0
  9  8  2  0  0  0  0
 11  9  1  0  0  0  0
 12 11  2  0  0  0  0
 12 18  1  0  0  0  0
 13 12  1  0  0  0  0
 14 13  2  0  0  0  0
 14 16  1  0  0  0  0
 15 14  1  0  0  0  0
 16 17  2  0  0  0  0
 17 18  1  0  0  0  0
 18 19  2  0  0  0  0
 19  8  1  0  0  0  0
 20 26  1  0  0  0  0
 20 25  1  0  0  0  0
 21 20  2  0  0  0  0
 22 21  1  0  0  0  0
 22 23  2  0  0  0  0
 23 24  1  0  0  0  0
 24 25  2  0  0  0  0
 24 27  1  0  0  0  0
 28 30  1  0  0  0  0
 28 21  1  0  0  0  0
 29 28  1  0  0  0  0
M  END
>  <minimizedAffinity>
-5.39536667

>  <minimizedRMSD>
0.691856742

$$$$
