REMARK  Name = 
REMARK  2 active torsions:
REMARK  status: ('A' for Active; 'I' for Inactive)
REMARK    1  A    between atoms: C_3  and  C_13
REMARK    2  A    between atoms: C_5  and  C_20
REMARK                            x       y       z     vdW  Elec       q    Type
REMARK                         _______ _______ _______ _____ _____    ______ ____
ROOT
ATOM      1 CL   UNL     1      44.963  36.002  43.277  0.00  0.00    +0.000 Cl
ATOM      2  C   UNL     1      45.674  34.686  44.158  0.00  0.00    +0.000 A 
ATOM      3  C   UNL     1      46.701  33.951  43.611  0.00  0.00    +0.000 A 
ATOM      4  C   UNL     1      47.196  32.934  44.392  0.00  0.00    +0.000 A 
ATOM      5  C   UNL     1      46.739  32.613  45.654  0.00  0.00    +0.000 A 
ATOM      6  C   UNL     1      45.713  33.367  46.169  0.00  0.00    +0.000 A 
ATOM      7 CL   UNL     1      45.157  32.932  47.773  0.00  0.00    +0.000 Cl
ATOM      8  C   UNL     1      45.183  34.394  45.431  0.00  0.00    +0.000 A 
ATOM      9  H   UNL     1      48.014  32.356  43.945  0.00  0.00    +0.000 HD
ATOM     10  H   UNL     1      44.376  34.961  45.877  0.00  0.00    +0.000 HD
ENDROOT
BRANCH   5  11
ATOM     11  C   UNL     1      47.396  31.492  46.328  0.00  0.00    +0.000 A 
ATOM     12  C   UNL     1      48.764  31.328  46.355  0.00  0.00    +0.000 A 
ATOM     13  H   UNL     1      49.401  32.047  45.863  0.00  0.00    +0.000 HD
ATOM     14  C   UNL     1      49.406  30.281  46.983  0.00  0.00    +0.000 A 
ATOM     15  C   UNL     1      48.647  29.329  47.630  0.00  0.00    +0.000 A 
ATOM     16  N   UNL     1      49.286  28.317  48.236  0.00  0.00    +0.000 NA
ATOM     17  C   UNL     1      48.627  27.338  48.894  0.00  0.00    +0.000 A 
ATOM     18  H   UNL     1      49.255  26.575  49.343  0.00  0.00    +0.000 HD
ATOM     19  C   UNL     1      47.240  27.430  48.913  0.00  0.00    +0.000 A 
ATOM     20  C   UNL     1      46.590  28.461  48.295  0.00  0.00    +0.000 A 
ATOM     21  C   UNL     1      47.281  29.451  47.629  0.00  0.00    +0.000 A 
ATOM     22  C   UNL     1      46.663  30.510  46.992  0.00  0.00    +0.000 A 
ENDBRANCH   5  11
BRANCH   3  27
ATOM     23  C   UNL     1      48.757  35.393  40.967  0.00  0.00    +0.000 A 
ATOM     24  C   UNL     1      48.267  34.800  39.807  0.00  0.00    +0.000 A 
ATOM     25  C   UNL     1      47.195  33.873  39.928  0.00  0.00    +0.000 A 
ATOM     26  N   UNL     1      46.730  33.639  41.180  0.00  0.00    +0.000 NA
ATOM     27  C   UNL     1      47.232  34.234  42.283  0.00  0.00    +0.000 A 
ATOM     28  N   UNL     1      48.246  35.112  42.180  0.00  0.00    +0.000 NA
ATOM     29  H   UNL     1      49.582  36.111  40.907  0.00  0.00    +0.000 HD
ATOM     30  H   UNL     1      48.684  35.032  38.837  0.00  0.00    +0.000 HD
ATOM     31  H   UNL     1      46.786  33.393  39.066  0.00  0.00    +0.000 HD
ENDBRANCH   3  27
TORSDOF 2
