
 OpenBabel03252509053D

 51 54  0  0  1  0  0  0  0  0999 V2000
   47.1720   34.2400   43.0680 N   0  0  0  0  0  0  0  0  0  0  0  0
   46.6120   35.0500   42.0500 C   0  0  0  0  0  0  0  0  0  0  0  0
   45.0950   35.0700   42.0200 C   0  0  0  0  0  0  0  0  0  0  0  0
   44.4460   34.9700   43.3790 C   0  0  0  0  0  0  0  0  0  0  0  0
   45.4770   34.9520   44.4930 C   0  0  0  0  0  0  0  0  0  0  0  0
   46.4040   33.7450   44.0970 C   0  0  2  0  0  0  0  0  0  0  0  0
   46.9160   36.1150   42.2510 H   0  0  0  0  0  0  0  0  0  0  0  0
   46.9320   34.8500   41.0250 H   0  0  0  0  0  0  0  0  0  0  0  0
   44.7420   35.9380   41.4430 H   0  0  0  0  0  0  0  0  0  0  0  0
   44.7800   34.1550   41.4640 H   0  0  0  0  0  0  0  0  0  0  0  0
   43.8380   35.8860   43.5340 H   0  0  0  0  0  0  0  0  0  0  0  0
   43.7950   34.0860   43.4990 H   0  0  0  0  0  0  0  0  0  0  0  0
   44.9750   34.6890   45.4330 H   0  0  0  0  0  0  0  0  0  0  0  0
   46.0890   35.8580   44.5080 H   0  0  0  0  0  0  0  0  0  0  0  0
   45.7040   32.9140   43.8810 H   0  0  0  0  0  0  0  0  0  0  0  0
   48.3510   33.5100   42.6650 C   0  0  0  0  0  0  0  0  0  0  0  0
   48.8980   34.1690   41.9440 H   0  0  0  0  0  0  0  0  0  0  0  0
   48.9980   33.3110   43.5370 H   0  0  0  0  0  0  0  0  0  0  0  0
   47.9170   32.2600   41.9840 C   0  0  0  0  0  0  0  0  0  0  0  0
   46.8320   32.2740   41.7370 H   0  0  0  0  0  0  0  0  0  0  0  0
   48.0780   31.3540   42.6000 H   0  0  0  0  0  0  0  0  0  0  0  0
   50.3220   31.0530   39.3620 C   0  0  0  0  0  0  0  0  0  0  0  0
   49.6310   31.1900   40.5790 C   0  0  0  0  0  0  0  0  0  0  0  0
   48.6410   32.1260   40.6890 C   0  0  0  0  0  0  0  0  0  0  0  0
   48.3780   32.8720   39.6190 N   0  0  0  0  0  0  0  0  0  0  0  0
   49.0240   32.7550   38.4560 C   0  0  0  0  0  0  0  0  0  0  0  0
   50.0110   31.8400   38.3090 N   0  0  0  0  0  0  0  0  0  0  0  0
   51.1020   30.3300   39.2420 H   0  0  0  0  0  0  0  0  0  0  0  0
   49.9330   30.5320   41.3650 H   0  0  0  0  0  0  0  0  0  0  0  0
   48.6530   33.4570   37.7230 H   0  0  0  0  0  0  0  0  0  0  0  0
   47.1240   33.5570   45.2640 O   0  0  0  0  0  0  0  0  0  0  0  0
   46.5350   30.9690   45.0460 O   0  0  0  0  0  0  0  0  0  0  0  0
   46.7570   32.1250   46.0420 P   0  0  2  0  0  0  0  0  0  0  0  0
   45.2100   32.3360   46.7630 O   0  0  0  0  0  0  0  0  0  0  0  0
   45.3700   32.6710   47.6870 H   0  0  0  0  0  0  0  0  0  0  0  0
   47.8200   31.7090   47.2390 O   0  0  0  0  0  0  0  0  0  0  0  0
   47.9920   30.3210   47.2480 C   0  0  0  0  0  0  0  0  0  0  0  0
   47.0740   29.7540   47.4230 H   0  0  0  0  0  0  0  0  0  0  0  0
   48.4350   29.9930   46.2680 H   0  0  0  0  0  0  0  0  0  0  0  0
   49.0000   30.0580   48.3160 C   0  0  0  0  0  0  0  0  0  0  0  0
   49.6700   31.0080   49.0590 C   0  0  0  0  0  0  0  0  0  0  0  0
   49.4300   32.0390   48.8340 H   0  0  0  0  0  0  0  0  0  0  0  0
   50.5820   30.6220   50.0200 C   0  0  0  0  0  3  0  0  0  0  0  0
   50.8030   29.2730   50.2160 C   0  0  0  0  0  0  0  0  0  0  0  0
   51.6700   28.8400   51.1280 N   0  0  0  0  0  0  0  0  0  0  0  0
   51.9260   27.5410   51.3640 C   0  0  0  0  0  0  0  0  0  0  0  0
   52.6260   27.1700   52.1000 H   0  0  0  0  0  0  0  0  0  0  0  0
   51.2780   26.5530   50.6430 C   0  0  0  0  0  3  0  0  0  0  0  0
   50.3700   26.9360   49.6860 C   0  0  0  0  0  3  0  0  0  0  0  0
   50.1590   28.2870   49.5000 C   0  0  0  0  0  0  0  0  0  0  0  0
   49.2420   28.6970   48.5330 C   0  0  0  0  0  3  0  0  0  0  0  0
  1  6  1  0  0  0  0
  2  7  1  0  0  0  0
  2  1  1  0  0  0  0
  3  2  1  0  0  0  0
  3  4  1  0  0  0  0
  4 12  1  0  0  0  0
  4 11  1  0  0  0  0
  4  5  1  0  0  0  0
  5 14  1  0  0  0  0
  5 13  1  0  0  0  0
  6 15  1  6  0  0  0
  6  5  1  0  0  0  0
  6 31  1  0  0  0  0
  8  2  1  0  0  0  0
  9  3  1  0  0  0  0
 10  3  1  0  0  0  0
 16  1  1  0  0  0  0
 16 18  1  0  0  0  0
 17 16  1  0  0  0  0
 19 21  1  0  0  0  0
 19 16  1  0  0  0  0
 20 19  1  0  0  0  0
 22 23  1  0  0  0  0
 23 24  2  0  0  0  0
 23 29  1  0  0  0  0
 24 19  1  0  0  0  0
 25 24  1  0  0  0  0
 26 25  2  0  0  0  0
 27 26  1  0  0  0  0
 27 22  2  0  0  0  0
 28 22  1  0  0  0  0
 30 26  1  0  0  0  0
 31 33  1  0  0  0  0
 33 32  2  6  0  0  0
 33 34  1  0  0  0  0
 33 36  1  0  0  0  0
 34 35  1  0  0  0  0
 36 37  1  0  0  0  0
 37 38  1  0  0  0  0
 37 40  1  0  0  0  0
 39 37  1  0  0  0  0
 40 51  2  0  0  0  0
 40 41  1  0  0  0  0
 41 43  2  0  0  0  0
 42 41  1  0  0  0  0
 43 44  1  0  0  0  0
 44 45  1  0  0  0  0
 45 46  2  0  0  0  0
 46 47  1  0  0  0  0
 48 46  1  0  0  0  0
 49 48  2  0  0  0  0
 50 49  1  0  0  0  0
 50 44  2  0  0  0  0
 51 50  1  0  0  0  0
M  END
>  <minimizedAffinity>
-4.54361153

>  <minimizedRMSD>
2.82436585

$$$$
