
     RDKit          3D

 52 56  0  0  0  0  0  0  0  0999 V2000
   47.4088   33.0165   44.4054 C   0  0  2  0  0  0  0  0  0  0  0  0
   47.2292   33.2909   42.9553 C   0  0  1  0  0  0  0  0  0  0  0  0
   47.0523   32.0108   42.1374 C   0  0  0  0  0  0  0  0  0  0  0  0
   48.1687   31.2399   42.4693 O   0  0  0  0  0  0  0  0  0  0  0  0
   48.0707   30.7222   43.7430 C   0  0  0  0  0  0  0  0  0  0  0  0
   47.1914   31.5129   44.6613 C   0  0  1  0  0  0  0  0  0  0  0  0
   44.9753   36.1720   42.7751 C   0  0  0  0  0  0  0  0  0  0  0  0
   43.8806   35.7115   41.9829 C   0  0  0  0  0  0  0  0  0  0  0  0
   43.9798   34.3699   41.5292 C   0  0  0  0  0  0  0  0  0  0  0  0
   45.0640   33.6343   41.8611 N   0  0  0  0  0  0  0  0  0  0  0  0
   46.0660   34.1349   42.6157 C   0  0  0  0  0  0  0  0  0  0  0  0
   46.0186   35.4031   43.0709 N   0  0  0  0  0  0  0  0  0  0  0  0
   44.9013   37.4593   43.2237 O   0  0  0  0  0  0  0  0  0  0  0  0
   46.5326   33.7254   45.2265 O   0  0  0  0  0  0  0  0  0  0  0  0
   47.4545   31.2982   45.9951 O   0  0  0  0  0  0  0  0  0  0  0  0
   45.9163   29.0942   46.2795 F   0  0  0  0  0  0  0  0  0  0  0  0
   45.9957   30.1019   47.1720 C   0  0  0  0  0  0  0  0  0  0  0  0
   46.7505   31.2560   47.1120 C   0  0  0  0  0  0  0  0  0  0  0  0
   46.6190   32.1019   48.2010 C   0  0  0  0  0  0  0  0  0  0  0  0
   45.8233   31.8919   49.3011 C   0  0  0  0  0  0  0  0  0  0  0  0
   45.1005   30.7381   49.3084 C   0  0  0  0  0  0  0  0  0  0  0  0
   45.1616   29.8275   48.2692 C   0  0  0  0  0  0  0  0  0  0  0  0
   48.4467   33.2221   44.6980 H   0  0  0  0  0  0  0  0  0  0  0  0
   48.1507   33.7965   42.5483 H   0  0  0  0  0  0  0  0  0  0  0  0
   47.1666   32.2529   41.0619 H   0  0  0  0  0  0  0  0  0  0  0  0
   46.0950   31.5195   42.3634 H   0  0  0  0  0  0  0  0  0  0  0  0
   49.0831   30.6689   44.2323 H   0  0  0  0  0  0  0  0  0  0  0  0
   47.6617   29.6813   43.7226 H   0  0  0  0  0  0  0  0  0  0  0  0
   46.1031   31.3841   44.4721 H   0  0  0  0  0  0  0  0  0  0  0  0
   43.0348   36.3027   41.7305 H   0  0  0  0  0  0  0  0  0  0  0  0
   43.1932   33.9426   40.9232 H   0  0  0  0  0  0  0  0  0  0  0  0
   45.6834   38.1151   43.1736 H   0  0  0  0  0  0  0  0  0  0  0  0
   47.0410   34.3750   45.7902 H   0  0  0  0  0  0  0  0  0  0  0  0
   47.2522   33.0001   48.0787 H   0  0  0  0  0  0  0  0  0  0  0  0
   45.8074   32.6189   50.0765 H   0  0  0  0  0  0  0  0  0  0  0  0
   44.4635   30.5687   50.1877 H   0  0  0  0  0  0  0  0  0  0  0  0
   44.3237   28.6430   48.4352 C   0  0  0  0  0  0  0  0  0  0  0  0
   43.5770   28.2447   47.3206 C   0  0  0  0  0  0  0  0  0  0  0  0
   43.6494   28.8229   46.3924 H   0  0  0  0  0  0  0  0  0  0  0  0
   42.7314   27.1511   47.2928 C   0  0  0  0  0  0  0  0  0  0  0  0
   42.6245   26.4085   48.4499 C   0  0  0  0  0  0  0  0  0  0  0  0
   41.8123   25.3365   48.4645 N   0  0  0  0  0  0  0  0  0  0  0  0
   41.6449   24.5566   49.5414 C   0  0  0  0  0  0  0  0  0  0  0  0
   40.9854   23.6996   49.5275 H   0  0  0  0  0  0  0  0  0  0  0  0
   42.3736   24.9267   50.6649 C   0  0  0  0  0  0  0  0  0  0  0  0
   43.2216   26.0141   50.7109 C   0  0  0  0  0  0  0  0  0  0  0  0
   43.3493   26.7759   49.5690 C   0  0  0  0  0  0  0  0  0  0  0  0
   44.1781   27.8693   49.5549 C   0  0  0  0  0  0  0  0  0  0  0  0
   42.1912   26.9157   46.3850 H   0  0  0  0  0  0  0  0  0  0  0  0
   42.2577   24.3096   51.5584 H   0  0  0  0  0  0  0  0  0  0  0  0
   43.7741   26.2689   51.6122 H   0  0  0  0  0  0  0  0  0  0  0  0
   44.7612   28.1872   50.4122 H   0  0  0  0  0  0  0  0  0  0  0  0
  1  6  1  0
  1 14  1  0
  2  1  1  0
  3  4  1  0
  3  2  1  0
  4  5  1  0
  5  6  1  0
  6 15  1  0
  7 12  2  0
  7 13  1  0
  8  7  1  0
  9 10  1  0
  9  8  2  0
 10 11  2  0
 11  2  1  0
 11 12  1  0
 15 18  1  0
 16 17  1  0
 17 22  2  0
 18 17  1  0
 18 19  2  0
 19 20  1  0
 20 21  2  0
 22 21  1  0
  1 23  1  1
  2 24  1  6
  3 25  1  0
  3 26  1  0
  5 27  1  0
  5 28  1  0
  6 29  1  1
  8 30  1  0
  9 31  1  0
 13 32  1  0
 14 33  1  0
 19 34  1  0
 20 35  1  0
 21 36  1  0
 37 38  2  0
 38 39  1  0
 38 40  1  0
 40 41  2  0
 41 42  1  0
 42 43  2  0
 43 44  1  0
 43 45  1  0
 45 46  2  0
 46 47  1  0
 47 48  2  0
 48 37  1  0
 47 41  1  0
 40 49  1  0
 45 50  1  0
 46 51  1  0
 48 52  1  0
 22 37  1  0
M  ISO  8  23  13  24  13  25  13  26  13  27  13  28  13  29  13  30  14
M  ISO  8  31  14  32   3  33   3  34  14  35  14  36  14  39  16  44  16
M  END
>  <DihAtoms>  (1) 
16,21,36,37

>  <DihDeg>  (1) 
134.99834959005935

$$$$
