
 OpenBabel03252509093D

 44 48  0  0  0  0  0  0  0  0999 V2000
   47.5270   31.7480   38.6810 C   0  0  0  0  0  0  0  0  0  0  0  0
   47.0870   33.0400   38.6470 C   0  0  0  0  0  0  0  0  0  0  0  0
   47.7860   33.9860   37.9150 C   0  0  0  0  0  0  0  0  0  0  0  0
   48.9180   33.6320   37.2220 C   0  0  0  0  0  0  0  0  0  0  0  0
   49.4020   32.3240   37.2290 C   0  0  0  0  0  0  0  0  0  0  0  0
   48.6780   31.3900   37.9750 C   0  0  0  0  0  0  0  0  0  0  0  0
   47.4560   35.0170   37.8750 H   0  0  0  0  0  0  0  0  0  0  0  0
   49.5160   34.2930   36.6340 H   0  0  0  0  0  0  0  0  0  0  0  0
   50.2680   31.9710   36.7190 H   0  0  0  0  0  0  0  0  0  0  0  0
   49.0300   30.3580   38.0000 H   0  0  0  0  0  0  0  0  0  0  0  0
   44.9110   35.1250   42.8410 Cl  0  0  0  0  0  0  0  0  0  0  0  0
   44.8760   34.4490   41.2340 C   0  0  0  0  0  0  0  0  0  0  0  0
   46.0130   34.0360   40.6160 C   0  0  0  0  0  0  0  0  0  0  0  0
   45.8940   33.5170   39.3390 C   0  0  0  0  0  0  0  0  0  0  0  0
   44.6830   33.4190   38.7030 C   0  0  0  0  0  0  0  0  0  0  0  0
   43.5490   33.8340   39.3310 C   0  0  0  0  0  0  0  0  0  0  0  0
   43.6570   34.3520   40.6080 C   0  0  0  0  0  0  0  0  0  0  0  0
   44.6160   33.0110   37.7040 H   0  0  0  0  0  0  0  0  0  0  0  0
   42.6140   33.7460   38.8150 H   0  0  0  0  0  0  0  0  0  0  0  0
   42.7270   34.6690   41.0650 H   0  0  0  0  0  0  0  0  0  0  0  0
   49.3310   35.3840   41.8450 C   0  0  0  0  0  0  0  0  0  0  0  0
   48.1120   35.2680   41.1700 C   0  0  0  0  0  0  0  0  0  0  0  0
   47.2850   34.1660   41.3120 C   0  0  0  0  0  0  0  0  0  0  0  0
   47.7700   33.2450   42.1470 N   0  0  0  0  0  0  0  0  0  0  0  0
   48.9270   33.3310   42.8030 C   0  0  0  0  0  0  0  0  0  0  0  0
   49.7040   34.3960   42.6530 N   0  0  0  0  0  0  0  0  0  0  0  0
   49.9350   36.2510   41.7050 H   0  0  0  0  0  0  0  0  0  0  0  0
   47.8110   36.0840   40.5070 H   0  0  0  0  0  0  0  0  0  0  0  0
   49.0900   32.4480   43.4180 H   0  0  0  0  0  0  0  0  0  0  0  0
   46.7240   30.5590   39.5650 S   0  0  0  0  0  0  0  0  0  0  0  0
   47.1550   29.1600   39.0770 O   0  0  0  0  0  0  0  0  0  0  0  0
   47.3210   30.6320   40.9840 O   0  0  0  0  0  0  0  0  0  0  0  0
   45.0370   30.3690   39.6880 C   0  0  0  0  0  0  0  0  0  0  0  0
   44.0800   29.9980   38.7500 C   0  0  0  0  0  0  0  0  0  0  0  0
   44.4640   29.7880   37.7660 H   0  0  0  0  0  0  0  0  0  0  0  0
   42.7300   29.9070   38.9010 C   0  0  0  0  0  3  0  0  0  0  0  0
   42.2390   30.2200   40.1400 C   0  0  0  0  0  0  0  0  0  0  0  0
   40.9080   30.1440   40.3410 N   0  0  0  0  0  0  0  0  0  0  0  0
   40.3670   30.4460   41.5550 C   0  0  0  0  0  0  0  0  0  0  0  0
   39.2920   30.3730   41.6780 H   0  0  0  0  0  0  0  0  0  0  0  0
   41.1930   30.8380   42.6080 C   0  0  0  0  0  3  0  0  0  0  0  0
   42.5790   30.9360   42.4630 C   0  0  0  0  0  3  0  0  0  0  0  0
   43.0060   30.6080   41.1980 C   0  0  0  0  0  0  0  0  0  0  0  0
   44.3530   30.6570   40.9040 C   0  0  0  0  0  3  0  0  0  0  0  0
  1 30  1  0  0  0  0
  2  1  1  0  0  0  0
  2 14  1  0  0  0  0
  3  2  2  0  0  0  0
  4  5  2  0  0  0  0
  4  3  1  0  0  0  0
  5  6  1  0  0  0  0
  6 10  1  0  0  0  0
  6  1  2  0  0  0  0
  7  3  1  0  0  0  0
  8  4  1  0  0  0  0
  9  5  1  0  0  0  0
 12 11  1  0  0  0  0
 13 12  1  0  0  0  0
 13 23  1  0  0  0  0
 14 13  2  0  0  0  0
 15 16  2  0  0  0  0
 15 14  1  0  0  0  0
 16 17  1  0  0  0  0
 17 20  1  0  0  0  0
 17 12  2  0  0  0  0
 18 15  1  0  0  0  0
 19 16  1  0  0  0  0
 21 26  1  0  0  0  0
 22 23  1  0  0  0  0
 22 21  2  0  0  0  0
 23 24  2  0  0  0  0
 24 25  1  0  0  0  0
 25 29  1  0  0  0  0
 26 25  2  0  0  0  0
 27 21  1  0  0  0  0
 28 22  1  0  0  0  0
 30 33  1  0  0  0  0
 30 32  2  0  0  0  0
 31 30  2  0  0  0  0
 33 44  1  0  0  0  0
 34 36  1  0  0  0  0
 34 33  2  0  0  0  0
 35 34  1  0  0  0  0
 36 37  2  0  0  0  0
 37 38  1  0  0  0  0
 37 43  1  0  0  0  0
 38 39  2  0  0  0  0
 39 40  1  0  0  0  0
 39 41  1  0  0  0  0
 42 41  2  0  0  0  0
 43 42  1  0  0  0  0
 44 43  2  0  0  0  0
M  END
>  <minimizedAffinity>
-5.0630455

>  <minimizedRMSD>
1.85795689

$$$$
