
 OpenBabel03252509053D

 51 54  0  0  1  0  0  0  0  0999 V2000
   46.7530   34.3570   43.4740 N   0  0  0  0  0  0  0  0  0  0  0  0
   46.4670   34.9350   42.2130 C   0  0  0  0  0  0  0  0  0  0  0  0
   44.9930   34.9690   41.8510 C   0  0  0  0  0  0  0  0  0  0  0  0
   44.0710   35.1740   43.0280 C   0  0  0  0  0  0  0  0  0  0  0  0
   44.8440   35.3840   44.3170 C   0  0  0  0  0  0  0  0  0  0  0  0
   45.7590   34.1070   44.3910 C   0  0  2  0  0  0  0  0  0  0  0  0
   46.7850   36.0140   42.2490 H   0  0  0  0  0  0  0  0  0  0  0  0
   46.9810   34.5140   41.3460 H   0  0  0  0  0  0  0  0  0  0  0  0
   44.8210   35.6960   41.0440 H   0  0  0  0  0  0  0  0  0  0  0  0
   44.7470   33.9590   41.4440 H   0  0  0  0  0  0  0  0  0  0  0  0
   43.5000   36.1090   42.8540 H   0  0  0  0  0  0  0  0  0  0  0  0
   43.3580   34.3460   43.1860 H   0  0  0  0  0  0  0  0  0  0  0  0
   44.1410   35.3360   45.1600 H   0  0  0  0  0  0  0  0  0  0  0  0
   45.4920   36.2620   44.2750 H   0  0  0  0  0  0  0  0  0  0  0  0
   45.0710   33.2580   44.2080 H   0  0  0  0  0  0  0  0  0  0  0  0
   47.9440   33.5410   43.4960 C   0  0  0  0  0  0  0  0  0  0  0  0
   48.7560   34.1570   43.0330 H   0  0  0  0  0  0  0  0  0  0  0  0
   48.2240   33.2960   44.5360 H   0  0  0  0  0  0  0  0  0  0  0  0
   47.6950   32.3260   42.6740 C   0  0  0  0  0  0  0  0  0  0  0  0
   46.8040   32.4430   42.0170 H   0  0  0  0  0  0  0  0  0  0  0  0
   47.5070   31.4230   43.2860 H   0  0  0  0  0  0  0  0  0  0  0  0
   51.2200   32.1520   41.3870 C   0  0  0  0  0  0  0  0  0  0  0  0
   50.1150   32.3680   42.2290 C   0  0  0  0  0  0  0  0  0  0  0  0
   48.8560   32.0930   41.7720 C   0  0  0  0  0  0  0  0  0  0  0  0
   48.7420   31.6280   40.5300 N   0  0  0  0  0  0  0  0  0  0  0  0
   49.7800   31.4170   39.7170 C   0  0  0  0  0  0  0  0  0  0  0  0
   51.0410   31.6780   40.1350 N   0  0  0  0  0  0  0  0  0  0  0  0
   52.2180   32.3570   41.7130 H   0  0  0  0  0  0  0  0  0  0  0  0
   50.3360   32.7440   43.2040 H   0  0  0  0  0  0  0  0  0  0  0  0
   49.4620   31.0380   38.7570 H   0  0  0  0  0  0  0  0  0  0  0  0
   46.2070   34.1660   45.7000 O   0  0  0  0  0  0  0  0  0  0  0  0
   45.6280   31.5690   45.5750 O   0  0  0  0  0  0  0  0  0  0  0  0
   46.0690   32.7120   46.5110 P   0  0  2  0  0  0  0  0  0  0  0  0
   44.7440   32.8750   47.5970 O   0  0  0  0  0  0  0  0  0  0  0  0
   45.1220   33.1970   48.4590 H   0  0  0  0  0  0  0  0  0  0  0  0
   47.4010   32.2990   47.3990 O   0  0  0  0  0  0  0  0  0  0  0  0
   47.7170   30.9560   47.1690 C   0  0  0  0  0  0  0  0  0  0  0  0
   46.8500   30.2970   47.0810 H   0  0  0  0  0  0  0  0  0  0  0  0
   48.3280   30.8710   46.2280 H   0  0  0  0  0  0  0  0  0  0  0  0
   48.5840   30.5550   48.3150 C   0  0  0  0  0  0  0  0  0  0  0  0
   49.0480   31.3810   49.3180 C   0  0  0  0  0  0  0  0  0  0  0  0
   48.7450   32.4170   49.2540 H   0  0  0  0  0  0  0  0  0  0  0  0
   49.8470   30.8740   50.3220 C   0  0  0  0  0  3  0  0  0  0  0  0
   50.1670   29.5300   50.2950 C   0  0  0  0  0  0  0  0  0  0  0  0
   50.9350   28.9840   51.2350 N   0  0  0  0  0  0  0  0  0  0  0  0
   51.2800   27.6840   51.2630 C   0  0  0  0  0  0  0  0  0  0  0  0
   51.9010   27.2230   52.0170 H   0  0  0  0  0  0  0  0  0  0  0  0
   50.8380   26.8180   50.2780 C   0  0  0  0  0  3  0  0  0  0  0  0
   50.0420   27.3220   49.2770 C   0  0  0  0  0  3  0  0  0  0  0  0
   49.7300   28.6650   49.3160 C   0  0  0  0  0  0  0  0  0  0  0  0
   48.9230   29.1970   48.3100 C   0  0  0  0  0  3  0  0  0  0  0  0
  1 16  1  0  0  0  0
  1  6  1  0  0  0  0
  2  7  1  0  0  0  0
  2  1  1  0  0  0  0
  3  2  1  0  0  0  0
  3  4  1  0  0  0  0
  4 12  1  0  0  0  0
  4  5  1  0  0  0  0
  5  6  1  0  0  0  0
  5 13  1  0  0  0  0
  6 15  1  6  0  0  0
  6 31  1  0  0  0  0
  8  2  1  0  0  0  0
  9  3  1  0  0  0  0
 10  3  1  0  0  0  0
 11  4  1  0  0  0  0
 14  5  1  0  0  0  0
 16 18  1  0  0  0  0
 17 16  1  0  0  0  0
 19 21  1  0  0  0  0
 19 16  1  0  0  0  0
 20 19  1  0  0  0  0
 22 28  1  0  0  0  0
 22 23  1  0  0  0  0
 23 29  1  0  0  0  0
 24 23  2  0  0  0  0
 24 19  1  0  0  0  0
 25 24  1  0  0  0  0
 26 27  1  0  0  0  0
 26 25  2  0  0  0  0
 27 22  2  0  0  0  0
 30 26  1  0  0  0  0
 31 33  1  0  0  0  0
 33 32  2  6  0  0  0
 33 36  1  0  0  0  0
 33 34  1  0  0  0  0
 34 35  1  0  0  0  0
 37 36  1  0  0  0  0
 37 40  1  0  0  0  0
 38 37  1  0  0  0  0
 39 37  1  0  0  0  0
 40 41  1  0  0  0  0
 41 43  2  0  0  0  0
 42 41  1  0  0  0  0
 44 43  1  0  0  0  0
 44 45  1  0  0  0  0
 45 46  2  0  0  0  0
 46 47  1  0  0  0  0
 48 46  1  0  0  0  0
 49 50  1  0  0  0  0
 49 48  2  0  0  0  0
 50 44  2  0  0  0  0
 51 40  2  0  0  0  0
 51 50  1  0  0  0  0
M  END
>  <minimizedAffinity>
-5.68187332

>  <minimizedRMSD>
3.34030008

$$$$
