
     RDKit          3D

 35 38  0  0  0  0  0  0  0  0999 V2000
   44.9632   36.0019   43.2771 Cl  0  0  0  0  0  0  0  0  0  0  0  0
   45.6739   34.6859   44.1585 C   0  0  0  0  0  0  0  0  0  0  0  0
   46.7010   33.9513   43.6113 C   0  0  0  0  0  0  0  0  0  0  0  0
   47.1956   32.9340   44.3915 C   0  0  0  0  0  0  0  0  0  0  0  0
   46.7392   32.6128   45.6535 C   0  0  0  0  0  0  0  0  0  0  0  0
   45.7126   33.3669   46.1689 C   0  0  0  0  0  0  0  0  0  0  0  0
   45.1575   32.9316   47.7735 Cl  0  0  0  0  0  0  0  0  0  0  0  0
   45.1834   34.3938   45.4309 C   0  0  0  0  0  0  0  0  0  0  0  0
   48.7565   35.3926   40.9669 C   0  0  0  0  0  0  0  0  0  0  0  0
   48.2665   34.7996   39.8069 C   0  0  0  0  0  0  0  0  0  0  0  0
   47.1947   33.8729   39.9281 C   0  0  0  0  0  0  0  0  0  0  0  0
   46.7304   33.6385   41.1800 N   0  0  0  0  0  0  0  0  0  0  0  0
   47.2324   34.2341   42.2829 C   0  0  0  0  0  0  0  0  0  0  0  0
   48.2460   35.1121   42.1801 N   0  0  0  0  0  0  0  0  0  0  0  0
   48.0136   32.3560   43.9447 H   0  0  0  0  0  0  0  0  0  0  0  0
   44.3759   34.9612   45.8767 H   0  0  0  0  0  0  0  0  0  0  0  0
   49.5822   36.1112   40.9072 H   0  0  0  0  0  0  0  0  0  0  0  0
   48.6838   35.0318   38.8368 H   0  0  0  0  0  0  0  0  0  0  0  0
   46.7858   33.3926   39.0655 H   0  0  0  0  0  0  0  0  0  0  0  0
   47.3961   31.4921   46.3276 C   0  0  0  0  0  0  0  0  0  0  0  0
   48.7643   31.3278   46.3552 C   0  0  0  0  0  0  0  0  0  0  0  0
   49.4008   32.0471   45.8634 H   0  0  0  0  0  0  0  0  0  0  0  0
   49.4055   30.2806   46.9835 C   0  0  0  0  0  0  0  0  0  0  0  0
   48.6471   29.3288   47.6297 C   0  0  0  0  0  0  0  0  0  0  0  0
   49.2860   28.3165   48.2360 N   0  0  0  0  0  0  0  0  0  0  0  0
   48.6275   27.3376   48.8936 C   0  0  0  0  0  0  0  0  0  0  0  0
   49.2545   26.5746   49.3425 H   0  0  0  0  0  0  0  0  0  0  0  0
   47.2405   27.4296   48.9129 C   0  0  0  0  0  0  0  0  0  0  0  0
   46.5897   28.4611   48.2952 C   0  0  0  0  0  0  0  0  0  0  0  0
   47.2814   29.4506   47.6289 C   0  0  0  0  0  0  0  0  0  0  0  0
   46.6628   30.5096   46.9918 C   0  0  0  0  0  0  0  0  0  0  0  0
   50.4820   30.1828   46.9853 H   0  0  0  0  0  0  0  0  0  0  0  0
   46.7584   26.6216   49.4525 H   0  0  0  0  0  0  0  0  0  0  0  0
   45.5093   28.4943   48.3346 H   0  0  0  0  0  0  0  0  0  0  0  0
   45.5817   30.5616   47.0194 H   0  0  0  0  0  0  0  0  0  0  0  0
  1  2  1  0
  2  8  2  0
  3  2  1  0
  3  4  2  0
  4  5  1  0
  5  6  2  0
  6  7  1  0
  8  6  1  0
  9 14  2  0
 10 11  2  0
 10  9  1  0
 11 12  1  0
 12 13  2  0
 13  3  1  0
 14 13  1  0
  4 15  1  0
  8 16  1  0
  9 17  1  0
 10 18  1  0
 11 19  1  0
 20 21  2  0
 21 22  1  0
 21 23  1  0
 23 24  2  0
 24 25  1  0
 25 26  2  0
 26 27  1  0
 26 28  1  0
 28 29  2  0
 29 30  1  0
 30 31  2  0
 31 20  1  0
 30 24  1  0
 23 32  1  0
 28 33  1  0
 29 34  1  0
 31 35  1  0
  5 20  1  0
M  ISO  7  15  14  16  14  17  14  18  14  19  14  22  16  27  16
M  END
>  <DihAtoms>  (1) 
3,4,19,20

>  <DihDeg>  (1) 
-134.98470899261721

$$$$
