
 OpenBabel03242521573D

 51 56  0  0  0  0  0  0  0  0999 V2000
   37.0640   25.8960   40.9360 C   0  0  0  0  0  0  0  0  0  0  0  0
   37.1240   24.5950   41.4310 C   0  0  0  0  0  0  0  0  0  0  0  0
   36.6840   23.4830   40.7030 C   0  0  0  0  0  0  0  0  0  0  0  0
   36.1680   23.6340   39.4460 C   0  0  0  0  0  0  0  0  0  0  0  0
   36.0880   24.9430   38.9220 C   0  0  0  0  0  0  0  0  0  0  0  0
   35.5180   25.0560   37.6960 C   0  0  0  0  0  0  0  0  0  0  0  0
   35.3550   26.3460   37.1830 C   0  0  0  0  0  0  0  0  0  0  0  0
   35.7890   27.4640   37.9790 C   0  0  0  0  0  0  0  0  0  0  0  0
   36.3470   27.1790   39.2040 C   0  0  0  0  0  0  0  0  0  0  0  0
   36.5470   25.9840   39.7330 C   0  0  0  0  0  0  0  0  0  0  0  0
   37.5390   24.4620   42.4430 H   0  0  0  0  0  0  0  0  0  0  0  0
   36.7760   22.5130   41.1860 H   0  0  0  0  0  0  0  0  0  0  0  0
   35.8430   22.7700   38.9010 H   0  0  0  0  0  0  0  0  0  0  0  0
   35.2060   24.1820   37.1430 H   0  0  0  0  0  0  0  0  0  0  0  0
   34.9020   26.3600   36.2050 H   0  0  0  0  0  0  0  0  0  0  0  0
   35.5420   28.3020   37.3450 H   0  0  0  0  0  0  0  0  0  0  0  0
   37.2570   29.3180   39.0150 C   0  0  0  0  0  0  0  0  0  0  0  0
   36.2090   28.5460   39.6560 C   0  0  0  0  0  0  0  0  0  0  0  0
   35.5560   29.2920   40.5440 C   0  0  0  0  0  0  0  0  0  0  0  0
   35.8190   30.6130   40.8420 C   0  0  0  0  0  0  0  0  0  0  0  0
   36.8200   31.3220   40.2240 C   0  0  0  0  0  0  0  0  0  0  0  0
   37.5430   30.6390   39.2910 C   0  0  0  0  0  0  0  0  0  0  0  0
   34.7850   28.6320   40.9730 H   0  0  0  0  0  0  0  0  0  0  0  0
   35.1660   31.0260   41.5980 H   0  0  0  0  0  0  0  0  0  0  0  0
   36.9750   32.3550   40.5050 H   0  0  0  0  0  0  0  0  0  0  0  0
   38.1510   28.8550   38.0110 O   0  0  0  0  0  0  0  0  0  0  0  0
   38.0100   29.2760   37.0900 H   0  0  0  0  0  0  0  0  0  0  0  0
   38.5370   31.4030   38.7050 O   0  0  0  0  0  0  0  0  0  0  0  0
   39.5840   31.9480   39.3850 C   0  0  0  0  0  0  0  0  0  0  0  0
   40.5320   31.0500   39.8800 C   0  0  0  0  0  0  0  0  0  0  0  0
   40.4540   29.9770   39.7420 H   0  0  0  0  0  0  0  0  0  0  0  0
   41.6360   31.4730   40.5840 C   0  0  0  0  0  3  0  0  0  0  0  0
   41.8430   32.8240   40.8240 C   0  0  0  0  0  0  0  0  0  0  0  0
   42.9010   33.2480   41.4990 N   0  0  0  0  0  0  0  0  0  0  0  0
   43.1140   34.5520   41.7390 C   0  0  0  0  0  0  0  0  0  0  0  0
   43.9800   34.8760   42.2900 H   0  0  0  0  0  0  0  0  0  0  0  0
   42.2000   35.4740   41.2660 C   0  0  0  0  0  3  0  0  0  0  0  0
   41.0860   35.0640   40.5580 C   0  0  0  0  0  3  0  0  0  0  0  0
   40.9120   33.7160   40.3380 C   0  0  0  0  0  0  0  0  0  0  0  0
   39.8130   33.2850   39.6370 C   0  0  0  0  0  3  0  0  0  0  0  0
   39.2460   28.6970   42.0870 C   0  0  0  0  0  0  0  0  0  0  0  0
   38.5420   29.0880   43.2510 C   0  0  0  0  0  0  0  0  0  0  0  0
   37.4160   28.3580   43.5560 C   0  0  0  0  0  0  0  0  0  0  0  0
   37.1290   27.3740   42.7100 N   0  0  0  0  0  0  0  0  0  0  0  0
   37.7610   26.9800   41.6100 C   0  0  0  0  0  0  0  0  0  0  0  0
   38.8270   27.6740   41.3340 N   0  0  0  0  0  0  0  0  0  0  0  0
   40.1320   29.2480   41.8210 H   0  0  0  0  0  0  0  0  0  0  0  0
   38.8610   29.9070   43.8690 H   0  0  0  0  0  0  0  0  0  0  0  0
   36.6520   28.5980   44.7270 N   0  0  0  0  0  0  0  0  0  0  0  0
   35.6420   28.8660   44.7460 H   0  0  0  0  0  0  0  0  0  0  0  0
   36.9770   28.5440   45.7170 H   0  0  0  0  0  0  0  0  0  0  0  0
  1  2  1  0  0  0  0
  1 45  1  0  0  0  0
  2 11  1  0  0  0  0
  3 12  1  0  0  0  0
  3  2  2  0  0  0  0
  4  3  1  0  0  0  0
  5  4  2  0  0  0  0
  5 10  1  0  0  0  0
  6  5  1  0  0  0  0
  7  6  2  0  0  0  0
  7  8  1  0  0  0  0
  8  9  2  0  0  0  0
  9 18  1  0  0  0  0
  9 10  1  0  0  0  0
 10  1  2  0  0  0  0
 13  4  1  0  0  0  0
 14  6  1  0  0  0  0
 15  7  1  0  0  0  0
 16  8  1  0  0  0  0
 17 22  2  0  0  0  0
 17 18  1  0  0  0  0
 18 19  2  0  0  0  0
 19 20  1  0  0  0  0
 19 23  1  0  0  0  0
 20 24  1  0  0  0  0
 21 25  1  0  0  0  0
 21 20  2  0  0  0  0
 22 21  1  0  0  0  0
 26 17  1  0  0  0  0
 27 26  1  0  0  0  0
 28 22  1  0  0  0  0
 28 29  1  0  0  0  0
 29 40  2  0  0  0  0
 29 30  1  0  0  0  0
 30 32  2  0  0  0  0
 31 30  1  0  0  0  0
 32 33  1  0  0  0  0
 33 34  1  0  0  0  0
 34 35  2  0  0  0  0
 35 36  1  0  0  0  0
 37 35  1  0  0  0  0
 38 37  2  0  0  0  0
 39 38  1  0  0  0  0
 39 33  2  0  0  0  0
 40 39  1  0  0  0  0
 41 42  1  0  0  0  0
 42 43  2  0  0  0  0
 42 48  1  0  0  0  0
 43 49  1  0  0  0  0
 44 43  1  0  0  0  0
 45 44  2  0  0  0  0
 46 45  1  0  0  0  0
 46 41  2  0  0  0  0
 47 41  1  0  0  0  0
 49 50  1  0  0  0  0
 49 51  1  0  0  0  0
M  END
>  <minimizedAffinity>
-8.36163044

$$$$

 OpenBabel03242521573D

 51 56  0  0  0  0  0  0  0  0999 V2000
   36.6570   26.9700   39.9270 C   0  0  0  0  0  0  0  0  0  0  0  0
   36.7190   25.5810   39.8480 C   0  0  0  0  0  0  0  0  0  0  0  0
   36.9940   24.7670   40.9540 C   0  0  0  0  0  0  0  0  0  0  0  0
   37.2150   25.3180   42.1850 C   0  0  0  0  0  0  0  0  0  0  0  0
   37.1650   26.7250   42.2940 C   0  0  0  0  0  0  0  0  0  0  0  0
   37.4470   27.2350   43.5190 C   0  0  0  0  0  0  0  0  0  0  0  0
   37.4810   28.6280   43.6400 C   0  0  0  0  0  0  0  0  0  0  0  0
   37.2280   29.4270   42.4700 C   0  0  0  0  0  0  0  0  0  0  0  0
   36.9590   28.7540   41.3000 C   0  0  0  0  0  0  0  0  0  0  0  0
   36.8920   27.4450   41.1280 C   0  0  0  0  0  0  0  0  0  0  0  0
   36.5410   25.1260   38.8600 H   0  0  0  0  0  0  0  0  0  0  0  0
   37.0190   23.6930   40.7790 H   0  0  0  0  0  0  0  0  0  0  0  0
   37.4170   24.6790   43.0220 H   0  0  0  0  0  0  0  0  0  0  0  0
   37.6340   26.5880   44.3630 H   0  0  0  0  0  0  0  0  0  0  0  0
   37.7040   28.9610   44.6410 H   0  0  0  0  0  0  0  0  0  0  0  0
   37.3200   30.4300   42.8580 H   0  0  0  0  0  0  0  0  0  0  0  0
   38.6080   30.0070   40.2260 C   0  0  0  0  0  0  0  0  0  0  0  0
   37.1840   29.9350   40.4950 C   0  0  0  0  0  0  0  0  0  0  0  0
   36.5690   31.0270   40.0470 C   0  0  0  0  0  0  0  0  0  0  0  0
   37.1720   32.0970   39.4190 C   0  0  0  0  0  0  0  0  0  0  0  0
   38.5230   32.1440   39.1790 C   0  0  0  0  0  0  0  0  0  0  0  0
   39.2400   31.0620   39.6000 C   0  0  0  0  0  0  0  0  0  0  0  0
   35.5030   30.8840   40.2880 H   0  0  0  0  0  0  0  0  0  0  0  0
   36.4830   32.8800   39.1390 H   0  0  0  0  0  0  0  0  0  0  0  0
   38.9340   33.0130   38.6840 H   0  0  0  0  0  0  0  0  0  0  0  0
   39.5780   29.0210   40.5540 O   0  0  0  0  0  0  0  0  0  0  0  0
   39.9890   28.5450   39.7480 H   0  0  0  0  0  0  0  0  0  0  0  0
   40.5930   31.1670   39.3340 O   0  0  0  0  0  0  0  0  0  0  0  0
   41.4900   31.7790   40.1570 C   0  0  0  0  0  0  0  0  0  0  0  0
   42.3770   30.9400   40.8340 C   0  0  0  0  0  0  0  0  0  0  0  0
   42.3670   29.8610   40.7240 H   0  0  0  0  0  0  0  0  0  0  0  0
   43.3310   31.4330   41.6940 C   0  0  0  0  0  3  0  0  0  0  0  0
   43.4410   32.7980   41.9160 C   0  0  0  0  0  0  0  0  0  0  0  0
   44.3530   33.2900   42.7410 N   0  0  0  0  0  0  0  0  0  0  0  0
   44.4700   34.6080   42.9650 C   0  0  0  0  0  0  0  0  0  0  0  0
   45.2190   34.9880   43.6400 H   0  0  0  0  0  0  0  0  0  0  0  0
   43.6110   35.4730   42.3140 C   0  0  0  0  0  3  0  0  0  0  0  0
   42.6490   34.9920   41.4490 C   0  0  0  0  0  3  0  0  0  0  0  0
   42.5680   33.6330   41.2510 C   0  0  0  0  0  0  0  0  0  0  0  0
   41.6190   33.1320   40.3950 C   0  0  0  0  0  3  0  0  0  0  0  0
   34.7320   29.0820   37.5260 C   0  0  0  0  0  0  0  0  0  0  0  0
   35.7200   29.2780   36.5320 C   0  0  0  0  0  0  0  0  0  0  0  0
   36.9320   28.6620   36.7470 C   0  0  0  0  0  0  0  0  0  0  0  0
   37.0210   27.9580   37.8720 N   0  0  0  0  0  0  0  0  0  0  0  0
   36.1200   27.7530   38.8260 C   0  0  0  0  0  0  0  0  0  0  0  0
   34.9770   28.3370   38.6100 N   0  0  0  0  0  0  0  0  0  0  0  0
   33.7720   29.5500   37.3870 H   0  0  0  0  0  0  0  0  0  0  0  0
   35.5450   29.8740   35.6560 H   0  0  0  0  0  0  0  0  0  0  0  0
   37.9890   28.7210   35.8040 N   0  0  0  0  0  0  0  0  0  0  0  0
   38.9400   29.1160   35.9850 H   0  0  0  0  0  0  0  0  0  0  0  0
   37.9750   28.3880   34.8150 H   0  0  0  0  0  0  0  0  0  0  0  0
  1 10  1  0  0  0  0
  2  1  2  0  0  0  0
  2  3  1  0  0  0  0
  3  4  2  0  0  0  0
  4  5  1  0  0  0  0
  4 13  1  0  0  0  0
  5  6  1  0  0  0  0
  6  7  2  0  0  0  0
  6 14  1  0  0  0  0
  7 15  1  0  0  0  0
  8 16  1  0  0  0  0
  8  7  1  0  0  0  0
  9  8  2  0  0  0  0
 10  9  1  0  0  0  0
 10  5  2  0  0  0  0
 11  2  1  0  0  0  0
 12  3  1  0  0  0  0
 17 18  1  0  0  0  0
 17 26  1  0  0  0  0
 18  9  1  0  0  0  0
 19 23  1  0  0  0  0
 19 18  2  0  0  0  0
 20 19  1  0  0  0  0
 21 20  2  0  0  0  0
 21 22  1  0  0  0  0
 22 17  2  0  0  0  0
 24 20  1  0  0  0  0
 25 21  1  0  0  0  0
 27 26  1  0  0  0  0
 28 22  1  0  0  0  0
 28 29  1  0  0  0  0
 29 40  2  0  0  0  0
 29 30  1  0  0  0  0
 30 32  2  0  0  0  0
 31 30  1  0  0  0  0
 32 33  1  0  0  0  0
 33 34  1  0  0  0  0
 34 35  2  0  0  0  0
 35 36  1  0  0  0  0
 37 35  1  0  0  0  0
 38 37  2  0  0  0  0
 39 38  1  0  0  0  0
 39 33  2  0  0  0  0
 40 39  1  0  0  0  0
 41 46  1  0  0  0  0
 42 43  1  0  0  0  0
 42 41  2  0  0  0  0
 43 44  2  0  0  0  0
 44 45  1  0  0  0  0
 45  1  1  0  0  0  0
 46 45  2  0  0  0  0
 47 41  1  0  0  0  0
 48 42  1  0  0  0  0
 49 50  1  0  0  0  0
 49 43  1  0  0  0  0
 51 49  1  0  0  0  0
M  END
>  <minimizedAffinity>
-8.06228828

$$$$

 OpenBabel03242521573D

 51 56  0  0  0  0  0  0  0  0999 V2000
   40.8350   32.0730   38.2590 C   0  0  0  0  0  0  0  0  0  0  0  0
   41.9100   32.2590   37.3920 C   0  0  0  0  0  0  0  0  0  0  0  0
   42.6170   33.4650   37.3030 C   0  0  0  0  0  0  0  0  0  0  0  0
   42.2730   34.5320   38.0850 C   0  0  0  0  0  0  0  0  0  0  0  0
   41.1830   34.3740   38.9690 C   0  0  0  0  0  0  0  0  0  0  0  0
   40.8370   35.4730   39.6850 C   0  0  0  0  0  0  0  0  0  0  0  0
   39.7140   35.3720   40.5120 C   0  0  0  0  0  0  0  0  0  0  0  0
   38.9950   34.1260   40.5460 C   0  0  0  0  0  0  0  0  0  0  0  0
   39.4750   33.1060   39.7570 C   0  0  0  0  0  0  0  0  0  0  0  0
   40.5400   33.1340   38.9740 C   0  0  0  0  0  0  0  0  0  0  0  0
   42.1950   31.4040   36.7570 H   0  0  0  0  0  0  0  0  0  0  0  0
   43.4380   33.5000   36.5910 H   0  0  0  0  0  0  0  0  0  0  0  0
   42.8300   35.4440   38.0090 H   0  0  0  0  0  0  0  0  0  0  0  0
   41.4110   36.3870   39.6170 H   0  0  0  0  0  0  0  0  0  0  0  0
   39.5040   36.2800   41.0540 H   0  0  0  0  0  0  0  0  0  0  0  0
   38.2040   34.3420   41.2480 H   0  0  0  0  0  0  0  0  0  0  0  0
   38.3740   31.5070   41.0510 C   0  0  0  0  0  0  0  0  0  0  0  0
   38.2470   32.3510   39.8770 C   0  0  0  0  0  0  0  0  0  0  0  0
   37.1260   32.0670   39.2170 C   0  0  0  0  0  0  0  0  0  0  0  0
   36.1990   31.1080   39.5690 C   0  0  0  0  0  0  0  0  0  0  0  0
   36.3440   30.3180   40.6830 C   0  0  0  0  0  0  0  0  0  0  0  0
   37.4650   30.5400   41.4280 C   0  0  0  0  0  0  0  0  0  0  0  0
   37.1110   32.7510   38.3530 H   0  0  0  0  0  0  0  0  0  0  0  0
   35.3620   31.0430   38.8890 H   0  0  0  0  0  0  0  0  0  0  0  0
   35.5820   29.5830   40.9020 H   0  0  0  0  0  0  0  0  0  0  0  0
   39.4360   31.5330   41.9950 O   0  0  0  0  0  0  0  0  0  0  0  0
   39.1720   31.8730   42.9220 H   0  0  0  0  0  0  0  0  0  0  0  0
   37.5570   29.7150   42.5350 O   0  0  0  0  0  0  0  0  0  0  0  0
   37.8480   28.3860   42.4760 C   0  0  0  0  0  0  0  0  0  0  0  0
   38.8940   27.9480   43.2900 C   0  0  0  0  0  0  0  0  0  0  0  0
   39.4550   28.6140   43.9370 H   0  0  0  0  0  0  0  0  0  0  0  0
   39.2870   26.6290   43.3230 C   0  0  0  0  0  3  0  0  0  0  0  0
   38.6440   25.6840   42.5380 C   0  0  0  0  0  0  0  0  0  0  0  0
   39.0090   24.4100   42.5570 N   0  0  0  0  0  0  0  0  0  0  0  0
   38.3960   23.4840   41.8020 C   0  0  0  0  0  0  0  0  0  0  0  0
   38.7080   22.4540   41.8320 H   0  0  0  0  0  0  0  0  0  0  0  0
   37.3540   23.8770   40.9820 C   0  0  0  0  0  3  0  0  0  0  0  0
   36.9500   25.1970   40.9390 C   0  0  0  0  0  3  0  0  0  0  0  0
   37.6100   26.1090   41.7320 C   0  0  0  0  0  0  0  0  0  0  0  0
   37.2250   27.4260   41.7050 C   0  0  0  0  0  3  0  0  0  0  0  0
   39.0920   28.7740   38.3080 C   0  0  0  0  0  0  0  0  0  0  0  0
   39.8170   28.1330   39.3410 C   0  0  0  0  0  0  0  0  0  0  0  0
   40.8060   28.8770   39.9440 C   0  0  0  0  0  0  0  0  0  0  0  0
   40.9570   30.1110   39.4710 N   0  0  0  0  0  0  0  0  0  0  0  0
   40.3000   30.7440   38.5050 C   0  0  0  0  0  0  0  0  0  0  0  0
   39.3650   30.0320   37.9460 N   0  0  0  0  0  0  0  0  0  0  0  0
   38.3100   28.2190   37.8170 H   0  0  0  0  0  0  0  0  0  0  0  0
   39.6150   27.1230   39.6450 H   0  0  0  0  0  0  0  0  0  0  0  0
   41.5660   28.3840   41.0340 N   0  0  0  0  0  0  0  0  0  0  0  0
   42.6050   28.2690   41.0440 H   0  0  0  0  0  0  0  0  0  0  0  0
   41.2100   28.0720   41.9640 H   0  0  0  0  0  0  0  0  0  0  0  0
  1 45  1  0  0  0  0
  1 10  1  0  0  0  0
  2  1  2  0  0  0  0
  3  2  1  0  0  0  0
  3  4  2  0  0  0  0
  4  5  1  0  0  0  0
  5 10  2  0  0  0  0
  5  6  1  0  0  0  0
  6  7  2  0  0  0  0
  7  8  1  0  0  0  0
  7 15  1  0  0  0  0
  8 16  1  0  0  0  0
  9 18  1  0  0  0  0
  9  8  2  0  0  0  0
 10  9  1  0  0  0  0
 11  2  1  0  0  0  0
 12  3  1  0  0  0  0
 13  4  1  0  0  0  0
 14  6  1  0  0  0  0
 17 22  1  0  0  0  0
 17 26  1  0  0  0  0
 18 17  2  0  0  0  0
 19 20  2  0  0  0  0
 19 18  1  0  0  0  0
 20 21  1  0  0  0  0
 21 25  1  0  0  0  0
 21 22  2  0  0  0  0
 22 28  1  0  0  0  0
 23 19  1  0  0  0  0
 24 20  1  0  0  0  0
 26 27  1  0  0  0  0
 29 28  1  0  0  0  0
 29 30  1  0  0  0  0
 30 32  2  0  0  0  0
 30 31  1  0  0  0  0
 33 34  1  0  0  0  0
 33 32  1  0  0  0  0
 35 36  1  0  0  0  0
 35 34  2  0  0  0  0
 37 35  1  0  0  0  0
 38 37  2  0  0  0  0
 38 39  1  0  0  0  0
 39 33  2  0  0  0  0
 40 39  1  0  0  0  0
 40 29  2  0  0  0  0
 41 42  1  0  0  0  0
 42 48  1  0  0  0  0
 42 43  2  0  0  0  0
 43 49  1  0  0  0  0
 44 43  1  0  0  0  0
 45 44  2  0  0  0  0
 46 41  2  0  0  0  0
 46 45  1  0  0  0  0
 47 41  1  0  0  0  0
 49 50  1  0  0  0  0
 49 51  1  0  0  0  0
M  END
>  <minimizedAffinity>
-7.95364952

$$$$

 OpenBabel03242521573D

 51 56  0  0  0  0  0  0  0  0999 V2000
   36.6880   26.9530   39.9260 C   0  0  0  0  0  0  0  0  0  0  0  0
   36.7010   25.5630   39.8500 C   0  0  0  0  0  0  0  0  0  0  0  0
   36.8970   24.7410   40.9670 C   0  0  0  0  0  0  0  0  0  0  0  0
   37.0860   25.2850   42.2060 C   0  0  0  0  0  0  0  0  0  0  0  0
   37.0850   26.6930   42.3120 C   0  0  0  0  0  0  0  0  0  0  0  0
   37.3330   27.1940   43.5480 C   0  0  0  0  0  0  0  0  0  0  0  0
   37.4140   28.5850   43.6710 C   0  0  0  0  0  0  0  0  0  0  0  0
   37.2410   29.3910   42.4920 C   0  0  0  0  0  0  0  0  0  0  0  0
   36.9980   28.7270   41.3110 C   0  0  0  0  0  0  0  0  0  0  0  0
   36.8890   27.4210   41.1360 C   0  0  0  0  0  0  0  0  0  0  0  0
   36.5490   25.1130   38.8550 H   0  0  0  0  0  0  0  0  0  0  0  0
   36.8900   23.6670   40.7920 H   0  0  0  0  0  0  0  0  0  0  0  0
   37.2280   24.6400   43.0510 H   0  0  0  0  0  0  0  0  0  0  0  0
   37.4600   26.5410   44.4000 H   0  0  0  0  0  0  0  0  0  0  0  0
   37.6060   28.9110   44.6800 H   0  0  0  0  0  0  0  0  0  0  0  0
   37.3550   30.3900   42.8840 H   0  0  0  0  0  0  0  0  0  0  0  0
   38.7460   30.0290   40.4800 C   0  0  0  0  0  0  0  0  0  0  0  0
   37.3010   29.8970   40.5170 C   0  0  0  0  0  0  0  0  0  0  0  0
   36.7220   30.9480   39.9410 C   0  0  0  0  0  0  0  0  0  0  0  0
   37.3740   32.0290   39.3850 C   0  0  0  0  0  0  0  0  0  0  0  0
   38.7430   32.1340   39.3670 C   0  0  0  0  0  0  0  0  0  0  0  0
   39.4260   31.0980   39.9330 C   0  0  0  0  0  0  0  0  0  0  0  0
   35.6380   30.7610   40.0090 H   0  0  0  0  0  0  0  0  0  0  0  0
   36.7070   32.7730   38.9730 H   0  0  0  0  0  0  0  0  0  0  0  0
   39.1920   33.0090   38.9170 H   0  0  0  0  0  0  0  0  0  0  0  0
   39.6900   29.0980   40.9930 O   0  0  0  0  0  0  0  0  0  0  0  0
   40.2470   28.6230   40.2790 H   0  0  0  0  0  0  0  0  0  0  0  0
   40.7990   31.2600   39.8860 O   0  0  0  0  0  0  0  0  0  0  0  0
   41.5660   30.9850   38.7940 C   0  0  0  0  0  0  0  0  0  0  0  0
   41.0460   30.0510   37.8950 C   0  0  0  0  0  0  0  0  0  0  0  0
   40.0880   29.5630   38.0420 H   0  0  0  0  0  0  0  0  0  0  0  0
   41.7230   29.6870   36.7530 C   0  0  0  0  0  3  0  0  0  0  0  0
   42.9580   30.2450   36.4590 C   0  0  0  0  0  0  0  0  0  0  0  0
   43.6220   29.9050   35.3640 N   0  0  0  0  0  0  0  0  0  0  0  0
   44.8190   30.4370   35.0670 C   0  0  0  0  0  0  0  0  0  0  0  0
   45.3430   30.1470   34.1720 H   0  0  0  0  0  0  0  0  0  0  0  0
   45.3690   31.3640   35.9310 C   0  0  0  0  0  3  0  0  0  0  0  0
   44.7010   31.7390   37.0800 C   0  0  0  0  0  3  0  0  0  0  0  0
   43.4770   31.1670   37.3420 C   0  0  0  0  0  0  0  0  0  0  0  0
   42.7960   31.5240   38.4780 C   0  0  0  0  0  3  0  0  0  0  0  0
   34.9410   29.1180   37.4380 C   0  0  0  0  0  0  0  0  0  0  0  0
   35.9870   29.3030   36.5030 C   0  0  0  0  0  0  0  0  0  0  0  0
   37.1730   28.6630   36.7810 C   0  0  0  0  0  0  0  0  0  0  0  0
   37.1850   27.9500   37.9030 N   0  0  0  0  0  0  0  0  0  0  0  0
   36.2280   27.7550   38.8040 C   0  0  0  0  0  0  0  0  0  0  0  0
   35.1100   28.3620   38.5280 N   0  0  0  0  0  0  0  0  0  0  0  0
   33.9990   29.6060   37.2500 H   0  0  0  0  0  0  0  0  0  0  0  0
   35.8720   29.9090   35.6230 H   0  0  0  0  0  0  0  0  0  0  0  0
   38.2820   28.7090   35.8990 N   0  0  0  0  0  0  0  0  0  0  0  0
   39.2290   29.0840   36.1370 H   0  0  0  0  0  0  0  0  0  0  0  0
   38.3170   28.3830   34.9080 H   0  0  0  0  0  0  0  0  0  0  0  0
  1 10  1  0  0  0  0
  2  1  2  0  0  0  0
  2  3  1  0  0  0  0
  3  4  2  0  0  0  0
  4  5  1  0  0  0  0
  4 13  1  0  0  0  0
  5  6  1  0  0  0  0
  6  7  2  0  0  0  0
  6 14  1  0  0  0  0
  7 15  1  0  0  0  0
  8 16  1  0  0  0  0
  8  7  1  0  0  0  0
  9  8  2  0  0  0  0
 10  9  1  0  0  0  0
 10  5  2  0  0  0  0
 11  2  1  0  0  0  0
 12  3  1  0  0  0  0
 17 18  1  0  0  0  0
 17 26  1  0  0  0  0
 18  9  1  0  0  0  0
 19 23  1  0  0  0  0
 19 18  2  0  0  0  0
 20 19  1  0  0  0  0
 21 20  2  0  0  0  0
 21 22  1  0  0  0  0
 22 17  2  0  0  0  0
 24 20  1  0  0  0  0
 25 21  1  0  0  0  0
 27 26  1  0  0  0  0
 28 22  1  0  0  0  0
 29 28  1  0  0  0  0
 30 31  1  0  0  0  0
 30 29  2  0  0  0  0
 32 30  1  0  0  0  0
 33 32  2  0  0  0  0
 33 39  1  0  0  0  0
 34 33  1  0  0  0  0
 35 34  2  0  0  0  0
 35 37  1  0  0  0  0
 36 35  1  0  0  0  0
 37 38  2  0  0  0  0
 38 39  1  0  0  0  0
 39 40  2  0  0  0  0
 40 29  1  0  0  0  0
 41 46  1  0  0  0  0
 42 43  1  0  0  0  0
 42 41  2  0  0  0  0
 43 44  2  0  0  0  0
 44 45  1  0  0  0  0
 45  1  1  0  0  0  0
 46 45  2  0  0  0  0
 47 41  1  0  0  0  0
 48 42  1  0  0  0  0
 49 50  1  0  0  0  0
 49 43  1  0  0  0  0
 51 49  1  0  0  0  0
M  END
>  <minimizedAffinity>
-7.87279844

$$$$

 OpenBabel03242521573D

 51 56  0  0  0  0  0  0  0  0999 V2000
   36.7330   26.9920   39.7000 C   0  0  0  0  0  0  0  0  0  0  0  0
   36.7660   25.6010   39.6310 C   0  0  0  0  0  0  0  0  0  0  0  0
   36.9510   24.7870   40.7560 C   0  0  0  0  0  0  0  0  0  0  0  0
   37.1070   25.3400   41.9960 C   0  0  0  0  0  0  0  0  0  0  0  0
   37.0850   26.7480   42.0950 C   0  0  0  0  0  0  0  0  0  0  0  0
   37.3010   27.2580   43.3330 C   0  0  0  0  0  0  0  0  0  0  0  0
   37.3610   28.6500   43.4500 C   0  0  0  0  0  0  0  0  0  0  0  0
   37.2010   29.4490   42.2640 C   0  0  0  0  0  0  0  0  0  0  0  0
   36.9910   28.7760   41.0820 C   0  0  0  0  0  0  0  0  0  0  0  0
   36.9030   27.4680   40.9110 C   0  0  0  0  0  0  0  0  0  0  0  0
   36.6410   25.1450   38.6350 H   0  0  0  0  0  0  0  0  0  0  0  0
   36.9620   23.7120   40.5860 H   0  0  0  0  0  0  0  0  0  0  0  0
   37.2400   24.7010   42.8460 H   0  0  0  0  0  0  0  0  0  0  0  0
   37.4190   26.6110   44.1900 H   0  0  0  0  0  0  0  0  0  0  0  0
   37.5280   28.9840   44.4620 H   0  0  0  0  0  0  0  0  0  0  0  0
   37.2930   30.4510   42.6530 H   0  0  0  0  0  0  0  0  0  0  0  0
   38.7350   29.9900   40.1200 C   0  0  0  0  0  0  0  0  0  0  0  0
   37.2950   29.9460   40.2880 C   0  0  0  0  0  0  0  0  0  0  0  0
   36.7340   31.0470   39.7920 C   0  0  0  0  0  0  0  0  0  0  0  0
   37.4000   32.1000   39.2010 C   0  0  0  0  0  0  0  0  0  0  0  0
   38.7660   32.1200   39.0580 C   0  0  0  0  0  0  0  0  0  0  0  0
   39.4300   31.0290   39.5350 C   0  0  0  0  0  0  0  0  0  0  0  0
   35.6510   30.9250   39.9570 H   0  0  0  0  0  0  0  0  0  0  0  0
   36.7470   32.8940   38.8690 H   0  0  0  0  0  0  0  0  0  0  0  0
   39.2270   32.9780   38.5870 H   0  0  0  0  0  0  0  0  0  0  0  0
   39.6610   28.9880   40.5220 O   0  0  0  0  0  0  0  0  0  0  0  0
   40.1190   28.4990   39.7500 H   0  0  0  0  0  0  0  0  0  0  0  0
   40.8000   31.1060   39.3640 O   0  0  0  0  0  0  0  0  0  0  0  0
   41.6450   31.7340   40.2300 C   0  0  0  0  0  0  0  0  0  0  0  0
   42.4480   30.9060   41.0170 C   0  0  0  0  0  0  0  0  0  0  0  0
   42.4140   29.8240   40.9560 H   0  0  0  0  0  0  0  0  0  0  0  0
   43.3430   31.4160   41.9290 C   0  0  0  0  0  3  0  0  0  0  0  0
   43.4750   32.7860   42.0950 C   0  0  0  0  0  0  0  0  0  0  0  0
   44.3310   33.2940   42.9700 N   0  0  0  0  0  0  0  0  0  0  0  0
   44.4690   34.6180   43.1420 C   0  0  0  0  0  0  0  0  0  0  0  0
   45.1720   35.0100   43.8580 H   0  0  0  0  0  0  0  0  0  0  0  0
   43.6930   35.4730   42.3820 C   0  0  0  0  0  3  0  0  0  0  0  0
   42.7900   34.9750   41.4620 C   0  0  0  0  0  3  0  0  0  0  0  0
   42.6850   33.6100   41.3220 C   0  0  0  0  0  0  0  0  0  0  0  0
   41.7950   33.0930   40.4140 C   0  0  0  0  0  3  0  0  0  0  0  0
   36.2270   28.9000   36.5330 C   0  0  0  0  0  0  0  0  0  0  0  0
   34.8340   29.1370   36.6140 C   0  0  0  0  0  0  0  0  0  0  0  0
   34.1990   28.6570   37.7370 C   0  0  0  0  0  0  0  0  0  0  0  0
   34.9800   28.0250   38.6060 N   0  0  0  0  0  0  0  0  0  0  0  0
   36.2860   27.7820   38.5640 C   0  0  0  0  0  0  0  0  0  0  0  0
   36.8770   28.2440   37.5000 N   0  0  0  0  0  0  0  0  0  0  0  0
   36.7540   29.2640   35.6670 H   0  0  0  0  0  0  0  0  0  0  0  0
   34.2930   29.6600   35.8470 H   0  0  0  0  0  0  0  0  0  0  0  0
   32.8190   28.8790   37.9780 N   0  0  0  0  0  0  0  0  0  0  0  0
   32.0980   28.1310   38.0950 H   0  0  0  0  0  0  0  0  0  0  0  0
   32.3320   29.7970   38.0730 H   0  0  0  0  0  0  0  0  0  0  0  0
  1 10  1  0  0  0  0
  2  1  2  0  0  0  0
  2  3  1  0  0  0  0
  3  4  2  0  0  0  0
  4  5  1  0  0  0  0
  4 13  1  0  0  0  0
  5  6  1  0  0  0  0
  6  7  2  0  0  0  0
  6 14  1  0  0  0  0
  7 15  1  0  0  0  0
  8 16  1  0  0  0  0
  8  7  1  0  0  0  0
  9  8  2  0  0  0  0
 10  9  1  0  0  0  0
 10  5  2  0  0  0  0
 11  2  1  0  0  0  0
 12  3  1  0  0  0  0
 17 18  1  0  0  0  0
 17 26  1  0  0  0  0
 18  9  1  0  0  0  0
 19 23  1  0  0  0  0
 19 18  2  0  0  0  0
 20 19  1  0  0  0  0
 21 20  2  0  0  0  0
 21 22  1  0  0  0  0
 22 17  2  0  0  0  0
 24 20  1  0  0  0  0
 25 21  1  0  0  0  0
 27 26  1  0  0  0  0
 28 22  1  0  0  0  0
 28 29  1  0  0  0  0
 29 40  2  0  0  0  0
 29 30  1  0  0  0  0
 30 32  2  0  0  0  0
 31 30  1  0  0  0  0
 32 33  1  0  0  0  0
 33 34  1  0  0  0  0
 34 35  2  0  0  0  0
 35 36  1  0  0  0  0
 37 35  1  0  0  0  0
 38 37  2  0  0  0  0
 39 38  1  0  0  0  0
 39 33  2  0  0  0  0
 40 39  1  0  0  0  0
 41 42  2  0  0  0  0
 41 46  1  0  0  0  0
 42 43  1  0  0  0  0
 43 49  1  0  0  0  0
 43 44  2  0  0  0  0
 45 44  1  0  0  0  0
 45  1  1  0  0  0  0
 46 45  2  0  0  0  0
 47 41  1  0  0  0  0
 48 42  1  0  0  0  0
 49 51  1  0  0  0  0
 49 50  1  0  0  0  0
M  END
>  <minimizedAffinity>
-7.82835054

$$$$

 OpenBabel03242521573D

 51 56  0  0  0  0  0  0  0  0999 V2000
   40.3650   30.1840   41.8150 C   0  0  0  0  0  0  0  0  0  0  0  0
   40.9750   31.4200   41.6110 C   0  0  0  0  0  0  0  0  0  0  0  0
   42.2040   31.7660   42.1860 C   0  0  0  0  0  0  0  0  0  0  0  0
   42.8700   30.8820   42.9870 C   0  0  0  0  0  0  0  0  0  0  0  0
   42.2720   29.6240   43.2180 C   0  0  0  0  0  0  0  0  0  0  0  0
   42.9360   28.7980   44.0640 C   0  0  0  0  0  0  0  0  0  0  0  0
   42.3310   27.5760   44.3720 C   0  0  0  0  0  0  0  0  0  0  0  0
   41.0510   27.2740   43.7880 C   0  0  0  0  0  0  0  0  0  0  0  0
   40.5080   28.2210   42.9490 C   0  0  0  0  0  0  0  0  0  0  0  0
   41.0400   29.3820   42.6040 C   0  0  0  0  0  0  0  0  0  0  0  0
   40.4460   32.1400   40.9650 H   0  0  0  0  0  0  0  0  0  0  0  0
   42.5880   32.7580   41.9610 H   0  0  0  0  0  0  0  0  0  0  0  0
   43.8130   31.1620   43.4130 H   0  0  0  0  0  0  0  0  0  0  0  0
   43.8940   29.0770   44.4790 H   0  0  0  0  0  0  0  0  0  0  0  0
   42.9170   26.9690   45.0440 H   0  0  0  0  0  0  0  0  0  0  0  0
   40.8410   26.2970   44.1960 H   0  0  0  0  0  0  0  0  0  0  0  0
   39.1780   26.5410   42.0300 C   0  0  0  0  0  0  0  0  0  0  0  0
   39.1980   27.6130   43.0070 C   0  0  0  0  0  0  0  0  0  0  0  0
   37.9880   27.7860   43.5340 C   0  0  0  0  0  0  0  0  0  0  0  0
   36.8540   27.0680   43.2140 C   0  0  0  0  0  0  0  0  0  0  0  0
   36.8600   26.0600   42.2810 C   0  0  0  0  0  0  0  0  0  0  0  0
   38.0610   25.8060   41.6870 C   0  0  0  0  0  0  0  0  0  0  0  0
   38.0980   28.6070   44.2610 H   0  0  0  0  0  0  0  0  0  0  0  0
   35.9760   27.3760   43.7630 H   0  0  0  0  0  0  0  0  0  0  0  0
   35.9360   25.5380   42.0740 H   0  0  0  0  0  0  0  0  0  0  0  0
   40.2860   26.0720   41.2710 O   0  0  0  0  0  0  0  0  0  0  0  0
   40.5970   25.1290   41.5140 H   0  0  0  0  0  0  0  0  0  0  0  0
   38.0050   24.7840   40.7580 O   0  0  0  0  0  0  0  0  0  0  0  0
   36.9440   24.5570   39.9330 C   0  0  0  0  0  0  0  0  0  0  0  0
   36.8630   25.3650   38.7970 C   0  0  0  0  0  0  0  0  0  0  0  0
   37.5930   26.1340   38.5680 H   0  0  0  0  0  0  0  0  0  0  0  0
   35.8410   25.2350   37.8850 C   0  0  0  0  0  3  0  0  0  0  0  0
   34.8480   24.2850   38.0700 C   0  0  0  0  0  0  0  0  0  0  0  0
   33.8560   24.1480   37.2020 N   0  0  0  0  0  0  0  0  0  0  0  0
   32.8880   23.2330   37.3700 C   0  0  0  0  0  0  0  0  0  0  0  0
   32.0910   23.1370   36.6520 H   0  0  0  0  0  0  0  0  0  0  0  0
   32.9320   22.4130   38.4820 C   0  0  0  0  0  3  0  0  0  0  0  0
   33.9510   22.5310   39.4050 C   0  0  0  0  0  3  0  0  0  0  0  0
   34.9210   23.4840   39.1900 C   0  0  0  0  0  0  0  0  0  0  0  0
   35.9440   23.6200   40.0950 C   0  0  0  0  0  3  0  0  0  0  0  0
   37.9010   28.6580   39.4630 C   0  0  0  0  0  0  0  0  0  0  0  0
   36.7150   29.2830   39.9180 C   0  0  0  0  0  0  0  0  0  0  0  0
   36.8560   30.1780   40.9540 C   0  0  0  0  0  0  0  0  0  0  0  0
   38.0980   30.3400   41.4010 N   0  0  0  0  0  0  0  0  0  0  0  0
   39.2310   29.7720   41.0030 C   0  0  0  0  0  0  0  0  0  0  0  0
   39.0860   28.9310   40.0200 N   0  0  0  0  0  0  0  0  0  0  0  0
   37.8250   27.9530   38.6530 H   0  0  0  0  0  0  0  0  0  0  0  0
   35.7530   29.0760   39.4860 H   0  0  0  0  0  0  0  0  0  0  0  0
   35.7630   30.9230   41.4650 N   0  0  0  0  0  0  0  0  0  0  0  0
   35.4200   30.8940   42.4520 H   0  0  0  0  0  0  0  0  0  0  0  0
   35.1560   31.5930   40.9450 H   0  0  0  0  0  0  0  0  0  0  0  0
  1 10  1  0  0  0  0
  2  1  2  0  0  0  0
  2  3  1  0  0  0  0
  3  4  2  0  0  0  0
  4  5  1  0  0  0  0
  4 13  1  0  0  0  0
  5  6  1  0  0  0  0
  6  7  2  0  0  0  0
  6 14  1  0  0  0  0
  7 15  1  0  0  0  0
  8 16  1  0  0  0  0
  8  7  1  0  0  0  0
  9 18  1  0  0  0  0
  9  8  2  0  0  0  0
 10  9  1  0  0  0  0
 10  5  2  0  0  0  0
 11  2  1  0  0  0  0
 12  3  1  0  0  0  0
 17 18  1  0  0  0  0
 18 19  2  0  0  0  0
 19 23  1  0  0  0  0
 20 19  1  0  0  0  0
 20 24  1  0  0  0  0
 21 20  2  0  0  0  0
 22 17  2  0  0  0  0
 22 21  1  0  0  0  0
 25 21  1  0  0  0  0
 26 27  1  0  0  0  0
 26 17  1  0  0  0  0
 28 22  1  0  0  0  0
 29 40  1  0  0  0  0
 29 28  1  0  0  0  0
 30 29  2  0  0  0  0
 31 30  1  0  0  0  0
 32 33  2  0  0  0  0
 32 30  1  0  0  0  0
 33 39  1  0  0  0  0
 34 35  2  0  0  0  0
 34 33  1  0  0  0  0
 35 37  1  0  0  0  0
 36 35  1  0  0  0  0
 37 38  2  0  0  0  0
 39 38  1  0  0  0  0
 39 40  2  0  0  0  0
 41 42  2  0  0  0  0
 41 46  1  0  0  0  0
 42 43  1  0  0  0  0
 43 44  2  0  0  0  0
 43 49  1  0  0  0  0
 45 44  1  0  0  0  0
 45  1  1  0  0  0  0
 46 45  2  0  0  0  0
 47 41  1  0  0  0  0
 48 42  1  0  0  0  0
 49 50  1  0  0  0  0
 51 49  1  0  0  0  0
M  END
>  <minimizedAffinity>
-7.76910734

$$$$

 OpenBabel03242521573D

 51 56  0  0  0  0  0  0  0  0999 V2000
   38.2090   25.3540   40.8460 C   0  0  0  0  0  0  0  0  0  0  0  0
   39.1570   24.4290   41.2780 C   0  0  0  0  0  0  0  0  0  0  0  0
   39.8210   24.5370   42.5060 C   0  0  0  0  0  0  0  0  0  0  0  0
   39.5560   25.5780   43.3510 C   0  0  0  0  0  0  0  0  0  0  0  0
   38.6050   26.5350   42.9360 C   0  0  0  0  0  0  0  0  0  0  0  0
   38.4120   27.5820   43.7760 C   0  0  0  0  0  0  0  0  0  0  0  0
   37.5330   28.5860   43.3580 C   0  0  0  0  0  0  0  0  0  0  0  0
   36.9000   28.4540   42.0730 C   0  0  0  0  0  0  0  0  0  0  0  0
   37.2030   27.3300   41.3390 C   0  0  0  0  0  0  0  0  0  0  0  0
   38.0060   26.3390   41.6880 C   0  0  0  0  0  0  0  0  0  0  0  0
   39.3780   23.5850   40.6040 H   0  0  0  0  0  0  0  0  0  0  0  0
   40.5430   23.7580   42.7430 H   0  0  0  0  0  0  0  0  0  0  0  0
   40.0690   25.6400   44.2910 H   0  0  0  0  0  0  0  0  0  0  0  0
   38.9190   27.6340   44.7290 H   0  0  0  0  0  0  0  0  0  0  0  0
   37.4250   29.3820   44.0770 H   0  0  0  0  0  0  0  0  0  0  0  0
   36.2990   29.3500   42.0250 H   0  0  0  0  0  0  0  0  0  0  0  0
   37.7430   28.6170   39.4700 C   0  0  0  0  0  0  0  0  0  0  0  0
   36.6640   27.9000   40.1240 C   0  0  0  0  0  0  0  0  0  0  0  0
   35.5140   28.1070   39.4870 C   0  0  0  0  0  0  0  0  0  0  0  0
   35.3380   28.8920   38.3660 C   0  0  0  0  0  0  0  0  0  0  0  0
   36.3750   29.5650   37.7680 C   0  0  0  0  0  0  0  0  0  0  0  0
   37.5990   29.4090   38.3500 C   0  0  0  0  0  0  0  0  0  0  0  0
   34.7600   27.5270   40.0440 H   0  0  0  0  0  0  0  0  0  0  0  0
   34.3170   28.9220   38.0140 H   0  0  0  0  0  0  0  0  0  0  0  0
   36.1690   30.1650   36.8930 H   0  0  0  0  0  0  0  0  0  0  0  0
   39.1090   28.6250   39.8650 O   0  0  0  0  0  0  0  0  0  0  0  0
   39.7420   28.1530   39.2150 H   0  0  0  0  0  0  0  0  0  0  0  0
   38.6010   30.1110   37.7060 O   0  0  0  0  0  0  0  0  0  0  0  0
   39.1890   31.2360   38.2020 C   0  0  0  0  0  0  0  0  0  0  0  0
   40.5200   31.4480   37.8370 C   0  0  0  0  0  0  0  0  0  0  0  0
   41.0710   30.7670   37.1980 H   0  0  0  0  0  0  0  0  0  0  0  0
   41.2260   32.5470   38.2710 C   0  0  0  0  0  3  0  0  0  0  0  0
   40.6260   33.4880   39.0950 C   0  0  0  0  0  0  0  0  0  0  0  0
   41.2920   34.5520   39.5220 N   0  0  0  0  0  0  0  0  0  0  0  0
   40.7250   35.4710   40.3190 C   0  0  0  0  0  0  0  0  0  0  0  0
   41.2830   36.3280   40.6550 H   0  0  0  0  0  0  0  0  0  0  0  0
   39.4080   35.2980   40.7030 C   0  0  0  0  0  3  0  0  0  0  0  0
   38.6870   34.2000   40.2750 C   0  0  0  0  0  3  0  0  0  0  0  0
   39.3120   33.2850   39.4580 C   0  0  0  0  0  0  0  0  0  0  0  0
   38.6160   32.1870   39.0210 C   0  0  0  0  0  3  0  0  0  0  0  0
   35.5460   24.5080   38.3730 C   0  0  0  0  0  0  0  0  0  0  0  0
   36.2020   24.8790   37.1750 C   0  0  0  0  0  0  0  0  0  0  0  0
   37.4870   25.3540   37.3060 C   0  0  0  0  0  0  0  0  0  0  0  0
   37.9500   25.4070   38.5520 N   0  0  0  0  0  0  0  0  0  0  0  0
   37.3650   25.0710   39.6970 C   0  0  0  0  0  0  0  0  0  0  0  0
   36.1520   24.6200   39.5600 N   0  0  0  0  0  0  0  0  0  0  0  0
   34.5380   24.1320   38.3040 H   0  0  0  0  0  0  0  0  0  0  0  0
   35.7320   24.7990   36.2120 H   0  0  0  0  0  0  0  0  0  0  0  0
   38.2840   25.7010   36.1860 N   0  0  0  0  0  0  0  0  0  0  0  0
   38.6910   26.6470   36.0030 H   0  0  0  0  0  0  0  0  0  0  0  0
   38.5740   25.0810   35.3990 H   0  0  0  0  0  0  0  0  0  0  0  0
  1  2  2  0  0  0  0
  1 10  1  0  0  0  0
  2  3  1  0  0  0  0
  3 12  1  0  0  0  0
  3  4  2  0  0  0  0
  4 13  1  0  0  0  0
  5  4  1  0  0  0  0
  5  6  1  0  0  0  0
  6 14  1  0  0  0  0
  7  6  2  0  0  0  0
  7 15  1  0  0  0  0
  8  7  1  0  0  0  0
  9 10  1  0  0  0  0
  9  8  2  0  0  0  0
 10  5  2  0  0  0  0
 11  2  1  0  0  0  0
 16  8  1  0  0  0  0
 17 26  1  0  0  0  0
 17 18  1  0  0  0  0
 18  9  1  0  0  0  0
 19 23  1  0  0  0  0
 19 18  2  0  0  0  0
 20 19  1  0  0  0  0
 21 22  1  0  0  0  0
 21 20  2  0  0  0  0
 22 17  2  0  0  0  0
 24 20  1  0  0  0  0
 25 21  1  0  0  0  0
 27 26  1  0  0  0  0
 28 29  1  0  0  0  0
 28 22  1  0  0  0  0
 29 40  1  0  0  0  0
 30 29  2  0  0  0  0
 30 32  1  0  0  0  0
 31 30  1  0  0  0  0
 32 33  2  0  0  0  0
 33 39  1  0  0  0  0
 33 34  1  0  0  0  0
 34 35  2  0  0  0  0
 35 36  1  0  0  0  0
 35 37  1  0  0  0  0
 38 37  2  0  0  0  0
 39 38  1  0  0  0  0
 40 39  2  0  0  0  0
 41 46  1  0  0  0  0
 42 43  1  0  0  0  0
 42 41  2  0  0  0  0
 43 44  2  0  0  0  0
 44 45  1  0  0  0  0
 45  1  1  0  0  0  0
 46 45  2  0  0  0  0
 47 41  1  0  0  0  0
 48 42  1  0  0  0  0
 49 43  1  0  0  0  0
 50 49  1  0  0  0  0
 51 49  1  0  0  0  0
M  END
>  <minimizedAffinity>
-7.68069077

$$$$

 OpenBabel03242521573D

 51 56  0  0  0  0  0  0  0  0999 V2000
   40.3700   30.2140   41.7930 C   0  0  0  0  0  0  0  0  0  0  0  0
   40.9840   31.4480   41.5870 C   0  0  0  0  0  0  0  0  0  0  0  0
   42.2150   31.7910   42.1600 C   0  0  0  0  0  0  0  0  0  0  0  0
   42.8800   30.9060   42.9620 C   0  0  0  0  0  0  0  0  0  0  0  0
   42.2770   29.6500   43.1940 C   0  0  0  0  0  0  0  0  0  0  0  0
   42.9400   28.8220   44.0400 C   0  0  0  0  0  0  0  0  0  0  0  0
   42.3320   27.6020   44.3500 C   0  0  0  0  0  0  0  0  0  0  0  0
   41.0500   27.3040   43.7670 C   0  0  0  0  0  0  0  0  0  0  0  0
   40.5090   28.2520   42.9290 C   0  0  0  0  0  0  0  0  0  0  0  0
   41.0440   29.4110   42.5810 C   0  0  0  0  0  0  0  0  0  0  0  0
   40.4560   32.1700   40.9420 H   0  0  0  0  0  0  0  0  0  0  0  0
   42.6020   32.7820   41.9340 H   0  0  0  0  0  0  0  0  0  0  0  0
   43.8240   31.1830   43.3860 H   0  0  0  0  0  0  0  0  0  0  0  0
   43.9000   29.0980   44.4530 H   0  0  0  0  0  0  0  0  0  0  0  0
   42.9170   26.9940   45.0210 H   0  0  0  0  0  0  0  0  0  0  0  0
   40.8380   26.3280   44.1760 H   0  0  0  0  0  0  0  0  0  0  0  0
   39.1670   26.5860   42.0010 C   0  0  0  0  0  0  0  0  0  0  0  0
   39.1970   27.6480   42.9880 C   0  0  0  0  0  0  0  0  0  0  0  0
   37.9910   27.8200   43.5250 C   0  0  0  0  0  0  0  0  0  0  0  0
   36.8520   27.1100   43.2040 C   0  0  0  0  0  0  0  0  0  0  0  0
   36.8490   26.1110   42.2620 C   0  0  0  0  0  0  0  0  0  0  0  0
   38.0460   25.8580   41.6590 C   0  0  0  0  0  0  0  0  0  0  0  0
   38.1080   28.6340   44.2590 H   0  0  0  0  0  0  0  0  0  0  0  0
   35.9790   27.4160   43.7620 H   0  0  0  0  0  0  0  0  0  0  0  0
   35.9220   25.5940   42.0560 H   0  0  0  0  0  0  0  0  0  0  0  0
   40.2690   26.1200   41.2310 O   0  0  0  0  0  0  0  0  0  0  0  0
   40.5780   25.1740   41.4630 H   0  0  0  0  0  0  0  0  0  0  0  0
   37.9800   24.8450   40.7190 O   0  0  0  0  0  0  0  0  0  0  0  0
   36.9290   24.6510   39.8750 C   0  0  0  0  0  0  0  0  0  0  0  0
   36.2470   23.4400   40.0070 C   0  0  0  0  0  0  0  0  0  0  0  0
   36.5250   22.6850   40.7350 H   0  0  0  0  0  0  0  0  0  0  0  0
   35.1680   23.1230   39.2140 C   0  0  0  0  0  3  0  0  0  0  0  0
   34.7200   24.0110   38.2480 C   0  0  0  0  0  0  0  0  0  0  0  0
   33.6820   23.7210   37.4760 N   0  0  0  0  0  0  0  0  0  0  0  0
   33.2380   24.5700   36.5360 C   0  0  0  0  0  0  0  0  0  0  0  0
   32.3930   24.3160   35.9190 H   0  0  0  0  0  0  0  0  0  0  0  0
   33.8850   25.7800   36.3720 C   0  0  0  0  0  3  0  0  0  0  0  0
   34.9700   26.1120   37.1600 C   0  0  0  0  0  3  0  0  0  0  0  0
   35.3880   25.2080   38.1110 C   0  0  0  0  0  0  0  0  0  0  0  0
   36.4640   25.5160   38.9060 C   0  0  0  0  0  3  0  0  0  0  0  0
   37.9010   28.7010   39.4390 C   0  0  0  0  0  0  0  0  0  0  0  0
   36.7150   29.3150   39.9060 C   0  0  0  0  0  0  0  0  0  0  0  0
   36.8570   30.2000   40.9510 C   0  0  0  0  0  0  0  0  0  0  0  0
   38.1010   30.3630   41.3920 N   0  0  0  0  0  0  0  0  0  0  0  0
   39.2350   29.8050   40.9830 C   0  0  0  0  0  0  0  0  0  0  0  0
   39.0880   28.9740   39.9920 N   0  0  0  0  0  0  0  0  0  0  0  0
   37.8240   28.0040   38.6210 H   0  0  0  0  0  0  0  0  0  0  0  0
   35.7520   29.1080   39.4770 H   0  0  0  0  0  0  0  0  0  0  0  0
   35.7630   30.9340   41.4750 N   0  0  0  0  0  0  0  0  0  0  0  0
   35.4260   30.8930   42.4640 H   0  0  0  0  0  0  0  0  0  0  0  0
   35.1500   31.6070   40.9660 H   0  0  0  0  0  0  0  0  0  0  0  0
  1 10  1  0  0  0  0
  2  1  2  0  0  0  0
  2  3  1  0  0  0  0
  3  4  2  0  0  0  0
  4  5  1  0  0  0  0
  4 13  1  0  0  0  0
  5  6  1  0  0  0  0
  6  7  2  0  0  0  0
  6 14  1  0  0  0  0
  7 15  1  0  0  0  0
  8 16  1  0  0  0  0
  8  7  1  0  0  0  0
  9 18  1  0  0  0  0
  9  8  2  0  0  0  0
 10  9  1  0  0  0  0
 10  5  2  0  0  0  0
 11  2  1  0  0  0  0
 12  3  1  0  0  0  0
 17 18  1  0  0  0  0
 18 19  2  0  0  0  0
 19 23  1  0  0  0  0
 20 19  1  0  0  0  0
 20 24  1  0  0  0  0
 21 20  2  0  0  0  0
 22 17  2  0  0  0  0
 22 21  1  0  0  0  0
 25 21  1  0  0  0  0
 26 27  1  0  0  0  0
 26 17  1  0  0  0  0
 28 22  1  0  0  0  0
 29 30  1  0  0  0  0
 29 28  1  0  0  0  0
 30 31  1  0  0  0  0
 32 30  2  0  0  0  0
 33 32  1  0  0  0  0
 34 33  2  0  0  0  0
 35 34  1  0  0  0  0
 36 35  1  0  0  0  0
 37 35  2  0  0  0  0
 37 38  1  0  0  0  0
 38 39  2  0  0  0  0
 39 33  1  0  0  0  0
 39 40  1  0  0  0  0
 40 29  2  0  0  0  0
 41 42  2  0  0  0  0
 41 46  1  0  0  0  0
 42 43  1  0  0  0  0
 43 44  2  0  0  0  0
 43 49  1  0  0  0  0
 45 44  1  0  0  0  0
 45  1  1  0  0  0  0
 46 45  2  0  0  0  0
 47 41  1  0  0  0  0
 48 42  1  0  0  0  0
 49 50  1  0  0  0  0
 51 49  1  0  0  0  0
M  END
>  <minimizedAffinity>
-7.64115191

$$$$

 OpenBabel03242521573D

 51 56  0  0  0  0  0  0  0  0999 V2000
   37.8620   24.0880   40.6570 C   0  0  0  0  0  0  0  0  0  0  0  0
   37.7550   22.7400   40.3230 C   0  0  0  0  0  0  0  0  0  0  0  0
   36.9670   22.2790   39.2600 C   0  0  0  0  0  0  0  0  0  0  0  0
   36.2570   23.1570   38.4900 C   0  0  0  0  0  0  0  0  0  0  0  0
   36.3400   24.5290   38.8110 C   0  0  0  0  0  0  0  0  0  0  0  0
   35.5750   25.3610   38.0600 C   0  0  0  0  0  0  0  0  0  0  0  0
   35.5770   26.7160   38.4020 C   0  0  0  0  0  0  0  0  0  0  0  0
   36.3730   27.1420   39.5230 C   0  0  0  0  0  0  0  0  0  0  0  0
   37.0920   26.1720   40.1840 C   0  0  0  0  0  0  0  0  0  0  0  0
   37.1470   24.8820   39.8950 C   0  0  0  0  0  0  0  0  0  0  0  0
   38.3250   22.0240   40.9370 H   0  0  0  0  0  0  0  0  0  0  0  0
   36.9560   21.2050   39.0890 H   0  0  0  0  0  0  0  0  0  0  0  0
   35.6640   22.7860   37.6770 H   0  0  0  0  0  0  0  0  0  0  0  0
   34.9920   24.9860   37.2310 H   0  0  0  0  0  0  0  0  0  0  0  0
   34.9540   27.3170   37.7600 H   0  0  0  0  0  0  0  0  0  0  0  0
   36.1800   28.2040   39.5460 H   0  0  0  0  0  0  0  0  0  0  0  0
   38.5580   27.7490   41.0800 C   0  0  0  0  0  0  0  0  0  0  0  0
   37.3220   27.0300   41.3250 C   0  0  0  0  0  0  0  0  0  0  0  0
   36.8750   27.2750   42.5550 C   0  0  0  0  0  0  0  0  0  0  0  0
   37.4820   28.0880   43.4900 C   0  0  0  0  0  0  0  0  0  0  0  0
   38.6550   28.7550   43.2360 C   0  0  0  0  0  0  0  0  0  0  0  0
   39.1880   28.5670   41.9950 C   0  0  0  0  0  0  0  0  0  0  0  0
   35.9410   26.6980   42.6500 H   0  0  0  0  0  0  0  0  0  0  0  0
   36.9470   28.1440   44.4270 H   0  0  0  0  0  0  0  0  0  0  0  0
   39.0800   29.3750   44.0140 H   0  0  0  0  0  0  0  0  0  0  0  0
   39.3170   27.7340   39.8780 O   0  0  0  0  0  0  0  0  0  0  0  0
   39.3220   28.6200   39.3680 H   0  0  0  0  0  0  0  0  0  0  0  0
   40.3680   29.2620   41.7980 O   0  0  0  0  0  0  0  0  0  0  0  0
   40.4340   30.5730   41.4320 C   0  0  0  0  0  0  0  0  0  0  0  0
   41.7130   31.1230   41.3390 C   0  0  0  0  0  0  0  0  0  0  0  0
   42.6150   30.5550   41.5430 H   0  0  0  0  0  0  0  0  0  0  0  0
   41.9150   32.4360   40.9790 C   0  0  0  0  0  3  0  0  0  0  0  0
   40.8370   33.2610   40.6950 C   0  0  0  0  0  0  0  0  0  0  0  0
   41.0140   34.5280   40.3470 N   0  0  0  0  0  0  0  0  0  0  0  0
   39.9800   35.3380   40.0690 C   0  0  0  0  0  0  0  0  0  0  0  0
   40.1450   36.3650   39.7880 H   0  0  0  0  0  0  0  0  0  0  0  0
   38.6970   34.8320   40.1500 C   0  0  0  0  0  3  0  0  0  0  0  0
   38.4790   33.5170   40.5100 C   0  0  0  0  0  3  0  0  0  0  0  0
   39.5710   32.7250   40.7850 C   0  0  0  0  0  0  0  0  0  0  0  0
   39.3790   31.4140   41.1450 C   0  0  0  0  0  3  0  0  0  0  0  0
   40.0170   25.0630   43.5440 C   0  0  0  0  0  0  0  0  0  0  0  0
   41.2260   25.3370   42.8610 C   0  0  0  0  0  0  0  0  0  0  0  0
   41.1980   25.1940   41.4920 C   0  0  0  0  0  0  0  0  0  0  0  0
   40.0310   24.8110   40.9840 N   0  0  0  0  0  0  0  0  0  0  0  0
   38.8790   24.5440   41.5900 C   0  0  0  0  0  0  0  0  0  0  0  0
   38.9160   24.6860   42.8830 N   0  0  0  0  0  0  0  0  0  0  0  0
   40.0050   25.1670   44.6160 H   0  0  0  0  0  0  0  0  0  0  0  0
   42.1210   25.6390   43.3730 H   0  0  0  0  0  0  0  0  0  0  0  0
   42.3180   25.4970   40.6770 N   0  0  0  0  0  0  0  0  0  0  0  0
   42.8060   24.8220   40.0440 H   0  0  0  0  0  0  0  0  0  0  0  0
   42.8080   26.4140   40.5890 H   0  0  0  0  0  0  0  0  0  0  0  0
  1 45  1  0  0  0  0
  2  1  1  0  0  0  0
  2 11  1  0  0  0  0
  3  2  2  0  0  0  0
  4  5  2  0  0  0  0
  4  3  1  0  0  0  0
  5 10  1  0  0  0  0
  6  7  2  0  0  0  0
  6  5  1  0  0  0  0
  7  8  1  0  0  0  0
  8 16  1  0  0  0  0
  8  9  2  0  0  0  0
  9 18  1  0  0  0  0
 10  9  1  0  0  0  0
 10  1  2  0  0  0  0
 12  3  1  0  0  0  0
 13  4  1  0  0  0  0
 14  6  1  0  0  0  0
 15  7  1  0  0  0  0
 17 18  2  0  0  0  0
 17 22  1  0  0  0  0
 18 19  1  0  0  0  0
 19 23  1  0  0  0  0
 19 20  2  0  0  0  0
 20 24  1  0  0  0  0
 21 20  1  0  0  0  0
 21 25  1  0  0  0  0
 22 21  2  0  0  0  0
 26 17  1  0  0  0  0
 27 26  1  0  0  0  0
 28 22  1  0  0  0  0
 29 28  1  0  0  0  0
 30 29  1  0  0  0  0
 30 31  1  0  0  0  0
 32 30  2  0  0  0  0
 33 39  1  0  0  0  0
 33 32  1  0  0  0  0
 34 33  2  0  0  0  0
 35 37  2  0  0  0  0
 35 34  1  0  0  0  0
 36 35  1  0  0  0  0
 37 38  1  0  0  0  0
 38 39  2  0  0  0  0
 39 40  1  0  0  0  0
 40 29  2  0  0  0  0
 41 47  1  0  0  0  0
 42 48  1  0  0  0  0
 42 41  2  0  0  0  0
 43 42  1  0  0  0  0
 44 43  2  0  0  0  0
 44 45  1  0  0  0  0
 45 46  2  0  0  0  0
 46 41  1  0  0  0  0
 49 43  1  0  0  0  0
 50 49  1  0  0  0  0
 51 49  1  0  0  0  0
M  END
>  <minimizedAffinity>
-7.62741137

$$$$
