
     RDKit          3D

 36 39  0  0  0  0  0  0  0  0999 V2000
   42.1029   31.9298   41.7058 Cl  0  0  0  0  0  0  0  0  0  0  0  0
   41.2651   33.3569   41.1112 C   0  0  0  0  0  0  0  0  0  0  0  0
   42.0785   34.4257   40.8455 C   0  0  0  0  0  0  0  0  0  0  0  0
   41.4758   35.5897   40.3705 C   0  0  0  0  0  0  0  0  0  0  0  0
   40.0815   35.6195   40.1865 C   0  0  0  0  0  0  0  0  0  0  0  0
   39.2810   34.5345   40.4594 C   0  0  0  0  0  0  0  0  0  0  0  0
   39.9050   33.3885   40.9308 C   0  0  0  0  0  0  0  0  0  0  0  0
   38.9704   31.9509   41.3081 Cl  0  0  0  0  0  0  0  0  0  0  0  0
   43.8253   34.5399   41.0239 S   0  0  0  0  0  0  0  0  0  0  0  0
   44.3619   34.6211   42.7337 C   0  0  0  0  0  0  0  0  0  0  0  0
   45.0295   33.4849   43.2026 C   0  0  0  0  0  0  0  0  0  0  0  0
   45.4714   33.4968   44.5371 C   0  0  0  0  0  0  0  0  0  0  0  0
   45.2312   34.6012   45.3009 N   0  0  0  0  0  0  0  0  0  0  0  0
   44.5843   35.6676   44.8003 C   0  0  0  0  0  0  0  0  0  0  0  0
   44.1392   35.7023   43.5188 N   0  0  0  0  0  0  0  0  0  0  0  0
   41.9910   36.4830   40.1279 H   0  0  0  0  0  0  0  0  0  0  0  0
   39.6031   36.5223   39.8168 H   0  0  0  0  0  0  0  0  0  0  0  0
   38.2099   34.5496   40.3207 H   0  0  0  0  0  0  0  0  0  0  0  0
   45.2309   32.6105   42.6313 H   0  0  0  0  0  0  0  0  0  0  0  0
   45.9914   32.6298   44.9264 H   0  0  0  0  0  0  0  0  0  0  0  0
   44.3670   36.8088   45.6820 C   0  0  0  0  0  0  0  0  0  0  0  0
   44.5189   36.7204   47.0505 C   0  0  0  0  0  0  0  0  0  0  0  0
   44.8093   35.7782   47.5021 H   0  0  0  0  0  0  0  0  0  0  0  0
   44.2987   37.8407   47.8428 C   0  0  0  0  0  0  0  0  0  0  0  0
   43.9290   39.0407   47.2690 C   0  0  0  0  0  0  0  0  0  0  0  0
   43.7000   40.1633   47.9755 N   0  0  0  0  0  0  0  0  0  0  0  0
   43.3407   41.3323   47.4256 C   0  0  0  0  0  0  0  0  0  0  0  0
   43.1580   42.2311   47.9977 H   0  0  0  0  0  0  0  0  0  0  0  0
   43.1812   41.4442   46.0433 C   0  0  0  0  0  0  0  0  0  0  0  0
   43.4034   40.3264   45.2768 C   0  0  0  0  0  0  0  0  0  0  0  0
   43.7703   39.1556   45.9029 C   0  0  0  0  0  0  0  0  0  0  0  0
   43.9997   38.0126   45.1444 C   0  0  0  0  0  0  0  0  0  0  0  0
   44.4108   37.8044   48.9341 H   0  0  0  0  0  0  0  0  0  0  0  0
   42.8886   42.3975   45.5981 H   0  0  0  0  0  0  0  0  0  0  0  0
   43.2936   40.3528   44.1839 H   0  0  0  0  0  0  0  0  0  0  0  0
   43.8720   38.1143   44.0712 H   0  0  0  0  0  0  0  0  0  0  0  0
  2  1  1  0
  3  9  1  0
  3  2  2  0
  4  3  1  0
  5  4  2  0
  5  6  1  0
  6  7  2  0
  7  2  1  0
  7  8  1  0
  9 10  1  0
 10 11  2  0
 10 15  1  0
 11 12  1  0
 12 13  2  0
 14 13  1  0
 15 14  2  0
  4 16  1  0
  5 17  1  0
  6 18  1  0
 11 19  1  0
 12 20  1  0
 21 22  2  0
 22 23  1  0
 22 24  1  0
 24 25  2  0
 25 26  1  0
 26 27  2  0
 27 28  1  0
 27 29  1  0
 29 30  2  0
 30 31  1  0
 31 32  2  0
 32 21  1  0
 31 25  1  0
 24 33  1  0
 29 34  1  0
 30 35  1  0
 32 36  1  0
 14 21  1  0
M  ISO  7  16  14  17  14  18  14  19  14  20  14  23  16  28  16
M  END
>  <DihAtoms>  (1) 
12,13,20,21

>  <DihDeg>  (1) 
-179.9999391104817

$$$$
