
 OpenBabel03252504343D

 43 46  0  0  0  0  0  0  0  0999 V2000
   37.1760   33.0940   39.0870 C   0  0  0  0  0  0  0  0  0  0  0  0
   36.1930   33.2100   38.5650 H   0  0  0  0  0  0  0  0  0  0  0  0
   37.9170   33.0810   38.2400 H   0  0  0  0  0  0  0  0  0  0  0  0
   37.6670   30.7440   38.7420 C   0  0  0  0  0  0  0  0  0  0  0  0
   37.1330   31.6950   39.6170 C   0  0  0  0  0  0  0  0  0  0  0  0
   36.6670   31.2920   40.8170 C   0  0  0  0  0  0  0  0  0  0  0  0
   36.7550   29.9890   41.0790 N   0  0  0  0  0  0  0  0  0  0  0  0
   37.2540   29.0670   40.2740 C   0  0  0  0  0  0  0  0  0  0  0  0
   37.7450   29.4390   39.0260 N   0  0  0  0  0  0  0  0  0  0  0  0
   38.0640   30.9610   37.7600 H   0  0  0  0  0  0  0  0  0  0  0  0
   36.2710   32.0710   41.4390 H   0  0  0  0  0  0  0  0  0  0  0  0
   37.3070   27.6490   40.6560 C   0  0  0  0  0  0  0  0  0  0  0  0
   36.9840   27.2750   41.9440 C   0  0  0  0  0  0  0  0  0  0  0  0
   36.6890   27.9900   42.6950 H   0  0  0  0  0  0  0  0  0  0  0  0
   37.0560   25.9220   42.2380 C   0  0  0  0  0  3  0  0  0  0  0  0
   37.4380   24.9960   41.2690 C   0  0  0  0  0  0  0  0  0  0  0  0
   37.5180   23.6600   41.5240 N   0  0  0  0  0  0  0  0  0  0  0  0
   37.8890   22.7850   40.5720 C   0  0  0  0  0  0  0  0  0  0  0  0
   37.9020   21.7770   40.9320 H   0  0  0  0  0  0  0  0  0  0  0  0
   38.2060   23.2070   39.2850 C   0  0  0  0  0  3  0  0  0  0  0  0
   38.1340   24.5420   38.9990 C   0  0  0  0  0  3  0  0  0  0  0  0
   37.7500   25.4350   39.9890 C   0  0  0  0  0  0  0  0  0  0  0  0
   37.6920   26.7830   39.6530 C   0  0  0  0  0  3  0  0  0  0  0  0
   37.5210   34.0310   40.0030 O   0  0  0  0  0  0  0  0  0  0  0  0
   38.7760   34.2900   40.5290 C   0  0  0  0  0  3  0  0  0  0  0  0
   39.3210   35.4590   40.2110 C   0  0  0  0  0  3  0  0  0  0  0  0
   40.6770   35.9630   40.6660 C   0  0  0  0  0  0  0  0  0  0  0  0
   40.7040   37.0360   40.3320 H   0  0  0  0  0  0  0  0  0  0  0  0
   40.7570   35.9790   41.7620 H   0  0  0  0  0  0  0  0  0  0  0  0
   41.6350   35.2020   40.0230 O   0  0  0  0  0  0  0  0  0  0  0  0
   42.5550   33.2710   41.6050 O   0  0  0  0  0  0  0  0  0  0  0  0
   42.8180   34.6720   41.1030 P   0  0  1  0  0  0  0  0  0  0  0  0
   44.3430   34.6510   40.3430 O   0  0  0  0  0  0  0  0  0  0  0  0
   44.3350   35.3730   39.6580 H   0  0  0  0  0  0  0  0  0  0  0  0
   42.9300   35.7400   42.4050 O   0  0  0  0  0  0  0  0  0  0  0  0
   44.2400   35.9870   42.7700 C   0  0  0  0  0  0  0  0  0  0  0  0
   44.8780   35.1240   43.8120 C   0  0  0  0  0  0  0  0  0  0  0  0
   44.4250   36.5310   44.1680 C   0  0  0  0  0  0  0  0  0  0  0  0
   44.9190   36.3570   41.9870 H   0  0  0  0  0  0  0  0  0  0  0  0
   45.9550   34.9290   43.7410 H   0  0  0  0  0  0  0  0  0  0  0  0
   44.2420   34.3400   44.2700 H   0  0  0  0  0  0  0  0  0  0  0  0
   43.5810   36.6810   44.8420 H   0  0  0  0  0  0  0  0  0  0  0  0
   45.2650   37.2610   44.3320 H   0  0  0  0  0  0  0  0  0  0  0  0
  1  5  1  0  0  0  0
  1 24  1  0  0  0  0
  2  1  1  0  0  0  0
  3  1  1  0  0  0  0
  4  9  2  0  0  0  0
  4  5  1  0  0  0  0
  5  6  2  0  0  0  0
  6  7  1  0  0  0  0
  6 11  1  0  0  0  0
  8 12  1  0  0  0  0
  8  7  2  0  0  0  0
  9  8  1  0  0  0  0
 10  4  1  0  0  0  0
 12 13  1  0  0  0  0
 13 15  2  0  0  0  0
 13 14  1  0  0  0  0
 16 17  1  0  0  0  0
 16 15  1  0  0  0  0
 18 19  1  0  0  0  0
 18 17  2  0  0  0  0
 20 18  1  0  0  0  0
 21 20  2  0  0  0  0
 21 22  1  0  0  0  0
 22 16  2  0  0  0  0
 23 22  1  0  0  0  0
 23 12  2  0  0  0  0
 24 25  1  0  0  0  0
 26 25  2  0  0  0  0
 26 27  1  0  0  0  0
 27 29  1  0  0  0  0
 28 27  1  0  0  0  0
 30 27  1  0  0  0  0
 30 32  1  0  0  0  0
 32 31  2  1  0  0  0
 32 35  1  0  0  0  0
 33 32  1  0  0  0  0
 34 33  1  0  0  0  0
 35 36  1  0  0  0  0
 36 37  1  0  0  0  0
 36 38  1  0  0  0  0
 37 38  1  0  0  0  0
 37 41  1  0  0  0  0
 38 43  1  0  0  0  0
 38 42  1  0  0  0  0
 39 36  1  0  0  0  0
 40 37  1  0  0  0  0
M  END
>  <minimizedAffinity>
-6.05349922

$$$$

 OpenBabel03252504343D

 43 46  0  0  0  0  0  0  0  0999 V2000
   37.2470   31.9390   38.8220 C   0  0  0  0  0  0  0  0  0  0  0  0
   37.6240   31.1600   38.1140 H   0  0  0  0  0  0  0  0  0  0  0  0
   36.7760   32.7020   38.1420 H   0  0  0  0  0  0  0  0  0  0  0  0
   39.6570   31.8450   39.0750 C   0  0  0  0  0  0  0  0  0  0  0  0
   38.4960   32.5740   39.3480 C   0  0  0  0  0  0  0  0  0  0  0  0
   38.5990   33.7440   40.0120 C   0  0  0  0  0  0  0  0  0  0  0  0
   39.8280   34.1200   40.3620 N   0  0  0  0  0  0  0  0  0  0  0  0
   40.9440   33.4530   40.1180 C   0  0  0  0  0  0  0  0  0  0  0  0
   40.8830   32.2410   39.4370 N   0  0  0  0  0  0  0  0  0  0  0  0
   39.6840   30.8980   38.5530 H   0  0  0  0  0  0  0  0  0  0  0  0
   37.6720   34.2530   40.1890 H   0  0  0  0  0  0  0  0  0  0  0  0
   42.2570   33.9530   40.5470 C   0  0  0  0  0  0  0  0  0  0  0  0
   43.3990   33.5080   39.9150 C   0  0  0  0  0  0  0  0  0  0  0  0
   43.3700   32.7950   39.1070 H   0  0  0  0  0  0  0  0  0  0  0  0
   44.6040   34.0210   40.3690 C   0  0  0  0  0  3  0  0  0  0  0  0
   44.6460   34.9420   41.4140 C   0  0  0  0  0  0  0  0  0  0  0  0
   45.8120   35.4650   41.8840 N   0  0  0  0  0  0  0  0  0  0  0  0
   45.8260   36.3530   42.8930 C   0  0  0  0  0  0  0  0  0  0  0  0
   46.8190   36.6670   43.1430 H   0  0  0  0  0  0  0  0  0  0  0  0
   44.6490   36.7760   43.5020 C   0  0  0  0  0  3  0  0  0  0  0  0
   43.4610   36.2690   43.0520 C   0  0  0  0  0  3  0  0  0  0  0  0
   43.4600   35.3530   42.0090 C   0  0  0  0  0  0  0  0  0  0  0  0
   42.2300   34.8620   41.5840 C   0  0  0  0  0  3  0  0  0  0  0  0
   36.3680   31.5540   39.7800 O   0  0  0  0  0  0  0  0  0  0  0  0
   35.9570   30.2690   40.0930 C   0  0  0  0  0  3  0  0  0  0  0  0
   36.6150   29.6590   41.0720 C   0  0  0  0  0  3  0  0  0  0  0  0
   36.3450   28.2590   41.5910 C   0  0  0  0  0  0  0  0  0  0  0  0
   35.7760   28.4190   42.5460 H   0  0  0  0  0  0  0  0  0  0  0  0
   35.6750   27.7010   40.9220 H   0  0  0  0  0  0  0  0  0  0  0  0
   37.5710   27.6620   41.8170 O   0  0  0  0  0  0  0  0  0  0  0  0
   39.1370   29.4520   43.0090 O   0  0  0  0  0  0  0  0  0  0  0  0
   38.2730   28.2330   43.2400 P   0  0  1  0  0  0  0  0  0  0  0  0
   37.0650   28.6850   44.3540 O   0  0  0  0  0  0  0  0  0  0  0  0
   36.2790   28.0980   44.1820 H   0  0  0  0  0  0  0  0  0  0  0  0
   39.1820   27.0110   43.9660 O   0  0  0  0  0  0  0  0  0  0  0  0
   40.4770   26.9630   43.4850 C   0  0  0  0  0  0  0  0  0  0  0  0
   41.2280   25.6700   43.5480 C   0  0  0  0  0  0  0  0  0  0  0  0
   41.5460   26.7790   44.5370 C   0  0  0  0  0  0  0  0  0  0  0  0
   40.7170   27.6040   42.6240 H   0  0  0  0  0  0  0  0  0  0  0  0
   41.9590   25.4530   42.7600 H   0  0  0  0  0  0  0  0  0  0  0  0
   40.7070   24.8120   44.0180 H   0  0  0  0  0  0  0  0  0  0  0  0
   41.2990   26.6590   45.5930 H   0  0  0  0  0  0  0  0  0  0  0  0
   42.5350   27.2860   44.3630 H   0  0  0  0  0  0  0  0  0  0  0  0
  1  5  1  0  0  0  0
  1 24  1  0  0  0  0
  2  1  1  0  0  0  0
  3  1  1  0  0  0  0
  4  5  2  0  0  0  0
  4  9  1  0  0  0  0
  5  6  1  0  0  0  0
  6 11  1  0  0  0  0
  6  7  2  0  0  0  0
  8  7  1  0  0  0  0
  8 12  1  0  0  0  0
  9  8  2  0  0  0  0
 10  4  1  0  0  0  0
 12 23  1  0  0  0  0
 13 15  1  0  0  0  0
 13 12  2  0  0  0  0
 14 13  1  0  0  0  0
 15 16  2  0  0  0  0
 16 17  1  0  0  0  0
 16 22  1  0  0  0  0
 17 18  2  0  0  0  0
 18 19  1  0  0  0  0
 18 20  1  0  0  0  0
 21 20  2  0  0  0  0
 22 21  1  0  0  0  0
 23 22  2  0  0  0  0
 24 25  1  0  0  0  0
 25 26  2  0  0  0  0
 26 27  1  0  0  0  0
 27 30  1  0  0  0  0
 27 28  1  0  0  0  0
 29 27  1  0  0  0  0
 30 32  1  0  0  0  0
 32 31  2  6  0  0  0
 32 35  1  0  0  0  0
 32 33  1  0  0  0  0
 34 33  1  0  0  0  0
 36 37  1  0  0  0  0
 36 35  1  0  0  0  0
 36 38  1  0  0  0  0
 37 41  1  0  0  0  0
 37 38  1  0  0  0  0
 38 42  1  0  0  0  0
 39 36  1  0  0  0  0
 40 37  1  0  0  0  0
 43 38  1  0  0  0  0
M  END
>  <minimizedAffinity>
-6.02237511

$$$$

 OpenBabel03252504343D

 43 46  0  0  0  0  0  0  0  0999 V2000
   38.8230   34.4650   40.1760 C   0  0  0  0  0  0  0  0  0  0  0  0
   37.9460   34.9920   40.6300 H   0  0  0  0  0  0  0  0  0  0  0  0
   38.5860   34.4690   39.0770 H   0  0  0  0  0  0  0  0  0  0  0  0
   37.3990   32.5090   40.3420 C   0  0  0  0  0  0  0  0  0  0  0  0
   38.6570   33.0480   40.6280 C   0  0  0  0  0  0  0  0  0  0  0  0
   39.5770   32.2730   41.2390 C   0  0  0  0  0  0  0  0  0  0  0  0
   39.2050   31.0270   41.5270 N   0  0  0  0  0  0  0  0  0  0  0  0
   38.0240   30.4900   41.2690 C   0  0  0  0  0  0  0  0  0  0  0  0
   37.0450   31.2540   40.6410 N   0  0  0  0  0  0  0  0  0  0  0  0
   36.5920   33.0440   39.8580 H   0  0  0  0  0  0  0  0  0  0  0  0
   40.5190   32.7470   41.4300 H   0  0  0  0  0  0  0  0  0  0  0  0
   37.7100   29.1000   41.6260 C   0  0  0  0  0  0  0  0  0  0  0  0
   37.5950   28.7430   42.9540 C   0  0  0  0  0  0  0  0  0  0  0  0
   37.7300   29.4530   43.7550 H   0  0  0  0  0  0  0  0  0  0  0  0
   37.2970   27.4160   43.2210 C   0  0  0  0  0  3  0  0  0  0  0  0
   37.1240   26.4970   42.1880 C   0  0  0  0  0  0  0  0  0  0  0  0
   36.8300   25.1860   42.4150 N   0  0  0  0  0  0  0  0  0  0  0  0
   36.6670   24.3180   41.4010 C   0  0  0  0  0  0  0  0  0  0  0  0
   36.4410   23.3300   41.7470 H   0  0  0  0  0  0  0  0  0  0  0  0
   36.7910   24.7210   40.0760 C   0  0  0  0  0  3  0  0  0  0  0  0
   37.0850   26.0310   39.8160 C   0  0  0  0  0  3  0  0  0  0  0  0
   37.2510   26.9170   40.8710 C   0  0  0  0  0  0  0  0  0  0  0  0
   37.5500   28.2390   40.5600 C   0  0  0  0  0  3  0  0  0  0  0  0
   40.0570   34.9820   40.3960 O   0  0  0  0  0  0  0  0  0  0  0  0
   41.0050   35.3560   39.4580 C   0  0  0  0  0  3  0  0  0  0  0  0
   41.6480   34.3700   38.8420 C   0  0  0  0  0  3  0  0  0  0  0  0
   42.7200   34.5310   37.7820 C   0  0  0  0  0  0  0  0  0  0  0  0
   42.1500   34.6420   36.8200 H   0  0  0  0  0  0  0  0  0  0  0  0
   43.2850   35.4640   37.9150 H   0  0  0  0  0  0  0  0  0  0  0  0
   43.4860   33.3800   37.7940 O   0  0  0  0  0  0  0  0  0  0  0  0
   46.0170   32.6820   38.2220 O   0  0  0  0  0  0  0  0  0  0  0  0
   44.9090   33.6060   38.6720 P   0  0  1  0  0  0  0  0  0  0  0  0
   45.4780   35.2000   38.4730 O   0  0  0  0  0  0  0  0  0  0  0  0
   44.6800   35.7770   38.3300 H   0  0  0  0  0  0  0  0  0  0  0  0
   44.6110   33.3900   40.3190 O   0  0  0  0  0  0  0  0  0  0  0  0
   44.7520   34.5640   41.0360 C   0  0  0  0  0  0  0  0  0  0  0  0
   45.0880   34.4890   42.4920 C   0  0  0  0  0  0  0  0  0  0  0  0
   43.6700   34.8250   42.0590 C   0  0  0  0  0  0  0  0  0  0  0  0
   45.1660   35.4320   40.5030 H   0  0  0  0  0  0  0  0  0  0  0  0
   45.7000   35.2880   42.9280 H   0  0  0  0  0  0  0  0  0  0  0  0
   45.1730   33.4760   42.9350 H   0  0  0  0  0  0  0  0  0  0  0  0
   42.8610   34.1140   42.2340 H   0  0  0  0  0  0  0  0  0  0  0  0
   43.3730   35.8950   42.2350 H   0  0  0  0  0  0  0  0  0  0  0  0
  1 24  1  0  0  0  0
  1  5  1  0  0  0  0
  1  2  1  0  0  0  0
  3  1  1  0  0  0  0
  4  5  2  0  0  0  0
  4  9  1  0  0  0  0
  5  6  1  0  0  0  0
  6 11  1  0  0  0  0
  6  7  2  0  0  0  0
  8  7  1  0  0  0  0
  8 12  1  0  0  0  0
  9  8  2  0  0  0  0
 10  4  1  0  0  0  0
 12 13  1  0  0  0  0
 13 15  2  0  0  0  0
 13 14  1  0  0  0  0
 16 17  1  0  0  0  0
 16 15  1  0  0  0  0
 18 19  1  0  0  0  0
 18 17  2  0  0  0  0
 20 18  1  0  0  0  0
 21 20  2  0  0  0  0
 21 22  1  0  0  0  0
 22 16  2  0  0  0  0
 23 22  1  0  0  0  0
 23 12  2  0  0  0  0
 25 24  1  0  0  0  0
 26 25  2  0  0  0  0
 27 30  1  0  0  0  0
 27 29  1  0  0  0  0
 27 26  1  0  0  0  0
 28 27  1  0  0  0  0
 30 32  1  0  0  0  0
 32 31  2  6  0  0  0
 32 35  1  0  0  0  0
 33 32  1  0  0  0  0
 34 33  1  0  0  0  0
 35 36  1  0  0  0  0
 36 38  1  0  0  0  0
 36 37  1  0  0  0  0
 37 40  1  0  0  0  0
 37 41  1  0  0  0  0
 38 42  1  0  0  0  0
 38 43  1  0  0  0  0
 38 37  1  0  0  0  0
 39 36  1  0  0  0  0
M  END
>  <minimizedAffinity>
-5.9971981

$$$$

 OpenBabel03252504343D

 43 46  0  0  0  0  0  0  0  0999 V2000
   37.0980   33.6210   39.3730 C   0  0  0  0  0  0  0  0  0  0  0  0
   36.0180   33.9040   39.4520 H   0  0  0  0  0  0  0  0  0  0  0  0
   37.3940   34.0120   38.3600 H   0  0  0  0  0  0  0  0  0  0  0  0
   36.6600   31.4720   40.4090 C   0  0  0  0  0  0  0  0  0  0  0  0
   37.0630   32.1300   39.2430 C   0  0  0  0  0  0  0  0  0  0  0  0
   37.3520   31.4000   38.1470 C   0  0  0  0  0  0  0  0  0  0  0  0
   37.2270   30.0790   38.2650 N   0  0  0  0  0  0  0  0  0  0  0  0
   36.8480   29.4280   39.3520 C   0  0  0  0  0  0  0  0  0  0  0  0
   36.5410   30.1430   40.5060 N   0  0  0  0  0  0  0  0  0  0  0  0
   36.4080   31.9620   41.3400 H   0  0  0  0  0  0  0  0  0  0  0  0
   37.6560   31.9650   37.2870 H   0  0  0  0  0  0  0  0  0  0  0  0
   36.7390   27.9640   39.3820 C   0  0  0  0  0  0  0  0  0  0  0  0
   36.0510   27.3080   38.3820 C   0  0  0  0  0  0  0  0  0  0  0  0
   35.5810   27.8330   37.5660 H   0  0  0  0  0  0  0  0  0  0  0  0
   35.9870   25.9260   38.4710 C   0  0  0  0  0  3  0  0  0  0  0  0
   36.5930   25.2450   39.5250 C   0  0  0  0  0  0  0  0  0  0  0  0
   36.5490   23.8890   39.6430 N   0  0  0  0  0  0  0  0  0  0  0  0
   37.1420   23.2540   40.6690 C   0  0  0  0  0  0  0  0  0  0  0  0
   37.0160   22.1920   40.6160 H   0  0  0  0  0  0  0  0  0  0  0  0
   37.8270   23.9560   41.6560 C   0  0  0  0  0  3  0  0  0  0  0  0
   37.8890   25.3180   41.5650 C   0  0  0  0  0  3  0  0  0  0  0  0
   37.2730   25.9620   40.5010 C   0  0  0  0  0  0  0  0  0  0  0  0
   37.3600   27.3490   40.4490 C   0  0  0  0  0  3  0  0  0  0  0  0
   37.9460   34.0810   40.3240 O   0  0  0  0  0  0  0  0  0  0  0  0
   39.3310   34.0970   40.2970 C   0  0  0  0  0  3  0  0  0  0  0  0
   39.9030   35.2490   39.9670 C   0  0  0  0  0  3  0  0  0  0  0  0
   41.3950   35.5090   39.8730 C   0  0  0  0  0  0  0  0  0  0  0  0
   41.7940   34.6410   39.2810 H   0  0  0  0  0  0  0  0  0  0  0  0
   41.6130   36.4110   39.2840 H   0  0  0  0  0  0  0  0  0  0  0  0
   41.8920   35.5220   41.1630 O   0  0  0  0  0  0  0  0  0  0  0  0
   42.6780   32.9850   41.3180 O   0  0  0  0  0  0  0  0  0  0  0  0
   43.1560   34.4190   41.3390 P   0  0  1  0  0  0  0  0  0  0  0  0
   44.2710   34.5910   40.0620 O   0  0  0  0  0  0  0  0  0  0  0  0
   44.2480   35.5470   39.7850 H   0  0  0  0  0  0  0  0  0  0  0  0
   43.9940   34.7270   42.7710 O   0  0  0  0  0  0  0  0  0  0  0  0
   44.2490   36.0740   42.9500 C   0  0  0  0  0  0  0  0  0  0  0  0
   45.6690   36.5390   43.0360 C   0  0  0  0  0  0  0  0  0  0  0  0
   44.8270   36.4440   44.2970 C   0  0  0  0  0  0  0  0  0  0  0  0
   43.5500   36.7840   42.4860 H   0  0  0  0  0  0  0  0  0  0  0  0
   45.9160   37.5350   42.6510 H   0  0  0  0  0  0  0  0  0  0  0  0
   46.4550   35.7580   42.9850 H   0  0  0  0  0  0  0  0  0  0  0  0
   45.0530   35.6890   45.0520 H   0  0  0  0  0  0  0  0  0  0  0  0
   44.5290   37.4380   44.7320 H   0  0  0  0  0  0  0  0  0  0  0  0
  1  2  1  0  0  0  0
  1 24  1  0  0  0  0
  3  1  1  0  0  0  0
  4  9  1  0  0  0  0
  4 10  1  0  0  0  0
  5  1  1  0  0  0  0
  5  4  2  0  0  0  0
  6  7  2  0  0  0  0
  6  5  1  0  0  0  0
  7  8  1  0  0  0  0
  8 12  1  0  0  0  0
  8  9  2  0  0  0  0
 11  6  1  0  0  0  0
 12 23  1  0  0  0  0
 13 15  1  0  0  0  0
 13 12  2  0  0  0  0
 14 13  1  0  0  0  0
 15 16  2  0  0  0  0
 16 17  1  0  0  0  0
 16 22  1  0  0  0  0
 17 18  2  0  0  0  0
 18 20  1  0  0  0  0
 19 18  1  0  0  0  0
 21 20  2  0  0  0  0
 22 21  1  0  0  0  0
 23 22  2  0  0  0  0
 25 24  1  0  0  0  0
 26 25  2  0  0  0  0
 27 26  1  0  0  0  0
 27 30  1  0  0  0  0
 28 27  1  0  0  0  0
 29 27  1  0  0  0  0
 30 32  1  0  0  0  0
 32 31  2  1  0  0  0
 32 35  1  0  0  0  0
 33 32  1  0  0  0  0
 34 33  1  0  0  0  0
 35 36  1  0  0  0  0
 36 37  1  0  0  0  0
 36 38  1  0  0  0  0
 37 38  1  0  0  0  0
 38 43  1  0  0  0  0
 38 42  1  0  0  0  0
 39 36  1  0  0  0  0
 40 37  1  0  0  0  0
 41 37  1  0  0  0  0
M  END
>  <minimizedAffinity>
-5.91408682

$$$$

 OpenBabel03252504343D

 43 46  0  0  0  0  0  0  0  0999 V2000
   37.1700   33.5100   39.2860 C   0  0  0  0  0  0  0  0  0  0  0  0
   36.0800   33.7590   39.2270 H   0  0  0  0  0  0  0  0  0  0  0  0
   37.5210   33.6340   38.2240 H   0  0  0  0  0  0  0  0  0  0  0  0
   37.3390   31.7100   40.9020 C   0  0  0  0  0  0  0  0  0  0  0  0
   37.1820   32.0370   39.5520 C   0  0  0  0  0  0  0  0  0  0  0  0
   37.0400   31.0440   38.6500 C   0  0  0  0  0  0  0  0  0  0  0  0
   37.0610   29.8010   39.1300 N   0  0  0  0  0  0  0  0  0  0  0  0
   37.2070   29.4610   40.3990 C   0  0  0  0  0  0  0  0  0  0  0  0
   37.3570   30.4530   41.3630 N   0  0  0  0  0  0  0  0  0  0  0  0
   37.4610   32.4270   41.7030 H   0  0  0  0  0  0  0  0  0  0  0  0
   36.9250   31.3630   37.6330 H   0  0  0  0  0  0  0  0  0  0  0  0
   37.2150   28.0560   40.8300 C   0  0  0  0  0  0  0  0  0  0  0  0
   36.9560   27.7420   42.1470 C   0  0  0  0  0  0  0  0  0  0  0  0
   36.7440   28.4960   42.8890 H   0  0  0  0  0  0  0  0  0  0  0  0
   36.9800   26.3970   42.4850 C   0  0  0  0  0  3  0  0  0  0  0  0
   37.2540   25.4210   41.5300 C   0  0  0  0  0  0  0  0  0  0  0  0
   37.2850   24.0930   41.8280 N   0  0  0  0  0  0  0  0  0  0  0  0
   37.5510   23.1680   40.8880 C   0  0  0  0  0  0  0  0  0  0  0  0
   37.5380   22.1730   41.2840 H   0  0  0  0  0  0  0  0  0  0  0  0
   37.8070   23.5300   39.5700 C   0  0  0  0  0  3  0  0  0  0  0  0
   37.7820   24.8570   39.2390 C   0  0  0  0  0  3  0  0  0  0  0  0
   37.5060   25.8000   40.2180 C   0  0  0  0  0  0  0  0  0  0  0  0
   37.4920   27.1380   39.8370 C   0  0  0  0  0  3  0  0  0  0  0  0
   37.9420   34.2380   40.1280 O   0  0  0  0  0  0  0  0  0  0  0  0
   39.2490   34.6550   39.9410 C   0  0  0  0  0  3  0  0  0  0  0  0
   39.7460   35.4760   40.8610 C   0  0  0  0  0  3  0  0  0  0  0  0
   41.1450   36.0610   40.8710 C   0  0  0  0  0  0  0  0  0  0  0  0
   41.1210   36.8620   40.0840 H   0  0  0  0  0  0  0  0  0  0  0  0
   41.3660   36.5670   41.8210 H   0  0  0  0  0  0  0  0  0  0  0  0
   42.0190   35.0420   40.5390 O   0  0  0  0  0  0  0  0  0  0  0  0
   43.1500   35.9050   42.7860 O   0  0  0  0  0  0  0  0  0  0  0  0
   43.1670   34.8040   41.7510 P   0  0  1  0  0  0  0  0  0  0  0  0
   42.8630   33.3430   42.5740 O   0  0  0  0  0  0  0  0  0  0  0  0
   42.4430   32.7240   41.9170 H   0  0  0  0  0  0  0  0  0  0  0  0
   44.7060   34.6770   41.0700 O   0  0  0  0  0  0  0  0  0  0  0  0
   44.6770   34.1050   39.8110 C   0  0  0  0  0  0  0  0  0  0  0  0
   45.5700   32.9390   39.5220 C   0  0  0  0  0  0  0  0  0  0  0  0
   45.9230   34.3150   38.9820 C   0  0  0  0  0  0  0  0  0  0  0  0
   43.7120   34.1000   39.2840 H   0  0  0  0  0  0  0  0  0  0  0  0
   45.2210   32.1790   38.8140 H   0  0  0  0  0  0  0  0  0  0  0  0
   46.2450   32.6120   40.3380 H   0  0  0  0  0  0  0  0  0  0  0  0
   46.7890   34.8510   39.3730 H   0  0  0  0  0  0  0  0  0  0  0  0
   45.7920   34.4250   37.8710 H   0  0  0  0  0  0  0  0  0  0  0  0
  1  5  1  0  0  0  0
  1 24  1  0  0  0  0
  2  1  1  0  0  0  0
  3  1  1  0  0  0  0
  4  9  1  0  0  0  0
  4 10  1  0  0  0  0
  5  4  2  0  0  0  0
  6  7  2  0  0  0  0
  6  5  1  0  0  0  0
  7  8  1  0  0  0  0
  8 12  1  0  0  0  0
  8  9  2  0  0  0  0
 11  6  1  0  0  0  0
 12 13  1  0  0  0  0
 13 15  2  0  0  0  0
 13 14  1  0  0  0  0
 16 17  1  0  0  0  0
 16 15  1  0  0  0  0
 18 19  1  0  0  0  0
 18 17  2  0  0  0  0
 20 18  1  0  0  0  0
 21 20  2  0  0  0  0
 21 22  1  0  0  0  0
 22 16  2  0  0  0  0
 23 22  1  0  0  0  0
 23 12  2  0  0  0  0
 25 24  1  0  0  0  0
 25 26  2  0  0  0  0
 26 27  1  0  0  0  0
 27 29  1  0  0  0  0
 28 27  1  0  0  0  0
 30 27  1  0  0  0  0
 30 32  1  0  0  0  0
 32 33  1  0  0  0  0
 32 31  2  1  0  0  0
 34 33  1  0  0  0  0
 35 32  1  0  0  0  0
 36 35  1  0  0  0  0
 37 36  1  0  0  0  0
 37 41  1  0  0  0  0
 38 42  1  0  0  0  0
 38 37  1  0  0  0  0
 38 36  1  0  0  0  0
 39 36  1  0  0  0  0
 40 37  1  0  0  0  0
 43 38  1  0  0  0  0
M  END
>  <minimizedAffinity>
-5.81834269

$$$$

 OpenBabel03252504343D

 43 46  0  0  0  0  0  0  0  0999 V2000
   36.9760   28.8530   37.2290 C   0  0  0  0  0  0  0  0  0  0  0  0
   36.8430   29.1560   36.1600 H   0  0  0  0  0  0  0  0  0  0  0  0
   35.9320   28.9090   37.6450 H   0  0  0  0  0  0  0  0  0  0  0  0
   36.8920   30.9740   38.4030 C   0  0  0  0  0  0  0  0  0  0  0  0
   37.7200   30.0040   37.8320 C   0  0  0  0  0  0  0  0  0  0  0  0
   39.0580   30.1690   37.8900 C   0  0  0  0  0  0  0  0  0  0  0  0
   39.4920   31.2700   38.5010 N   0  0  0  0  0  0  0  0  0  0  0  0
   38.7350   32.2040   39.0500 C   0  0  0  0  0  0  0  0  0  0  0  0
   37.3500   32.0740   39.0120 N   0  0  0  0  0  0  0  0  0  0  0  0
   35.8100   30.9390   38.4090 H   0  0  0  0  0  0  0  0  0  0  0  0
   39.6350   29.3890   37.4330 H   0  0  0  0  0  0  0  0  0  0  0  0
   39.3120   33.3860   39.7040 C   0  0  0  0  0  0  0  0  0  0  0  0
   38.5620   34.5370   39.8260 C   0  0  0  0  0  0  0  0  0  0  0  0
   37.5520   34.6080   39.4550 H   0  0  0  0  0  0  0  0  0  0  0  0
   39.1670   35.6140   40.4540 C   0  0  0  0  0  3  0  0  0  0  0  0
   40.4720   35.5250   40.9340 C   0  0  0  0  0  0  0  0  0  0  0  0
   41.0970   36.5640   41.5560 N   0  0  0  0  0  0  0  0  0  0  0  0
   42.3570   36.4540   42.0110 C   0  0  0  0  0  0  0  0  0  0  0  0
   42.7010   37.3570   42.4730 H   0  0  0  0  0  0  0  0  0  0  0  0
   43.0780   35.2730   41.8670 C   0  0  0  0  0  3  0  0  0  0  0  0
   42.4780   34.2120   41.2480 C   0  0  0  0  0  3  0  0  0  0  0  0
   41.1770   34.3380   40.7830 C   0  0  0  0  0  0  0  0  0  0  0  0
   40.6060   33.2340   40.1580 C   0  0  0  0  0  3  0  0  0  0  0  0
   37.5220   27.6390   37.4820 O   0  0  0  0  0  0  0  0  0  0  0  0
   37.8130   27.0730   38.7110 C   0  0  0  0  0  3  0  0  0  0  0  0
   36.8900   27.2060   39.6580 C   0  0  0  0  0  3  0  0  0  0  0  0
   36.9820   26.6720   41.0740 C   0  0  0  0  0  0  0  0  0  0  0  0
   36.4290   25.6950   41.0420 H   0  0  0  0  0  0  0  0  0  0  0  0
   38.0180   26.4300   41.3500 H   0  0  0  0  0  0  0  0  0  0  0  0
   36.3590   27.5890   41.9000 O   0  0  0  0  0  0  0  0  0  0  0  0
   37.2510   30.0880   41.7190 O   0  0  0  0  0  0  0  0  0  0  0  0
   37.4430   28.7680   42.4290 P   0  0  1  0  0  0  0  0  0  0  0  0
   37.2290   29.0620   44.0940 O   0  0  0  0  0  0  0  0  0  0  0  0
   36.9140   28.2090   44.5000 H   0  0  0  0  0  0  0  0  0  0  0  0
   39.0280   28.2270   42.2230 O   0  0  0  0  0  0  0  0  0  0  0  0
   39.6130   27.8500   43.4180 C   0  0  0  0  0  0  0  0  0  0  0  0
   40.8840   27.0610   43.3870 C   0  0  0  0  0  0  0  0  0  0  0  0
   39.5710   26.3680   43.7140 C   0  0  0  0  0  0  0  0  0  0  0  0
   39.5100   28.5400   44.2680 H   0  0  0  0  0  0  0  0  0  0  0  0
   41.6080   27.2060   44.1980 H   0  0  0  0  0  0  0  0  0  0  0  0
   41.2770   26.7850   42.3880 H   0  0  0  0  0  0  0  0  0  0  0  0
   39.1380   25.6550   43.0110 H   0  0  0  0  0  0  0  0  0  0  0  0
   39.4650   26.0590   44.7900 H   0  0  0  0  0  0  0  0  0  0  0  0
  1 24  1  0  0  0  0
  1  3  1  0  0  0  0
  1  5  1  0  0  0  0
  2  1  1  0  0  0  0
  4 10  1  0  0  0  0
  4  9  1  0  0  0  0
  5  6  1  0  0  0  0
  5  4  2  0  0  0  0
  6  7  2  0  0  0  0
  7  8  1  0  0  0  0
  8 12  1  0  0  0  0
  9  8  2  0  0  0  0
 11  6  1  0  0  0  0
 12 13  2  0  0  0  0
 12 23  1  0  0  0  0
 13 15  1  0  0  0  0
 14 13  1  0  0  0  0
 15 16  2  0  0  0  0
 16 17  1  0  0  0  0
 17 18  2  0  0  0  0
 18 19  1  0  0  0  0
 20 18  1  0  0  0  0
 21 20  2  0  0  0  0
 22 16  1  0  0  0  0
 22 21  1  0  0  0  0
 23 22  2  0  0  0  0
 24 25  1  0  0  0  0
 25 26  2  0  0  0  0
 26 27  1  0  0  0  0
 27 29  1  0  0  0  0
 27 30  1  0  0  0  0
 28 27  1  0  0  0  0
 30 32  1  0  0  0  0
 32 31  2  6  0  0  0
 32 33  1  0  0  0  0
 33 34  1  0  0  0  0
 35 32  1  0  0  0  0
 35 36  1  0  0  0  0
 36 38  1  0  0  0  0
 36 39  1  0  0  0  0
 37 36  1  0  0  0  0
 37 38  1  0  0  0  0
 37 40  1  0  0  0  0
 38 43  1  0  0  0  0
 41 37  1  0  0  0  0
 42 38  1  0  0  0  0
M  END
>  <minimizedAffinity>
-5.70640421

$$$$

 OpenBabel03252504343D

 43 46  0  0  0  0  0  0  0  0999 V2000
   38.6620   34.2790   40.3130 C   0  0  0  0  0  0  0  0  0  0  0  0
   38.5740   34.7480   41.3250 H   0  0  0  0  0  0  0  0  0  0  0  0
   37.8110   34.7430   39.7400 H   0  0  0  0  0  0  0  0  0  0  0  0
   39.1900   32.1360   41.3170 C   0  0  0  0  0  0  0  0  0  0  0  0
   38.2700   32.8540   40.5480 C   0  0  0  0  0  0  0  0  0  0  0  0
   37.1500   32.2350   40.1210 C   0  0  0  0  0  0  0  0  0  0  0  0
   37.0060   30.9590   40.4760 N   0  0  0  0  0  0  0  0  0  0  0  0
   37.8570   30.2540   41.2020 C   0  0  0  0  0  0  0  0  0  0  0  0
   39.0270   30.8530   41.6620 N   0  0  0  0  0  0  0  0  0  0  0  0
   40.1170   32.5360   41.7060 H   0  0  0  0  0  0  0  0  0  0  0  0
   36.4870   32.8420   39.5360 H   0  0  0  0  0  0  0  0  0  0  0  0
   37.6070   28.8470   41.5420 C   0  0  0  0  0  0  0  0  0  0  0  0
   37.5630   28.4600   42.8650 C   0  0  0  0  0  0  0  0  0  0  0  0
   37.7060   29.1580   43.6750 H   0  0  0  0  0  0  0  0  0  0  0  0
   37.3220   27.1180   43.1160 C   0  0  0  0  0  3  0  0  0  0  0  0
   37.1370   26.2140   42.0720 C   0  0  0  0  0  0  0  0  0  0  0  0
   36.8990   24.8900   42.2820 N   0  0  0  0  0  0  0  0  0  0  0  0
   36.7230   24.0370   41.2580 C   0  0  0  0  0  0  0  0  0  0  0  0
   36.5460   23.0340   41.5910 H   0  0  0  0  0  0  0  0  0  0  0  0
   36.7760   24.4710   39.9370 C   0  0  0  0  0  3  0  0  0  0  0  0
   37.0120   25.7950   39.6940 C   0  0  0  0  0  3  0  0  0  0  0  0
   37.1920   26.6650   40.7590 C   0  0  0  0  0  0  0  0  0  0  0  0
   37.4310   28.0030   40.4650 C   0  0  0  0  0  3  0  0  0  0  0  0
   39.8270   34.4370   39.6390 O   0  0  0  0  0  0  0  0  0  0  0  0
   40.9960   35.0300   40.0840 C   0  0  0  0  0  3  0  0  0  0  0  0
   41.9670   34.2090   40.4700 C   0  0  0  0  0  3  0  0  0  0  0  0
   43.3310   34.6230   40.9900 C   0  0  0  0  0  0  0  0  0  0  0  0
   44.0210   33.8030   40.6500 H   0  0  0  0  0  0  0  0  0  0  0  0
   43.6860   35.5440   40.5070 H   0  0  0  0  0  0  0  0  0  0  0  0
   43.2440   34.6830   42.3680 O   0  0  0  0  0  0  0  0  0  0  0  0
   45.9020   34.5960   42.4250 O   0  0  0  0  0  0  0  0  0  0  0  0
   44.6450   34.0870   43.0930 P   0  0  1  0  0  0  0  0  0  0  0  0
   44.7170   34.5740   44.7250 O   0  0  0  0  0  0  0  0  0  0  0  0
   43.7780   34.6540   45.0450 H   0  0  0  0  0  0  0  0  0  0  0  0
   44.6280   32.4000   43.0820 O   0  0  0  0  0  0  0  0  0  0  0  0
   43.5620   31.8820   43.7940 C   0  0  0  0  0  0  0  0  0  0  0  0
   43.3850   30.3970   43.8590 C   0  0  0  0  0  0  0  0  0  0  0  0
   42.4880   31.2270   42.9550 C   0  0  0  0  0  0  0  0  0  0  0  0
   43.2400   32.4320   44.6900 H   0  0  0  0  0  0  0  0  0  0  0  0
   42.9480   29.9630   44.7660 H   0  0  0  0  0  0  0  0  0  0  0  0
   44.1130   29.7820   43.2920 H   0  0  0  0  0  0  0  0  0  0  0  0
   42.5760   31.1460   41.8710 H   0  0  0  0  0  0  0  0  0  0  0  0
   41.4260   31.3180   43.3130 H   0  0  0  0  0  0  0  0  0  0  0  0
  1  5  1  0  0  0  0
  1  2  1  0  0  0  0
  3  1  1  0  0  0  0
  4  9  1  0  0  0  0
  4 10  1  0  0  0  0
  5  4  2  0  0  0  0
  6  7  2  0  0  0  0
  6  5  1  0  0  0  0
  7  8  1  0  0  0  0
  8 12  1  0  0  0  0
  8  9  2  0  0  0  0
 11  6  1  0  0  0  0
 12 13  1  0  0  0  0
 13 15  2  0  0  0  0
 13 14  1  0  0  0  0
 16 17  1  0  0  0  0
 16 15  1  0  0  0  0
 18 19  1  0  0  0  0
 18 17  2  0  0  0  0
 20 18  1  0  0  0  0
 21 20  2  0  0  0  0
 21 22  1  0  0  0  0
 22 16  2  0  0  0  0
 23 22  1  0  0  0  0
 23 12  2  0  0  0  0
 24 25  1  0  0  0  0
 24  1  1  0  0  0  0
 25 26  2  0  0  0  0
 26 27  1  0  0  0  0
 27 30  1  0  0  0  0
 28 27  1  0  0  0  0
 29 27  1  0  0  0  0
 30 32  1  0  0  0  0
 32 31  2  6  0  0  0
 32 33  1  0  0  0  0
 33 34  1  0  0  0  0
 35 32  1  0  0  0  0
 35 36  1  0  0  0  0
 36 37  1  0  0  0  0
 36 39  1  0  0  0  0
 37 40  1  0  0  0  0
 38 43  1  0  0  0  0
 38 36  1  0  0  0  0
 38 37  1  0  0  0  0
 41 37  1  0  0  0  0
 42 38  1  0  0  0  0
M  END
>  <minimizedAffinity>
-5.62409878

$$$$

 OpenBabel03252504343D

 43 46  0  0  0  0  0  0  0  0999 V2000
   34.9340   28.2640   38.5690 C   0  0  0  0  0  0  0  0  0  0  0  0
   33.9620   28.7100   38.2380 H   0  0  0  0  0  0  0  0  0  0  0  0
   34.7050   27.8840   39.6030 H   0  0  0  0  0  0  0  0  0  0  0  0
   35.8720   29.9210   40.0720 C   0  0  0  0  0  0  0  0  0  0  0  0
   35.8240   29.4530   38.7550 C   0  0  0  0  0  0  0  0  0  0  0  0
   36.5660   30.0720   37.8140 C   0  0  0  0  0  0  0  0  0  0  0  0
   37.3030   31.1030   38.2240 N   0  0  0  0  0  0  0  0  0  0  0  0
   37.3690   31.5680   39.4600 C   0  0  0  0  0  0  0  0  0  0  0  0
   36.6190   30.9600   40.4620 N   0  0  0  0  0  0  0  0  0  0  0  0
   35.3160   29.4990   40.8990 H   0  0  0  0  0  0  0  0  0  0  0  0
   36.4830   29.6640   36.8250 H   0  0  0  0  0  0  0  0  0  0  0  0
   38.2160   32.7150   39.8130 C   0  0  0  0  0  0  0  0  0  0  0  0
   37.6830   33.9870   39.8100 C   0  0  0  0  0  0  0  0  0  0  0  0
   36.6540   34.1790   39.5540 H   0  0  0  0  0  0  0  0  0  0  0  0
   38.5380   35.0230   40.1530 C   0  0  0  0  0  3  0  0  0  0  0  0
   39.8690   34.7770   40.4830 C   0  0  0  0  0  0  0  0  0  0  0  0
   40.7350   35.7720   40.8250 N   0  0  0  0  0  0  0  0  0  0  0  0
   42.0150   35.5090   41.1400 C   0  0  0  0  0  0  0  0  0  0  0  0
   42.5620   36.3970   41.3840 H   0  0  0  0  0  0  0  0  0  0  0  0
   42.5110   34.2100   41.1310 C   0  0  0  0  0  3  0  0  0  0  0  0
   41.6660   33.1900   40.7930 C   0  0  0  0  0  3  0  0  0  0  0  0
   40.3470   33.4740   40.4690 C   0  0  0  0  0  0  0  0  0  0  0  0
   39.5230   32.4050   40.1300 C   0  0  0  0  0  3  0  0  0  0  0  0
   35.4690   27.2770   37.8100 O   0  0  0  0  0  0  0  0  0  0  0  0
   36.3800   26.3050   38.1920 C   0  0  0  0  0  3  0  0  0  0  0  0
   36.2800   25.8590   39.4390 C   0  0  0  0  0  3  0  0  0  0  0  0
   37.1580   24.8010   40.0800 C   0  0  0  0  0  0  0  0  0  0  0  0
   36.6180   23.8350   39.8900 H   0  0  0  0  0  0  0  0  0  0  0  0
   38.1280   24.7170   39.5710 H   0  0  0  0  0  0  0  0  0  0  0  0
   37.2320   25.0910   41.4300 O   0  0  0  0  0  0  0  0  0  0  0  0
   39.4130   24.1900   42.6570 O   0  0  0  0  0  0  0  0  0  0  0  0
   38.8260   25.3640   41.9080 P   0  0  1  0  0  0  0  0  0  0  0  0
   39.8140   25.6270   40.5440 O   0  0  0  0  0  0  0  0  0  0  0  0
   39.2400   26.0500   39.8480 H   0  0  0  0  0  0  0  0  0  0  0  0
   38.9140   26.7570   42.8570 O   0  0  0  0  0  0  0  0  0  0  0  0
   37.8280   27.5910   42.6650 C   0  0  0  0  0  0  0  0  0  0  0  0
   37.8370   28.9500   43.2910 C   0  0  0  0  0  0  0  0  0  0  0  0
   36.9880   27.8440   43.8970 C   0  0  0  0  0  0  0  0  0  0  0  0
   37.3050   27.5220   41.7000 H   0  0  0  0  0  0  0  0  0  0  0  0
   37.3260   29.7680   42.7690 H   0  0  0  0  0  0  0  0  0  0  0  0
   38.7160   29.2070   43.9160 H   0  0  0  0  0  0  0  0  0  0  0  0
   37.2510   27.4210   44.8680 H   0  0  0  0  0  0  0  0  0  0  0  0
   35.8820   27.9760   43.7500 H   0  0  0  0  0  0  0  0  0  0  0  0
  1  5  1  0  0  0  0
  1  3  1  0  0  0  0
  2  1  1  0  0  0  0
  4  9  1  0  0  0  0
  4 10  1  0  0  0  0
  5  4  2  0  0  0  0
  6  7  2  0  0  0  0
  6  5  1  0  0  0  0
  7  8  1  0  0  0  0
  8 12  1  0  0  0  0
  8  9  2  0  0  0  0
 11  6  1  0  0  0  0
 12 23  1  0  0  0  0
 13 12  2  0  0  0  0
 13 15  1  0  0  0  0
 14 13  1  0  0  0  0
 15 16  2  0  0  0  0
 16 17  1  0  0  0  0
 17 18  2  0  0  0  0
 18 19  1  0  0  0  0
 20 18  1  0  0  0  0
 21 20  2  0  0  0  0
 22 16  1  0  0  0  0
 22 21  1  0  0  0  0
 23 22  2  0  0  0  0
 24 25  1  0  0  0  0
 24  1  1  0  0  0  0
 25 26  2  0  0  0  0
 26 27  1  0  0  0  0
 27 30  1  0  0  0  0
 28 27  1  0  0  0  0
 29 27  1  0  0  0  0
 30 32  1  0  0  0  0
 32 31  2  1  0  0  0
 32 35  1  0  0  0  0
 33 32  1  0  0  0  0
 34 33  1  0  0  0  0
 36 35  1  0  0  0  0
 36 37  1  0  0  0  0
 36 38  1  0  0  0  0
 37 38  1  0  0  0  0
 37 41  1  0  0  0  0
 38 42  1  0  0  0  0
 39 36  1  0  0  0  0
 40 37  1  0  0  0  0
 43 38  1  0  0  0  0
M  END
>  <minimizedAffinity>
-5.5884347

$$$$

 OpenBabel03252504343D

 43 46  0  0  0  0  0  0  0  0999 V2000
   38.4690   34.4010   40.1160 C   0  0  0  0  0  0  0  0  0  0  0  0
   37.5020   34.8570   40.4460 H   0  0  0  0  0  0  0  0  0  0  0  0
   38.3720   34.3720   38.9960 H   0  0  0  0  0  0  0  0  0  0  0  0
   37.1730   32.3520   40.1980 C   0  0  0  0  0  0  0  0  0  0  0  0
   38.3640   32.9800   40.5740 C   0  0  0  0  0  0  0  0  0  0  0  0
   39.2840   32.2770   41.2670 C   0  0  0  0  0  0  0  0  0  0  0  0
   38.9760   31.0100   41.5430 N   0  0  0  0  0  0  0  0  0  0  0  0
   37.8600   30.3890   41.2010 C   0  0  0  0  0  0  0  0  0  0  0  0
   36.8840   31.0780   40.4860 N   0  0  0  0  0  0  0  0  0  0  0  0
   36.3730   32.8240   39.6440 H   0  0  0  0  0  0  0  0  0  0  0  0
   40.1730   32.8170   41.5260 H   0  0  0  0  0  0  0  0  0  0  0  0
   37.6140   28.9850   41.5530 C   0  0  0  0  0  0  0  0  0  0  0  0
   37.6540   28.5930   42.8750 C   0  0  0  0  0  0  0  0  0  0  0  0
   37.8610   29.2850   43.6750 H   0  0  0  0  0  0  0  0  0  0  0  0
   37.4130   27.2530   43.1370 C   0  0  0  0  0  3  0  0  0  0  0  0
   37.1450   26.3560   42.1050 C   0  0  0  0  0  0  0  0  0  0  0  0
   36.9040   25.0340   42.3270 N   0  0  0  0  0  0  0  0  0  0  0  0
   36.6470   24.1880   41.3140 C   0  0  0  0  0  0  0  0  0  0  0  0
   36.4800   23.1860   41.6560 H   0  0  0  0  0  0  0  0  0  0  0  0
   36.6170   24.6260   39.9950 C   0  0  0  0  0  3  0  0  0  0  0  0
   36.8540   25.9480   39.7400 C   0  0  0  0  0  3  0  0  0  0  0  0
   37.1170   26.8110   40.7930 C   0  0  0  0  0  0  0  0  0  0  0  0
   37.3550   28.1480   40.4880 C   0  0  0  0  0  3  0  0  0  0  0  0
   39.6180   35.0230   40.4760 O   0  0  0  0  0  0  0  0  0  0  0  0
   40.7090   35.3260   39.6790 C   0  0  0  0  0  3  0  0  0  0  0  0
   41.2290   34.3220   38.9810 C   0  0  0  0  0  3  0  0  0  0  0  0
   42.4180   34.4110   38.0420 C   0  0  0  0  0  0  0  0  0  0  0  0
   42.3340   35.4310   37.5790 H   0  0  0  0  0  0  0  0  0  0  0  0
   43.3700   34.3990   38.5920 H   0  0  0  0  0  0  0  0  0  0  0  0
   42.2750   33.4070   37.1030 O   0  0  0  0  0  0  0  0  0  0  0  0
   44.3890   31.8490   36.6770 O   0  0  0  0  0  0  0  0  0  0  0  0
   43.1590   32.0380   37.5360 P   0  0  1  0  0  0  0  0  0  0  0  0
   43.6940   32.1670   39.1490 O   0  0  0  0  0  0  0  0  0  0  0  0
   43.0170   32.7100   39.6360 H   0  0  0  0  0  0  0  0  0  0  0  0
   42.1790   30.6670   37.4490 O   0  0  0  0  0  0  0  0  0  0  0  0
   41.1660   30.6860   38.3900 C   0  0  0  0  0  0  0  0  0  0  0  0
   40.1870   29.5550   38.4270 C   0  0  0  0  0  0  0  0  0  0  0  0
   39.7760   30.8920   37.8330 C   0  0  0  0  0  0  0  0  0  0  0  0
   41.3940   31.1420   39.3650 H   0  0  0  0  0  0  0  0  0  0  0  0
   39.7610   29.2660   39.3950 H   0  0  0  0  0  0  0  0  0  0  0  0
   40.3090   28.7630   37.6600 H   0  0  0  0  0  0  0  0  0  0  0  0
   39.5950   30.9830   36.7610 H   0  0  0  0  0  0  0  0  0  0  0  0
   39.0480   31.4750   38.4610 H   0  0  0  0  0  0  0  0  0  0  0  0
  1  2  1  0  0  0  0
  1 24  1  0  0  0  0
  1  5  1  0  0  0  0
  3  1  1  0  0  0  0
  4  9  2  0  0  0  0
  4  5  1  0  0  0  0
  5  6  2  0  0  0  0
  6 11  1  0  0  0  0
  6  7  1  0  0  0  0
  8  7  2  0  0  0  0
  8 12  1  0  0  0  0
  9  8  1  0  0  0  0
 10  4  1  0  0  0  0
 12 13  1  0  0  0  0
 13 15  2  0  0  0  0
 13 14  1  0  0  0  0
 16 17  1  0  0  0  0
 16 15  1  0  0  0  0
 18 19  1  0  0  0  0
 18 17  2  0  0  0  0
 20 18  1  0  0  0  0
 21 20  2  0  0  0  0
 21 22  1  0  0  0  0
 22 16  2  0  0  0  0
 23 22  1  0  0  0  0
 23 12  2  0  0  0  0
 25 24  1  0  0  0  0
 26 25  2  0  0  0  0
 27 29  1  0  0  0  0
 27 26  1  0  0  0  0
 28 27  1  0  0  0  0
 30 32  1  0  0  0  0
 30 27  1  0  0  0  0
 32 31  2  6  0  0  0
 32 33  1  0  0  0  0
 33 34  1  0  0  0  0
 35 32  1  0  0  0  0
 35 36  1  0  0  0  0
 36 37  1  0  0  0  0
 36 39  1  0  0  0  0
 37 40  1  0  0  0  0
 38 36  1  0  0  0  0
 38 37  1  0  0  0  0
 38 43  1  0  0  0  0
 41 37  1  0  0  0  0
 42 38  1  0  0  0  0
M  END
>  <minimizedAffinity>
-5.53665447

$$$$
