
 OpenBabel03252508193D

 50 55  0  0  1  0  0  0  0  0999 V2000
   36.8740   24.8700   40.8130 C   0  0  1  0  0  0  0  0  0  0  0  0
   37.5850   24.2040   41.9400 C   0  0  0  0  0  0  0  0  0  0  0  0
   36.7550   25.3770   42.1940 C   0  0  1  0  0  0  0  0  0  0  0  0
   36.1440   24.1360   40.3590 H   0  0  0  0  0  0  0  0  0  0  0  0
   37.2630   23.2290   42.3560 H   0  0  0  0  0  0  0  0  0  0  0  0
   38.6910   24.3470   42.0220 H   0  0  0  0  0  0  0  0  0  0  0  0
   35.7810   25.1950   42.6940 H   0  0  0  0  0  0  0  0  0  0  0  0
   37.3490   26.7170   42.5030 C   0  0  2  0  0  0  0  0  0  0  0  0
   36.5470   27.5030   43.5710 C   0  0  0  0  0  0  0  0  0  0  0  0
   36.5170   27.9510   42.1700 C   0  0  1  0  0  0  0  0  0  0  0  0
   38.4240   26.8570   42.6700 H   0  0  0  0  0  0  0  0  0  0  0  0
   35.6060   27.0610   43.9460 H   0  0  0  0  0  0  0  0  0  0  0  0
   37.0600   28.1110   44.3080 H   0  0  0  0  0  0  0  0  0  0  0  0
   35.6000   27.7880   41.5680 H   0  0  0  0  0  0  0  0  0  0  0  0
   37.2260   29.2080   41.8550 C   0  0  0  0  0  0  0  0  0  0  0  0
   38.4680   29.4230   42.4650 C   0  0  0  0  0  0  0  0  0  0  0  0
   38.9290   28.7140   43.1520 H   0  0  0  0  0  0  0  0  0  0  0  0
   39.1860   30.5900   42.2090 C   0  0  0  0  0  3  0  0  0  0  0  0
   38.6920   31.5590   41.3500 C   0  0  0  0  0  0  0  0  0  0  0  0
   39.3920   32.6730   41.1150 N   0  0  0  0  0  0  0  0  0  0  0  0
   38.9680   33.6480   40.2950 C   0  0  0  0  0  0  0  0  0  0  0  0
   39.5650   34.5330   40.1310 H   0  0  0  0  0  0  0  0  0  0  0  0
   37.7400   33.4490   39.6830 C   0  0  0  0  0  3  0  0  0  0  0  0
   36.9740   32.2990   39.9000 C   0  0  0  0  0  3  0  0  0  0  0  0
   37.4560   31.3140   40.7620 C   0  0  0  0  0  0  0  0  0  0  0  0
   36.7190   30.1620   40.9970 C   0  0  0  0  0  3  0  0  0  0  0  0
   37.7470   25.5610   39.8300 C   0  0  0  0  0  0  0  0  0  0  0  0
   38.5230   24.8040   39.5080 H   0  0  0  0  0  0  0  0  0  0  0  0
   38.2800   26.4410   40.1390 H   0  0  0  0  0  0  0  0  0  0  0  0
   36.1410   26.7830   38.6200 C   0  0  0  0  0  3  0  0  0  0  0  0
   36.9990   25.8530   38.5520 C   0  0  0  0  0  3  0  0  0  0  0  0
   34.8040   26.8380   35.1840 C   0  0  0  0  0  0  0  0  0  0  0  0
   33.7410   27.7290   35.2780 C   0  0  0  0  0  0  0  0  0  0  0  0
   33.5190   28.2760   36.5020 C   0  0  0  0  0  0  0  0  0  0  0  0
   34.3170   27.9450   37.5550 N   0  0  0  0  0  0  0  0  0  0  0  0
   35.3380   27.0790   37.4310 C   0  0  0  0  0  0  0  0  0  0  0  0
   35.5550   26.5470   36.2420 N   0  0  0  0  0  0  0  0  0  0  0  0
   35.0290   26.3700   34.2280 H   0  0  0  0  0  0  0  0  0  0  0  0
   33.1230   27.9740   34.4240 H   0  0  0  0  0  0  0  0  0  0  0  0
   32.4420   29.2250   36.7520 C   0  0  0  0  0  0  0  0  0  0  0  0
   31.9110   30.0690   35.8220 C   0  0  0  0  0  0  0  0  0  0  0  0
   30.8900   30.9630   36.0760 C   0  0  0  0  0  0  0  0  0  0  0  0
   30.3460   31.0350   37.3430 C   0  0  0  0  0  0  0  0  0  0  0  0
   30.8370   30.2130   38.3200 C   0  0  0  0  0  0  0  0  0  0  0  0
   31.8620   29.3370   38.0070 C   0  0  0  0  0  0  0  0  0  0  0  0
   32.3170   30.0400   34.8050 H   0  0  0  0  0  0  0  0  0  0  0  0
   30.4820   31.6200   35.3340 H   0  0  0  0  0  0  0  0  0  0  0  0
   29.5420   31.6990   37.6520 H   0  0  0  0  0  0  0  0  0  0  0  0
   30.4490   30.2280   39.3280 H   0  0  0  0  0  0  0  0  0  0  0  0
   32.2250   28.6980   38.8170 H   0  0  0  0  0  0  0  0  0  0  0  0
  1  4  1  6  0  0  0
  1  2  1  0  0  0  0
  1  3  1  0  0  0  0
  2  6  1  0  0  0  0
  2  3  1  0  0  0  0
  2  5  1  0  0  0  0
  3  8  1  0  0  0  0
  3  7  1  1  0  0  0
  8 11  1  6  0  0  0
  8  9  1  0  0  0  0
  9 12  1  0  0  0  0
  9 13  1  0  0  0  0
 10 14  1  6  0  0  0
 10  8  1  0  0  0  0
 10  9  1  0  0  0  0
 15 10  1  0  0  0  0
 15 16  1  0  0  0  0
 16 17  1  0  0  0  0
 18 16  2  0  0  0  0
 19 18  1  0  0  0  0
 20 19  1  0  0  0  0
 21 20  2  0  0  0  0
 22 21  1  0  0  0  0
 23 24  2  0  0  0  0
 23 21  1  0  0  0  0
 24 25  1  0  0  0  0
 25 26  1  0  0  0  0
 25 19  2  0  0  0  0
 26 15  2  0  0  0  0
 27 29  1  0  0  0  0
 27  1  1  0  0  0  0
 28 27  1  0  0  0  0
 31 30  2  0  0  0  0
 31 27  1  0  0  0  0
 32 33  2  0  0  0  0
 32 37  1  0  0  0  0
 33 34  1  0  0  0  0
 34 40  1  0  0  0  0
 34 35  2  0  0  0  0
 36 35  1  0  0  0  0
 36 30  1  0  0  0  0
 37 36  2  0  0  0  0
 38 32  1  0  0  0  0
 39 33  1  0  0  0  0
 40 45  1  0  0  0  0
 41 42  1  0  0  0  0
 41 40  2  0  0  0  0
 42 43  2  0  0  0  0
 43 48  1  0  0  0  0
 43 44  1  0  0  0  0
 44 49  1  0  0  0  0
 45 44  2  0  0  0  0
 45 50  1  0  0  0  0
 46 41  1  0  0  0  0
 47 42  1  0  0  0  0
M  END
>  <minimizedAffinity>
-7.02930689

$$$$

 OpenBabel03252508193D

 50 55  0  0  1  0  0  0  0  0999 V2000
   42.3150   32.5310   41.7240 C   0  0  1  0  0  0  0  0  0  0  0  0
   42.9830   33.4510   40.7610 C   0  0  0  0  0  0  0  0  0  0  0  0
   41.5660   33.6230   41.0710 C   0  0  1  0  0  0  0  0  0  0  0  0
   42.8110   32.6380   42.7340 H   0  0  0  0  0  0  0  0  0  0  0  0
   43.6930   34.2390   41.0830 H   0  0  0  0  0  0  0  0  0  0  0  0
   43.2260   33.0600   39.7420 H   0  0  0  0  0  0  0  0  0  0  0  0
   41.3030   34.4830   41.7210 H   0  0  0  0  0  0  0  0  0  0  0  0
   40.4910   33.2530   40.0980 C   0  0  2  0  0  0  0  0  0  0  0  0
   39.4040   34.3480   39.9510 C   0  0  0  0  0  0  0  0  0  0  0  0
   39.0740   33.0900   40.6400 C   0  0  1  0  0  0  0  0  0  0  0  0
   40.7120   32.8180   39.1160 H   0  0  0  0  0  0  0  0  0  0  0  0
   39.4720   35.2400   40.6010 H   0  0  0  0  0  0  0  0  0  0  0  0
   38.9550   34.5530   38.9850 H   0  0  0  0  0  0  0  0  0  0  0  0
   38.9580   33.0920   41.7430 H   0  0  0  0  0  0  0  0  0  0  0  0
   38.1600   32.1660   39.9420 C   0  0  0  0  0  0  0  0  0  0  0  0
   38.3260   32.0080   38.5600 C   0  0  0  0  0  0  0  0  0  0  0  0
   39.0900   32.5310   37.9850 H   0  0  0  0  0  0  0  0  0  0  0  0
   37.4940   31.1510   37.8430 C   0  0  0  0  0  3  0  0  0  0  0  0
   36.4880   30.4360   38.4750 C   0  0  0  0  0  0  0  0  0  0  0  0
   35.6980   29.6170   37.7740 N   0  0  0  0  0  0  0  0  0  0  0  0
   34.7080   28.8990   38.3280 C   0  0  0  0  0  0  0  0  0  0  0  0
   34.0920   28.2480   37.7260 H   0  0  0  0  0  0  0  0  0  0  0  0
   34.5310   29.0440   39.6960 C   0  0  0  0  0  3  0  0  0  0  0  0
   35.3350   29.8900   40.4680 C   0  0  0  0  0  3  0  0  0  0  0  0
   36.3500   30.6160   39.8480 C   0  0  0  0  0  0  0  0  0  0  0  0
   37.1640   31.4630   40.5870 C   0  0  0  0  0  3  0  0  0  0  0  0
   42.1580   31.1290   41.2590 C   0  0  0  0  0  0  0  0  0  0  0  0
   43.0770   30.5730   41.6130 H   0  0  0  0  0  0  0  0  0  0  0  0
   42.0670   30.9400   40.2060 H   0  0  0  0  0  0  0  0  0  0  0  0
   40.3480   29.6260   41.2990 C   0  0  0  0  0  3  0  0  0  0  0  0
   41.0330   30.4370   41.9890 C   0  0  0  0  0  3  0  0  0  0  0  0
   37.6280   28.7250   43.6190 C   0  0  0  0  0  0  0  0  0  0  0  0
   37.0460   27.6240   43.0030 C   0  0  0  0  0  0  0  0  0  0  0  0
   37.5970   27.2290   41.8260 C   0  0  0  0  0  0  0  0  0  0  0  0
   38.6630   27.9020   41.3090 N   0  0  0  0  0  0  0  0  0  0  0  0
   39.2040   28.9640   41.9300 C   0  0  0  0  0  0  0  0  0  0  0  0
   38.6690   29.3480   43.0750 N   0  0  0  0  0  0  0  0  0  0  0  0
   37.2280   29.0850   44.5640 H   0  0  0  0  0  0  0  0  0  0  0  0
   36.1990   27.1070   43.4360 H   0  0  0  0  0  0  0  0  0  0  0  0
   37.0940   26.0910   41.0670 C   0  0  0  0  0  0  0  0  0  0  0  0
   36.9170   24.8340   41.5650 C   0  0  0  0  0  0  0  0  0  0  0  0
   36.4380   23.7670   40.8320 C   0  0  0  0  0  0  0  0  0  0  0  0
   36.1070   23.9470   39.5040 C   0  0  0  0  0  0  0  0  0  0  0  0
   36.2620   25.1860   38.9450 C   0  0  0  0  0  0  0  0  0  0  0  0
   36.7460   26.2180   39.7290 C   0  0  0  0  0  0  0  0  0  0  0  0
   37.1690   24.6540   42.6150 H   0  0  0  0  0  0  0  0  0  0  0  0
   36.3040   22.7840   41.2370 H   0  0  0  0  0  0  0  0  0  0  0  0
   35.7220   23.1790   38.8350 H   0  0  0  0  0  0  0  0  0  0  0  0
   36.0180   25.3820   37.9120 H   0  0  0  0  0  0  0  0  0  0  0  0
   36.8560   27.1930   39.2450 H   0  0  0  0  0  0  0  0  0  0  0  0
  1  4  1  1  0  0  0
  2  3  1  0  0  0  0
  2  5  1  0  0  0  0
  2  1  1  0  0  0  0
  3  7  1  1  0  0  0
  3  1  1  0  0  0  0
  6  2  1  0  0  0  0
  8 11  1  6  0  0  0
  8 10  1  0  0  0  0
  8  3  1  0  0  0  0
  9  8  1  0  0  0  0
  9 12  1  0  0  0  0
  9 10  1  0  0  0  0
 10 14  1  1  0  0  0
 13  9  1  0  0  0  0
 15 26  1  0  0  0  0
 15 10  1  0  0  0  0
 16 15  2  0  0  0  0
 17 16  1  0  0  0  0
 18 19  2  0  0  0  0
 18 16  1  0  0  0  0
 19 25  1  0  0  0  0
 20 21  2  0  0  0  0
 20 19  1  0  0  0  0
 21 23  1  0  0  0  0
 22 21  1  0  0  0  0
 23 24  2  0  0  0  0
 25 24  1  0  0  0  0
 25 26  2  0  0  0  0
 27 28  1  0  0  0  0
 27  1  1  0  0  0  0
 27 31  1  0  0  0  0
 29 27  1  0  0  0  0
 30 36  1  0  0  0  0
 30 31  2  0  0  0  0
 32 38  1  0  0  0  0
 33 39  1  0  0  0  0
 33 32  2  0  0  0  0
 34 33  1  0  0  0  0
 35 34  2  0  0  0  0
 35 36  1  0  0  0  0
 36 37  2  0  0  0  0
 37 32  1  0  0  0  0
 40 41  1  0  0  0  0
 40 34  1  0  0  0  0
 41 46  1  0  0  0  0
 42 47  1  0  0  0  0
 42 41  2  0  0  0  0
 43 42  1  0  0  0  0
 44 43  2  0  0  0  0
 44 45  1  0  0  0  0
 45 40  2  0  0  0  0
 48 43  1  0  0  0  0
 49 44  1  0  0  0  0
 50 45  1  0  0  0  0
M  END
>  <minimizedAffinity>
-6.78661633

$$$$

 OpenBabel03252508193D

 50 55  0  0  1  0  0  0  0  0999 V2000
   37.7910   24.4510   41.0320 C   0  0  1  0  0  0  0  0  0  0  0  0
   38.1960   24.1080   42.4240 C   0  0  0  0  0  0  0  0  0  0  0  0
   37.2150   25.1630   42.1890 C   0  0  1  0  0  0  0  0  0  0  0  0
   37.3070   23.5460   40.5600 H   0  0  0  0  0  0  0  0  0  0  0  0
   37.8630   23.1810   42.9310 H   0  0  0  0  0  0  0  0  0  0  0  0
   39.2070   24.4350   42.7730 H   0  0  0  0  0  0  0  0  0  0  0  0
   36.1590   24.9200   42.4300 H   0  0  0  0  0  0  0  0  0  0  0  0
   37.5530   26.6120   42.3610 C   0  0  2  0  0  0  0  0  0  0  0  0
   36.7320   27.2960   43.4850 C   0  0  0  0  0  0  0  0  0  0  0  0
   36.4530   27.6300   42.0790 C   0  0  1  0  0  0  0  0  0  0  0  0
   38.5870   26.9740   42.3860 H   0  0  0  0  0  0  0  0  0  0  0  0
   35.9510   26.7030   43.9940 H   0  0  0  0  0  0  0  0  0  0  0  0
   37.1900   28.0440   44.1230 H   0  0  0  0  0  0  0  0  0  0  0  0
   35.5260   27.2470   41.6050 H   0  0  0  0  0  0  0  0  0  0  0  0
   36.8470   28.9780   41.6220 C   0  0  0  0  0  0  0  0  0  0  0  0
   35.8840   29.7470   40.9580 C   0  0  0  0  0  0  0  0  0  0  0  0
   34.8690   29.3990   40.7650 H   0  0  0  0  0  0  0  0  0  0  0  0
   36.1940   31.0260   40.5020 C   0  0  0  0  0  3  0  0  0  0  0  0
   37.4560   31.5670   40.6940 C   0  0  0  0  0  0  0  0  0  0  0  0
   37.7390   32.7960   40.2510 N   0  0  0  0  0  0  0  0  0  0  0  0
   38.9410   33.3740   40.4060 C   0  0  0  0  0  0  0  0  0  0  0  0
   39.1290   34.3700   40.0340 H   0  0  0  0  0  0  0  0  0  0  0  0
   39.9060   32.6260   41.0630 C   0  0  0  0  0  3  0  0  0  0  0  0
   39.6530   31.3360   41.5430 C   0  0  0  0  0  3  0  0  0  0  0  0
   38.3890   30.7770   41.3580 C   0  0  0  0  0  0  0  0  0  0  0  0
   38.1080   29.5000   41.8230 C   0  0  0  0  0  3  0  0  0  0  0  0
   38.8440   25.0910   40.2030 C   0  0  0  0  0  0  0  0  0  0  0  0
   39.1290   24.3350   39.4120 H   0  0  0  0  0  0  0  0  0  0  0  0
   39.7560   25.4060   40.6760 H   0  0  0  0  0  0  0  0  0  0  0  0
   39.0840   27.1850   39.1560 C   0  0  0  0  0  3  0  0  0  0  0  0
   38.2800   26.2360   39.3970 C   0  0  0  0  0  3  0  0  0  0  0  0
   38.8170   30.4810   37.5260 C   0  0  0  0  0  0  0  0  0  0  0  0
   37.5120   30.4870   37.0460 C   0  0  0  0  0  0  0  0  0  0  0  0
   36.7740   29.3730   37.2930 C   0  0  0  0  0  0  0  0  0  0  0  0
   37.3180   28.3290   37.9790 N   0  0  0  0  0  0  0  0  0  0  0  0
   38.5840   28.3550   38.4290 C   0  0  0  0  0  0  0  0  0  0  0  0
   39.3020   29.4370   38.1900 N   0  0  0  0  0  0  0  0  0  0  0  0
   39.4540   31.3470   37.3570 H   0  0  0  0  0  0  0  0  0  0  0  0
   37.1050   31.3310   36.5040 H   0  0  0  0  0  0  0  0  0  0  0  0
   35.3920   29.2350   36.8520 C   0  0  0  0  0  0  0  0  0  0  0  0
   34.3230   29.0390   37.6760 C   0  0  0  0  0  0  0  0  0  0  0  0
   33.0190   28.9100   37.2410 C   0  0  0  0  0  0  0  0  0  0  0  0
   32.7410   28.9790   35.8910 C   0  0  0  0  0  0  0  0  0  0  0  0
   33.7720   29.1750   35.0130 C   0  0  0  0  0  0  0  0  0  0  0  0
   35.0590   29.2970   35.5070 C   0  0  0  0  0  0  0  0  0  0  0  0
   34.5060   28.9790   38.7540 H   0  0  0  0  0  0  0  0  0  0  0  0
   32.1890   28.7560   37.9010 H   0  0  0  0  0  0  0  0  0  0  0  0
   31.7550   28.8910   35.4400 H   0  0  0  0  0  0  0  0  0  0  0  0
   33.6110   29.2360   33.9470 H   0  0  0  0  0  0  0  0  0  0  0  0
   35.8540   29.4520   34.7710 H   0  0  0  0  0  0  0  0  0  0  0  0
  1  4  1  6  0  0  0
  1  3  1  0  0  0  0
  1  2  1  0  0  0  0
  2  6  1  0  0  0  0
  2  5  1  0  0  0  0
  3  8  1  0  0  0  0
  3  2  1  0  0  0  0
  3  7  1  1  0  0  0
  8 11  1  6  0  0  0
  8  9  1  0  0  0  0
  9 12  1  0  0  0  0
  9 13  1  0  0  0  0
 10 14  1  6  0  0  0
 10  8  1  0  0  0  0
 10  9  1  0  0  0  0
 15 26  1  0  0  0  0
 15 10  1  0  0  0  0
 16 15  2  0  0  0  0
 17 16  1  0  0  0  0
 18 19  2  0  0  0  0
 18 16  1  0  0  0  0
 19 25  1  0  0  0  0
 20 21  2  0  0  0  0
 20 19  1  0  0  0  0
 21 23  1  0  0  0  0
 22 21  1  0  0  0  0
 23 24  2  0  0  0  0
 25 24  1  0  0  0  0
 25 26  2  0  0  0  0
 27 29  1  0  0  0  0
 27  1  1  0  0  0  0
 28 27  1  0  0  0  0
 30 31  2  0  0  0  0
 31 27  1  0  0  0  0
 32 37  1  0  0  0  0
 33 34  1  0  0  0  0
 33 32  2  0  0  0  0
 34 35  2  0  0  0  0
 35 36  1  0  0  0  0
 36 30  1  0  0  0  0
 37 36  2  0  0  0  0
 38 32  1  0  0  0  0
 39 33  1  0  0  0  0
 40 34  1  0  0  0  0
 40 41  1  0  0  0  0
 41 46  1  0  0  0  0
 42 41  2  0  0  0  0
 42 47  1  0  0  0  0
 43 42  1  0  0  0  0
 44 45  1  0  0  0  0
 44 43  2  0  0  0  0
 45 40  2  0  0  0  0
 48 43  1  0  0  0  0
 49 44  1  0  0  0  0
 50 45  1  0  0  0  0
M  END
>  <minimizedAffinity>
-6.61930847

$$$$

 OpenBabel03252508193D

 50 55  0  0  1  0  0  0  0  0999 V2000
   35.8330   24.0230   39.2940 C   0  0  1  0  0  0  0  0  0  0  0  0
   36.8810   22.9810   39.0990 C   0  0  0  0  0  0  0  0  0  0  0  0
   36.6760   23.5710   40.4180 C   0  0  1  0  0  0  0  0  0  0  0  0
   34.8230   23.5720   39.0580 H   0  0  0  0  0  0  0  0  0  0  0  0
   36.6380   21.9090   38.9560 H   0  0  0  0  0  0  0  0  0  0  0  0
   37.8170   23.2720   38.5620 H   0  0  0  0  0  0  0  0  0  0  0  0
   36.1730   22.9320   41.1730 H   0  0  0  0  0  0  0  0  0  0  0  0
   37.6440   24.5510   41.0070 C   0  0  2  0  0  0  0  0  0  0  0  0
   37.9900   24.2440   42.4870 C   0  0  0  0  0  0  0  0  0  0  0  0
   37.1560   25.4130   42.1670 C   0  0  1  0  0  0  0  0  0  0  0  0
   38.5460   24.8760   40.4760 H   0  0  0  0  0  0  0  0  0  0  0  0
   37.4640   23.4080   42.9830 H   0  0  0  0  0  0  0  0  0  0  0  0
   38.9960   24.4010   42.8600 H   0  0  0  0  0  0  0  0  0  0  0  0
   36.0700   25.3810   42.3920 H   0  0  0  0  0  0  0  0  0  0  0  0
   37.7680   26.7420   42.3560 C   0  0  0  0  0  0  0  0  0  0  0  0
   36.9170   27.8140   42.6530 C   0  0  0  0  0  0  0  0  0  0  0  0
   35.8360   27.7120   42.7480 H   0  0  0  0  0  0  0  0  0  0  0  0
   37.4340   29.0940   42.8420 C   0  0  0  0  0  3  0  0  0  0  0  0
   38.7950   29.3370   42.7440 C   0  0  0  0  0  0  0  0  0  0  0  0
   39.2760   30.5700   42.9280 N   0  0  0  0  0  0  0  0  0  0  0  0
   40.5830   30.8690   42.8460 C   0  0  0  0  0  0  0  0  0  0  0  0
   40.9310   31.8790   43.0030 H   0  0  0  0  0  0  0  0  0  0  0  0
   41.4390   29.8180   42.5540 C   0  0  0  0  0  3  0  0  0  0  0  0
   40.9790   28.5130   42.3530 C   0  0  0  0  0  3  0  0  0  0  0  0
   39.6130   28.2510   42.4480 C   0  0  0  0  0  0  0  0  0  0  0  0
   39.1260   26.9660   42.2550 C   0  0  0  0  0  3  0  0  0  0  0  0
   36.0990   25.3240   38.6290 C   0  0  0  0  0  0  0  0  0  0  0  0
   37.0010   25.1630   37.9660 H   0  0  0  0  0  0  0  0  0  0  0  0
   36.3090   26.1830   39.2380 H   0  0  0  0  0  0  0  0  0  0  0  0
   35.0680   26.8210   37.1350 C   0  0  0  0  0  3  0  0  0  0  0  0
   35.0050   25.6640   37.6470 C   0  0  0  0  0  3  0  0  0  0  0  0
   32.7720   27.0500   34.2590 C   0  0  0  0  0  0  0  0  0  0  0  0
   31.9660   28.1330   34.5900 C   0  0  0  0  0  0  0  0  0  0  0  0
   32.2320   28.7430   35.7740 C   0  0  0  0  0  0  0  0  0  0  0  0
   33.2430   28.2900   36.5670 N   0  0  0  0  0  0  0  0  0  0  0  0
   34.0040   27.2380   36.2180 C   0  0  0  0  0  0  0  0  0  0  0  0
   33.7470   26.6440   35.0670 N   0  0  0  0  0  0  0  0  0  0  0  0
   32.6040   26.5220   33.3220 H   0  0  0  0  0  0  0  0  0  0  0  0
   31.1690   28.4720   33.9400 H   0  0  0  0  0  0  0  0  0  0  0  0
   31.4720   29.8910   36.2520 C   0  0  0  0  0  0  0  0  0  0  0  0
   31.2180   31.0190   35.5290 C   0  0  0  0  0  0  0  0  0  0  0  0
   30.4950   32.0970   35.9980 C   0  0  0  0  0  0  0  0  0  0  0  0
   29.9790   32.0680   37.2780 C   0  0  0  0  0  0  0  0  0  0  0  0
   30.1990   30.9620   38.0540 C   0  0  0  0  0  0  0  0  0  0  0  0
   30.9310   29.9110   37.5300 C   0  0  0  0  0  0  0  0  0  0  0  0
   31.6120   31.0780   34.5090 H   0  0  0  0  0  0  0  0  0  0  0  0
   30.3040   32.9780   35.4180 H   0  0  0  0  0  0  0  0  0  0  0  0
   29.3970   32.8580   37.7470 H   0  0  0  0  0  0  0  0  0  0  0  0
   29.8180   30.8870   39.0610 H   0  0  0  0  0  0  0  0  0  0  0  0
   31.0840   29.0460   38.1830 H   0  0  0  0  0  0  0  0  0  0  0  0
  1  4  1  6  0  0  0
  1  3  1  0  0  0  0
  2  1  1  0  0  0  0
  2  3  1  0  0  0  0
  3  8  1  0  0  0  0
  3  7  1  1  0  0  0
  5  2  1  0  0  0  0
  6  2  1  0  0  0  0
  8 11  1  6  0  0  0
  8 10  1  0  0  0  0
  8  9  1  0  0  0  0
  9 13  1  0  0  0  0
  9 12  1  0  0  0  0
 10 15  1  0  0  0  0
 10 14  1  1  0  0  0
 10  9  1  0  0  0  0
 15 16  1  0  0  0  0
 16 17  1  0  0  0  0
 16 18  2  0  0  0  0
 19 18  1  0  0  0  0
 19 20  1  0  0  0  0
 21 20  2  0  0  0  0
 21 22  1  0  0  0  0
 23 21  1  0  0  0  0
 24 25  1  0  0  0  0
 24 23  2  0  0  0  0
 25 19  2  0  0  0  0
 26 15  2  0  0  0  0
 26 25  1  0  0  0  0
 27 29  1  0  0  0  0
 27  1  1  0  0  0  0
 28 27  1  0  0  0  0
 30 31  2  0  0  0  0
 31 27  1  0  0  0  0
 32 33  2  0  0  0  0
 32 37  1  0  0  0  0
 33 34  1  0  0  0  0
 34 40  1  0  0  0  0
 34 35  2  0  0  0  0
 36 35  1  0  0  0  0
 36 30  1  0  0  0  0
 37 36  2  0  0  0  0
 38 32  1  0  0  0  0
 39 33  1  0  0  0  0
 40 45  1  0  0  0  0
 41 42  1  0  0  0  0
 41 40  2  0  0  0  0
 42 43  2  0  0  0  0
 43 48  1  0  0  0  0
 43 44  1  0  0  0  0
 44 49  1  0  0  0  0
 45 44  2  0  0  0  0
 45 50  1  0  0  0  0
 46 41  1  0  0  0  0
 47 42  1  0  0  0  0
M  END
>  <minimizedAffinity>
-6.57044458

$$$$

 OpenBabel03252508193D

 50 55  0  0  1  0  0  0  0  0999 V2000
   37.5180   24.6690   40.9860 C   0  0  1  0  0  0  0  0  0  0  0  0
   37.7260   24.1620   42.3720 C   0  0  0  0  0  0  0  0  0  0  0  0
   36.9580   25.3830   42.1500 C   0  0  1  0  0  0  0  0  0  0  0  0
   36.9400   23.8960   40.3980 H   0  0  0  0  0  0  0  0  0  0  0  0
   37.2000   23.2700   42.7660 H   0  0  0  0  0  0  0  0  0  0  0  0
   38.7390   24.2850   42.8300 H   0  0  0  0  0  0  0  0  0  0  0  0
   35.8580   25.3050   42.2810 H   0  0  0  0  0  0  0  0  0  0  0  0
   37.5090   26.7370   42.4760 C   0  0  2  0  0  0  0  0  0  0  0  0
   36.6720   27.4910   43.5400 C   0  0  0  0  0  0  0  0  0  0  0  0
   36.6450   27.9480   42.1410 C   0  0  1  0  0  0  0  0  0  0  0  0
   38.5770   26.9070   42.6560 H   0  0  0  0  0  0  0  0  0  0  0  0
   35.7400   27.0190   43.9010 H   0  0  0  0  0  0  0  0  0  0  0  0
   37.1590   28.1090   44.2860 H   0  0  0  0  0  0  0  0  0  0  0  0
   35.7390   27.7630   41.5280 H   0  0  0  0  0  0  0  0  0  0  0  0
   37.3190   29.2270   41.8440 C   0  0  0  0  0  0  0  0  0  0  0  0
   38.5850   29.4400   42.4040 C   0  0  0  0  0  0  0  0  0  0  0  0
   39.0870   28.7140   43.0420 H   0  0  0  0  0  0  0  0  0  0  0  0
   39.2730   30.6270   42.1620 C   0  0  0  0  0  3  0  0  0  0  0  0
   38.7260   31.6200   41.3630 C   0  0  0  0  0  0  0  0  0  0  0  0
   39.3990   32.7530   41.1400 N   0  0  0  0  0  0  0  0  0  0  0  0
   38.9230   33.7510   40.3770 C   0  0  0  0  0  0  0  0  0  0  0  0
   39.4980   34.6510   40.2210 H   0  0  0  0  0  0  0  0  0  0  0  0
   37.6710   33.5550   39.8140 C   0  0  0  0  0  3  0  0  0  0  0  0
   36.9330   32.3850   40.0220 C   0  0  0  0  0  3  0  0  0  0  0  0
   37.4680   31.3770   40.8220 C   0  0  0  0  0  0  0  0  0  0  0  0
   36.7600   30.2040   41.0460 C   0  0  0  0  0  3  0  0  0  0  0  0
   38.7360   25.1790   40.3060 C   0  0  0  0  0  0  0  0  0  0  0  0
   39.0030   24.4130   39.5180 H   0  0  0  0  0  0  0  0  0  0  0  0
   39.6220   25.3480   40.8890 H   0  0  0  0  0  0  0  0  0  0  0  0
   39.3660   27.2610   39.4080 C   0  0  0  0  0  3  0  0  0  0  0  0
   38.4280   26.4140   39.4960 C   0  0  0  0  0  3  0  0  0  0  0  0
   37.8180   29.9040   37.3570 C   0  0  0  0  0  0  0  0  0  0  0  0
   38.7750   30.9120   37.3730 C   0  0  0  0  0  0  0  0  0  0  0  0
   39.9080   30.6560   38.0780 C   0  0  0  0  0  0  0  0  0  0  0  0
   40.0610   29.4640   38.7210 N   0  0  0  0  0  0  0  0  0  0  0  0
   39.1150   28.5100   38.6860 C   0  0  0  0  0  0  0  0  0  0  0  0
   38.0130   28.7580   38.0010 N   0  0  0  0  0  0  0  0  0  0  0  0
   36.8900   30.0540   36.8080 H   0  0  0  0  0  0  0  0  0  0  0  0
   38.6280   31.8490   36.8530 H   0  0  0  0  0  0  0  0  0  0  0  0
   40.9990   31.6160   38.1840 C   0  0  0  0  0  0  0  0  0  0  0  0
   41.1430   32.7270   37.4060 C   0  0  0  0  0  0  0  0  0  0  0  0
   42.1830   33.6270   37.5200 C   0  0  0  0  0  0  0  0  0  0  0  0
   43.1600   33.4230   38.4740 C   0  0  0  0  0  0  0  0  0  0  0  0
   43.0710   32.3260   39.2860 C   0  0  0  0  0  0  0  0  0  0  0  0
   42.0060   31.4580   39.1260 C   0  0  0  0  0  0  0  0  0  0  0  0
   40.3870   32.9210   36.6380 H   0  0  0  0  0  0  0  0  0  0  0  0
   42.2830   34.4960   36.9000 H   0  0  0  0  0  0  0  0  0  0  0  0
   44.0190   34.0660   38.6500 H   0  0  0  0  0  0  0  0  0  0  0  0
   43.8070   32.1190   40.0490 H   0  0  0  0  0  0  0  0  0  0  0  0
   41.9720   30.5930   39.7960 H   0  0  0  0  0  0  0  0  0  0  0  0
  1  4  1  6  0  0  0
  1  3  1  0  0  0  0
  1  2  1  0  0  0  0
  2  5  1  0  0  0  0
  2  6  1  0  0  0  0
  3  7  1  1  0  0  0
  3  2  1  0  0  0  0
  3  8  1  0  0  0  0
  8 11  1  1  0  0  0
  8  9  1  0  0  0  0
  9 12  1  0  0  0  0
  9 13  1  0  0  0  0
 10 14  1  6  0  0  0
 10  8  1  0  0  0  0
 10  9  1  0  0  0  0
 15 10  1  0  0  0  0
 15 16  1  0  0  0  0
 16 17  1  0  0  0  0
 18 16  2  0  0  0  0
 19 18  1  0  0  0  0
 20 19  1  0  0  0  0
 21 20  2  0  0  0  0
 22 21  1  0  0  0  0
 23 24  2  0  0  0  0
 23 21  1  0  0  0  0
 24 25  1  0  0  0  0
 25 26  1  0  0  0  0
 25 19  2  0  0  0  0
 26 15  2  0  0  0  0
 27 29  1  0  0  0  0
 27  1  1  0  0  0  0
 28 27  1  0  0  0  0
 30 31  2  0  0  0  0
 31 27  1  0  0  0  0
 32 33  2  0  0  0  0
 32 37  1  0  0  0  0
 33 34  1  0  0  0  0
 34 40  1  0  0  0  0
 34 35  2  0  0  0  0
 36 35  1  0  0  0  0
 36 30  1  0  0  0  0
 37 36  2  0  0  0  0
 38 32  1  0  0  0  0
 39 33  1  0  0  0  0
 40 45  1  0  0  0  0
 41 42  1  0  0  0  0
 41 40  2  0  0  0  0
 42 43  2  0  0  0  0
 43 48  1  0  0  0  0
 43 44  1  0  0  0  0
 44 49  1  0  0  0  0
 45 44  2  0  0  0  0
 45 50  1  0  0  0  0
 46 41  1  0  0  0  0
 47 42  1  0  0  0  0
M  END
>  <minimizedAffinity>
-6.46245623

$$$$

 OpenBabel03252508193D

 50 55  0  0  1  0  0  0  0  0999 V2000
   37.0710   24.8300   40.9610 C   0  0  1  0  0  0  0  0  0  0  0  0
   37.7050   24.2210   42.1640 C   0  0  0  0  0  0  0  0  0  0  0  0
   36.8840   25.4200   42.3000 C   0  0  1  0  0  0  0  0  0  0  0  0
   36.3540   24.0810   40.5090 H   0  0  0  0  0  0  0  0  0  0  0  0
   37.3420   23.2770   42.6170 H   0  0  0  0  0  0  0  0  0  0  0  0
   38.8070   24.3520   42.3000 H   0  0  0  0  0  0  0  0  0  0  0  0
   35.8800   25.2830   42.7530 H   0  0  0  0  0  0  0  0  0  0  0  0
   37.4840   26.7660   42.5640 C   0  0  2  0  0  0  0  0  0  0  0  0
   36.7460   27.5500   43.6790 C   0  0  0  0  0  0  0  0  0  0  0  0
   36.6200   27.9910   42.2810 C   0  0  1  0  0  0  0  0  0  0  0  0
   38.5660   26.9180   42.6590 H   0  0  0  0  0  0  0  0  0  0  0  0
   35.8360   27.1010   44.1180 H   0  0  0  0  0  0  0  0  0  0  0  0
   37.3010   28.1670   44.3780 H   0  0  0  0  0  0  0  0  0  0  0  0
   35.6670   27.8160   41.7420 H   0  0  0  0  0  0  0  0  0  0  0  0
   37.2940   29.2530   41.9150 C   0  0  0  0  0  0  0  0  0  0  0  0
   38.5560   29.5000   42.4700 C   0  0  0  0  0  0  0  0  0  0  0  0
   39.0560   28.8120   43.1510 H   0  0  0  0  0  0  0  0  0  0  0  0
   39.2430   30.6730   42.1640 C   0  0  0  0  0  3  0  0  0  0  0  0
   38.6990   31.6180   41.3080 C   0  0  0  0  0  0  0  0  0  0  0  0
   39.3700   32.7380   41.0250 N   0  0  0  0  0  0  0  0  0  0  0  0
   38.8970   33.6900   40.2040 C   0  0  0  0  0  0  0  0  0  0  0  0
   39.4710   34.5810   40.0000 H   0  0  0  0  0  0  0  0  0  0  0  0
   37.6490   33.4590   39.6460 C   0  0  0  0  0  3  0  0  0  0  0  0
   36.9120   32.3010   39.9150 C   0  0  0  0  0  3  0  0  0  0  0  0
   37.4440   31.3410   40.7750 C   0  0  0  0  0  0  0  0  0  0  0  0
   36.7370   30.1820   41.0610 C   0  0  0  0  0  3  0  0  0  0  0  0
   38.0100   25.4470   39.9910 C   0  0  0  0  0  0  0  0  0  0  0  0
   38.6200   24.6000   39.5560 H   0  0  0  0  0  0  0  0  0  0  0  0
   38.7080   26.1840   40.3420 H   0  0  0  0  0  0  0  0  0  0  0  0
   36.9840   27.2250   38.8390 C   0  0  0  0  0  3  0  0  0  0  0  0
   37.2720   25.9920   38.7920 C   0  0  0  0  0  3  0  0  0  0  0  0
   35.9060   29.3230   36.0050 C   0  0  0  0  0  0  0  0  0  0  0  0
   34.6610   28.7960   35.6840 C   0  0  0  0  0  0  0  0  0  0  0  0
   34.2360   27.7500   36.4400 C   0  0  0  0  0  0  0  0  0  0  0  0
   35.0150   27.2730   37.4500 N   0  0  0  0  0  0  0  0  0  0  0  0
   36.2160   27.8050   37.7350 C   0  0  0  0  0  0  0  0  0  0  0  0
   36.6300   28.8220   37.0010 N   0  0  0  0  0  0  0  0  0  0  0  0
   36.2970   30.1620   35.4330 H   0  0  0  0  0  0  0  0  0  0  0  0
   34.0620   29.1950   34.8750 H   0  0  0  0  0  0  0  0  0  0  0  0
   32.9520   27.0950   36.2200 C   0  0  0  0  0  0  0  0  0  0  0  0
   31.8020   27.7300   35.8540 C   0  0  0  0  0  0  0  0  0  0  0  0
   30.5940   27.0940   35.6500 C   0  0  0  0  0  0  0  0  0  0  0  0
   30.5060   25.7260   35.8180 C   0  0  0  0  0  0  0  0  0  0  0  0
   31.6260   25.0320   36.1850 C   0  0  0  0  0  0  0  0  0  0  0  0
   32.8100   25.7240   36.3750 C   0  0  0  0  0  0  0  0  0  0  0  0
   31.8330   28.8150   35.7120 H   0  0  0  0  0  0  0  0  0  0  0  0
   29.6970   27.6060   35.3620 H   0  0  0  0  0  0  0  0  0  0  0  0
   29.6090   25.1260   35.6830 H   0  0  0  0  0  0  0  0  0  0  0  0
   31.6140   23.9630   36.3290 H   0  0  0  0  0  0  0  0  0  0  0  0
   33.6830   25.1310   36.6680 H   0  0  0  0  0  0  0  0  0  0  0  0
  1  4  1  6  0  0  0
  1  2  1  0  0  0  0
  1  3  1  0  0  0  0
  2  6  1  0  0  0  0
  2  3  1  0  0  0  0
  2  5  1  0  0  0  0
  3  8  1  0  0  0  0
  3  7  1  1  0  0  0
  8 11  1  6  0  0  0
  8  9  1  0  0  0  0
  9 12  1  0  0  0  0
  9 13  1  0  0  0  0
 10 14  1  6  0  0  0
 10  8  1  0  0  0  0
 10  9  1  0  0  0  0
 15 10  1  0  0  0  0
 15 16  1  0  0  0  0
 16 17  1  0  0  0  0
 18 16  2  0  0  0  0
 19 18  1  0  0  0  0
 20 19  1  0  0  0  0
 21 20  2  0  0  0  0
 22 21  1  0  0  0  0
 23 24  2  0  0  0  0
 23 21  1  0  0  0  0
 24 25  1  0  0  0  0
 25 26  1  0  0  0  0
 25 19  2  0  0  0  0
 26 15  2  0  0  0  0
 27 29  1  0  0  0  0
 27  1  1  0  0  0  0
 28 27  1  0  0  0  0
 31 30  2  0  0  0  0
 31 27  1  0  0  0  0
 32 37  1  0  0  0  0
 33 32  2  0  0  0  0
 33 34  1  0  0  0  0
 34 35  2  0  0  0  0
 35 36  1  0  0  0  0
 36 30  1  0  0  0  0
 37 36  2  0  0  0  0
 38 32  1  0  0  0  0
 39 33  1  0  0  0  0
 40 45  1  0  0  0  0
 40 34  1  0  0  0  0
 41 40  2  0  0  0  0
 42 43  2  0  0  0  0
 42 41  1  0  0  0  0
 43 44  1  0  0  0  0
 44 49  1  0  0  0  0
 44 45  2  0  0  0  0
 45 50  1  0  0  0  0
 46 41  1  0  0  0  0
 47 42  1  0  0  0  0
 48 43  1  0  0  0  0
M  END
>  <minimizedAffinity>
-6.39350271

$$$$

 OpenBabel03252508193D

 50 55  0  0  1  0  0  0  0  0999 V2000
   37.2410   23.4550   39.6940 C   0  0  1  0  0  0  0  0  0  0  0  0
   38.3380   22.4620   39.8710 C   0  0  0  0  0  0  0  0  0  0  0  0
   37.9580   23.3340   40.9780 C   0  0  1  0  0  0  0  0  0  0  0  0
   36.2820   22.9020   39.4670 H   0  0  0  0  0  0  0  0  0  0  0  0
   38.1490   21.3750   39.9660 H   0  0  0  0  0  0  0  0  0  0  0  0
   39.3220   22.6740   39.3840 H   0  0  0  0  0  0  0  0  0  0  0  0
   37.3900   22.8630   41.8070 H   0  0  0  0  0  0  0  0  0  0  0  0
   38.8160   24.4820   41.4140 C   0  0  2  0  0  0  0  0  0  0  0  0
   39.3250   24.3380   42.8710 C   0  0  0  0  0  0  0  0  0  0  0  0
   38.3040   25.3500   42.5590 C   0  0  1  0  0  0  0  0  0  0  0  0
   39.6130   24.8910   40.7830 H   0  0  0  0  0  0  0  0  0  0  0  0
   38.9700   23.4750   43.4650 H   0  0  0  0  0  0  0  0  0  0  0  0
   40.3240   24.6630   43.1400 H   0  0  0  0  0  0  0  0  0  0  0  0
   37.2570   25.1820   42.8840 H   0  0  0  0  0  0  0  0  0  0  0  0
   38.7270   26.7630   42.6080 C   0  0  0  0  0  0  0  0  0  0  0  0
   37.8570   27.6820   43.2070 C   0  0  0  0  0  0  0  0  0  0  0  0
   36.8930   27.4040   43.6320 H   0  0  0  0  0  0  0  0  0  0  0  0
   38.1990   29.0300   43.2850 C   0  0  0  0  0  3  0  0  0  0  0  0
   39.4020   29.4940   42.7750 C   0  0  0  0  0  0  0  0  0  0  0  0
   39.7160   30.7900   42.8570 N   0  0  0  0  0  0  0  0  0  0  0  0
   40.8640   31.2990   42.3820 C   0  0  0  0  0  0  0  0  0  0  0  0
   41.0810   32.3530   42.4690 H   0  0  0  0  0  0  0  0  0  0  0  0
   41.7380   30.4020   41.7870 C   0  0  0  0  0  3  0  0  0  0  0  0
   41.4490   29.0370   41.6800 C   0  0  0  0  0  3  0  0  0  0  0  0
   40.2430   28.5550   42.1870 C   0  0  0  0  0  0  0  0  0  0  0  0
   39.9290   27.2060   42.0960 C   0  0  0  0  0  3  0  0  0  0  0  0
   37.5420   24.5760   38.7670 C   0  0  0  0  0  0  0  0  0  0  0  0
   37.0040   24.3410   37.8010 H   0  0  0  0  0  0  0  0  0  0  0  0
   38.5650   24.7780   38.5130 H   0  0  0  0  0  0  0  0  0  0  0  0
   37.5820   26.9030   39.1180 C   0  0  0  0  0  3  0  0  0  0  0  0
   36.8810   25.8530   39.2270 C   0  0  0  0  0  3  0  0  0  0  0  0
   35.3400   29.4570   40.5480 C   0  0  0  0  0  0  0  0  0  0  0  0
   36.1020   30.6170   40.4730 C   0  0  0  0  0  0  0  0  0  0  0  0
   37.3450   30.4880   39.9400 C   0  0  0  0  0  0  0  0  0  0  0  0
   37.7850   29.2720   39.5140 N   0  0  0  0  0  0  0  0  0  0  0  0
   37.0230   28.1680   39.6010 C   0  0  0  0  0  0  0  0  0  0  0  0
   35.8140   28.2920   40.1180 N   0  0  0  0  0  0  0  0  0  0  0  0
   34.3360   29.5000   40.9650 H   0  0  0  0  0  0  0  0  0  0  0  0
   35.7260   31.5710   40.8190 H   0  0  0  0  0  0  0  0  0  0  0  0
   38.2570   31.6160   39.7970 C   0  0  0  0  0  0  0  0  0  0  0  0
   39.4070   31.6050   39.0640 C   0  0  0  0  0  0  0  0  0  0  0  0
   40.2600   32.6840   38.9390 C   0  0  0  0  0  0  0  0  0  0  0  0
   39.9610   33.8670   39.5840 C   0  0  0  0  0  0  0  0  0  0  0  0
   38.8210   33.9410   40.3350 C   0  0  0  0  0  0  0  0  0  0  0  0
   38.0030   32.8280   40.4240 C   0  0  0  0  0  0  0  0  0  0  0  0
   39.6760   30.6830   38.5390 H   0  0  0  0  0  0  0  0  0  0  0  0
   41.1610   32.6600   38.3590 H   0  0  0  0  0  0  0  0  0  0  0  0
   40.5600   34.7750   39.5540 H   0  0  0  0  0  0  0  0  0  0  0  0
   38.5390   34.8420   40.8600 H   0  0  0  0  0  0  0  0  0  0  0  0
   37.1010   32.9290   41.0350 H   0  0  0  0  0  0  0  0  0  0  0  0
  1  4  1  6  0  0  0
  1  2  1  0  0  0  0
  1  3  1  0  0  0  0
  2  5  1  0  0  0  0
  2  3  1  0  0  0  0
  3  8  1  0  0  0  0
  3  7  1  1  0  0  0
  6  2  1  0  0  0  0
  8 11  1  6  0  0  0
  8 10  1  0  0  0  0
  8  9  1  0  0  0  0
  9 13  1  0  0  0  0
  9 12  1  0  0  0  0
 10 15  1  0  0  0  0
 10  9  1  0  0  0  0
 10 14  1  1  0  0  0
 15 16  1  0  0  0  0
 16 18  2  0  0  0  0
 16 17  1  0  0  0  0
 19 20  1  0  0  0  0
 19 18  1  0  0  0  0
 21 22  1  0  0  0  0
 21 20  2  0  0  0  0
 23 21  1  0  0  0  0
 24 23  2  0  0  0  0
 24 25  1  0  0  0  0
 25 19  2  0  0  0  0
 26 25  1  0  0  0  0
 26 15  2  0  0  0  0
 27 31  1  0  0  0  0
 27  1  1  0  0  0  0
 28 27  1  0  0  0  0
 29 27  1  0  0  0  0
 30 31  2  0  0  0  0
 30 36  1  0  0  0  0
 32 38  1  0  0  0  0
 33 32  1  0  0  0  0
 33 39  1  0  0  0  0
 34 33  2  0  0  0  0
 35 36  2  0  0  0  0
 35 34  1  0  0  0  0
 36 37  1  0  0  0  0
 37 32  2  0  0  0  0
 40 34  1  0  0  0  0
 40 45  1  0  0  0  0
 41 40  2  0  0  0  0
 42 41  1  0  0  0  0
 42 43  2  0  0  0  0
 43 44  1  0  0  0  0
 44 45  2  0  0  0  0
 44 49  1  0  0  0  0
 45 50  1  0  0  0  0
 46 41  1  0  0  0  0
 47 42  1  0  0  0  0
 48 43  1  0  0  0  0
M  END
>  <minimizedAffinity>
-6.35190916

$$$$

 OpenBabel03252508193D

 50 55  0  0  1  0  0  0  0  0999 V2000
   37.0570   24.8350   40.9530 C   0  0  1  0  0  0  0  0  0  0  0  0
   37.7050   24.2090   42.1410 C   0  0  0  0  0  0  0  0  0  0  0  0
   36.8780   25.4010   42.3040 C   0  0  1  0  0  0  0  0  0  0  0  0
   36.3410   24.0890   40.4950 H   0  0  0  0  0  0  0  0  0  0  0  0
   37.3510   23.2560   42.5810 H   0  0  0  0  0  0  0  0  0  0  0  0
   38.8070   24.3450   42.2710 H   0  0  0  0  0  0  0  0  0  0  0  0
   35.8780   25.2500   42.7630 H   0  0  0  0  0  0  0  0  0  0  0  0
   37.4720   26.7460   42.5850 C   0  0  2  0  0  0  0  0  0  0  0  0
   36.7040   27.5310   43.6790 C   0  0  0  0  0  0  0  0  0  0  0  0
   36.6190   27.9730   42.2780 C   0  0  1  0  0  0  0  0  0  0  0  0
   38.5510   26.8960   42.7120 H   0  0  0  0  0  0  0  0  0  0  0  0
   35.7810   27.0830   44.0910 H   0  0  0  0  0  0  0  0  0  0  0  0
   37.2390   28.1470   44.3940 H   0  0  0  0  0  0  0  0  0  0  0  0
   35.6810   27.8000   41.7120 H   0  0  0  0  0  0  0  0  0  0  0  0
   37.3040   29.2330   41.9330 C   0  0  0  0  0  0  0  0  0  0  0  0
   38.5600   29.4680   42.5060 C   0  0  0  0  0  0  0  0  0  0  0  0
   39.0470   28.7710   43.1870 H   0  0  0  0  0  0  0  0  0  0  0  0
   39.2580   30.6390   42.2200 C   0  0  0  0  0  3  0  0  0  0  0  0
   38.7310   31.5950   41.3650 C   0  0  0  0  0  0  0  0  0  0  0  0
   39.4130   32.7140   41.1000 N   0  0  0  0  0  0  0  0  0  0  0  0
   38.9560   33.6760   40.2820 C   0  0  0  0  0  0  0  0  0  0  0  0
   39.5380   34.5650   40.0940 H   0  0  0  0  0  0  0  0  0  0  0  0
   37.7140   33.4580   39.7060 C   0  0  0  0  0  3  0  0  0  0  0  0
   36.9670   32.3020   39.9550 C   0  0  0  0  0  3  0  0  0  0  0  0
   37.4820   31.3310   40.8130 C   0  0  0  0  0  0  0  0  0  0  0  0
   36.7640   30.1730   41.0790 C   0  0  0  0  0  3  0  0  0  0  0  0
   37.9850   25.4740   39.9860 C   0  0  0  0  0  0  0  0  0  0  0  0
   38.3420   24.6510   39.2970 H   0  0  0  0  0  0  0  0  0  0  0  0
   38.8620   25.9700   40.3600 H   0  0  0  0  0  0  0  0  0  0  0  0
   36.0470   26.0800   38.7970 C   0  0  0  0  0  3  0  0  0  0  0  0
   37.2440   26.4040   39.0570 C   0  0  0  0  0  3  0  0  0  0  0  0
   34.0760   28.8020   37.2810 C   0  0  0  0  0  0  0  0  0  0  0  0
   33.8830   28.3590   35.9780 C   0  0  0  0  0  0  0  0  0  0  0  0
   34.4290   27.1540   35.6640 C   0  0  0  0  0  0  0  0  0  0  0  0
   35.1190   26.4490   36.6030 N   0  0  0  0  0  0  0  0  0  0  0  0
   35.2880   26.9070   37.8560 C   0  0  0  0  0  0  0  0  0  0  0  0
   34.7590   28.0780   38.1620 N   0  0  0  0  0  0  0  0  0  0  0  0
   33.6610   29.7600   37.5880 H   0  0  0  0  0  0  0  0  0  0  0  0
   33.3300   28.9400   35.2510 H   0  0  0  0  0  0  0  0  0  0  0  0
   34.3080   26.5610   34.3380 C   0  0  0  0  0  0  0  0  0  0  0  0
   33.1970   26.6240   33.5500 C   0  0  0  0  0  0  0  0  0  0  0  0
   33.1000   26.0560   32.2960 C   0  0  0  0  0  0  0  0  0  0  0  0
   34.1780   25.3720   31.7720 C   0  0  0  0  0  0  0  0  0  0  0  0
   35.3230   25.2730   32.5150 C   0  0  0  0  0  0  0  0  0  0  0  0
   35.3620   25.8630   33.7660 C   0  0  0  0  0  0  0  0  0  0  0  0
   32.3220   27.1590   33.9330 H   0  0  0  0  0  0  0  0  0  0  0  0
   32.2200   26.1140   31.6870 H   0  0  0  0  0  0  0  0  0  0  0  0
   34.2120   24.8880   30.7980 H   0  0  0  0  0  0  0  0  0  0  0  0
   36.1960   24.7500   32.1540 H   0  0  0  0  0  0  0  0  0  0  0  0
   36.2960   25.7610   34.3280 H   0  0  0  0  0  0  0  0  0  0  0  0
  1  4  1  6  0  0  0
  1  2  1  0  0  0  0
  1  3  1  0  0  0  0
  2  6  1  0  0  0  0
  2  3  1  0  0  0  0
  2  5  1  0  0  0  0
  3  8  1  0  0  0  0
  3  7  1  1  0  0  0
  8 11  1  6  0  0  0
  8  9  1  0  0  0  0
  9 12  1  0  0  0  0
  9 13  1  0  0  0  0
 10 14  1  6  0  0  0
 10  8  1  0  0  0  0
 10  9  1  0  0  0  0
 15 10  1  0  0  0  0
 15 16  1  0  0  0  0
 16 17  1  0  0  0  0
 18 16  2  0  0  0  0
 19 18  1  0  0  0  0
 20 19  1  0  0  0  0
 21 20  2  0  0  0  0
 22 21  1  0  0  0  0
 23 24  2  0  0  0  0
 23 21  1  0  0  0  0
 24 25  1  0  0  0  0
 25 26  1  0  0  0  0
 25 19  2  0  0  0  0
 26 15  2  0  0  0  0
 27 29  1  0  0  0  0
 27  1  1  0  0  0  0
 28 27  1  0  0  0  0
 30 31  2  0  0  0  0
 31 27  1  0  0  0  0
 32 38  1  0  0  0  0
 32 37  1  0  0  0  0
 33 32  2  0  0  0  0
 34 33  1  0  0  0  0
 34 35  2  0  0  0  0
 35 36  1  0  0  0  0
 36 37  2  0  0  0  0
 36 30  1  0  0  0  0
 39 33  1  0  0  0  0
 40 34  1  0  0  0  0
 41 46  1  0  0  0  0
 41 40  2  0  0  0  0
 42 41  1  0  0  0  0
 43 42  2  0  0  0  0
 43 44  1  0  0  0  0
 44 45  2  0  0  0  0
 45 50  1  0  0  0  0
 45 40  1  0  0  0  0
 47 42  1  0  0  0  0
 48 43  1  0  0  0  0
 49 44  1  0  0  0  0
M  END
>  <minimizedAffinity>
-6.24222898

$$$$

 OpenBabel03252508193D

 50 55  0  0  1  0  0  0  0  0999 V2000
   36.5730   26.7630   40.3070 C   0  0  1  0  0  0  0  0  0  0  0  0
   37.2890   26.1620   41.4680 C   0  0  0  0  0  0  0  0  0  0  0  0
   36.9400   27.5790   41.4810 C   0  0  1  0  0  0  0  0  0  0  0  0
   35.5690   26.2550   40.1970 H   0  0  0  0  0  0  0  0  0  0  0  0
   36.7910   25.4880   42.1930 H   0  0  0  0  0  0  0  0  0  0  0  0
   38.3730   25.9160   41.3460 H   0  0  0  0  0  0  0  0  0  0  0  0
   36.1010   27.8760   42.1440 H   0  0  0  0  0  0  0  0  0  0  0  0
   37.9690   28.6510   41.2960 C   0  0  2  0  0  0  0  0  0  0  0  0
   37.7030   29.9030   42.1700 C   0  0  0  0  0  0  0  0  0  0  0  0
   37.5030   29.9820   40.7140 C   0  0  1  0  0  0  0  0  0  0  0  0
   39.0430   28.4350   41.2760 H   0  0  0  0  0  0  0  0  0  0  0  0
   36.7790   29.9290   42.7760 H   0  0  0  0  0  0  0  0  0  0  0  0
   38.5270   30.4460   42.6190 H   0  0  0  0  0  0  0  0  0  0  0  0
   36.4710   30.0180   40.3100 H   0  0  0  0  0  0  0  0  0  0  0  0
   38.4750   30.7900   39.9510 C   0  0  0  0  0  0  0  0  0  0  0  0
   38.7090   30.4330   38.6170 C   0  0  0  0  0  0  0  0  0  0  0  0
   38.2140   29.5970   38.1240 H   0  0  0  0  0  0  0  0  0  0  0  0
   39.6150   31.1560   37.8430 C   0  0  0  0  0  3  0  0  0  0  0  0
   40.3020   32.2390   38.3700 C   0  0  0  0  0  0  0  0  0  0  0  0
   41.1670   32.9220   37.6140 N   0  0  0  0  0  0  0  0  0  0  0  0
   41.8620   33.9790   38.0670 C   0  0  0  0  0  0  0  0  0  0  0  0
   42.5520   34.5040   37.4240 H   0  0  0  0  0  0  0  0  0  0  0  0
   41.6400   34.3450   39.3860 C   0  0  0  0  0  3  0  0  0  0  0  0
   40.7430   33.6580   40.2110 C   0  0  0  0  0  3  0  0  0  0  0  0
   40.0450   32.5660   39.6970 C   0  0  0  0  0  0  0  0  0  0  0  0
   39.1490   31.8650   40.4920 C   0  0  0  0  0  3  0  0  0  0  0  0
   37.3610   26.8530   39.0510 C   0  0  0  0  0  0  0  0  0  0  0  0
   37.6160   25.7910   38.7600 H   0  0  0  0  0  0  0  0  0  0  0  0
   38.2820   27.4050   39.0570 H   0  0  0  0  0  0  0  0  0  0  0  0
   35.3680   27.7960   38.2270 C   0  0  0  0  0  3  0  0  0  0  0  0
   36.5010   27.3290   37.9050 C   0  0  0  0  0  3  0  0  0  0  0  0
   33.7820   28.3230   34.9410 C   0  0  0  0  0  0  0  0  0  0  0  0
   32.6660   29.0890   35.2530 C   0  0  0  0  0  0  0  0  0  0  0  0
   32.4940   29.3980   36.5650 C   0  0  0  0  0  0  0  0  0  0  0  0
   33.3890   28.9620   37.4940 N   0  0  0  0  0  0  0  0  0  0  0  0
   34.4600   28.2210   37.1590 C   0  0  0  0  0  0  0  0  0  0  0  0
   34.6280   27.9210   35.8840 N   0  0  0  0  0  0  0  0  0  0  0  0
   33.9700   28.0460   33.9050 H   0  0  0  0  0  0  0  0  0  0  0  0
   31.9700   29.4230   34.4940 H   0  0  0  0  0  0  0  0  0  0  0  0
   31.3700   30.1940   37.0420 C   0  0  0  0  0  0  0  0  0  0  0  0
   30.8840   31.3100   36.4270 C   0  0  0  0  0  0  0  0  0  0  0  0
   29.8180   32.0530   36.8930 C   0  0  0  0  0  0  0  0  0  0  0  0
   29.1770   31.6710   38.0550 C   0  0  0  0  0  0  0  0  0  0  0  0
   29.6180   30.5590   38.7180 C   0  0  0  0  0  0  0  0  0  0  0  0
   30.6920   29.8540   38.2040 C   0  0  0  0  0  0  0  0  0  0  0  0
   31.3680   31.6430   35.5030 H   0  0  0  0  0  0  0  0  0  0  0  0
   29.4470   32.9290   36.3990 H   0  0  0  0  0  0  0  0  0  0  0  0
   28.3310   32.1810   38.5100 H   0  0  0  0  0  0  0  0  0  0  0  0
   29.1540   30.2160   39.6310 H   0  0  0  0  0  0  0  0  0  0  0  0
   31.0130   28.9710   38.7650 H   0  0  0  0  0  0  0  0  0  0  0  0
  1  4  1  6  0  0  0
  1  2  1  0  0  0  0
  1  3  1  0  0  0  0
  2  3  1  0  0  0  0
  2  5  1  0  0  0  0
  3  7  1  1  0  0  0
  6  2  1  0  0  0  0
  8 11  1  6  0  0  0
  8  3  1  0  0  0  0
  8  9  1  0  0  0  0
  9 13  1  0  0  0  0
  9 12  1  0  0  0  0
 10 14  1  6  0  0  0
 10  8  1  0  0  0  0
 10  9  1  0  0  0  0
 15 26  1  0  0  0  0
 15 10  1  0  0  0  0
 16 15  2  0  0  0  0
 17 16  1  0  0  0  0
 18 19  2  0  0  0  0
 18 16  1  0  0  0  0
 19 25  1  0  0  0  0
 20 21  2  0  0  0  0
 20 19  1  0  0  0  0
 21 23  1  0  0  0  0
 22 21  1  0  0  0  0
 23 24  2  0  0  0  0
 25 24  1  0  0  0  0
 25 26  2  0  0  0  0
 27 29  1  0  0  0  0
 27  1  1  0  0  0  0
 28 27  1  0  0  0  0
 31 30  2  0  0  0  0
 31 27  1  0  0  0  0
 32 33  2  0  0  0  0
 32 37  1  0  0  0  0
 33 34  1  0  0  0  0
 34 40  1  0  0  0  0
 34 35  2  0  0  0  0
 36 35  1  0  0  0  0
 36 30  1  0  0  0  0
 37 36  2  0  0  0  0
 38 32  1  0  0  0  0
 39 33  1  0  0  0  0
 40 45  1  0  0  0  0
 41 42  1  0  0  0  0
 41 40  2  0  0  0  0
 42 43  2  0  0  0  0
 43 48  1  0  0  0  0
 43 44  1  0  0  0  0
 44 49  1  0  0  0  0
 45 44  2  0  0  0  0
 45 50  1  0  0  0  0
 46 41  1  0  0  0  0
 47 42  1  0  0  0  0
M  END
>  <minimizedAffinity>
-6.1727705

$$$$
