
 OpenBabel03252505223D

 31 34  0  0  0  0  0  0  0  0999 V2000
   44.0190   32.9580   42.9750 F   0  0  0  0  0  0  0  0  0  0  0  0
   45.2530   33.4800   42.7920 C   0  0  0  0  0  0  0  0  0  0  0  0
   45.5280   34.1130   41.5980 C   0  0  0  0  0  0  0  0  0  0  0  0
   46.7770   34.6430   41.4080 C   0  0  0  0  0  0  0  0  0  0  0  0
   47.7400   34.5440   42.3910 C   0  0  0  0  0  0  0  0  0  0  0  0
   47.4840   33.9200   43.5800 C   0  0  0  0  0  0  0  0  0  0  0  0
   46.2000   33.3750   43.7750 C   0  0  0  0  0  0  0  0  0  0  0  0
   46.9810   35.1370   40.4670 H   0  0  0  0  0  0  0  0  0  0  0  0
   48.7220   34.9690   42.2250 H   0  0  0  0  0  0  0  0  0  0  0  0
   48.2540   33.8500   44.3470 H   0  0  0  0  0  0  0  0  0  0  0  0
   45.9700   32.7280   45.0360 C   0  0  0  0  0  0  0  0  0  0  0  0
   45.8320   33.3780   46.2440 C   0  0  0  0  0  0  0  0  0  0  0  0
   45.9090   34.4750   46.2020 H   0  0  0  0  0  0  0  0  0  0  0  0
   45.6100   32.7000   47.4400 C   0  0  0  0  0  0  0  0  0  0  0  0
   45.5250   31.3240   47.4150 C   0  0  0  0  0  0  0  0  0  0  0  0
   45.3100   30.6360   48.5630 N   0  0  0  0  0  0  0  0  0  0  0  0
   45.2290   29.2940   48.5170 C   0  0  0  0  0  0  0  0  0  0  0  0
   45.0570   28.7280   49.4280 H   0  0  0  0  0  0  0  0  0  0  0  0
   45.3550   28.5440   47.3510 C   0  0  0  0  0  0  0  0  0  0  0  0
   45.5750   29.2350   46.1760 C   0  0  0  0  0  0  0  0  0  0  0  0
   45.6540   30.6120   46.2360 C   0  0  0  0  0  0  0  0  0  0  0  0
   45.8760   31.3400   45.0710 C   0  0  0  0  0  0  0  0  0  0  0  0
   42.5610   35.2030   39.7630 C   0  0  0  0  0  0  0  0  0  0  0  0
   42.5740   34.3800   38.6070 C   0  0  0  0  0  0  0  0  0  0  0  0
   43.6180   33.4640   38.4930 C   0  0  0  0  0  0  0  0  0  0  0  0
   44.5570   33.4130   39.4930 N   0  0  0  0  0  0  0  0  0  0  0  0
   44.5050   34.2100   40.5690 C   0  0  0  0  0  0  0  0  0  0  0  0
   43.5100   35.1000   40.7020 N   0  0  0  0  0  0  0  0  0  0  0  0
   41.7350   35.9010   39.8140 H   0  0  0  0  0  0  0  0  0  0  0  0
   41.8460   34.4140   37.8230 H   0  0  0  0  0  0  0  0  0  0  0  0
   43.7560   32.7790   37.6760 H   0  0  0  0  0  0  0  0  0  0  0  0
  2  1  1  0  0  0  0
  2  7  1  0  0  0  0
  3  2  2  0  0  0  0
  4  3  1  0  0  0  0
  4  5  2  0  0  0  0
  5  6  1  0  0  0  0
  6  7  2  0  0  0  0
  6 10  1  0  0  0  0
  7 11  1  0  0  0  0
  8  4  1  0  0  0  0
  9  5  1  0  0  0  0
 11 22  2  0  0  0  0
 11 12  1  0  0  0  0
 12 14  2  0  0  0  0
 13 12  1  0  0  0  0
 15 14  1  0  0  0  0
 15 16  1  0  0  0  0
 17 16  2  0  0  0  0
 17 18  1  0  0  0  0
 19 17  1  0  0  0  0
 20 21  1  0  0  0  0
 20 19  2  0  0  0  0
 21 15  2  0  0  0  0
 22 21  1  0  0  0  0
 23 29  1  0  0  0  0
 23 28  1  0  0  0  0
 24 23  2  0  0  0  0
 25 24  1  0  0  0  0
 25 26  2  0  0  0  0
 26 27  1  0  0  0  0
 27 28  2  0  0  0  0
 27  3  1  0  0  0  0
 30 24  1  0  0  0  0
 31 25  1  0  0  0  0
M  END
>  <minimizedAffinity>
-5.69314003

>  <minimizedRMSD>
5.64666605

$$$$
