
 OpenBabel03242518463D

 48 52  0  0  1  0  0  0  0  0999 V2000
   47.6340   33.1010   44.1670 C   0  0  2  0  0  0  0  0  0  0  0  0
   47.5380   33.5780   42.7620 C   0  0  1  0  0  0  0  0  0  0  0  0
   47.5330   32.4270   41.7550 C   0  0  0  0  0  0  0  0  0  0  0  0
   48.6860   31.7000   42.0660 O   0  0  0  0  0  0  0  0  0  0  0  0
   48.5390   30.9890   43.2380 C   0  0  0  0  0  0  0  0  0  0  0  0
   47.5290   31.5630   44.1820 C   0  0  1  0  0  0  0  0  0  0  0  0
   48.6260   33.3360   44.5750 H   0  0  0  0  0  0  0  0  0  0  0  0
   48.4400   34.2070   42.5140 H   0  0  0  0  0  0  0  0  0  0  0  0
   47.7060   32.8370   40.7400 H   0  0  0  0  0  0  0  0  0  0  0  0
   46.6090   31.8370   41.8240 H   0  0  0  0  0  0  0  0  0  0  0  0
   49.5140   30.9390   43.7990 H   0  0  0  0  0  0  0  0  0  0  0  0
   48.2250   29.9360   43.0320 H   0  0  0  0  0  0  0  0  0  0  0  0
   46.4730   31.3830   43.8840 H   0  0  0  0  0  0  0  0  0  0  0  0
   45.0710   36.2840   42.7960 C   0  0  0  0  0  0  0  0  0  0  0  0
   44.0730   35.8600   41.8690 C   0  0  0  0  0  0  0  0  0  0  0  0
   44.3120   34.6050   41.2480 C   0  0  0  0  0  0  0  0  0  0  0  0
   45.4290   33.9110   41.5610 N   0  0  0  0  0  0  0  0  0  0  0  0
   46.3340   34.3740   42.4510 C   0  0  0  0  0  0  0  0  0  0  0  0
   46.1530   35.5590   43.0660 N   0  0  0  0  0  0  0  0  0  0  0  0
   43.2000   36.4180   41.6330 H   0  0  0  0  0  0  0  0  0  0  0  0
   43.6050   34.2110   40.5320 H   0  0  0  0  0  0  0  0  0  0  0  0
   44.8610   37.4870   43.4060 O   0  0  0  0  0  0  0  0  0  0  0  0
   45.5880   38.1990   43.5050 H   0  0  0  0  0  0  0  0  0  0  0  0
   46.6410   33.6080   45.0050 O   0  0  0  0  0  0  0  0  0  0  0  0
   47.0480   34.2020   45.6980 H   0  0  0  0  0  0  0  0  0  0  0  0
   47.7120   31.1690   45.4890 O   0  0  0  0  0  0  0  0  0  0  0  0
   46.0620   29.0930   44.9660 F   0  0  0  0  0  0  0  0  0  0  0  0
   46.1260   29.7530   46.1410 C   0  0  0  0  0  0  0  0  0  0  0  0
   46.9340   30.8140   46.4960 C   0  0  0  0  0  0  0  0  0  0  0  0
   46.7670   31.2720   47.7930 C   0  0  0  0  0  0  0  0  0  0  0  0
   45.8910   30.7700   48.7250 C   0  0  0  0  0  0  0  0  0  0  0  0
   45.1190   29.7230   48.3210 C   0  0  0  0  0  0  0  0  0  0  0  0
   45.2100   29.1940   47.0470 C   0  0  0  0  0  0  0  0  0  0  0  0
   47.4450   32.1190   48.0000 H   0  0  0  0  0  0  0  0  0  0  0  0
   45.8550   31.2080   49.6930 H   0  0  0  0  0  0  0  0  0  0  0  0
   44.4190   29.3200   49.0660 H   0  0  0  0  0  0  0  0  0  0  0  0
   44.3110   28.0740   46.7780 C   0  0  0  0  0  0  0  0  0  0  0  0
   44.4680   26.9390   47.5820 C   0  0  0  0  0  0  0  0  0  0  0  0
   45.2390   26.9380   48.3620 H   0  0  0  0  0  0  0  0  0  0  0  0
   43.7090   25.7880   47.4730 C   0  0  0  0  0  3  0  0  0  0  0  0
   42.7330   25.7690   46.4990 C   0  0  0  0  0  0  0  0  0  0  0  0
   41.9740   24.6670   46.3600 N   0  0  0  0  0  0  0  0  0  0  0  0
   41.0020   24.5570   45.4430 C   0  0  0  0  0  0  0  0  0  0  0  0
   40.4050   23.6600   45.3510 H   0  0  0  0  0  0  0  0  0  0  0  0
   40.8220   25.6670   44.6280 C   0  0  0  0  0  3  0  0  0  0  0  0
   41.5700   26.8230   44.7230 C   0  0  0  0  0  3  0  0  0  0  0  0
   42.5530   26.8740   45.6880 C   0  0  0  0  0  0  0  0  0  0  0  0
   43.3280   27.9970   45.8290 C   0  0  0  0  0  3  0  0  0  0  0  0
  1  6  1  0  0  0  0
  1  7  1  1  0  0  0
  1 24  1  0  0  0  0
  2  8  1  6  0  0  0
  2  1  1  0  0  0  0
  3 10  1  0  0  0  0
  3  4  1  0  0  0  0
  3  2  1  0  0  0  0
  4  5  1  0  0  0  0
  5 11  1  0  0  0  0
  5  6  1  0  0  0  0
  6 13  1  6  0  0  0
  6 26  1  0  0  0  0
  9  3  1  0  0  0  0
 12  5  1  0  0  0  0
 14 19  1  0  0  0  0
 14 22  1  0  0  0  0
 15 14  2  0  0  0  0
 16 17  2  0  0  0  0
 16 15  1  0  0  0  0
 17 18  1  0  0  0  0
 18  2  1  0  0  0  0
 18 19  2  0  0  0  0
 20 15  1  0  0  0  0
 21 16  1  0  0  0  0
 22 23  1  0  0  0  0
 24 25  1  0  0  0  0
 26 29  1  0  0  0  0
 27 28  1  0  0  0  0
 28 29  2  0  0  0  0
 28 33  1  0  0  0  0
 29 30  1  0  0  0  0
 30 34  1  0  0  0  0
 30 31  2  0  0  0  0
 31 35  1  0  0  0  0
 32 31  1  0  0  0  0
 32 36  1  0  0  0  0
 33 32  2  0  0  0  0
 37 33  1  0  0  0  0
 37 38  1  0  0  0  0
 38 39  1  0  0  0  0
 40 38  2  0  0  0  0
 41 40  1  0  0  0  0
 42 41  1  0  0  0  0
 43 42  2  0  0  0  0
 44 43  1  0  0  0  0
 45 46  2  0  0  0  0
 45 43  1  0  0  0  0
 46 47  1  0  0  0  0
 47 48  1  0  0  0  0
 47 41  2  0  0  0  0
 48 37  2  0  0  0  0
M  END
>  <minimizedAffinity>
-6.35479307

>  <minimizedRMSD>
1.55578506

$$$$
