
 OpenBabel03252509093D

 44 48  0  0  0  0  0  0  0  0999 V2000
   47.5460   31.8010   39.1610 C   0  0  0  0  0  0  0  0  0  0  0  0
   47.0730   33.0740   39.0200 C   0  0  0  0  0  0  0  0  0  0  0  0
   47.6610   33.9290   38.1020 C   0  0  0  0  0  0  0  0  0  0  0  0
   48.7170   33.5030   37.3320 C   0  0  0  0  0  0  0  0  0  0  0  0
   49.2300   32.2120   37.4440 C   0  0  0  0  0  0  0  0  0  0  0  0
   48.6190   31.3700   38.3780 C   0  0  0  0  0  0  0  0  0  0  0  0
   47.3030   34.9430   37.9740 H   0  0  0  0  0  0  0  0  0  0  0  0
   49.2280   34.0920   36.6030 H   0  0  0  0  0  0  0  0  0  0  0  0
   50.0420   31.8070   36.8860 H   0  0  0  0  0  0  0  0  0  0  0  0
   48.9970   30.3530   38.4890 H   0  0  0  0  0  0  0  0  0  0  0  0
   45.3160   35.5140   43.2190 Cl  0  0  0  0  0  0  0  0  0  0  0  0
   45.1250   34.7130   41.6810 C   0  0  0  0  0  0  0  0  0  0  0  0
   46.1950   34.2370   40.9940 C   0  0  0  0  0  0  0  0  0  0  0  0
   45.9540   33.6200   39.7800 C   0  0  0  0  0  0  0  0  0  0  0  0
   44.6870   33.4890   39.2700 C   0  0  0  0  0  0  0  0  0  0  0  0
   43.6200   33.9690   39.9660 C   0  0  0  0  0  0  0  0  0  0  0  0
   43.8520   34.5850   41.1820 C   0  0  0  0  0  0  0  0  0  0  0  0
   44.5230   33.0050   38.3170 H   0  0  0  0  0  0  0  0  0  0  0  0
   42.6400   33.8530   39.5490 H   0  0  0  0  0  0  0  0  0  0  0  0
   42.9710   34.9490   41.6970 H   0  0  0  0  0  0  0  0  0  0  0  0
   49.5750   35.6900   41.8950 C   0  0  0  0  0  0  0  0  0  0  0  0
   48.2960   35.5380   41.3490 C   0  0  0  0  0  0  0  0  0  0  0  0
   47.5280   34.4040   41.5550 C   0  0  0  0  0  0  0  0  0  0  0  0
   48.1320   33.4890   42.3170 N   0  0  0  0  0  0  0  0  0  0  0  0
   49.3480   33.6080   42.8490 C   0  0  0  0  0  0  0  0  0  0  0  0
   50.0660   34.7040   42.6390 N   0  0  0  0  0  0  0  0  0  0  0  0
   50.1290   36.5810   41.7090 H   0  0  0  0  0  0  0  0  0  0  0  0
   47.8970   36.3530   40.7370 H   0  0  0  0  0  0  0  0  0  0  0  0
   49.6060   32.7230   43.4270 H   0  0  0  0  0  0  0  0  0  0  0  0
   46.8770   30.7230   40.2710 S   0  0  0  0  0  0  0  0  0  0  0  0
   46.8410   29.3030   39.6680 O   0  0  0  0  0  0  0  0  0  0  0  0
   47.9210   30.5970   41.3970 O   0  0  0  0  0  0  0  0  0  0  0  0
   45.3270   30.8340   40.9670 C   0  0  0  0  0  0  0  0  0  0  0  0
   44.9110   31.2100   42.2370 C   0  0  0  0  0  0  0  0  0  0  0  0
   45.7040   31.4890   42.9120 H   0  0  0  0  0  0  0  0  0  0  0  0
   43.6490   31.2360   42.7480 C   0  0  0  0  0  3  0  0  0  0  0  0
   42.6480   30.8380   41.9040 C   0  0  0  0  0  0  0  0  0  0  0  0
   41.3800   30.8450   42.3620 N   0  0  0  0  0  0  0  0  0  0  0  0
   40.3460   30.4570   41.5630 C   0  0  0  0  0  0  0  0  0  0  0  0
   39.3410   30.4770   41.9680 H   0  0  0  0  0  0  0  0  0  0  0  0
   40.5940   30.0470   40.2530 C   0  0  0  0  0  3  0  0  0  0  0  0
   41.8850   30.0170   39.7190 C   0  0  0  0  0  3  0  0  0  0  0  0
   42.8420   30.4280   40.6180 C   0  0  0  0  0  0  0  0  0  0  0  0
   44.1670   30.4530   40.2320 C   0  0  0  0  0  3  0  0  0  0  0  0
  1 30  1  0  0  0  0
  2  1  1  0  0  0  0
  2 14  1  0  0  0  0
  3  2  2  0  0  0  0
  4  5  2  0  0  0  0
  4  3  1  0  0  0  0
  5  6  1  0  0  0  0
  6 10  1  0  0  0  0
  6  1  2  0  0  0  0
  7  3  1  0  0  0  0
  8  4  1  0  0  0  0
  9  5  1  0  0  0  0
 12 11  1  0  0  0  0
 13 23  1  0  0  0  0
 13 12  2  0  0  0  0
 14 13  1  0  0  0  0
 15 14  2  0  0  0  0
 15 16  1  0  0  0  0
 16 17  2  0  0  0  0
 17 12  1  0  0  0  0
 17 20  1  0  0  0  0
 18 15  1  0  0  0  0
 19 16  1  0  0  0  0
 21 26  1  0  0  0  0
 22 23  1  0  0  0  0
 22 21  2  0  0  0  0
 23 24  2  0  0  0  0
 24 25  1  0  0  0  0
 25 29  1  0  0  0  0
 26 25  2  0  0  0  0
 27 21  1  0  0  0  0
 28 22  1  0  0  0  0
 30 33  1  0  0  0  0
 30 32  2  0  0  0  0
 31 30  2  0  0  0  0
 33 34  1  0  0  0  0
 34 36  2  0  0  0  0
 34 35  1  0  0  0  0
 37 38  1  0  0  0  0
 37 36  1  0  0  0  0
 39 40  1  0  0  0  0
 39 38  2  0  0  0  0
 41 39  1  0  0  0  0
 42 41  2  0  0  0  0
 42 43  1  0  0  0  0
 43 37  2  0  0  0  0
 44 43  1  0  0  0  0
 44 33  2  0  0  0  0
M  END
>  <minimizedAffinity>
-5.19042397

>  <minimizedRMSD>
1.02343178

$$$$
