
     RDKit          3D

 34 37  0  0  0  0  0  0  0  0999 V2000
   44.6254   35.4612   45.1334 C   0  0  0  0  0  0  0  0  0  0  0  0
   45.0977   35.7136   43.8034 C   0  0  0  0  0  0  0  0  0  0  0  0
   46.0416   34.8232   43.3604 C   0  0  0  0  0  0  0  0  0  0  0  0
   46.4958   33.7701   44.1457 N   0  0  0  0  0  0  0  0  0  0  0  0
   46.0130   33.5934   45.3777 C   0  0  0  0  0  0  0  0  0  0  0  0
   45.0745   34.4399   45.8756 N   0  0  0  0  0  0  0  0  0  0  0  0
   46.5398   34.9764   41.9409 C   0  0  1  0  0  0  0  0  0  0  0  0
   48.0641   35.2742   41.9359 C   0  0  0  0  0  0  0  0  0  0  0  0
   47.3863   33.9758   41.3978 C   0  0  2  0  0  0  0  0  0  0  0  0
   44.6447   36.8131   43.0174 N   0  0  0  0  0  0  0  0  0  0  0  0
   43.8785   36.1374   45.5257 H   0  0  0  0  0  0  0  0  0  0  0  0
   46.4627   32.7365   45.8587 H   0  0  0  0  0  0  0  0  0  0  0  0
   45.9600   35.7187   41.3560 H   0  0  0  0  0  0  0  0  0  0  0  0
   48.4612   35.9110   41.1369 H   0  0  0  0  0  0  0  0  0  0  0  0
   48.6300   35.1979   42.8577 H   0  0  0  0  0  0  0  0  0  0  0  0
   47.6190   33.0839   42.0289 H   0  0  0  0  0  0  0  0  0  0  0  0
   44.2333   36.7267   42.0500 H   0  0  0  0  0  0  0  0  0  0  0  0
   44.8002   37.6913   43.5803 H   0  0  0  0  0  0  0  0  0  0  0  0
   47.4838   33.7390   39.9214 C   0  0  0  0  0  0  0  0  0  0  0  0
   47.5235   32.4007   39.5354 C   0  0  0  0  0  0  0  0  0  0  0  0
   47.4864   31.5923   40.2526 H   0  0  0  0  0  0  0  0  0  0  0  0
   47.6136   32.0889   38.1871 C   0  0  0  0  0  0  0  0  0  0  0  0
   47.6626   33.1025   37.2511 C   0  0  0  0  0  0  0  0  0  0  0  0
   47.7512   32.8430   35.9179 N   0  0  0  0  0  0  0  0  0  0  0  0
   47.7976   33.8465   35.0230 C   0  0  0  0  0  0  0  0  0  0  0  0
   47.8681   33.6112   33.9659 H   0  0  0  0  0  0  0  0  0  0  0  0
   47.7602   35.1800   35.3740 C   0  0  0  0  0  0  0  0  0  0  0  0
   47.6696   35.4082   36.7433 C   0  0  0  0  0  0  0  0  0  0  0  0
   47.6188   34.4087   37.7050 C   0  0  0  0  0  0  0  0  0  0  0  0
   47.5295   34.7842   39.0305 C   0  0  0  0  0  0  0  0  0  0  0  0
   47.6457   31.0540   37.8665 H   0  0  0  0  0  0  0  0  0  0  0  0
   47.7935   36.0164   34.7110 H   0  0  0  0  0  0  0  0  0  0  0  0
   47.6369   36.4586   37.0694 H   0  0  0  0  0  0  0  0  0  0  0  0
   47.4963   35.7871   39.3728 H   0  0  0  0  0  0  0  0  0  0  0  0
  1  6  2  0
  2  1  1  0
  3  2  2  0
  3  4  1  0
  4  5  2  0
  5  6  1  0
  7  3  1  0
  8  7  1  0
  9  8  1  0
  9  7  1  0
 10  2  1  0
  1 11  1  0
  5 12  1  0
  7 13  1  6
  8 14  1  0
  8 15  1  0
  9 16  1  1
 10 17  1  0
 10 18  1  0
 19 20  2  0
 20 21  1  0
 20 22  1  0
 22 23  2  0
 23 24  1  0
 24 25  2  0
 25 26  1  0
 25 27  1  0
 27 28  2  0
 28 29  1  0
 29 30  2  0
 30 19  1  0
 29 23  1  0
 22 31  1  0
 27 32  1  0
 28 33  1  0
 30 34  1  0
  9 19  1  0
M  ISO  8  11  14  12  14  13  13  14  13  15  13  16  13  21  16  26  16
M  END
>  <DihAtoms>  (1) 
7,8,18,19

>  <DihDeg>  (1) 
-46.230478009162624

$$$$
