
     RDKit          3D

 49 53  0  0  0  0  0  0  0  0999 V2000
   49.3457   33.2242   41.4970 N   0  0  0  0  0  0  0  0  0  0  0  0
   50.6711   33.1217   42.0548 C   0  0  0  0  0  0  0  0  0  0  0  0
   51.3333   31.8040   41.7683 C   0  0  0  0  0  0  0  0  0  0  0  0
   50.5926   30.7239   42.5259 C   0  0  0  0  0  0  0  0  0  0  0  0
   49.1073   31.0020   42.5423 C   0  0  0  0  0  0  0  0  0  0  0  0
   48.7601   31.9110   41.3711 C   0  0  2  0  0  0  0  0  0  0  0  0
   47.1935   34.5544   42.0263 C   0  0  1  0  0  0  0  0  0  0  0  0
   48.2881   35.4526   41.6841 C   0  0  0  0  0  0  0  0  0  0  0  0
   48.6179   34.1370   42.3135 C   0  0  2  0  0  0  0  0  0  0  0  0
   45.5157   36.0345   43.1659 C   0  0  0  0  0  0  0  0  0  0  0  0
   46.2877   34.8491   43.1501 C   0  0  0  0  0  0  0  0  0  0  0  0
   46.1592   33.9717   44.2225 C   0  0  0  0  0  0  0  0  0  0  0  0
   45.3014   34.2994   45.2235 N   0  0  0  0  0  0  0  0  0  0  0  0
   44.5773   35.4244   45.2243 C   0  0  0  0  0  0  0  0  0  0  0  0
   44.6785   36.3108   44.1862 N   0  0  0  0  0  0  0  0  0  0  0  0
   49.0506   31.2362   40.1472 N   0  0  0  0  0  0  0  0  0  0  0  0
   50.6394   33.2480   43.1663 H   0  0  0  0  0  0  0  0  0  0  0  0
   51.3101   33.9114   41.6451 H   0  0  0  0  0  0  0  0  0  0  0  0
   52.3454   31.8715   42.2444 H   0  0  0  0  0  0  0  0  0  0  0  0
   51.4475   31.6078   40.6943 H   0  0  0  0  0  0  0  0  0  0  0  0
   50.7182   29.7913   41.9348 H   0  0  0  0  0  0  0  0  0  0  0  0
   51.0070   30.5395   43.5328 H   0  0  0  0  0  0  0  0  0  0  0  0
   48.8842   31.5075   43.4926 H   0  0  0  0  0  0  0  0  0  0  0  0
   48.5009   30.0913   42.4225 H   0  0  0  0  0  0  0  0  0  0  0  0
   47.6586   32.0366   41.4289 H   0  0  0  0  0  0  0  0  0  0  0  0
   46.7173   33.8364   41.2958 H   0  0  0  0  0  0  0  0  0  0  0  0
   48.4853   35.6093   40.5879 H   0  0  0  0  0  0  0  0  0  0  0  0
   48.3533   36.4032   42.2402 H   0  0  0  0  0  0  0  0  0  0  0  0
   48.9128   34.1979   43.3840 H   0  0  0  0  0  0  0  0  0  0  0  0
   45.6441   36.6897   42.3160 H   0  0  0  0  0  0  0  0  0  0  0  0
   46.7253   33.0447   44.2695 H   0  0  0  0  0  0  0  0  0  0  0  0
   43.8946   35.6804   46.0253 H   0  0  0  0  0  0  0  0  0  0  0  0
   49.5156   30.2843   40.2049 H   0  0  0  0  0  0  0  0  0  0  0  0
   48.7905   31.6855   38.8428 C   0  0  0  0  0  0  0  0  0  0  0  0
   48.7981   30.9085   37.7172 C   0  0  0  0  0  0  0  0  0  0  0  0
   49.0089   29.8640   37.7944 H   0  0  0  0  0  0  0  0  0  0  0  0
   48.5522   31.3212   36.4324 C   0  0  0  0  0  0  0  0  0  0  0  0
   48.2625   32.6707   36.2360 C   0  0  0  0  0  0  0  0  0  0  0  0
   48.0066   33.1789   35.0190 N   0  0  0  0  0  0  0  0  0  0  0  0
   47.7268   34.4789   34.8237 C   0  0  0  0  0  0  0  0  0  0  0  0
   47.5435   34.7419   33.7989 H   0  0  0  0  0  0  0  0  0  0  0  0
   47.6877   35.3765   35.8898 C   0  0  0  0  0  0  0  0  0  0  0  0
   47.9518   34.8440   37.1338 C   0  0  0  0  0  0  0  0  0  0  0  0
   48.2368   33.5113   37.3186 C   0  0  0  0  0  0  0  0  0  0  0  0
   48.4947   33.0141   38.5669 C   0  0  0  0  0  0  0  0  0  0  0  0
   48.5702   30.6677   35.5753 H   0  0  0  0  0  0  0  0  0  0  0  0
   47.4584   36.4099   35.6805 H   0  0  0  0  0  0  0  0  0  0  0  0
   47.9174   35.5625   37.9622 H   0  0  0  0  0  0  0  0  0  0  0  0
   48.4577   33.7424   39.3911 H   0  0  0  0  0  0  0  0  0  0  0  0
  1  2  1  0
  1  9  1  0
  3  2  1  0
  3  4  1  0
  5  4  1  0
  6  1  1  0
  6  5  1  0
  7  9  1  0
  7 11  1  0
  8  7  1  0
  8  9  1  0
 10 15  2  0
 11 10  1  0
 11 12  2  0
 12 13  1  0
 14 13  2  0
 15 14  1  0
 16  6  1  0
  2 17  1  0
  2 18  1  0
  3 19  1  0
  3 20  1  0
  4 21  1  0
  4 22  1  0
  5 23  1  0
  5 24  1  0
  6 25  1  6
  7 26  1  6
  8 27  1  0
  8 28  1  0
  9 29  1  1
 10 30  1  0
 12 31  1  0
 14 32  1  0
 16 33  1  0
 34 35  2  0
 35 36  1  0
 35 37  1  0
 37 38  2  0
 38 39  1  0
 39 40  2  0
 40 41  1  0
 40 42  1  0
 42 43  2  0
 43 44  1  0
 44 45  2  0
 45 34  1  0
 44 38  1  0
 37 46  1  0
 42 47  1  0
 43 48  1  0
 45 49  1  0
 16 34  1  0
M  ISO  8  17  13  18  13  19  13  20  13  21  13  22  13  23  13  24  13
M  ISO  8  25  13  26  13  27  13  28  13  29  13  30  14  31  14  32  14
M  ISO  3  33   5  36  16  41  16
M  END
>  <DihAtoms>  (1) 
5,15,33,34

>  <DihDeg>  (1) 
0.7355046093071921

$$$$
