
 OpenBabel03252502343D

 43 46  0  0  1  0  0  0  0  0999 V2000
   47.4290   32.4820   42.4130 C   0  0  2  0  0  0  0  0  0  0  0  0
   48.9350   32.6170   42.6880 C   0  0  0  0  0  0  0  0  0  0  0  0
   49.5810   31.6650   41.6740 C   0  0  0  0  0  0  0  0  0  0  0  0
   49.4360   32.4130   40.3600 C   0  0  0  0  0  0  0  0  0  0  0  0
   48.0070   32.5570   40.0040 C   0  0  0  0  0  0  0  0  0  0  0  0
   47.1230   33.0730   41.0870 C   0  0  1  0  0  0  0  0  0  0  0  0
   47.2660   31.3830   42.3830 H   0  0  0  0  0  0  0  0  0  0  0  0
   49.1910   32.3570   43.7150 H   0  0  0  0  0  0  0  0  0  0  0  0
   49.2310   33.6610   42.4360 H   0  0  0  0  0  0  0  0  0  0  0  0
   50.6450   31.5720   41.9700 H   0  0  0  0  0  0  0  0  0  0  0  0
   49.0140   30.7230   41.6950 H   0  0  0  0  0  0  0  0  0  0  0  0
   49.8560   33.4310   40.5020 H   0  0  0  0  0  0  0  0  0  0  0  0
   49.9390   31.8570   39.5440 H   0  0  0  0  0  0  0  0  0  0  0  0
   47.6230   31.5620   39.6320 H   0  0  0  0  0  0  0  0  0  0  0  0
   47.8960   33.2320   39.1230 H   0  0  0  0  0  0  0  0  0  0  0  0
   47.3530   34.1750   41.1730 H   0  0  0  0  0  0  0  0  0  0  0  0
   45.7330   32.9600   40.6700 C   0  0  0  0  0  0  0  0  0  0  0  0
   45.1280   31.7550   40.3360 C   0  0  0  0  0  0  0  0  0  0  0  0
   45.7630   30.8780   40.4030 H   0  0  0  0  0  0  0  0  0  0  0  0
   43.8110   31.6420   39.9400 C   0  0  0  0  0  0  0  0  0  0  0  0
   43.0250   32.7930   39.8650 C   0  0  0  0  0  0  0  0  0  0  0  0
   41.7360   32.7570   39.4880 N   0  0  0  0  0  0  0  0  0  0  0  0
   40.9790   33.8770   39.4180 C   0  0  0  0  0  0  0  0  0  0  0  0
   39.9300   33.8470   39.1110 H   0  0  0  0  0  0  0  0  0  0  0  0
   41.5350   35.1130   39.7420 C   0  0  0  0  0  0  0  0  0  0  0  0
   42.8560   35.2180   40.1380 C   0  0  0  0  0  0  0  0  0  0  0  0
   43.5510   34.0280   40.1810 C   0  0  0  0  0  0  0  0  0  0  0  0
   44.8750   34.0610   40.5680 C   0  0  0  0  0  0  0  0  0  0  0  0
   46.0320   33.1500   45.8310 C   0  0  0  0  0  0  0  0  0  0  0  0
   46.7400   32.4810   44.8090 C   0  0  0  0  0  0  0  0  0  0  0  0
   46.7400   33.0790   43.5350 C   0  0  0  0  0  0  0  0  0  0  0  0
   46.0640   34.2510   43.3780 N   0  0  0  0  0  0  0  0  0  0  0  0
   45.4050   34.8570   44.3600 C   0  0  0  0  0  0  0  0  0  0  0  0
   45.3920   34.2970   45.6010 N   0  0  0  0  0  0  0  0  0  0  0  0
   47.2730   31.5500   44.9510 H   0  0  0  0  0  0  0  0  0  0  0  0
   46.0460   32.4970   47.1730 C   0  0  0  0  0  0  0  0  0  0  0  0
   47.2620   32.6760   47.8060 F   0  0  0  0  0  0  0  0  0  0  0  0
   44.9940   33.0270   47.9230 F   0  0  0  0  0  0  0  0  0  0  0  0
   45.7580   31.1440   47.0400 F   0  0  0  0  0  0  0  0  0  0  0  0
   44.6780   36.1370   44.1390 C   0  0  0  0  0  0  0  0  0  0  0  0
   45.2250   36.8650   43.1270 F   0  0  0  0  0  0  0  0  0  0  0  0
   44.6550   36.8820   45.3410 F   0  0  0  0  0  0  0  0  0  0  0  0
   43.3480   35.9100   43.8850 F   0  0  0  0  0  0  0  0  0  0  0  0
  1  7  1  6  0  0  0
  1  2  1  0  0  0  0
  1 31  1  0  0  0  0
  2  8  1  0  0  0  0
  3 11  1  0  0  0  0
  3 10  1  0  0  0  0
  3  2  1  0  0  0  0
  4 12  1  0  0  0  0
  4  3  1  0  0  0  0
  5  4  1  0  0  0  0
  5  6  1  0  0  0  0
  6 16  1  1  0  0  0
  6  1  1  0  0  0  0
  9  2  1  0  0  0  0
 13  4  1  0  0  0  0
 14  5  1  0  0  0  0
 15  5  1  0  0  0  0
 17  6  1  0  0  0  0
 18 19  1  0  0  0  0
 18 17  2  0  0  0  0
 20 18  1  0  0  0  0
 21 20  2  0  0  0  0
 21 27  1  0  0  0  0
 22 21  1  0  0  0  0
 23 22  2  0  0  0  0
 23 25  1  0  0  0  0
 24 23  1  0  0  0  0
 25 26  2  0  0  0  0
 26 27  1  0  0  0  0
 27 28  2  0  0  0  0
 28 17  1  0  0  0  0
 29 36  1  0  0  0  0
 30 35  1  0  0  0  0
 30 29  2  0  0  0  0
 31 30  1  0  0  0  0
 32 31  2  0  0  0  0
 32 33  1  0  0  0  0
 33 34  2  0  0  0  0
 34 29  1  0  0  0  0
 36 37  1  0  0  0  0
 36 38  1  0  0  0  0
 39 36  1  0  0  0  0
 40 33  1  0  0  0  0
 40 42  1  0  0  0  0
 41 40  1  0  0  0  0
 43 40  1  0  0  0  0
M  END
>  <minimizedAffinity>
-6.68240452

>  <minimizedRMSD>
7.60052776

$$$$
