REMARK  Name = 
REMARK  4 active torsions:
REMARK  status: ('A' for Active; 'I' for Inactive)
REMARK    1  A    between atoms: C_2  and  C_15
REMARK    2  A    between atoms: C_5  and  C_9
REMARK    3  A    between atoms: C_15  and  C_16
REMARK    4  A    between atoms: C_16  and  C_26
REMARK                            x       y       z     vdW  Elec       q    Type
REMARK                         _______ _______ _______ _____ _____    ______ ____
ROOT
ATOM      1  C   UNL     1      46.851  34.865  42.693  0.00  0.00    +0.000 A 
ATOM      2  C   UNL     1      48.068  34.536  42.075  0.00  0.00    +0.000 A 
ATOM      3  C   UNL     1      48.774  33.465  42.603  0.00  0.00    +0.000 A 
ATOM      4  N   UNL     1      48.239  32.816  43.675  0.00  0.00    +0.000 NA
ATOM      5  C   UNL     1      47.080  33.150  44.243  0.00  0.00    +0.000 A 
ATOM      6  N   UNL     1      46.366  34.190  43.752  0.00  0.00    +0.000 NA
ATOM      7  H   UNL     1      46.220  35.673  42.370  0.00  0.00    +0.000 HD
ATOM      8  H   UNL     1      49.709  33.181  42.160  0.00  0.00    +0.000 HD
ENDROOT
BRANCH   5  11
ATOM      9 CL   UNL     1      45.985  30.373  43.596  0.00  0.00    +0.000 Cl
ATOM     10  C   UNL     1      46.056  31.133  45.195  0.00  0.00    +0.000 A 
ATOM     11  C   UNL     1      46.575  32.407  45.387  0.00  0.00    +0.000 A 
ATOM     12  C   UNL     1      46.616  32.966  46.639  0.00  0.00    +0.000 A 
ATOM     13  C   UNL     1      46.131  32.244  47.721  0.00  0.00    +0.000 A 
ATOM     14  C   UNL     1      45.624  30.984  47.490  0.00  0.00    +0.000 A 
ATOM     15 CL   UNL     1      45.025  30.116  48.885  0.00  0.00    +0.000 Cl
ATOM     16  C   UNL     1      45.566  30.390  46.252  0.00  0.00    +0.000 A 
ATOM     17  H   UNL     1      47.021  33.963  46.800  0.00  0.00    +0.000 HD
ATOM     18  H   UNL     1      46.157  32.674  48.715  0.00  0.00    +0.000 HD
ATOM     19  H   UNL     1      45.152  29.396  46.158  0.00  0.00    +0.000 HD
ENDBRANCH   5  11
BRANCH   2  20
ATOM     20  C   UNL     1      48.497  35.323  40.947  0.00  0.00    +0.000 C 
ATOM     21  H   UNL     1      49.579  35.545  41.033  0.00  0.00    +0.000 HD
ATOM     22  H   UNL     1      47.990  36.302  40.919  0.00  0.00    +0.000 HD
BRANCH  20  23
ATOM     23  C   UNL     1      48.145  34.612  39.672  0.00  0.00    +0.000 C 
ATOM     24  H   UNL     1      47.021  34.561  39.650  0.00  0.00    +0.000 HD
ATOM     25  H   UNL     1      48.393  35.305  38.827  0.00  0.00    +0.000 HD
BRANCH  23  26
ATOM     26  C   UNL     1      48.755  33.288  39.513  0.00  0.00    +0.000 A 
ATOM     27  C   UNL     1      50.079  33.004  39.780  0.00  0.00    +0.000 A 
ATOM     28  H   UNL     1      50.726  33.797  40.130  0.00  0.00    +0.000 HD
ATOM     29  C   UNL     1      50.511  31.699  39.580  0.00  0.00    +0.000 A 
ATOM     30  C   UNL     1      49.632  30.710  39.125  0.00  0.00    +0.000 A 
ATOM     31  N   UNL     1      50.052  29.446  38.932  0.00  0.00    +0.000 NA
ATOM     32  C   UNL     1      49.232  28.473  38.495  0.00  0.00    +0.000 A 
ATOM     33  H   UNL     1      49.499  27.455  38.322  0.00  0.00    +0.000 HD
ATOM     34  C   UNL     1      47.916  28.769  38.233  0.00  0.00    +0.000 A 
ATOM     35  C   UNL     1      47.417  30.048  38.410  0.00  0.00    +0.000 A 
ATOM     36  C   UNL     1      48.315  31.014  38.864  0.00  0.00    +0.000 A 
ATOM     37  C   UNL     1      47.867  32.312  39.058  0.00  0.00    +0.000 A 
ENDBRANCH  23  26
ENDBRANCH  20  23
ENDBRANCH   2  20
TORSDOF 4
