REMARK  Name = 
REMARK  2 active torsions:
REMARK  status: ('A' for Active; 'I' for Inactive)
REMARK    1  A    between atoms: C_5  and  C_9
REMARK    2  A    between atoms: C_13  and  C_20
REMARK                            x       y       z     vdW  Elec       q    Type
REMARK                         _______ _______ _______ _____ _____    ______ ____
ROOT
ATOM      1  F   UNL     1      44.289  33.950  47.673  0.00  0.00    +0.000 F 
ATOM      2  C   UNL     1      45.273  33.032  47.538  0.00  0.00    +0.000 A 
ATOM      3  C   UNL     1      46.014  33.031  46.374  0.00  0.00    +0.000 A 
ATOM      4  C   UNL     1      47.011  32.102  46.233  0.00  0.00    +0.000 A 
ATOM      5  C   UNL     1      47.268  31.187  47.233  0.00  0.00    +0.000 A 
ATOM      6  C   UNL     1      46.543  31.175  48.392  0.00  0.00    +0.000 A 
ATOM      7  C   UNL     1      45.517  32.130  48.537  0.00  0.00    +0.000 A 
ATOM      8  H   UNL     1      47.586  32.110  45.316  0.00  0.00    +0.000 HD
ATOM      9  H   UNL     1      48.060  30.460  47.105  0.00  0.00    +0.000 HD
ATOM     10  H   UNL     1      46.757  30.447  49.173  0.00  0.00    +0.000 HD
ENDROOT
BRANCH   7  11
ATOM     11  C   UNL     1      44.778  32.085  49.768  0.00  0.00    +0.000 A 
ATOM     12  C   UNL     1      43.497  31.592  49.903  0.00  0.00    +0.000 A 
ATOM     13  H   UNL     1      43.038  31.213  48.978  0.00  0.00    +0.000 HD
ATOM     14  C   UNL     1      42.827  31.572  51.122  0.00  0.00    +0.000 A 
ATOM     15  C   UNL     1      43.467  32.066  52.240  0.00  0.00    +0.000 A 
ATOM     16  N   UNL     1      42.839  32.059  53.441  0.00  0.00    +0.000 NA
ATOM     17  C   UNL     1      43.482  32.545  54.519  0.00  0.00    +0.000 A 
ATOM     18  H   UNL     1      42.993  32.547  55.487  0.00  0.00    +0.000 HD
ATOM     19  C   UNL     1      44.772  33.064  54.488  0.00  0.00    +0.000 A 
ATOM     20  C   UNL     1      45.422  33.076  53.269  0.00  0.00    +0.000 A 
ATOM     21  C   UNL     1      44.752  32.575  52.171  0.00  0.00    +0.000 A 
ATOM     22  C   UNL     1      45.375  32.570  50.928  0.00  0.00    +0.000 A 
ENDBRANCH   7  11
BRANCH   3  27
ATOM     23  C   UNL     1      44.556  35.865  44.587  0.00  0.00    +0.000 A 
ATOM     24  C   UNL     1      45.213  35.829  43.330  0.00  0.00    +0.000 A 
ATOM     25  C   UNL     1      46.151  34.816  43.134  0.00  0.00    +0.000 A 
ATOM     26  N   UNL     1      46.378  33.927  44.155  0.00  0.00    +0.000 NA
ATOM     27  C   UNL     1      45.733  33.999  45.327  0.00  0.00    +0.000 A 
ATOM     28  N   UNL     1      44.826  34.965  45.540  0.00  0.00    +0.000 NA
ATOM     29  H   UNL     1      43.836  36.666  44.699  0.00  0.00    +0.000 HD
ATOM     30  H   UNL     1      45.042  36.519  42.529  0.00  0.00    +0.000 HD
ATOM     31  H   UNL     1      46.723  34.666  42.236  0.00  0.00    +0.000 HD
ENDBRANCH   3  27
TORSDOF 2
