
 OpenBabel03242518163D

 35 38  0  0  0  0  0  0  0  0999 V2000
   38.9940   33.1280   39.7570 C   0  0  0  0  0  0  0  0  0  0  0  0
   37.6570   32.8340   39.4090 C   0  0  0  0  0  0  0  0  0  0  0  0
   36.9520   31.8680   40.0200 C   0  0  0  0  0  0  0  0  0  0  0  0
   37.6270   31.1450   41.0500 C   0  0  0  0  0  0  0  0  0  0  0  0
   39.2750   31.8640   41.1270 S   0  0  0  0  0  0  0  0  0  0  0  0
   37.3370   33.4720   38.6310 H   0  0  0  0  0  0  0  0  0  0  0  0
   35.9310   31.6570   39.7420 H   0  0  0  0  0  0  0  0  0  0  0  0
   40.0060   34.0360   39.3590 C   0  0  0  0  0  0  0  0  0  0  0  0
   39.9070   34.2390   38.2730 H   0  0  0  0  0  0  0  0  0  0  0  0
   41.0040   33.5010   39.4280 H   0  0  0  0  0  0  0  0  0  0  0  0
   40.0830   35.3290   40.0660 C   0  0  0  0  0  0  0  0  0  0  0  0
   39.2080   35.4020   40.7550 H   0  0  0  0  0  0  0  0  0  0  0  0
   39.9960   36.2010   39.3750 H   0  0  0  0  0  0  0  0  0  0  0  0
   41.3020   35.4030   40.8700 C   0  0  0  0  0  0  0  0  0  0  0  0
   41.4850   36.4090   41.8120 C   0  0  0  0  0  0  0  0  0  0  0  0
   42.6710   36.4080   42.5310 C   0  0  0  0  0  0  0  0  0  0  0  0
   43.5830   35.4420   42.2890 N   0  0  0  0  0  0  0  0  0  0  0  0
   43.3620   34.4820   41.3620 C   0  0  0  0  0  0  0  0  0  0  0  0
   42.2440   34.4690   40.6720 N   0  0  0  0  0  0  0  0  0  0  0  0
   40.7360   37.1660   41.9820 H   0  0  0  0  0  0  0  0  0  0  0  0
   42.7830   37.2020   43.2550 H   0  0  0  0  0  0  0  0  0  0  0  0
   44.1460   33.7480   41.2320 H   0  0  0  0  0  0  0  0  0  0  0  0
   37.1200   30.1800   41.7550 O   0  0  0  0  0  0  0  0  0  0  0  0
   37.3590   28.8390   41.7560 C   0  0  0  0  0  0  0  0  0  0  0  0
   36.7940   27.7900   41.0760 C   0  0  0  0  0  0  0  0  0  0  0  0
   36.0120   28.1090   40.4180 H   0  0  0  0  0  0  0  0  0  0  0  0
   37.2170   26.4900   41.2520 C   0  0  0  0  0  3  0  0  0  0  0  0
   38.2320   26.2350   42.1330 C   0  0  0  0  0  0  0  0  0  0  0  0
   38.5750   24.9290   42.2350 N   0  0  0  0  0  0  0  0  0  0  0  0
   39.5790   24.5940   43.0930 C   0  0  0  0  0  0  0  0  0  0  0  0
   39.9330   23.5940   43.2550 H   0  0  0  0  0  0  0  0  0  0  0  0
   40.2220   25.5540   43.8290 C   0  0  0  0  0  3  0  0  0  0  0  0
   39.8490   26.8840   43.7040 C   0  0  0  0  0  3  0  0  0  0  0  0
   38.8390   27.2480   42.8460 C   0  0  0  0  0  0  0  0  0  0  0  0
   38.3970   28.5620   42.6540 C   0  0  0  0  0  3  0  0  0  0  0  0
  1  5  1  0  0  0  0
  2  1  2  0  0  0  0
  2  3  1  0  0  0  0
  3  4  2  0  0  0  0
  4  5  1  0  0  0  0
  4 23  1  0  0  0  0
  6  2  1  0  0  0  0
  7  3  1  0  0  0  0
  8 10  1  0  0  0  0
  8  1  1  0  0  0  0
  8 11  1  0  0  0  0
  9  8  1  0  0  0  0
 11 12  1  0  0  0  0
 11 14  1  0  0  0  0
 13 11  1  0  0  0  0
 14 15  1  0  0  0  0
 15 20  1  0  0  0  0
 15 16  2  0  0  0  0
 16 21  1  0  0  0  0
 17 16  1  0  0  0  0
 18 17  2  0  0  0  0
 19 14  2  0  0  0  0
 19 18  1  0  0  0  0
 22 18  1  0  0  0  0
 23 24  1  0  0  0  0
 24 35  1  0  0  0  0
 25 27  1  0  0  0  0
 25 24  2  0  0  0  0
 26 25  1  0  0  0  0
 27 28  2  0  0  0  0
 28 29  1  0  0  0  0
 28 34  1  0  0  0  0
 29 30  2  0  0  0  0
 30 31  1  0  0  0  0
 30 32  1  0  0  0  0
 33 32  2  0  0  0  0
 34 33  1  0  0  0  0
 35 34  2  0  0  0  0
M  END
>  <minimizedAffinity>
-6.41203737

$$$$

 OpenBabel03242518163D

 35 38  0  0  0  0  0  0  0  0999 V2000
   39.1150   32.9200   39.6660 C   0  0  0  0  0  0  0  0  0  0  0  0
   37.8190   32.7000   39.1470 C   0  0  0  0  0  0  0  0  0  0  0  0
   36.9460   31.8620   39.7290 C   0  0  0  0  0  0  0  0  0  0  0  0
   37.3950   31.1960   40.9090 C   0  0  0  0  0  0  0  0  0  0  0  0
   39.0760   31.7850   41.1700 S   0  0  0  0  0  0  0  0  0  0  0  0
   37.6750   33.2780   38.2760 H   0  0  0  0  0  0  0  0  0  0  0  0
   35.9600   31.7050   39.3190 H   0  0  0  0  0  0  0  0  0  0  0  0
   40.2540   33.6990   39.3460 C   0  0  0  0  0  0  0  0  0  0  0  0
   40.3700   33.7390   38.2430 H   0  0  0  0  0  0  0  0  0  0  0  0
   41.1750   33.1240   39.6770 H   0  0  0  0  0  0  0  0  0  0  0  0
   40.3110   35.0770   39.8690 C   0  0  0  0  0  0  0  0  0  0  0  0
   39.3570   35.2840   40.4100 H   0  0  0  0  0  0  0  0  0  0  0  0
   40.3680   35.8400   39.0560 H   0  0  0  0  0  0  0  0  0  0  0  0
   41.4140   35.2210   40.8170 C   0  0  0  0  0  0  0  0  0  0  0  0
   41.5330   36.3520   41.6160 C   0  0  0  0  0  0  0  0  0  0  0  0
   42.6100   36.4110   42.4890 C   0  0  0  0  0  0  0  0  0  0  0  0
   43.4820   35.3810   42.5240 N   0  0  0  0  0  0  0  0  0  0  0  0
   43.3260   34.2990   41.7270 C   0  0  0  0  0  0  0  0  0  0  0  0
   42.3120   34.2280   40.8950 N   0  0  0  0  0  0  0  0  0  0  0  0
   40.8200   37.1580   41.5660 H   0  0  0  0  0  0  0  0  0  0  0  0
   42.6760   37.3030   43.0970 H   0  0  0  0  0  0  0  0  0  0  0  0
   44.0700   33.5210   41.8190 H   0  0  0  0  0  0  0  0  0  0  0  0
   36.7040   30.3520   41.6140 O   0  0  0  0  0  0  0  0  0  0  0  0
   36.9430   29.0570   41.9630 C   0  0  0  0  0  0  0  0  0  0  0  0
   37.3450   28.4660   43.1340 C   0  0  0  0  0  0  0  0  0  0  0  0
   37.4950   29.1800   43.9170 H   0  0  0  0  0  0  0  0  0  0  0  0
   37.5210   27.1030   43.2420 C   0  0  0  0  0  3  0  0  0  0  0  0
   37.2900   26.3130   42.1500 C   0  0  0  0  0  0  0  0  0  0  0  0
   37.4910   24.9910   42.3580 N   0  0  0  0  0  0  0  0  0  0  0  0
   37.2810   24.1380   41.3160 C   0  0  0  0  0  0  0  0  0  0  0  0
   37.4090   23.0740   41.3650 H   0  0  0  0  0  0  0  0  0  0  0  0
   36.8770   24.6090   40.0940 C   0  0  0  0  0  3  0  0  0  0  0  0
   36.6790   25.9700   39.9110 C   0  0  0  0  0  3  0  0  0  0  0  0
   36.8850   26.8500   40.9450 C   0  0  0  0  0  0  0  0  0  0  0  0
   36.7090   28.2360   40.8530 C   0  0  0  0  0  3  0  0  0  0  0  0
  1  5  1  0  0  0  0
  2  1  2  0  0  0  0
  2  3  1  0  0  0  0
  3  4  2  0  0  0  0
  4  5  1  0  0  0  0
  4 23  1  0  0  0  0
  6  2  1  0  0  0  0
  7  3  1  0  0  0  0
  8  1  1  0  0  0  0
  8 10  1  0  0  0  0
  8 11  1  0  0  0  0
  9  8  1  0  0  0  0
 11 12  1  0  0  0  0
 11 14  1  0  0  0  0
 13 11  1  0  0  0  0
 14 19  2  0  0  0  0
 14 15  1  0  0  0  0
 15 16  2  0  0  0  0
 16 17  1  0  0  0  0
 16 21  1  0  0  0  0
 18 22  1  0  0  0  0
 18 17  2  0  0  0  0
 19 18  1  0  0  0  0
 20 15  1  0  0  0  0
 23 24  1  0  0  0  0
 24 25  1  0  0  0  0
 25 27  2  0  0  0  0
 25 26  1  0  0  0  0
 28 29  1  0  0  0  0
 28 27  1  0  0  0  0
 30 31  1  0  0  0  0
 30 29  2  0  0  0  0
 32 30  1  0  0  0  0
 33 32  2  0  0  0  0
 33 34  1  0  0  0  0
 34 28  2  0  0  0  0
 35 34  1  0  0  0  0
 35 24  2  0  0  0  0
M  END
>  <minimizedAffinity>
-6.35191154

$$$$

 OpenBabel03242518163D

 35 38  0  0  0  0  0  0  0  0999 V2000
   38.5730   34.0420   40.2850 C   0  0  0  0  0  0  0  0  0  0  0  0
   37.4430   33.5970   39.5620 C   0  0  0  0  0  0  0  0  0  0  0  0
   37.0200   32.3230   39.6060 C   0  0  0  0  0  0  0  0  0  0  0  0
   37.7750   31.4310   40.4250 C   0  0  0  0  0  0  0  0  0  0  0  0
   39.0920   32.4390   41.1270 S   0  0  0  0  0  0  0  0  0  0  0  0
   37.0220   34.3980   39.0190 H   0  0  0  0  0  0  0  0  0  0  0  0
   36.1550   32.0000   39.0480 H   0  0  0  0  0  0  0  0  0  0  0  0
   39.2800   35.2540   40.4820 C   0  0  0  0  0  0  0  0  0  0  0  0
   39.4040   35.4300   41.5710 H   0  0  0  0  0  0  0  0  0  0  0  0
   38.6060   36.1080   40.1630 H   0  0  0  0  0  0  0  0  0  0  0  0
   40.5990   35.3910   39.8370 C   0  0  0  0  0  0  0  0  0  0  0  0
   40.6310   36.3760   39.3140 H   0  0  0  0  0  0  0  0  0  0  0  0
   40.7690   34.6240   39.0440 H   0  0  0  0  0  0  0  0  0  0  0  0
   41.6650   35.3710   40.8380 C   0  0  0  0  0  0  0  0  0  0  0  0
   41.8160   36.4090   41.7500 C   0  0  0  0  0  0  0  0  0  0  0  0
   42.8540   36.3140   42.6650 C   0  0  0  0  0  0  0  0  0  0  0  0
   43.6600   35.2300   42.6320 N   0  0  0  0  0  0  0  0  0  0  0  0
   43.4740   34.2440   41.7260 C   0  0  0  0  0  0  0  0  0  0  0  0
   42.4960   34.3190   40.8510 N   0  0  0  0  0  0  0  0  0  0  0  0
   41.1550   37.2610   41.7510 H   0  0  0  0  0  0  0  0  0  0  0  0
   42.9460   37.1370   43.3610 H   0  0  0  0  0  0  0  0  0  0  0  0
   44.1660   33.4130   41.7690 H   0  0  0  0  0  0  0  0  0  0  0  0
   37.5290   30.1680   40.5990 O   0  0  0  0  0  0  0  0  0  0  0  0
   37.8980   29.3020   41.5830 C   0  0  0  0  0  0  0  0  0  0  0  0
   37.3270   28.9510   42.7800 C   0  0  0  0  0  0  0  0  0  0  0  0
   36.4080   29.4720   42.9580 H   0  0  0  0  0  0  0  0  0  0  0  0
   37.9050   28.0280   43.6250 C   0  0  0  0  0  3  0  0  0  0  0  0
   39.0870   27.4430   43.2620 C   0  0  0  0  0  0  0  0  0  0  0  0
   39.5740   26.5520   44.1570 N   0  0  0  0  0  0  0  0  0  0  0  0
   40.7490   25.9270   43.8670 C   0  0  0  0  0  0  0  0  0  0  0  0
   41.2270   25.2050   44.5000 H   0  0  0  0  0  0  0  0  0  0  0  0
   41.4160   26.1930   42.7000 C   0  0  0  0  0  3  0  0  0  0  0  0
   40.8930   27.1120   41.8010 C   0  0  0  0  0  3  0  0  0  0  0  0
   39.7100   27.7560   42.0710 C   0  0  0  0  0  0  0  0  0  0  0  0
   39.1080   28.6950   41.2250 C   0  0  0  0  0  3  0  0  0  0  0  0
  1  8  1  0  0  0  0
  1  5  1  0  0  0  0
  2  3  1  0  0  0  0
  2  1  2  0  0  0  0
  3  4  2  0  0  0  0
  4 23  1  0  0  0  0
  4  5  1  0  0  0  0
  6  2  1  0  0  0  0
  7  3  1  0  0  0  0
  8  9  1  0  0  0  0
 10  8  1  0  0  0  0
 11  8  1  0  0  0  0
 11 14  1  0  0  0  0
 12 11  1  0  0  0  0
 13 11  1  0  0  0  0
 14 19  2  0  0  0  0
 14 15  1  0  0  0  0
 15 20  1  0  0  0  0
 15 16  2  0  0  0  0
 16 21  1  0  0  0  0
 17 16  1  0  0  0  0
 18 22  1  0  0  0  0
 18 17  2  0  0  0  0
 19 18  1  0  0  0  0
 23 24  1  0  0  0  0
 24 25  1  0  0  0  0
 25 26  1  0  0  0  0
 25 27  2  0  0  0  0
 28 27  1  0  0  0  0
 28 29  1  0  0  0  0
 30 29  2  0  0  0  0
 30 31  1  0  0  0  0
 32 30  1  0  0  0  0
 33 34  1  0  0  0  0
 33 32  2  0  0  0  0
 34 28  2  0  0  0  0
 35 24  2  0  0  0  0
 35 34  1  0  0  0  0
M  END
>  <minimizedAffinity>
-6.34797668

$$$$

 OpenBabel03242518163D

 35 38  0  0  0  0  0  0  0  0999 V2000
   36.7330   28.4860   41.7890 C   0  0  0  0  0  0  0  0  0  0  0  0
   35.7790   28.9400   40.8510 C   0  0  0  0  0  0  0  0  0  0  0  0
   35.8220   30.1750   40.3250 C   0  0  0  0  0  0  0  0  0  0  0  0
   36.8880   31.0160   40.7660 C   0  0  0  0  0  0  0  0  0  0  0  0
   37.8210   30.0170   41.9360 S   0  0  0  0  0  0  0  0  0  0  0  0
   35.0750   28.1790   40.6530 H   0  0  0  0  0  0  0  0  0  0  0  0
   35.0850   30.5070   39.6090 H   0  0  0  0  0  0  0  0  0  0  0  0
   37.0030   27.3030   42.5200 C   0  0  0  0  0  0  0  0  0  0  0  0
   37.3690   26.5200   41.8250 H   0  0  0  0  0  0  0  0  0  0  0  0
   36.0130   26.8810   42.8800 H   0  0  0  0  0  0  0  0  0  0  0  0
   37.9460   27.3960   43.6510 C   0  0  0  0  0  0  0  0  0  0  0  0
   37.4270   27.0320   44.5690 H   0  0  0  0  0  0  0  0  0  0  0  0
   38.2460   28.4480   43.8720 H   0  0  0  0  0  0  0  0  0  0  0  0
   39.1120   26.5450   43.4180 C   0  0  0  0  0  0  0  0  0  0  0  0
   40.3540   26.8620   43.9560 C   0  0  0  0  0  0  0  0  0  0  0  0
   41.4090   26.0020   43.6860 C   0  0  0  0  0  0  0  0  0  0  0  0
   41.1850   24.9100   42.9250 N   0  0  0  0  0  0  0  0  0  0  0  0
   39.9590   24.6420   42.4220 C   0  0  0  0  0  0  0  0  0  0  0  0
   38.9490   25.4460   42.6680 N   0  0  0  0  0  0  0  0  0  0  0  0
   40.5000   27.7420   44.5620 H   0  0  0  0  0  0  0  0  0  0  0  0
   42.3610   26.2760   44.1180 H   0  0  0  0  0  0  0  0  0  0  0  0
   39.8690   23.7460   41.8220 H   0  0  0  0  0  0  0  0  0  0  0  0
   37.1010   32.2370   40.3780 O   0  0  0  0  0  0  0  0  0  0  0  0
   38.2520   32.9040   40.0850 C   0  0  0  0  0  0  0  0  0  0  0  0
   38.8200   34.0480   40.5850 C   0  0  0  0  0  0  0  0  0  0  0  0
   38.2270   34.4900   41.3600 H   0  0  0  0  0  0  0  0  0  0  0  0
   40.0200   34.5360   40.1140 C   0  0  0  0  0  3  0  0  0  0  0  0
   40.6660   33.8610   39.1150 C   0  0  0  0  0  0  0  0  0  0  0  0
   41.8350   34.4200   38.7210 N   0  0  0  0  0  0  0  0  0  0  0  0
   42.5380   33.8050   37.7300 C   0  0  0  0  0  0  0  0  0  0  0  0
   43.4730   34.1570   37.3380 H   0  0  0  0  0  0  0  0  0  0  0  0
   42.0740   32.6540   37.1500 C   0  0  0  0  0  3  0  0  0  0  0  0
   40.8720   32.1050   37.5730 C   0  0  0  0  0  3  0  0  0  0  0  0
   40.1440   32.7060   38.5710 C   0  0  0  0  0  0  0  0  0  0  0  0
   38.9250   32.2240   39.0630 C   0  0  0  0  0  3  0  0  0  0  0  0
  1  5  1  0  0  0  0
  1  8  1  0  0  0  0
  2  1  2  0  0  0  0
  3  4  2  0  0  0  0
  3  2  1  0  0  0  0
  4  5  1  0  0  0  0
  6  2  1  0  0  0  0
  7  3  1  0  0  0  0
  8 10  1  0  0  0  0
  8 11  1  0  0  0  0
  9  8  1  0  0  0  0
 11 13  1  0  0  0  0
 11 12  1  0  0  0  0
 14 11  1  0  0  0  0
 14 15  1  0  0  0  0
 15 20  1  0  0  0  0
 16 15  2  0  0  0  0
 16 21  1  0  0  0  0
 17 16  1  0  0  0  0
 18 19  1  0  0  0  0
 18 17  2  0  0  0  0
 19 14  2  0  0  0  0
 22 18  1  0  0  0  0
 23  4  1  0  0  0  0
 24 23  1  0  0  0  0
 24 25  1  0  0  0  0
 25 26  1  0  0  0  0
 27 25  2  0  0  0  0
 28 27  1  0  0  0  0
 29 28  1  0  0  0  0
 30 29  2  0  0  0  0
 31 30  1  0  0  0  0
 32 33  2  0  0  0  0
 32 30  1  0  0  0  0
 33 34  1  0  0  0  0
 34 35  1  0  0  0  0
 34 28  2  0  0  0  0
 35 24  2  0  0  0  0
M  END
>  <minimizedAffinity>
-6.18343306

$$$$

 OpenBabel03242518163D

 35 38  0  0  0  0  0  0  0  0999 V2000
   36.8990   29.6230   41.1320 C   0  0  0  0  0  0  0  0  0  0  0  0
   36.2350   30.7940   40.7040 C   0  0  0  0  0  0  0  0  0  0  0  0
   36.8900   31.8250   40.1440 C   0  0  0  0  0  0  0  0  0  0  0  0
   38.3030   31.6780   40.0030 C   0  0  0  0  0  0  0  0  0  0  0  0
   38.6770   30.0530   40.6800 S   0  0  0  0  0  0  0  0  0  0  0  0
   35.2000   30.7140   40.8920 H   0  0  0  0  0  0  0  0  0  0  0  0
   36.3680   32.7130   39.8220 H   0  0  0  0  0  0  0  0  0  0  0  0
   36.5580   28.3840   41.7300 C   0  0  0  0  0  0  0  0  0  0  0  0
   36.8670   27.5580   41.0570 H   0  0  0  0  0  0  0  0  0  0  0  0
   35.4270   28.2980   41.7340 H   0  0  0  0  0  0  0  0  0  0  0  0
   37.0850   28.1060   43.0790 C   0  0  0  0  0  0  0  0  0  0  0  0
   36.2240   27.8650   43.7470 H   0  0  0  0  0  0  0  0  0  0  0  0
   37.5810   28.9950   43.5360 H   0  0  0  0  0  0  0  0  0  0  0  0
   37.9780   26.9490   43.0520 C   0  0  0  0  0  0  0  0  0  0  0  0
   37.6790   25.8250   42.2910 C   0  0  0  0  0  0  0  0  0  0  0  0
   38.5800   24.7700   42.3230 C   0  0  0  0  0  0  0  0  0  0  0  0
   39.6920   24.8800   43.0800 N   0  0  0  0  0  0  0  0  0  0  0  0
   39.9420   25.9940   43.8050 C   0  0  0  0  0  0  0  0  0  0  0  0
   39.0990   27.0020   43.7870 N   0  0  0  0  0  0  0  0  0  0  0  0
   36.7830   25.7680   41.6960 H   0  0  0  0  0  0  0  0  0  0  0  0
   38.3190   23.9110   41.7200 H   0  0  0  0  0  0  0  0  0  0  0  0
   40.8550   25.9980   44.3840 H   0  0  0  0  0  0  0  0  0  0  0  0
   39.1090   32.5570   39.4890 O   0  0  0  0  0  0  0  0  0  0  0  0
   39.7730   33.6090   40.0450 C   0  0  0  0  0  0  0  0  0  0  0  0
   39.4700   34.9410   40.1700 C   0  0  0  0  0  0  0  0  0  0  0  0
   38.5190   35.1820   39.7410 H   0  0  0  0  0  0  0  0  0  0  0  0
   40.3230   35.8310   40.7870 C   0  0  0  0  0  3  0  0  0  0  0  0
   41.5100   35.3740   41.2900 C   0  0  0  0  0  0  0  0  0  0  0  0
   42.2770   36.3240   41.8750 N   0  0  0  0  0  0  0  0  0  0  0  0
   43.4760   35.9470   42.4000 C   0  0  0  0  0  0  0  0  0  0  0  0
   44.1650   36.6110   42.8860 H   0  0  0  0  0  0  0  0  0  0  0  0
   43.8910   34.6420   42.3370 C   0  0  0  0  0  3  0  0  0  0  0  0
   43.0840   33.6910   41.7310 C   0  0  0  0  0  3  0  0  0  0  0  0
   41.8700   34.0460   41.1930 C   0  0  0  0  0  0  0  0  0  0  0  0
   40.9910   33.1560   40.5640 C   0  0  0  0  0  3  0  0  0  0  0  0
  1  8  1  0  0  0  0
  2  6  1  0  0  0  0
  2  1  2  0  0  0  0
  3  2  1  0  0  0  0
  4  3  2  0  0  0  0
  4  5  1  0  0  0  0
  5  1  1  0  0  0  0
  7  3  1  0  0  0  0
  8 10  1  0  0  0  0
  8 11  1  0  0  0  0
  9  8  1  0  0  0  0
 11 13  1  0  0  0  0
 11 12  1  0  0  0  0
 14 11  1  0  0  0  0
 14 19  1  0  0  0  0
 15 16  1  0  0  0  0
 15 14  2  0  0  0  0
 16 17  2  0  0  0  0
 17 18  1  0  0  0  0
 18 22  1  0  0  0  0
 19 18  2  0  0  0  0
 20 15  1  0  0  0  0
 21 16  1  0  0  0  0
 23  4  1  0  0  0  0
 23 24  1  0  0  0  0
 24 25  2  0  0  0  0
 24 35  1  0  0  0  0
 25 27  1  0  0  0  0
 26 25  1  0  0  0  0
 27 28  2  0  0  0  0
 28 29  1  0  0  0  0
 29 30  2  0  0  0  0
 30 31  1  0  0  0  0
 32 30  1  0  0  0  0
 33 32  2  0  0  0  0
 34 28  1  0  0  0  0
 34 33  1  0  0  0  0
 35 34  2  0  0  0  0
M  END
>  <minimizedAffinity>
-6.09773493

$$$$

 OpenBabel03242518163D

 35 38  0  0  0  0  0  0  0  0999 V2000
   40.0760   34.5830   39.9670 C   0  0  0  0  0  0  0  0  0  0  0  0
   38.7280   34.9800   40.1170 C   0  0  0  0  0  0  0  0  0  0  0  0
   37.7040   34.1450   39.8770 C   0  0  0  0  0  0  0  0  0  0  0  0
   38.0470   32.8230   39.4580 C   0  0  0  0  0  0  0  0  0  0  0  0
   39.8460   32.7970   39.4130 S   0  0  0  0  0  0  0  0  0  0  0  0
   38.6800   35.9860   40.4320 H   0  0  0  0  0  0  0  0  0  0  0  0
   36.6800   34.4630   39.9970 H   0  0  0  0  0  0  0  0  0  0  0  0
   41.3620   35.1560   40.1290 C   0  0  0  0  0  0  0  0  0  0  0  0
   41.6240   35.7270   39.2140 H   0  0  0  0  0  0  0  0  0  0  0  0
   42.1220   34.3140   40.1280 H   0  0  0  0  0  0  0  0  0  0  0  0
   41.5820   36.0270   41.2980 C   0  0  0  0  0  0  0  0  0  0  0  0
   40.7010   35.9290   41.9760 H   0  0  0  0  0  0  0  0  0  0  0  0
   41.6300   37.1080   41.0230 H   0  0  0  0  0  0  0  0  0  0  0  0
   42.7730   35.6080   42.0340 C   0  0  0  0  0  0  0  0  0  0  0  0
   43.3280   36.4100   43.0240 C   0  0  0  0  0  0  0  0  0  0  0  0
   44.4590   35.9390   43.6740 C   0  0  0  0  0  0  0  0  0  0  0  0
   44.9640   34.7370   43.3220 N   0  0  0  0  0  0  0  0  0  0  0  0
   44.3900   33.9890   42.3520 C   0  0  0  0  0  0  0  0  0  0  0  0
   43.3180   34.4220   41.7270 N   0  0  0  0  0  0  0  0  0  0  0  0
   42.9010   37.3660   43.2830 H   0  0  0  0  0  0  0  0  0  0  0  0
   44.8680   36.5860   44.4380 H   0  0  0  0  0  0  0  0  0  0  0  0
   44.8590   33.0400   42.1330 H   0  0  0  0  0  0  0  0  0  0  0  0
   37.2060   31.8740   39.1790 O   0  0  0  0  0  0  0  0  0  0  0  0
   37.1540   30.5690   39.5670 C   0  0  0  0  0  0  0  0  0  0  0  0
   37.0260   29.3940   38.8710 C   0  0  0  0  0  0  0  0  0  0  0  0
   36.9540   29.5550   37.8140 H   0  0  0  0  0  0  0  0  0  0  0  0
   36.9980   28.1690   39.5020 C   0  0  0  0  0  3  0  0  0  0  0  0
   37.1000   28.1210   40.8660 C   0  0  0  0  0  0  0  0  0  0  0  0
   37.0620   26.8730   41.3900 N   0  0  0  0  0  0  0  0  0  0  0  0
   37.1580   26.7430   42.7420 C   0  0  0  0  0  0  0  0  0  0  0  0
   37.1390   25.8070   43.2670 H   0  0  0  0  0  0  0  0  0  0  0  0
   37.2900   27.8440   43.5460 C   0  0  0  0  0  3  0  0  0  0  0  0
   37.3260   29.1100   42.9810 C   0  0  0  0  0  3  0  0  0  0  0  0
   37.2300   29.2690   41.6190 C   0  0  0  0  0  0  0  0  0  0  0  0
   37.2580   30.5040   40.9610 C   0  0  0  0  0  3  0  0  0  0  0  0
  1  2  2  0  0  0  0
  1  8  1  0  0  0  0
  2  6  1  0  0  0  0
  3  7  1  0  0  0  0
  3  2  1  0  0  0  0
  4  3  2  0  0  0  0
  5  4  1  0  0  0  0
  5  1  1  0  0  0  0
  8 11  1  0  0  0  0
  9  8  1  0  0  0  0
 10  8  1  0  0  0  0
 11 12  1  0  0  0  0
 11 14  1  0  0  0  0
 13 11  1  0  0  0  0
 14 15  1  0  0  0  0
 15 20  1  0  0  0  0
 15 16  2  0  0  0  0
 16 21  1  0  0  0  0
 17 16  1  0  0  0  0
 18 17  2  0  0  0  0
 19 14  2  0  0  0  0
 19 18  1  0  0  0  0
 22 18  1  0  0  0  0
 23  4  1  0  0  0  0
 23 24  1  0  0  0  0
 24 35  1  0  0  0  0
 25 27  1  0  0  0  0
 25 24  2  0  0  0  0
 26 25  1  0  0  0  0
 27 28  2  0  0  0  0
 28 29  1  0  0  0  0
 28 34  1  0  0  0  0
 29 30  2  0  0  0  0
 30 31  1  0  0  0  0
 30 32  1  0  0  0  0
 33 32  2  0  0  0  0
 34 33  1  0  0  0  0
 35 34  2  0  0  0  0
M  END
>  <minimizedAffinity>
-6.08465195

$$$$

 OpenBabel03242518163D

 35 38  0  0  0  0  0  0  0  0999 V2000
   36.2700   29.6810   39.4770 C   0  0  0  0  0  0  0  0  0  0  0  0
   36.7500   30.3330   38.3200 C   0  0  0  0  0  0  0  0  0  0  0  0
   37.1510   31.6160   38.3340 C   0  0  0  0  0  0  0  0  0  0  0  0
   37.0660   32.2940   39.5880 C   0  0  0  0  0  0  0  0  0  0  0  0
   36.4070   31.0750   40.7370 S   0  0  0  0  0  0  0  0  0  0  0  0
   36.7370   29.6710   37.4990 H   0  0  0  0  0  0  0  0  0  0  0  0
   37.5150   32.1000   37.4410 H   0  0  0  0  0  0  0  0  0  0  0  0
   35.7900   28.3960   39.8330 C   0  0  0  0  0  0  0  0  0  0  0  0
   35.0480   28.0630   39.0780 H   0  0  0  0  0  0  0  0  0  0  0  0
   35.1640   28.5050   40.7730 H   0  0  0  0  0  0  0  0  0  0  0  0
   36.7810   27.3200   40.0150 C   0  0  0  0  0  0  0  0  0  0  0  0
   37.5950   27.4650   39.2650 H   0  0  0  0  0  0  0  0  0  0  0  0
   36.3580   26.3080   39.8060 H   0  0  0  0  0  0  0  0  0  0  0  0
   37.3740   27.3870   41.3490 C   0  0  0  0  0  0  0  0  0  0  0  0
   36.5930   27.6340   42.4720 C   0  0  0  0  0  0  0  0  0  0  0  0
   37.2340   27.6830   43.7020 C   0  0  0  0  0  0  0  0  0  0  0  0
   38.5700   27.4910   43.7530 N   0  0  0  0  0  0  0  0  0  0  0  0
   39.2890   27.2540   42.6320 C   0  0  0  0  0  0  0  0  0  0  0  0
   38.6980   27.2040   41.4600 N   0  0  0  0  0  0  0  0  0  0  0  0
   35.5280   27.7820   42.3990 H   0  0  0  0  0  0  0  0  0  0  0  0
   36.6000   27.8770   44.5560 H   0  0  0  0  0  0  0  0  0  0  0  0
   40.3530   27.1120   42.7640 H   0  0  0  0  0  0  0  0  0  0  0  0
   37.4030   33.5290   39.8060 O   0  0  0  0  0  0  0  0  0  0  0  0
   38.6040   34.0990   40.1020 C   0  0  0  0  0  0  0  0  0  0  0  0
   39.0200   35.4030   40.1910 C   0  0  0  0  0  0  0  0  0  0  0  0
   38.2300   36.0950   39.9850 H   0  0  0  0  0  0  0  0  0  0  0  0
   40.3180   35.7360   40.5130 C   0  0  0  0  0  3  0  0  0  0  0  0
   41.2220   34.7370   40.7500 C   0  0  0  0  0  0  0  0  0  0  0  0
   42.4690   35.1660   41.0570 N   0  0  0  0  0  0  0  0  0  0  0  0
   43.4260   34.2300   41.3070 C   0  0  0  0  0  0  0  0  0  0  0  0
   44.4450   34.4530   41.5590 H   0  0  0  0  0  0  0  0  0  0  0  0
   43.1330   32.8930   41.2490 C   0  0  0  0  0  3  0  0  0  0  0  0
   41.8460   32.4830   40.9310 C   0  0  0  0  0  3  0  0  0  0  0  0
   40.8630   33.4070   40.6740 C   0  0  0  0  0  0  0  0  0  0  0  0
   39.5400   33.0870   40.3470 C   0  0  0  0  0  3  0  0  0  0  0  0
  1  8  1  0  0  0  0
  1  5  1  0  0  0  0
  2  3  1  0  0  0  0
  2  1  2  0  0  0  0
  3  4  2  0  0  0  0
  4 23  1  0  0  0  0
  4  5  1  0  0  0  0
  6  2  1  0  0  0  0
  7  3  1  0  0  0  0
  8 11  1  0  0  0  0
  8 10  1  0  0  0  0
  9  8  1  0  0  0  0
 11 14  1  0  0  0  0
 12 11  1  0  0  0  0
 13 11  1  0  0  0  0
 14 19  2  0  0  0  0
 14 15  1  0  0  0  0
 15 16  2  0  0  0  0
 16 17  1  0  0  0  0
 16 21  1  0  0  0  0
 18 22  1  0  0  0  0
 18 17  2  0  0  0  0
 19 18  1  0  0  0  0
 20 15  1  0  0  0  0
 23 24  1  0  0  0  0
 24 25  2  0  0  0  0
 24 35  1  0  0  0  0
 25 27  1  0  0  0  0
 26 25  1  0  0  0  0
 27 28  2  0  0  0  0
 28 29  1  0  0  0  0
 29 30  2  0  0  0  0
 30 31  1  0  0  0  0
 32 30  1  0  0  0  0
 33 32  2  0  0  0  0
 34 28  1  0  0  0  0
 34 33  1  0  0  0  0
 35 34  2  0  0  0  0
M  END
>  <minimizedAffinity>
-6.06194258

$$$$

 OpenBabel03242518163D

 35 38  0  0  0  0  0  0  0  0999 V2000
   37.2350   26.9570   42.3990 C   0  0  0  0  0  0  0  0  0  0  0  0
   37.6620   27.9630   43.2950 C   0  0  0  0  0  0  0  0  0  0  0  0
   37.8150   29.2430   42.9160 C   0  0  0  0  0  0  0  0  0  0  0  0
   37.5240   29.5390   41.5500 C   0  0  0  0  0  0  0  0  0  0  0  0
   37.0310   27.9680   40.8230 S   0  0  0  0  0  0  0  0  0  0  0  0
   37.8270   27.5500   44.2520 H   0  0  0  0  0  0  0  0  0  0  0  0
   38.1420   29.9990   43.6120 H   0  0  0  0  0  0  0  0  0  0  0  0
   36.9640   25.5670   42.4370 C   0  0  0  0  0  0  0  0  0  0  0  0
   36.0290   25.3630   41.8750 H   0  0  0  0  0  0  0  0  0  0  0  0
   36.6850   25.2940   43.5020 H   0  0  0  0  0  0  0  0  0  0  0  0
   38.0100   24.6510   41.9440 C   0  0  0  0  0  0  0  0  0  0  0  0
   38.3890   24.0570   42.8090 H   0  0  0  0  0  0  0  0  0  0  0  0
   38.8980   25.1930   41.5400 H   0  0  0  0  0  0  0  0  0  0  0  0
   37.4570   23.7220   40.9600 C   0  0  0  0  0  0  0  0  0  0  0  0
   36.2180   23.9490   40.3710 C   0  0  0  0  0  0  0  0  0  0  0  0
   35.7660   23.0180   39.4480 C   0  0  0  0  0  0  0  0  0  0  0  0
   36.5370   21.9460   39.1660 N   0  0  0  0  0  0  0  0  0  0  0  0
   37.7370   21.7660   39.7640 C   0  0  0  0  0  0  0  0  0  0  0  0
   38.1800   22.6390   40.6410 N   0  0  0  0  0  0  0  0  0  0  0  0
   35.6260   24.8150   40.6170 H   0  0  0  0  0  0  0  0  0  0  0  0
   34.7990   23.2220   39.0080 H   0  0  0  0  0  0  0  0  0  0  0  0
   38.2890   20.8810   39.4800 H   0  0  0  0  0  0  0  0  0  0  0  0
   37.6100   30.7090   40.9930 O   0  0  0  0  0  0  0  0  0  0  0  0
   38.6650   31.5520   40.8180 C   0  0  0  0  0  0  0  0  0  0  0  0
   40.0230   31.3560   40.8040 C   0  0  0  0  0  0  0  0  0  0  0  0
   40.2860   30.3300   40.9650 H   0  0  0  0  0  0  0  0  0  0  0  0
   40.9100   32.3920   40.6040 C   0  0  0  0  0  3  0  0  0  0  0  0
   40.4240   33.6560   40.4130 C   0  0  0  0  0  0  0  0  0  0  0  0
   41.3730   34.6030   40.2250 N   0  0  0  0  0  0  0  0  0  0  0  0
   40.9670   35.8880   40.0280 C   0  0  0  0  0  0  0  0  0  0  0  0
   41.6290   36.7180   39.8700 H   0  0  0  0  0  0  0  0  0  0  0  0
   39.6350   36.2100   40.0200 C   0  0  0  0  0  3  0  0  0  0  0  0
   38.6850   35.2190   40.2150 C   0  0  0  0  0  3  0  0  0  0  0  0
   39.0680   33.9150   40.4170 C   0  0  0  0  0  0  0  0  0  0  0  0
   38.1820   32.8510   40.6210 C   0  0  0  0  0  3  0  0  0  0  0  0
  1  8  1  0  0  0  0
  1  2  2  0  0  0  0
  2  6  1  0  0  0  0
  3  2  1  0  0  0  0
  3  7  1  0  0  0  0
  4  3  2  0  0  0  0
  5  4  1  0  0  0  0
  5  1  1  0  0  0  0
  8 10  1  0  0  0  0
  9  8  1  0  0  0  0
 11  8  1  0  0  0  0
 11 12  1  0  0  0  0
 13 11  1  0  0  0  0
 14 11  1  0  0  0  0
 15 20  1  0  0  0  0
 15 14  2  0  0  0  0
 16 15  1  0  0  0  0
 17 16  2  0  0  0  0
 17 18  1  0  0  0  0
 18 19  2  0  0  0  0
 19 14  1  0  0  0  0
 21 16  1  0  0  0  0
 22 18  1  0  0  0  0
 23  4  1  0  0  0  0
 24 23  1  0  0  0  0
 25 24  1  0  0  0  0
 25 26  1  0  0  0  0
 27 25  2  0  0  0  0
 28 34  1  0  0  0  0
 28 27  1  0  0  0  0
 29 28  2  0  0  0  0
 30 29  1  0  0  0  0
 31 30  1  0  0  0  0
 32 30  2  0  0  0  0
 32 33  1  0  0  0  0
 33 34  2  0  0  0  0
 34 35  1  0  0  0  0
 35 24  2  0  0  0  0
M  END
>  <minimizedAffinity>
-6.02035522

$$$$

 OpenBabel03242518163D

 35 38  0  0  0  0  0  0  0  0999 V2000
   37.2720   26.9420   42.4130 C   0  0  0  0  0  0  0  0  0  0  0  0
   37.7770   27.9510   43.2640 C   0  0  0  0  0  0  0  0  0  0  0  0
   37.9070   29.2270   42.8640 C   0  0  0  0  0  0  0  0  0  0  0  0
   37.5080   29.5160   41.5240 C   0  0  0  0  0  0  0  0  0  0  0  0
   36.9470   27.9440   40.8510 S   0  0  0  0  0  0  0  0  0  0  0  0
   38.0160   27.5430   44.2070 H   0  0  0  0  0  0  0  0  0  0  0  0
   38.2950   29.9850   43.5270 H   0  0  0  0  0  0  0  0  0  0  0  0
   36.9950   25.5540   42.4820 C   0  0  0  0  0  0  0  0  0  0  0  0
   35.9060   25.3930   42.3480 H   0  0  0  0  0  0  0  0  0  0  0  0
   37.1730   25.2150   43.5500 H   0  0  0  0  0  0  0  0  0  0  0  0
   37.7140   24.6650   41.5500 C   0  0  0  0  0  0  0  0  0  0  0  0
   37.3820   24.9070   40.5120 H   0  0  0  0  0  0  0  0  0  0  0  0
   37.4590   23.5890   41.7030 H   0  0  0  0  0  0  0  0  0  0  0  0
   39.1550   24.8910   41.6330 C   0  0  0  0  0  0  0  0  0  0  0  0
   39.8970   25.2320   40.5070 C   0  0  0  0  0  0  0  0  0  0  0  0
   41.2600   25.4270   40.6720 C   0  0  0  0  0  0  0  0  0  0  0  0
   41.8000   25.2810   41.9010 N   0  0  0  0  0  0  0  0  0  0  0  0
   41.0390   24.9480   42.9680 C   0  0  0  0  0  0  0  0  0  0  0  0
   39.7460   24.7590   42.8300 N   0  0  0  0  0  0  0  0  0  0  0  0
   39.4370   25.3420   39.5390 H   0  0  0  0  0  0  0  0  0  0  0  0
   41.8100   25.6910   39.7790 H   0  0  0  0  0  0  0  0  0  0  0  0
   41.5520   24.8510   43.9150 H   0  0  0  0  0  0  0  0  0  0  0  0
   37.5560   30.6820   40.9540 O   0  0  0  0  0  0  0  0  0  0  0  0
   38.6060   31.4910   40.6370 C   0  0  0  0  0  0  0  0  0  0  0  0
   39.9240   31.2400   40.3530 C   0  0  0  0  0  0  0  0  0  0  0  0
   40.1550   30.1950   40.3930 H   0  0  0  0  0  0  0  0  0  0  0  0
   40.8130   32.2500   40.0560 C   0  0  0  0  0  3  0  0  0  0  0  0
   40.3700   33.5450   40.0440 C   0  0  0  0  0  0  0  0  0  0  0  0
   41.3190   34.4620   39.7420 N   0  0  0  0  0  0  0  0  0  0  0  0
   40.9540   35.7740   39.7100 C   0  0  0  0  0  0  0  0  0  0  0  0
   41.6190   36.5860   39.4830 H   0  0  0  0  0  0  0  0  0  0  0  0
   39.6640   36.1510   39.9760 C   0  0  0  0  0  3  0  0  0  0  0  0
   38.7140   35.1890   40.2830 C   0  0  0  0  0  3  0  0  0  0  0  0
   39.0560   33.8590   40.3220 C   0  0  0  0  0  0  0  0  0  0  0  0
   38.1660   32.8200   40.6210 C   0  0  0  0  0  3  0  0  0  0  0  0
  1  8  1  0  0  0  0
  1  2  2  0  0  0  0
  2  6  1  0  0  0  0
  3  2  1  0  0  0  0
  3  7  1  0  0  0  0
  4  3  2  0  0  0  0
  5  4  1  0  0  0  0
  5  1  1  0  0  0  0
  8 10  1  0  0  0  0
  9  8  1  0  0  0  0
 11 14  1  0  0  0  0
 11 13  1  0  0  0  0
 11  8  1  0  0  0  0
 12 11  1  0  0  0  0
 14 19  1  0  0  0  0
 15 16  1  0  0  0  0
 15 14  2  0  0  0  0
 16 17  2  0  0  0  0
 17 18  1  0  0  0  0
 18 22  1  0  0  0  0
 19 18  2  0  0  0  0
 20 15  1  0  0  0  0
 21 16  1  0  0  0  0
 23  4  1  0  0  0  0
 24 23  1  0  0  0  0
 25 26  1  0  0  0  0
 25 24  2  0  0  0  0
 27 25  1  0  0  0  0
 28 27  2  0  0  0  0
 28 34  1  0  0  0  0
 29 28  1  0  0  0  0
 30 29  2  0  0  0  0
 30 32  1  0  0  0  0
 31 30  1  0  0  0  0
 32 33  2  0  0  0  0
 33 34  1  0  0  0  0
 34 35  2  0  0  0  0
 35 24  1  0  0  0  0
M  END
>  <minimizedAffinity>
-5.86822224

$$$$
