
 OpenBabel03252507223D

 50 54  0  0  1  0  0  0  0  0999 V2000
   47.5180   33.6490   42.9180 C   0  0  0  0  0  0  0  0  0  0  0  0
   48.6350   33.7210   43.5080 O   0  0  0  0  0  0  0  0  0  0  0  0
   47.2470   32.8580   41.7430 N   0  0  0  0  0  0  0  0  0  0  0  0
   46.1320   32.0030   41.4080 C   0  0  0  0  0  0  0  0  0  0  0  0
   45.6110   32.4070   40.0210 C   0  0  0  0  0  0  0  0  0  0  0  0
   46.6590   32.1800   38.9800 C   0  0  0  0  0  0  0  0  0  0  0  0
   47.9970   31.9650   39.6380 C   0  0  0  0  0  0  0  0  0  0  0  0
   48.2810   32.9720   40.7340 C   0  0  2  0  0  0  0  0  0  0  0  0
   46.3560   30.9330   41.4010 H   0  0  0  0  0  0  0  0  0  0  0  0
   45.2640   32.2000   42.0960 H   0  0  0  0  0  0  0  0  0  0  0  0
   44.7640   31.7500   39.8130 H   0  0  0  0  0  0  0  0  0  0  0  0
   45.3200   33.4820   40.0900 H   0  0  0  0  0  0  0  0  0  0  0  0
   46.4400   31.2650   38.3860 H   0  0  0  0  0  0  0  0  0  0  0  0
   46.7210   33.0920   38.3360 H   0  0  0  0  0  0  0  0  0  0  0  0
   48.8080   32.1210   38.8740 H   0  0  0  0  0  0  0  0  0  0  0  0
   48.1000   30.9300   40.0040 H   0  0  0  0  0  0  0  0  0  0  0  0
   48.1940   33.9740   40.2810 H   0  0  0  0  0  0  0  0  0  0  0  0
   46.0160   35.5940   42.7810 C   0  0  0  0  0  0  0  0  0  0  0  0
   46.4300   34.4330   43.4800 C   0  0  0  0  0  0  0  0  0  0  0  0
   45.7970   34.0870   44.6520 C   0  0  0  0  0  0  0  0  0  0  0  0
   44.7970   34.8780   45.0920 N   0  0  0  0  0  0  0  0  0  0  0  0
   44.3900   35.9980   44.4300 C   0  0  0  0  0  0  0  0  0  0  0  0
   45.0100   36.3270   43.2900 N   0  0  0  0  0  0  0  0  0  0  0  0
   46.5190   35.8530   41.8670 H   0  0  0  0  0  0  0  0  0  0  0  0
   43.5880   36.5870   44.8290 H   0  0  0  0  0  0  0  0  0  0  0  0
   46.2380   32.8970   45.3480 C   0  0  0  0  0  0  0  0  0  0  0  0
   45.9410   31.6680   44.8490 C   0  0  0  0  0  0  0  0  0  0  0  0
   46.3760   30.5530   45.5340 C   0  0  0  0  0  0  0  0  0  0  0  0
   47.1050   30.6270   46.7130 C   0  0  0  0  0  0  0  0  0  0  0  0
   47.3770   31.9100   47.1740 C   0  0  0  0  0  0  0  0  0  0  0  0
   46.9420   32.9690   46.4860 N   0  0  0  0  0  0  0  0  0  0  0  0
   45.3890   31.4800   43.9520 H   0  0  0  0  0  0  0  0  0  0  0  0
   46.1850   29.5240   45.2090 H   0  0  0  0  0  0  0  0  0  0  0  0
   47.4580   29.7850   47.2720 H   0  0  0  0  0  0  0  0  0  0  0  0
   47.9410   32.0180   48.0880 H   0  0  0  0  0  0  0  0  0  0  0  0
   49.6690   32.7660   41.1960 C   0  0  0  0  0  0  0  0  0  0  0  0
   50.0220   33.4930   41.9680 H   0  0  0  0  0  0  0  0  0  0  0  0
   50.2520   33.1640   40.3220 H   0  0  0  0  0  0  0  0  0  0  0  0
   50.1410   31.4060   41.4120 C   0  0  0  0  0  0  0  0  0  0  0  0
   50.8910   30.4960   40.7100 C   0  0  0  0  0  0  0  0  0  0  0  0
   51.2330   30.7960   39.7590 H   0  0  0  0  0  0  0  0  0  0  0  0
   51.2450   29.2300   41.0940 C   0  0  0  0  0  3  0  0  0  0  0  0
   50.8460   28.7450   42.2990 C   0  0  0  0  0  0  0  0  0  0  0  0
   51.1880   27.5140   42.6820 N   0  0  0  0  0  0  0  0  0  0  0  0
   50.8300   26.9660   43.8560 C   0  0  0  0  0  0  0  0  0  0  0  0
   51.0910   25.9710   44.1960 H   0  0  0  0  0  0  0  0  0  0  0  0
   50.0670   27.7870   44.6600 C   0  0  0  0  0  3  0  0  0  0  0  0
   49.6800   29.0690   44.3250 C   0  0  0  0  0  3  0  0  0  0  0  0
   50.0950   29.5390   43.1010 C   0  0  0  0  0  0  0  0  0  0  0  0
   49.7740   30.8120   42.6440 C   0  0  0  0  0  3  0  0  0  0  0  0
  1 19  1  0  0  0  0
  1  2  2  0  0  0  0
  3  1  1  0  0  0  0
  4  3  1  0  0  0  0
  4 10  1  0  0  0  0
  5 12  1  0  0  0  0
  5  4  1  0  0  0  0
  6  7  1  0  0  0  0
  6  5  1  0  0  0  0
  7 16  1  0  0  0  0
  7  8  1  0  0  0  0
  8 17  1  6  0  0  0
  8 36  1  0  0  0  0
  8  3  1  0  0  0  0
  9  4  1  0  0  0  0
 11  5  1  0  0  0  0
 13  6  1  0  0  0  0
 14  6  1  0  0  0  0
 15  7  1  0  0  0  0
 18 23  2  0  0  0  0
 18 19  1  0  0  0  0
 19 20  2  0  0  0  0
 20 21  1  0  0  0  0
 20 26  1  0  0  0  0
 22 25  1  0  0  0  0
 22 21  2  0  0  0  0
 23 22  1  0  0  0  0
 24 18  1  0  0  0  0
 26 31  1  0  0  0  0
 27 26  2  0  0  0  0
 27 28  1  0  0  0  0
 28 29  2  0  0  0  0
 29 30  1  0  0  0  0
 29 34  1  0  0  0  0
 30 35  1  0  0  0  0
 31 30  2  0  0  0  0
 32 27  1  0  0  0  0
 33 28  1  0  0  0  0
 36 39  1  0  0  0  0
 36 37  1  0  0  0  0
 38 36  1  0  0  0  0
 39 50  1  0  0  0  0
 40 42  1  0  0  0  0
 40 39  2  0  0  0  0
 41 40  1  0  0  0  0
 42 43  2  0  0  0  0
 43 44  1  0  0  0  0
 43 49  1  0  0  0  0
 44 45  2  0  0  0  0
 45 46  1  0  0  0  0
 45 47  1  0  0  0  0
 48 47  2  0  0  0  0
 49 48  1  0  0  0  0
 50 49  2  0  0  0  0
M  END
>  <minimizedAffinity>
-5.00148201

>  <minimizedRMSD>
1.34465802

$$$$
