
 OpenBabel03252504513D

 37 40  0  0  0  0  0  0  0  0999 V2000
   46.8890   34.5680   42.7820 C   0  0  0  0  0  0  0  0  0  0  0  0
   48.0590   34.1280   42.1420 C   0  0  0  0  0  0  0  0  0  0  0  0
   48.7220   33.0500   42.7100 C   0  0  0  0  0  0  0  0  0  0  0  0
   48.1940   32.5020   43.8410 N   0  0  0  0  0  0  0  0  0  0  0  0
   47.0810   32.9410   44.4290 C   0  0  0  0  0  0  0  0  0  0  0  0
   46.4090   33.9900   43.9000 N   0  0  0  0  0  0  0  0  0  0  0  0
   46.2940   35.3920   42.4320 H   0  0  0  0  0  0  0  0  0  0  0  0
   49.6190   32.6830   42.2520 H   0  0  0  0  0  0  0  0  0  0  0  0
   45.7120   30.2460   43.9890 Cl  0  0  0  0  0  0  0  0  0  0  0  0
   45.9420   31.0720   45.5390 C   0  0  0  0  0  0  0  0  0  0  0  0
   46.5800   32.3020   45.6360 C   0  0  0  0  0  0  0  0  0  0  0  0
   46.7420   32.9140   46.8530 C   0  0  0  0  0  0  0  0  0  0  0  0
   46.2600   32.2910   47.9960 C   0  0  0  0  0  0  0  0  0  0  0  0
   45.6320   31.0720   47.8590 C   0  0  0  0  0  0  0  0  0  0  0  0
   45.0420   30.3290   49.3280 Cl  0  0  0  0  0  0  0  0  0  0  0  0
   45.4510   30.4270   46.6590 C   0  0  0  0  0  0  0  0  0  0  0  0
   47.2410   33.8770   46.9390 H   0  0  0  0  0  0  0  0  0  0  0  0
   46.3810   32.7640   48.9630 H   0  0  0  0  0  0  0  0  0  0  0  0
   44.9470   29.4710   46.6400 H   0  0  0  0  0  0  0  0  0  0  0  0
   48.4870   34.8170   40.9510 C   0  0  0  0  0  0  0  0  0  0  0  0
   49.5670   34.6400   40.7820 H   0  0  0  0  0  0  0  0  0  0  0  0
   48.3720   35.9090   41.0500 H   0  0  0  0  0  0  0  0  0  0  0  0
   47.6360   34.3920   39.7890 C   0  0  0  0  0  0  0  0  0  0  0  0
   46.5730   34.5930   40.0980 H   0  0  0  0  0  0  0  0  0  0  0  0
   47.8130   35.1280   38.9620 H   0  0  0  0  0  0  0  0  0  0  0  0
   47.8250   33.0030   39.3580 C   0  0  0  0  0  0  0  0  0  0  0  0
   46.8400   32.0370   39.3880 C   0  0  0  0  0  0  0  0  0  0  0  0
   45.8550   32.3030   39.7510 H   0  0  0  0  0  0  0  0  0  0  0  0
   47.1720   30.7630   38.9460 C   0  0  0  0  0  3  0  0  0  0  0  0
   48.4610   30.4730   38.4860 C   0  0  0  0  0  0  0  0  0  0  0  0
   48.7810   29.2370   38.0580 N   0  0  0  0  0  0  0  0  0  0  0  0
   50.0120   28.9260   37.6100 C   0  0  0  0  0  0  0  0  0  0  0  0
   50.3310   27.9730   37.2580 H   0  0  0  0  0  0  0  0  0  0  0  0
   50.9840   29.8970   37.5850 C   0  0  0  0  0  3  0  0  0  0  0  0
   50.7230   31.1890   38.0110 C   0  0  0  0  0  3  0  0  0  0  0  0
   49.4300   31.4500   38.4630 C   0  0  0  0  0  0  0  0  0  0  0  0
   49.1150   32.7280   38.9020 C   0  0  0  0  0  3  0  0  0  0  0  0
  1  6  1  0  0  0  0
  2  3  1  0  0  0  0
  2  1  2  0  0  0  0
  3  4  2  0  0  0  0
  4  5  1  0  0  0  0
  5 11  1  0  0  0  0
  6  5  2  0  0  0  0
  7  1  1  0  0  0  0
  8  3  1  0  0  0  0
  9 10  1  0  0  0  0
 10 11  2  0  0  0  0
 10 16  1  0  0  0  0
 11 12  1  0  0  0  0
 12 17  1  0  0  0  0
 12 13  2  0  0  0  0
 13 18  1  0  0  0  0
 14 13  1  0  0  0  0
 14 15  1  0  0  0  0
 16 14  2  0  0  0  0
 19 16  1  0  0  0  0
 20 22  1  0  0  0  0
 20  2  1  0  0  0  0
 21 20  1  0  0  0  0
 23 24  1  0  0  0  0
 23 20  1  0  0  0  0
 25 23  1  0  0  0  0
 26 27  1  0  0  0  0
 26 23  1  0  0  0  0
 27 28  1  0  0  0  0
 29 27  2  0  0  0  0
 30 29  1  0  0  0  0
 31 30  2  0  0  0  0
 32 31  1  0  0  0  0
 33 32  1  0  0  0  0
 34 32  2  0  0  0  0
 34 35  1  0  0  0  0
 35 36  2  0  0  0  0
 36 30  1  0  0  0  0
 36 37  1  0  0  0  0
 37 26  2  0  0  0  0
M  END
>  <minimizedAffinity>
-4.62028694

>  <minimizedRMSD>
1.27712584

$$$$
