
 OpenBabel03252505113D

 47 51  0  0  1  0  0  0  0  0999 V2000
   44.5540   35.6970   44.5910 C   0  0  0  0  0  0  0  0  0  0  0  0
   45.0250   35.5430   43.2650 C   0  0  0  0  0  0  0  0  0  0  0  0
   45.9830   34.5070   43.0300 C   0  0  0  0  0  0  0  0  0  0  0  0
   46.3880   33.7370   44.0640 N   0  0  0  0  0  0  0  0  0  0  0  0
   45.9180   33.9160   45.3020 C   0  0  0  0  0  0  0  0  0  0  0  0
   44.9940   34.9000   45.5780 N   0  0  0  0  0  0  0  0  0  0  0  0
   43.8300   36.4830   44.7630 H   0  0  0  0  0  0  0  0  0  0  0  0
   44.6750   36.1820   42.4640 H   0  0  0  0  0  0  0  0  0  0  0  0
   46.3940   33.0490   46.4140 C   0  0  2  0  0  0  0  0  0  0  0  0
   46.9520   31.8190   45.7280 C   0  0  0  0  0  0  0  0  0  0  0  0
   46.1270   30.6010   45.7930 C   0  0  0  0  0  0  0  0  0  0  0  0
   45.8970   30.3710   47.2880 C   0  0  0  0  0  0  0  0  0  0  0  0
   45.0640   31.4180   47.8980 C   0  0  0  0  0  0  0  0  0  0  0  0
   45.3780   32.7890   47.3930 C   0  0  0  0  0  0  0  0  0  0  0  0
   47.2330   33.6210   46.8800 H   0  0  0  0  0  0  0  0  0  0  0  0
   47.2110   31.9920   44.6600 H   0  0  0  0  0  0  0  0  0  0  0  0
   47.9280   31.5900   46.2120 H   0  0  0  0  0  0  0  0  0  0  0  0
   45.1870   30.7450   45.2520 H   0  0  0  0  0  0  0  0  0  0  0  0
   46.7240   29.7550   45.4550 H   0  0  0  0  0  0  0  0  0  0  0  0
   46.8920   30.2940   47.7700 H   0  0  0  0  0  0  0  0  0  0  0  0
   45.3140   29.4480   47.3450 H   0  0  0  0  0  0  0  0  0  0  0  0
   44.2870   31.3910   48.6200 H   0  0  0  0  0  0  0  0  0  0  0  0
   44.6490   33.9120   47.8900 N   0  0  0  0  0  0  0  0  0  0  0  0
   45.3200   34.3260   48.5760 H   0  0  0  0  0  0  0  0  0  0  0  0
   43.6780   34.0860   47.5060 H   0  0  0  0  0  0  0  0  0  0  0  0
   46.4890   34.3160   41.6740 C   0  0  0  0  0  0  0  0  0  0  0  0
   47.7480   34.7030   41.3890 C   0  0  0  0  0  0  0  0  0  0  0  0
   48.1720   34.4890   40.0620 C   0  0  0  0  0  0  0  0  0  0  0  0
   47.2600   33.9070   39.1950 C   0  0  0  0  0  0  0  0  0  0  0  0
   45.9790   33.5150   39.4950 C   0  0  0  0  0  0  0  0  0  0  0  0
   45.6330   33.7510   40.7940 N   0  0  0  0  0  0  0  0  0  0  0  0
   48.3850   35.1460   42.1210 H   0  0  0  0  0  0  0  0  0  0  0  0
   49.1560   34.7690   39.7570 H   0  0  0  0  0  0  0  0  0  0  0  0
   47.6380   33.7650   38.1880 H   0  0  0  0  0  0  0  0  0  0  0  0
   45.1420   32.9450   38.5660 O   0  0  0  0  0  0  0  0  0  0  0  0
   43.7790   33.2150   38.7010 C   0  0  0  0  0  0  0  0  0  0  0  0
   43.0060   32.2460   38.0530 C   0  0  0  0  0  0  0  0  0  0  0  0
   43.3660   31.3950   37.5130 H   0  0  0  0  0  0  0  0  0  0  0  0
   41.6170   32.3960   38.1100 C   0  0  0  0  0  0  0  0  0  0  0  0
   41.0030   33.4330   38.7610 C   0  0  0  0  0  0  0  0  0  0  0  0
   39.6770   33.5350   38.7900 N   0  0  0  0  0  0  0  0  0  0  0  0
   39.1490   34.5920   39.4570 C   0  0  0  0  0  0  0  0  0  0  0  0
   38.0540   34.6910   39.4890 H   0  0  0  0  0  0  0  0  0  0  0  0
   39.9200   35.5510   40.0990 C   0  0  0  0  0  0  0  0  0  0  0  0
   41.3010   35.4460   40.0710 C   0  0  0  0  0  0  0  0  0  0  0  0
   41.8160   34.3560   39.3810 C   0  0  0  0  0  0  0  0  0  0  0  0
   43.1920   34.2720   39.3670 C   0  0  0  0  0  0  0  0  0  0  0  0
  1  7  1  0  0  0  0
  1  6  1  0  0  0  0
  2  1  2  0  0  0  0
  3  2  1  0  0  0  0
  3  4  2  0  0  0  0
  4  5  1  0  0  0  0
  5  6  2  0  0  0  0
  5  9  1  0  0  0  0
  8  2  1  0  0  0  0
  9 15  1  1  0  0  0
  9 14  1  0  0  0  0
 10 11  1  0  0  0  0
 10 17  1  0  0  0  0
 10  9  1  0  0  0  0
 11 12  1  0  0  0  0
 12 21  1  0  0  0  0
 12 20  1  0  0  0  0
 12 13  1  0  0  0  0
 13 22  1  0  0  0  0
 14 23  1  0  0  0  0
 14 13  2  0  0  0  0
 16 10  1  0  0  0  0
 18 11  1  0  0  0  0
 19 11  1  0  0  0  0
 23 24  1  0  0  0  0
 25 23  1  0  0  0  0
 26  3  1  0  0  0  0
 27 26  1  0  0  0  0
 27 32  1  0  0  0  0
 28 27  2  0  0  0  0
 29 30  2  0  0  0  0
 29 28  1  0  0  0  0
 30 31  1  0  0  0  0
 31 26  2  0  0  0  0
 33 28  1  0  0  0  0
 34 29  1  0  0  0  0
 35 36  1  0  0  0  0
 35 30  1  0  0  0  0
 36 47  1  0  0  0  0
 37 39  1  0  0  0  0
 37 36  2  0  0  0  0
 38 37  1  0  0  0  0
 39 40  2  0  0  0  0
 40 41  1  0  0  0  0
 40 46  1  0  0  0  0
 41 42  2  0  0  0  0
 42 43  1  0  0  0  0
 42 44  1  0  0  0  0
 45 44  2  0  0  0  0
 46 45  1  0  0  0  0
 47 46  2  0  0  0  0
M  END
>  <minimizedAffinity>
-8.28457355

>  <minimizedRMSD>
2.01242685

$$$$
