
 OpenBabel03252504513D

 37 40  0  0  0  0  0  0  0  0999 V2000
   46.9540   34.4270   42.7360 C   0  0  0  0  0  0  0  0  0  0  0  0
   48.0030   33.8450   42.0060 C   0  0  0  0  0  0  0  0  0  0  0  0
   48.5790   32.6990   42.5340 C   0  0  0  0  0  0  0  0  0  0  0  0
   48.0890   32.2260   43.7140 N   0  0  0  0  0  0  0  0  0  0  0  0
   47.0910   32.7990   44.3870 C   0  0  0  0  0  0  0  0  0  0  0  0
   46.5070   33.9180   43.8990 N   0  0  0  0  0  0  0  0  0  0  0  0
   46.4340   35.3140   42.4240 H   0  0  0  0  0  0  0  0  0  0  0  0
   49.3840   32.2240   42.0080 H   0  0  0  0  0  0  0  0  0  0  0  0
   45.5480   30.1760   44.1230 Cl  0  0  0  0  0  0  0  0  0  0  0  0
   45.9120   31.0390   45.6270 C   0  0  0  0  0  0  0  0  0  0  0  0
   46.6230   32.2320   45.6430 C   0  0  0  0  0  0  0  0  0  0  0  0
   46.8890   32.8750   46.8250 C   0  0  0  0  0  0  0  0  0  0  0  0
   46.4370   32.3210   48.0150 C   0  0  0  0  0  0  0  0  0  0  0  0
   45.7340   31.1370   47.9580 C   0  0  0  0  0  0  0  0  0  0  0  0
   45.1860   30.4810   49.4840 Cl  0  0  0  0  0  0  0  0  0  0  0  0
   45.4490   30.4640   46.7950 C   0  0  0  0  0  0  0  0  0  0  0  0
   47.4460   33.8090   46.8480 H   0  0  0  0  0  0  0  0  0  0  0  0
   46.6390   32.8190   48.9560 H   0  0  0  0  0  0  0  0  0  0  0  0
   44.8910   29.5390   46.8390 H   0  0  0  0  0  0  0  0  0  0  0  0
   48.4060   34.4700   40.7720 C   0  0  0  0  0  0  0  0  0  0  0  0
   49.4160   34.1160   40.4830 H   0  0  0  0  0  0  0  0  0  0  0  0
   48.4900   35.5640   40.8800 H   0  0  0  0  0  0  0  0  0  0  0  0
   47.3710   34.2130   39.7140 C   0  0  0  0  0  0  0  0  0  0  0  0
   46.5570   33.6220   40.2200 H   0  0  0  0  0  0  0  0  0  0  0  0
   46.8810   35.1940   39.4860 H   0  0  0  0  0  0  0  0  0  0  0  0
   47.8700   33.5380   38.5120 C   0  0  0  0  0  0  0  0  0  0  0  0
   47.2360   33.5650   37.2850 C   0  0  0  0  0  0  0  0  0  0  0  0
   46.3080   34.1130   37.1850 H   0  0  0  0  0  0  0  0  0  0  0  0
   47.8320   32.8750   36.2380 C   0  0  0  0  0  3  0  0  0  0  0  0
   49.0320   32.1800   36.4210 C   0  0  0  0  0  0  0  0  0  0  0  0
   49.6090   31.5130   35.4040 N   0  0  0  0  0  0  0  0  0  0  0  0
   50.7630   30.8350   35.5490 C   0  0  0  0  0  0  0  0  0  0  0  0
   51.2710   30.2880   34.7880 H   0  0  0  0  0  0  0  0  0  0  0  0
   51.3840   30.8180   36.7750 C   0  0  0  0  0  3  0  0  0  0  0  0
   50.8460   31.4820   37.8640 C   0  0  0  0  0  3  0  0  0  0  0  0
   49.6490   32.1660   37.6520 C   0  0  0  0  0  0  0  0  0  0  0  0
   49.0670   32.8500   38.7100 C   0  0  0  0  0  3  0  0  0  0  0  0
  1  6  1  0  0  0  0
  2  3  1  0  0  0  0
  2  1  2  0  0  0  0
  3  4  2  0  0  0  0
  4  5  1  0  0  0  0
  5 11  1  0  0  0  0
  6  5  2  0  0  0  0
  7  1  1  0  0  0  0
  8  3  1  0  0  0  0
  9 10  1  0  0  0  0
 10 11  2  0  0  0  0
 10 16  1  0  0  0  0
 11 12  1  0  0  0  0
 12 17  1  0  0  0  0
 12 13  2  0  0  0  0
 13 18  1  0  0  0  0
 14 13  1  0  0  0  0
 14 15  1  0  0  0  0
 16 19  1  0  0  0  0
 16 14  2  0  0  0  0
 20 22  1  0  0  0  0
 20  2  1  0  0  0  0
 21 20  1  0  0  0  0
 23 24  1  0  0  0  0
 23 20  1  0  0  0  0
 25 23  1  0  0  0  0
 26 37  1  0  0  0  0
 26 23  1  0  0  0  0
 27 26  2  0  0  0  0
 28 27  1  0  0  0  0
 29 30  2  0  0  0  0
 29 27  1  0  0  0  0
 30 36  1  0  0  0  0
 31 32  2  0  0  0  0
 31 30  1  0  0  0  0
 32 34  1  0  0  0  0
 33 32  1  0  0  0  0
 34 35  2  0  0  0  0
 36 35  1  0  0  0  0
 36 37  2  0  0  0  0
M  END
>  <minimizedAffinity>
-5.30787325

>  <minimizedRMSD>
2.3251214

$$$$
