
 OpenBabel03242510553D

 34 37  0  0  0  0  0  0  0  0999 V2000
   45.7020   31.7600   47.1470 C   0  0  0  0  0  0  0  0  0  0  0  0
   45.8180   32.2010   48.4570 C   0  0  0  0  0  0  0  0  0  0  0  0
   45.5700   31.3960   49.5470 C   0  0  0  0  0  0  0  0  0  0  0  0
   45.1870   30.0860   49.2930 C   0  0  0  0  0  0  0  0  0  0  0  0
   45.0680   29.6390   47.9860 C   0  0  0  0  0  0  0  0  0  0  0  0
   45.3290   30.4900   46.9900 N   0  0  0  0  0  0  0  0  0  0  0  0
   46.1160   33.2190   48.6390 H   0  0  0  0  0  0  0  0  0  0  0  0
   45.6740   31.7800   50.5480 H   0  0  0  0  0  0  0  0  0  0  0  0
   44.9910   29.4460   50.1390 H   0  0  0  0  0  0  0  0  0  0  0  0
   44.8100   36.5500   43.5700 C   0  0  0  0  0  0  0  0  0  0  0  0
   45.7600   36.2460   42.5960 C   0  0  0  0  0  0  0  0  0  0  0  0
   46.4530   35.0480   42.7240 C   0  0  0  0  0  0  0  0  0  0  0  0
   46.1830   34.2240   43.7860 N   0  0  0  0  0  0  0  0  0  0  0  0
   45.2530   34.5650   44.7020 C   0  0  0  0  0  0  0  0  0  0  0  0
   44.5540   35.7300   44.6090 N   0  0  0  0  0  0  0  0  0  0  0  0
   45.9770   32.6560   46.0270 C   0  0  0  0  0  0  0  0  0  0  0  0
   47.0170   32.4960   45.3420 O   0  0  0  0  0  0  0  0  0  0  0  0
   45.0060   33.6850   45.7820 N   0  0  0  0  0  0  0  0  0  0  0  0
   44.2800   37.4950   43.4460 H   0  0  0  0  0  0  0  0  0  0  0  0
   45.9320   36.9410   41.7730 H   0  0  0  0  0  0  0  0  0  0  0  0
   47.1910   34.7990   41.9800 H   0  0  0  0  0  0  0  0  0  0  0  0
   44.1690   33.7840   46.3610 H   0  0  0  0  0  0  0  0  0  0  0  0
   44.6700   28.2730   47.6800 C   0  0  0  0  0  0  0  0  0  0  0  0
   44.8530   27.1850   48.5060 C   0  0  0  0  0  0  0  0  0  0  0  0
   45.3300   27.3410   49.4620 H   0  0  0  0  0  0  0  0  0  0  0  0
   44.4550   25.9100   48.1680 C   0  0  0  0  0  0  0  0  0  0  0  0
   43.8420   25.6660   46.9560 C   0  0  0  0  0  0  0  0  0  0  0  0
   43.4700   24.4130   46.6640 N   0  0  0  0  0  0  0  0  0  0  0  0
   42.8590   24.1000   45.4840 C   0  0  0  0  0  0  0  0  0  0  0  0
   42.5370   23.1080   45.1940 H   0  0  0  0  0  0  0  0  0  0  0  0
   42.6490   25.1710   44.6080 C   0  0  0  0  0  0  0  0  0  0  0  0
   43.0250   26.4810   44.8870 C   0  0  0  0  0  0  0  0  0  0  0  0
   43.6380   26.7250   46.0970 C   0  0  0  0  0  0  0  0  0  0  0  0
   44.0530   27.9810   46.4820 C   0  0  0  0  0  0  0  0  0  0  0  0
  1  2  1  0  0  0  0
  2  7  1  0  0  0  0
  2  3  2  0  0  0  0
  3  8  1  0  0  0  0
  4  3  1  0  0  0  0
  4  9  1  0  0  0  0
  5  4  2  0  0  0  0
  6  1  2  0  0  0  0
  6  5  1  0  0  0  0
 10 15  1  0  0  0  0
 11 12  1  0  0  0  0
 11 10  2  0  0  0  0
 12 13  2  0  0  0  0
 13 14  1  0  0  0  0
 14 18  1  0  0  0  0
 15 14  2  0  0  0  0
 16  1  1  0  0  0  0
 17 16  2  0  0  0  0
 18 16  1  0  0  0  0
 18 22  1  0  0  0  0
 19 10  1  0  0  0  0
 20 11  1  0  0  0  0
 21 12  1  0  0  0  0
 23  5  1  0  0  0  0
 23 24  1  0  0  0  0
 24 25  1  0  0  0  0
 26 24  2  0  0  0  0
 27 26  1  0  0  0  0
 28 27  1  0  0  0  0
 29 28  2  0  0  0  0
 30 29  1  0  0  0  0
 31 32  2  0  0  0  0
 31 29  1  0  0  0  0
 32 33  1  0  0  0  0
 33 34  1  0  0  0  0
 33 27  2  0  0  0  0
 34 23  2  0  0  0  0
M  END
>  <minimizedAffinity>
-6.07289791

>  <minimizedRMSD>
1.79749441

$$$$
