
 OpenBabel03242523353D

 40 44  0  0  0  0  0  0  0  0999 V2000
   37.1570   30.9620   39.3880 C   0  0  0  0  0  0  0  0  0  0  0  0
   37.7730   30.0720   39.0640 H   0  0  0  0  0  0  0  0  0  0  0  0
   36.4340   31.1350   38.5970 H   0  0  0  0  0  0  0  0  0  0  0  0
   38.7580   34.1900   40.3480 C   0  0  0  0  0  0  0  0  0  0  0  0
   40.0280   34.0360   39.7520 C   0  0  0  0  0  0  0  0  0  0  0  0
   40.2900   32.8560   39.0540 C   0  0  0  0  0  0  0  0  0  0  0  0
   39.3440   31.8920   38.9590 N   0  0  0  0  0  0  0  0  0  0  0  0
   38.1230   32.0720   39.5490 C   0  0  0  0  0  0  0  0  0  0  0  0
   37.8570   33.1990   40.2210 N   0  0  0  0  0  0  0  0  0  0  0  0
   38.5400   35.1060   40.8940 H   0  0  0  0  0  0  0  0  0  0  0  0
   40.7750   34.7960   39.8250 H   0  0  0  0  0  0  0  0  0  0  0  0
   41.5640   32.5940   38.4020 C   0  0  0  0  0  0  0  0  0  0  0  0
   42.6530   33.3630   38.7510 C   0  0  0  0  0  0  0  0  0  0  0  0
   42.6240   34.1650   39.4920 H   0  0  0  0  0  0  0  0  0  0  0  0
   43.9090   33.1920   38.1890 C   0  0  0  0  0  3  0  0  0  0  0  0
   44.0900   32.1970   37.2230 C   0  0  0  0  0  0  0  0  0  0  0  0
   45.3090   32.0240   36.6710 N   0  0  0  0  0  0  0  0  0  0  0  0
   45.5150   31.0740   35.7380 C   0  0  0  0  0  0  0  0  0  0  0  0
   46.5180   31.0140   35.3580 H   0  0  0  0  0  0  0  0  0  0  0  0
   44.4630   30.2490   35.3250 C   0  0  0  0  0  3  0  0  0  0  0  0
   43.2070   30.4400   35.9070 C   0  0  0  0  0  3  0  0  0  0  0  0
   43.0080   31.4240   36.8690 C   0  0  0  0  0  0  0  0  0  0  0  0
   41.7720   31.6210   37.4490 C   0  0  0  0  0  3  0  0  0  0  0  0
   36.4470   30.6170   41.0110 S   0  0  0  0  0  0  0  0  0  0  0  0
   37.4220   29.4060   41.8780 C   0  0  0  0  0  0  0  0  0  0  0  0
   36.7670   28.3090   42.3910 C   0  0  0  0  0  0  0  0  0  0  0  0
   37.5050   27.3700   43.0610 C   0  0  0  0  0  0  0  0  0  0  0  0
   38.8920   27.5020   43.2310 C   0  0  0  0  0  0  0  0  0  0  0  0
   39.5740   26.5520   43.8970 N   0  0  0  0  0  0  0  0  0  0  0  0
   40.9030   26.6540   44.0730 C   0  0  0  0  0  0  0  0  0  0  0  0
   41.5650   27.7490   43.5620 C   0  0  0  0  0  0  0  0  0  0  0  0
   40.8580   28.7210   42.8810 C   0  0  0  0  0  0  0  0  0  0  0  0
   39.4740   28.6280   42.6900 C   0  0  0  0  0  0  0  0  0  0  0  0
   38.7750   29.5920   42.0110 C   0  0  0  0  0  0  0  0  0  0  0  0
   35.7140   28.0800   42.3370 H   0  0  0  0  0  0  0  0  0  0  0  0
   37.0630   26.4700   43.4990 H   0  0  0  0  0  0  0  0  0  0  0  0
   41.4680   25.8920   44.6100 H   0  0  0  0  0  0  0  0  0  0  0  0
   42.6340   27.8050   43.7200 H   0  0  0  0  0  0  0  0  0  0  0  0
   41.3680   29.5830   42.4770 H   0  0  0  0  0  0  0  0  0  0  0  0
   39.2730   30.4580   41.6040 H   0  0  0  0  0  0  0  0  0  0  0  0
  1  8  1  0  0  0  0
  1 24  1  0  0  0  0
  2  1  1  0  0  0  0
  3  1  1  0  0  0  0
  4 10  1  0  0  0  0
  5 11  1  0  0  0  0
  5  4  2  0  0  0  0
  6  5  1  0  0  0  0
  7  6  2  0  0  0  0
  7  8  1  0  0  0  0
  8  9  2  0  0  0  0
  9  4  1  0  0  0  0
 12 13  1  0  0  0  0
 12  6  1  0  0  0  0
 13 14  1  0  0  0  0
 15 13  2  0  0  0  0
 16 15  1  0  0  0  0
 17 16  2  0  0  0  0
 18 17  1  0  0  0  0
 19 18  1  0  0  0  0
 20 18  2  0  0  0  0
 20 21  1  0  0  0  0
 21 22  2  0  0  0  0
 22 16  1  0  0  0  0
 22 23  1  0  0  0  0
 23 12  2  0  0  0  0
 24 25  1  0  0  0  0
 25 34  2  0  0  0  0
 25 26  1  0  0  0  0
 26 27  2  0  0  0  0
 27 28  1  0  0  0  0
 27 36  1  0  0  0  0
 28 29  1  0  0  0  0
 29 30  2  0  0  0  0
 30 37  1  0  0  0  0
 31 38  1  0  0  0  0
 31 30  1  0  0  0  0
 32 31  2  0  0  0  0
 33 32  1  0  0  0  0
 33 28  2  0  0  0  0
 34 33  1  0  0  0  0
 35 26  1  0  0  0  0
 39 32  1  0  0  0  0
 40 34  1  0  0  0  0
M  END
>  <minimizedAffinity>
-6.8570137

$$$$

 OpenBabel03242523353D

 40 44  0  0  0  0  0  0  0  0999 V2000
   41.5960   32.2690   40.7360 C   0  0  0  0  0  0  0  0  0  0  0  0
   42.2580   33.1790   40.8380 H   0  0  0  0  0  0  0  0  0  0  0  0
   42.0120   31.6800   39.9250 H   0  0  0  0  0  0  0  0  0  0  0  0
   38.6750   34.5380   40.2610 C   0  0  0  0  0  0  0  0  0  0  0  0
   37.6910   33.6100   39.8560 C   0  0  0  0  0  0  0  0  0  0  0  0
   38.0520   32.2650   39.7610 C   0  0  0  0  0  0  0  0  0  0  0  0
   39.3140   31.8730   40.0510 N   0  0  0  0  0  0  0  0  0  0  0  0
   40.2450   32.7970   40.4400 C   0  0  0  0  0  0  0  0  0  0  0  0
   39.9140   34.0900   40.5360 N   0  0  0  0  0  0  0  0  0  0  0  0
   38.4070   35.5890   40.3390 H   0  0  0  0  0  0  0  0  0  0  0  0
   36.6950   33.9190   39.6270 H   0  0  0  0  0  0  0  0  0  0  0  0
   37.1170   31.2270   39.3530 C   0  0  0  0  0  0  0  0  0  0  0  0
   36.3170   30.6470   40.3140 C   0  0  0  0  0  0  0  0  0  0  0  0
   36.3380   30.9160   41.3720 H   0  0  0  0  0  0  0  0  0  0  0  0
   35.3950   29.6510   40.0270 C   0  0  0  0  0  3  0  0  0  0  0  0
   35.2640   29.2090   38.7080 C   0  0  0  0  0  0  0  0  0  0  0  0
   34.3700   28.2400   38.4200 N   0  0  0  0  0  0  0  0  0  0  0  0
   34.2200   27.7920   37.1580 C   0  0  0  0  0  0  0  0  0  0  0  0
   33.4840   27.0200   37.0300 H   0  0  0  0  0  0  0  0  0  0  0  0
   34.9920   28.3260   36.1220 C   0  0  0  0  0  3  0  0  0  0  0  0
   35.9140   29.3300   36.4360 C   0  0  0  0  0  3  0  0  0  0  0  0
   36.0580   29.7820   37.7420 C   0  0  0  0  0  0  0  0  0  0  0  0
   36.9660   30.7720   38.0620 C   0  0  0  0  0  3  0  0  0  0  0  0
   41.5160   31.4270   42.3310 S   0  0  0  0  0  0  0  0  0  0  0  0
   40.5200   29.9560   42.2150 C   0  0  0  0  0  0  0  0  0  0  0  0
   41.0070   28.9160   41.4560 C   0  0  0  0  0  0  0  0  0  0  0  0
   40.2500   27.7780   41.3590 C   0  0  0  0  0  0  0  0  0  0  0  0
   39.0100   27.6560   42.0050 C   0  0  0  0  0  0  0  0  0  0  0  0
   38.3040   26.5180   41.8790 N   0  0  0  0  0  0  0  0  0  0  0  0
   37.1140   26.3750   42.4880 C   0  0  0  0  0  0  0  0  0  0  0  0
   36.6210   27.4130   43.2490 C   0  0  0  0  0  0  0  0  0  0  0  0
   37.3520   28.5790   43.3730 C   0  0  0  0  0  0  0  0  0  0  0  0
   38.5920   28.7410   42.7440 C   0  0  0  0  0  0  0  0  0  0  0  0
   39.3160   29.8980   42.8710 C   0  0  0  0  0  0  0  0  0  0  0  0
   41.9350   28.8710   40.9080 H   0  0  0  0  0  0  0  0  0  0  0  0
   40.5630   26.9060   40.7770 H   0  0  0  0  0  0  0  0  0  0  0  0
   36.5310   25.4580   42.3950 H   0  0  0  0  0  0  0  0  0  0  0  0
   35.6610   27.2690   43.7270 H   0  0  0  0  0  0  0  0  0  0  0  0
   36.9740   29.3970   43.9670 H   0  0  0  0  0  0  0  0  0  0  0  0
   38.9490   30.7240   43.4610 H   0  0  0  0  0  0  0  0  0  0  0  0
  1  2  1  0  0  0  0
  1 24  1  0  0  0  0
  3  1  1  0  0  0  0
  4 10  1  0  0  0  0
  4  9  1  0  0  0  0
  5  4  2  0  0  0  0
  6  5  1  0  0  0  0
  6  7  2  0  0  0  0
  7  8  1  0  0  0  0
  8  9  2  0  0  0  0
  8  1  1  0  0  0  0
 11  5  1  0  0  0  0
 12  6  1  0  0  0  0
 12 13  1  0  0  0  0
 13 14  1  0  0  0  0
 15 13  2  0  0  0  0
 16 15  1  0  0  0  0
 17 16  1  0  0  0  0
 18 17  2  0  0  0  0
 19 18  1  0  0  0  0
 20 21  2  0  0  0  0
 20 18  1  0  0  0  0
 21 22  1  0  0  0  0
 22 23  1  0  0  0  0
 22 16  2  0  0  0  0
 23 12  2  0  0  0  0
 25 24  1  0  0  0  0
 25 34  1  0  0  0  0
 26 25  2  0  0  0  0
 27 26  1  0  0  0  0
 27 28  2  0  0  0  0
 28 33  1  0  0  0  0
 29 28  1  0  0  0  0
 29 30  2  0  0  0  0
 30 31  1  0  0  0  0
 31 32  2  0  0  0  0
 31 38  1  0  0  0  0
 32 39  1  0  0  0  0
 33 34  2  0  0  0  0
 33 32  1  0  0  0  0
 34 40  1  0  0  0  0
 35 26  1  0  0  0  0
 36 27  1  0  0  0  0
 37 30  1  0  0  0  0
M  END
>  <minimizedAffinity>
-6.82749557

$$$$

 OpenBabel03242523353D

 40 44  0  0  0  0  0  0  0  0999 V2000
   36.9070   30.7700   39.3110 C   0  0  0  0  0  0  0  0  0  0  0  0
   37.4500   29.8470   38.9540 H   0  0  0  0  0  0  0  0  0  0  0  0
   36.1680   31.0020   38.5500 H   0  0  0  0  0  0  0  0  0  0  0  0
   38.7560   33.8650   40.2630 C   0  0  0  0  0  0  0  0  0  0  0  0
   39.9840   33.6450   39.6040 C   0  0  0  0  0  0  0  0  0  0  0  0
   40.1370   32.4680   38.8700 C   0  0  0  0  0  0  0  0  0  0  0  0
   39.1270   31.5690   38.7990 N   0  0  0  0  0  0  0  0  0  0  0  0
   37.9490   31.8120   39.4500 C   0  0  0  0  0  0  0  0  0  0  0  0
   37.7870   32.9370   40.1570 N   0  0  0  0  0  0  0  0  0  0  0  0
   38.6240   34.7790   40.8380 H   0  0  0  0  0  0  0  0  0  0  0  0
   40.7820   34.3530   39.6590 H   0  0  0  0  0  0  0  0  0  0  0  0
   41.3610   32.1410   38.1530 C   0  0  0  0  0  0  0  0  0  0  0  0
   41.3800   31.0110   37.3640 C   0  0  0  0  0  0  0  0  0  0  0  0
   40.5300   30.3370   37.2400 H   0  0  0  0  0  0  0  0  0  0  0  0
   42.4950   30.6140   36.6420 C   0  0  0  0  0  3  0  0  0  0  0  0
   43.6570   31.3870   36.7100 C   0  0  0  0  0  0  0  0  0  0  0  0
   44.7480   31.0080   36.0110 N   0  0  0  0  0  0  0  0  0  0  0  0
   45.8820   31.7330   36.0550 C   0  0  0  0  0  0  0  0  0  0  0  0
   46.6940   31.3500   35.4650 H   0  0  0  0  0  0  0  0  0  0  0  0
   45.9490   32.8940   36.8320 C   0  0  0  0  0  3  0  0  0  0  0  0
   44.8120   33.2740   37.5500 C   0  0  0  0  0  3  0  0  0  0  0  0
   43.6470   32.5170   37.4950 C   0  0  0  0  0  0  0  0  0  0  0  0
   42.5190   32.8840   38.2010 C   0  0  0  0  0  3  0  0  0  0  0  0
   36.2340   30.4490   40.9550 S   0  0  0  0  0  0  0  0  0  0  0  0
   37.2530   29.2830   41.8330 C   0  0  0  0  0  0  0  0  0  0  0  0
   36.6330   28.1880   42.3900 C   0  0  0  0  0  0  0  0  0  0  0  0
   37.4060   27.2830   43.0690 C   0  0  0  0  0  0  0  0  0  0  0  0
   38.7930   27.4490   43.2050 C   0  0  0  0  0  0  0  0  0  0  0  0
   39.5090   26.5320   43.8810 N   0  0  0  0  0  0  0  0  0  0  0  0
   40.8390   26.6670   44.0250 C   0  0  0  0  0  0  0  0  0  0  0  0
   41.4660   27.7610   43.4700 C   0  0  0  0  0  0  0  0  0  0  0  0
   40.7240   28.6990   42.7780 C   0  0  0  0  0  0  0  0  0  0  0  0
   39.3380   28.5710   42.6200 C   0  0  0  0  0  0  0  0  0  0  0  0
   38.6050   29.5010   41.9320 C   0  0  0  0  0  0  0  0  0  0  0  0
   35.5850   27.9350   42.3650 H   0  0  0  0  0  0  0  0  0  0  0  0
   36.9930   26.3860   43.5410 H   0  0  0  0  0  0  0  0  0  0  0  0
   41.4320   25.9320   44.5700 H   0  0  0  0  0  0  0  0  0  0  0  0
   42.5370   27.8430   43.6030 H   0  0  0  0  0  0  0  0  0  0  0  0
   41.2070   29.5600   42.3400 H   0  0  0  0  0  0  0  0  0  0  0  0
   39.0750   30.3660   41.4890 H   0  0  0  0  0  0  0  0  0  0  0  0
  1  8  1  0  0  0  0
  1 24  1  0  0  0  0
  2  1  1  0  0  0  0
  3  1  1  0  0  0  0
  4 10  1  0  0  0  0
  5 11  1  0  0  0  0
  5  4  2  0  0  0  0
  6  5  1  0  0  0  0
  7  6  2  0  0  0  0
  7  8  1  0  0  0  0
  8  9  2  0  0  0  0
  9  4  1  0  0  0  0
 12 23  1  0  0  0  0
 12  6  1  0  0  0  0
 13 12  2  0  0  0  0
 14 13  1  0  0  0  0
 15 16  2  0  0  0  0
 15 13  1  0  0  0  0
 16 22  1  0  0  0  0
 17 18  2  0  0  0  0
 17 16  1  0  0  0  0
 18 20  1  0  0  0  0
 19 18  1  0  0  0  0
 20 21  2  0  0  0  0
 22 21  1  0  0  0  0
 22 23  2  0  0  0  0
 24 25  1  0  0  0  0
 25 34  2  0  0  0  0
 25 26  1  0  0  0  0
 26 27  2  0  0  0  0
 27 28  1  0  0  0  0
 27 36  1  0  0  0  0
 28 29  1  0  0  0  0
 29 30  2  0  0  0  0
 30 37  1  0  0  0  0
 31 38  1  0  0  0  0
 31 30  1  0  0  0  0
 32 31  2  0  0  0  0
 33 32  1  0  0  0  0
 33 28  2  0  0  0  0
 34 33  1  0  0  0  0
 35 26  1  0  0  0  0
 39 32  1  0  0  0  0
 40 34  1  0  0  0  0
M  END
>  <minimizedAffinity>
-6.61594009

$$$$

 OpenBabel03242523353D

 40 44  0  0  0  0  0  0  0  0999 V2000
   35.5490   26.2820   36.9100 C   0  0  0  0  0  0  0  0  0  0  0  0
   35.0960   25.6660   36.0780 H   0  0  0  0  0  0  0  0  0  0  0  0
   36.5050   26.6370   36.5380 H   0  0  0  0  0  0  0  0  0  0  0  0
   35.1290   23.3970   39.2340 C   0  0  0  0  0  0  0  0  0  0  0  0
   36.0250   23.7620   40.2620 C   0  0  0  0  0  0  0  0  0  0  0  0
   36.7290   24.9600   40.1300 C   0  0  0  0  0  0  0  0  0  0  0  0
   36.5500   25.7420   39.0400 N   0  0  0  0  0  0  0  0  0  0  0  0
   35.6750   25.3600   38.0600 C   0  0  0  0  0  0  0  0  0  0  0  0
   34.9920   24.2140   38.1740 N   0  0  0  0  0  0  0  0  0  0  0  0
   34.5740   22.4670   39.3260 H   0  0  0  0  0  0  0  0  0  0  0  0
   36.1670   23.1460   41.1230 H   0  0  0  0  0  0  0  0  0  0  0  0
   37.6770   25.4300   41.1290 C   0  0  0  0  0  0  0  0  0  0  0  0
   37.2670   26.3980   42.0210 C   0  0  0  0  0  0  0  0  0  0  0  0
   36.2690   26.8400   42.0280 H   0  0  0  0  0  0  0  0  0  0  0  0
   38.0930   26.9110   43.0090 C   0  0  0  0  0  3  0  0  0  0  0  0
   39.4030   26.4330   43.1140 C   0  0  0  0  0  0  0  0  0  0  0  0
   40.2140   26.9270   44.0730 N   0  0  0  0  0  0  0  0  0  0  0  0
   41.4810   26.4860   44.2000 C   0  0  0  0  0  0  0  0  0  0  0  0
   42.0470   26.9400   44.9920 H   0  0  0  0  0  0  0  0  0  0  0  0
   41.9770   25.5050   43.3360 C   0  0  0  0  0  3  0  0  0  0  0  0
   41.1250   25.0030   42.3480 C   0  0  0  0  0  3  0  0  0  0  0  0
   39.8200   25.4660   42.2280 C   0  0  0  0  0  0  0  0  0  0  0  0
   38.9710   24.9770   41.2560 C   0  0  0  0  0  3  0  0  0  0  0  0
   34.3800   27.5780   37.3740 S   0  0  0  0  0  0  0  0  0  0  0  0
   35.1770   28.8120   38.3770 C   0  0  0  0  0  0  0  0  0  0  0  0
   34.8960   28.8160   39.7250 C   0  0  0  0  0  0  0  0  0  0  0  0
   35.5030   29.7620   40.5090 C   0  0  0  0  0  0  0  0  0  0  0  0
   36.3890   30.7100   39.9740 C   0  0  0  0  0  0  0  0  0  0  0  0
   36.9600   31.6190   40.7850 N   0  0  0  0  0  0  0  0  0  0  0  0
   37.8130   32.5370   40.2970 C   0  0  0  0  0  0  0  0  0  0  0  0
   38.0980   32.5390   38.9490 C   0  0  0  0  0  0  0  0  0  0  0  0
   37.5070   31.6030   38.1220 C   0  0  0  0  0  0  0  0  0  0  0  0
   36.6170   30.6410   38.6160 C   0  0  0  0  0  0  0  0  0  0  0  0
   36.0340   29.7120   37.7940 C   0  0  0  0  0  0  0  0  0  0  0  0
   34.2410   28.1540   40.2680 H   0  0  0  0  0  0  0  0  0  0  0  0
   35.3350   29.8340   41.5870 H   0  0  0  0  0  0  0  0  0  0  0  0
   38.2830   33.2790   40.9430 H   0  0  0  0  0  0  0  0  0  0  0  0
   38.7870   33.2890   38.5850 H   0  0  0  0  0  0  0  0  0  0  0  0
   37.7240   31.5960   37.0650 H   0  0  0  0  0  0  0  0  0  0  0  0
   36.2420   29.6950   36.7360 H   0  0  0  0  0  0  0  0  0  0  0  0
  1 24  1  0  0  0  0
  1  8  1  0  0  0  0
  2  1  1  0  0  0  0
  3  1  1  0  0  0  0
  4 10  1  0  0  0  0
  4  5  1  0  0  0  0
  5 11  1  0  0  0  0
  6  5  2  0  0  0  0
  6 12  1  0  0  0  0
  7  6  1  0  0  0  0
  8  9  1  0  0  0  0
  8  7  2  0  0  0  0
  9  4  2  0  0  0  0
 12 23  2  0  0  0  0
 12 13  1  0  0  0  0
 13 14  1  0  0  0  0
 13 15  2  0  0  0  0
 15 16  1  0  0  0  0
 16 17  1  0  0  0  0
 17 18  2  0  0  0  0
 18 19  1  0  0  0  0
 20 18  1  0  0  0  0
 21 20  2  0  0  0  0
 22 21  1  0  0  0  0
 22 16  2  0  0  0  0
 23 22  1  0  0  0  0
 24 25  1  0  0  0  0
 25 26  1  0  0  0  0
 26 35  1  0  0  0  0
 26 27  2  0  0  0  0
 27 36  1  0  0  0  0
 28 27  1  0  0  0  0
 28 29  1  0  0  0  0
 30 29  2  0  0  0  0
 30 37  1  0  0  0  0
 31 30  1  0  0  0  0
 32 33  1  0  0  0  0
 32 31  2  0  0  0  0
 33 28  2  0  0  0  0
 34 25  2  0  0  0  0
 34 33  1  0  0  0  0
 38 31  1  0  0  0  0
 39 32  1  0  0  0  0
 40 34  1  0  0  0  0
M  END
>  <minimizedAffinity>
-6.57774973

$$$$

 OpenBabel03242523353D

 40 44  0  0  0  0  0  0  0  0999 V2000
   41.9480   34.1620   40.0910 C   0  0  0  0  0  0  0  0  0  0  0  0
   42.2380   33.6620   39.1200 H   0  0  0  0  0  0  0  0  0  0  0  0
   42.6000   35.0240   40.1950 H   0  0  0  0  0  0  0  0  0  0  0  0
   43.3040   32.2550   42.9950 C   0  0  0  0  0  0  0  0  0  0  0  0
   42.4190   31.1560   43.0170 C   0  0  0  0  0  0  0  0  0  0  0  0
   41.4080   31.1030   42.0560 C   0  0  0  0  0  0  0  0  0  0  0  0
   41.2890   32.0860   41.1340 N   0  0  0  0  0  0  0  0  0  0  0  0
   42.1610   33.1390   41.1390 C   0  0  0  0  0  0  0  0  0  0  0  0
   43.1370   33.2030   42.0550 N   0  0  0  0  0  0  0  0  0  0  0  0
   44.0970   32.3080   43.7380 H   0  0  0  0  0  0  0  0  0  0  0  0
   42.5130   30.3790   43.7440 H   0  0  0  0  0  0  0  0  0  0  0  0
   40.4430   30.0160   41.9880 C   0  0  0  0  0  0  0  0  0  0  0  0
   40.5480   29.1050   40.9590 C   0  0  0  0  0  0  0  0  0  0  0  0
   41.3140   29.1460   40.1820 H   0  0  0  0  0  0  0  0  0  0  0  0
   39.6790   28.0350   40.8070 C   0  0  0  0  0  3  0  0  0  0  0  0
   38.6470   27.8630   41.7340 C   0  0  0  0  0  0  0  0  0  0  0  0
   37.7970   26.8250   41.5930 N   0  0  0  0  0  0  0  0  0  0  0  0
   36.7920   26.6320   42.4700 C   0  0  0  0  0  0  0  0  0  0  0  0
   36.1690   25.7790   42.2730 H   0  0  0  0  0  0  0  0  0  0  0  0
   36.6130   27.5090   43.5440 C   0  0  0  0  0  3  0  0  0  0  0  0
   37.5030   28.5800   43.6770 C   0  0  0  0  0  3  0  0  0  0  0  0
   38.5350   28.7670   42.7650 C   0  0  0  0  0  0  0  0  0  0  0  0
   39.4170   29.8210   42.8870 C   0  0  0  0  0  3  0  0  0  0  0  0
   40.1840   34.5380   40.0450 S   0  0  0  0  0  0  0  0  0  0  0  0
   39.2410   33.0810   39.6500 C   0  0  0  0  0  0  0  0  0  0  0  0
   39.5890   32.3870   38.5140 C   0  0  0  0  0  0  0  0  0  0  0  0
   38.8710   31.2630   38.1980 C   0  0  0  0  0  0  0  0  0  0  0  0
   37.8070   30.8160   38.9950 C   0  0  0  0  0  0  0  0  0  0  0  0
   37.1320   29.7060   38.6430 N   0  0  0  0  0  0  0  0  0  0  0  0
   36.1090   29.2560   39.3910 C   0  0  0  0  0  0  0  0  0  0  0  0
   35.7560   29.9470   40.5300 C   0  0  0  0  0  0  0  0  0  0  0  0
   36.4530   31.0860   40.8840 C   0  0  0  0  0  0  0  0  0  0  0  0
   37.5200   31.5660   40.1160 C   0  0  0  0  0  0  0  0  0  0  0  0
   38.2110   32.6950   40.4710 C   0  0  0  0  0  0  0  0  0  0  0  0
   40.3770   32.6130   37.8130 H   0  0  0  0  0  0  0  0  0  0  0  0
   39.0820   30.6540   37.3140 H   0  0  0  0  0  0  0  0  0  0  0  0
   35.5540   28.3590   39.1170 H   0  0  0  0  0  0  0  0  0  0  0  0
   34.9290   29.5610   41.1110 H   0  0  0  0  0  0  0  0  0  0  0  0
   36.1830   31.6340   41.7750 H   0  0  0  0  0  0  0  0  0  0  0  0
   37.9520   33.2520   41.3580 H   0  0  0  0  0  0  0  0  0  0  0  0
  1  3  1  0  0  0  0
  1  8  1  0  0  0  0
  2  1  1  0  0  0  0
  4  5  1  0  0  0  0
  4 10  1  0  0  0  0
  5 11  1  0  0  0  0
  6  5  2  0  0  0  0
  7  8  2  0  0  0  0
  7  6  1  0  0  0  0
  8  9  1  0  0  0  0
  9  4  2  0  0  0  0
 12  6  1  0  0  0  0
 12 23  1  0  0  0  0
 13 12  2  0  0  0  0
 14 13  1  0  0  0  0
 15 13  1  0  0  0  0
 15 16  2  0  0  0  0
 16 22  1  0  0  0  0
 17 16  1  0  0  0  0
 17 18  2  0  0  0  0
 18 20  1  0  0  0  0
 19 18  1  0  0  0  0
 20 21  2  0  0  0  0
 22 23  2  0  0  0  0
 22 21  1  0  0  0  0
 24  1  1  0  0  0  0
 25 24  1  0  0  0  0
 25 34  1  0  0  0  0
 26 25  2  0  0  0  0
 27 26  1  0  0  0  0
 27 28  2  0  0  0  0
 28 33  1  0  0  0  0
 29 28  1  0  0  0  0
 29 30  2  0  0  0  0
 30 31  1  0  0  0  0
 31 32  2  0  0  0  0
 31 38  1  0  0  0  0
 32 39  1  0  0  0  0
 33 34  2  0  0  0  0
 33 32  1  0  0  0  0
 34 40  1  0  0  0  0
 35 26  1  0  0  0  0
 36 27  1  0  0  0  0
 37 30  1  0  0  0  0
M  END
>  <minimizedAffinity>
-6.46553564

$$$$

 OpenBabel03242523353D

 40 44  0  0  0  0  0  0  0  0999 V2000
   34.8700   25.7210   36.1350 C   0  0  0  0  0  0  0  0  0  0  0  0
   34.3370   25.1660   35.3080 H   0  0  0  0  0  0  0  0  0  0  0  0
   35.8650   25.9420   35.7610 H   0  0  0  0  0  0  0  0  0  0  0  0
   34.1070   22.9010   38.4530 C   0  0  0  0  0  0  0  0  0  0  0  0
   35.0070   23.1810   39.5050 C   0  0  0  0  0  0  0  0  0  0  0  0
   35.8280   24.3030   39.3890 C   0  0  0  0  0  0  0  0  0  0  0  0
   35.7560   25.0940   38.2930 N   0  0  0  0  0  0  0  0  0  0  0  0
   34.8740   24.7960   37.2910 C   0  0  0  0  0  0  0  0  0  0  0  0
   34.0790   23.7230   37.3880 N   0  0  0  0  0  0  0  0  0  0  0  0
   33.4610   22.0300   38.5310 H   0  0  0  0  0  0  0  0  0  0  0  0
   35.0640   22.5580   40.3700 H   0  0  0  0  0  0  0  0  0  0  0  0
   36.7900   24.6830   40.4130 C   0  0  0  0  0  0  0  0  0  0  0  0
   37.6370   23.7170   40.9120 C   0  0  0  0  0  0  0  0  0  0  0  0
   37.6340   22.6740   40.5890 H   0  0  0  0  0  0  0  0  0  0  0  0
   38.5870   23.9780   41.8880 C   0  0  0  0  0  3  0  0  0  0  0  0
   38.6990   25.2760   42.3950 C   0  0  0  0  0  0  0  0  0  0  0  0
   39.6210   25.5390   43.3450 N   0  0  0  0  0  0  0  0  0  0  0  0
   39.7540   26.7800   43.8520 C   0  0  0  0  0  0  0  0  0  0  0  0
   40.5150   26.8880   44.6030 H   0  0  0  0  0  0  0  0  0  0  0  0
   38.9350   27.8190   43.4020 C   0  0  0  0  0  3  0  0  0  0  0  0
   37.9850   27.5310   42.4170 C   0  0  0  0  0  3  0  0  0  0  0  0
   37.8580   26.2470   41.9020 C   0  0  0  0  0  0  0  0  0  0  0  0
   36.9240   25.9530   40.9300 C   0  0  0  0  0  3  0  0  0  0  0  0
   33.8870   27.1630   36.5950 S   0  0  0  0  0  0  0  0  0  0  0  0
   34.9090   28.3980   37.3700 C   0  0  0  0  0  0  0  0  0  0  0  0
   35.7700   29.1080   36.5650 C   0  0  0  0  0  0  0  0  0  0  0  0
   36.5620   30.0620   37.1490 C   0  0  0  0  0  0  0  0  0  0  0  0
   36.5130   30.3220   38.5270 C   0  0  0  0  0  0  0  0  0  0  0  0
   37.3110   31.2690   39.0540 N   0  0  0  0  0  0  0  0  0  0  0  0
   37.2830   31.5390   40.3710 C   0  0  0  0  0  0  0  0  0  0  0  0
   36.4220   30.8310   41.1820 C   0  0  0  0  0  0  0  0  0  0  0  0
   35.6070   29.8600   40.6330 C   0  0  0  0  0  0  0  0  0  0  0  0
   35.6260   29.5690   39.2640 C   0  0  0  0  0  0  0  0  0  0  0  0
   34.8140   28.6060   38.7230 C   0  0  0  0  0  0  0  0  0  0  0  0
   35.9130   29.0140   35.5000 H   0  0  0  0  0  0  0  0  0  0  0  0
   37.2730   30.6700   36.5820 H   0  0  0  0  0  0  0  0  0  0  0  0
   37.9240   32.3030   40.8110 H   0  0  0  0  0  0  0  0  0  0  0  0
   36.4220   31.0690   42.2370 H   0  0  0  0  0  0  0  0  0  0  0  0
   34.9290   29.3000   41.2610 H   0  0  0  0  0  0  0  0  0  0  0  0
   34.1330   28.0400   39.3390 H   0  0  0  0  0  0  0  0  0  0  0  0
  1 24  1  0  0  0  0
  1  8  1  0  0  0  0
  2  1  1  0  0  0  0
  3  1  1  0  0  0  0
  4 10  1  0  0  0  0
  4  5  1  0  0  0  0
  5 11  1  0  0  0  0
  6  5  2  0  0  0  0
  6 12  1  0  0  0  0
  7  6  1  0  0  0  0
  8  9  1  0  0  0  0
  8  7  2  0  0  0  0
  9  4  2  0  0  0  0
 12 13  2  0  0  0  0
 12 23  1  0  0  0  0
 13 15  1  0  0  0  0
 14 13  1  0  0  0  0
 15 16  2  0  0  0  0
 16 17  1  0  0  0  0
 17 18  2  0  0  0  0
 18 19  1  0  0  0  0
 20 18  1  0  0  0  0
 21 20  2  0  0  0  0
 22 16  1  0  0  0  0
 22 21  1  0  0  0  0
 23 22  2  0  0  0  0
 24 25  1  0  0  0  0
 25 34  1  0  0  0  0
 26 27  1  0  0  0  0
 26 25  2  0  0  0  0
 27 28  2  0  0  0  0
 28 29  1  0  0  0  0
 28 33  1  0  0  0  0
 29 30  2  0  0  0  0
 30 37  1  0  0  0  0
 30 31  1  0  0  0  0
 31 38  1  0  0  0  0
 32 31  2  0  0  0  0
 32 39  1  0  0  0  0
 33 32  1  0  0  0  0
 34 33  2  0  0  0  0
 34 40  1  0  0  0  0
 35 26  1  0  0  0  0
 36 27  1  0  0  0  0
M  END
>  <minimizedAffinity>
-6.26648617

$$$$

 OpenBabel03242523353D

 40 44  0  0  0  0  0  0  0  0999 V2000
   40.5990   33.9130   39.8380 C   0  0  0  0  0  0  0  0  0  0  0  0
   40.7650   33.4650   38.8140 H   0  0  0  0  0  0  0  0  0  0  0  0
   41.1740   34.8340   39.8630 H   0  0  0  0  0  0  0  0  0  0  0  0
   42.6300   32.0740   42.3670 C   0  0  0  0  0  0  0  0  0  0  0  0
   41.8440   30.9130   42.5340 C   0  0  0  0  0  0  0  0  0  0  0  0
   40.6690   30.8000   41.7900 C   0  0  0  0  0  0  0  0  0  0  0  0
   40.3020   31.7830   40.9350 N   0  0  0  0  0  0  0  0  0  0  0  0
   41.0850   32.8960   40.7960 C   0  0  0  0  0  0  0  0  0  0  0  0
   42.2160   33.0190   41.5030 N   0  0  0  0  0  0  0  0  0  0  0  0
   43.5490   32.1740   42.9410 H   0  0  0  0  0  0  0  0  0  0  0  0
   42.1330   30.1370   43.2080 H   0  0  0  0  0  0  0  0  0  0  0  0
   39.7860   29.6470   41.8850 C   0  0  0  0  0  0  0  0  0  0  0  0
   39.1680   29.3870   43.0890 C   0  0  0  0  0  0  0  0  0  0  0  0
   39.2990   29.9940   43.9870 H   0  0  0  0  0  0  0  0  0  0  0  0
   38.3100   28.3150   43.2810 C   0  0  0  0  0  3  0  0  0  0  0  0
   38.0530   27.4530   42.2120 C   0  0  0  0  0  0  0  0  0  0  0  0
   37.2190   26.4060   42.3900 N   0  0  0  0  0  0  0  0  0  0  0  0
   36.9510   25.5580   41.3780 C   0  0  0  0  0  0  0  0  0  0  0  0
   36.2760   24.7570   41.6190 H   0  0  0  0  0  0  0  0  0  0  0  0
   37.5350   25.7480   40.1230 C   0  0  0  0  0  3  0  0  0  0  0  0
   38.3970   26.8370   39.9530 C   0  0  0  0  0  3  0  0  0  0  0  0
   38.6650   27.7040   41.0050 C   0  0  0  0  0  0  0  0  0  0  0  0
   39.5130   28.7810   40.8490 C   0  0  0  0  0  3  0  0  0  0  0  0
   38.8250   34.1110   40.1040 S   0  0  0  0  0  0  0  0  0  0  0  0
   37.9450   32.6570   39.5760 C   0  0  0  0  0  0  0  0  0  0  0  0
   38.0390   32.3030   38.2490 C   0  0  0  0  0  0  0  0  0  0  0  0
   37.3660   31.1860   37.8290 C   0  0  0  0  0  0  0  0  0  0  0  0
   36.5960   30.4110   38.7100 C   0  0  0  0  0  0  0  0  0  0  0  0
   35.9540   29.3220   38.2500 N   0  0  0  0  0  0  0  0  0  0  0  0
   35.2100   28.5620   39.0730 C   0  0  0  0  0  0  0  0  0  0  0  0
   35.1120   28.9110   40.4030 C   0  0  0  0  0  0  0  0  0  0  0  0
   35.7740   30.0310   40.8670 C   0  0  0  0  0  0  0  0  0  0  0  0
   36.5510   30.8320   40.0220 C   0  0  0  0  0  0  0  0  0  0  0  0
   37.2090   31.9410   40.4860 C   0  0  0  0  0  0  0  0  0  0  0  0
   38.5890   32.8010   37.4660 H   0  0  0  0  0  0  0  0  0  0  0  0
   37.3880   30.8350   36.7930 H   0  0  0  0  0  0  0  0  0  0  0  0
   34.6840   27.6770   38.7140 H   0  0  0  0  0  0  0  0  0  0  0  0
   34.5060   28.2810   41.0410 H   0  0  0  0  0  0  0  0  0  0  0  0
   35.7020   30.3130   41.9070 H   0  0  0  0  0  0  0  0  0  0  0  0
   37.1450   32.2340   41.5220 H   0  0  0  0  0  0  0  0  0  0  0  0
  1  3  1  0  0  0  0
  1 24  1  0  0  0  0
  1  8  1  0  0  0  0
  2  1  1  0  0  0  0
  4  5  1  0  0  0  0
  4 10  1  0  0  0  0
  5 11  1  0  0  0  0
  6 12  1  0  0  0  0
  6  5  2  0  0  0  0
  7  6  1  0  0  0  0
  8  7  2  0  0  0  0
  8  9  1  0  0  0  0
  9  4  2  0  0  0  0
 12 13  1  0  0  0  0
 13 15  2  0  0  0  0
 13 14  1  0  0  0  0
 16 17  1  0  0  0  0
 16 15  1  0  0  0  0
 18 19  1  0  0  0  0
 18 17  2  0  0  0  0
 20 18  1  0  0  0  0
 21 20  2  0  0  0  0
 21 22  1  0  0  0  0
 22 16  2  0  0  0  0
 23 22  1  0  0  0  0
 23 12  2  0  0  0  0
 25 24  1  0  0  0  0
 25 34  1  0  0  0  0
 26 25  2  0  0  0  0
 27 26  1  0  0  0  0
 27 28  2  0  0  0  0
 28 33  1  0  0  0  0
 29 28  1  0  0  0  0
 29 30  2  0  0  0  0
 30 31  1  0  0  0  0
 31 32  2  0  0  0  0
 31 38  1  0  0  0  0
 32 39  1  0  0  0  0
 33 34  2  0  0  0  0
 33 32  1  0  0  0  0
 34 40  1  0  0  0  0
 35 26  1  0  0  0  0
 36 27  1  0  0  0  0
 37 30  1  0  0  0  0
M  END
>  <minimizedAffinity>
-6.26019001

$$$$

 OpenBabel03242523353D

 40 44  0  0  0  0  0  0  0  0999 V2000
   39.1520   30.2700   41.4240 C   0  0  0  0  0  0  0  0  0  0  0  0
   39.7330   29.7500   40.6070 H   0  0  0  0  0  0  0  0  0  0  0  0
   39.8890   30.7360   42.0710 H   0  0  0  0  0  0  0  0  0  0  0  0
   37.3380   28.2440   43.9750 C   0  0  0  0  0  0  0  0  0  0  0  0
   36.9330   27.1430   43.1890 C   0  0  0  0  0  0  0  0  0  0  0  0
   37.2870   27.1300   41.8400 C   0  0  0  0  0  0  0  0  0  0  0  0
   38.0000   28.1510   41.3090 N   0  0  0  0  0  0  0  0  0  0  0  0
   38.3760   29.2050   42.0960 C   0  0  0  0  0  0  0  0  0  0  0  0
   38.0440   29.2310   43.3930 N   0  0  0  0  0  0  0  0  0  0  0  0
   37.0680   28.2660   45.0290 H   0  0  0  0  0  0  0  0  0  0  0  0
   36.3710   26.3370   43.6070 H   0  0  0  0  0  0  0  0  0  0  0  0
   36.9220   26.0460   40.9410 C   0  0  0  0  0  0  0  0  0  0  0  0
   36.9660   24.7530   41.4160 C   0  0  0  0  0  0  0  0  0  0  0  0
   37.2600   24.4840   42.4330 H   0  0  0  0  0  0  0  0  0  0  0  0
   36.6360   23.6520   40.6400 C   0  0  0  0  0  3  0  0  0  0  0  0
   36.2420   23.8510   39.3140 C   0  0  0  0  0  0  0  0  0  0  0  0
   35.9200   22.7850   38.5510 N   0  0  0  0  0  0  0  0  0  0  0  0
   35.5350   22.9450   37.2700 C   0  0  0  0  0  0  0  0  0  0  0  0
   35.3010   22.0370   36.7450 H   0  0  0  0  0  0  0  0  0  0  0  0
   35.4640   24.2230   36.7070 C   0  0  0  0  0  3  0  0  0  0  0  0
   35.8000   25.3170   37.5100 C   0  0  0  0  0  3  0  0  0  0  0  0
   36.1950   25.1380   38.8300 C   0  0  0  0  0  0  0  0  0  0  0  0
   36.5290   26.2120   39.6310 C   0  0  0  0  0  3  0  0  0  0  0  0
   37.9730   31.4070   40.6650 S   0  0  0  0  0  0  0  0  0  0  0  0
   37.1900   30.6510   39.2570 C   0  0  0  0  0  0  0  0  0  0  0  0
   37.8560   30.7030   38.0530 C   0  0  0  0  0  0  0  0  0  0  0  0
   37.2640   30.1260   36.9610 C   0  0  0  0  0  0  0  0  0  0  0  0
   36.0140   29.4930   37.0450 C   0  0  0  0  0  0  0  0  0  0  0  0
   35.4730   28.9400   35.9440 N   0  0  0  0  0  0  0  0  0  0  0  0
   34.2770   28.3270   35.9980 C   0  0  0  0  0  0  0  0  0  0  0  0
   33.6060   28.2710   37.2000 C   0  0  0  0  0  0  0  0  0  0  0  0
   34.1670   28.8430   38.3250 C   0  0  0  0  0  0  0  0  0  0  0  0
   35.4110   29.4840   38.2840 C   0  0  0  0  0  0  0  0  0  0  0  0
   35.9660   30.0480   39.4030 C   0  0  0  0  0  0  0  0  0  0  0  0
   38.8140   31.1540   37.8440 H   0  0  0  0  0  0  0  0  0  0  0  0
   37.7250   30.1230   35.9690 H   0  0  0  0  0  0  0  0  0  0  0  0
   33.8280   27.8750   35.1140 H   0  0  0  0  0  0  0  0  0  0  0  0
   32.6450   27.7730   37.2120 H   0  0  0  0  0  0  0  0  0  0  0  0
   33.6480   28.8040   39.2720 H   0  0  0  0  0  0  0  0  0  0  0  0
   35.4580   30.0170   40.3540 H   0  0  0  0  0  0  0  0  0  0  0  0
  1  3  1  0  0  0  0
  1  8  1  0  0  0  0
  2  1  1  0  0  0  0
  4 10  1  0  0  0  0
  5 11  1  0  0  0  0
  5  4  2  0  0  0  0
  6  5  1  0  0  0  0
  7  6  2  0  0  0  0
  7  8  1  0  0  0  0
  8  9  2  0  0  0  0
  9  4  1  0  0  0  0
 12 13  1  0  0  0  0
 12  6  1  0  0  0  0
 13 14  1  0  0  0  0
 15 13  2  0  0  0  0
 16 15  1  0  0  0  0
 17 16  2  0  0  0  0
 18 17  1  0  0  0  0
 19 18  1  0  0  0  0
 20 18  2  0  0  0  0
 20 21  1  0  0  0  0
 21 22  2  0  0  0  0
 22 16  1  0  0  0  0
 22 23  1  0  0  0  0
 23 12  2  0  0  0  0
 24  1  1  0  0  0  0
 25 34  1  0  0  0  0
 25 24  1  0  0  0  0
 26 25  2  0  0  0  0
 27 28  2  0  0  0  0
 27 26  1  0  0  0  0
 28 33  1  0  0  0  0
 29 30  2  0  0  0  0
 29 28  1  0  0  0  0
 30 31  1  0  0  0  0
 31 38  1  0  0  0  0
 31 32  2  0  0  0  0
 32 39  1  0  0  0  0
 33 32  1  0  0  0  0
 33 34  2  0  0  0  0
 34 40  1  0  0  0  0
 35 26  1  0  0  0  0
 36 27  1  0  0  0  0
 37 30  1  0  0  0  0
M  END
>  <minimizedAffinity>
-6.24057913

$$$$

 OpenBabel03242523353D

 40 44  0  0  0  0  0  0  0  0999 V2000
   36.4310   30.2500   38.6070 C   0  0  0  0  0  0  0  0  0  0  0  0
   37.0700   29.3940   38.2390 H   0  0  0  0  0  0  0  0  0  0  0  0
   35.7730   30.5130   37.7840 H   0  0  0  0  0  0  0  0  0  0  0  0
   37.9540   33.3370   40.0390 C   0  0  0  0  0  0  0  0  0  0  0  0
   39.2650   33.2410   39.5240 C   0  0  0  0  0  0  0  0  0  0  0  0
   39.5790   32.1450   38.7190 C   0  0  0  0  0  0  0  0  0  0  0  0
   38.6430   31.2060   38.4470 N   0  0  0  0  0  0  0  0  0  0  0  0
   37.3810   31.3270   38.9620 C   0  0  0  0  0  0  0  0  0  0  0  0
   37.0660   32.3730   39.7350 N   0  0  0  0  0  0  0  0  0  0  0  0
   37.6960   34.1870   40.6680 H   0  0  0  0  0  0  0  0  0  0  0  0
   40.0040   33.9820   39.7380 H   0  0  0  0  0  0  0  0  0  0  0  0
   40.8980   31.9480   38.1370 C   0  0  0  0  0  0  0  0  0  0  0  0
   41.1410   30.7880   37.4340 C   0  0  0  0  0  0  0  0  0  0  0  0
   40.4030   29.9970   37.2840 H   0  0  0  0  0  0  0  0  0  0  0  0
   42.3630   30.5070   36.8420 C   0  0  0  0  0  3  0  0  0  0  0  0
   43.4020   31.4360   36.9570 C   0  0  0  0  0  0  0  0  0  0  0  0
   44.5950   31.1700   36.3850 N   0  0  0  0  0  0  0  0  0  0  0  0
   45.6150   32.0450   36.4780 C   0  0  0  0  0  0  0  0  0  0  0  0
   46.5230   31.7440   35.9890 H   0  0  0  0  0  0  0  0  0  0  0  0
   45.4530   33.2480   37.1730 C   0  0  0  0  0  3  0  0  0  0  0  0
   44.2110   33.5090   37.7610 C   0  0  0  0  0  3  0  0  0  0  0  0
   43.1680   32.5970   37.6570 C   0  0  0  0  0  0  0  0  0  0  0  0
   41.9390   32.8450   38.2340 C   0  0  0  0  0  3  0  0  0  0  0  0
   35.5940   29.7380   40.1220 S   0  0  0  0  0  0  0  0  0  0  0  0
   36.2200   28.1710   40.6870 C   0  0  0  0  0  0  0  0  0  0  0  0
   36.5430   28.0580   42.0210 C   0  0  0  0  0  0  0  0  0  0  0  0
   37.0260   26.8560   42.4680 C   0  0  0  0  0  0  0  0  0  0  0  0
   37.1960   25.7600   41.6090 C   0  0  0  0  0  0  0  0  0  0  0  0
   37.6740   24.6000   42.0970 N   0  0  0  0  0  0  0  0  0  0  0  0
   37.8450   23.5340   41.2950 C   0  0  0  0  0  0  0  0  0  0  0  0
   37.5230   23.6420   39.9590 C   0  0  0  0  0  0  0  0  0  0  0  0
   37.0330   24.8360   39.4660 C   0  0  0  0  0  0  0  0  0  0  0  0
   36.8510   25.9530   40.2890 C   0  0  0  0  0  0  0  0  0  0  0  0
   36.3630   27.1360   39.7970 C   0  0  0  0  0  0  0  0  0  0  0  0
   36.4660   28.8110   42.7880 H   0  0  0  0  0  0  0  0  0  0  0  0
   37.3070   26.6820   43.5110 H   0  0  0  0  0  0  0  0  0  0  0  0
   38.2310   22.5890   41.6770 H   0  0  0  0  0  0  0  0  0  0  0  0
   37.6710   22.7680   39.3380 H   0  0  0  0  0  0  0  0  0  0  0  0
   36.7790   24.9290   38.4200 H   0  0  0  0  0  0  0  0  0  0  0  0
   36.1050   27.2430   38.7550 H   0  0  0  0  0  0  0  0  0  0  0  0
  1  8  1  0  0  0  0
  1 24  1  0  0  0  0
  2  1  1  0  0  0  0
  3  1  1  0  0  0  0
  4 10  1  0  0  0  0
  5 11  1  0  0  0  0
  5  4  2  0  0  0  0
  6  5  1  0  0  0  0
  7  6  2  0  0  0  0
  7  8  1  0  0  0  0
  8  9  2  0  0  0  0
  9  4  1  0  0  0  0
 12 23  1  0  0  0  0
 12  6  1  0  0  0  0
 13 12  2  0  0  0  0
 14 13  1  0  0  0  0
 15 16  2  0  0  0  0
 15 13  1  0  0  0  0
 16 22  1  0  0  0  0
 17 18  2  0  0  0  0
 17 16  1  0  0  0  0
 18 20  1  0  0  0  0
 19 18  1  0  0  0  0
 20 21  2  0  0  0  0
 22 21  1  0  0  0  0
 22 23  2  0  0  0  0
 24 25  1  0  0  0  0
 25 26  1  0  0  0  0
 26 27  2  0  0  0  0
 26 35  1  0  0  0  0
 27 36  1  0  0  0  0
 28 29  1  0  0  0  0
 28 27  1  0  0  0  0
 30 37  1  0  0  0  0
 30 29  2  0  0  0  0
 31 30  1  0  0  0  0
 32 31  2  0  0  0  0
 32 33  1  0  0  0  0
 33 28  2  0  0  0  0
 34 33  1  0  0  0  0
 34 25  2  0  0  0  0
 38 31  1  0  0  0  0
 39 32  1  0  0  0  0
 40 34  1  0  0  0  0
M  END
>  <minimizedAffinity>
-6.20986891

$$$$
