
 OpenBabel03252507273D

 30 33  0  0  0  0  0  0  0  0999 V2000
   45.5910   34.2680   45.1220 C   0  0  0  0  0  0  0  0  0  0  0  0
   44.6400   35.2780   45.2630 C   0  0  0  0  0  0  0  0  0  0  0  0
   44.3980   36.1160   44.1500 C   0  0  0  0  0  0  0  0  0  0  0  0
   45.1070   35.8960   42.9860 N   0  0  0  0  0  0  0  0  0  0  0  0
   46.0170   34.8950   42.9190 C   0  0  0  0  0  0  0  0  0  0  0  0
   46.2470   34.1080   43.9600 N   0  0  0  0  0  0  0  0  0  0  0  0
   44.0890   35.4560   46.1500 H   0  0  0  0  0  0  0  0  0  0  0  0
   43.6810   36.9040   44.2040 H   0  0  0  0  0  0  0  0  0  0  0  0
   45.8800   33.3760   46.2380 C   0  0  0  0  0  0  0  0  0  0  0  0
   45.2170   33.3570   47.4320 C   0  0  0  0  0  0  0  0  0  0  0  0
   44.4060   34.0520   47.5860 H   0  0  0  0  0  0  0  0  0  0  0  0
   45.5520   32.4750   48.4480 C   0  0  0  0  0  0  0  0  0  0  0  0
   46.5820   31.5710   48.2930 C   0  0  0  0  0  0  0  0  0  0  0  0
   46.9430   30.6960   49.2530 N   0  0  0  0  0  0  0  0  0  0  0  0
   47.9640   29.8200   49.0610 C   0  0  0  0  0  0  0  0  0  0  0  0
   48.2750   29.1070   49.8130 H   0  0  0  0  0  0  0  0  0  0  0  0
   48.6770   29.7930   47.8610 C   0  0  0  0  0  0  0  0  0  0  0  0
   48.3320   30.6770   46.8600 C   0  0  0  0  0  0  0  0  0  0  0  0
   47.2750   31.5550   47.1100 C   0  0  0  0  0  0  0  0  0  0  0  0
   46.9000   32.4510   46.1360 C   0  0  0  0  0  0  0  0  0  0  0  0
   46.7400   34.6910   41.6780 C   0  0  0  0  0  0  0  0  0  0  0  0
   47.9550   35.2810   41.4610 C   0  0  0  0  0  0  0  0  0  0  0  0
   48.7190   35.1560   40.3200 C   0  0  0  0  0  0  0  0  0  0  0  0
   48.1460   34.3470   39.3480 C   0  0  0  0  0  0  0  0  0  0  0  0
   46.9180   33.7310   39.5290 C   0  0  0  0  0  0  0  0  0  0  0  0
   46.2180   33.9070   40.7000 N   0  0  0  0  0  0  0  0  0  0  0  0
   48.3440   35.9020   42.2650 H   0  0  0  0  0  0  0  0  0  0  0  0
   49.6650   35.6540   40.2300 H   0  0  0  0  0  0  0  0  0  0  0  0
   48.6870   34.1990   38.4200 H   0  0  0  0  0  0  0  0  0  0  0  0
   46.5070   33.1070   38.7450 H   0  0  0  0  0  0  0  0  0  0  0  0
  1  2  1  0  0  0  0
  1  9  1  0  0  0  0
  2  7  1  0  0  0  0
  3  8  1  0  0  0  0
  3  2  2  0  0  0  0
  4  3  1  0  0  0  0
  5  4  2  0  0  0  0
  5  6  1  0  0  0  0
  6  1  2  0  0  0  0
  9 10  1  0  0  0  0
 10 11  1  0  0  0  0
 10 12  2  0  0  0  0
 13 12  1  0  0  0  0
 13 14  1  0  0  0  0
 15 14  2  0  0  0  0
 15 16  1  0  0  0  0
 17 15  1  0  0  0  0
 18 19  1  0  0  0  0
 18 17  2  0  0  0  0
 19 13  2  0  0  0  0
 20  9  2  0  0  0  0
 20 19  1  0  0  0  0
 21  5  1  0  0  0  0
 22 21  1  0  0  0  0
 22 27  1  0  0  0  0
 23 22  2  0  0  0  0
 24 25  2  0  0  0  0
 24 23  1  0  0  0  0
 25 26  1  0  0  0  0
 26 21  2  0  0  0  0
 28 23  1  0  0  0  0
 29 24  1  0  0  0  0
 30 25  1  0  0  0  0
M  END
>  <minimizedAffinity>
-5.86689425

>  <minimizedRMSD>
0.576185167

$$$$
