
 OpenBabel03242520323D

 28 31  0  0  1  0  0  0  0  0999 V2000
   47.3470   34.4920   42.1080 C   0  0  1  0  0  0  0  0  0  0  0  0
   48.2380   35.5400   41.6130 C   0  0  0  0  0  0  0  0  0  0  0  0
   48.8180   34.4470   42.4530 C   0  0  2  0  0  0  0  0  0  0  0  0
   46.9750   33.7300   41.3760 H   0  0  0  0  0  0  0  0  0  0  0  0
   48.5810   35.5590   40.5390 H   0  0  0  0  0  0  0  0  0  0  0  0
   48.2930   36.5480   42.0730 H   0  0  0  0  0  0  0  0  0  0  0  0
   49.0350   34.6270   43.5260 H   0  0  0  0  0  0  0  0  0  0  0  0
   49.5990   33.3990   41.7430 C   0  0  0  0  0  0  0  0  0  0  0  0
   50.8210   32.9100   42.1730 C   0  0  0  0  0  0  0  0  0  0  0  0
   51.2210   33.3350   43.1010 H   0  0  0  0  0  0  0  0  0  0  0  0
   51.5000   31.9380   41.4720 C   0  0  0  0  0  0  0  0  0  0  0  0
   50.9540   31.4310   40.3020 C   0  0  0  0  0  0  0  0  0  0  0  0
   51.5750   30.4710   39.5650 N   0  0  0  0  0  0  0  0  0  0  0  0
   51.0360   29.9880   38.4360 C   0  0  0  0  0  0  0  0  0  0  0  0
   51.5540   29.2230   37.8690 H   0  0  0  0  0  0  0  0  0  0  0  0
   49.8120   30.4230   37.9280 C   0  0  0  0  0  0  0  0  0  0  0  0
   49.1550   31.3980   38.6540 C   0  0  0  0  0  0  0  0  0  0  0  0
   49.7320   31.8840   39.8230 C   0  0  0  0  0  0  0  0  0  0  0  0
   49.0940   32.8630   40.5710 C   0  0  0  0  0  0  0  0  0  0  0  0
   45.5680   35.9340   43.1710 C   0  0  0  0  0  0  0  0  0  0  0  0
   46.3880   34.7770   43.1960 C   0  0  0  0  0  0  0  0  0  0  0  0
   46.2550   33.9300   44.2950 C   0  0  0  0  0  0  0  0  0  0  0  0
   45.3600   34.2530   45.2720 N   0  0  0  0  0  0  0  0  0  0  0  0
   44.5920   35.3660   45.2180 C   0  0  0  0  0  0  0  0  0  0  0  0
   44.6990   36.2130   44.1560 N   0  0  0  0  0  0  0  0  0  0  0  0
   45.6440   36.6140   42.3330 H   0  0  0  0  0  0  0  0  0  0  0  0
   46.8610   33.0360   44.3560 H   0  0  0  0  0  0  0  0  0  0  0  0
   43.9560   35.4310   46.0870 H   0  0  0  0  0  0  0  0  0  0  0  0
  1  4  1  6  0  0  0
  1  3  1  0  0  0  0
  1 21  1  0  0  0  0
  2  6  1  0  0  0  0
  2  1  1  0  0  0  0
  2  3  1  0  0  0  0
  3  7  1  1  0  0  0
  5  2  1  0  0  0  0
  8  9  1  0  0  0  0
  8  3  1  0  0  0  0
  9 10  1  0  0  0  0
 11  9  2  0  0  0  0
 12 11  1  0  0  0  0
 13 12  2  0  0  0  0
 14 13  1  0  0  0  0
 15 14  1  0  0  0  0
 16 14  2  0  0  0  0
 16 17  1  0  0  0  0
 17 18  2  0  0  0  0
 18 12  1  0  0  0  0
 18 19  1  0  0  0  0
 19  8  2  0  0  0  0
 20 21  2  0  0  0  0
 20 25  1  0  0  0  0
 21 22  1  0  0  0  0
 22 27  1  0  0  0  0
 22 23  2  0  0  0  0
 24 23  1  0  0  0  0
 24 28  1  0  0  0  0
 25 24  2  0  0  0  0
 26 20  1  0  0  0  0
M  END
>  <minimizedAffinity>
-5.26064777

>  <minimizedRMSD>
2.11079311

$$$$
