
     RDKit          3D

 48 52  0  0  0  0  0  0  0  0999 V2000
   45.2781   35.2761   43.1378 Cl  0  0  0  0  0  0  0  0  0  0  0  0
   45.1559   34.5280   41.5670 C   0  0  0  0  0  0  0  0  0  0  0  0
   46.2616   34.1421   40.8804 C   0  0  0  0  0  0  0  0  0  0  0  0
   46.0741   33.5620   39.6378 C   0  0  0  0  0  0  0  0  0  0  0  0
   44.8250   33.3787   39.1035 C   0  0  0  0  0  0  0  0  0  0  0  0
   43.7225   33.7683   39.7992 C   0  0  0  0  0  0  0  0  0  0  0  0
   43.8995   34.3469   41.0417 C   0  0  0  0  0  0  0  0  0  0  0  0
   49.5377   35.7502   41.8935 C   0  0  0  0  0  0  0  0  0  0  0  0
   48.2780   35.5469   41.3211 C   0  0  0  0  0  0  0  0  0  0  0  0
   47.5755   34.3628   41.4686 C   0  0  0  0  0  0  0  0  0  0  0  0
   48.2201   33.4542   42.2025 N   0  0  0  0  0  0  0  0  0  0  0  0
   49.4189   33.6207   42.7595 C   0  0  0  0  0  0  0  0  0  0  0  0
   50.0755   34.7643   42.6057 N   0  0  0  0  0  0  0  0  0  0  0  0
   47.7888   31.8702   38.9876 C   0  0  0  0  0  0  0  0  0  0  0  0
   47.2340   33.1118   38.8761 C   0  0  0  0  0  0  0  0  0  0  0  0
   47.7721   34.0286   37.9880 C   0  0  0  0  0  0  0  0  0  0  0  0
   48.8610   33.6946   37.2185 C   0  0  0  0  0  0  0  0  0  0  0  0
   49.4576   32.4381   37.3006 C   0  0  0  0  0  0  0  0  0  0  0  0
   48.8950   31.5315   38.2051 C   0  0  0  0  0  0  0  0  0  0  0  0
   47.1832   30.7195   40.0612 S   0  0  0  0  0  0  0  0  0  0  0  0
   46.7957   29.4380   39.2937 O   0  0  0  0  0  0  0  0  0  0  0  0
   48.3931   30.2705   40.9030 O   0  0  0  0  0  0  0  0  0  0  0  0
   44.7033   32.9253   38.1293 H   0  0  0  0  0  0  0  0  0  0  0  0
   42.7563   33.6134   39.3606 H   0  0  0  0  0  0  0  0  0  0  0  0
   42.9922   34.6392   41.5564 H   0  0  0  0  0  0  0  0  0  0  0  0
   50.0419   36.6785   41.7533 H   0  0  0  0  0  0  0  0  0  0  0  0
   47.8409   36.3625   40.7361 H   0  0  0  0  0  0  0  0  0  0  0  0
   49.7198   32.7286   43.3065 H   0  0  0  0  0  0  0  0  0  0  0  0
   47.3486   35.0198   37.8830 H   0  0  0  0  0  0  0  0  0  0  0  0
   49.3385   34.3364   36.5111 H   0  0  0  0  0  0  0  0  0  0  0  0
   50.3000   32.1027   36.7410 H   0  0  0  0  0  0  0  0  0  0  0  0
   49.3391   30.5400   38.2927 H   0  0  0  0  0  0  0  0  0  0  0  0
   45.8396   30.9171   41.0885 C   0  0  0  0  0  0  0  0  0  0  0  0
   45.6932   30.7450   42.4593 C   0  0  0  0  0  0  0  0  0  0  0  0
   46.5859   30.4355   42.9773 H   0  0  0  0  0  0  0  0  0  0  0  0
   44.5714   30.8778   43.2193 C   0  0  0  0  0  0  0  0  0  0  0  0
   43.4279   31.2259   42.5531 C   0  0  0  0  0  0  0  0  0  0  0  0
   42.2903   31.3702   43.2606 N   0  0  0  0  0  0  0  0  0  0  0  0
   41.1236   31.7159   42.6457 C   0  0  0  0  0  0  0  0  0  0  0  0
   40.2295   31.8224   43.2494 H   0  0  0  0  0  0  0  0  0  0  0  0
   41.0985   31.9246   41.2670 C   0  0  0  0  0  0  0  0  0  0  0  0
   42.2434   31.7907   40.4778 C   0  0  0  0  0  0  0  0  0  0  0  0
   43.3547   31.4400   41.2090 C   0  0  0  0  0  0  0  0  0  0  0  0
   44.5636   31.2721   40.5634 C   0  0  0  0  0  0  0  0  0  0  0  0
   44.6045   30.7130   44.2857 H   0  0  0  0  0  0  0  0  0  0  0  0
   40.1631   32.2009   40.7794 H   0  0  0  0  0  0  0  0  0  0  0  0
   42.2689   31.9410   39.4198 H   0  0  0  0  0  0  0  0  0  0  0  0
   44.5549   31.4355   39.4669 H   0  0  0  0  0  0  0  0  0  0  0  0
  2  1  1  0
  3 10  1  0
  3  2  2  0
  4  3  1  0
  5  4  2  0
  5  6  1  0
  6  7  2  0
  7  2  1  0
  8 13  2  0
  9 10  2  0
  9  8  1  0
 10 11  1  0
 11 12  2  0
 13 12  1  0
 14 20  1  0
 15 14  1  0
 15  4  1  0
 16 15  2  0
 17 18  2  0
 17 16  1  0
 18 19  1  0
 19 14  2  0
 20 22  2  0
 21 20  2  0
  5 23  1  0
  6 24  1  0
  7 25  1  0
  8 26  1  0
  9 27  1  0
 12 28  1  0
 16 29  1  0
 17 30  1  0
 18 31  1  0
 19 32  1  0
 33 34  2  0
 34 35  1  0
 34 36  1  0
 36 37  2  0
 37 38  1  0
 38 39  2  0
 39 40  1  0
 39 41  1  0
 41 42  2  0
 42 43  1  0
 43 44  2  0
 44 33  1  0
 43 37  1  0
 36 45  1  0
 41 46  1  0
 42 47  1  0
 44 48  1  0
 20 33  1  0
M  ISO  8  23  14  24  14  25  14  26  14  27  14  28  14  29  14  30  14
M  ISO  4  31  14  32  14  35  16  40  16
M  END
>  <DihAtoms>  (1) 
13,19,32,33

>  <DihDeg>  (1) 
-96.53268435755473

$$$$
