
 OpenBabel03242513253D

 48 52  0  0  1  0  0  0  0  0999 V2000
   36.3330   30.7780   40.9140 C   0  0  0  0  0  0  0  0  0  0  0  0
   36.2870   31.4130   41.8090 H   0  0  0  0  0  0  0  0  0  0  0  0
   35.2740   30.4940   40.6430 H   0  0  0  0  0  0  0  0  0  0  0  0
   36.8920   31.5050   39.7400 C   0  0  2  0  0  0  0  0  0  0  0  0
   36.7490   30.7430   38.4380 C   0  0  0  0  0  0  0  0  0  0  0  0
   37.7630   31.5500   37.6230 C   0  0  0  0  0  0  0  0  0  0  0  0
   38.8080   31.7630   38.4740 O   0  0  0  0  0  0  0  0  0  0  0  0
   38.3750   31.6670   39.7650 C   0  0  1  0  0  0  0  0  0  0  0  0
   36.3280   32.4350   39.6290 H   0  0  0  0  0  0  0  0  0  0  0  0
   35.7420   30.8120   38.0100 H   0  0  0  0  0  0  0  0  0  0  0  0
   37.1130   29.7100   38.5650 H   0  0  0  0  0  0  0  0  0  0  0  0
   38.0690   30.8920   36.7650 H   0  0  0  0  0  0  0  0  0  0  0  0
   37.2420   32.4580   37.2660 H   0  0  0  0  0  0  0  0  0  0  0  0
   38.8550   30.8010   40.2460 H   0  0  0  0  0  0  0  0  0  0  0  0
   38.7850   32.9060   40.5120 C   0  0  1  0  0  0  0  0  0  0  0  0
   40.1810   33.3580   40.1300 C   0  0  0  0  0  0  0  0  0  0  0  0
   40.0130   34.8520   40.0020 C   0  0  0  0  0  0  0  0  0  0  0  0
   38.7680   35.1560   40.5580 O   0  0  0  0  0  0  0  0  0  0  0  0
   37.9820   34.1250   40.0390 C   0  0  0  0  0  0  0  0  0  0  0  0
   38.6420   32.8210   41.5970 H   0  0  0  0  0  0  0  0  0  0  0  0
   40.5260   32.8830   39.2020 H   0  0  0  0  0  0  0  0  0  0  0  0
   40.8580   33.0740   40.9770 H   0  0  0  0  0  0  0  0  0  0  0  0
   40.8390   35.3370   40.5490 H   0  0  0  0  0  0  0  0  0  0  0  0
   40.0460   35.1010   38.9150 H   0  0  0  0  0  0  0  0  0  0  0  0
   38.0900   34.2370   38.9330 H   0  0  0  0  0  0  0  0  0  0  0  0
   36.9530   34.1260   40.3940 H   0  0  0  0  0  0  0  0  0  0  0  0
   37.4310   29.1950   42.4150 C   0  0  0  0  0  3  0  0  0  0  0  0
   37.0230   29.5030   41.2070 C   0  0  0  0  0  3  0  0  0  0  0  0
   39.6720   26.6670   43.8110 C   0  0  0  0  0  0  0  0  0  0  0  0
   39.3100   25.5060   43.0720 C   0  0  0  0  0  0  0  0  0  0  0  0
   38.3070   25.6530   42.1220 C   0  0  0  0  0  0  0  0  0  0  0  0
   37.7320   26.8620   41.9500 N   0  0  0  0  0  0  0  0  0  0  0  0
   38.1000   27.9480   42.6700 C   0  0  0  0  0  0  0  0  0  0  0  0
   39.0560   27.8550   43.5890 N   0  0  0  0  0  0  0  0  0  0  0  0
   40.4530   26.5520   44.5490 H   0  0  0  0  0  0  0  0  0  0  0  0
   39.7710   24.5550   43.2170 H   0  0  0  0  0  0  0  0  0  0  0  0
   37.8300   24.5610   41.2910 C   0  0  0  0  0  0  0  0  0  0  0  0
   38.6990   23.5530   40.9640 C   0  0  0  0  0  0  0  0  0  0  0  0
   39.7320   23.5320   41.2980 H   0  0  0  0  0  0  0  0  0  0  0  0
   38.3510   22.4670   40.1790 C   0  0  0  0  0  3  0  0  0  0  0  0
   37.0420   22.4140   39.7070 C   0  0  0  0  0  0  0  0  0  0  0  0
   36.6750   21.3550   38.9330 N   0  0  0  0  0  0  0  0  0  0  0  0
   35.4110   21.2760   38.4590 C   0  0  0  0  0  0  0  0  0  0  0  0
   35.0570   20.4570   37.8370 H   0  0  0  0  0  0  0  0  0  0  0  0
   34.4710   22.2470   38.7400 C   0  0  0  0  0  3  0  0  0  0  0  0
   34.8650   23.3110   39.5270 C   0  0  0  0  0  3  0  0  0  0  0  0
   36.1520   23.4110   40.0200 C   0  0  0  0  0  0  0  0  0  0  0  0
   36.5500   24.4560   40.7960 C   0  0  0  0  0  3  0  0  0  0  0  0
  1 28  1  0  0  0  0
  1  2  1  0  0  0  0
  3  1  1  0  0  0  0
  4  9  1  6  0  0  0
  4  8  1  0  0  0  0
  4  1  1  0  0  0  0
  5 11  1  0  0  0  0
  5  4  1  0  0  0  0
  6  5  1  0  0  0  0
  6  7  1  0  0  0  0
  7  8  1  0  0  0  0
  8 14  1  1  0  0  0
  8 15  1  0  0  0  0
 10  5  1  0  0  0  0
 12  6  1  0  0  0  0
 13  6  1  0  0  0  0
 15 20  1  1  0  0  0
 16 15  1  0  0  0  0
 16 22  1  0  0  0  0
 17 16  1  0  0  0  0
 17 23  1  0  0  0  0
 17 18  1  0  0  0  0
 19 26  1  0  0  0  0
 19 15  1  0  0  0  0
 19 18  1  0  0  0  0
 21 16  1  0  0  0  0
 24 17  1  0  0  0  0
 25 19  1  0  0  0  0
 27 33  1  0  0  0  0
 28 27  2  0  0  0  0
 29 35  1  0  0  0  0
 30 36  1  0  0  0  0
 30 29  2  0  0  0  0
 31 30  1  0  0  0  0
 32 31  2  0  0  0  0
 32 33  1  0  0  0  0
 33 34  2  0  0  0  0
 34 29  1  0  0  0  0
 37 31  1  0  0  0  0
 38 37  1  0  0  0  0
 38 39  1  0  0  0  0
 40 38  2  0  0  0  0
 41 47  1  0  0  0  0
 41 40  1  0  0  0  0
 42 41  2  0  0  0  0
 43 45  2  0  0  0  0
 43 42  1  0  0  0  0
 44 43  1  0  0  0  0
 45 46  1  0  0  0  0
 46 47  2  0  0  0  0
 47 48  1  0  0  0  0
 48 37  2  0  0  0  0
M  END
>  <minimizedAffinity>
-6.8900857

$$$$

 OpenBabel03242513253D

 48 52  0  0  1  0  0  0  0  0999 V2000
   36.3460   30.1520   39.0120 C   0  0  0  0  0  0  0  0  0  0  0  0
   35.7940   30.1160   38.0630 H   0  0  0  0  0  0  0  0  0  0  0  0
   35.6200   30.4630   39.8180 H   0  0  0  0  0  0  0  0  0  0  0  0
   36.8700   28.8130   39.4060 C   0  0  2  0  0  0  0  0  0  0  0  0
   36.5840   27.7310   38.3850 C   0  0  0  0  0  0  0  0  0  0  0  0
   36.8560   26.5270   39.2890 C   0  0  0  0  0  0  0  0  0  0  0  0
   36.2940   26.8550   40.4900 O   0  0  0  0  0  0  0  0  0  0  0  0
   36.1940   28.2130   40.5930 C   0  0  1  0  0  0  0  0  0  0  0  0
   37.9580   28.8960   39.4880 H   0  0  0  0  0  0  0  0  0  0  0  0
   37.2710   27.7570   37.5310 H   0  0  0  0  0  0  0  0  0  0  0  0
   35.5180   27.7520   38.1040 H   0  0  0  0  0  0  0  0  0  0  0  0
   36.3230   25.6570   38.8190 H   0  0  0  0  0  0  0  0  0  0  0  0
   37.9510   26.3690   39.2990 H   0  0  0  0  0  0  0  0  0  0  0  0
   35.1320   28.4970   40.6240 H   0  0  0  0  0  0  0  0  0  0  0  0
   36.8350   28.6540   41.8800 C   0  0  1  0  0  0  0  0  0  0  0  0
   36.6620   27.6230   42.9780 C   0  0  0  0  0  0  0  0  0  0  0  0
   38.0290   27.5980   43.6160 C   0  0  0  0  0  0  0  0  0  0  0  0
   38.7180   28.7040   43.1130 O   0  0  0  0  0  0  0  0  0  0  0  0
   38.3650   28.6480   41.7620 C   0  0  0  0  0  0  0  0  0  0  0  0
   36.5340   29.6640   42.1850 H   0  0  0  0  0  0  0  0  0  0  0  0
   36.3560   26.6470   42.5790 H   0  0  0  0  0  0  0  0  0  0  0  0
   35.8730   28.0150   43.6700 H   0  0  0  0  0  0  0  0  0  0  0  0
   37.8970   27.6570   44.7090 H   0  0  0  0  0  0  0  0  0  0  0  0
   38.5200   26.6410   43.3180 H   0  0  0  0  0  0  0  0  0  0  0  0
   38.7120   27.6370   41.4360 H   0  0  0  0  0  0  0  0  0  0  0  0
   38.7530   29.4720   41.1650 H   0  0  0  0  0  0  0  0  0  0  0  0
   37.4700   32.1210   39.9160 C   0  0  0  0  0  3  0  0  0  0  0  0
   37.3810   31.2080   38.9800 C   0  0  0  0  0  3  0  0  0  0  0  0
   39.2590   35.2860   40.3080 C   0  0  0  0  0  0  0  0  0  0  0  0
   40.5080   35.0010   39.6900 C   0  0  0  0  0  0  0  0  0  0  0  0
   40.6740   33.7260   39.1650 C   0  0  0  0  0  0  0  0  0  0  0  0
   39.6650   32.8350   39.2640 N   0  0  0  0  0  0  0  0  0  0  0  0
   38.4870   33.1380   39.8590 C   0  0  0  0  0  0  0  0  0  0  0  0
   38.2830   34.3450   40.3750 N   0  0  0  0  0  0  0  0  0  0  0  0
   39.1300   36.2790   40.7160 H   0  0  0  0  0  0  0  0  0  0  0  0
   41.2990   35.7140   39.6180 H   0  0  0  0  0  0  0  0  0  0  0  0
   41.8910   33.2880   38.5050 C   0  0  0  0  0  0  0  0  0  0  0  0
   43.0540   33.9740   38.7400 C   0  0  0  0  0  0  0  0  0  0  0  0
   43.1080   34.8350   39.4000 H   0  0  0  0  0  0  0  0  0  0  0  0
   44.2680   33.6430   38.1650 C   0  0  0  0  0  3  0  0  0  0  0  0
   44.2900   32.5500   37.3040 C   0  0  0  0  0  0  0  0  0  0  0  0
   45.4740   32.2040   36.7250 N   0  0  0  0  0  0  0  0  0  0  0  0
   45.5260   31.1470   35.8840 C   0  0  0  0  0  0  0  0  0  0  0  0
   46.4390   30.8200   35.3910 H   0  0  0  0  0  0  0  0  0  0  0  0
   44.4030   30.3990   35.5910 C   0  0  0  0  0  3  0  0  0  0  0  0
   43.2150   30.7680   36.1890 C   0  0  0  0  0  3  0  0  0  0  0  0
   43.1400   31.8450   37.0510 C   0  0  0  0  0  0  0  0  0  0  0  0
   41.9720   32.2160   37.6450 C   0  0  0  0  0  3  0  0  0  0  0  0
  1  4  1  0  0  0  0
  1  3  1  0  0  0  0
  2  1  1  0  0  0  0
  4  9  1  1  0  0  0
  4  8  1  0  0  0  0
  5  6  1  0  0  0  0
  5  4  1  0  0  0  0
  6 13  1  0  0  0  0
  6  7  1  0  0  0  0
  7  8  1  0  0  0  0
  8 14  1  1  0  0  0
  8 15  1  0  0  0  0
 10  5  1  0  0  0  0
 11  5  1  0  0  0  0
 12  6  1  0  0  0  0
 15 20  1  1  0  0  0
 15 16  1  0  0  0  0
 16 17  1  0  0  0  0
 16 22  1  0  0  0  0
 17 23  1  0  0  0  0
 18 17  1  0  0  0  0
 19 15  1  0  0  0  0
 19 18  1  0  0  0  0
 21 16  1  0  0  0  0
 24 17  1  0  0  0  0
 25 19  1  0  0  0  0
 26 19  1  0  0  0  0
 28  1  1  0  0  0  0
 28 27  2  0  0  0  0
 29 34  1  0  0  0  0
 29 35  1  0  0  0  0
 30 29  2  0  0  0  0
 31 32  2  0  0  0  0
 31 30  1  0  0  0  0
 32 33  1  0  0  0  0
 33 27  1  0  0  0  0
 33 34  2  0  0  0  0
 36 30  1  0  0  0  0
 37 38  1  0  0  0  0
 37 31  1  0  0  0  0
 38 39  1  0  0  0  0
 40 38  2  0  0  0  0
 41 40  1  0  0  0  0
 42 41  2  0  0  0  0
 43 42  1  0  0  0  0
 44 43  1  0  0  0  0
 45 43  2  0  0  0  0
 45 46  1  0  0  0  0
 46 47  2  0  0  0  0
 47 41  1  0  0  0  0
 47 48  1  0  0  0  0
 48 37  2  0  0  0  0
M  END
>  <minimizedAffinity>
-6.62198019

$$$$

 OpenBabel03242513253D

 48 52  0  0  1  0  0  0  0  0999 V2000
   37.9710   28.1140   43.8980 C   0  0  0  0  0  0  0  0  0  0  0  0
   37.0100   28.0690   44.4290 H   0  0  0  0  0  0  0  0  0  0  0  0
   38.7060   28.6470   44.5690 H   0  0  0  0  0  0  0  0  0  0  0  0
   38.5340   26.7580   43.6440 C   0  0  2  0  0  0  0  0  0  0  0  0
   40.0160   26.6570   43.9420 C   0  0  0  0  0  0  0  0  0  0  0  0
   40.2830   25.3530   43.1870 C   0  0  0  0  0  0  0  0  0  0  0  0
   39.5650   25.4640   42.0310 O   0  0  0  0  0  0  0  0  0  0  0  0
   38.5470   26.3560   42.2070 C   0  0  1  0  0  0  0  0  0  0  0  0
   38.0250   26.0590   44.3140 H   0  0  0  0  0  0  0  0  0  0  0  0
   40.2310   26.5540   45.0120 H   0  0  0  0  0  0  0  0  0  0  0  0
   40.5540   27.4870   43.4540 H   0  0  0  0  0  0  0  0  0  0  0  0
   41.3870   25.3350   42.9760 H   0  0  0  0  0  0  0  0  0  0  0  0
   39.9890   24.5240   43.8580 H   0  0  0  0  0  0  0  0  0  0  0  0
   38.7130   27.2290   41.5580 H   0  0  0  0  0  0  0  0  0  0  0  0
   37.2520   25.7080   41.8000 C   0  0  1  0  0  0  0  0  0  0  0  0
   36.8510   26.0890   40.3890 C   0  0  0  0  0  0  0  0  0  0  0  0
   36.3880   24.7720   39.8180 C   0  0  0  0  0  0  0  0  0  0  0  0
   36.2680   23.8950   40.8990 O   0  0  0  0  0  0  0  0  0  0  0  0
   37.4290   24.1950   41.6170 C   0  0  0  0  0  0  0  0  0  0  0  0
   36.4480   25.8580   42.5320 H   0  0  0  0  0  0  0  0  0  0  0  0
   37.6880   26.5290   39.8300 H   0  0  0  0  0  0  0  0  0  0  0  0
   36.0190   26.8350   40.4780 H   0  0  0  0  0  0  0  0  0  0  0  0
   35.4210   24.9390   39.3140 H   0  0  0  0  0  0  0  0  0  0  0  0
   37.1660   24.4270   39.0970 H   0  0  0  0  0  0  0  0  0  0  0  0
   38.2530   24.0000   40.8880 H   0  0  0  0  0  0  0  0  0  0  0  0
   37.5230   23.6560   42.5590 H   0  0  0  0  0  0  0  0  0  0  0  0
   38.6170   30.0060   42.4970 C   0  0  0  0  0  3  0  0  0  0  0  0
   37.8630   28.9490   42.6830 C   0  0  0  0  0  3  0  0  0  0  0  0
   38.9250   32.7280   40.0760 C   0  0  0  0  0  0  0  0  0  0  0  0
   38.1800   32.2300   38.9700 C   0  0  0  0  0  0  0  0  0  0  0  0
   37.6050   30.9740   39.1150 C   0  0  0  0  0  0  0  0  0  0  0  0
   37.7760   30.2980   40.2710 N   0  0  0  0  0  0  0  0  0  0  0  0
   38.4910   30.8010   41.3050 C   0  0  0  0  0  0  0  0  0  0  0  0
   39.0590   31.9990   41.2120 N   0  0  0  0  0  0  0  0  0  0  0  0
   39.3720   33.7060   39.9630 H   0  0  0  0  0  0  0  0  0  0  0  0
   38.0520   32.7730   38.0610 H   0  0  0  0  0  0  0  0  0  0  0  0
   36.8170   30.3340   38.0760 C   0  0  0  0  0  0  0  0  0  0  0  0
   37.2400   30.4260   36.7750 C   0  0  0  0  0  0  0  0  0  0  0  0
   38.1410   30.9590   36.4840 H   0  0  0  0  0  0  0  0  0  0  0  0
   36.5670   29.8560   35.7090 C   0  0  0  0  0  3  0  0  0  0  0  0
   35.4000   29.1530   35.9930 C   0  0  0  0  0  0  0  0  0  0  0  0
   34.7200   28.5810   34.9610 N   0  0  0  0  0  0  0  0  0  0  0  0
   33.5830   27.8930   35.2060 C   0  0  0  0  0  0  0  0  0  0  0  0
   32.9940   27.4140   34.4250 H   0  0  0  0  0  0  0  0  0  0  0  0
   33.0840   27.7490   36.4850 C   0  0  0  0  0  3  0  0  0  0  0  0
   33.7900   28.3360   37.5160 C   0  0  0  0  0  3  0  0  0  0  0  0
   34.9540   29.0450   37.2870 C   0  0  0  0  0  0  0  0  0  0  0  0
   35.6570   29.6270   38.2970 C   0  0  0  0  0  3  0  0  0  0  0  0
  1  2  1  0  0  0  0
  1  3  1  0  0  0  0
  4  1  1  0  0  0  0
  4  5  1  0  0  0  0
  4  9  1  1  0  0  0
  5 10  1  0  0  0  0
  6 13  1  0  0  0  0
  6  5  1  0  0  0  0
  7  8  1  0  0  0  0
  7  6  1  0  0  0  0
  8 14  1  6  0  0  0
  8  4  1  0  0  0  0
 11  5  1  0  0  0  0
 12  6  1  0  0  0  0
 15  8  1  0  0  0  0
 15 20  1  1  0  0  0
 16 22  1  0  0  0  0
 16 15  1  0  0  0  0
 17 16  1  0  0  0  0
 17 18  1  0  0  0  0
 18 19  1  0  0  0  0
 19 15  1  0  0  0  0
 19 26  1  0  0  0  0
 21 16  1  0  0  0  0
 23 17  1  0  0  0  0
 24 17  1  0  0  0  0
 25 19  1  0  0  0  0
 27 28  2  0  0  0  0
 28  1  1  0  0  0  0
 29 34  1  0  0  0  0
 30 31  1  0  0  0  0
 30 29  2  0  0  0  0
 31 32  2  0  0  0  0
 32 33  1  0  0  0  0
 33 27  1  0  0  0  0
 34 33  2  0  0  0  0
 35 29  1  0  0  0  0
 36 30  1  0  0  0  0
 37 48  1  0  0  0  0
 37 31  1  0  0  0  0
 38 37  2  0  0  0  0
 39 38  1  0  0  0  0
 40 41  2  0  0  0  0
 40 38  1  0  0  0  0
 41 47  1  0  0  0  0
 42 43  2  0  0  0  0
 42 41  1  0  0  0  0
 43 45  1  0  0  0  0
 44 43  1  0  0  0  0
 45 46  2  0  0  0  0
 47 46  1  0  0  0  0
 47 48  2  0  0  0  0
M  END
>  <minimizedAffinity>
-6.60457945

$$$$

 OpenBabel03242513253D

 48 52  0  0  1  0  0  0  0  0999 V2000
   38.6710   27.2820   43.8560 C   0  0  0  0  0  0  0  0  0  0  0  0
   37.7000   26.9580   44.2530 H   0  0  0  0  0  0  0  0  0  0  0  0
   39.1520   27.9470   44.6300 H   0  0  0  0  0  0  0  0  0  0  0  0
   39.6000   26.1360   43.6440 C   0  0  2  0  0  0  0  0  0  0  0  0
   41.0610   26.5370   43.6540 C   0  0  0  0  0  0  0  0  0  0  0  0
   41.6210   25.2690   43.0060 C   0  0  0  0  0  0  0  0  0  0  0  0
   40.7390   24.9650   42.0090 O   0  0  0  0  0  0  0  0  0  0  0  0
   39.5250   25.5260   42.2840 C   0  0  1  0  0  0  0  0  0  0  0  0
   39.4560   25.4370   44.4720 H   0  0  0  0  0  0  0  0  0  0  0  0
   41.4580   26.6820   44.6650 H   0  0  0  0  0  0  0  0  0  0  0  0
   41.2190   27.3980   42.9830 H   0  0  0  0  0  0  0  0  0  0  0  0
   42.6240   25.5490   42.5860 H   0  0  0  0  0  0  0  0  0  0  0  0
   41.7190   24.5120   43.8070 H   0  0  0  0  0  0  0  0  0  0  0  0
   39.2970   26.2890   41.5250 H   0  0  0  0  0  0  0  0  0  0  0  0
   38.4670   24.4600   42.2120 C   0  0  1  0  0  0  0  0  0  0  0  0
   37.1160   25.0320   41.8270 C   0  0  0  0  0  0  0  0  0  0  0  0
   36.6100   24.0220   40.8280 C   0  0  0  0  0  0  0  0  0  0  0  0
   37.4530   22.9120   40.9290 O   0  0  0  0  0  0  0  0  0  0  0  0
   38.7020   23.5320   41.0130 C   0  0  0  0  0  0  0  0  0  0  0  0
   38.4280   23.8310   43.1100 H   0  0  0  0  0  0  0  0  0  0  0  0
   37.2040   26.0440   41.4080 H   0  0  0  0  0  0  0  0  0  0  0  0
   36.4970   25.0600   42.7610 H   0  0  0  0  0  0  0  0  0  0  0  0
   35.5680   23.7730   41.0920 H   0  0  0  0  0  0  0  0  0  0  0  0
   36.6710   24.4900   39.8170 H   0  0  0  0  0  0  0  0  0  0  0  0
   38.7640   24.1380   40.0770 H   0  0  0  0  0  0  0  0  0  0  0  0
   39.5330   22.8430   41.1600 H   0  0  0  0  0  0  0  0  0  0  0  0
   37.8800   29.2890   42.7120 C   0  0  0  0  0  3  0  0  0  0  0  0
   38.4930   28.1310   42.6580 C   0  0  0  0  0  3  0  0  0  0  0  0
   36.4800   31.5340   40.1890 C   0  0  0  0  0  0  0  0  0  0  0  0
   37.5320   31.6010   39.2330 C   0  0  0  0  0  0  0  0  0  0  0  0
   38.6780   30.8650   39.5060 C   0  0  0  0  0  0  0  0  0  0  0  0
   38.7400   30.1370   40.6410 N   0  0  0  0  0  0  0  0  0  0  0  0
   37.7210   30.0940   41.5310 C   0  0  0  0  0  0  0  0  0  0  0  0
   36.6050   30.7820   41.3120 N   0  0  0  0  0  0  0  0  0  0  0  0
   35.5890   32.1070   39.9760 H   0  0  0  0  0  0  0  0  0  0  0  0
   37.4720   32.1810   38.3390 H   0  0  0  0  0  0  0  0  0  0  0  0
   39.8330   30.8330   38.6260 C   0  0  0  0  0  0  0  0  0  0  0  0
   40.4490   32.0140   38.3020 C   0  0  0  0  0  0  0  0  0  0  0  0
   40.1120   32.9770   38.6740 H   0  0  0  0  0  0  0  0  0  0  0  0
   41.5550   32.0990   37.4740 C   0  0  0  0  0  3  0  0  0  0  0  0
   42.0540   30.9090   36.9520 C   0  0  0  0  0  0  0  0  0  0  0  0
   43.1420   30.9660   36.1340 N   0  0  0  0  0  0  0  0  0  0  0  0
   43.6490   29.8270   35.6120 C   0  0  0  0  0  0  0  0  0  0  0  0
   44.5150   29.8060   34.9530 H   0  0  0  0  0  0  0  0  0  0  0  0
   43.0920   28.5940   35.8850 C   0  0  0  0  0  3  0  0  0  0  0  0
   41.9900   28.5600   36.7170 C   0  0  0  0  0  3  0  0  0  0  0  0
   41.4560   29.7120   37.2600 C   0  0  0  0  0  0  0  0  0  0  0  0
   40.3700   29.6880   38.0810 C   0  0  0  0  0  3  0  0  0  0  0  0
  1  2  1  0  0  0  0
  1  3  1  0  0  0  0
  4  5  1  0  0  0  0
  4  1  1  0  0  0  0
  4  9  1  1  0  0  0
  5 10  1  0  0  0  0
  6  5  1  0  0  0  0
  6 13  1  0  0  0  0
  7  8  1  0  0  0  0
  7  6  1  0  0  0  0
  8 14  1  6  0  0  0
  8  4  1  0  0  0  0
 11  5  1  0  0  0  0
 12  6  1  0  0  0  0
 15  8  1  0  0  0  0
 15 20  1  1  0  0  0
 16 15  1  0  0  0  0
 16 22  1  0  0  0  0
 17 18  1  0  0  0  0
 17 23  1  0  0  0  0
 17 16  1  0  0  0  0
 18 19  1  0  0  0  0
 19 26  1  0  0  0  0
 19 15  1  0  0  0  0
 21 16  1  0  0  0  0
 24 17  1  0  0  0  0
 25 19  1  0  0  0  0
 28 27  2  0  0  0  0
 28  1  1  0  0  0  0
 29 34  1  0  0  0  0
 30 31  1  0  0  0  0
 30 29  2  0  0  0  0
 31 32  2  0  0  0  0
 32 33  1  0  0  0  0
 33 27  1  0  0  0  0
 34 33  2  0  0  0  0
 35 29  1  0  0  0  0
 36 30  1  0  0  0  0
 37 31  1  0  0  0  0
 38 37  1  0  0  0  0
 38 39  1  0  0  0  0
 40 38  2  0  0  0  0
 41 47  1  0  0  0  0
 41 40  1  0  0  0  0
 42 41  2  0  0  0  0
 43 45  2  0  0  0  0
 43 42  1  0  0  0  0
 44 43  1  0  0  0  0
 45 46  1  0  0  0  0
 46 47  2  0  0  0  0
 47 48  1  0  0  0  0
 48 37  2  0  0  0  0
M  END
>  <minimizedAffinity>
-6.39604807

$$$$

 OpenBabel03242513253D

 48 52  0  0  1  0  0  0  0  0999 V2000
   35.4210   29.1360   40.3080 C   0  0  0  0  0  0  0  0  0  0  0  0
   35.2150   29.7310   41.2090 H   0  0  0  0  0  0  0  0  0  0  0  0
   34.4430   28.6910   39.9630 H   0  0  0  0  0  0  0  0  0  0  0  0
   35.9250   29.9770   39.1850 C   0  0  2  0  0  0  0  0  0  0  0  0
   36.1570   29.1970   37.9080 C   0  0  0  0  0  0  0  0  0  0  0  0
   37.0270   30.2350   37.1950 C   0  0  0  0  0  0  0  0  0  0  0  0
   37.8600   30.7180   38.1630 O   0  0  0  0  0  0  0  0  0  0  0  0
   37.2990   30.5200   39.3920 C   0  0  1  0  0  0  0  0  0  0  0  0
   35.1600   30.7280   38.9670 H   0  0  0  0  0  0  0  0  0  0  0  0
   35.2320   28.9980   37.3540 H   0  0  0  0  0  0  0  0  0  0  0  0
   36.7540   28.2950   38.1220 H   0  0  0  0  0  0  0  0  0  0  0  0
   37.6030   29.6740   36.4110 H   0  0  0  0  0  0  0  0  0  0  0  0
   36.3420   30.9740   36.7390 H   0  0  0  0  0  0  0  0  0  0  0  0
   37.9180   29.8130   39.9640 H   0  0  0  0  0  0  0  0  0  0  0  0
   37.2740   31.8280   40.1340 C   0  0  1  0  0  0  0  0  0  0  0  0
   38.5700   32.0780   40.8790 C   0  0  0  0  0  0  0  0  0  0  0  0
   38.8320   33.5360   40.5920 C   0  0  0  0  0  0  0  0  0  0  0  0
   37.6560   34.0440   40.0360 O   0  0  0  0  0  0  0  0  0  0  0  0
   37.3050   33.0130   39.1610 C   0  0  0  0  0  0  0  0  0  0  0  0
   36.3840   31.9460   40.7650 H   0  0  0  0  0  0  0  0  0  0  0  0
   39.3770   31.4190   40.5310 H   0  0  0  0  0  0  0  0  0  0  0  0
   38.3640   31.8850   41.9640 H   0  0  0  0  0  0  0  0  0  0  0  0
   39.0860   34.0310   41.5440 H   0  0  0  0  0  0  0  0  0  0  0  0
   39.6800   33.5880   39.8690 H   0  0  0  0  0  0  0  0  0  0  0  0
   38.1910   32.9210   38.4870 H   0  0  0  0  0  0  0  0  0  0  0  0
   36.3590   33.1700   38.6430 H   0  0  0  0  0  0  0  0  0  0  0  0
   36.6850   27.7260   41.8490 C   0  0  0  0  0  3  0  0  0  0  0  0
   36.2920   27.9850   40.6250 C   0  0  0  0  0  3  0  0  0  0  0  0
   37.8980   24.3080   42.3090 C   0  0  0  0  0  0  0  0  0  0  0  0
   39.2540   24.5200   42.6850 C   0  0  0  0  0  0  0  0  0  0  0  0
   39.6860   25.8380   42.7620 C   0  0  0  0  0  0  0  0  0  0  0  0
   38.8200   26.8350   42.4820 N   0  0  0  0  0  0  0  0  0  0  0  0
   37.5340   26.5990   42.1280 C   0  0  0  0  0  0  0  0  0  0  0  0
   37.0760   25.3540   42.0410 N   0  0  0  0  0  0  0  0  0  0  0  0
   37.5620   23.2830   42.2490 H   0  0  0  0  0  0  0  0  0  0  0  0
   39.9300   23.7250   42.9030 H   0  0  0  0  0  0  0  0  0  0  0  0
   41.0400   26.2130   43.1320 C   0  0  0  0  0  0  0  0  0  0  0  0
   42.0250   25.2620   43.0820 C   0  0  0  0  0  0  0  0  0  0  0  0
   41.8400   24.2350   42.7790 H   0  0  0  0  0  0  0  0  0  0  0  0
   43.3460   25.5090   43.4130 C   0  0  0  0  0  3  0  0  0  0  0  0
   43.6720   26.8020   43.8140 C   0  0  0  0  0  0  0  0  0  0  0  0
   44.9660   27.0710   44.1440 N   0  0  0  0  0  0  0  0  0  0  0  0
   45.3130   28.3170   44.5370 C   0  0  0  0  0  0  0  0  0  0  0  0
   46.3280   28.5950   44.8130 H   0  0  0  0  0  0  0  0  0  0  0  0
   44.3850   29.3360   44.6160 C   0  0  0  0  0  3  0  0  0  0  0  0
   43.0800   29.0410   44.2760 C   0  0  0  0  0  3  0  0  0  0  0  0
   42.7040   27.7740   43.8720 C   0  0  0  0  0  0  0  0  0  0  0  0
   41.4200   27.4730   43.5360 C   0  0  0  0  0  3  0  0  0  0  0  0
  1 28  1  0  0  0  0
  1  2  1  0  0  0  0
  3  1  1  0  0  0  0
  4  9  1  6  0  0  0
  4  8  1  0  0  0  0
  4  1  1  0  0  0  0
  5 11  1  0  0  0  0
  5  4  1  0  0  0  0
  6  5  1  0  0  0  0
  6  7  1  0  0  0  0
  7  8  1  0  0  0  0
  8 14  1  1  0  0  0
  8 15  1  0  0  0  0
 10  5  1  0  0  0  0
 12  6  1  0  0  0  0
 13  6  1  0  0  0  0
 15 20  1  1  0  0  0
 15 16  1  0  0  0  0
 16 22  1  0  0  0  0
 17 16  1  0  0  0  0
 17 23  1  0  0  0  0
 18 17  1  0  0  0  0
 19 18  1  0  0  0  0
 19 15  1  0  0  0  0
 21 16  1  0  0  0  0
 24 17  1  0  0  0  0
 25 19  1  0  0  0  0
 26 19  1  0  0  0  0
 27 33  1  0  0  0  0
 28 27  2  0  0  0  0
 29 30  1  0  0  0  0
 30 31  2  0  0  0  0
 30 36  1  0  0  0  0
 31 37  1  0  0  0  0
 32 31  1  0  0  0  0
 33 32  2  0  0  0  0
 34 33  1  0  0  0  0
 34 29  2  0  0  0  0
 35 29  1  0  0  0  0
 37 48  1  0  0  0  0
 38 37  2  0  0  0  0
 38 40  1  0  0  0  0
 39 38  1  0  0  0  0
 40 41  2  0  0  0  0
 41 47  1  0  0  0  0
 41 42  1  0  0  0  0
 42 43  2  0  0  0  0
 43 45  1  0  0  0  0
 43 44  1  0  0  0  0
 46 45  2  0  0  0  0
 47 46  1  0  0  0  0
 48 47  2  0  0  0  0
M  END
>  <minimizedAffinity>
-6.3734479

$$$$

 OpenBabel03242513253D

 48 52  0  0  1  0  0  0  0  0999 V2000
   35.9680   30.6420   40.6150 C   0  0  0  0  0  0  0  0  0  0  0  0
   35.3030   30.8930   39.7770 H   0  0  0  0  0  0  0  0  0  0  0  0
   35.4120   30.8670   41.5710 H   0  0  0  0  0  0  0  0  0  0  0  0
   36.3020   29.1900   40.6490 C   0  0  2  0  0  0  0  0  0  0  0  0
   36.9970   28.7630   41.9260 C   0  0  0  0  0  0  0  0  0  0  0  0
   37.5320   27.4210   41.4220 C   0  0  0  0  0  0  0  0  0  0  0  0
   37.9730   27.6720   40.1540 O   0  0  0  0  0  0  0  0  0  0  0  0
   37.3370   28.7730   39.6580 C   0  0  1  0  0  0  0  0  0  0  0  0
   35.3620   28.6340   40.5960 H   0  0  0  0  0  0  0  0  0  0  0  0
   36.3050   28.6320   42.7660 H   0  0  0  0  0  0  0  0  0  0  0  0
   37.8390   29.4430   42.1400 H   0  0  0  0  0  0  0  0  0  0  0  0
   38.3870   27.1520   42.1000 H   0  0  0  0  0  0  0  0  0  0  0  0
   36.7070   26.6900   41.5080 H   0  0  0  0  0  0  0  0  0  0  0  0
   38.0720   29.5760   39.4980 H   0  0  0  0  0  0  0  0  0  0  0  0
   36.7240   28.4270   38.3290 C   0  0  1  0  0  0  0  0  0  0  0  0
   35.2300   28.1940   38.4400 C   0  0  0  0  0  0  0  0  0  0  0  0
   34.6990   28.9180   37.2280 C   0  0  0  0  0  0  0  0  0  0  0  0
   35.8070   29.2110   36.4290 O   0  0  0  0  0  0  0  0  0  0  0  0
   36.7250   29.6400   37.3900 C   0  0  0  0  0  0  0  0  0  0  0  0
   37.2500   27.6130   37.8130 H   0  0  0  0  0  0  0  0  0  0  0  0
   34.8250   28.5810   39.3840 H   0  0  0  0  0  0  0  0  0  0  0  0
   35.0690   27.0860   38.3830 H   0  0  0  0  0  0  0  0  0  0  0  0
   33.9870   28.2490   36.7160 H   0  0  0  0  0  0  0  0  0  0  0  0
   34.1970   29.8470   37.5850 H   0  0  0  0  0  0  0  0  0  0  0  0
   36.2110   30.4980   37.8870 H   0  0  0  0  0  0  0  0  0  0  0  0
   37.7120   29.8750   36.9920 H   0  0  0  0  0  0  0  0  0  0  0  0
   37.3060   32.4980   39.7620 C   0  0  0  0  0  3  0  0  0  0  0  0
   37.1540   31.5250   40.6280 C   0  0  0  0  0  3  0  0  0  0  0  0
   39.5760   35.2750   40.4690 C   0  0  0  0  0  0  0  0  0  0  0  0
   40.7640   34.8690   39.7970 C   0  0  0  0  0  0  0  0  0  0  0  0
   40.7230   33.6510   39.1300 C   0  0  0  0  0  0  0  0  0  0  0  0
   39.5850   32.9250   39.1490 N   0  0  0  0  0  0  0  0  0  0  0  0
   38.4720   33.3410   39.7980 C   0  0  0  0  0  0  0  0  0  0  0  0
   38.4630   34.4990   40.4500 N   0  0  0  0  0  0  0  0  0  0  0  0
   39.6090   36.2230   40.9870 H   0  0  0  0  0  0  0  0  0  0  0  0
   41.6570   35.4510   39.7890 H   0  0  0  0  0  0  0  0  0  0  0  0
   41.8530   33.1040   38.4000 C   0  0  0  0  0  0  0  0  0  0  0  0
   43.0760   33.7100   38.5250 C   0  0  0  0  0  0  0  0  0  0  0  0
   43.2390   34.5850   39.1470 H   0  0  0  0  0  0  0  0  0  0  0  0
   44.2170   33.2730   37.8760 C   0  0  0  0  0  3  0  0  0  0  0  0
   44.0970   32.1540   37.0570 C   0  0  0  0  0  0  0  0  0  0  0  0
   45.2060   31.7040   36.4080 N   0  0  0  0  0  0  0  0  0  0  0  0
   45.1200   30.6200   35.6050 C   0  0  0  0  0  0  0  0  0  0  0  0
   45.9690   30.2110   35.0600 H   0  0  0  0  0  0  0  0  0  0  0  0
   43.9290   29.9470   35.4210 C   0  0  0  0  0  3  0  0  0  0  0  0
   42.8170   30.4210   36.0900 C   0  0  0  0  0  3  0  0  0  0  0  0
   42.8840   31.5280   36.9140 C   0  0  0  0  0  0  0  0  0  0  0  0
   41.7930   32.0020   37.5770 C   0  0  0  0  0  3  0  0  0  0  0  0
  1 28  1  0  0  0  0
  1  4  1  0  0  0  0
  1  3  1  0  0  0  0
  2  1  1  0  0  0  0
  4  9  1  6  0  0  0
  4  5  1  0  0  0  0
  5 11  1  0  0  0  0
  5 10  1  0  0  0  0
  6 13  1  0  0  0  0
  6  5  1  0  0  0  0
  6 12  1  0  0  0  0
  7  6  1  0  0  0  0
  8 14  1  6  0  0  0
  8  7  1  0  0  0  0
  8  4  1  0  0  0  0
 15 20  1  6  0  0  0
 15 16  1  0  0  0  0
 15  8  1  0  0  0  0
 16 21  1  0  0  0  0
 17 24  1  0  0  0  0
 17 16  1  0  0  0  0
 18 17  1  0  0  0  0
 18 19  1  0  0  0  0
 19 25  1  0  0  0  0
 19 15  1  0  0  0  0
 22 16  1  0  0  0  0
 23 17  1  0  0  0  0
 26 19  1  0  0  0  0
 27 33  1  0  0  0  0
 27 28  2  0  0  0  0
 29 35  1  0  0  0  0
 30 29  2  0  0  0  0
 31 32  2  0  0  0  0
 31 30  1  0  0  0  0
 32 33  1  0  0  0  0
 33 34  2  0  0  0  0
 34 29  1  0  0  0  0
 36 30  1  0  0  0  0
 37 38  1  0  0  0  0
 37 31  1  0  0  0  0
 38 39  1  0  0  0  0
 40 38  2  0  0  0  0
 41 40  1  0  0  0  0
 42 41  2  0  0  0  0
 43 42  1  0  0  0  0
 44 43  1  0  0  0  0
 45 43  2  0  0  0  0
 45 46  1  0  0  0  0
 46 47  2  0  0  0  0
 47 41  1  0  0  0  0
 47 48  1  0  0  0  0
 48 37  2  0  0  0  0
M  END
>  <minimizedAffinity>
-6.36673641

$$$$

 OpenBabel03242513253D

 48 52  0  0  1  0  0  0  0  0999 V2000
   36.7850   27.5940   42.7940 C   0  0  0  0  0  0  0  0  0  0  0  0
   35.8080   27.1920   42.4940 H   0  0  0  0  0  0  0  0  0  0  0  0
   36.6350   28.1810   43.7460 H   0  0  0  0  0  0  0  0  0  0  0  0
   37.7620   26.5130   43.1120 C   0  0  2  0  0  0  0  0  0  0  0  0
   39.0600   27.0300   43.6960 C   0  0  0  0  0  0  0  0  0  0  0  0
   39.8940   25.7650   43.4780 C   0  0  0  0  0  0  0  0  0  0  0  0
   39.5360   25.3190   42.2380 O   0  0  0  0  0  0  0  0  0  0  0  0
   38.2990   25.7990   41.9170 C   0  0  1  0  0  0  0  0  0  0  0  0
   37.3050   25.8690   43.8680 H   0  0  0  0  0  0  0  0  0  0  0  0
   38.9800   27.2800   44.7600 H   0  0  0  0  0  0  0  0  0  0  0  0
   39.4550   27.8480   43.0710 H   0  0  0  0  0  0  0  0  0  0  0  0
   40.9690   26.0930   43.4930 H   0  0  0  0  0  0  0  0  0  0  0  0
   39.6710   25.0800   44.3170 H   0  0  0  0  0  0  0  0  0  0  0  0
   38.3870   26.4830   41.0590 H   0  0  0  0  0  0  0  0  0  0  0  0
   37.4170   24.6500   41.5130 C   0  0  1  0  0  0  0  0  0  0  0  0
   36.6850   24.9310   40.2160 C   0  0  0  0  0  0  0  0  0  0  0  0
   36.8180   23.6200   39.4800 C   0  0  0  0  0  0  0  0  0  0  0  0
   37.2820   22.6910   40.4140 O   0  0  0  0  0  0  0  0  0  0  0  0
   38.2550   23.4410   41.0780 C   0  0  0  0  0  0  0  0  0  0  0  0
   36.7530   24.3150   42.3200 H   0  0  0  0  0  0  0  0  0  0  0  0
   37.1260   25.7760   39.6710 H   0  0  0  0  0  0  0  0  0  0  0  0
   35.6230   25.1650   40.4860 H   0  0  0  0  0  0  0  0  0  0  0  0
   35.8240   23.3480   39.0860 H   0  0  0  0  0  0  0  0  0  0  0  0
   37.5530   23.7720   38.6550 H   0  0  0  0  0  0  0  0  0  0  0  0
   38.9590   23.7460   40.2660 H   0  0  0  0  0  0  0  0  0  0  0  0
   38.7270   22.9220   41.9120 H   0  0  0  0  0  0  0  0  0  0  0  0
   36.5540   28.9520   40.7790 C   0  0  0  0  0  3  0  0  0  0  0  0
   37.2820   28.5690   41.8000 C   0  0  0  0  0  3  0  0  0  0  0  0
   37.0690   30.8770   37.7140 C   0  0  0  0  0  0  0  0  0  0  0  0
   38.1180   31.7630   38.0900 C   0  0  0  0  0  0  0  0  0  0  0  0
   38.5990   31.6520   39.3890 C   0  0  0  0  0  0  0  0  0  0  0  0
   38.0600   30.7310   40.2160 N   0  0  0  0  0  0  0  0  0  0  0  0
   37.0630   29.9030   39.8260 C   0  0  0  0  0  0  0  0  0  0  0  0
   36.5710   29.9720   38.5930 N   0  0  0  0  0  0  0  0  0  0  0  0
   36.6960   30.9640   36.7030 H   0  0  0  0  0  0  0  0  0  0  0  0
   38.5350   32.4870   37.4280 H   0  0  0  0  0  0  0  0  0  0  0  0
   39.6640   32.4850   39.9180 C   0  0  0  0  0  0  0  0  0  0  0  0
   39.6380   33.8310   39.6640 C   0  0  0  0  0  0  0  0  0  0  0  0
   38.8530   34.3070   39.0830 H   0  0  0  0  0  0  0  0  0  0  0  0
   40.6010   34.7150   40.1190 C   0  0  0  0  0  3  0  0  0  0  0  0
   41.6450   34.1890   40.8740 C   0  0  0  0  0  0  0  0  0  0  0  0
   42.6050   35.0390   41.3340 N   0  0  0  0  0  0  0  0  0  0  0  0
   43.6310   34.5570   42.0690 C   0  0  0  0  0  0  0  0  0  0  0  0
   44.4290   35.1830   42.4650 H   0  0  0  0  0  0  0  0  0  0  0  0
   43.7380   33.2140   42.3720 C   0  0  0  0  0  3  0  0  0  0  0  0
   42.7530   32.3710   41.8970 C   0  0  0  0  0  3  0  0  0  0  0  0
   41.6960   32.8430   41.1420 C   0  0  0  0  0  0  0  0  0  0  0  0
   40.7210   32.0200   40.6690 C   0  0  0  0  0  3  0  0  0  0  0  0
  1  4  1  0  0  0  0
  1  3  1  0  0  0  0
  2  1  1  0  0  0  0
  4  5  1  0  0  0  0
  4  9  1  1  0  0  0
  5 10  1  0  0  0  0
  6 12  1  0  0  0  0
  6  5  1  0  0  0  0
  6 13  1  0  0  0  0
  7  6  1  0  0  0  0
  8 14  1  6  0  0  0
  8  7  1  0  0  0  0
  8  4  1  0  0  0  0
 11  5  1  0  0  0  0
 15  8  1  0  0  0  0
 15 20  1  1  0  0  0
 16 22  1  0  0  0  0
 16 15  1  0  0  0  0
 17 16  1  0  0  0  0
 17 18  1  0  0  0  0
 18 19  1  0  0  0  0
 19 15  1  0  0  0  0
 19 26  1  0  0  0  0
 21 16  1  0  0  0  0
 23 17  1  0  0  0  0
 24 17  1  0  0  0  0
 25 19  1  0  0  0  0
 27 28  2  0  0  0  0
 28  1  1  0  0  0  0
 29 30  2  0  0  0  0
 29 34  1  0  0  0  0
 30 31  1  0  0  0  0
 31 37  1  0  0  0  0
 31 32  2  0  0  0  0
 33 32  1  0  0  0  0
 33 27  1  0  0  0  0
 34 33  2  0  0  0  0
 35 29  1  0  0  0  0
 36 30  1  0  0  0  0
 37 48  1  0  0  0  0
 38 37  2  0  0  0  0
 38 40  1  0  0  0  0
 39 38  1  0  0  0  0
 40 41  2  0  0  0  0
 41 47  1  0  0  0  0
 41 42  1  0  0  0  0
 42 43  2  0  0  0  0
 43 45  1  0  0  0  0
 43 44  1  0  0  0  0
 46 45  2  0  0  0  0
 47 46  1  0  0  0  0
 48 47  2  0  0  0  0
M  END
>  <minimizedAffinity>
-6.26389599

$$$$

 OpenBabel03242513253D

 48 52  0  0  1  0  0  0  0  0999 V2000
   38.9390   27.0260   44.1590 C   0  0  0  0  0  0  0  0  0  0  0  0
   37.9370   26.6640   44.4280 H   0  0  0  0  0  0  0  0  0  0  0  0
   39.4150   27.4390   45.0960 H   0  0  0  0  0  0  0  0  0  0  0  0
   39.8230   25.9250   43.6830 C   0  0  2  0  0  0  0  0  0  0  0  0
   41.2780   26.3310   43.5640 C   0  0  0  0  0  0  0  0  0  0  0  0
   41.7400   25.1630   42.6900 C   0  0  0  0  0  0  0  0  0  0  0  0
   40.7380   24.9880   41.7790 O   0  0  0  0  0  0  0  0  0  0  0  0
   39.5730   25.4990   42.2750 C   0  0  1  0  0  0  0  0  0  0  0  0
   39.7760   25.1210   44.4240 H   0  0  0  0  0  0  0  0  0  0  0  0
   41.7990   26.3430   44.5290 H   0  0  0  0  0  0  0  0  0  0  0  0
   41.3590   27.2740   42.9990 H   0  0  0  0  0  0  0  0  0  0  0  0
   42.6860   25.5030   42.1880 H   0  0  0  0  0  0  0  0  0  0  0  0
   41.9290   24.3080   43.3650 H   0  0  0  0  0  0  0  0  0  0  0  0
   39.2600   26.3540   41.6580 H   0  0  0  0  0  0  0  0  0  0  0  0
   38.5040   24.4450   42.1950 C   0  0  1  0  0  0  0  0  0  0  0  0
   37.1500   25.0410   41.8610 C   0  0  0  0  0  0  0  0  0  0  0  0
   36.6110   24.0660   40.8430 C   0  0  0  0  0  0  0  0  0  0  0  0
   37.4460   22.9470   40.8900 O   0  0  0  0  0  0  0  0  0  0  0  0
   38.7020   23.5530   40.9630 C   0  0  0  0  0  0  0  0  0  0  0  0
   38.4800   23.7890   43.0750 H   0  0  0  0  0  0  0  0  0  0  0  0
   37.2380   26.0640   41.4710 H   0  0  0  0  0  0  0  0  0  0  0  0
   36.5530   25.0450   42.8100 H   0  0  0  0  0  0  0  0  0  0  0  0
   35.5730   23.8190   41.1240 H   0  0  0  0  0  0  0  0  0  0  0  0
   36.6520   24.5650   39.8460 H   0  0  0  0  0  0  0  0  0  0  0  0
   38.7470   24.1880   40.0450 H   0  0  0  0  0  0  0  0  0  0  0  0
   39.5300   22.8530   41.0680 H   0  0  0  0  0  0  0  0  0  0  0  0
   37.7090   28.7220   42.9060 C   0  0  0  0  0  3  0  0  0  0  0  0
   38.8540   28.1660   43.2210 C   0  0  0  0  0  3  0  0  0  0  0  0
   36.4800   31.2850   40.6070 C   0  0  0  0  0  0  0  0  0  0  0  0
   37.6790   31.9620   40.2460 C   0  0  0  0  0  0  0  0  0  0  0  0
   38.8580   31.4990   40.8150 C   0  0  0  0  0  0  0  0  0  0  0  0
   38.8140   30.4520   41.6660 N   0  0  0  0  0  0  0  0  0  0  0  0
   37.6550   29.8290   41.9890 C   0  0  0  0  0  0  0  0  0  0  0  0
   36.5020   30.2380   41.4690 N   0  0  0  0  0  0  0  0  0  0  0  0
   35.5630   31.6460   40.1640 H   0  0  0  0  0  0  0  0  0  0  0  0
   37.7010   32.7890   39.5720 H   0  0  0  0  0  0  0  0  0  0  0  0
   40.1580   32.0860   40.5430 C   0  0  0  0  0  0  0  0  0  0  0  0
   40.2820   33.4500   40.5570 C   0  0  0  0  0  0  0  0  0  0  0  0
   39.4500   34.1170   40.7620 H   0  0  0  0  0  0  0  0  0  0  0  0
   41.4720   34.1130   40.3120 C   0  0  0  0  0  3  0  0  0  0  0  0
   42.5930   33.3340   40.0390 C   0  0  0  0  0  0  0  0  0  0  0  0
   43.7760   33.9630   39.7960 N   0  0  0  0  0  0  0  0  0  0  0  0
   44.8820   33.2330   39.5280 C   0  0  0  0  0  0  0  0  0  0  0  0
   45.8550   33.6750   39.3250 H   0  0  0  0  0  0  0  0  0  0  0  0
   44.8480   31.8540   39.4940 C   0  0  0  0  0  3  0  0  0  0  0  0
   43.6380   31.2370   39.7450 C   0  0  0  0  0  3  0  0  0  0  0  0
   42.4960   31.9650   40.0200 C   0  0  0  0  0  0  0  0  0  0  0  0
   41.2990   31.3660   40.2680 C   0  0  0  0  0  3  0  0  0  0  0  0
  1  2  1  0  0  0  0
  1  3  1  0  0  0  0
  4  1  1  0  0  0  0
  4  9  1  1  0  0  0
  5  4  1  0  0  0  0
  5 10  1  0  0  0  0
  6 13  1  0  0  0  0
  6  5  1  0  0  0  0
  7  8  1  0  0  0  0
  7  6  1  0  0  0  0
  8 14  1  6  0  0  0
  8  4  1  0  0  0  0
 11  5  1  0  0  0  0
 12  6  1  0  0  0  0
 15  8  1  0  0  0  0
 15 20  1  1  0  0  0
 16 15  1  0  0  0  0
 16 22  1  0  0  0  0
 17 18  1  0  0  0  0
 17 23  1  0  0  0  0
 17 16  1  0  0  0  0
 18 19  1  0  0  0  0
 19 26  1  0  0  0  0
 19 15  1  0  0  0  0
 21 16  1  0  0  0  0
 24 17  1  0  0  0  0
 25 19  1  0  0  0  0
 27 28  2  0  0  0  0
 28  1  1  0  0  0  0
 29 34  1  0  0  0  0
 30 29  2  0  0  0  0
 30 31  1  0  0  0  0
 31 32  2  0  0  0  0
 32 33  1  0  0  0  0
 33 27  1  0  0  0  0
 34 33  2  0  0  0  0
 35 29  1  0  0  0  0
 36 30  1  0  0  0  0
 37 38  1  0  0  0  0
 37 31  1  0  0  0  0
 38 39  1  0  0  0  0
 40 38  2  0  0  0  0
 41 40  1  0  0  0  0
 42 41  2  0  0  0  0
 43 42  1  0  0  0  0
 44 43  1  0  0  0  0
 45 43  2  0  0  0  0
 45 46  1  0  0  0  0
 46 47  2  0  0  0  0
 47 41  1  0  0  0  0
 47 48  1  0  0  0  0
 48 37  2  0  0  0  0
M  END
>  <minimizedAffinity>
-6.25870514

$$$$

 OpenBabel03242513253D

 48 52  0  0  1  0  0  0  0  0999 V2000
   36.4570   27.6680   42.5810 C   0  0  0  0  0  0  0  0  0  0  0  0
   35.7350   27.2560   41.8650 H   0  0  0  0  0  0  0  0  0  0  0  0
   35.8880   27.9580   43.5120 H   0  0  0  0  0  0  0  0  0  0  0  0
   37.4700   26.6580   43.0010 C   0  0  2  0  0  0  0  0  0  0  0  0
   38.7050   27.2700   43.6300 C   0  0  0  0  0  0  0  0  0  0  0  0
   39.6150   26.0450   43.5160 C   0  0  0  0  0  0  0  0  0  0  0  0
   39.3520   25.5270   42.2800 O   0  0  0  0  0  0  0  0  0  0  0  0
   38.1110   25.9240   41.8710 C   0  0  1  0  0  0  0  0  0  0  0  0
   37.0060   26.0220   43.7600 H   0  0  0  0  0  0  0  0  0  0  0  0
   38.5510   27.5620   44.6760 H   0  0  0  0  0  0  0  0  0  0  0  0
   39.0900   28.0810   42.9900 H   0  0  0  0  0  0  0  0  0  0  0  0
   40.6680   26.4330   43.5750 H   0  0  0  0  0  0  0  0  0  0  0  0
   39.3810   25.3870   44.3730 H   0  0  0  0  0  0  0  0  0  0  0  0
   38.2110   26.5730   40.9880 H   0  0  0  0  0  0  0  0  0  0  0  0
   37.3160   24.7110   41.4740 C   0  0  1  0  0  0  0  0  0  0  0  0
   36.6100   24.9110   40.1470 C   0  0  0  0  0  0  0  0  0  0  0  0
   36.8470   23.5920   39.4540 C   0  0  0  0  0  0  0  0  0  0  0  0
   37.3370   22.7190   40.4280 O   0  0  0  0  0  0  0  0  0  0  0  0
   38.2400   23.5460   41.1000 C   0  0  0  0  0  0  0  0  0  0  0  0
   36.6470   24.3570   42.2690 H   0  0  0  0  0  0  0  0  0  0  0  0
   37.0150   25.7670   39.5920 H   0  0  0  0  0  0  0  0  0  0  0  0
   35.5270   25.0850   40.3790 H   0  0  0  0  0  0  0  0  0  0  0  0
   35.8850   23.2470   39.0380 H   0  0  0  0  0  0  0  0  0  0  0  0
   37.5970   23.7670   38.6480 H   0  0  0  0  0  0  0  0  0  0  0  0
   38.9500   23.8720   40.3010 H   0  0  0  0  0  0  0  0  0  0  0  0
   38.7160   23.0800   41.9620 H   0  0  0  0  0  0  0  0  0  0  0  0
   36.8180   29.3550   40.8530 C   0  0  0  0  0  3  0  0  0  0  0  0
   37.0480   28.9240   42.0700 C   0  0  0  0  0  3  0  0  0  0  0  0
   37.3560   32.5020   39.0720 C   0  0  0  0  0  0  0  0  0  0  0  0
   38.6340   32.9030   39.5530 C   0  0  0  0  0  0  0  0  0  0  0  0
   39.2510   32.0640   40.4730 C   0  0  0  0  0  0  0  0  0  0  0  0
   38.6230   30.9330   40.8600 N   0  0  0  0  0  0  0  0  0  0  0  0
   37.4070   30.5800   40.3820 C   0  0  0  0  0  0  0  0  0  0  0  0
   36.7790   31.3510   39.5000 N   0  0  0  0  0  0  0  0  0  0  0  0
   36.8770   33.1540   38.3560 H   0  0  0  0  0  0  0  0  0  0  0  0
   39.1200   33.7990   39.2410 H   0  0  0  0  0  0  0  0  0  0  0  0
   40.5530   32.3390   41.0540 C   0  0  0  0  0  0  0  0  0  0  0  0
   41.2670   33.4150   40.5950 C   0  0  0  0  0  0  0  0  0  0  0  0
   40.9030   34.0750   39.8130 H   0  0  0  0  0  0  0  0  0  0  0  0
   42.5160   33.7670   41.0770 C   0  0  0  0  0  3  0  0  0  0  0  0
   43.0590   32.9720   42.0830 C   0  0  0  0  0  0  0  0  0  0  0  0
   44.2870   33.2990   42.5740 N   0  0  0  0  0  0  0  0  0  0  0  0
   44.8400   32.5460   43.5510 C   0  0  0  0  0  0  0  0  0  0  0  0
   45.8170   32.7540   43.9840 H   0  0  0  0  0  0  0  0  0  0  0  0
   44.1920   31.4450   44.0720 C   0  0  0  0  0  3  0  0  0  0  0  0
   42.9480   31.1330   43.5590 C   0  0  0  0  0  3  0  0  0  0  0  0
   42.3650   31.8890   42.5600 C   0  0  0  0  0  0  0  0  0  0  0  0
   41.1400   31.5890   42.0490 C   0  0  0  0  0  3  0  0  0  0  0  0
  1  4  1  0  0  0  0
  1  3  1  0  0  0  0
  2  1  1  0  0  0  0
  4  5  1  0  0  0  0
  4  9  1  1  0  0  0
  5 10  1  0  0  0  0
  6 12  1  0  0  0  0
  6  5  1  0  0  0  0
  6 13  1  0  0  0  0
  7  6  1  0  0  0  0
  8 14  1  6  0  0  0
  8  7  1  0  0  0  0
  8  4  1  0  0  0  0
 11  5  1  0  0  0  0
 15  8  1  0  0  0  0
 15 20  1  1  0  0  0
 16 22  1  0  0  0  0
 16 15  1  0  0  0  0
 17 16  1  0  0  0  0
 17 18  1  0  0  0  0
 18 19  1  0  0  0  0
 19 15  1  0  0  0  0
 19 26  1  0  0  0  0
 21 16  1  0  0  0  0
 23 17  1  0  0  0  0
 24 17  1  0  0  0  0
 25 19  1  0  0  0  0
 27 28  2  0  0  0  0
 28  1  1  0  0  0  0
 29 34  2  0  0  0  0
 29 30  1  0  0  0  0
 30 31  2  0  0  0  0
 31 32  1  0  0  0  0
 31 37  1  0  0  0  0
 33 27  1  0  0  0  0
 33 32  2  0  0  0  0
 34 33  1  0  0  0  0
 35 29  1  0  0  0  0
 36 30  1  0  0  0  0
 37 48  1  0  0  0  0
 38 37  2  0  0  0  0
 38 40  1  0  0  0  0
 39 38  1  0  0  0  0
 40 41  2  0  0  0  0
 41 47  1  0  0  0  0
 41 42  1  0  0  0  0
 42 43  2  0  0  0  0
 43 44  1  0  0  0  0
 43 45  1  0  0  0  0
 46 45  2  0  0  0  0
 47 46  1  0  0  0  0
 48 47  2  0  0  0  0
M  END
>  <minimizedAffinity>
-6.22760391

$$$$
