
 OpenBabel03252503483D

 47 51  0  0  1  0  0  0  0  0999 V2000
   35.5960   29.4240   39.7570 C   0  0  0  0  0  0  0  0  0  0  0  0
   34.7910   29.9800   39.2500 H   0  0  0  0  0  0  0  0  0  0  0  0
   35.3130   29.4320   40.8460 H   0  0  0  0  0  0  0  0  0  0  0  0
   35.7700   28.0290   39.3420 C   0  0  0  0  0  0  0  0  0  0  0  0
   36.4750   27.0770   40.0400 C   0  0  0  0  0  0  0  0  0  0  0  0
   36.6280   25.7800   39.5970 C   0  0  0  0  0  0  0  0  0  0  0  0
   36.0510   25.4270   38.4050 C   0  0  0  0  0  0  0  0  0  0  0  0
   35.3310   26.3750   37.6810 C   0  0  0  0  0  0  0  0  0  0  0  0
   35.1810   27.6960   38.1450 C   0  0  0  0  0  0  0  0  0  0  0  0
   36.9030   27.4490   40.9820 H   0  0  0  0  0  0  0  0  0  0  0  0
   37.2070   25.1540   40.2580 H   0  0  0  0  0  0  0  0  0  0  0  0
   36.2100   24.3980   38.1170 H   0  0  0  0  0  0  0  0  0  0  0  0
   34.9470   25.9170   36.7650 H   0  0  0  0  0  0  0  0  0  0  0  0
   34.3440   28.3940   37.1910 C   0  0  0  0  0  0  0  0  0  0  0  0
   34.5770   28.6340   35.8550 C   0  0  0  0  0  0  0  0  0  0  0  0
   35.5060   28.2940   35.4450 H   0  0  0  0  0  0  0  0  0  0  0  0
   33.7100   29.2900   35.0170 C   0  0  0  0  0  3  0  0  0  0  0  0
   32.5250   29.7410   35.5450 C   0  0  0  0  0  0  0  0  0  0  0  0
   31.6600   30.3870   34.7410 N   0  0  0  0  0  0  0  0  0  0  0  0
   30.4700   30.8540   35.2200 C   0  0  0  0  0  0  0  0  0  0  0  0
   29.8240   31.3600   34.5310 H   0  0  0  0  0  0  0  0  0  0  0  0
   30.1540   30.6540   36.5650 C   0  0  0  0  0  3  0  0  0  0  0  0
   31.0000   29.9970   37.4430 C   0  0  0  0  0  3  0  0  0  0  0  0
   32.1760   29.5640   36.8670 C   0  0  0  0  0  0  0  0  0  0  0  0
   33.1130   28.8940   37.6240 C   0  0  0  0  0  3  0  0  0  0  0  0
   37.5610   30.5920   40.7110 C   0  0  0  0  0  0  0  0  0  0  0  0
   36.8400   30.1660   39.6010 C   0  0  0  0  0  0  0  0  0  0  0  0
   37.3600   30.4810   38.3460 C   0  0  0  0  0  0  0  0  0  0  0  0
   38.5170   31.1690   38.2210 N   0  0  0  0  0  0  0  0  0  0  0  0
   39.1890   31.5640   39.3300 C   0  0  0  0  0  0  0  0  0  0  0  0
   38.7180   31.2810   40.5680 N   0  0  0  0  0  0  0  0  0  0  0  0
   37.1940   30.3690   41.6960 H   0  0  0  0  0  0  0  0  0  0  0  0
   36.9190   30.2430   37.4100 H   0  0  0  0  0  0  0  0  0  0  0  0
   40.9840   32.1240   37.7030 C   0  0  2  0  0  0  0  0  0  0  0  0
   40.4400   32.2990   39.1510 C   0  0  1  0  0  0  0  0  0  0  0  0
   40.3440   33.6490   39.1780 O   0  0  0  0  0  0  0  0  0  0  0  0
   41.5010   34.1610   38.6620 C   0  0  0  0  0  0  0  0  0  0  0  0
   42.1700   33.0900   37.8400 C   0  0  2  0  0  0  0  0  0  0  0  0
   41.3100   31.0920   37.5220 H   0  0  0  0  0  0  0  0  0  0  0  0
   41.1940   31.9320   39.8620 H   0  0  0  0  0  0  0  0  0  0  0  0
   41.2270   34.9800   37.9390 H   0  0  0  0  0  0  0  0  0  0  0  0
   42.1470   34.6290   39.4120 H   0  0  0  0  0  0  0  0  0  0  0  0
   42.9360   32.5920   38.4800 H   0  0  0  0  0  0  0  0  0  0  0  0
   40.1270   32.6540   36.8140 O   0  0  0  0  0  0  0  0  0  0  0  0
   40.3240   32.2990   35.9090 H   0  0  0  0  0  0  0  0  0  0  0  0
   42.6390   33.5260   36.6270 O   0  0  0  0  0  0  0  0  0  0  0  0
   43.3570   32.8850   36.3560 H   0  0  0  0  0  0  0  0  0  0  0  0
  1  3  1  0  0  0  0
  2  1  1  0  0  0  0
  4  1  1  0  0  0  0
  4  5  1  0  0  0  0
  5 10  1  0  0  0  0
  6  5  2  0  0  0  0
  6 11  1  0  0  0  0
  7  6  1  0  0  0  0
  8  9  1  0  0  0  0
  8  7  2  0  0  0  0
  9  4  2  0  0  0  0
 12  7  1  0  0  0  0
 13  8  1  0  0  0  0
 14 25  1  0  0  0  0
 14  9  1  0  0  0  0
 15 14  2  0  0  0  0
 16 15  1  0  0  0  0
 17 18  2  0  0  0  0
 17 15  1  0  0  0  0
 18 24  1  0  0  0  0
 19 20  2  0  0  0  0
 19 18  1  0  0  0  0
 20 22  1  0  0  0  0
 21 20  1  0  0  0  0
 22 23  2  0  0  0  0
 24 23  1  0  0  0  0
 24 25  2  0  0  0  0
 26 32  1  0  0  0  0
 27  1  1  0  0  0  0
 27 26  2  0  0  0  0
 28 27  1  0  0  0  0
 29 28  2  0  0  0  0
 29 30  1  0  0  0  0
 30 31  2  0  0  0  0
 31 26  1  0  0  0  0
 33 28  1  0  0  0  0
 34 39  1  6  0  0  0
 34 38  1  0  0  0  0
 34 35  1  0  0  0  0
 35 36  1  0  0  0  0
 35 30  1  0  0  0  0
 35 40  1  1  0  0  0
 37 36  1  0  0  0  0
 37 42  1  0  0  0  0
 38 43  1  1  0  0  0
 38 37  1  0  0  0  0
 41 37  1  0  0  0  0
 44 34  1  0  0  0  0
 45 44  1  0  0  0  0
 46 38  1  0  0  0  0
 47 46  1  0  0  0  0
M  END
>  <minimizedAffinity>
-7.05594873

$$$$

 OpenBabel03252503483D

 47 51  0  0  1  0  0  0  0  0999 V2000
   37.0750   25.9730   42.7090 C   0  0  0  0  0  0  0  0  0  0  0  0
   36.0860   26.0620   43.1890 H   0  0  0  0  0  0  0  0  0  0  0  0
   37.7880   25.7600   43.5530 H   0  0  0  0  0  0  0  0  0  0  0  0
   37.2100   24.9030   41.7160 C   0  0  0  0  0  0  0  0  0  0  0  0
   36.1710   24.3320   41.0210 C   0  0  0  0  0  0  0  0  0  0  0  0
   36.3460   23.3110   40.1100 C   0  0  0  0  0  0  0  0  0  0  0  0
   37.6170   22.8470   39.8910 C   0  0  0  0  0  0  0  0  0  0  0  0
   38.6860   23.4120   40.5840 C   0  0  0  0  0  0  0  0  0  0  0  0
   38.4930   24.4540   41.5100 C   0  0  0  0  0  0  0  0  0  0  0  0
   35.1890   24.7660   41.2620 H   0  0  0  0  0  0  0  0  0  0  0  0
   35.4330   22.9720   39.6480 H   0  0  0  0  0  0  0  0  0  0  0  0
   37.6830   22.0480   39.1670 H   0  0  0  0  0  0  0  0  0  0  0  0
   39.6150   22.9180   40.2820 H   0  0  0  0  0  0  0  0  0  0  0  0
   39.8000   24.8370   42.0030 C   0  0  0  0  0  0  0  0  0  0  0  0
   40.2100   25.0240   43.3030 C   0  0  0  0  0  0  0  0  0  0  0  0
   39.4780   24.9010   44.0760 H   0  0  0  0  0  0  0  0  0  0  0  0
   41.4840   25.3680   43.6790 C   0  0  0  0  0  3  0  0  0  0  0  0
   42.4210   25.5410   42.6890 C   0  0  0  0  0  0  0  0  0  0  0  0
   43.6770   25.8790   43.0350 N   0  0  0  0  0  0  0  0  0  0  0  0
   44.6410   26.0630   42.0870 C   0  0  0  0  0  0  0  0  0  0  0  0
   45.6220   26.3310   42.4250 H   0  0  0  0  0  0  0  0  0  0  0  0
   44.3120   25.8950   40.7410 C   0  0  0  0  0  3  0  0  0  0  0  0
   43.0380   25.5470   40.3200 C   0  0  0  0  0  3  0  0  0  0  0  0
   42.1340   25.3850   41.3500 C   0  0  0  0  0  0  0  0  0  0  0  0
   40.8280   25.0390   41.0780 C   0  0  0  0  0  3  0  0  0  0  0  0
   36.7730   27.7330   40.9920 C   0  0  0  0  0  0  0  0  0  0  0  0
   37.4240   27.2620   42.1270 C   0  0  0  0  0  0  0  0  0  0  0  0
   38.4180   28.0750   42.6730 C   0  0  0  0  0  0  0  0  0  0  0  0
   38.7280   29.2680   42.1200 N   0  0  0  0  0  0  0  0  0  0  0  0
   38.0660   29.6900   41.0140 C   0  0  0  0  0  0  0  0  0  0  0  0
   37.0970   28.9310   40.4510 N   0  0  0  0  0  0  0  0  0  0  0  0
   36.0020   27.1360   40.5420 H   0  0  0  0  0  0  0  0  0  0  0  0
   39.0140   27.8460   43.5220 H   0  0  0  0  0  0  0  0  0  0  0  0
   37.1820   31.6930   39.8330 C   0  0  2  0  0  0  0  0  0  0  0  0
   38.4260   30.9900   40.4520 C   0  0  1  0  0  0  0  0  0  0  0  0
   38.7840   31.9430   41.3440 O   0  0  0  0  0  0  0  0  0  0  0  0
   38.7480   33.1500   40.7040 C   0  0  0  0  0  0  0  0  0  0  0  0
   37.8800   33.0140   39.4800 C   0  0  2  0  0  0  0  0  0  0  0  0
   36.8270   31.1600   38.9410 H   0  0  0  0  0  0  0  0  0  0  0  0
   39.1880   30.8610   39.6700 H   0  0  0  0  0  0  0  0  0  0  0  0
   38.2220   33.8850   41.3760 H   0  0  0  0  0  0  0  0  0  0  0  0
   39.7390   33.5760   40.5140 H   0  0  0  0  0  0  0  0  0  0  0  0
   38.5450   32.8190   38.6050 H   0  0  0  0  0  0  0  0  0  0  0  0
   36.2710   31.9540   40.7860 O   0  0  0  0  0  0  0  0  0  0  0  0
   35.3900   32.1300   40.3650 H   0  0  0  0  0  0  0  0  0  0  0  0
   36.9960   34.0470   39.3030 O   0  0  0  0  0  0  0  0  0  0  0  0
   36.7650   34.0570   38.3300 H   0  0  0  0  0  0  0  0  0  0  0  0
  1  2  1  0  0  0  0
  1  3  1  0  0  0  0
  4  1  1  0  0  0  0
  5 10  1  0  0  0  0
  5  4  2  0  0  0  0
  6  5  1  0  0  0  0
  7  6  2  0  0  0  0
  7  8  1  0  0  0  0
  8  9  2  0  0  0  0
  9  4  1  0  0  0  0
  9 14  1  0  0  0  0
 11  6  1  0  0  0  0
 12  7  1  0  0  0  0
 13  8  1  0  0  0  0
 14 15  1  0  0  0  0
 15 17  2  0  0  0  0
 15 16  1  0  0  0  0
 18 19  1  0  0  0  0
 18 17  1  0  0  0  0
 20 21  1  0  0  0  0
 20 19  2  0  0  0  0
 22 20  1  0  0  0  0
 23 22  2  0  0  0  0
 23 24  1  0  0  0  0
 24 18  2  0  0  0  0
 25 24  1  0  0  0  0
 25 14  2  0  0  0  0
 26 27  1  0  0  0  0
 27 28  2  0  0  0  0
 27  1  1  0  0  0  0
 28 33  1  0  0  0  0
 29 28  1  0  0  0  0
 30 29  2  0  0  0  0
 31 26  2  0  0  0  0
 31 30  1  0  0  0  0
 32 26  1  0  0  0  0
 34 39  1  6  0  0  0
 34 35  1  0  0  0  0
 34 44  1  0  0  0  0
 35 40  1  6  0  0  0
 35 30  1  0  0  0  0
 35 36  1  0  0  0  0
 37 36  1  0  0  0  0
 37 41  1  0  0  0  0
 38 43  1  6  0  0  0
 38 34  1  0  0  0  0
 38 37  1  0  0  0  0
 42 37  1  0  0  0  0
 45 44  1  0  0  0  0
 46 38  1  0  0  0  0
 47 46  1  0  0  0  0
M  END
>  <minimizedAffinity>
-7.02610874

$$$$

 OpenBabel03252503483D

 47 51  0  0  1  0  0  0  0  0999 V2000
   36.6200   30.4330   41.3070 C   0  0  0  0  0  0  0  0  0  0  0  0
   35.7600   30.7490   40.6930 H   0  0  0  0  0  0  0  0  0  0  0  0
   36.4600   30.9240   42.3060 H   0  0  0  0  0  0  0  0  0  0  0  0
   36.7530   28.9890   41.5250 C   0  0  0  0  0  0  0  0  0  0  0  0
   37.0700   28.3960   42.7240 C   0  0  0  0  0  0  0  0  0  0  0  0
   37.2040   27.0320   42.8760 C   0  0  0  0  0  0  0  0  0  0  0  0
   37.0130   26.2330   41.7780 C   0  0  0  0  0  0  0  0  0  0  0  0
   36.6900   26.8130   40.5520 C   0  0  0  0  0  0  0  0  0  0  0  0
   36.5550   28.2080   40.4120 C   0  0  0  0  0  0  0  0  0  0  0  0
   37.2050   29.1120   43.5470 H   0  0  0  0  0  0  0  0  0  0  0  0
   37.4550   26.7220   43.8780 H   0  0  0  0  0  0  0  0  0  0  0  0
   37.1340   25.1770   41.9650 H   0  0  0  0  0  0  0  0  0  0  0  0
   36.5770   26.0290   39.7980 H   0  0  0  0  0  0  0  0  0  0  0  0
   36.1680   28.4650   39.0400 C   0  0  0  0  0  0  0  0  0  0  0  0
   36.9620   28.5230   37.9170 C   0  0  0  0  0  0  0  0  0  0  0  0
   38.0170   28.3910   38.0500 H   0  0  0  0  0  0  0  0  0  0  0  0
   36.5010   28.7530   36.6450 C   0  0  0  0  0  3  0  0  0  0  0  0
   35.1510   28.9390   36.4760 C   0  0  0  0  0  0  0  0  0  0  0  0
   34.6770   29.1660   35.2370 N   0  0  0  0  0  0  0  0  0  0  0  0
   33.3430   29.3580   35.0190 C   0  0  0  0  0  0  0  0  0  0  0  0
   33.0270   29.5340   34.0110 H   0  0  0  0  0  0  0  0  0  0  0  0
   32.4650   29.3160   36.1030 C   0  0  0  0  0  3  0  0  0  0  0  0
   32.8900   29.0860   37.4020 C   0  0  0  0  0  3  0  0  0  0  0  0
   34.2520   28.9050   37.5200 C   0  0  0  0  0  0  0  0  0  0  0  0
   34.8140   28.6680   38.7560 C   0  0  0  0  0  3  0  0  0  0  0  0
   39.0710   30.7930   41.3280 C   0  0  0  0  0  0  0  0  0  0  0  0
   37.8350   30.9780   40.7170 C   0  0  0  0  0  0  0  0  0  0  0  0
   37.8180   31.7040   39.5260 C   0  0  0  0  0  0  0  0  0  0  0  0
   38.9560   32.2010   38.9920 N   0  0  0  0  0  0  0  0  0  0  0  0
   40.1400   31.9950   39.6210 C   0  0  0  0  0  0  0  0  0  0  0  0
   40.2010   31.2980   40.7800 N   0  0  0  0  0  0  0  0  0  0  0  0
   39.1260   30.2390   42.2460 H   0  0  0  0  0  0  0  0  0  0  0  0
   36.9560   31.9440   38.9550 H   0  0  0  0  0  0  0  0  0  0  0  0
   42.0240   31.4920   38.0760 C   0  0  2  0  0  0  0  0  0  0  0  0
   41.3480   32.5420   39.0060 C   0  0  1  0  0  0  0  0  0  0  0  0
   41.1580   33.5310   38.1030 O   0  0  0  0  0  0  0  0  0  0  0  0
   42.3160   33.6780   37.3930 C   0  0  0  0  0  0  0  0  0  0  0  0
   43.1250   32.4140   37.5340 C   0  0  2  0  0  0  0  0  0  0  0  0
   42.4340   30.6530   38.6540 H   0  0  0  0  0  0  0  0  0  0  0  0
   42.0630   32.8380   39.7870 H   0  0  0  0  0  0  0  0  0  0  0  0
   42.0480   33.7540   36.3020 H   0  0  0  0  0  0  0  0  0  0  0  0
   42.8630   34.5970   37.6300 H   0  0  0  0  0  0  0  0  0  0  0  0
   43.8660   32.5690   38.3540 H   0  0  0  0  0  0  0  0  0  0  0  0
   41.2100   31.1820   37.0530 O   0  0  0  0  0  0  0  0  0  0  0  0
   41.5070   30.3310   36.6370 H   0  0  0  0  0  0  0  0  0  0  0  0
   43.6630   31.9600   36.3580 O   0  0  0  0  0  0  0  0  0  0  0  0
   44.4440   31.3870   36.6080 H   0  0  0  0  0  0  0  0  0  0  0  0
  1  4  1  0  0  0  0
  1  3  1  0  0  0  0
  2  1  1  0  0  0  0
  4  5  1  0  0  0  0
  5  6  2  0  0  0  0
  5 10  1  0  0  0  0
  6 11  1  0  0  0  0
  7 12  1  0  0  0  0
  7  6  1  0  0  0  0
  8  7  2  0  0  0  0
  9  8  1  0  0  0  0
  9  4  2  0  0  0  0
 13  8  1  0  0  0  0
 14  9  1  0  0  0  0
 15 16  1  0  0  0  0
 15 14  2  0  0  0  0
 17 15  1  0  0  0  0
 18 17  2  0  0  0  0
 18 24  1  0  0  0  0
 19 18  1  0  0  0  0
 20 19  2  0  0  0  0
 20 22  1  0  0  0  0
 21 20  1  0  0  0  0
 22 23  2  0  0  0  0
 23 24  1  0  0  0  0
 24 25  2  0  0  0  0
 25 14  1  0  0  0  0
 26 32  1  0  0  0  0
 27  1  1  0  0  0  0
 27 26  2  0  0  0  0
 28 27  1  0  0  0  0
 29 28  2  0  0  0  0
 29 30  1  0  0  0  0
 30 31  2  0  0  0  0
 31 26  1  0  0  0  0
 33 28  1  0  0  0  0
 34 39  1  1  0  0  0
 34 35  1  0  0  0  0
 35 30  1  0  0  0  0
 35 40  1  1  0  0  0
 36 35  1  0  0  0  0
 37 38  1  0  0  0  0
 37 42  1  0  0  0  0
 37 36  1  0  0  0  0
 38 34  1  0  0  0  0
 38 43  1  1  0  0  0
 41 37  1  0  0  0  0
 44 34  1  0  0  0  0
 45 44  1  0  0  0  0
 46 47  1  0  0  0  0
 46 38  1  0  0  0  0
M  END
>  <minimizedAffinity>
-6.94287634

$$$$

 OpenBabel03252503483D

 47 51  0  0  1  0  0  0  0  0999 V2000
   36.7490   30.6930   41.4590 C   0  0  0  0  0  0  0  0  0  0  0  0
   35.8810   30.9740   40.8390 H   0  0  0  0  0  0  0  0  0  0  0  0
   36.6000   31.2420   42.4300 H   0  0  0  0  0  0  0  0  0  0  0  0
   36.8840   29.2640   41.7590 C   0  0  0  0  0  0  0  0  0  0  0  0
   37.3920   28.7460   42.9260 C   0  0  0  0  0  0  0  0  0  0  0  0
   37.5190   27.3920   43.1550 C   0  0  0  0  0  0  0  0  0  0  0  0
   37.1210   26.5260   42.1690 C   0  0  0  0  0  0  0  0  0  0  0  0
   36.6020   27.0300   40.9780 C   0  0  0  0  0  0  0  0  0  0  0  0
   36.4770   28.4150   40.7580 C   0  0  0  0  0  0  0  0  0  0  0  0
   37.6860   29.5130   43.6580 H   0  0  0  0  0  0  0  0  0  0  0  0
   37.9340   27.1440   44.1190 H   0  0  0  0  0  0  0  0  0  0  0  0
   37.2480   25.4810   42.4120 H   0  0  0  0  0  0  0  0  0  0  0  0
   36.3410   26.1990   40.3160 H   0  0  0  0  0  0  0  0  0  0  0  0
   35.8620   28.5890   39.4580 C   0  0  0  0  0  0  0  0  0  0  0  0
   34.5390   28.8120   39.1540 C   0  0  0  0  0  0  0  0  0  0  0  0
   33.8410   28.8400   39.9670 H   0  0  0  0  0  0  0  0  0  0  0  0
   34.0480   28.9880   37.8850 C   0  0  0  0  0  3  0  0  0  0  0  0
   34.9380   28.9370   36.8390 C   0  0  0  0  0  0  0  0  0  0  0  0
   34.4790   29.1070   35.5860 N   0  0  0  0  0  0  0  0  0  0  0  0
   35.3250   29.0640   34.5150 C   0  0  0  0  0  0  0  0  0  0  0  0
   34.8990   29.2060   33.5430 H   0  0  0  0  0  0  0  0  0  0  0  0
   36.6860   28.8400   34.7340 C   0  0  0  0  0  3  0  0  0  0  0  0
   37.2210   28.6590   35.9990 C   0  0  0  0  0  3  0  0  0  0  0  0
   36.2880   28.7190   37.0140 C   0  0  0  0  0  0  0  0  0  0  0  0
   36.6800   28.5550   38.3250 C   0  0  0  0  0  3  0  0  0  0  0  0
   37.9340   31.6610   39.5110 C   0  0  0  0  0  0  0  0  0  0  0  0
   37.9570   31.2020   40.8230 C   0  0  0  0  0  0  0  0  0  0  0  0
   39.1790   31.2520   41.4930 C   0  0  0  0  0  0  0  0  0  0  0  0
   40.2900   31.7290   40.8880 N   0  0  0  0  0  0  0  0  0  0  0  0
   40.2220   32.1680   39.6060 C   0  0  0  0  0  0  0  0  0  0  0  0
   39.0560   32.1350   38.9190 N   0  0  0  0  0  0  0  0  0  0  0  0
   37.0110   31.6390   38.9610 H   0  0  0  0  0  0  0  0  0  0  0  0
   39.3600   30.9230   42.4860 H   0  0  0  0  0  0  0  0  0  0  0  0
   42.0820   31.6220   38.0480 C   0  0  2  0  0  0  0  0  0  0  0  0
   41.4440   32.6840   38.9910 C   0  0  1  0  0  0  0  0  0  0  0  0
   41.2810   33.6870   38.0980 O   0  0  0  0  0  0  0  0  0  0  0  0
   42.4390   33.8050   37.3850 C   0  0  0  0  0  0  0  0  0  0  0  0
   43.2090   32.5160   37.5100 C   0  0  2  0  0  0  0  0  0  0  0  0
   42.4690   30.7660   38.6160 H   0  0  0  0  0  0  0  0  0  0  0  0
   42.1710   32.9500   39.7720 H   0  0  0  0  0  0  0  0  0  0  0  0
   42.1690   33.9000   36.2960 H   0  0  0  0  0  0  0  0  0  0  0  0
   43.0150   34.7050   37.6290 H   0  0  0  0  0  0  0  0  0  0  0  0
   43.9590   32.6400   38.3280 H   0  0  0  0  0  0  0  0  0  0  0  0
   41.2550   31.3480   37.0250 O   0  0  0  0  0  0  0  0  0  0  0  0
   41.5240   30.4930   36.6010 H   0  0  0  0  0  0  0  0  0  0  0  0
   43.7280   32.0570   36.3270 O   0  0  0  0  0  0  0  0  0  0  0  0
   44.4920   31.4580   36.5680 H   0  0  0  0  0  0  0  0  0  0  0  0
  1  4  1  0  0  0  0
  1  3  1  0  0  0  0
  2  1  1  0  0  0  0
  4  5  1  0  0  0  0
  5  6  2  0  0  0  0
  5 10  1  0  0  0  0
  6 11  1  0  0  0  0
  7 12  1  0  0  0  0
  7  6  1  0  0  0  0
  8  7  2  0  0  0  0
  9  8  1  0  0  0  0
  9  4  2  0  0  0  0
 13  8  1  0  0  0  0
 14  9  1  0  0  0  0
 15 14  1  0  0  0  0
 15 16  1  0  0  0  0
 17 15  2  0  0  0  0
 18 24  1  0  0  0  0
 18 17  1  0  0  0  0
 19 18  2  0  0  0  0
 20 22  2  0  0  0  0
 20 19  1  0  0  0  0
 21 20  1  0  0  0  0
 22 23  1  0  0  0  0
 23 24  2  0  0  0  0
 24 25  1  0  0  0  0
 25 14  2  0  0  0  0
 26 27  1  0  0  0  0
 27  1  1  0  0  0  0
 27 28  2  0  0  0  0
 28 33  1  0  0  0  0
 29 28  1  0  0  0  0
 30 29  2  0  0  0  0
 31 26  2  0  0  0  0
 31 30  1  0  0  0  0
 32 26  1  0  0  0  0
 34 39  1  1  0  0  0
 34 35  1  0  0  0  0
 35 30  1  0  0  0  0
 35 40  1  1  0  0  0
 36 35  1  0  0  0  0
 37 38  1  0  0  0  0
 37 42  1  0  0  0  0
 37 36  1  0  0  0  0
 38 34  1  0  0  0  0
 38 43  1  1  0  0  0
 41 37  1  0  0  0  0
 44 34  1  0  0  0  0
 45 44  1  0  0  0  0
 46 47  1  0  0  0  0
 46 38  1  0  0  0  0
M  END
>  <minimizedAffinity>
-6.91804314

$$$$

 OpenBabel03252503483D

 47 51  0  0  1  0  0  0  0  0999 V2000
   35.7990   28.8030   39.9200 C   0  0  0  0  0  0  0  0  0  0  0  0
   34.9140   29.4360   40.0960 H   0  0  0  0  0  0  0  0  0  0  0  0
   35.9430   28.2340   40.8800 H   0  0  0  0  0  0  0  0  0  0  0  0
   35.6850   27.8320   38.8270 C   0  0  0  0  0  0  0  0  0  0  0  0
   35.0060   28.0420   37.6500 C   0  0  0  0  0  0  0  0  0  0  0  0
   34.9090   27.0890   36.6580 C   0  0  0  0  0  0  0  0  0  0  0  0
   35.5180   25.8770   36.8590 C   0  0  0  0  0  0  0  0  0  0  0  0
   36.2120   25.6430   38.0450 C   0  0  0  0  0  0  0  0  0  0  0  0
   36.3040   26.6250   39.0490 C   0  0  0  0  0  0  0  0  0  0  0  0
   34.5510   29.0400   37.5770 H   0  0  0  0  0  0  0  0  0  0  0  0
   34.3440   27.4060   35.7960 H   0  0  0  0  0  0  0  0  0  0  0  0
   35.4020   25.1770   36.0450 H   0  0  0  0  0  0  0  0  0  0  0  0
   36.6270   24.6300   38.0280 H   0  0  0  0  0  0  0  0  0  0  0  0
   37.1280   26.0800   40.1080 C   0  0  0  0  0  0  0  0  0  0  0  0
   36.7470   25.3300   41.1970 C   0  0  0  0  0  0  0  0  0  0  0  0
   35.7010   25.1290   41.3180 H   0  0  0  0  0  0  0  0  0  0  0  0
   37.6060   24.8340   42.1440 C   0  0  0  0  0  3  0  0  0  0  0  0
   38.9460   25.1040   42.0000 C   0  0  0  0  0  0  0  0  0  0  0  0
   39.8070   24.6280   42.9180 N   0  0  0  0  0  0  0  0  0  0  0  0
   41.1470   24.8710   42.8170 C   0  0  0  0  0  0  0  0  0  0  0  0
   41.7810   24.4650   43.5780 H   0  0  0  0  0  0  0  0  0  0  0  0
   41.6210   25.6250   41.7420 C   0  0  0  0  0  3  0  0  0  0  0  0
   40.7860   26.1430   40.7650 C   0  0  0  0  0  3  0  0  0  0  0  0
   39.4530   25.8450   40.9540 C   0  0  0  0  0  0  0  0  0  0  0  0
   38.5080   26.2960   40.0570 C   0  0  0  0  0  3  0  0  0  0  0  0
   36.9420   30.6640   38.7520 C   0  0  0  0  0  0  0  0  0  0  0  0
   36.9550   29.6670   39.7210 C   0  0  0  0  0  0  0  0  0  0  0  0
   38.1160   29.5370   40.4840 C   0  0  0  0  0  0  0  0  0  0  0  0
   39.1780   30.3490   40.2860 N   0  0  0  0  0  0  0  0  0  0  0  0
   39.1220   31.3100   39.3300 C   0  0  0  0  0  0  0  0  0  0  0  0
   38.0150   31.4690   38.5660 N   0  0  0  0  0  0  0  0  0  0  0  0
   36.0670   30.7970   38.1440 H   0  0  0  0  0  0  0  0  0  0  0  0
   38.2850   28.8150   41.2440 H   0  0  0  0  0  0  0  0  0  0  0  0
   40.8040   32.1180   37.6850 C   0  0  2  0  0  0  0  0  0  0  0  0
   40.2890   32.1720   39.1540 C   0  0  1  0  0  0  0  0  0  0  0  0
   40.0630   33.5030   39.2480 O   0  0  0  0  0  0  0  0  0  0  0  0
   41.1480   34.1500   38.7280 C   0  0  0  0  0  0  0  0  0  0  0  0
   41.8930   33.1890   37.8380 C   0  0  2  0  0  0  0  0  0  0  0  0
   41.2230   31.1320   37.4460 H   0  0  0  0  0  0  0  0  0  0  0  0
   41.0970   31.8490   39.8260 H   0  0  0  0  0  0  0  0  0  0  0  0
   40.7730   34.9700   38.0530 H   0  0  0  0  0  0  0  0  0  0  0  0
   41.7670   34.6450   39.4830 H   0  0  0  0  0  0  0  0  0  0  0  0
   42.7230   32.7400   38.4340 H   0  0  0  0  0  0  0  0  0  0  0  0
   39.8720   32.6010   36.8460 O   0  0  0  0  0  0  0  0  0  0  0  0
   40.0750   32.3080   35.9200 H   0  0  0  0  0  0  0  0  0  0  0  0
   42.2800   33.7250   36.6370 O   0  0  0  0  0  0  0  0  0  0  0  0
   43.0490   33.1710   36.3160 H   0  0  0  0  0  0  0  0  0  0  0  0
  1  2  1  0  0  0  0
  1  3  1  0  0  0  0
  4  9  1  0  0  0  0
  4  1  1  0  0  0  0
  5  4  2  0  0  0  0
  6  7  2  0  0  0  0
  6  5  1  0  0  0  0
  7  8  1  0  0  0  0
  8  9  2  0  0  0  0
  9 14  1  0  0  0  0
 10  5  1  0  0  0  0
 11  6  1  0  0  0  0
 12  7  1  0  0  0  0
 13  8  1  0  0  0  0
 14 15  1  0  0  0  0
 15 16  1  0  0  0  0
 15 17  2  0  0  0  0
 18 17  1  0  0  0  0
 18 19  1  0  0  0  0
 20 19  2  0  0  0  0
 20 21  1  0  0  0  0
 22 20  1  0  0  0  0
 23 24  1  0  0  0  0
 23 22  2  0  0  0  0
 24 18  2  0  0  0  0
 25 14  2  0  0  0  0
 25 24  1  0  0  0  0
 26 27  1  0  0  0  0
 27  1  1  0  0  0  0
 27 28  2  0  0  0  0
 28 33  1  0  0  0  0
 29 28  1  0  0  0  0
 30 29  2  0  0  0  0
 31 26  2  0  0  0  0
 31 30  1  0  0  0  0
 32 26  1  0  0  0  0
 34 39  1  6  0  0  0
 34 38  1  0  0  0  0
 34 35  1  0  0  0  0
 35 36  1  0  0  0  0
 35 30  1  0  0  0  0
 35 40  1  1  0  0  0
 37 36  1  0  0  0  0
 37 42  1  0  0  0  0
 38 43  1  1  0  0  0
 38 37  1  0  0  0  0
 41 37  1  0  0  0  0
 44 34  1  0  0  0  0
 45 44  1  0  0  0  0
 46 38  1  0  0  0  0
 47 46  1  0  0  0  0
M  END
>  <minimizedAffinity>
-6.79661989

$$$$

 OpenBabel03252503483D

 47 51  0  0  1  0  0  0  0  0999 V2000
   37.3800   27.7200   42.0080 C   0  0  0  0  0  0  0  0  0  0  0  0
   36.5990   27.5040   41.2610 H   0  0  0  0  0  0  0  0  0  0  0  0
   36.8210   28.0680   42.9200 H   0  0  0  0  0  0  0  0  0  0  0  0
   38.2250   26.5860   42.3970 C   0  0  0  0  0  0  0  0  0  0  0  0
   39.2020   26.6210   43.3630 C   0  0  0  0  0  0  0  0  0  0  0  0
   39.9860   25.5320   43.6790 C   0  0  0  0  0  0  0  0  0  0  0  0
   39.7790   24.3610   42.9950 C   0  0  0  0  0  0  0  0  0  0  0  0
   38.7940   24.3030   42.0120 C   0  0  0  0  0  0  0  0  0  0  0  0
   37.9990   25.4220   41.7000 C   0  0  0  0  0  0  0  0  0  0  0  0
   39.2970   27.5980   43.8580 H   0  0  0  0  0  0  0  0  0  0  0  0
   40.7060   25.7190   44.4600 H   0  0  0  0  0  0  0  0  0  0  0  0
   40.4270   23.5490   43.2910 H   0  0  0  0  0  0  0  0  0  0  0  0
   38.7740   23.2990   41.5780 H   0  0  0  0  0  0  0  0  0  0  0  0
   37.0530   25.0070   40.6850 C   0  0  0  0  0  0  0  0  0  0  0  0
   36.2920   23.8620   40.6340 C   0  0  0  0  0  0  0  0  0  0  0  0
   36.4140   23.1500   41.4250 H   0  0  0  0  0  0  0  0  0  0  0  0
   35.3990   23.5610   39.6360 C   0  0  0  0  0  3  0  0  0  0  0  0
   35.2520   24.4650   38.6120 C   0  0  0  0  0  0  0  0  0  0  0  0
   34.3830   24.1900   37.6220 N   0  0  0  0  0  0  0  0  0  0  0  0
   34.2040   25.0570   36.5830 C   0  0  0  0  0  0  0  0  0  0  0  0
   33.4970   24.7830   35.8260 H   0  0  0  0  0  0  0  0  0  0  0  0
   34.9370   26.2450   36.5550 C   0  0  0  0  0  3  0  0  0  0  0  0
   35.8470   26.5860   37.5430 C   0  0  0  0  0  3  0  0  0  0  0  0
   35.9580   25.6470   38.5480 C   0  0  0  0  0  0  0  0  0  0  0  0
   36.8280   25.8550   39.5970 C   0  0  0  0  0  3  0  0  0  0  0  0
   39.0080   28.6720   40.4020 C   0  0  0  0  0  0  0  0  0  0  0  0
   38.1950   28.8240   41.5200 C   0  0  0  0  0  0  0  0  0  0  0  0
   38.2000   30.0720   42.1440 C   0  0  0  0  0  0  0  0  0  0  0  0
   38.9610   31.0860   41.6750 N   0  0  0  0  0  0  0  0  0  0  0  0
   39.7380   30.8940   40.5800 C   0  0  0  0  0  0  0  0  0  0  0  0
   39.7650   29.6980   39.9460 N   0  0  0  0  0  0  0  0  0  0  0  0
   39.0320   27.7260   39.8930 H   0  0  0  0  0  0  0  0  0  0  0  0
   37.6510   30.3370   43.0130 H   0  0  0  0  0  0  0  0  0  0  0  0
   40.7380   31.9430   38.5590 C   0  0  2  0  0  0  0  0  0  0  0  0
   40.5400   32.0180   40.1020 C   0  0  1  0  0  0  0  0  0  0  0  0
   39.9580   33.2380   40.1790 O   0  0  0  0  0  0  0  0  0  0  0  0
   40.6770   34.0950   39.3950 C   0  0  0  0  0  0  0  0  0  0  0  0
   41.4740   33.2830   38.4080 C   0  0  2  0  0  0  0  0  0  0  0  0
   41.3700   31.0900   38.2800 H   0  0  0  0  0  0  0  0  0  0  0  0
   41.5260   32.0080   40.5880 H   0  0  0  0  0  0  0  0  0  0  0  0
   39.9490   34.6990   38.7830 H   0  0  0  0  0  0  0  0  0  0  0  0
   41.2640   34.8230   39.9650 H   0  0  0  0  0  0  0  0  0  0  0  0
   42.5020   33.1490   38.8210 H   0  0  0  0  0  0  0  0  0  0  0  0
   39.5560   32.0530   37.9300 O   0  0  0  0  0  0  0  0  0  0  0  0
   39.6430   31.7260   36.9980 H   0  0  0  0  0  0  0  0  0  0  0  0
   41.4340   33.7650   37.1250 O   0  0  0  0  0  0  0  0  0  0  0  0
   42.2490   33.4110   36.6660 H   0  0  0  0  0  0  0  0  0  0  0  0
  1  4  1  0  0  0  0
  1  3  1  0  0  0  0
  2  1  1  0  0  0  0
  4  5  1  0  0  0  0
  5  6  2  0  0  0  0
  5 10  1  0  0  0  0
  6 11  1  0  0  0  0
  7 12  1  0  0  0  0
  7  6  1  0  0  0  0
  8  7  2  0  0  0  0
  9  8  1  0  0  0  0
  9  4  2  0  0  0  0
 13  8  1  0  0  0  0
 14  9  1  0  0  0  0
 15 14  1  0  0  0  0
 15 16  1  0  0  0  0
 17 15  2  0  0  0  0
 18 17  1  0  0  0  0
 19 18  2  0  0  0  0
 20 19  1  0  0  0  0
 21 20  1  0  0  0  0
 22 20  2  0  0  0  0
 22 23  1  0  0  0  0
 23 24  2  0  0  0  0
 24 18  1  0  0  0  0
 24 25  1  0  0  0  0
 25 14  2  0  0  0  0
 26 27  1  0  0  0  0
 27  1  1  0  0  0  0
 27 28  2  0  0  0  0
 28 33  1  0  0  0  0
 29 28  1  0  0  0  0
 30 29  2  0  0  0  0
 31 26  2  0  0  0  0
 31 30  1  0  0  0  0
 32 26  1  0  0  0  0
 34 39  1  6  0  0  0
 34 35  1  0  0  0  0
 35 36  1  0  0  0  0
 35 30  1  0  0  0  0
 35 40  1  1  0  0  0
 37 42  1  0  0  0  0
 37 36  1  0  0  0  0
 38 34  1  0  0  0  0
 38 43  1  1  0  0  0
 38 37  1  0  0  0  0
 41 37  1  0  0  0  0
 44 34  1  0  0  0  0
 45 44  1  0  0  0  0
 46 38  1  0  0  0  0
 47 46  1  0  0  0  0
M  END
>  <minimizedAffinity>
-6.66508007

$$$$

 OpenBabel03252503483D

 47 51  0  0  1  0  0  0  0  0999 V2000
   37.1680   28.4310   36.4060 C   0  0  0  0  0  0  0  0  0  0  0  0
   37.5940   27.4650   36.7240 H   0  0  0  0  0  0  0  0  0  0  0  0
   37.3230   28.4640   35.2920 H   0  0  0  0  0  0  0  0  0  0  0  0
   35.7380   28.6180   36.6720 C   0  0  0  0  0  0  0  0  0  0  0  0
   34.8170   29.0790   35.7610 C   0  0  0  0  0  0  0  0  0  0  0  0
   33.4840   29.2580   36.0650 C   0  0  0  0  0  0  0  0  0  0  0  0
   33.0610   28.9620   37.3360 C   0  0  0  0  0  0  0  0  0  0  0  0
   33.9780   28.4930   38.2750 C   0  0  0  0  0  0  0  0  0  0  0  0
   35.3360   28.3130   37.9500 C   0  0  0  0  0  0  0  0  0  0  0  0
   35.2460   29.2890   34.7710 H   0  0  0  0  0  0  0  0  0  0  0  0
   32.8900   29.6250   35.2430 H   0  0  0  0  0  0  0  0  0  0  0  0
   32.0080   29.1260   37.5060 H   0  0  0  0  0  0  0  0  0  0  0  0
   33.4640   28.3130   39.2240 H   0  0  0  0  0  0  0  0  0  0  0  0
   35.9890   27.7710   39.1240 C   0  0  0  0  0  0  0  0  0  0  0  0
   36.3710   26.4730   39.3750 C   0  0  0  0  0  0  0  0  0  0  0  0
   36.1450   25.7370   38.6300 H   0  0  0  0  0  0  0  0  0  0  0  0
   37.0090   26.0520   40.5150 C   0  0  0  0  0  3  0  0  0  0  0  0
   37.2860   26.9910   41.4790 C   0  0  0  0  0  0  0  0  0  0  0  0
   37.9100   26.6010   42.6060 N   0  0  0  0  0  0  0  0  0  0  0  0
   38.2060   27.4970   43.5920 C   0  0  0  0  0  0  0  0  0  0  0  0
   38.7030   27.1260   44.4640 H   0  0  0  0  0  0  0  0  0  0  0  0
   37.8520   28.8370   43.4200 C   0  0  0  0  0  3  0  0  0  0  0  0
   37.2080   29.3020   42.2840 C   0  0  0  0  0  3  0  0  0  0  0  0
   36.9530   28.3220   41.3470 C   0  0  0  0  0  0  0  0  0  0  0  0
   36.3160   28.6420   40.1670 C   0  0  0  0  0  3  0  0  0  0  0  0
   39.1610   29.2360   37.6360 C   0  0  0  0  0  0  0  0  0  0  0  0
   37.9480   29.5020   37.0100 C   0  0  0  0  0  0  0  0  0  0  0  0
   37.5200   30.8300   36.9920 C   0  0  0  0  0  0  0  0  0  0  0  0
   38.2580   31.8110   37.5570 N   0  0  0  0  0  0  0  0  0  0  0  0
   39.4370   31.5070   38.1550 C   0  0  0  0  0  0  0  0  0  0  0  0
   39.8880   30.2310   38.1980 N   0  0  0  0  0  0  0  0  0  0  0  0
   39.5260   28.2260   37.6720 H   0  0  0  0  0  0  0  0  0  0  0  0
   36.6130   31.1860   36.5710 H   0  0  0  0  0  0  0  0  0  0  0  0
   40.3380   32.4160   40.2880 C   0  0  2  0  0  0  0  0  0  0  0  0
   40.2080   32.5990   38.7470 C   0  0  1  0  0  0  0  0  0  0  0  0
   41.5220   32.6370   38.4280 O   0  0  0  0  0  0  0  0  0  0  0  0
   42.1430   33.4750   39.3100 C   0  0  0  0  0  0  0  0  0  0  0  0
   41.2700   33.6120   40.5310 C   0  0  2  0  0  0  0  0  0  0  0  0
   39.3690   32.5380   40.7870 H   0  0  0  0  0  0  0  0  0  0  0  0
   39.7130   33.5590   38.5430 H   0  0  0  0  0  0  0  0  0  0  0  0
   43.0880   32.9740   39.6600 H   0  0  0  0  0  0  0  0  0  0  0  0
   42.4560   34.4260   38.8670 H   0  0  0  0  0  0  0  0  0  0  0  0
   40.6610   34.5400   40.4180 H   0  0  0  0  0  0  0  0  0  0  0  0
   41.0280   31.2970   40.5680 O   0  0  0  0  0  0  0  0  0  0  0  0
   40.8670   31.0350   41.5120 H   0  0  0  0  0  0  0  0  0  0  0  0
   41.9510   33.5180   41.7180 O   0  0  0  0  0  0  0  0  0  0  0  0
   41.3870   33.9810   42.4030 H   0  0  0  0  0  0  0  0  0  0  0  0
  1  4  1  0  0  0  0
  1  2  1  0  0  0  0
  1 27  1  0  0  0  0
  3  1  1  0  0  0  0
  4  9  1  0  0  0  0
  5  6  1  0  0  0  0
  5  4  2  0  0  0  0
  6  7  2  0  0  0  0
  7 12  1  0  0  0  0
  7  8  1  0  0  0  0
  8 13  1  0  0  0  0
  9  8  2  0  0  0  0
  9 14  1  0  0  0  0
 10  5  1  0  0  0  0
 11  6  1  0  0  0  0
 14 15  2  0  0  0  0
 14 25  1  0  0  0  0
 15 17  1  0  0  0  0
 16 15  1  0  0  0  0
 17 18  2  0  0  0  0
 18 19  1  0  0  0  0
 19 20  2  0  0  0  0
 20 21  1  0  0  0  0
 22 20  1  0  0  0  0
 23 22  2  0  0  0  0
 24 18  1  0  0  0  0
 24 23  1  0  0  0  0
 25 24  2  0  0  0  0
 26 32  1  0  0  0  0
 26 31  1  0  0  0  0
 27 26  2  0  0  0  0
 28 27  1  0  0  0  0
 28 29  2  0  0  0  0
 29 30  1  0  0  0  0
 30 31  2  0  0  0  0
 30 35  1  0  0  0  0
 33 28  1  0  0  0  0
 34 38  1  0  0  0  0
 34 44  1  0  0  0  0
 34 39  1  1  0  0  0
 35 40  1  6  0  0  0
 35 34  1  0  0  0  0
 36 35  1  0  0  0  0
 36 37  1  0  0  0  0
 37 41  1  0  0  0  0
 37 38  1  0  0  0  0
 38 43  1  6  0  0  0
 38 46  1  0  0  0  0
 42 37  1  0  0  0  0
 44 45  1  0  0  0  0
 46 47  1  0  0  0  0
M  END
>  <minimizedAffinity>
-6.55008316

$$$$

 OpenBabel03252503483D

 47 51  0  0  1  0  0  0  0  0999 V2000
   36.1780   30.0000   40.6750 C   0  0  0  0  0  0  0  0  0  0  0  0
   35.2690   30.5430   40.9840 H   0  0  0  0  0  0  0  0  0  0  0  0
   36.9290   30.8040   40.4400 H   0  0  0  0  0  0  0  0  0  0  0  0
   36.7640   29.1090   41.6810 C   0  0  0  0  0  0  0  0  0  0  0  0
   36.1410   28.0110   42.2250 C   0  0  0  0  0  0  0  0  0  0  0  0
   36.7270   27.2130   43.1850 C   0  0  0  0  0  0  0  0  0  0  0  0
   37.9880   27.5330   43.6150 C   0  0  0  0  0  0  0  0  0  0  0  0
   38.6400   28.6410   43.0770 C   0  0  0  0  0  0  0  0  0  0  0  0
   38.0300   29.4470   42.0960 C   0  0  0  0  0  0  0  0  0  0  0  0
   35.1340   27.8320   41.8210 H   0  0  0  0  0  0  0  0  0  0  0  0
   36.1100   26.3900   43.5100 H   0  0  0  0  0  0  0  0  0  0  0  0
   38.3870   26.8690   44.3680 H   0  0  0  0  0  0  0  0  0  0  0  0
   39.6270   28.7400   43.5360 H   0  0  0  0  0  0  0  0  0  0  0  0
   38.9890   30.4660   41.7220 C   0  0  0  0  0  0  0  0  0  0  0  0
   38.8800   31.4380   40.7540 C   0  0  0  0  0  0  0  0  0  0  0  0
   37.9860   31.4500   40.1620 H   0  0  0  0  0  0  0  0  0  0  0  0
   39.8370   32.3830   40.4830 C   0  0  0  0  0  3  0  0  0  0  0  0
   40.9900   32.3600   41.2300 C   0  0  0  0  0  0  0  0  0  0  0  0
   41.9440   33.2770   40.9820 N   0  0  0  0  0  0  0  0  0  0  0  0
   43.1060   33.2940   41.6970 C   0  0  0  0  0  0  0  0  0  0  0  0
   43.8260   34.0480   41.4530 H   0  0  0  0  0  0  0  0  0  0  0  0
   43.3010   32.3420   42.6990 C   0  0  0  0  0  3  0  0  0  0  0  0
   42.3580   31.3720   43.0040 C   0  0  0  0  0  3  0  0  0  0  0  0
   41.2200   31.4370   42.2280 C   0  0  0  0  0  0  0  0  0  0  0  0
   40.1980   30.5320   42.4210 C   0  0  0  0  0  3  0  0  0  0  0  0
   34.5750   29.0020   39.0720 C   0  0  0  0  0  0  0  0  0  0  0  0
   35.8860   29.2710   39.4490 C   0  0  0  0  0  0  0  0  0  0  0  0
   36.8970   28.8110   38.6030 C   0  0  0  0  0  0  0  0  0  0  0  0
   36.6070   28.1370   37.4690 N   0  0  0  0  0  0  0  0  0  0  0  0
   35.3130   27.8980   37.1390 C   0  0  0  0  0  0  0  0  0  0  0  0
   34.3020   28.3240   37.9320 N   0  0  0  0  0  0  0  0  0  0  0  0
   33.7680   29.3390   39.6960 H   0  0  0  0  0  0  0  0  0  0  0  0
   37.9410   28.9210   38.7630 H   0  0  0  0  0  0  0  0  0  0  0  0
   35.4730   28.0110   34.6590 C   0  0  2  0  0  0  0  0  0  0  0  0
   35.0430   27.1730   35.8990 C   0  0  1  0  0  0  0  0  0  0  0  0
   35.7990   26.0710   35.6790 O   0  0  0  0  0  0  0  0  0  0  0  0
   35.6670   25.7290   34.3640 C   0  0  0  0  0  0  0  0  0  0  0  0
   35.1770   26.9350   33.6040 C   0  0  2  0  0  0  0  0  0  0  0  0
   34.8350   28.8960   34.5370 H   0  0  0  0  0  0  0  0  0  0  0  0
   33.9700   26.9490   35.8230 H   0  0  0  0  0  0  0  0  0  0  0  0
   36.6930   25.5040   33.9590 H   0  0  0  0  0  0  0  0  0  0  0  0
   35.0770   24.8200   34.2030 H   0  0  0  0  0  0  0  0  0  0  0  0
   34.0680   26.8550   33.5080 H   0  0  0  0  0  0  0  0  0  0  0  0
   36.8010   28.2170   34.6720 O   0  0  0  0  0  0  0  0  0  0  0  0
   37.0260   28.9680   34.0640 H   0  0  0  0  0  0  0  0  0  0  0  0
   35.8370   27.1580   32.4230 O   0  0  0  0  0  0  0  0  0  0  0  0
   35.2200   27.7030   31.8550 H   0  0  0  0  0  0  0  0  0  0  0  0
  1  2  1  0  0  0  0
  1  4  1  0  0  0  0
  3  1  1  0  0  0  0
  4  9  2  0  0  0  0
  4  5  1  0  0  0  0
  5  6  2  0  0  0  0
  6 11  1  0  0  0  0
  6  7  1  0  0  0  0
  7 12  1  0  0  0  0
  8 13  1  0  0  0  0
  8  7  2  0  0  0  0
  9  8  1  0  0  0  0
 10  5  1  0  0  0  0
 14  9  1  0  0  0  0
 14 25  1  0  0  0  0
 15 14  2  0  0  0  0
 16 15  1  0  0  0  0
 17 15  1  0  0  0  0
 17 18  2  0  0  0  0
 18 24  1  0  0  0  0
 19 18  1  0  0  0  0
 19 20  2  0  0  0  0
 20 22  1  0  0  0  0
 21 20  1  0  0  0  0
 22 23  2  0  0  0  0
 24 25  2  0  0  0  0
 24 23  1  0  0  0  0
 26 27  1  0  0  0  0
 26 32  1  0  0  0  0
 27  1  1  0  0  0  0
 28 33  1  0  0  0  0
 28 27  2  0  0  0  0
 29 28  1  0  0  0  0
 30 29  2  0  0  0  0
 30 31  1  0  0  0  0
 31 26  2  0  0  0  0
 34 39  1  6  0  0  0
 34 44  1  0  0  0  0
 34 35  1  0  0  0  0
 35 40  1  6  0  0  0
 35 30  1  0  0  0  0
 36 35  1  0  0  0  0
 37 36  1  0  0  0  0
 38 43  1  6  0  0  0
 38 37  1  0  0  0  0
 38 34  1  0  0  0  0
 41 37  1  0  0  0  0
 42 37  1  0  0  0  0
 45 44  1  0  0  0  0
 46 38  1  0  0  0  0
 47 46  1  0  0  0  0
M  END
>  <minimizedAffinity>
-6.44294643

$$$$

 OpenBabel03252503483D

 47 51  0  0  1  0  0  0  0  0999 V2000
   37.0440   26.2200   42.5950 C   0  0  0  0  0  0  0  0  0  0  0  0
   36.5520   27.1720   42.8530 H   0  0  0  0  0  0  0  0  0  0  0  0
   36.6060   25.4650   43.3040 H   0  0  0  0  0  0  0  0  0  0  0  0
   36.8270   25.7380   41.2260 C   0  0  0  0  0  0  0  0  0  0  0  0
   36.7330   24.4180   40.8580 C   0  0  0  0  0  0  0  0  0  0  0  0
   36.5480   24.0130   39.5530 C   0  0  0  0  0  0  0  0  0  0  0  0
   36.4550   24.9750   38.5800 C   0  0  0  0  0  0  0  0  0  0  0  0
   36.5460   26.3200   38.9310 C   0  0  0  0  0  0  0  0  0  0  0  0
   36.7340   26.7200   40.2680 C   0  0  0  0  0  0  0  0  0  0  0  0
   36.8190   23.7180   41.7020 H   0  0  0  0  0  0  0  0  0  0  0  0
   36.4930   22.9430   39.4260 H   0  0  0  0  0  0  0  0  0  0  0  0
   36.3120   24.5900   37.5810 H   0  0  0  0  0  0  0  0  0  0  0  0
   36.4520   26.9370   38.0330 H   0  0  0  0  0  0  0  0  0  0  0  0
   36.7330   28.1680   40.2870 C   0  0  0  0  0  0  0  0  0  0  0  0
   35.7390   29.0240   40.7060 C   0  0  0  0  0  0  0  0  0  0  0  0
   34.8210   28.5880   41.0450 H   0  0  0  0  0  0  0  0  0  0  0  0
   35.8360   30.3920   40.7080 C   0  0  0  0  0  3  0  0  0  0  0  0
   37.0070   30.9540   40.2590 C   0  0  0  0  0  0  0  0  0  0  0  0
   37.1240   32.2940   40.2510 N   0  0  0  0  0  0  0  0  0  0  0  0
   38.2670   32.8970   39.8140 C   0  0  0  0  0  0  0  0  0  0  0  0
   38.3000   33.9680   39.8320 H   0  0  0  0  0  0  0  0  0  0  0  0
   39.3270   32.1040   39.3690 C   0  0  0  0  0  3  0  0  0  0  0  0
   39.2690   30.7200   39.3520 C   0  0  0  0  0  3  0  0  0  0  0  0
   38.0750   30.2050   39.8120 C   0  0  0  0  0  0  0  0  0  0  0  0
   37.8770   28.8410   39.8510 C   0  0  0  0  0  3  0  0  0  0  0  0
   39.2830   25.2180   42.9410 C   0  0  0  0  0  0  0  0  0  0  0  0
   38.4680   26.3430   42.8760 C   0  0  0  0  0  0  0  0  0  0  0  0
   39.0750   27.5810   43.0920 C   0  0  0  0  0  0  0  0  0  0  0  0
   40.3980   27.6750   43.3500 N   0  0  0  0  0  0  0  0  0  0  0  0
   41.1560   26.5520   43.4030 C   0  0  0  0  0  0  0  0  0  0  0  0
   40.6070   25.3310   43.2020 N   0  0  0  0  0  0  0  0  0  0  0  0
   38.8540   24.2470   42.7810 H   0  0  0  0  0  0  0  0  0  0  0  0
   38.5860   28.5230   43.0930 H   0  0  0  0  0  0  0  0  0  0  0  0
   43.3580   25.4000   43.3090 C   0  0  2  0  0  0  0  0  0  0  0  0
   42.5840   26.7000   43.6770 C   0  0  1  0  0  0  0  0  0  0  0  0
   43.2530   27.5730   42.8880 O   0  0  0  0  0  0  0  0  0  0  0  0
   44.5890   27.3350   43.0390 C   0  0  0  0  0  0  0  0  0  0  0  0
   44.7660   25.9440   43.5910 C   0  0  2  0  0  0  0  0  0  0  0  0
   43.0910   24.5740   43.9810 H   0  0  0  0  0  0  0  0  0  0  0  0
   42.7390   26.9160   44.7430 H   0  0  0  0  0  0  0  0  0  0  0  0
   45.0590   27.3240   42.0160 H   0  0  0  0  0  0  0  0  0  0  0  0
   45.1130   28.1170   43.5990 H   0  0  0  0  0  0  0  0  0  0  0  0
   44.8790   26.0240   44.6980 H   0  0  0  0  0  0  0  0  0  0  0  0
   43.2690   25.1610   41.9890 O   0  0  0  0  0  0  0  0  0  0  0  0
   43.5060   24.2150   41.8060 H   0  0  0  0  0  0  0  0  0  0  0  0
   45.7480   25.2160   42.9690 O   0  0  0  0  0  0  0  0  0  0  0  0
   46.0300   24.5100   43.6190 H   0  0  0  0  0  0  0  0  0  0  0  0
  1  2  1  0  0  0  0
  1 27  1  0  0  0  0
  1  3  1  0  0  0  0
  4  1  1  0  0  0  0
  5  4  1  0  0  0  0
  5 10  1  0  0  0  0
  6  5  2  0  0  0  0
  7  8  2  0  0  0  0
  7  6  1  0  0  0  0
  8  9  1  0  0  0  0
  9 14  1  0  0  0  0
  9  4  2  0  0  0  0
 11  6  1  0  0  0  0
 12  7  1  0  0  0  0
 13  8  1  0  0  0  0
 14 15  1  0  0  0  0
 15 17  2  0  0  0  0
 15 16  1  0  0  0  0
 18 17  1  0  0  0  0
 19 18  1  0  0  0  0
 20 21  1  0  0  0  0
 20 19  2  0  0  0  0
 22 20  1  0  0  0  0
 23 22  2  0  0  0  0
 23 24  1  0  0  0  0
 24 25  1  0  0  0  0
 24 18  2  0  0  0  0
 25 14  2  0  0  0  0
 26 31  1  0  0  0  0
 27 26  2  0  0  0  0
 27 28  1  0  0  0  0
 28 33  1  0  0  0  0
 28 29  2  0  0  0  0
 29 30  1  0  0  0  0
 30 35  1  0  0  0  0
 31 30  2  0  0  0  0
 32 26  1  0  0  0  0
 34 38  1  0  0  0  0
 34 35  1  0  0  0  0
 34 39  1  1  0  0  0
 35 40  1  1  0  0  0
 36 37  1  0  0  0  0
 36 35  1  0  0  0  0
 37 38  1  0  0  0  0
 37 42  1  0  0  0  0
 38 43  1  1  0  0  0
 41 37  1  0  0  0  0
 44 34  1  0  0  0  0
 45 44  1  0  0  0  0
 46 38  1  0  0  0  0
 46 47  1  0  0  0  0
M  END
>  <minimizedAffinity>
-6.4381628

$$$$
