
     RDKit          3D

 41 44  0  0  0  0  0  0  0  0999 V2000
   46.8513   34.8651   42.6925 C   0  0  0  0  0  0  0  0  0  0  0  0
   48.0681   34.5356   42.0748 C   0  0  0  0  0  0  0  0  0  0  0  0
   48.7742   33.4648   42.6033 C   0  0  0  0  0  0  0  0  0  0  0  0
   48.2392   32.8165   43.6746 N   0  0  0  0  0  0  0  0  0  0  0  0
   47.0802   33.1504   44.2426 C   0  0  0  0  0  0  0  0  0  0  0  0
   46.3660   34.1895   43.7525 N   0  0  0  0  0  0  0  0  0  0  0  0
   45.9852   30.3735   43.5963 Cl  0  0  0  0  0  0  0  0  0  0  0  0
   46.0564   31.1327   45.1946 C   0  0  0  0  0  0  0  0  0  0  0  0
   46.5754   32.4065   45.3868 C   0  0  0  0  0  0  0  0  0  0  0  0
   46.6160   32.9660   46.6390 C   0  0  0  0  0  0  0  0  0  0  0  0
   46.1306   32.2439   47.7209 C   0  0  0  0  0  0  0  0  0  0  0  0
   45.6240   30.9843   47.4896 C   0  0  0  0  0  0  0  0  0  0  0  0
   45.0251   30.1158   48.8853 Cl  0  0  0  0  0  0  0  0  0  0  0  0
   45.5662   30.3903   46.2519 C   0  0  0  0  0  0  0  0  0  0  0  0
   48.4967   35.3228   40.9466 C   0  0  0  0  0  0  0  0  0  0  0  0
   48.1453   34.6123   39.6718 C   0  0  0  0  0  0  0  0  0  0  0  0
   46.2204   35.6733   42.3702 H   0  0  0  0  0  0  0  0  0  0  0  0
   49.7085   33.1808   42.1602 H   0  0  0  0  0  0  0  0  0  0  0  0
   47.0206   33.9632   46.8000 H   0  0  0  0  0  0  0  0  0  0  0  0
   46.1567   32.6743   48.7155 H   0  0  0  0  0  0  0  0  0  0  0  0
   45.1521   29.3958   46.1576 H   0  0  0  0  0  0  0  0  0  0  0  0
   49.5792   35.5446   41.0334 H   0  0  0  0  0  0  0  0  0  0  0  0
   47.9896   36.3017   40.9188 H   0  0  0  0  0  0  0  0  0  0  0  0
   47.0212   34.5607   39.6500 H   0  0  0  0  0  0  0  0  0  0  0  0
   48.3933   35.3050   38.8267 H   0  0  0  0  0  0  0  0  0  0  0  0
   48.7552   33.2879   39.5127 C   0  0  0  0  0  0  0  0  0  0  0  0
   48.0416   32.1154   39.3677 C   0  0  0  0  0  0  0  0  0  0  0  0
   46.9603   32.1545   39.3690 H   0  0  0  0  0  0  0  0  0  0  0  0
   48.7626   30.9364   39.2267 C   0  0  0  0  0  0  0  0  0  0  0  0
   50.1620   30.9409   39.2317 C   0  0  0  0  0  0  0  0  0  0  0  0
   50.8584   29.7974   39.0947 N   0  0  0  0  0  0  0  0  0  0  0  0
   52.2037   29.7692   39.0957 C   0  0  0  0  0  0  0  0  0  0  0  0
   52.8151   28.9016   38.9920 H   0  0  0  0  0  0  0  0  0  0  0  0
   52.9024   30.9440   39.2408 C   0  0  0  0  0  0  0  0  0  0  0  0
   52.2492   32.1563   39.3861 C   0  0  0  0  0  0  0  0  0  0  0  0
   50.8545   32.1212   39.3774 C   0  0  0  0  0  0  0  0  0  0  0  0
   50.1504   33.3084   39.5196 C   0  0  0  0  0  0  0  0  0  0  0  0
   48.2329   30.0014   39.1112 H   0  0  0  0  0  0  0  0  0  0  0  0
   53.9754   31.0275   39.2543 H   0  0  0  0  0  0  0  0  0  0  0  0
   52.7623   33.0984   39.5024 H   0  0  0  0  0  0  0  0  0  0  0  0
   50.7402   34.2126   39.6315 H   0  0  0  0  0  0  0  0  0  0  0  0
  1  6  2  0
  2  3  2  0
  2  1  1  0
  3  4  1  0
  4  5  2  0
  5  9  1  0
  6  5  1  0
  7  8  1  0
  8  9  2  0
  8 14  1  0
  9 10  1  0
 10 11  2  0
 12 11  1  0
 12 13  1  0
 14 12  2  0
 15  2  1  0
 16 15  1  0
  1 17  1  0
  3 18  1  0
 10 19  1  0
 11 20  1  0
 14 21  1  0
 15 22  1  0
 15 23  1  0
 16 24  1  0
 16 25  1  0
 26 27  2  0
 27 28  1  0
 27 29  1  0
 29 30  2  0
 30 31  1  0
 31 32  2  0
 32 33  1  0
 32 34  1  0
 34 35  2  0
 35 36  1  0
 36 37  2  0
 37 26  1  0
 36 30  1  0
 29 38  1  0
 34 39  1  0
 35 40  1  0
 37 41  1  0
 16 26  1  0
M  ISO  8  17  14  18  14  19  14  20  14  21  14  22   8  23   8  24   8
M  ISO  3  25   8  28  16  33  16
M  END
>  <DihAtoms>  (1) 
14,15,25,26

>  <DihDeg>  (1) 
90.00066849188713

$$$$
