
 OpenBabel03242518053D

 23 25  0  0  0  0  0  0  0  0999 V2000
   46.7520   34.7100   42.2600 C   0  0  0  0  0  0  0  0  0  0  0  0
   47.9620   35.2900   41.9390 C   0  0  0  0  0  0  0  0  0  0  0  0
   48.4230   35.8330   42.7540 H   0  0  0  0  0  0  0  0  0  0  0  0
   48.4800   35.1480   40.6690 C   0  0  0  0  0  0  0  0  0  0  0  0
   47.8310   34.4370   39.6790 C   0  0  0  0  0  0  0  0  0  0  0  0
   48.4060   34.3480   38.4650 N   0  0  0  0  0  0  0  0  0  0  0  0
   47.7840   33.6530   37.4810 C   0  0  0  0  0  0  0  0  0  0  0  0
   48.1830   33.5380   36.4830 H   0  0  0  0  0  0  0  0  0  0  0  0
   46.5740   33.0700   37.7920 C   0  0  0  0  0  0  0  0  0  0  0  0
   45.9510   33.1380   39.0220 C   0  0  0  0  0  0  0  0  0  0  0  0
   46.6150   33.8540   40.0040 C   0  0  0  0  0  0  0  0  0  0  0  0
   46.0710   33.9840   41.2800 C   0  0  0  0  0  0  0  0  0  0  0  0
   45.0970   35.7280   43.8630 C   0  0  0  0  0  0  0  0  0  0  0  0
   46.0440   34.7440   43.5360 C   0  0  0  0  0  0  0  0  0  0  0  0
   46.3370   33.7270   44.4840 C   0  0  0  0  0  0  0  0  0  0  0  0
   45.6590   33.7870   45.6640 N   0  0  0  0  0  0  0  0  0  0  0  0
   44.7600   34.7380   45.9510 C   0  0  0  0  0  0  0  0  0  0  0  0
   44.4880   35.6990   45.0470 N   0  0  0  0  0  0  0  0  0  0  0  0
   44.8130   36.7360   42.9140 N   0  0  0  0  0  0  0  0  0  0  0  0
   47.0610   32.9540   44.2630 H   0  0  0  0  0  0  0  0  0  0  0  0
   44.2890   34.6770   46.9220 H   0  0  0  0  0  0  0  0  0  0  0  0
   43.8460   37.1680   42.9210 H   0  0  0  0  0  0  0  0  0  0  0  0
   45.4610   37.1140   42.1870 H   0  0  0  0  0  0  0  0  0  0  0  0
  1 14  1  0  0  0  0
  2  1  1  0  0  0  0
  2  3  1  0  0  0  0
  4  2  2  0  0  0  0
  5 11  1  0  0  0  0
  5  4  1  0  0  0  0
  6  5  2  0  0  0  0
  7  9  2  0  0  0  0
  7  6  1  0  0  0  0
  8  7  1  0  0  0  0
  9 10  1  0  0  0  0
 10 11  2  0  0  0  0
 11 12  1  0  0  0  0
 12  1  2  0  0  0  0
 13 18  1  0  0  0  0
 14 13  2  0  0  0  0
 14 15  1  0  0  0  0
 15 16  2  0  0  0  0
 16 17  1  0  0  0  0
 17 21  1  0  0  0  0
 18 17  2  0  0  0  0
 19 22  1  0  0  0  0
 19 13  1  0  0  0  0
 20 15  1  0  0  0  0
 23 19  1  0  0  0  0
M  END
>  <minimizedAffinity>
-5.9607296

>  <minimizedRMSD>
1.2823205

$$$$
