REMARK  Name = 
REMARK  2 active torsions:
REMARK  status: ('A' for Active; 'I' for Inactive)
REMARK    1  A    between atoms: C_1  and  C_19
REMARK    2  A    between atoms: C_5  and  C_7
REMARK                            x       y       z     vdW  Elec       q    Type
REMARK                         _______ _______ _______ _____ _____    ______ ____
ROOT
ATOM      1  C   UNL     1      45.624  33.944  45.440  0.00  0.00    +0.000 A 
ATOM      2  C   UNL     1      44.714  34.970  45.694  0.00  0.00    +0.000 A 
ATOM      3  C   UNL     1      44.521  35.944  44.688  0.00  0.00    +0.000 A 
ATOM      4  N   UNL     1      45.235  35.835  43.512  0.00  0.00    +0.000 NA
ATOM      5  C   UNL     1      46.104  34.812  43.332  0.00  0.00    +0.000 A 
ATOM      6  N   UNL     1      46.288  33.897  44.273  0.00  0.00    +0.000 NA
ATOM      7  H   UNL     1      44.159  35.064  46.592  0.00  0.00    +0.000 HD
ATOM      8  H   UNL     1      43.837  36.750  44.830  0.00  0.00    +0.000 HD
ENDROOT
BRANCH   1   9
ATOM      9  C   UNL     1      45.861  32.914  46.444  0.00  0.00    +0.000 A 
ATOM     10  C   UNL     1      45.763  33.083  47.795  0.00  0.00    +0.000 A 
ATOM     11  H   UNL     1      45.488  34.054  48.178  0.00  0.00    +0.000 HD
ATOM     12  C   UNL     1      46.005  32.050  48.687  0.00  0.00    +0.000 A 
ATOM     13  C   UNL     1      46.359  30.794  48.241  0.00  0.00    +0.000 A 
ATOM     14  N   UNL     1      46.603  29.761  49.072  0.00  0.00    +0.000 NA
ATOM     15  C   UNL     1      46.950  28.537  48.592  0.00  0.00    +0.000 A 
ATOM     16  H   UNL     1      47.152  27.690  49.234  0.00  0.00    +0.000 HD
ATOM     17  C   UNL     1      47.065  28.305  47.220  0.00  0.00    +0.000 A 
ATOM     18  C   UNL     1      46.822  29.342  46.345  0.00  0.00    +0.000 A 
ATOM     19  C   UNL     1      46.469  30.579  46.892  0.00  0.00    +0.000 A 
ATOM     20  C   UNL     1      46.218  31.639  46.052  0.00  0.00    +0.000 A 
ENDBRANCH   1   9
BRANCH   5  21
ATOM     21  C   UNL     1      46.834  34.727  42.081  0.00  0.00    +0.000 A 
ATOM     22  C   UNL     1      48.009  35.405  41.900  0.00  0.00    +0.000 A 
ATOM     23  C   UNL     1      48.775  35.395  40.754  0.00  0.00    +0.000 A 
ATOM     24  C   UNL     1      48.251  34.610  39.735  0.00  0.00    +0.000 A 
ATOM     25  C   UNL     1      47.065  33.909  39.880  0.00  0.00    +0.000 A 
ATOM     26  N   UNL     1      46.359  33.971  41.059  0.00  0.00    +0.000 NA
ATOM     27  H   UNL     1      48.361  36.000  42.739  0.00  0.00    +0.000 HD
ATOM     28  H   UNL     1      49.688  35.957  40.693  0.00  0.00    +0.000 HD
ATOM     29  H   UNL     1      48.797  34.552  38.801  0.00  0.00    +0.000 HD
ATOM     30  H   UNL     1      46.691  33.307  39.060  0.00  0.00    +0.000 HD
ENDBRANCH   5  21
TORSDOF 2
