
 OpenBabel03242520323D

 28 31  0  0  1  0  0  0  0  0999 V2000
   39.3570   30.5930   41.3430 C   0  0  1  0  0  0  0  0  0  0  0  0
   40.0000   30.6670   42.6540 C   0  0  0  0  0  0  0  0  0  0  0  0
   38.6890   29.9570   42.5400 C   0  0  2  0  0  0  0  0  0  0  0  0
   39.7970   29.9000   40.5810 H   0  0  0  0  0  0  0  0  0  0  0  0
   40.8830   30.0150   42.9120 H   0  0  0  0  0  0  0  0  0  0  0  0
   39.9730   31.5790   43.2860 H   0  0  0  0  0  0  0  0  0  0  0  0
   37.7530   30.4640   42.8570 H   0  0  0  0  0  0  0  0  0  0  0  0
   38.7270   28.4700   42.5660 C   0  0  0  0  0  0  0  0  0  0  0  0
   39.5790   27.7250   43.3630 C   0  0  0  0  0  0  0  0  0  0  0  0
   40.2610   28.2860   44.0120 H   0  0  0  0  0  0  0  0  0  0  0  0
   39.5700   26.3470   43.3440 C   0  0  0  0  0  3  0  0  0  0  0  0
   38.6880   25.6810   42.5050 C   0  0  0  0  0  0  0  0  0  0  0  0
   38.6310   24.3230   42.4400 N   0  0  0  0  0  0  0  0  0  0  0  0
   37.7730   23.6910   41.6270 C   0  0  0  0  0  0  0  0  0  0  0  0
   37.7500   22.6080   41.5960 H   0  0  0  0  0  0  0  0  0  0  0  0
   36.8810   24.3600   40.7890 C   0  0  0  0  0  3  0  0  0  0  0  0
   36.9140   25.7410   40.8320 C   0  0  0  0  0  3  0  0  0  0  0  0
   37.8120   26.3770   41.6840 C   0  0  0  0  0  0  0  0  0  0  0  0
   37.8660   27.7610   41.7470 C   0  0  0  0  0  3  0  0  0  0  0  0
   37.6410   31.6790   39.8420 C   0  0  0  0  0  0  0  0  0  0  0  0
   38.7240   31.7910   40.7510 C   0  0  0  0  0  0  0  0  0  0  0  0
   39.1680   33.0770   41.0520 C   0  0  0  0  0  0  0  0  0  0  0  0
   38.5500   34.1420   40.4660 N   0  0  0  0  0  0  0  0  0  0  0  0
   37.5180   34.0010   39.6010 C   0  0  0  0  0  0  0  0  0  0  0  0
   37.0610   32.7560   39.2880 N   0  0  0  0  0  0  0  0  0  0  0  0
   37.2700   30.6950   39.5850 H   0  0  0  0  0  0  0  0  0  0  0  0
   39.9910   33.2100   41.7410 H   0  0  0  0  0  0  0  0  0  0  0  0
   37.1770   34.9640   39.2560 H   0  0  0  0  0  0  0  0  0  0  0  0
  1  4  1  6  0  0  0
  1  3  1  0  0  0  0
  1  2  1  0  0  0  0
  2  5  1  0  0  0  0
  2  6  1  0  0  0  0
  3  8  1  0  0  0  0
  3  2  1  0  0  0  0
  3  7  1  1  0  0  0
  8  9  1  0  0  0  0
  9 10  1  0  0  0  0
 11  9  2  0  0  0  0
 12 11  1  0  0  0  0
 13 12  1  0  0  0  0
 14 13  2  0  0  0  0
 15 14  1  0  0  0  0
 16 17  2  0  0  0  0
 16 14  1  0  0  0  0
 17 18  1  0  0  0  0
 18 19  1  0  0  0  0
 18 12  2  0  0  0  0
 19  8  2  0  0  0  0
 20 21  1  0  0  0  0
 21 22  2  0  0  0  0
 21  1  1  0  0  0  0
 22 27  1  0  0  0  0
 23 22  1  0  0  0  0
 24 23  2  0  0  0  0
 25 24  1  0  0  0  0
 25 20  2  0  0  0  0
 26 20  1  0  0  0  0
 28 24  1  0  0  0  0
M  END
>  <minimizedAffinity>
-5.41922188

$$$$

 OpenBabel03242520323D

 28 31  0  0  1  0  0  0  0  0999 V2000
   38.4700   29.7910   41.4360 C   0  0  1  0  0  0  0  0  0  0  0  0
   38.4230   29.5180   42.8720 C   0  0  0  0  0  0  0  0  0  0  0  0
   37.2550   29.1160   42.0300 C   0  0  2  0  0  0  0  0  0  0  0  0
   39.1420   29.1580   40.8030 H   0  0  0  0  0  0  0  0  0  0  0  0
   39.0080   28.6680   43.3260 H   0  0  0  0  0  0  0  0  0  0  0  0
   38.1970   30.3010   43.6250 H   0  0  0  0  0  0  0  0  0  0  0  0
   36.3390   29.7420   42.0160 H   0  0  0  0  0  0  0  0  0  0  0  0
   37.1220   27.6680   41.7150 C   0  0  0  0  0  0  0  0  0  0  0  0
   37.3180   26.6490   42.6310 C   0  0  0  0  0  0  0  0  0  0  0  0
   37.5870   26.9490   43.6500 H   0  0  0  0  0  0  0  0  0  0  0  0
   37.1820   25.3230   42.2800 C   0  0  0  0  0  3  0  0  0  0  0  0
   36.8420   24.9920   40.9760 C   0  0  0  0  0  0  0  0  0  0  0  0
   36.6920   23.7030   40.5680 N   0  0  0  0  0  0  0  0  0  0  0  0
   36.3620   23.3960   39.3060 C   0  0  0  0  0  0  0  0  0  0  0  0
   36.2500   22.3600   39.0090 H   0  0  0  0  0  0  0  0  0  0  0  0
   36.1470   24.3560   38.3180 C   0  0  0  0  0  3  0  0  0  0  0  0
   36.2900   25.6770   38.7010 C   0  0  0  0  0  3  0  0  0  0  0  0
   36.6340   25.9730   40.0160 C   0  0  0  0  0  0  0  0  0  0  0  0
   36.7840   27.2890   40.4270 C   0  0  0  0  0  3  0  0  0  0  0  0
   37.2820   31.5160   40.0250 C   0  0  0  0  0  0  0  0  0  0  0  0
   38.3180   31.1720   40.9320 C   0  0  0  0  0  0  0  0  0  0  0  0
   39.1870   32.1910   41.3150 C   0  0  0  0  0  0  0  0  0  0  0  0
   39.0010   33.4430   40.8070 N   0  0  0  0  0  0  0  0  0  0  0  0
   38.0030   33.7380   39.9430 C   0  0  0  0  0  0  0  0  0  0  0  0
   37.1360   32.7630   39.5500 N   0  0  0  0  0  0  0  0  0  0  0  0
   36.5880   30.7490   39.7050 H   0  0  0  0  0  0  0  0  0  0  0  0
   39.9910   31.9750   42.0050 H   0  0  0  0  0  0  0  0  0  0  0  0
   38.0350   34.7800   39.6660 H   0  0  0  0  0  0  0  0  0  0  0  0
  1  4  1  6  0  0  0
  1  3  1  0  0  0  0
  1  2  1  0  0  0  0
  2  5  1  0  0  0  0
  2  6  1  0  0  0  0
  3  7  1  1  0  0  0
  3  2  1  0  0  0  0
  8  3  1  0  0  0  0
  8  9  1  0  0  0  0
  9 10  1  0  0  0  0
 11  9  2  0  0  0  0
 12 11  1  0  0  0  0
 13 12  1  0  0  0  0
 14 13  2  0  0  0  0
 15 14  1  0  0  0  0
 16 17  2  0  0  0  0
 16 14  1  0  0  0  0
 17 18  1  0  0  0  0
 18 19  1  0  0  0  0
 18 12  2  0  0  0  0
 19  8  2  0  0  0  0
 20 21  1  0  0  0  0
 21 22  2  0  0  0  0
 21  1  1  0  0  0  0
 22 27  1  0  0  0  0
 23 22  1  0  0  0  0
 24 23  2  0  0  0  0
 25 24  1  0  0  0  0
 25 20  2  0  0  0  0
 26 20  1  0  0  0  0
 28 24  1  0  0  0  0
M  END
>  <minimizedAffinity>
-5.3107543

$$$$

 OpenBabel03242520323D

 28 31  0  0  1  0  0  0  0  0999 V2000
   37.4750   27.3280   41.0440 C   0  0  1  0  0  0  0  0  0  0  0  0
   36.5380   27.8120   42.0560 C   0  0  0  0  0  0  0  0  0  0  0  0
   37.9930   28.1150   42.2260 C   0  0  2  0  0  0  0  0  0  0  0  0
   37.4870   27.8420   40.0490 H   0  0  0  0  0  0  0  0  0  0  0  0
   35.8770   28.7040   41.8630 H   0  0  0  0  0  0  0  0  0  0  0  0
   36.1120   27.1560   42.8430 H   0  0  0  0  0  0  0  0  0  0  0  0
   38.6050   27.5170   42.9330 H   0  0  0  0  0  0  0  0  0  0  0  0
   38.4290   29.5020   41.9160 C   0  0  0  0  0  0  0  0  0  0  0  0
   39.6000   30.0740   42.3800 C   0  0  0  0  0  0  0  0  0  0  0  0
   40.2360   29.4470   43.0160 H   0  0  0  0  0  0  0  0  0  0  0  0
   39.9520   31.3680   42.0600 C   0  0  0  0  0  3  0  0  0  0  0  0
   39.1150   32.1240   41.2520 C   0  0  0  0  0  0  0  0  0  0  0  0
   39.4060   33.4060   40.9010 N   0  0  0  0  0  0  0  0  0  0  0  0
   38.5890   34.1260   40.1190 C   0  0  0  0  0  0  0  0  0  0  0  0
   38.8470   35.1450   39.8550 H   0  0  0  0  0  0  0  0  0  0  0  0
   37.3900   33.6320   39.6080 C   0  0  0  0  0  3  0  0  0  0  0  0
   37.0650   32.3310   39.9470 C   0  0  0  0  0  3  0  0  0  0  0  0
   37.9270   31.6020   40.7590 C   0  0  0  0  0  0  0  0  0  0  0  0
   37.6260   30.2960   41.1140 C   0  0  0  0  0  3  0  0  0  0  0  0
   38.9440   25.4400   40.2330 C   0  0  0  0  0  0  0  0  0  0  0  0
   37.8160   25.8910   40.9650 C   0  0  0  0  0  0  0  0  0  0  0  0
   37.0410   24.9200   41.5960 C   0  0  0  0  0  0  0  0  0  0  0  0
   37.4010   23.6100   41.4780 N   0  0  0  0  0  0  0  0  0  0  0  0
   38.4840   23.2120   40.7710 C   0  0  0  0  0  0  0  0  0  0  0  0
   39.2620   24.1390   40.1440 N   0  0  0  0  0  0  0  0  0  0  0  0
   39.5690   26.1670   39.7300 H   0  0  0  0  0  0  0  0  0  0  0  0
   36.1710   25.2180   42.1660 H   0  0  0  0  0  0  0  0  0  0  0  0
   38.5880   22.1390   40.8060 H   0  0  0  0  0  0  0  0  0  0  0  0
  1  4  1  6  0  0  0
  1  2  1  0  0  0  0
  1  3  1  0  0  0  0
  2  3  1  0  0  0  0
  2  6  1  0  0  0  0
  3  7  1  1  0  0  0
  5  2  1  0  0  0  0
  8  3  1  0  0  0  0
  8  9  1  0  0  0  0
  9 10  1  0  0  0  0
 11  9  2  0  0  0  0
 12 11  1  0  0  0  0
 13 12  1  0  0  0  0
 14 13  2  0  0  0  0
 15 14  1  0  0  0  0
 16 17  2  0  0  0  0
 16 14  1  0  0  0  0
 17 18  1  0  0  0  0
 18 19  1  0  0  0  0
 18 12  2  0  0  0  0
 19  8  2  0  0  0  0
 20 21  1  0  0  0  0
 21  1  1  0  0  0  0
 21 22  2  0  0  0  0
 22 27  1  0  0  0  0
 23 22  1  0  0  0  0
 24 28  1  0  0  0  0
 24 23  2  0  0  0  0
 25 20  2  0  0  0  0
 25 24  1  0  0  0  0
 26 20  1  0  0  0  0
M  END
>  <minimizedAffinity>
-5.30732298

$$$$

 OpenBabel03242520323D

 28 31  0  0  1  0  0  0  0  0999 V2000
   33.7070   28.6470   37.8190 C   0  0  1  0  0  0  0  0  0  0  0  0
   34.8260   27.8530   37.3160 C   0  0  0  0  0  0  0  0  0  0  0  0
   35.1050   29.2210   37.8520 C   0  0  2  0  0  0  0  0  0  0  0  0
   33.2560   28.3550   38.8020 H   0  0  0  0  0  0  0  0  0  0  0  0
   35.2570   27.0010   37.9150 H   0  0  0  0  0  0  0  0  0  0  0  0
   35.0390   27.7330   36.2330 H   0  0  0  0  0  0  0  0  0  0  0  0
   35.2610   30.0700   37.1540 H   0  0  0  0  0  0  0  0  0  0  0  0
   35.7220   29.2980   39.2030 C   0  0  0  0  0  0  0  0  0  0  0  0
   35.9570   30.4770   39.8870 C   0  0  0  0  0  0  0  0  0  0  0  0
   35.6610   31.4050   39.3850 H   0  0  0  0  0  0  0  0  0  0  0  0
   36.5350   30.4860   41.1390 C   0  0  0  0  0  3  0  0  0  0  0  0
   36.8940   29.2860   41.7350 C   0  0  0  0  0  0  0  0  0  0  0  0
   37.4670   29.2290   42.9670 N   0  0  0  0  0  0  0  0  0  0  0  0
   37.8090   28.0630   43.5330 C   0  0  0  0  0  0  0  0  0  0  0  0
   38.2650   28.0470   44.5170 H   0  0  0  0  0  0  0  0  0  0  0  0
   37.6110   26.8280   42.9160 C   0  0  0  0  0  3  0  0  0  0  0  0
   37.0300   26.8520   41.6620 C   0  0  0  0  0  3  0  0  0  0  0  0
   36.6830   28.0730   41.0940 C   0  0  0  0  0  0  0  0  0  0  0  0
   36.0980   28.1260   39.8380 C   0  0  0  0  0  3  0  0  0  0  0  0
   31.5130   29.8040   37.3440 C   0  0  0  0  0  0  0  0  0  0  0  0
   32.7330   29.2470   36.8820 C   0  0  0  0  0  0  0  0  0  0  0  0
   32.9660   29.2820   35.5090 C   0  0  0  0  0  0  0  0  0  0  0  0
   32.0240   29.8400   34.6950 N   0  0  0  0  0  0  0  0  0  0  0  0
   30.8690   30.3630   35.1680 C   0  0  0  0  0  0  0  0  0  0  0  0
   30.6140   30.3440   36.5060 N   0  0  0  0  0  0  0  0  0  0  0  0
   31.2990   29.7940   38.4050 H   0  0  0  0  0  0  0  0  0  0  0  0
   33.8830   28.8690   35.1120 H   0  0  0  0  0  0  0  0  0  0  0  0
   30.2690   30.7510   34.3600 H   0  0  0  0  0  0  0  0  0  0  0  0
  1  3  1  0  0  0  0
  1  4  1  1  0  0  0
  2  1  1  0  0  0  0
  2  3  1  0  0  0  0
  2  5  1  0  0  0  0
  3  7  1  6  0  0  0
  3  8  1  0  0  0  0
  6  2  1  0  0  0  0
  8 19  2  0  0  0  0
  8  9  1  0  0  0  0
  9 11  2  0  0  0  0
 10  9  1  0  0  0  0
 11 12  1  0  0  0  0
 12 13  1  0  0  0  0
 13 14  2  0  0  0  0
 14 15  1  0  0  0  0
 16 14  1  0  0  0  0
 17 16  2  0  0  0  0
 18 17  1  0  0  0  0
 18 12  2  0  0  0  0
 19 18  1  0  0  0  0
 20 26  1  0  0  0  0
 21 20  1  0  0  0  0
 21  1  1  0  0  0  0
 22 21  2  0  0  0  0
 23 24  2  0  0  0  0
 23 22  1  0  0  0  0
 24 25  1  0  0  0  0
 25 20  2  0  0  0  0
 27 22  1  0  0  0  0
 28 24  1  0  0  0  0
M  END
>  <minimizedAffinity>
-5.25826645

$$$$

 OpenBabel03242520323D

 28 31  0  0  1  0  0  0  0  0999 V2000
   34.5060   29.2020   37.8210 C   0  0  1  0  0  0  0  0  0  0  0  0
   34.3850   28.5300   36.5290 C   0  0  0  0  0  0  0  0  0  0  0  0
   33.1900   28.5720   37.4270 C   0  0  2  0  0  0  0  0  0  0  0  0
   34.5490   30.3220   37.8300 H   0  0  0  0  0  0  0  0  0  0  0  0
   34.2910   29.1160   35.5710 H   0  0  0  0  0  0  0  0  0  0  0  0
   34.7820   27.5110   36.3420 H   0  0  0  0  0  0  0  0  0  0  0  0
   32.9180   27.6810   38.0310 H   0  0  0  0  0  0  0  0  0  0  0  0
   32.1140   29.5340   37.0670 C   0  0  0  0  0  0  0  0  0  0  0  0
   31.1410   29.9810   37.9430 C   0  0  0  0  0  0  0  0  0  0  0  0
   31.1840   29.5900   38.9660 H   0  0  0  0  0  0  0  0  0  0  0  0
   30.1680   30.8740   37.5500 C   0  0  0  0  0  3  0  0  0  0  0  0
   30.1540   31.3400   36.2440 C   0  0  0  0  0  0  0  0  0  0  0  0
   29.2190   32.2220   35.7960 N   0  0  0  0  0  0  0  0  0  0  0  0
   29.2170   32.6660   34.5310 C   0  0  0  0  0  0  0  0  0  0  0  0
   28.4600   33.3680   34.2020 H   0  0  0  0  0  0  0  0  0  0  0  0
   30.1570   32.2680   33.5810 C   0  0  0  0  0  3  0  0  0  0  0  0
   31.1210   31.3730   34.0050 C   0  0  0  0  0  3  0  0  0  0  0  0
   31.1040   30.9250   35.3220 C   0  0  0  0  0  0  0  0  0  0  0  0
   32.0600   30.0270   35.7740 C   0  0  0  0  0  3  0  0  0  0  0  0
   35.2360   29.1080   40.2370 C   0  0  0  0  0  0  0  0  0  0  0  0
   35.2710   28.5780   38.9210 C   0  0  0  0  0  0  0  0  0  0  0  0
   36.0660   27.4520   38.7130 C   0  0  0  0  0  0  0  0  0  0  0  0
   36.7560   26.9280   39.7660 N   0  0  0  0  0  0  0  0  0  0  0  0
   36.7010   27.4580   41.0100 C   0  0  0  0  0  0  0  0  0  0  0  0
   35.9330   28.5580   41.2450 N   0  0  0  0  0  0  0  0  0  0  0  0
   34.6300   29.9820   40.4360 H   0  0  0  0  0  0  0  0  0  0  0  0
   36.1230   27.0140   37.7260 H   0  0  0  0  0  0  0  0  0  0  0  0
   37.3190   26.8930   41.6910 H   0  0  0  0  0  0  0  0  0  0  0  0
  1  4  1  6  0  0  0
  1 21  1  0  0  0  0
  2  3  1  0  0  0  0
  2  1  1  0  0  0  0
  3  1  1  0  0  0  0
  3  7  1  1  0  0  0
  5  2  1  0  0  0  0
  6  2  1  0  0  0  0
  8  3  1  0  0  0  0
  8  9  1  0  0  0  0
  9 10  1  0  0  0  0
 11  9  2  0  0  0  0
 12 11  1  0  0  0  0
 13 12  1  0  0  0  0
 14 13  2  0  0  0  0
 15 14  1  0  0  0  0
 16 17  2  0  0  0  0
 16 14  1  0  0  0  0
 17 18  1  0  0  0  0
 18 19  1  0  0  0  0
 18 12  2  0  0  0  0
 19  8  2  0  0  0  0
 20 26  1  0  0  0  0
 20 25  1  0  0  0  0
 21 20  2  0  0  0  0
 22 21  1  0  0  0  0
 22 23  2  0  0  0  0
 23 24  1  0  0  0  0
 24 25  2  0  0  0  0
 24 28  1  0  0  0  0
 27 22  1  0  0  0  0
M  END
>  <minimizedAffinity>
-5.15681982

$$$$

 OpenBabel03242520323D

 28 31  0  0  1  0  0  0  0  0999 V2000
   36.9560   27.1460   41.1860 C   0  0  1  0  0  0  0  0  0  0  0  0
   36.5800   27.5490   42.5390 C   0  0  0  0  0  0  0  0  0  0  0  0
   37.8170   28.1350   41.9370 C   0  0  2  0  0  0  0  0  0  0  0  0
   36.3520   27.5450   40.3310 H   0  0  0  0  0  0  0  0  0  0  0  0
   35.7380   28.2770   42.7210 H   0  0  0  0  0  0  0  0  0  0  0  0
   36.7620   26.9120   43.4300 H   0  0  0  0  0  0  0  0  0  0  0  0
   38.8140   27.7400   42.2220 H   0  0  0  0  0  0  0  0  0  0  0  0
   37.7270   29.5390   41.4550 C   0  0  0  0  0  0  0  0  0  0  0  0
   36.5500   30.1620   41.0780 C   0  0  0  0  0  0  0  0  0  0  0  0
   35.6340   29.5640   41.1480 H   0  0  0  0  0  0  0  0  0  0  0  0
   36.5290   31.4680   40.6390 C   0  0  0  0  0  3  0  0  0  0  0  0
   37.7150   32.1850   40.5670 C   0  0  0  0  0  0  0  0  0  0  0  0
   37.7600   33.4760   40.1410 N   0  0  0  0  0  0  0  0  0  0  0  0
   38.9120   34.1580   40.0780 C   0  0  0  0  0  0  0  0  0  0  0  0
   38.9180   35.1860   39.7350 H   0  0  0  0  0  0  0  0  0  0  0  0
   40.1440   33.6120   40.4360 C   0  0  0  0  0  3  0  0  0  0  0  0
   40.1320   32.3000   40.8730 C   0  0  0  0  0  3  0  0  0  0  0  0
   38.9250   31.6110   40.9320 C   0  0  0  0  0  0  0  0  0  0  0  0
   38.8840   30.2950   41.3670 C   0  0  0  0  0  3  0  0  0  0  0  0
   37.0790   24.6720   41.6830 C   0  0  0  0  0  0  0  0  0  0  0  0
   37.5090   25.7980   40.9340 C   0  0  0  0  0  0  0  0  0  0  0  0
   38.4810   25.5760   39.9600 C   0  0  0  0  0  0  0  0  0  0  0  0
   38.9600   24.3110   39.7810 N   0  0  0  0  0  0  0  0  0  0  0  0
   38.5270   23.2580   40.5140 C   0  0  0  0  0  0  0  0  0  0  0  0
   37.5770   23.4430   41.4730 N   0  0  0  0  0  0  0  0  0  0  0  0
   36.3250   24.8070   42.4480 H   0  0  0  0  0  0  0  0  0  0  0  0
   38.8390   26.4050   39.3650 H   0  0  0  0  0  0  0  0  0  0  0  0
   39.0330   22.3540   40.2130 H   0  0  0  0  0  0  0  0  0  0  0  0
  1  4  1  6  0  0  0
  1  3  1  0  0  0  0
  1  2  1  0  0  0  0
  2  5  1  0  0  0  0
  2  6  1  0  0  0  0
  3  7  1  1  0  0  0
  3  2  1  0  0  0  0
  8  3  1  0  0  0  0
  9 10  1  0  0  0  0
  9  8  2  0  0  0  0
 11  9  1  0  0  0  0
 12 11  2  0  0  0  0
 12 18  1  0  0  0  0
 13 12  1  0  0  0  0
 14 13  2  0  0  0  0
 14 16  1  0  0  0  0
 15 14  1  0  0  0  0
 16 17  2  0  0  0  0
 17 18  1  0  0  0  0
 18 19  2  0  0  0  0
 19  8  1  0  0  0  0
 20 26  1  0  0  0  0
 21  1  1  0  0  0  0
 21 20  2  0  0  0  0
 22 21  1  0  0  0  0
 23 22  2  0  0  0  0
 23 24  1  0  0  0  0
 24 25  2  0  0  0  0
 25 20  1  0  0  0  0
 27 22  1  0  0  0  0
 28 24  1  0  0  0  0
M  END
>  <minimizedAffinity>
-5.09590673

$$$$

 OpenBabel03242520323D

 28 31  0  0  1  0  0  0  0  0999 V2000
   37.2730   27.8020   40.7750 C   0  0  1  0  0  0  0  0  0  0  0  0
   35.9410   28.3340   41.0590 C   0  0  0  0  0  0  0  0  0  0  0  0
   37.1180   28.9460   41.7510 C   0  0  2  0  0  0  0  0  0  0  0  0
   37.7340   28.0420   39.7820 H   0  0  0  0  0  0  0  0  0  0  0  0
   35.4090   29.0040   40.3250 H   0  0  0  0  0  0  0  0  0  0  0  0
   35.2240   27.8280   41.7380 H   0  0  0  0  0  0  0  0  0  0  0  0
   37.3460   28.6750   42.8030 H   0  0  0  0  0  0  0  0  0  0  0  0
   37.5770   30.2680   41.2490 C   0  0  0  0  0  0  0  0  0  0  0  0
   36.7530   31.2050   40.6500 C   0  0  0  0  0  0  0  0  0  0  0  0
   35.6960   30.9360   40.5490 H   0  0  0  0  0  0  0  0  0  0  0  0
   37.2380   32.4150   40.2030 C   0  0  0  0  0  3  0  0  0  0  0  0
   38.5850   32.7100   40.3520 C   0  0  0  0  0  0  0  0  0  0  0  0
   39.1230   33.8870   39.9310 N   0  0  0  0  0  0  0  0  0  0  0  0
   40.4260   34.1610   40.0820 C   0  0  0  0  0  0  0  0  0  0  0  0
   40.8280   35.1070   39.7370 H   0  0  0  0  0  0  0  0  0  0  0  0
   41.3290   33.2770   40.6720 C   0  0  0  0  0  3  0  0  0  0  0  0
   40.8130   32.0720   41.1110 C   0  0  0  0  0  3  0  0  0  0  0  0
   39.4570   31.8090   40.9450 C   0  0  0  0  0  0  0  0  0  0  0  0
   38.9140   30.6070   41.3760 C   0  0  0  0  0  3  0  0  0  0  0  0
   36.9350   25.3120   41.0300 C   0  0  0  0  0  0  0  0  0  0  0  0
   37.6820   26.4860   41.3090 C   0  0  0  0  0  0  0  0  0  0  0  0
   38.8100   26.3420   42.1150 C   0  0  0  0  0  0  0  0  0  0  0  0
   39.1300   25.1020   42.5860 N   0  0  0  0  0  0  0  0  0  0  0  0
   38.3960   24.0020   42.3010 C   0  0  0  0  0  0  0  0  0  0  0  0
   37.2880   24.1110   41.5140 N   0  0  0  0  0  0  0  0  0  0  0  0
   36.0540   25.3860   40.4060 H   0  0  0  0  0  0  0  0  0  0  0  0
   39.4090   27.2100   42.3550 H   0  0  0  0  0  0  0  0  0  0  0  0
   38.8220   23.1290   42.7710 H   0  0  0  0  0  0  0  0  0  0  0  0
  1  4  1  6  0  0  0
  1  2  1  0  0  0  0
  1 21  1  0  0  0  0
  1  3  1  0  0  0  0
  2  6  1  0  0  0  0
  2  3  1  0  0  0  0
  3  7  1  1  0  0  0
  5  2  1  0  0  0  0
  8 19  1  0  0  0  0
  8  3  1  0  0  0  0
  9  8  2  0  0  0  0
 10  9  1  0  0  0  0
 11 12  2  0  0  0  0
 11  9  1  0  0  0  0
 12 18  1  0  0  0  0
 13 14  2  0  0  0  0
 13 12  1  0  0  0  0
 14 16  1  0  0  0  0
 15 14  1  0  0  0  0
 16 17  2  0  0  0  0
 18 17  1  0  0  0  0
 18 19  2  0  0  0  0
 20 21  2  0  0  0  0
 20 25  1  0  0  0  0
 21 22  1  0  0  0  0
 22 27  1  0  0  0  0
 22 23  2  0  0  0  0
 24 23  1  0  0  0  0
 24 28  1  0  0  0  0
 25 24  2  0  0  0  0
 26 20  1  0  0  0  0
M  END
>  <minimizedAffinity>
-4.96403408

$$$$

 OpenBabel03242520323D

 28 31  0  0  1  0  0  0  0  0999 V2000
   35.6680   28.6320   40.7480 C   0  0  1  0  0  0  0  0  0  0  0  0
   35.6540   29.9510   40.1180 C   0  0  0  0  0  0  0  0  0  0  0  0
   36.0620   28.7700   39.2960 C   0  0  2  0  0  0  0  0  0  0  0  0
   34.6840   28.1410   40.9620 H   0  0  0  0  0  0  0  0  0  0  0  0
   34.6870   30.4430   39.8100 H   0  0  0  0  0  0  0  0  0  0  0  0
   36.4570   30.7000   40.2730 H   0  0  0  0  0  0  0  0  0  0  0  0
   37.1370   28.5750   39.1000 H   0  0  0  0  0  0  0  0  0  0  0  0
   35.0650   28.2540   38.3210 C   0  0  0  0  0  0  0  0  0  0  0  0
   35.1240   27.0040   37.7310 C   0  0  0  0  0  0  0  0  0  0  0  0
   35.9680   26.3660   38.0150 H   0  0  0  0  0  0  0  0  0  0  0  0
   34.1680   26.5810   36.8320 C   0  0  0  0  0  3  0  0  0  0  0  0
   33.1170   27.4240   36.5030 C   0  0  0  0  0  0  0  0  0  0  0  0
   32.1430   27.0650   35.6240 N   0  0  0  0  0  0  0  0  0  0  0  0
   31.1320   27.8890   35.3150 C   0  0  0  0  0  0  0  0  0  0  0  0
   30.3700   27.5760   34.6100 H   0  0  0  0  0  0  0  0  0  0  0  0
   30.9940   29.1650   35.8590 C   0  0  0  0  0  3  0  0  0  0  0  0
   31.9680   29.5600   36.7570 C   0  0  0  0  0  3  0  0  0  0  0  0
   33.0080   28.6890   37.0640 C   0  0  0  0  0  0  0  0  0  0  0  0
   33.9980   29.0600   37.9620 C   0  0  0  0  0  3  0  0  0  0  0  0
   37.4390   29.2810   42.4280 C   0  0  0  0  0  0  0  0  0  0  0  0
   36.7230   28.2800   41.7220 C   0  0  0  0  0  0  0  0  0  0  0  0
   37.0660   26.9550   41.9820 C   0  0  0  0  0  0  0  0  0  0  0  0
   38.0550   26.6940   42.8850 N   0  0  0  0  0  0  0  0  0  0  0  0
   38.7190   27.6740   43.5410 C   0  0  0  0  0  0  0  0  0  0  0  0
   38.4060   28.9790   43.3090 N   0  0  0  0  0  0  0  0  0  0  0  0
   37.1990   30.3220   42.2510 H   0  0  0  0  0  0  0  0  0  0  0  0
   36.5460   26.1580   41.4680 H   0  0  0  0  0  0  0  0  0  0  0  0
   39.4580   27.2520   44.2050 H   0  0  0  0  0  0  0  0  0  0  0  0
  1  4  1  1  0  0  0
  1 21  1  0  0  0  0
  2  6  1  0  0  0  0
  2  1  1  0  0  0  0
  3  7  1  6  0  0  0
  3  2  1  0  0  0  0
  3  1  1  0  0  0  0
  5  2  1  0  0  0  0
  8  3  1  0  0  0  0
  9 10  1  0  0  0  0
  9  8  2  0  0  0  0
 11  9  1  0  0  0  0
 12 11  2  0  0  0  0
 12 18  1  0  0  0  0
 13 12  1  0  0  0  0
 14 13  2  0  0  0  0
 14 16  1  0  0  0  0
 15 14  1  0  0  0  0
 16 17  2  0  0  0  0
 17 18  1  0  0  0  0
 18 19  2  0  0  0  0
 19  8  1  0  0  0  0
 20 25  1  0  0  0  0
 21 22  1  0  0  0  0
 21 20  2  0  0  0  0
 22 23  2  0  0  0  0
 23 24  1  0  0  0  0
 24 28  1  0  0  0  0
 25 24  2  0  0  0  0
 26 20  1  0  0  0  0
 27 22  1  0  0  0  0
M  END
>  <minimizedAffinity>
-4.88601589

$$$$

 OpenBabel03242520323D

 28 31  0  0  1  0  0  0  0  0999 V2000
   36.1520   29.2200   39.1420 C   0  0  1  0  0  0  0  0  0  0  0  0
   35.0760   29.2930   40.1280 C   0  0  0  0  0  0  0  0  0  0  0  0
   35.7730   27.9850   39.9260 C   0  0  2  0  0  0  0  0  0  0  0  0
   37.1310   29.7010   39.3950 H   0  0  0  0  0  0  0  0  0  0  0  0
   35.2350   29.7760   41.1340 H   0  0  0  0  0  0  0  0  0  0  0  0
   34.0020   29.2870   39.8480 H   0  0  0  0  0  0  0  0  0  0  0  0
   35.2970   27.1910   39.3150 H   0  0  0  0  0  0  0  0  0  0  0  0
   36.7510   27.5790   40.9700 C   0  0  0  0  0  0  0  0  0  0  0  0
   36.6420   27.9060   42.3110 C   0  0  0  0  0  0  0  0  0  0  0  0
   35.7710   28.5030   42.6020 H   0  0  0  0  0  0  0  0  0  0  0  0
   37.5820   27.5010   43.2340 C   0  0  0  0  0  3  0  0  0  0  0  0
   38.6690   26.7460   42.8180 C   0  0  0  0  0  0  0  0  0  0  0  0
   39.6300   26.3170   43.6800 N   0  0  0  0  0  0  0  0  0  0  0  0
   40.6750   25.5870   43.2650 C   0  0  0  0  0  0  0  0  0  0  0  0
   41.4260   25.2590   43.9750 H   0  0  0  0  0  0  0  0  0  0  0  0
   40.8660   25.2130   41.9350 C   0  0  0  0  0  3  0  0  0  0  0  0
   39.9060   25.6340   41.0340 C   0  0  0  0  0  3  0  0  0  0  0  0
   38.8290   26.3900   41.4860 C   0  0  0  0  0  0  0  0  0  0  0  0
   37.8520   26.8250   40.6030 C   0  0  0  0  0  3  0  0  0  0  0  0
   36.8610   29.4590   36.7290 C   0  0  0  0  0  0  0  0  0  0  0  0
   35.8440   29.2440   37.6950 C   0  0  0  0  0  0  0  0  0  0  0  0
   34.5460   29.0680   37.2200 C   0  0  0  0  0  0  0  0  0  0  0  0
   34.3240   29.1100   35.8750 N   0  0  0  0  0  0  0  0  0  0  0  0
   35.3170   29.3180   34.9790 C   0  0  0  0  0  0  0  0  0  0  0  0
   36.5970   29.4930   35.4130 N   0  0  0  0  0  0  0  0  0  0  0  0
   37.8810   29.6000   37.0620 H   0  0  0  0  0  0  0  0  0  0  0  0
   33.7390   28.9010   37.9210 H   0  0  0  0  0  0  0  0  0  0  0  0
   34.9270   29.3140   33.9730 H   0  0  0  0  0  0  0  0  0  0  0  0
  1  4  1  1  0  0  0
  1  3  1  0  0  0  0
  1  2  1  0  0  0  0
  2  5  1  0  0  0  0
  3  7  1  6  0  0  0
  3  2  1  0  0  0  0
  3  8  1  0  0  0  0
  6  2  1  0  0  0  0
  8  9  1  0  0  0  0
  9 10  1  0  0  0  0
  9 11  2  0  0  0  0
 12 11  1  0  0  0  0
 12 13  1  0  0  0  0
 14 13  2  0  0  0  0
 14 15  1  0  0  0  0
 16 14  1  0  0  0  0
 17 18  1  0  0  0  0
 17 16  2  0  0  0  0
 18 12  2  0  0  0  0
 19  8  2  0  0  0  0
 19 18  1  0  0  0  0
 20 26  1  0  0  0  0
 20 21  1  0  0  0  0
 21  1  1  0  0  0  0
 22 21  2  0  0  0  0
 22 27  1  0  0  0  0
 23 22  1  0  0  0  0
 24 25  1  0  0  0  0
 24 23  2  0  0  0  0
 25 20  2  0  0  0  0
 28 24  1  0  0  0  0
M  END
>  <minimizedAffinity>
-4.84486103

$$$$
