
 OpenBabel03252509053D

 51 54  0  0  1  0  0  0  0  0999 V2000
   46.7900   34.3740   43.4610 N   0  0  0  0  0  0  0  0  0  0  0  0
   46.4950   34.9450   42.1990 C   0  0  0  0  0  0  0  0  0  0  0  0
   45.0230   34.9420   41.8300 C   0  0  0  0  0  0  0  0  0  0  0  0
   44.0900   35.1220   43.0030 C   0  0  0  0  0  0  0  0  0  0  0  0
   44.8520   35.3510   44.2960 C   0  0  0  0  0  0  0  0  0  0  0  0
   45.7990   34.0980   44.3740 C   0  0  2  0  0  0  0  0  0  0  0  0
   46.7860   36.0310   42.2360 H   0  0  0  0  0  0  0  0  0  0  0  0
   47.0240   34.5370   41.3340 H   0  0  0  0  0  0  0  0  0  0  0  0
   44.8360   35.6640   41.0230 H   0  0  0  0  0  0  0  0  0  0  0  0
   44.8040   33.9260   41.4220 H   0  0  0  0  0  0  0  0  0  0  0  0
   43.4960   36.0430   42.8270 H   0  0  0  0  0  0  0  0  0  0  0  0
   43.3970   34.2770   43.1580 H   0  0  0  0  0  0  0  0  0  0  0  0
   44.1470   35.2860   45.1360 H   0  0  0  0  0  0  0  0  0  0  0  0
   45.4770   36.2460   44.2570 H   0  0  0  0  0  0  0  0  0  0  0  0
   45.1330   33.2320   44.1870 H   0  0  0  0  0  0  0  0  0  0  0  0
   48.0010   33.5880   43.4890 C   0  0  0  0  0  0  0  0  0  0  0  0
   48.7840   34.1990   42.9730 H   0  0  0  0  0  0  0  0  0  0  0  0
   48.3150   33.4010   44.5300 H   0  0  0  0  0  0  0  0  0  0  0  0
   47.7600   32.3280   42.7340 C   0  0  0  0  0  0  0  0  0  0  0  0
   46.8390   32.3850   42.1110 H   0  0  0  0  0  0  0  0  0  0  0  0
   47.6270   31.4490   43.3940 H   0  0  0  0  0  0  0  0  0  0  0  0
   51.2420   32.1150   41.3420 C   0  0  0  0  0  0  0  0  0  0  0  0
   50.1660   32.3360   42.2190 C   0  0  0  0  0  0  0  0  0  0  0  0
   48.8900   32.0900   41.7940 C   0  0  0  0  0  0  0  0  0  0  0  0
   48.7310   31.6470   40.5500 N   0  0  0  0  0  0  0  0  0  0  0  0
   49.7420   31.4330   39.7030 C   0  0  0  0  0  0  0  0  0  0  0  0
   51.0190   31.6640   40.0880 N   0  0  0  0  0  0  0  0  0  0  0  0
   52.2530   32.2960   41.6420 H   0  0  0  0  0  0  0  0  0  0  0  0
   50.4220   32.6920   43.1940 H   0  0  0  0  0  0  0  0  0  0  0  0
   49.3890   31.0750   38.7470 H   0  0  0  0  0  0  0  0  0  0  0  0
   46.2390   34.1680   45.6850 O   0  0  0  0  0  0  0  0  0  0  0  0
   45.6310   31.5760   45.5900 O   0  0  0  0  0  0  0  0  0  0  0  0
   46.0660   32.7290   46.5160 P   0  0  2  0  0  0  0  0  0  0  0  0
   44.7200   32.9270   47.5700 O   0  0  0  0  0  0  0  0  0  0  0  0
   45.0830   33.2590   48.4360 H   0  0  0  0  0  0  0  0  0  0  0  0
   47.3740   32.3160   47.4400 O   0  0  0  0  0  0  0  0  0  0  0  0
   47.1780   31.0410   47.9810 C   0  0  0  0  0  0  0  0  0  0  0  0
   46.4040   30.9910   48.7510 H   0  0  0  0  0  0  0  0  0  0  0  0
   46.9110   30.3220   47.1570 H   0  0  0  0  0  0  0  0  0  0  0  0
   48.5070   30.6380   48.5260 C   0  0  0  0  0  0  0  0  0  0  0  0
   49.1160   29.4090   48.3730 C   0  0  0  0  0  0  0  0  0  0  0  0
   48.5630   28.6770   47.8000 H   0  0  0  0  0  0  0  0  0  0  0  0
   50.3550   29.1740   48.9340 C   0  0  0  0  0  3  0  0  0  0  0  0
   50.9620   30.1910   49.6440 C   0  0  0  0  0  0  0  0  0  0  0  0
   52.1560   30.0230   50.2080 N   0  0  0  0  0  0  0  0  0  0  0  0
   52.7960   30.9740   50.9100 C   0  0  0  0  0  0  0  0  0  0  0  0
   53.7660   30.8570   51.3740 H   0  0  0  0  0  0  0  0  0  0  0  0
   52.2240   32.2210   51.0890 C   0  0  0  0  0  3  0  0  0  0  0  0
   50.9910   32.4590   50.5320 C   0  0  0  0  0  3  0  0  0  0  0  0
   50.3950   31.4340   49.8240 C   0  0  0  0  0  0  0  0  0  0  0  0
   49.1430   31.6530   49.2500 C   0  0  0  0  0  3  0  0  0  0  0  0
  1 16  1  0  0  0  0
  1  6  1  0  0  0  0
  2  7  1  0  0  0  0
  2  1  1  0  0  0  0
  3  2  1  0  0  0  0
  3  4  1  0  0  0  0
  4 12  1  0  0  0  0
  4  5  1  0  0  0  0
  5  6  1  0  0  0  0
  5 13  1  0  0  0  0
  6 15  1  6  0  0  0
  6 31  1  0  0  0  0
  8  2  1  0  0  0  0
  9  3  1  0  0  0  0
 10  3  1  0  0  0  0
 11  4  1  0  0  0  0
 14  5  1  0  0  0  0
 16 18  1  0  0  0  0
 17 16  1  0  0  0  0
 19 21  1  0  0  0  0
 19 16  1  0  0  0  0
 20 19  1  0  0  0  0
 22 28  1  0  0  0  0
 22 23  1  0  0  0  0
 23 29  1  0  0  0  0
 24 23  2  0  0  0  0
 24 19  1  0  0  0  0
 25 24  1  0  0  0  0
 26 27  1  0  0  0  0
 26 25  2  0  0  0  0
 27 22  2  0  0  0  0
 30 26  1  0  0  0  0
 31 33  1  0  0  0  0
 33 32  2  6  0  0  0
 33 36  1  0  0  0  0
 33 34  1  0  0  0  0
 34 35  1  0  0  0  0
 36 37  1  0  0  0  0
 37 40  1  0  0  0  0
 37 38  1  0  0  0  0
 39 37  1  0  0  0  0
 40 51  1  0  0  0  0
 41 40  2  0  0  0  0
 41 43  1  0  0  0  0
 42 41  1  0  0  0  0
 43 44  2  0  0  0  0
 44 50  1  0  0  0  0
 44 45  1  0  0  0  0
 45 46  2  0  0  0  0
 46 48  1  0  0  0  0
 46 47  1  0  0  0  0
 49 48  2  0  0  0  0
 50 49  1  0  0  0  0
 51 50  2  0  0  0  0
M  END
>  <minimizedAffinity>
-5.66007376

>  <minimizedRMSD>
3.22861743

$$$$
