
 OpenBabel03252500583D

 41 44  0  0  0  0  0  0  0  0999 V2000
   41.8380   35.3600   41.9400 O   0  0  0  0  0  0  0  0  0  0  0  0
   40.7590   34.7520   41.3250 C   0  0  0  0  0  0  0  0  0  0  0  0
   39.9730   35.5170   40.4820 C   0  0  0  0  0  0  0  0  0  0  0  0
   38.8710   34.9970   39.8220 C   0  0  0  0  0  0  0  0  0  0  0  0
   38.5720   33.6910   40.0230 N   0  0  0  0  0  0  0  0  0  0  0  0
   39.3310   32.9460   40.8380 C   0  0  0  0  0  0  0  0  0  0  0  0
   40.3810   33.4750   41.4570 N   0  0  0  0  0  0  0  0  0  0  0  0
   40.1780   36.5630   40.2970 H   0  0  0  0  0  0  0  0  0  0  0  0
   38.2650   35.6010   39.1670 H   0  0  0  0  0  0  0  0  0  0  0  0
   38.9840   31.5430   41.0340 C   0  0  0  0  0  0  0  0  0  0  0  0
   37.6650   31.1330   41.0860 C   0  0  0  0  0  0  0  0  0  0  0  0
   36.8540   31.8380   40.9830 H   0  0  0  0  0  0  0  0  0  0  0  0
   37.2890   29.7980   41.2730 C   0  0  0  0  0  3  0  0  0  0  0  0
   38.3040   28.8740   41.4070 C   0  0  0  0  0  0  0  0  0  0  0  0
   38.0560   27.5440   41.5940 N   0  0  0  0  0  0  0  0  0  0  0  0
   39.1090   26.6830   41.7190 C   0  0  0  0  0  0  0  0  0  0  0  0
   38.7900   25.6440   41.8640 H   0  0  0  0  0  0  0  0  0  0  0  0
   40.4380   27.0520   41.6730 C   0  0  0  0  0  3  0  0  0  0  0  0
   40.7210   28.4090   41.4830 C   0  0  0  0  0  3  0  0  0  0  0  0
   39.6310   29.2460   41.3610 C   0  0  0  0  0  0  0  0  0  0  0  0
   39.9700   30.5850   41.1730 C   0  0  0  0  0  3  0  0  0  0  0  0
   43.8190   34.9120   40.2520 O   0  0  0  0  0  0  0  0  0  0  0  0
   43.3770   34.7170   41.6910 P   0  0  2  0  0  0  0  0  0  0  0  0
   43.2940   33.0570   41.9990 O   0  0  0  0  0  0  0  0  0  0  0  0
   42.8310   32.9580   42.8790 H   0  0  0  0  0  0  0  0  0  0  0  0
   44.5420   35.3780   42.7400 O   0  0  0  0  0  0  0  0  0  0  0  0
   46.6010   34.2980   43.0910 C   0  0  0  0  0  0  0  0  0  0  0  0
   45.3800   34.6700   43.5950 C   0  0  0  0  0  0  0  0  0  0  0  0
   45.0750   34.3120   44.9200 C   0  0  0  0  0  0  0  0  0  0  0  0
   46.0100   33.6240   45.6080 N   0  0  0  0  0  0  0  0  0  0  0  0
   47.1910   33.2740   45.0930 C   0  0  0  0  0  0  0  0  0  0  0  0
   47.4810   33.6130   43.8380 N   0  0  0  0  0  0  0  0  0  0  0  0
   44.1140   34.6220   45.2680 H   0  0  0  0  0  0  0  0  0  0  0  0
   47.9180   32.7180   45.6820 H   0  0  0  0  0  0  0  0  0  0  0  0
   46.9850   34.6400   41.7120 C   0  0  0  0  0  0  0  0  0  0  0  0
   46.2550   35.2750   41.1940 H   0  0  0  0  0  0  0  0  0  0  0  0
   47.0910   33.6860   41.1490 H   0  0  0  0  0  0  0  0  0  0  0  0
   48.3090   35.3450   41.7350 C   0  0  0  0  0  0  0  0  0  0  0  0
   48.2770   36.2760   41.1420 H   0  0  0  0  0  0  0  0  0  0  0  0
   49.1360   34.7250   41.2890 H   0  0  0  0  0  0  0  0  0  0  0  0
   48.5840   35.6310   42.7820 H   0  0  0  0  0  0  0  0  0  0  0  0
  2  7  1  0  0  0  0
  2  1  1  0  0  0  0
  3  2  2  0  0  0  0
  4  5  2  0  0  0  0
  4  3  1  0  0  0  0
  5  6  1  0  0  0  0
  6 10  1  0  0  0  0
  6  7  2  0  0  0  0
  8  3  1  0  0  0  0
  9  4  1  0  0  0  0
 10 11  2  0  0  0  0
 10 21  1  0  0  0  0
 11 13  1  0  0  0  0
 12 11  1  0  0  0  0
 13 14  2  0  0  0  0
 14 15  1  0  0  0  0
 15 16  2  0  0  0  0
 16 17  1  0  0  0  0
 18 16  1  0  0  0  0
 19 18  2  0  0  0  0
 20 14  1  0  0  0  0
 20 19  1  0  0  0  0
 21 20  2  0  0  0  0
 23 22  2  6  0  0  0
 23  1  1  0  0  0  0
 23 24  1  0  0  0  0
 23 26  1  0  0  0  0
 24 25  1  0  0  0  0
 26 28  1  0  0  0  0
 27 28  2  0  0  0  0
 27 32  1  0  0  0  0
 28 29  1  0  0  0  0
 29 33  1  0  0  0  0
 29 30  2  0  0  0  0
 31 30  1  0  0  0  0
 31 34  1  0  0  0  0
 32 31  2  0  0  0  0
 35 38  1  0  0  0  0
 35 27  1  0  0  0  0
 36 35  1  0  0  0  0
 37 35  1  0  0  0  0
 38 41  1  0  0  0  0
 39 38  1  0  0  0  0
 40 38  1  0  0  0  0
M  END
>  <minimizedAffinity>
-6.02954149

>  <minimizedRMSD>
0.984428525

$$$$
