
 OpenBabel03252502063D

 49 54  0  0  0  0  0  0  0  0999 V2000
   40.8990   32.5020   40.0830 C   0  0  0  0  0  0  0  0  0  0  0  0
   41.4550   33.5410   40.7630 N   0  0  0  0  0  0  0  0  0  0  0  0
   42.5830   34.1610   40.4260 C   0  0  0  0  0  0  0  0  0  0  0  0
   43.2580   33.7550   39.3240 N   0  0  0  0  0  0  0  0  0  0  0  0
   42.7980   32.7440   38.5840 C   0  0  0  0  0  0  0  0  0  0  0  0
   43.4790   32.3520   37.4460 C   0  0  0  0  0  0  0  0  0  0  0  0
   42.9990   31.3250   36.6600 C   0  0  0  0  0  0  0  0  0  0  0  0
   41.8320   30.7110   37.0500 C   0  0  0  0  0  0  0  0  0  0  0  0
   41.1920   31.1420   38.1970 C   0  0  0  0  0  0  0  0  0  0  0  0
   41.6310   32.1480   38.9910 C   0  0  0  0  0  0  0  0  0  0  0  0
   42.9620   34.9830   41.0230 H   0  0  0  0  0  0  0  0  0  0  0  0
   44.4020   32.9090   37.2260 H   0  0  0  0  0  0  0  0  0  0  0  0
   43.6430   31.1370   35.7970 H   0  0  0  0  0  0  0  0  0  0  0  0
   41.6150   29.9380   36.3240 H   0  0  0  0  0  0  0  0  0  0  0  0
   37.3260   32.2240   40.2740 C   0  0  0  0  0  0  0  0  0  0  0  0
   37.0480   31.1050   41.0430 C   0  0  0  0  0  0  0  0  0  0  0  0
   38.1070   30.4030   41.5060 C   0  0  0  0  0  0  0  0  0  0  0  0
   39.3570   30.7970   41.2290 N   0  0  0  0  0  0  0  0  0  0  0  0
   39.6390   31.8830   40.4930 C   0  0  0  0  0  0  0  0  0  0  0  0
   38.5830   32.5690   40.0290 N   0  0  0  0  0  0  0  0  0  0  0  0
   37.9450   29.2400   42.2420 N   0  0  0  0  0  0  0  0  0  0  0  0
   39.0020   28.2620   42.5610 C   0  0  0  0  0  0  0  0  0  0  0  0
   38.4070   27.3340   43.5870 C   0  0  0  0  0  0  0  0  0  0  0  0
   36.9380   27.3900   43.2860 C   0  0  0  0  0  0  0  0  0  0  0  0
   36.6990   28.7770   42.8100 C   0  0  0  0  0  0  0  0  0  0  0  0
   36.4660   32.7940   39.8900 H   0  0  0  0  0  0  0  0  0  0  0  0
   39.3790   27.7580   41.6680 H   0  0  0  0  0  0  0  0  0  0  0  0
   39.8130   28.8320   43.0980 H   0  0  0  0  0  0  0  0  0  0  0  0
   38.8070   26.3170   43.3890 H   0  0  0  0  0  0  0  0  0  0  0  0
   38.6590   27.6240   44.6270 H   0  0  0  0  0  0  0  0  0  0  0  0
   36.7100   26.5790   42.5940 H   0  0  0  0  0  0  0  0  0  0  0  0
   36.4090   27.2000   44.2570 H   0  0  0  0  0  0  0  0  0  0  0  0
   36.3260   29.3840   43.6360 H   0  0  0  0  0  0  0  0  0  0  0  0
   35.9250   28.5840   42.0030 H   0  0  0  0  0  0  0  0  0  0  0  0
   35.7290   30.8200   41.3850 N   0  0  0  0  0  0  0  0  0  0  0  0
   35.3360   30.3660   40.5070 H   0  0  0  0  0  0  0  0  0  0  0  0
   35.1790   30.9780   42.2580 H   0  0  0  0  0  0  0  0  0  0  0  0
   40.0280   30.2670   38.2700 C   0  0  0  0  0  0  0  0  0  0  0  0
   38.9520   30.7990   37.5180 C   0  0  0  0  0  0  0  0  0  0  0  0
   38.9820   31.7720   37.0000 H   0  0  0  0  0  0  0  0  0  0  0  0
   37.7150   30.1710   37.3270 C   0  0  0  0  0  3  0  0  0  0  0  0
   37.5290   28.9430   37.9160 C   0  0  0  0  0  0  0  0  0  0  0  0
   36.4050   28.2230   37.8240 N   0  0  0  0  0  0  0  0  0  0  0  0
   36.2880   27.0160   38.4320 C   0  0  0  0  0  0  0  0  0  0  0  0
   35.3750   26.4310   38.3580 H   0  0  0  0  0  0  0  0  0  0  0  0
   37.3010   26.4270   39.1870 C   0  0  0  0  0  3  0  0  0  0  0  0
   38.4800   27.1720   39.2890 C   0  0  0  0  0  3  0  0  0  0  0  0
   38.5410   28.3790   38.6580 C   0  0  0  0  0  0  0  0  0  0  0  0
   39.7370   29.0310   38.8180 C   0  0  0  0  0  3  0  0  0  0  0  0
  1 19  1  0  0  0  0
  1  2  1  0  0  0  0
  3  2  2  0  0  0  0
  3 11  1  0  0  0  0
  4  3  1  0  0  0  0
  5 10  1  0  0  0  0
  5  4  2  0  0  0  0
  6  5  1  0  0  0  0
  7  8  1  0  0  0  0
  7  6  2  0  0  0  0
  8  9  2  0  0  0  0
  9 38  1  0  0  0  0
  9 10  1  0  0  0  0
 10  1  2  0  0  0  0
 12  6  1  0  0  0  0
 13  7  1  0  0  0  0
 14  8  1  0  0  0  0
 15 16  1  0  0  0  0
 16 35  1  0  0  0  0
 16 17  2  0  0  0  0
 17 21  1  0  0  0  0
 18 17  1  0  0  0  0
 19 18  2  0  0  0  0
 20 15  2  0  0  0  0
 20 19  1  0  0  0  0
 21 22  1  0  0  0  0
 21 25  1  0  0  0  0
 22 28  1  0  0  0  0
 22 23  1  0  0  0  0
 23 30  1  0  0  0  0
 24 23  1  0  0  0  0
 24 32  1  0  0  0  0
 25 24  1  0  0  0  0
 25 33  1  0  0  0  0
 26 15  1  0  0  0  0
 27 22  1  0  0  0  0
 29 23  1  0  0  0  0
 31 24  1  0  0  0  0
 34 25  1  0  0  0  0
 35 37  1  0  0  0  0
 36 35  1  0  0  0  0
 38 49  1  0  0  0  0
 39 38  2  0  0  0  0
 40 39  1  0  0  0  0
 41 39  1  0  0  0  0
 41 42  2  0  0  0  0
 42 48  1  0  0  0  0
 43 42  1  0  0  0  0
 43 44  2  0  0  0  0
 44 46  1  0  0  0  0
 45 44  1  0  0  0  0
 46 47  2  0  0  0  0
 48 49  2  0  0  0  0
 48 47  1  0  0  0  0
M  END
>  <minimizedAffinity>
-7.3527689

$$$$

 OpenBabel03252502063D

 49 54  0  0  0  0  0  0  0  0999 V2000
   40.5990   31.6700   38.5220 C   0  0  0  0  0  0  0  0  0  0  0  0
   40.8810   32.7510   37.7470 N   0  0  0  0  0  0  0  0  0  0  0  0
   42.0710   33.0230   37.2170 C   0  0  0  0  0  0  0  0  0  0  0  0
   43.1070   32.1810   37.4460 N   0  0  0  0  0  0  0  0  0  0  0  0
   42.9370   31.0890   38.1940 C   0  0  0  0  0  0  0  0  0  0  0  0
   43.9920   30.2190   38.4000 C   0  0  0  0  0  0  0  0  0  0  0  0
   43.8200   29.0740   39.1510 C   0  0  0  0  0  0  0  0  0  0  0  0
   42.5740   28.8350   39.6810 C   0  0  0  0  0  0  0  0  0  0  0  0
   41.5550   29.7380   39.4430 C   0  0  0  0  0  0  0  0  0  0  0  0
   41.6850   30.8700   38.7100 C   0  0  0  0  0  0  0  0  0  0  0  0
   42.2160   33.9100   36.6090 H   0  0  0  0  0  0  0  0  0  0  0  0
   44.9460   30.5050   37.9330 H   0  0  0  0  0  0  0  0  0  0  0  0
   44.7420   28.4900   39.2190 H   0  0  0  0  0  0  0  0  0  0  0  0
   42.6300   27.9070   40.2340 H   0  0  0  0  0  0  0  0  0  0  0  0
   37.9110   32.0210   40.8740 C   0  0  0  0  0  0  0  0  0  0  0  0
   36.8750   31.2160   40.4280 C   0  0  0  0  0  0  0  0  0  0  0  0
   37.0820   30.5350   39.2780 C   0  0  0  0  0  0  0  0  0  0  0  0
   38.2460   30.6440   38.6240 N   0  0  0  0  0  0  0  0  0  0  0  0
   39.2590   31.4140   39.0500 C   0  0  0  0  0  0  0  0  0  0  0  0
   39.0430   32.0930   40.1870 N   0  0  0  0  0  0  0  0  0  0  0  0
   36.0960   29.7400   38.7140 N   0  0  0  0  0  0  0  0  0  0  0  0
   36.1110   29.1800   37.3500 C   0  0  0  0  0  0  0  0  0  0  0  0
   34.9790   28.1860   37.3030 C   0  0  0  0  0  0  0  0  0  0  0  0
   34.0160   28.7190   38.3220 C   0  0  0  0  0  0  0  0  0  0  0  0
   34.8710   29.3400   39.3670 C   0  0  0  0  0  0  0  0  0  0  0  0
   37.7430   32.5820   41.8060 H   0  0  0  0  0  0  0  0  0  0  0  0
   36.0550   29.9570   36.5850 H   0  0  0  0  0  0  0  0  0  0  0  0
   37.0550   28.5710   37.2650 H   0  0  0  0  0  0  0  0  0  0  0  0
   34.5360   28.2340   36.2860 H   0  0  0  0  0  0  0  0  0  0  0  0
   35.3100   27.1480   37.5030 H   0  0  0  0  0  0  0  0  0  0  0  0
   33.3100   29.3690   37.8040 H   0  0  0  0  0  0  0  0  0  0  0  0
   33.4630   27.8310   38.7290 H   0  0  0  0  0  0  0  0  0  0  0  0
   35.0060   28.6360   40.1890 H   0  0  0  0  0  0  0  0  0  0  0  0
   34.2360   30.2400   39.6400 H   0  0  0  0  0  0  0  0  0  0  0  0
   35.7380   31.0640   41.2170 N   0  0  0  0  0  0  0  0  0  0  0  0
   35.1840   31.9520   41.0290 H   0  0  0  0  0  0  0  0  0  0  0  0
   35.4260   30.3050   41.8610 H   0  0  0  0  0  0  0  0  0  0  0  0
   40.4260   29.1500   40.1540 C   0  0  0  0  0  0  0  0  0  0  0  0
   39.8220   28.1280   39.3800 C   0  0  0  0  0  0  0  0  0  0  0  0
   40.1350   27.8630   38.3560 H   0  0  0  0  0  0  0  0  0  0  0  0
   38.7590   27.3210   39.8000 C   0  0  0  0  0  3  0  0  0  0  0  0
   38.2590   27.5370   41.0630 C   0  0  0  0  0  0  0  0  0  0  0  0
   37.2470   26.8480   41.6040 N   0  0  0  0  0  0  0  0  0  0  0  0
   36.8020   27.1130   42.8570 C   0  0  0  0  0  0  0  0  0  0  0  0
   35.9800   26.5540   43.2970 H   0  0  0  0  0  0  0  0  0  0  0  0
   37.3440   28.1000   43.6790 C   0  0  0  0  0  3  0  0  0  0  0  0
   38.4020   28.8260   43.1230 C   0  0  0  0  0  3  0  0  0  0  0  0
   38.8070   28.5160   41.8590 C   0  0  0  0  0  0  0  0  0  0  0  0
   39.8490   29.2830   41.4040 C   0  0  0  0  0  3  0  0  0  0  0  0
  1 10  1  0  0  0  0
  1 19  1  0  0  0  0
  2  1  2  0  0  0  0
  3  4  2  0  0  0  0
  3  2  1  0  0  0  0
  4  5  1  0  0  0  0
  5  6  2  0  0  0  0
  5 10  1  0  0  0  0
  6  7  1  0  0  0  0
  7 13  1  0  0  0  0
  7  8  2  0  0  0  0
  8 14  1  0  0  0  0
  9  8  1  0  0  0  0
  9 38  1  0  0  0  0
 10  9  2  0  0  0  0
 11  3  1  0  0  0  0
 12  6  1  0  0  0  0
 15 26  1  0  0  0  0
 16 15  1  0  0  0  0
 16 35  1  0  0  0  0
 17 16  2  0  0  0  0
 18 19  2  0  0  0  0
 18 17  1  0  0  0  0
 19 20  1  0  0  0  0
 20 15  2  0  0  0  0
 21 17  1  0  0  0  0
 21 25  1  0  0  0  0
 22 21  1  0  0  0  0
 23 22  1  0  0  0  0
 23 30  1  0  0  0  0
 23 24  1  0  0  0  0
 24 32  1  0  0  0  0
 24 25  1  0  0  0  0
 25 34  1  0  0  0  0
 25 33  1  0  0  0  0
 27 22  1  0  0  0  0
 28 22  1  0  0  0  0
 29 23  1  0  0  0  0
 31 24  1  0  0  0  0
 35 37  1  0  0  0  0
 36 35  1  0  0  0  0
 38 49  1  0  0  0  0
 39 41  1  0  0  0  0
 39 38  2  0  0  0  0
 40 39  1  0  0  0  0
 41 42  2  0  0  0  0
 42 43  1  0  0  0  0
 42 48  1  0  0  0  0
 43 44  2  0  0  0  0
 44 45  1  0  0  0  0
 44 46  1  0  0  0  0
 47 46  2  0  0  0  0
 48 47  1  0  0  0  0
 49 48  2  0  0  0  0
M  END
>  <minimizedAffinity>
-7.35063887

$$$$

 OpenBabel03252502063D

 49 54  0  0  0  0  0  0  0  0999 V2000
   36.8170   28.8570   36.3940 C   0  0  0  0  0  0  0  0  0  0  0  0
   37.1000   28.9150   35.0640 N   0  0  0  0  0  0  0  0  0  0  0  0
   36.1960   29.0140   34.0930 C   0  0  0  0  0  0  0  0  0  0  0  0
   34.8810   29.0640   34.4140 N   0  0  0  0  0  0  0  0  0  0  0  0
   34.4950   29.0150   35.6900 C   0  0  0  0  0  0  0  0  0  0  0  0
   33.1520   29.0940   36.0120 C   0  0  0  0  0  0  0  0  0  0  0  0
   32.7440   29.0700   37.3300 C   0  0  0  0  0  0  0  0  0  0  0  0
   33.7120   28.9620   38.3000 C   0  0  0  0  0  0  0  0  0  0  0  0
   35.0400   28.8870   37.9220 C   0  0  0  0  0  0  0  0  0  0  0  0
   35.4790   28.9110   36.6400 C   0  0  0  0  0  0  0  0  0  0  0  0
   36.5030   29.0540   33.0540 H   0  0  0  0  0  0  0  0  0  0  0  0
   32.4600   29.1750   35.1600 H   0  0  0  0  0  0  0  0  0  0  0  0
   31.6570   29.1440   37.4210 H   0  0  0  0  0  0  0  0  0  0  0  0
   33.2120   28.9550   39.2590 H   0  0  0  0  0  0  0  0  0  0  0  0
   39.2360   27.1760   38.4430 C   0  0  0  0  0  0  0  0  0  0  0  0
   39.8150   28.1360   39.2560 C   0  0  0  0  0  0  0  0  0  0  0  0
   39.3860   29.4090   39.1000 C   0  0  0  0  0  0  0  0  0  0  0  0
   38.4370   29.7000   38.2010 N   0  0  0  0  0  0  0  0  0  0  0  0
   37.8620   28.7770   37.4140 C   0  0  0  0  0  0  0  0  0  0  0  0
   38.3000   27.5190   37.5680 N   0  0  0  0  0  0  0  0  0  0  0  0
   39.9320   30.4570   39.8240 N   0  0  0  0  0  0  0  0  0  0  0  0
   39.7390   31.8930   39.5490 C   0  0  0  0  0  0  0  0  0  0  0  0
   40.2960   32.6180   40.7460 C   0  0  0  0  0  0  0  0  0  0  0  0
   41.3380   31.6710   41.2640 C   0  0  0  0  0  0  0  0  0  0  0  0
   40.8030   30.3170   40.9690 C   0  0  0  0  0  0  0  0  0  0  0  0
   39.5880   26.1390   38.5630 H   0  0  0  0  0  0  0  0  0  0  0  0
   40.1840   32.1930   38.5980 H   0  0  0  0  0  0  0  0  0  0  0  0
   38.6270   32.0770   39.5710 H   0  0  0  0  0  0  0  0  0  0  0  0
   40.7680   33.5540   40.3790 H   0  0  0  0  0  0  0  0  0  0  0  0
   39.5190   32.8770   41.4930 H   0  0  0  0  0  0  0  0  0  0  0  0
   42.2900   31.9420   40.8050 H   0  0  0  0  0  0  0  0  0  0  0  0
   41.4030   31.8470   42.3700 H   0  0  0  0  0  0  0  0  0  0  0  0
   40.3170   29.9180   41.8610 H   0  0  0  0  0  0  0  0  0  0  0  0
   41.7610   29.7750   40.6940 H   0  0  0  0  0  0  0  0  0  0  0  0
   40.7130   27.7450   40.2460 N   0  0  0  0  0  0  0  0  0  0  0  0
   41.6200   27.5890   39.7120 H   0  0  0  0  0  0  0  0  0  0  0  0
   40.6100   27.6100   41.2750 H   0  0  0  0  0  0  0  0  0  0  0  0
   35.7370   28.7840   39.1990 C   0  0  0  0  0  0  0  0  0  0  0  0
   35.8720   30.0590   39.8020 C   0  0  0  0  0  0  0  0  0  0  0  0
   35.5440   31.0010   39.3330 H   0  0  0  0  0  0  0  0  0  0  0  0
   36.4320   30.2980   41.0620 C   0  0  0  0  0  3  0  0  0  0  0  0
   36.8890   29.2110   41.7710 C   0  0  0  0  0  0  0  0  0  0  0  0
   37.4470   29.2810   42.9850 N   0  0  0  0  0  0  0  0  0  0  0  0
   37.8770   28.1680   43.6290 C   0  0  0  0  0  0  0  0  0  0  0  0
   38.3310   28.2240   44.6150 H   0  0  0  0  0  0  0  0  0  0  0  0
   37.7780   26.8810   43.1030 C   0  0  0  0  0  3  0  0  0  0  0  0
   37.1960   26.7970   41.8340 C   0  0  0  0  0  3  0  0  0  0  0  0
   36.7830   27.9500   41.2340 C   0  0  0  0  0  0  0  0  0  0  0  0
   36.2260   27.7630   39.9940 C   0  0  0  0  0  3  0  0  0  0  0  0
  1 10  1  0  0  0  0
  1 19  1  0  0  0  0
  2  1  2  0  0  0  0
  3  4  2  0  0  0  0
  3  2  1  0  0  0  0
  4  5  1  0  0  0  0
  5  6  2  0  0  0  0
  5 10  1  0  0  0  0
  6  7  1  0  0  0  0
  7 13  1  0  0  0  0
  7  8  2  0  0  0  0
  8 14  1  0  0  0  0
  9  8  1  0  0  0  0
  9 38  1  0  0  0  0
 10  9  2  0  0  0  0
 11  3  1  0  0  0  0
 12  6  1  0  0  0  0
 15 26  1  0  0  0  0
 15 16  1  0  0  0  0
 16 35  1  0  0  0  0
 17 16  2  0  0  0  0
 17 21  1  0  0  0  0
 18 17  1  0  0  0  0
 19 20  1  0  0  0  0
 19 18  2  0  0  0  0
 20 15  2  0  0  0  0
 21 25  1  0  0  0  0
 22 28  1  0  0  0  0
 22 21  1  0  0  0  0
 22 23  1  0  0  0  0
 23 24  1  0  0  0  0
 23 30  1  0  0  0  0
 24 32  1  0  0  0  0
 25 24  1  0  0  0  0
 25 33  1  0  0  0  0
 27 22  1  0  0  0  0
 29 23  1  0  0  0  0
 31 24  1  0  0  0  0
 34 25  1  0  0  0  0
 35 37  1  0  0  0  0
 36 35  1  0  0  0  0
 38 39  2  0  0  0  0
 38 49  1  0  0  0  0
 39 41  1  0  0  0  0
 40 39  1  0  0  0  0
 41 42  2  0  0  0  0
 42 43  1  0  0  0  0
 43 44  2  0  0  0  0
 44 45  1  0  0  0  0
 46 44  1  0  0  0  0
 47 46  2  0  0  0  0
 48 42  1  0  0  0  0
 48 47  1  0  0  0  0
 49 48  2  0  0  0  0
M  END
>  <minimizedAffinity>
-7.08995724

$$$$

 OpenBabel03252502063D

 49 54  0  0  0  0  0  0  0  0999 V2000
   36.7950   29.0440   36.3820 C   0  0  0  0  0  0  0  0  0  0  0  0
   37.0680   29.1510   35.0540 N   0  0  0  0  0  0  0  0  0  0  0  0
   36.1560   29.2360   34.0890 C   0  0  0  0  0  0  0  0  0  0  0  0
   34.8410   29.2200   34.4160 N   0  0  0  0  0  0  0  0  0  0  0  0
   34.4650   29.1190   35.6930 C   0  0  0  0  0  0  0  0  0  0  0  0
   33.1210   29.1300   36.0220 C   0  0  0  0  0  0  0  0  0  0  0  0
   32.7220   29.0520   37.3400 C   0  0  0  0  0  0  0  0  0  0  0  0
   33.6990   28.9610   38.3030 C   0  0  0  0  0  0  0  0  0  0  0  0
   35.0270   28.9540   37.9180 C   0  0  0  0  0  0  0  0  0  0  0  0
   35.4570   29.0320   36.6360 C   0  0  0  0  0  0  0  0  0  0  0  0
   36.4560   29.3180   33.0500 H   0  0  0  0  0  0  0  0  0  0  0  0
   32.4230   29.2050   35.1750 H   0  0  0  0  0  0  0  0  0  0  0  0
   31.6330   29.0770   37.4380 H   0  0  0  0  0  0  0  0  0  0  0  0
   33.2040   28.9060   39.2630 H   0  0  0  0  0  0  0  0  0  0  0  0
   39.2100   30.4280   38.6470 C   0  0  0  0  0  0  0  0  0  0  0  0
   39.8480   29.3630   39.2610 C   0  0  0  0  0  0  0  0  0  0  0  0
   39.4380   28.1220   38.9110 C   0  0  0  0  0  0  0  0  0  0  0  0
   38.4670   27.9580   38.0030 N   0  0  0  0  0  0  0  0  0  0  0  0
   37.8480   28.9830   37.3950 C   0  0  0  0  0  0  0  0  0  0  0  0
   38.2540   30.2100   37.7550 N   0  0  0  0  0  0  0  0  0  0  0  0
   39.9700   26.9850   39.4990 N   0  0  0  0  0  0  0  0  0  0  0  0
   39.4220   25.6200   39.3980 C   0  0  0  0  0  0  0  0  0  0  0  0
   40.4790   24.7100   39.9660 C   0  0  0  0  0  0  0  0  0  0  0  0
   41.2040   25.5950   40.9370 C   0  0  0  0  0  0  0  0  0  0  0  0
   41.1510   26.9500   40.3310 C   0  0  0  0  0  0  0  0  0  0  0  0
   39.5370   31.4400   38.9340 H   0  0  0  0  0  0  0  0  0  0  0  0
   38.4470   25.5310   39.8830 H   0  0  0  0  0  0  0  0  0  0  0  0
   39.3690   25.3770   38.2980 H   0  0  0  0  0  0  0  0  0  0  0  0
   39.9590   23.8880   40.5010 H   0  0  0  0  0  0  0  0  0  0  0  0
   41.1350   24.2730   39.1870 H   0  0  0  0  0  0  0  0  0  0  0  0
   40.7360   25.4670   41.9150 H   0  0  0  0  0  0  0  0  0  0  0  0
   42.2580   25.2150   40.9850 H   0  0  0  0  0  0  0  0  0  0  0  0
   42.0840   27.1450   39.8010 H   0  0  0  0  0  0  0  0  0  0  0  0
   41.0170   27.5850   41.2630 H   0  0  0  0  0  0  0  0  0  0  0  0
   40.9240   29.6050   40.1090 N   0  0  0  0  0  0  0  0  0  0  0  0
   40.4620   29.9070   41.0180 H   0  0  0  0  0  0  0  0  0  0  0  0
   41.9570   29.5350   39.9720 H   0  0  0  0  0  0  0  0  0  0  0  0
   35.7340   28.8480   39.1890 C   0  0  0  0  0  0  0  0  0  0  0  0
   35.8960   30.1230   39.7830 C   0  0  0  0  0  0  0  0  0  0  0  0
   35.5780   31.0680   39.3120 H   0  0  0  0  0  0  0  0  0  0  0  0
   36.4720   30.3600   41.0360 C   0  0  0  0  0  3  0  0  0  0  0  0
   36.9180   29.2710   41.7470 C   0  0  0  0  0  0  0  0  0  0  0  0
   37.4890   29.3380   42.9550 N   0  0  0  0  0  0  0  0  0  0  0  0
   37.9070   28.2220   43.6020 C   0  0  0  0  0  0  0  0  0  0  0  0
   38.3710   28.2760   44.5830 H   0  0  0  0  0  0  0  0  0  0  0  0
   37.7830   26.9330   43.0840 C   0  0  0  0  0  3  0  0  0  0  0  0
   37.1870   26.8520   41.8210 C   0  0  0  0  0  3  0  0  0  0  0  0
   36.7870   28.0080   41.2180 C   0  0  0  0  0  0  0  0  0  0  0  0
   36.2140   27.8230   39.9850 C   0  0  0  0  0  3  0  0  0  0  0  0
  1 10  1  0  0  0  0
  1 19  1  0  0  0  0
  2  1  2  0  0  0  0
  3  4  2  0  0  0  0
  3  2  1  0  0  0  0
  4  5  1  0  0  0  0
  5  6  2  0  0  0  0
  5 10  1  0  0  0  0
  6  7  1  0  0  0  0
  7 13  1  0  0  0  0
  7  8  2  0  0  0  0
  8 14  1  0  0  0  0
  9  8  1  0  0  0  0
  9 38  1  0  0  0  0
 10  9  2  0  0  0  0
 11  3  1  0  0  0  0
 12  6  1  0  0  0  0
 15 26  1  0  0  0  0
 15 16  1  0  0  0  0
 16 35  1  0  0  0  0
 17 16  2  0  0  0  0
 17 21  1  0  0  0  0
 18 17  1  0  0  0  0
 19 20  1  0  0  0  0
 19 18  2  0  0  0  0
 20 15  2  0  0  0  0
 21 25  1  0  0  0  0
 22 21  1  0  0  0  0
 22 27  1  0  0  0  0
 22 23  1  0  0  0  0
 23 29  1  0  0  0  0
 23 24  1  0  0  0  0
 24 32  1  0  0  0  0
 24 31  1  0  0  0  0
 25 24  1  0  0  0  0
 25 34  1  0  0  0  0
 28 22  1  0  0  0  0
 30 23  1  0  0  0  0
 33 25  1  0  0  0  0
 35 36  1  0  0  0  0
 37 35  1  0  0  0  0
 38 39  2  0  0  0  0
 38 49  1  0  0  0  0
 39 41  1  0  0  0  0
 40 39  1  0  0  0  0
 41 42  2  0  0  0  0
 42 43  1  0  0  0  0
 43 44  2  0  0  0  0
 44 45  1  0  0  0  0
 46 44  1  0  0  0  0
 47 46  2  0  0  0  0
 48 42  1  0  0  0  0
 48 47  1  0  0  0  0
 49 48  2  0  0  0  0
M  END
>  <minimizedAffinity>
-6.96499872

$$$$

 OpenBabel03252502063D

 49 54  0  0  0  0  0  0  0  0999 V2000
   35.3380   26.1550   37.3780 C   0  0  0  0  0  0  0  0  0  0  0  0
   35.3480   24.8570   36.9710 N   0  0  0  0  0  0  0  0  0  0  0  0
   34.3800   24.2650   36.2770 C   0  0  0  0  0  0  0  0  0  0  0  0
   33.2820   24.9780   35.9290 N   0  0  0  0  0  0  0  0  0  0  0  0
   33.1720   26.2620   36.2780 C   0  0  0  0  0  0  0  0  0  0  0  0
   32.0610   26.9910   35.8950 C   0  0  0  0  0  0  0  0  0  0  0  0
   31.9500   28.3250   36.2290 C   0  0  0  0  0  0  0  0  0  0  0  0
   32.9720   28.8940   36.9510 C   0  0  0  0  0  0  0  0  0  0  0  0
   34.0600   28.1190   37.3070 C   0  0  0  0  0  0  0  0  0  0  0  0
   34.2060   26.8080   36.9950 C   0  0  0  0  0  0  0  0  0  0  0  0
   34.4640   23.2220   35.9910 H   0  0  0  0  0  0  0  0  0  0  0  0
   31.3010   26.4390   35.3230 H   0  0  0  0  0  0  0  0  0  0  0  0
   31.0210   28.7620   35.8530 H   0  0  0  0  0  0  0  0  0  0  0  0
   32.7120   29.9300   37.1200 H   0  0  0  0  0  0  0  0  0  0  0  0
   38.5210   27.7810   37.7040 C   0  0  0  0  0  0  0  0  0  0  0  0
   38.7600   27.9350   39.0590 C   0  0  0  0  0  0  0  0  0  0  0  0
   37.8020   27.4880   39.9040 C   0  0  0  0  0  0  0  0  0  0  0  0
   36.6890   26.9160   39.4260 N   0  0  0  0  0  0  0  0  0  0  0  0
   36.4500   26.7530   38.1160 C   0  0  0  0  0  0  0  0  0  0  0  0
   37.4000   27.2080   37.2850 N   0  0  0  0  0  0  0  0  0  0  0  0
   37.9140   27.6370   41.2770 N   0  0  0  0  0  0  0  0  0  0  0  0
   36.8330   27.4390   42.2600 C   0  0  0  0  0  0  0  0  0  0  0  0
   37.5000   27.4510   43.6110 C   0  0  0  0  0  0  0  0  0  0  0  0
   38.7120   28.3050   43.3850 C   0  0  0  0  0  0  0  0  0  0  0  0
   39.1130   28.0330   41.9800 C   0  0  0  0  0  0  0  0  0  0  0  0
   39.2950   28.1500   37.0130 H   0  0  0  0  0  0  0  0  0  0  0  0
   36.0350   28.1760   42.1490 H   0  0  0  0  0  0  0  0  0  0  0  0
   36.4570   26.3860   42.1150 H   0  0  0  0  0  0  0  0  0  0  0  0
   36.8030   27.9450   44.3220 H   0  0  0  0  0  0  0  0  0  0  0  0
   37.7340   26.4340   43.9840 H   0  0  0  0  0  0  0  0  0  0  0  0
   38.4470   29.3320   43.6370 H   0  0  0  0  0  0  0  0  0  0  0  0
   39.4930   27.9420   44.1040 H   0  0  0  0  0  0  0  0  0  0  0  0
   39.9100   27.2880   41.9690 H   0  0  0  0  0  0  0  0  0  0  0  0
   39.4550   29.0670   41.6620 H   0  0  0  0  0  0  0  0  0  0  0  0
   39.9870   28.4350   39.4860 N   0  0  0  0  0  0  0  0  0  0  0  0
   39.8940   29.4840   39.3390 H   0  0  0  0  0  0  0  0  0  0  0  0
   40.8410   27.9700   39.8660 H   0  0  0  0  0  0  0  0  0  0  0  0
   34.9020   29.0550   38.0410 C   0  0  0  0  0  0  0  0  0  0  0  0
   34.5580   29.0680   39.4150 C   0  0  0  0  0  0  0  0  0  0  0  0
   33.7270   28.4880   39.8500 H   0  0  0  0  0  0  0  0  0  0  0  0
   35.2190   29.8070   40.4040 C   0  0  0  0  0  3  0  0  0  0  0  0
   36.2840   30.5830   40.0100 C   0  0  0  0  0  0  0  0  0  0  0  0
   37.0120   31.3420   40.8380 N   0  0  0  0  0  0  0  0  0  0  0  0
   38.0520   32.0850   40.3830 C   0  0  0  0  0  0  0  0  0  0  0  0
   38.6440   32.7020   41.0540 H   0  0  0  0  0  0  0  0  0  0  0  0
   38.4510   32.1250   39.0470 C   0  0  0  0  0  3  0  0  0  0  0  0
   37.6960   31.3340   38.1750 C   0  0  0  0  0  3  0  0  0  0  0  0
   36.6620   30.6090   38.6880 C   0  0  0  0  0  0  0  0  0  0  0  0
   35.9840   29.8670   37.7540 C   0  0  0  0  0  3  0  0  0  0  0  0
  1 19  1  0  0  0  0
  2  1  2  0  0  0  0
  3  2  1  0  0  0  0
  4  3  2  0  0  0  0
  4  5  1  0  0  0  0
  5 10  1  0  0  0  0
  6  7  1  0  0  0  0
  6  5  2  0  0  0  0
  7  8  2  0  0  0  0
  8 14  1  0  0  0  0
  8  9  1  0  0  0  0
  9 38  1  0  0  0  0
 10  9  2  0  0  0  0
 10  1  1  0  0  0  0
 11  3  1  0  0  0  0
 12  6  1  0  0  0  0
 13  7  1  0  0  0  0
 15 16  1  0  0  0  0
 16 35  1  0  0  0  0
 16 17  2  0  0  0  0
 17 21  1  0  0  0  0
 18 17  1  0  0  0  0
 19 18  2  0  0  0  0
 20 15  2  0  0  0  0
 20 19  1  0  0  0  0
 21 25  1  0  0  0  0
 21 22  1  0  0  0  0
 22 23  1  0  0  0  0
 23 30  1  0  0  0  0
 23 29  1  0  0  0  0
 24 23  1  0  0  0  0
 24 31  1  0  0  0  0
 24 32  1  0  0  0  0
 25 24  1  0  0  0  0
 26 15  1  0  0  0  0
 27 22  1  0  0  0  0
 28 22  1  0  0  0  0
 33 25  1  0  0  0  0
 34 25  1  0  0  0  0
 35 37  1  0  0  0  0
 36 35  1  0  0  0  0
 38 39  1  0  0  0  0
 39 40  1  0  0  0  0
 39 41  2  0  0  0  0
 42 41  1  0  0  0  0
 42 43  1  0  0  0  0
 44 43  2  0  0  0  0
 44 45  1  0  0  0  0
 46 44  1  0  0  0  0
 47 48  1  0  0  0  0
 47 46  2  0  0  0  0
 48 42  2  0  0  0  0
 49 38  2  0  0  0  0
 49 48  1  0  0  0  0
M  END
>  <minimizedAffinity>
-6.88559723

$$$$

 OpenBabel03252502063D

 49 54  0  0  0  0  0  0  0  0999 V2000
   35.3680   27.3840   37.6250 C   0  0  0  0  0  0  0  0  0  0  0  0
   34.5540   26.2950   37.5750 N   0  0  0  0  0  0  0  0  0  0  0  0
   34.0410   25.7730   36.4640 C   0  0  0  0  0  0  0  0  0  0  0  0
   34.3300   26.3420   35.2690 N   0  0  0  0  0  0  0  0  0  0  0  0
   35.1210   27.4150   35.2060 C   0  0  0  0  0  0  0  0  0  0  0  0
   35.4340   27.9740   33.9800 C   0  0  0  0  0  0  0  0  0  0  0  0
   36.2710   29.0690   33.9020 C   0  0  0  0  0  0  0  0  0  0  0  0
   36.7740   29.5770   35.0760 C   0  0  0  0  0  0  0  0  0  0  0  0
   36.4290   28.9790   36.2740 C   0  0  0  0  0  0  0  0  0  0  0  0
   35.6130   27.9030   36.3900 C   0  0  0  0  0  0  0  0  0  0  0  0
   33.3970   24.9010   36.5090 H   0  0  0  0  0  0  0  0  0  0  0  0
   34.9770   27.4910   33.1040 H   0  0  0  0  0  0  0  0  0  0  0  0
   36.4250   29.3900   32.8690 H   0  0  0  0  0  0  0  0  0  0  0  0
   37.3990   30.4230   34.8220 H   0  0  0  0  0  0  0  0  0  0  0  0
   35.3210   29.3040   40.6560 C   0  0  0  0  0  0  0  0  0  0  0  0
   36.5450   29.1120   41.2760 C   0  0  0  0  0  0  0  0  0  0  0  0
   37.4210   28.2880   40.6570 C   0  0  0  0  0  0  0  0  0  0  0  0
   37.1000   27.7050   39.4950 N   0  0  0  0  0  0  0  0  0  0  0  0
   35.9210   27.8910   38.8800 C   0  0  0  0  0  0  0  0  0  0  0  0
   35.0540   28.7020   39.5050 N   0  0  0  0  0  0  0  0  0  0  0  0
   38.6530   27.9840   41.2130 N   0  0  0  0  0  0  0  0  0  0  0  0
   39.5600   26.9070   40.7730 C   0  0  0  0  0  0  0  0  0  0  0  0
   40.8620   27.1480   41.4920 C   0  0  0  0  0  0  0  0  0  0  0  0
   40.4340   27.8580   42.7430 C   0  0  0  0  0  0  0  0  0  0  0  0
   39.2530   28.6650   42.3380 C   0  0  0  0  0  0  0  0  0  0  0  0
   34.6020   29.9690   41.1610 H   0  0  0  0  0  0  0  0  0  0  0  0
   39.1330   25.9160   40.9400 H   0  0  0  0  0  0  0  0  0  0  0  0
   39.7740   27.0960   39.6820 H   0  0  0  0  0  0  0  0  0  0  0  0
   41.2950   26.1550   41.7370 H   0  0  0  0  0  0  0  0  0  0  0  0
   41.5910   27.7180   40.8830 H   0  0  0  0  0  0  0  0  0  0  0  0
   40.2810   27.1050   43.5170 H   0  0  0  0  0  0  0  0  0  0  0  0
   41.2900   28.5180   43.0400 H   0  0  0  0  0  0  0  0  0  0  0  0
   39.5690   29.6880   42.1300 H   0  0  0  0  0  0  0  0  0  0  0  0
   38.6120   28.5670   43.2690 H   0  0  0  0  0  0  0  0  0  0  0  0
   36.8520   29.8370   42.4240 N   0  0  0  0  0  0  0  0  0  0  0  0
   36.3330   29.3180   43.1940 H   0  0  0  0  0  0  0  0  0  0  0  0
   37.4350   30.6880   42.5830 H   0  0  0  0  0  0  0  0  0  0  0  0
   37.1410   29.7850   37.2590 C   0  0  0  0  0  0  0  0  0  0  0  0
   38.4910   29.3700   37.3660 C   0  0  0  0  0  0  0  0  0  0  0  0
   38.9190   28.5150   36.8180 H   0  0  0  0  0  0  0  0  0  0  0  0
   39.4590   29.9810   38.1710 C   0  0  0  0  0  3  0  0  0  0  0  0
   39.0700   31.0690   38.9180 C   0  0  0  0  0  0  0  0  0  0  0  0
   39.8800   31.7550   39.7320 N   0  0  0  0  0  0  0  0  0  0  0  0
   39.4300   32.8200   40.4410 C   0  0  0  0  0  0  0  0  0  0  0  0
   40.0880   33.3780   41.1030 H   0  0  0  0  0  0  0  0  0  0  0  0
   38.1180   33.2880   40.3890 C   0  0  0  0  0  3  0  0  0  0  0  0
   37.2640   32.5770   39.5400 C   0  0  0  0  0  3  0  0  0  0  0  0
   37.7710   31.5150   38.8520 C   0  0  0  0  0  0  0  0  0  0  0  0
   36.8550   30.8840   38.0480 C   0  0  0  0  0  3  0  0  0  0  0  0
  1 19  1  0  0  0  0
  2  1  1  0  0  0  0
  3 11  1  0  0  0  0
  3  2  2  0  0  0  0
  4  3  1  0  0  0  0
  5  4  2  0  0  0  0
  5 10  1  0  0  0  0
  6  5  1  0  0  0  0
  7  6  2  0  0  0  0
  7  8  1  0  0  0  0
  8  9  2  0  0  0  0
  9 10  1  0  0  0  0
  9 38  1  0  0  0  0
 10  1  2  0  0  0  0
 12  6  1  0  0  0  0
 13  7  1  0  0  0  0
 14  8  1  0  0  0  0
 15 26  1  0  0  0  0
 15 16  1  0  0  0  0
 16 35  1  0  0  0  0
 17 21  1  0  0  0  0
 17 16  2  0  0  0  0
 18 17  1  0  0  0  0
 19 18  2  0  0  0  0
 19 20  1  0  0  0  0
 20 15  2  0  0  0  0
 21 25  1  0  0  0  0
 22 27  1  0  0  0  0
 22 21  1  0  0  0  0
 22 23  1  0  0  0  0
 23 29  1  0  0  0  0
 23 24  1  0  0  0  0
 24 32  1  0  0  0  0
 24 31  1  0  0  0  0
 25 24  1  0  0  0  0
 25 34  1  0  0  0  0
 28 22  1  0  0  0  0
 30 23  1  0  0  0  0
 33 25  1  0  0  0  0
 35 37  1  0  0  0  0
 35 36  1  0  0  0  0
 38 39  2  0  0  0  0
 38 49  1  0  0  0  0
 39 41  1  0  0  0  0
 40 39  1  0  0  0  0
 41 42  2  0  0  0  0
 42 43  1  0  0  0  0
 43 44  2  0  0  0  0
 44 45  1  0  0  0  0
 46 44  1  0  0  0  0
 47 46  2  0  0  0  0
 48 42  1  0  0  0  0
 48 47  1  0  0  0  0
 49 48  2  0  0  0  0
M  END
>  <minimizedAffinity>
-6.78819847

$$$$

 OpenBabel03252502063D

 49 54  0  0  0  0  0  0  0  0999 V2000
   35.9960   26.9870   38.7810 C   0  0  0  0  0  0  0  0  0  0  0  0
   35.0940   26.6930   37.8060 N   0  0  0  0  0  0  0  0  0  0  0  0
   34.6650   25.4690   37.5040 C   0  0  0  0  0  0  0  0  0  0  0  0
   35.1420   24.4090   38.1990 N   0  0  0  0  0  0  0  0  0  0  0  0
   36.0320   24.5880   39.1780 C   0  0  0  0  0  0  0  0  0  0  0  0
   36.4930   23.5040   39.9020 C   0  0  0  0  0  0  0  0  0  0  0  0
   37.3940   23.6810   40.9320 C   0  0  0  0  0  0  0  0  0  0  0  0
   37.8120   24.9620   41.2060 C   0  0  0  0  0  0  0  0  0  0  0  0
   37.3190   26.0090   40.4510 C   0  0  0  0  0  0  0  0  0  0  0  0
   36.4320   25.8750   39.4350 C   0  0  0  0  0  0  0  0  0  0  0  0
   33.9430   25.3180   36.7100 H   0  0  0  0  0  0  0  0  0  0  0  0
   36.0970   22.5240   39.5990 H   0  0  0  0  0  0  0  0  0  0  0  0
   37.6590   22.7330   41.4080 H   0  0  0  0  0  0  0  0  0  0  0  0
   38.5100   24.9050   42.0310 H   0  0  0  0  0  0  0  0  0  0  0  0
   35.6660   30.2110   40.3220 C   0  0  0  0  0  0  0  0  0  0  0  0
   36.7440   30.9730   39.9020 C   0  0  0  0  0  0  0  0  0  0  0  0
   37.6320   30.3730   39.0750 C   0  0  0  0  0  0  0  0  0  0  0  0
   37.4490   29.1040   38.6880 N   0  0  0  0  0  0  0  0  0  0  0  0
   36.4040   28.3590   39.0810 C   0  0  0  0  0  0  0  0  0  0  0  0
   35.5330   28.9580   39.9080 N   0  0  0  0  0  0  0  0  0  0  0  0
   38.7730   31.0250   38.6340 N   0  0  0  0  0  0  0  0  0  0  0  0
   39.9270   30.3940   37.9660 C   0  0  0  0  0  0  0  0  0  0  0  0
   40.7710   31.5290   37.4480 C   0  0  0  0  0  0  0  0  0  0  0  0
   40.4560   32.6480   38.3950 C   0  0  0  0  0  0  0  0  0  0  0  0
   39.0340   32.4390   38.7730 C   0  0  0  0  0  0  0  0  0  0  0  0
   34.9460   30.6940   41.0000 H   0  0  0  0  0  0  0  0  0  0  0  0
   40.4590   29.7050   38.6260 H   0  0  0  0  0  0  0  0  0  0  0  0
   39.5210   29.8730   37.0520 H   0  0  0  0  0  0  0  0  0  0  0  0
   41.8340   31.2240   37.5450 H   0  0  0  0  0  0  0  0  0  0  0  0
   40.5620   31.7710   36.3870 H   0  0  0  0  0  0  0  0  0  0  0  0
   41.1930   32.6220   39.1980 H   0  0  0  0  0  0  0  0  0  0  0  0
   40.5830   33.5990   37.8140 H   0  0  0  0  0  0  0  0  0  0  0  0
   38.3990   33.0780   38.1580 H   0  0  0  0  0  0  0  0  0  0  0  0
   39.0660   32.7470   39.8650 H   0  0  0  0  0  0  0  0  0  0  0  0
   36.8110   32.3180   40.2530 N   0  0  0  0  0  0  0  0  0  0  0  0
   37.1630   32.2970   41.2560 H   0  0  0  0  0  0  0  0  0  0  0  0
   36.5890   33.1930   39.7290 H   0  0  0  0  0  0  0  0  0  0  0  0
   37.9820   27.1710   41.0310 C   0  0  0  0  0  0  0  0  0  0  0  0
   37.2500   27.6670   42.1370 C   0  0  0  0  0  0  0  0  0  0  0  0
   36.2820   27.2590   42.4700 H   0  0  0  0  0  0  0  0  0  0  0  0
   37.6500   28.7300   42.9560 C   0  0  0  0  0  3  0  0  0  0  0  0
   38.8460   29.3430   42.6620 C   0  0  0  0  0  0  0  0  0  0  0  0
   39.3590   30.3690   43.3510 N   0  0  0  0  0  0  0  0  0  0  0  0
   40.5460   30.9270   43.0060 C   0  0  0  0  0  0  0  0  0  0  0  0
   40.9630   31.7610   43.5650 H   0  0  0  0  0  0  0  0  0  0  0  0
   41.3230   30.4960   41.9320 C   0  0  0  0  0  3  0  0  0  0  0  0
   40.7950   29.4230   41.2060 C   0  0  0  0  0  3  0  0  0  0  0  0
   39.5980   28.9020   41.5980 C   0  0  0  0  0  0  0  0  0  0  0  0
   39.1660   27.8550   40.8240 C   0  0  0  0  0  3  0  0  0  0  0  0
  1 19  1  0  0  0  0
  1 10  1  0  0  0  0
  2  1  2  0  0  0  0
  3  2  1  0  0  0  0
  3  4  2  0  0  0  0
  4  5  1  0  0  0  0
  5 10  2  0  0  0  0
  5  6  1  0  0  0  0
  6  7  2  0  0  0  0
  7  8  1  0  0  0  0
  7 13  1  0  0  0  0
  8 14  1  0  0  0  0
  9 38  1  0  0  0  0
  9  8  2  0  0  0  0
 10  9  1  0  0  0  0
 11  3  1  0  0  0  0
 12  6  1  0  0  0  0
 15 26  1  0  0  0  0
 16 35  1  0  0  0  0
 16 15  2  0  0  0  0
 17 16  1  0  0  0  0
 18 17  2  0  0  0  0
 18 19  1  0  0  0  0
 19 20  2  0  0  0  0
 20 15  1  0  0  0  0
 21 25  1  0  0  0  0
 21 17  1  0  0  0  0
 22 27  1  0  0  0  0
 22 21  1  0  0  0  0
 23 29  1  0  0  0  0
 23 22  1  0  0  0  0
 23 24  1  0  0  0  0
 24 25  1  0  0  0  0
 24 31  1  0  0  0  0
 25 34  1  0  0  0  0
 28 22  1  0  0  0  0
 30 23  1  0  0  0  0
 32 24  1  0  0  0  0
 33 25  1  0  0  0  0
 35 36  1  0  0  0  0
 37 35  1  0  0  0  0
 38 39  1  0  0  0  0
 39 40  1  0  0  0  0
 39 41  2  0  0  0  0
 42 41  1  0  0  0  0
 42 43  1  0  0  0  0
 44 43  2  0  0  0  0
 44 45  1  0  0  0  0
 46 44  1  0  0  0  0
 47 48  1  0  0  0  0
 47 46  2  0  0  0  0
 48 42  2  0  0  0  0
 49 38  2  0  0  0  0
 49 48  1  0  0  0  0
M  END
>  <minimizedAffinity>
-6.75653648

$$$$

 OpenBabel03252502063D

 49 54  0  0  0  0  0  0  0  0999 V2000
   40.2110   31.2210   38.1640 C   0  0  0  0  0  0  0  0  0  0  0  0
   40.4070   32.5600   38.3040 N   0  0  0  0  0  0  0  0  0  0  0  0
   41.4350   33.2400   37.8010 C   0  0  0  0  0  0  0  0  0  0  0  0
   42.3790   32.5820   37.0870 N   0  0  0  0  0  0  0  0  0  0  0  0
   42.2810   31.2660   36.8890 C   0  0  0  0  0  0  0  0  0  0  0  0
   43.2340   30.6060   36.1350 C   0  0  0  0  0  0  0  0  0  0  0  0
   43.1290   29.2500   35.9030 C   0  0  0  0  0  0  0  0  0  0  0  0
   42.0530   28.5880   36.4460 C   0  0  0  0  0  0  0  0  0  0  0  0
   41.1300   29.2970   37.1900 C   0  0  0  0  0  0  0  0  0  0  0  0
   41.1980   30.6270   37.4370 C   0  0  0  0  0  0  0  0  0  0  0  0
   41.5200   34.3100   37.9590 H   0  0  0  0  0  0  0  0  0  0  0  0
   44.0540   31.2300   35.7490 H   0  0  0  0  0  0  0  0  0  0  0  0
   43.9530   28.8770   35.2900 H   0  0  0  0  0  0  0  0  0  0  0  0
   42.1380   27.5460   36.1650 H   0  0  0  0  0  0  0  0  0  0  0  0
   36.8100   30.0760   38.1600 C   0  0  0  0  0  0  0  0  0  0  0  0
   36.6040   29.4160   39.3600 C   0  0  0  0  0  0  0  0  0  0  0  0
   37.6580   29.3380   40.2040 C   0  0  0  0  0  0  0  0  0  0  0  0
   38.8330   29.8900   39.8750 N   0  0  0  0  0  0  0  0  0  0  0  0
   39.0430   30.5390   38.7190 C   0  0  0  0  0  0  0  0  0  0  0  0
   37.9950   30.6040   37.8840 N   0  0  0  0  0  0  0  0  0  0  0  0
   37.5780   28.6570   41.4090 N   0  0  0  0  0  0  0  0  0  0  0  0
   38.7170   28.2800   42.2670 C   0  0  0  0  0  0  0  0  0  0  0  0
   38.1140   27.8120   43.5650 C   0  0  0  0  0  0  0  0  0  0  0  0
   36.7630   27.3070   43.1520 C   0  0  0  0  0  0  0  0  0  0  0  0
   36.3590   28.1840   42.0220 C   0  0  0  0  0  0  0  0  0  0  0  0
   35.9560   30.1360   37.4670 H   0  0  0  0  0  0  0  0  0  0  0  0
   39.3700   27.5470   41.7870 H   0  0  0  0  0  0  0  0  0  0  0  0
   39.2640   29.2350   42.5110 H   0  0  0  0  0  0  0  0  0  0  0  0
   38.7430   26.9770   43.9420 H   0  0  0  0  0  0  0  0  0  0  0  0
   38.0760   28.6090   44.3340 H   0  0  0  0  0  0  0  0  0  0  0  0
   36.8560   26.2400   42.9460 H   0  0  0  0  0  0  0  0  0  0  0  0
   36.0880   27.4510   44.0350 H   0  0  0  0  0  0  0  0  0  0  0  0
   35.7040   28.9730   42.3940 H   0  0  0  0  0  0  0  0  0  0  0  0
   35.8300   27.4300   41.3590 H   0  0  0  0  0  0  0  0  0  0  0  0
   35.3260   28.9660   39.6830 N   0  0  0  0  0  0  0  0  0  0  0  0
   35.2300   28.0670   39.1240 H   0  0  0  0  0  0  0  0  0  0  0  0
   34.5830   29.3510   40.3060 H   0  0  0  0  0  0  0  0  0  0  0  0
   40.1690   28.2710   37.5820 C   0  0  0  0  0  0  0  0  0  0  0  0
   39.2310   28.0410   36.5470 C   0  0  0  0  0  0  0  0  0  0  0  0
   39.2030   28.6070   35.6010 H   0  0  0  0  0  0  0  0  0  0  0  0
   38.2200   27.0730   36.5770 C   0  0  0  0  0  3  0  0  0  0  0  0
   38.1300   26.2850   37.7000 C   0  0  0  0  0  0  0  0  0  0  0  0
   37.2190   25.3200   37.8750 N   0  0  0  0  0  0  0  0  0  0  0  0
   37.1860   24.5780   39.0100 C   0  0  0  0  0  0  0  0  0  0  0  0
   36.4460   23.7940   39.1530 H   0  0  0  0  0  0  0  0  0  0  0  0
   38.0740   24.7440   40.0710 C   0  0  0  0  0  3  0  0  0  0  0  0
   39.0300   25.7500   39.8980 C   0  0  0  0  0  3  0  0  0  0  0  0
   39.0150   26.4650   38.7360 C   0  0  0  0  0  0  0  0  0  0  0  0
   39.9910   27.4270   38.6620 C   0  0  0  0  0  3  0  0  0  0  0  0
  1  2  1  0  0  0  0
  1 19  1  0  0  0  0
  3 11  1  0  0  0  0
  3  2  2  0  0  0  0
  4  3  1  0  0  0  0
  5  4  2  0  0  0  0
  5 10  1  0  0  0  0
  6  5  1  0  0  0  0
  7  6  2  0  0  0  0
  7  8  1  0  0  0  0
  8  9  2  0  0  0  0
  9 10  1  0  0  0  0
  9 38  1  0  0  0  0
 10  1  2  0  0  0  0
 12  6  1  0  0  0  0
 13  7  1  0  0  0  0
 14  8  1  0  0  0  0
 15 16  1  0  0  0  0
 16 35  1  0  0  0  0
 16 17  2  0  0  0  0
 17 21  1  0  0  0  0
 18 17  1  0  0  0  0
 19 18  2  0  0  0  0
 20 15  2  0  0  0  0
 20 19  1  0  0  0  0
 21 25  1  0  0  0  0
 21 22  1  0  0  0  0
 22 28  1  0  0  0  0
 22 23  1  0  0  0  0
 23 29  1  0  0  0  0
 23 30  1  0  0  0  0
 24 23  1  0  0  0  0
 24 32  1  0  0  0  0
 25 33  1  0  0  0  0
 25 24  1  0  0  0  0
 26 15  1  0  0  0  0
 27 22  1  0  0  0  0
 31 24  1  0  0  0  0
 34 25  1  0  0  0  0
 35 37  1  0  0  0  0
 36 35  1  0  0  0  0
 38 49  1  0  0  0  0
 39 41  1  0  0  0  0
 39 38  2  0  0  0  0
 40 39  1  0  0  0  0
 41 42  2  0  0  0  0
 42 43  1  0  0  0  0
 42 48  1  0  0  0  0
 43 44  2  0  0  0  0
 44 45  1  0  0  0  0
 44 46  1  0  0  0  0
 47 46  2  0  0  0  0
 48 47  1  0  0  0  0
 49 48  2  0  0  0  0
M  END
>  <minimizedAffinity>
-6.59149742

$$$$

 OpenBabel03252502063D

 49 54  0  0  0  0  0  0  0  0999 V2000
   37.6870   30.0460   40.1570 C   0  0  0  0  0  0  0  0  0  0  0  0
   36.4540   30.1470   39.5900 N   0  0  0  0  0  0  0  0  0  0  0  0
   35.3640   29.5110   40.0110 C   0  0  0  0  0  0  0  0  0  0  0  0
   35.4480   28.6910   41.0850 N   0  0  0  0  0  0  0  0  0  0  0  0
   36.6110   28.5220   41.7160 C   0  0  0  0  0  0  0  0  0  0  0  0
   36.6840   27.7040   42.8300 C   0  0  0  0  0  0  0  0  0  0  0  0
   37.8760   27.5430   43.5040 C   0  0  0  0  0  0  0  0  0  0  0  0
   38.9780   28.2160   43.0310 C   0  0  0  0  0  0  0  0  0  0  0  0
   38.8490   29.0200   41.9150 C   0  0  0  0  0  0  0  0  0  0  0  0
   37.6960   29.2060   41.2280 C   0  0  0  0  0  0  0  0  0  0  0  0
   34.4150   29.6440   39.5020 H   0  0  0  0  0  0  0  0  0  0  0  0
   35.7450   27.2110   43.1220 H   0  0  0  0  0  0  0  0  0  0  0  0
   37.7710   26.8720   44.3610 H   0  0  0  0  0  0  0  0  0  0  0  0
   39.8110   27.9680   43.6760 H   0  0  0  0  0  0  0  0  0  0  0  0
   39.8680   32.8880   39.9460 C   0  0  0  0  0  0  0  0  0  0  0  0
   40.8420   32.5820   39.0100 C   0  0  0  0  0  0  0  0  0  0  0  0
   40.7740   31.3600   38.4330 C   0  0  0  0  0  0  0  0  0  0  0  0
   39.7940   30.5080   38.7620 N   0  0  0  0  0  0  0  0  0  0  0  0
   38.8400   30.7960   39.6610 C   0  0  0  0  0  0  0  0  0  0  0  0
   38.9210   32.0060   40.2350 N   0  0  0  0  0  0  0  0  0  0  0  0
   41.7250   30.9300   37.5210 N   0  0  0  0  0  0  0  0  0  0  0  0
   41.9030   29.5460   37.0430 C   0  0  0  0  0  0  0  0  0  0  0  0
   42.8620   29.6330   35.8850 C   0  0  0  0  0  0  0  0  0  0  0  0
   43.6680   30.8580   36.2010 C   0  0  0  0  0  0  0  0  0  0  0  0
   42.7210   31.7690   36.8950 C   0  0  0  0  0  0  0  0  0  0  0  0
   39.9250   33.8790   40.4230 H   0  0  0  0  0  0  0  0  0  0  0  0
   42.2250   28.8740   37.8410 H   0  0  0  0  0  0  0  0  0  0  0  0
   40.9150   29.2320   36.6000 H   0  0  0  0  0  0  0  0  0  0  0  0
   43.5030   28.7260   35.9150 H   0  0  0  0  0  0  0  0  0  0  0  0
   42.3480   29.6780   34.9040 H   0  0  0  0  0  0  0  0  0  0  0  0
   44.5510   30.5410   36.7560 H   0  0  0  0  0  0  0  0  0  0  0  0
   43.9900   31.2860   35.2160 H   0  0  0  0  0  0  0  0  0  0  0  0
   42.3210   32.4880   36.1790 H   0  0  0  0  0  0  0  0  0  0  0  0
   43.4130   32.2330   37.6650 H   0  0  0  0  0  0  0  0  0  0  0  0
   41.7620   33.5580   38.6350 N   0  0  0  0  0  0  0  0  0  0  0  0
   42.4670   33.5540   39.4310 H   0  0  0  0  0  0  0  0  0  0  0  0
   41.8230   34.1830   37.8020 H   0  0  0  0  0  0  0  0  0  0  0  0
   40.1980   29.5440   41.7330 C   0  0  0  0  0  0  0  0  0  0  0  0
   40.4390   30.6270   42.6120 C   0  0  0  0  0  0  0  0  0  0  0  0
   39.6830   31.0480   43.2960 H   0  0  0  0  0  0  0  0  0  0  0  0
   41.6560   31.3080   42.7370 C   0  0  0  0  0  3  0  0  0  0  0  0
   42.7000   30.8920   41.9430 C   0  0  0  0  0  0  0  0  0  0  0  0
   43.9190   31.4420   41.9500 N   0  0  0  0  0  0  0  0  0  0  0  0
   44.9060   30.9830   41.1390 C   0  0  0  0  0  0  0  0  0  0  0  0
   45.8970   31.4300   41.1440 H   0  0  0  0  0  0  0  0  0  0  0  0
   44.7460   29.9230   40.2480 C   0  0  0  0  0  3  0  0  0  0  0  0
   43.4740   29.3410   40.2340 C   0  0  0  0  0  3  0  0  0  0  0  0
   42.5220   29.8440   41.0700 C   0  0  0  0  0  0  0  0  0  0  0  0
   41.3100   29.2070   40.9820 C   0  0  0  0  0  3  0  0  0  0  0  0
  1 10  1  0  0  0  0
  2  3  1  0  0  0  0
  2  1  2  0  0  0  0
  3  4  2  0  0  0  0
  4  5  1  0  0  0  0
  5  6  1  0  0  0  0
  6 12  1  0  0  0  0
  6  7  2  0  0  0  0
  7 13  1  0  0  0  0
  8  7  1  0  0  0  0
  8 14  1  0  0  0  0
  9  8  2  0  0  0  0
 10  5  2  0  0  0  0
 10  9  1  0  0  0  0
 11  3  1  0  0  0  0
 15 20  1  0  0  0  0
 15 26  1  0  0  0  0
 16 15  2  0  0  0  0
 17 18  2  0  0  0  0
 17 16  1  0  0  0  0
 18 19  1  0  0  0  0
 19  1  1  0  0  0  0
 19 20  2  0  0  0  0
 21 17  1  0  0  0  0
 22 21  1  0  0  0  0
 22 27  1  0  0  0  0
 23 29  1  0  0  0  0
 23 24  1  0  0  0  0
 23 22  1  0  0  0  0
 24 31  1  0  0  0  0
 24 25  1  0  0  0  0
 25 21  1  0  0  0  0
 25 34  1  0  0  0  0
 28 22  1  0  0  0  0
 30 23  1  0  0  0  0
 32 24  1  0  0  0  0
 33 25  1  0  0  0  0
 35 16  1  0  0  0  0
 35 36  1  0  0  0  0
 37 35  1  0  0  0  0
 38  9  1  0  0  0  0
 38 39  1  0  0  0  0
 39 41  2  0  0  0  0
 39 40  1  0  0  0  0
 42 43  1  0  0  0  0
 42 41  1  0  0  0  0
 44 45  1  0  0  0  0
 44 43  2  0  0  0  0
 46 44  1  0  0  0  0
 47 46  2  0  0  0  0
 47 48  1  0  0  0  0
 48 42  2  0  0  0  0
 49 48  1  0  0  0  0
 49 38  2  0  0  0  0
M  END
>  <minimizedAffinity>
-6.5602808

$$$$
