
 OpenBabel03252508463D

 46 48  0  0  0  0  0  0  0  0999 V2000
   42.3890   31.6700   42.5580 N   0  0  0  0  0  0  0  0  0  0  0  0
   42.8660   30.7450   42.6530 H   0  0  0  0  0  0  0  0  0  0  0  0
   42.9190   32.5380   41.5590 C   0  0  0  0  0  0  0  0  0  0  0  0
   43.5150   31.9550   40.7980 H   0  0  0  0  0  0  0  0  0  0  0  0
   42.0740   32.9900   41.0110 H   0  0  0  0  0  0  0  0  0  0  0  0
   43.5790   34.9470   41.7800 C   0  0  0  0  0  0  0  0  0  0  0  0
   43.8200   33.6070   42.0740 C   0  0  0  0  0  0  0  0  0  0  0  0
   44.9130   33.2930   42.8550 C   0  0  0  0  0  0  0  0  0  0  0  0
   45.7280   34.2930   43.3170 C   0  0  0  0  0  0  0  0  0  0  0  0
   45.5140   35.6140   43.0440 C   0  0  0  0  0  0  0  0  0  0  0  0
   44.4090   35.8780   42.2600 C   0  0  0  0  0  0  0  0  0  0  0  0
   45.1380   32.2660   43.1070 H   0  0  0  0  0  0  0  0  0  0  0  0
   46.5910   34.0280   43.9350 H   0  0  0  0  0  0  0  0  0  0  0  0
   46.1250   36.4350   43.3840 H   0  0  0  0  0  0  0  0  0  0  0  0
   44.1550   36.9060   41.9880 H   0  0  0  0  0  0  0  0  0  0  0  0
   40.1230   35.8340   40.5470 C   0  0  0  0  0  0  0  0  0  0  0  0
   41.1760   35.5960   41.4380 C   0  0  0  0  0  0  0  0  0  0  0  0
   42.4100   35.2210   40.9530 C   0  0  0  0  0  0  0  0  0  0  0  0
   42.5220   35.1030   39.5980 N   0  0  0  0  0  0  0  0  0  0  0  0
   41.5020   35.3350   38.7430 C   0  0  0  0  0  0  0  0  0  0  0  0
   40.3050   35.7000   39.2330 N   0  0  0  0  0  0  0  0  0  0  0  0
   39.1550   36.1290   40.9320 H   0  0  0  0  0  0  0  0  0  0  0  0
   41.0700   35.6940   42.4910 H   0  0  0  0  0  0  0  0  0  0  0  0
   41.7900   35.1870   37.6970 H   0  0  0  0  0  0  0  0  0  0  0  0
   40.6990   31.4230   42.3870 S   0  0  0  0  0  0  0  0  0  0  0  0
   39.9350   32.6900   42.6940 O   0  0  0  0  0  0  0  0  0  0  0  0
   39.1870   32.7830   43.3330 H   0  0  0  0  0  0  0  0  0  0  0  0
   40.2320   30.3110   43.2590 O   0  0  0  0  0  0  0  0  0  0  0  0
   40.7450   29.4480   43.3650 H   0  0  0  0  0  0  0  0  0  0  0  0
   40.4060   31.0080   40.7840 O   0  0  0  0  0  0  0  0  0  0  0  0
   39.3360   30.1180   40.7640 C   0  0  0  0  0  0  0  0  0  0  0  0
   38.4420   30.7010   40.4150 H   0  0  0  0  0  0  0  0  0  0  0  0
   39.1040   29.6460   41.7140 H   0  0  0  0  0  0  0  0  0  0  0  0
   39.5890   29.0700   39.6620 C   0  0  0  0  0  0  0  0  0  0  0  0
   39.9410   29.5990   38.7550 H   0  0  0  0  0  0  0  0  0  0  0  0
   40.3860   28.3880   39.9790 H   0  0  0  0  0  0  0  0  0  0  0  0
   38.3630   28.3340   39.4380 N   0  0  0  0  0  0  0  0  0  0  0  0
   37.9120   27.4790   40.3850 C   0  0  0  0  0  3  0  0  0  0  0  0
   36.7310   26.7990   40.1150 C   0  0  0  0  0  0  0  0  0  0  0  0
   36.3190   26.0920   40.8500 H   0  0  0  0  0  0  0  0  0  0  0  0
   36.0840   27.0210   38.9180 C   0  0  0  0  0  0  0  0  0  0  0  0
   35.0000   26.4220   38.6270 O   0  0  0  0  0  0  0  0  0  0  0  0
   36.5820   27.8910   38.0030 N   0  0  0  0  0  0  0  0  0  0  0  0
   37.7230   28.5430   38.2700 C   0  0  0  0  0  0  0  0  0  0  0  0
   38.1940   29.3630   37.4110 O   0  0  0  0  0  0  0  0  0  0  0  0
   36.1210   28.0840   37.0870 H   0  0  0  0  0  0  0  0  0  0  0  0
  1  2  1  0  0  0  0
  3  7  1  0  0  0  0
  3  1  1  0  0  0  0
  4  3  1  0  0  0  0
  5  3  1  0  0  0  0
  6  7  2  0  0  0  0
  6 11  1  0  0  0  0
  7  8  1  0  0  0  0
  8 12  1  0  0  0  0
  8  9  2  0  0  0  0
  9 13  1  0  0  0  0
 10  9  1  0  0  0  0
 10 14  1  0  0  0  0
 11 10  2  0  0  0  0
 15 11  1  0  0  0  0
 16 22  1  0  0  0  0
 16 17  1  0  0  0  0
 17 23  1  0  0  0  0
 18 17  2  0  0  0  0
 18  6  1  0  0  0  0
 19 18  1  0  0  0  0
 20 21  1  0  0  0  0
 20 19  2  0  0  0  0
 21 16  2  0  0  0  0
 24 20  1  0  0  0  0
 25  1  1  0  0  0  0
 25 26  1  0  0  0  0
 25 28  1  0  0  0  0
 26 27  1  0  0  0  0
 28 29  1  0  0  0  0
 30 25  1  0  0  0  0
 31 30  1  0  0  0  0
 31 33  1  0  0  0  0
 32 31  1  0  0  0  0
 34 36  1  0  0  0  0
 34 31  1  0  0  0  0
 35 34  1  0  0  0  0
 37 34  1  0  0  0  0
 37 38  1  0  0  0  0
 39 38  2  0  0  0  0
 39 40  1  0  0  0  0
 41 39  1  0  0  0  0
 42 41  2  0  0  0  0
 43 44  1  0  0  0  0
 43 41  1  0  0  0  0
 44 37  1  0  0  0  0
 45 44  2  0  0  0  0
 46 43  1  0  0  0  0
M  END
>  <minimizedAffinity>
-5.06642199

>  <minimizedRMSD>
2.63825703

$$$$
