
 OpenBabel03252508463D

 46 48  0  0  0  0  0  0  0  0999 V2000
   42.3320   31.7360   42.5170 N   0  0  0  0  0  0  0  0  0  0  0  0
   42.7240   30.7860   42.7080 H   0  0  0  0  0  0  0  0  0  0  0  0
   43.0510   32.5240   41.5720 C   0  0  0  0  0  0  0  0  0  0  0  0
   43.7290   31.8740   40.9440 H   0  0  0  0  0  0  0  0  0  0  0  0
   42.3240   32.9770   40.8760 H   0  0  0  0  0  0  0  0  0  0  0  0
   43.7080   34.9260   41.8600 C   0  0  0  0  0  0  0  0  0  0  0  0
   43.9130   33.5830   42.1680 C   0  0  0  0  0  0  0  0  0  0  0  0
   44.9310   33.2580   43.0390 C   0  0  0  0  0  0  0  0  0  0  0  0
   45.7110   34.2490   43.5750 C   0  0  0  0  0  0  0  0  0  0  0  0
   45.5310   35.5730   43.2900 C   0  0  0  0  0  0  0  0  0  0  0  0
   44.5000   35.8490   42.4140 C   0  0  0  0  0  0  0  0  0  0  0  0
   45.1260   32.2270   43.3050 H   0  0  0  0  0  0  0  0  0  0  0  0
   46.5150   33.9750   44.2640 H   0  0  0  0  0  0  0  0  0  0  0  0
   46.1170   36.3880   43.6850 H   0  0  0  0  0  0  0  0  0  0  0  0
   44.2790   36.8800   42.1260 H   0  0  0  0  0  0  0  0  0  0  0  0
   40.4060   35.9280   40.3290 C   0  0  0  0  0  0  0  0  0  0  0  0
   41.3790   35.6880   41.3070 C   0  0  0  0  0  0  0  0  0  0  0  0
   42.6170   35.2120   40.9350 C   0  0  0  0  0  0  0  0  0  0  0  0
   42.8130   35.0000   39.6020 N   0  0  0  0  0  0  0  0  0  0  0  0
   41.8710   35.2340   38.6640 C   0  0  0  0  0  0  0  0  0  0  0  0
   40.6680   35.6980   39.0430 N   0  0  0  0  0  0  0  0  0  0  0  0
   39.4330   36.3030   40.6260 H   0  0  0  0  0  0  0  0  0  0  0  0
   41.2070   35.8600   42.3420 H   0  0  0  0  0  0  0  0  0  0  0  0
   42.2200   35.0020   37.6520 H   0  0  0  0  0  0  0  0  0  0  0  0
   40.6660   31.5950   42.1260 S   0  0  0  0  0  0  0  0  0  0  0  0
   39.9100   32.8390   42.5290 O   0  0  0  0  0  0  0  0  0  0  0  0
   39.0950   32.8750   43.0870 H   0  0  0  0  0  0  0  0  0  0  0  0
   40.0680   30.3930   42.7680 O   0  0  0  0  0  0  0  0  0  0  0  0
   40.5380   29.5010   42.8020 H   0  0  0  0  0  0  0  0  0  0  0  0
   40.5500   31.4270   40.4570 O   0  0  0  0  0  0  0  0  0  0  0  0
   39.6600   32.3910   39.9930 C   0  0  0  0  0  0  0  0  0  0  0  0
   39.9900   32.6570   38.9530 H   0  0  0  0  0  0  0  0  0  0  0  0
   39.6010   33.2970   40.5890 H   0  0  0  0  0  0  0  0  0  0  0  0
   38.2740   31.7400   39.8210 C   0  0  0  0  0  0  0  0  0  0  0  0
   38.0200   31.2130   40.7610 H   0  0  0  0  0  0  0  0  0  0  0  0
   37.5190   32.5190   39.6630 H   0  0  0  0  0  0  0  0  0  0  0  0
   38.3210   30.8520   38.6790 N   0  0  0  0  0  0  0  0  0  0  0  0
   38.6910   31.3360   37.4710 C   0  0  0  0  0  3  0  0  0  0  0  0
   38.7200   30.4390   36.4100 C   0  0  0  0  0  0  0  0  0  0  0  0
   39.0140   30.7770   35.4050 H   0  0  0  0  0  0  0  0  0  0  0  0
   38.3750   29.1210   36.6340 C   0  0  0  0  0  0  0  0  0  0  0  0
   38.3870   28.2630   35.6920 O   0  0  0  0  0  0  0  0  0  0  0  0
   38.0120   28.6900   37.8660 N   0  0  0  0  0  0  0  0  0  0  0  0
   37.9870   29.5620   38.8860 C   0  0  0  0  0  0  0  0  0  0  0  0
   37.6450   29.1600   40.0480 O   0  0  0  0  0  0  0  0  0  0  0  0
   37.7450   27.7030   38.0730 H   0  0  0  0  0  0  0  0  0  0  0  0
  1  2  1  0  0  0  0
  3  7  1  0  0  0  0
  3  1  1  0  0  0  0
  4  3  1  0  0  0  0
  5  3  1  0  0  0  0
  6  7  2  0  0  0  0
  6 11  1  0  0  0  0
  7  8  1  0  0  0  0
  8 12  1  0  0  0  0
  8  9  2  0  0  0  0
  9 13  1  0  0  0  0
 10  9  1  0  0  0  0
 10 14  1  0  0  0  0
 11 10  2  0  0  0  0
 15 11  1  0  0  0  0
 16 22  1  0  0  0  0
 16 17  1  0  0  0  0
 17 23  1  0  0  0  0
 18 17  2  0  0  0  0
 18  6  1  0  0  0  0
 19 18  1  0  0  0  0
 20 21  1  0  0  0  0
 20 19  2  0  0  0  0
 21 16  2  0  0  0  0
 24 20  1  0  0  0  0
 25  1  1  0  0  0  0
 25 26  1  0  0  0  0
 25 28  1  0  0  0  0
 26 27  1  0  0  0  0
 28 29  1  0  0  0  0
 30 25  1  0  0  0  0
 31 30  1  0  0  0  0
 31 33  1  0  0  0  0
 32 31  1  0  0  0  0
 34 31  1  0  0  0  0
 34 35  1  0  0  0  0
 36 34  1  0  0  0  0
 37 44  1  0  0  0  0
 37 34  1  0  0  0  0
 38 37  1  0  0  0  0
 39 41  1  0  0  0  0
 39 38  2  0  0  0  0
 40 39  1  0  0  0  0
 41 43  1  0  0  0  0
 42 41  2  0  0  0  0
 43 46  1  0  0  0  0
 43 44  1  0  0  0  0
 44 45  2  0  0  0  0
M  END
>  <minimizedAffinity>
-5.51420307

>  <minimizedRMSD>
2.30865145

$$$$
