
 OpenBabel03252507073D

 25 26  0  0  0  0  0  0  0  0999 V2000
   44.6190   36.1920   44.4200 C   0  0  0  0  0  0  0  0  0  0  0  0
   45.2890   36.1200   43.1670 C   0  0  0  0  0  0  0  0  0  0  0  0
   46.0470   34.9840   42.9100 C   0  0  0  0  0  0  0  0  0  0  0  0
   46.1140   34.0010   43.8620 N   0  0  0  0  0  0  0  0  0  0  0  0
   45.4590   34.1110   45.0430 C   0  0  0  0  0  0  0  0  0  0  0  0
   44.7170   35.2010   45.3190 N   0  0  0  0  0  0  0  0  0  0  0  0
   44.0240   37.0560   44.6510 H   0  0  0  0  0  0  0  0  0  0  0  0
   45.1730   36.9540   42.4770 H   0  0  0  0  0  0  0  0  0  0  0  0
   45.6900   32.9630   45.8510 N   0  0  0  0  0  0  0  0  0  0  0  0
   45.5450   33.1140   47.1830 C   0  0  0  0  0  3  0  0  0  0  0  0
   45.7690   31.9910   47.9900 C   0  0  0  0  0  0  0  0  0  0  0  0
   45.6580   32.0950   49.0540 H   0  0  0  0  0  0  0  0  0  0  0  0
   46.1210   30.8100   47.3720 C   0  0  0  0  0  0  0  0  0  0  0  0
   46.3250   29.7930   48.0950 O   0  0  0  0  0  0  0  0  0  0  0  0
   46.2550   30.7040   46.0360 N   0  0  0  0  0  0  0  0  0  0  0  0
   46.0350   31.7980   45.2720 C   0  0  0  0  0  0  0  0  0  0  0  0
   46.1700   31.6570   44.0300 O   0  0  0  0  0  0  0  0  0  0  0  0
   46.5260   29.7750   45.6250 H   0  0  0  0  0  0  0  0  0  0  0  0
   46.7020   34.9080   41.6900 O   0  0  0  0  0  0  0  0  0  0  0  0
   48.6900   33.2890   41.0110 O   0  0  0  0  0  0  0  0  0  0  0  0
   48.3990   34.6460   41.6610 P   0  0  0  0  0  0  0  0  0  0  0  0
   49.1150   35.8990   40.8290 O   0  0  0  0  0  0  0  0  0  0  0  0
   49.0760   35.6720   39.8640 H   0  0  0  0  0  0  0  0  0  0  0  0
   48.9210   34.5530   43.2720 O   0  0  0  0  0  0  0  0  0  0  0  0
   48.9770   35.4890   43.5980 H   0  0  0  0  0  0  0  0  0  0  0  0
  1  7  1  0  0  0  0
  1  6  1  0  0  0  0
  2  1  2  0  0  0  0
  3  2  1  0  0  0  0
  3  4  2  0  0  0  0
  4  5  1  0  0  0  0
  5  6  2  0  0  0  0
  5  9  1  0  0  0  0
  8  2  1  0  0  0  0
  9 10  1  0  0  0  0
 10 11  2  0  0  0  0
 11 12  1  0  0  0  0
 13 11  1  0  0  0  0
 13 14  2  0  0  0  0
 15 13  1  0  0  0  0
 16  9  1  0  0  0  0
 16 15  1  0  0  0  0
 17 16  2  0  0  0  0
 18 15  1  0  0  0  0
 19  3  1  0  0  0  0
 20 21  2  0  0  0  0
 21 19  1  0  0  0  0
 21 24  1  0  0  0  0
 22 21  1  0  0  0  0
 23 22  1  0  0  0  0
 24 25  1  0  0  0  0
M  END
>  <minimizedAffinity>
-5.9739933

>  <minimizedRMSD>
0.369223297

$$$$
