
 OpenBabel03252504543D

 22 23  0  0  0  0  0  0  0  0999 V2000
   37.8860   32.4690   40.2290 C   0  0  0  0  0  0  0  0  0  0  0  0
   36.9700   32.3370   39.6110 H   0  0  0  0  0  0  0  0  0  0  0  0
   37.7930   33.3710   40.8520 H   0  0  0  0  0  0  0  0  0  0  0  0
   38.0190   31.3420   41.1560 N   0  0  0  0  0  0  0  0  0  0  0  0
   39.1680   31.0560   41.8350 C   0  0  0  0  0  3  0  0  0  0  0  0
   39.1460   29.9690   42.6700 C   0  0  0  0  0  0  0  0  0  0  0  0
   40.0650   29.7380   43.2140 H   0  0  0  0  0  0  0  0  0  0  0  0
   38.0190   29.1740   42.8380 C   0  0  0  0  0  0  0  0  0  0  0  0
   38.0530   28.2020   43.6070 O   0  0  0  0  0  0  0  0  0  0  0  0
   36.8920   29.4590   42.1690 N   0  0  0  0  0  0  0  0  0  0  0  0
   36.9450   30.5320   41.3590 C   0  0  0  0  0  0  0  0  0  0  0  0
   35.8810   30.8150   40.7160 O   0  0  0  0  0  0  0  0  0  0  0  0
   36.0080   28.9130   42.2430 H   0  0  0  0  0  0  0  0  0  0  0  0
   41.0680   33.8010   38.8300 C   0  0  0  0  0  0  0  0  0  0  0  0
   39.9410   33.6550   39.6590 C   0  0  0  0  0  0  0  0  0  0  0  0
   39.0560   32.6090   39.3570 C   0  0  0  0  0  0  0  0  0  0  0  0
   39.3280   31.7940   38.2860 N   0  0  0  0  0  0  0  0  0  0  0  0
   40.4280   31.9800   37.5220 C   0  0  0  0  0  0  0  0  0  0  0  0
   41.2940   32.9810   37.7940 N   0  0  0  0  0  0  0  0  0  0  0  0
   41.7330   34.6140   39.0850 H   0  0  0  0  0  0  0  0  0  0  0  0
   39.7900   34.3390   40.4890 H   0  0  0  0  0  0  0  0  0  0  0  0
   40.4700   31.2570   36.7460 H   0  0  0  0  0  0  0  0  0  0  0  0
  1  3  1  0  0  0  0
  1  4  1  0  0  0  0
  2  1  1  0  0  0  0
  4 11  1  0  0  0  0
  4  5  1  0  0  0  0
  5  6  2  0  0  0  0
  6  8  1  0  0  0  0
  6  7  1  0  0  0  0
  8  9  2  0  0  0  0
 10 13  1  0  0  0  0
 10  8  1  0  0  0  0
 11 10  1  0  0  0  0
 12 11  2  0  0  0  0
 14 20  1  0  0  0  0
 14 15  1  0  0  0  0
 15 21  1  0  0  0  0
 16 15  2  0  0  0  0
 16  1  1  0  0  0  0
 17 16  1  0  0  0  0
 18 19  1  0  0  0  0
 18 17  2  0  0  0  0
 19 14  2  0  0  0  0
 22 18  1  0  0  0  0
M  END
>  <minimizedAffinity>
-4.3399744

$$$$

 OpenBabel03252504543D

 22 23  0  0  0  0  0  0  0  0999 V2000
   36.9020   27.3550   43.0040 C   0  0  0  0  0  0  0  0  0  0  0  0
   37.4420   27.6930   43.9170 H   0  0  0  0  0  0  0  0  0  0  0  0
   35.8810   27.0390   43.2660 H   0  0  0  0  0  0  0  0  0  0  0  0
   36.7580   28.4800   42.0760 N   0  0  0  0  0  0  0  0  0  0  0  0
   35.8510   28.5040   41.0550 C   0  0  0  0  0  3  0  0  0  0  0  0
   35.8290   29.6240   40.2670 C   0  0  0  0  0  0  0  0  0  0  0  0
   35.1040   29.6440   39.4490 H   0  0  0  0  0  0  0  0  0  0  0  0
   36.6790   30.7040   40.4710 C   0  0  0  0  0  0  0  0  0  0  0  0
   36.6170   31.6930   39.7270 O   0  0  0  0  0  0  0  0  0  0  0  0
   37.5680   30.6760   41.4750 N   0  0  0  0  0  0  0  0  0  0  0  0
   37.5650   29.5640   42.2320 C   0  0  0  0  0  0  0  0  0  0  0  0
   38.4050   29.5230   43.1900 O   0  0  0  0  0  0  0  0  0  0  0  0
   38.2370   31.4450   41.6920 H   0  0  0  0  0  0  0  0  0  0  0  0
   37.5330   23.9630   41.6080 C   0  0  0  0  0  0  0  0  0  0  0  0
   36.8650   25.0550   42.1890 C   0  0  0  0  0  0  0  0  0  0  0  0
   37.6120   26.2250   42.3980 C   0  0  0  0  0  0  0  0  0  0  0  0
   38.9350   26.2440   42.0310 N   0  0  0  0  0  0  0  0  0  0  0  0
   39.5270   25.1640   41.4760 C   0  0  0  0  0  0  0  0  0  0  0  0
   38.8280   24.0270   41.2650 N   0  0  0  0  0  0  0  0  0  0  0  0
   36.9340   23.0760   41.4580 H   0  0  0  0  0  0  0  0  0  0  0  0
   35.8160   24.9670   42.4540 H   0  0  0  0  0  0  0  0  0  0  0  0
   40.5470   25.3670   41.2600 H   0  0  0  0  0  0  0  0  0  0  0  0
  1  3  1  0  0  0  0
  1  2  1  0  0  0  0
  4 11  1  0  0  0  0
  4  1  1  0  0  0  0
  5  4  1  0  0  0  0
  6  8  1  0  0  0  0
  6  5  2  0  0  0  0
  7  6  1  0  0  0  0
  8 10  1  0  0  0  0
  9  8  2  0  0  0  0
 10 13  1  0  0  0  0
 10 11  1  0  0  0  0
 11 12  2  0  0  0  0
 14 15  1  0  0  0  0
 15 16  2  0  0  0  0
 15 21  1  0  0  0  0
 16  1  1  0  0  0  0
 17 16  1  0  0  0  0
 18 17  2  0  0  0  0
 19 18  1  0  0  0  0
 19 14  2  0  0  0  0
 20 14  1  0  0  0  0
 22 18  1  0  0  0  0
M  END
>  <minimizedAffinity>
-4.2979598

$$$$

 OpenBabel03252504543D

 22 23  0  0  0  0  0  0  0  0999 V2000
   37.5260   28.7450   40.2070 C   0  0  0  0  0  0  0  0  0  0  0  0
   36.4310   28.5480   40.2500 H   0  0  0  0  0  0  0  0  0  0  0  0
   37.9470   28.3300   39.2790 H   0  0  0  0  0  0  0  0  0  0  0  0
   37.7620   30.1900   40.1540 N   0  0  0  0  0  0  0  0  0  0  0  0
   38.9670   30.7460   39.8310 C   0  0  0  0  0  3  0  0  0  0  0  0
   39.0400   32.1140   39.8220 C   0  0  0  0  0  0  0  0  0  0  0  0
   40.0040   32.5600   39.5630 H   0  0  0  0  0  0  0  0  0  0  0  0
   37.9550   32.9270   40.1240 C   0  0  0  0  0  0  0  0  0  0  0  0
   38.0770   34.1600   40.1010 O   0  0  0  0  0  0  0  0  0  0  0  0
   36.7730   32.3770   40.4410 N   0  0  0  0  0  0  0  0  0  0  0  0
   36.7330   31.0320   40.4410 C   0  0  0  0  0  0  0  0  0  0  0  0
   35.6160   30.4940   40.7410 O   0  0  0  0  0  0  0  0  0  0  0  0
   35.9150   32.9180   40.6780 H   0  0  0  0  0  0  0  0  0  0  0  0
   38.1090   27.5360   43.6790 C   0  0  0  0  0  0  0  0  0  0  0  0
   37.4860   28.1350   42.5700 C   0  0  0  0  0  0  0  0  0  0  0  0
   38.1880   28.1170   41.3550 C   0  0  0  0  0  0  0  0  0  0  0  0
   39.4270   27.5270   41.3100 N   0  0  0  0  0  0  0  0  0  0  0  0
   39.9780   26.9650   42.4090 C   0  0  0  0  0  0  0  0  0  0  0  0
   39.3210   26.9710   43.5890 N   0  0  0  0  0  0  0  0  0  0  0  0
   37.5460   27.5640   44.6010 H   0  0  0  0  0  0  0  0  0  0  0  0
   36.5040   28.5840   42.6800 H   0  0  0  0  0  0  0  0  0  0  0  0
   40.9340   26.5600   42.1820 H   0  0  0  0  0  0  0  0  0  0  0  0
  1  2  1  0  0  0  0
  1 16  1  0  0  0  0
  3  1  1  0  0  0  0
  4  1  1  0  0  0  0
  4 11  1  0  0  0  0
  5  4  1  0  0  0  0
  6  5  2  0  0  0  0
  6  8  1  0  0  0  0
  7  6  1  0  0  0  0
  8 10  1  0  0  0  0
  9  8  2  0  0  0  0
 10 11  1  0  0  0  0
 10 13  1  0  0  0  0
 11 12  2  0  0  0  0
 14 20  1  0  0  0  0
 15 21  1  0  0  0  0
 15 14  2  0  0  0  0
 16 15  1  0  0  0  0
 17 16  2  0  0  0  0
 17 18  1  0  0  0  0
 18 19  2  0  0  0  0
 19 14  1  0  0  0  0
 22 18  1  0  0  0  0
M  END
>  <minimizedAffinity>
-4.2601347

$$$$

 OpenBabel03252504543D

 22 23  0  0  0  0  0  0  0  0999 V2000
   35.7230   29.1790   40.8940 C   0  0  0  0  0  0  0  0  0  0  0  0
   35.1770   28.5090   40.1930 H   0  0  0  0  0  0  0  0  0  0  0  0
   35.0260   29.5930   41.6380 H   0  0  0  0  0  0  0  0  0  0  0  0
   36.7110   28.4020   41.6460 N   0  0  0  0  0  0  0  0  0  0  0  0
   37.3240   28.8550   42.7790 C   0  0  0  0  0  3  0  0  0  0  0  0
   38.2280   28.0170   43.3770 C   0  0  0  0  0  0  0  0  0  0  0  0
   38.7190   28.3790   44.2840 H   0  0  0  0  0  0  0  0  0  0  0  0
   38.5310   26.7570   42.8760 C   0  0  0  0  0  0  0  0  0  0  0  0
   39.3580   26.0390   43.4580 O   0  0  0  0  0  0  0  0  0  0  0  0
   37.9270   26.3160   41.7630 N   0  0  0  0  0  0  0  0  0  0  0  0
   37.0440   27.1600   41.1990 C   0  0  0  0  0  0  0  0  0  0  0  0
   36.4630   26.7550   40.1400 O   0  0  0  0  0  0  0  0  0  0  0  0
   38.1000   25.3850   41.3270 H   0  0  0  0  0  0  0  0  0  0  0  0
   37.1850   31.1000   38.0600 C   0  0  0  0  0  0  0  0  0  0  0  0
   36.5960   30.0510   38.7880 C   0  0  0  0  0  0  0  0  0  0  0  0
   36.3370   30.2820   40.1480 C   0  0  0  0  0  0  0  0  0  0  0  0
   36.6660   31.5000   40.6910 N   0  0  0  0  0  0  0  0  0  0  0  0
   37.2300   32.4740   39.9430 C   0  0  0  0  0  0  0  0  0  0  0  0
   37.4890   32.2730   38.6320 N   0  0  0  0  0  0  0  0  0  0  0  0
   37.3730   30.8950   37.0160 H   0  0  0  0  0  0  0  0  0  0  0  0
   36.3640   29.1130   38.2920 H   0  0  0  0  0  0  0  0  0  0  0  0
   37.4110   33.3390   40.5320 H   0  0  0  0  0  0  0  0  0  0  0  0
  1  3  1  0  0  0  0
  1  4  1  0  0  0  0
  2  1  1  0  0  0  0
  4  5  1  0  0  0  0
  5  6  2  0  0  0  0
  6  7  1  0  0  0  0
  8  6  1  0  0  0  0
  8  9  2  0  0  0  0
 10  8  1  0  0  0  0
 11  4  1  0  0  0  0
 11 10  1  0  0  0  0
 12 11  2  0  0  0  0
 13 10  1  0  0  0  0
 14 19  2  0  0  0  0
 14 15  1  0  0  0  0
 15 16  2  0  0  0  0
 16 17  1  0  0  0  0
 16  1  1  0  0  0  0
 18 22  1  0  0  0  0
 18 17  2  0  0  0  0
 19 18  1  0  0  0  0
 20 14  1  0  0  0  0
 21 15  1  0  0  0  0
M  END
>  <minimizedAffinity>
-4.25176668

$$$$

 OpenBabel03252504543D

 22 23  0  0  0  0  0  0  0  0999 V2000
   36.6060   30.7770   40.4600 C   0  0  0  0  0  0  0  0  0  0  0  0
   36.2830   31.7110   40.9720 H   0  0  0  0  0  0  0  0  0  0  0  0
   35.7820   30.3790   39.8480 H   0  0  0  0  0  0  0  0  0  0  0  0
   37.6970   31.0800   39.5310 N   0  0  0  0  0  0  0  0  0  0  0  0
   38.2930   30.1420   38.7360 C   0  0  0  0  0  3  0  0  0  0  0  0
   39.3030   30.5710   37.9150 C   0  0  0  0  0  0  0  0  0  0  0  0
   39.7810   29.8220   37.2790 H   0  0  0  0  0  0  0  0  0  0  0  0
   39.7250   31.8940   37.8710 C   0  0  0  0  0  0  0  0  0  0  0  0
   40.6440   32.2280   37.1090 O   0  0  0  0  0  0  0  0  0  0  0  0
   39.1370   32.8110   38.6530 N   0  0  0  0  0  0  0  0  0  0  0  0
   38.1490   32.3600   39.4470 C   0  0  0  0  0  0  0  0  0  0  0  0
   37.5810   33.2210   40.1970 O   0  0  0  0  0  0  0  0  0  0  0  0
   39.3960   33.8200   38.6760 H   0  0  0  0  0  0  0  0  0  0  0  0
   36.6000   27.6120   42.4190 C   0  0  0  0  0  0  0  0  0  0  0  0
   36.2430   28.5840   41.4680 C   0  0  0  0  0  0  0  0  0  0  0  0
   36.9890   29.7730   41.4560 C   0  0  0  0  0  0  0  0  0  0  0  0
   38.0130   29.9250   42.3590 N   0  0  0  0  0  0  0  0  0  0  0  0
   38.3130   28.9560   43.2520 C   0  0  0  0  0  0  0  0  0  0  0  0
   37.6080   27.8040   43.2810 N   0  0  0  0  0  0  0  0  0  0  0  0
   36.0090   26.7070   42.4060 H   0  0  0  0  0  0  0  0  0  0  0  0
   35.4200   28.3950   40.7860 H   0  0  0  0  0  0  0  0  0  0  0  0
   39.1300   29.2520   43.8630 H   0  0  0  0  0  0  0  0  0  0  0  0
  1  2  1  0  0  0  0
  1 16  1  0  0  0  0
  3  1  1  0  0  0  0
  4  1  1  0  0  0  0
  5  4  1  0  0  0  0
  6  5  2  0  0  0  0
  7  6  1  0  0  0  0
  8  6  1  0  0  0  0
  8 10  1  0  0  0  0
  9  8  2  0  0  0  0
 10 13  1  0  0  0  0
 10 11  1  0  0  0  0
 11  4  1  0  0  0  0
 11 12  2  0  0  0  0
 14 19  1  0  0  0  0
 15 14  2  0  0  0  0
 16 15  1  0  0  0  0
 16 17  2  0  0  0  0
 17 18  1  0  0  0  0
 18 19  2  0  0  0  0
 18 22  1  0  0  0  0
 20 14  1  0  0  0  0
 21 15  1  0  0  0  0
M  END
>  <minimizedAffinity>
-4.19410753

$$$$

 OpenBabel03252504543D

 22 23  0  0  0  0  0  0  0  0999 V2000
   39.4130   29.5280   40.8630 C   0  0  0  0  0  0  0  0  0  0  0  0
   39.8460   29.0040   39.9810 H   0  0  0  0  0  0  0  0  0  0  0  0
   40.2190   29.8790   41.5240 H   0  0  0  0  0  0  0  0  0  0  0  0
   38.6970   30.7260   40.4180 N   0  0  0  0  0  0  0  0  0  0  0  0
   37.7250   30.7110   39.4590 C   0  0  0  0  0  3  0  0  0  0  0  0
   37.1410   31.9090   39.1440 C   0  0  0  0  0  0  0  0  0  0  0  0
   36.3620   31.8980   38.3760 H   0  0  0  0  0  0  0  0  0  0  0  0
   37.5000   33.1040   39.7540 C   0  0  0  0  0  0  0  0  0  0  0  0
   36.9380   34.1610   39.4300 O   0  0  0  0  0  0  0  0  0  0  0  0
   38.4560   33.1150   40.6950 N   0  0  0  0  0  0  0  0  0  0  0  0
   39.0100   31.9230   40.9840 C   0  0  0  0  0  0  0  0  0  0  0  0
   39.9200   31.9180   41.8760 O   0  0  0  0  0  0  0  0  0  0  0  0
   38.7790   33.9680   41.1980 H   0  0  0  0  0  0  0  0  0  0  0  0
   37.4620   28.0690   43.6770 C   0  0  0  0  0  0  0  0  0  0  0  0
   38.2910   28.9410   42.9490 C   0  0  0  0  0  0  0  0  0  0  0  0
   38.5480   28.6100   41.6090 C   0  0  0  0  0  0  0  0  0  0  0  0
   37.9860   27.4720   41.0850 N   0  0  0  0  0  0  0  0  0  0  0  0
   37.1960   26.6700   41.8310 C   0  0  0  0  0  0  0  0  0  0  0  0
   36.9350   26.9680   43.1230 N   0  0  0  0  0  0  0  0  0  0  0  0
   37.2810   28.3480   44.7050 H   0  0  0  0  0  0  0  0  0  0  0  0
   38.7010   29.8240   43.4300 H   0  0  0  0  0  0  0  0  0  0  0  0
   36.8550   25.8430   41.2580 H   0  0  0  0  0  0  0  0  0  0  0  0
  1  3  1  0  0  0  0
  1 16  1  0  0  0  0
  2  1  1  0  0  0  0
  4  1  1  0  0  0  0
  4 11  1  0  0  0  0
  5  4  1  0  0  0  0
  6  5  2  0  0  0  0
  6  8  1  0  0  0  0
  7  6  1  0  0  0  0
  8 10  1  0  0  0  0
  9  8  2  0  0  0  0
 10 11  1  0  0  0  0
 10 13  1  0  0  0  0
 11 12  2  0  0  0  0
 14 20  1  0  0  0  0
 15 21  1  0  0  0  0
 15 14  2  0  0  0  0
 16 15  1  0  0  0  0
 17 16  2  0  0  0  0
 17 18  1  0  0  0  0
 18 19  2  0  0  0  0
 19 14  1  0  0  0  0
 22 18  1  0  0  0  0
M  END
>  <minimizedAffinity>
-4.16247654

$$$$

 OpenBabel03252504543D

 22 23  0  0  0  0  0  0  0  0999 V2000
   37.6890   30.3910   39.0320 C   0  0  0  0  0  0  0  0  0  0  0  0
   38.3250   29.8570   38.2890 H   0  0  0  0  0  0  0  0  0  0  0  0
   36.6870   30.5630   38.6130 H   0  0  0  0  0  0  0  0  0  0  0  0
   37.5010   29.5450   40.2130 N   0  0  0  0  0  0  0  0  0  0  0  0
   38.5280   28.9440   40.8820 C   0  0  0  0  0  3  0  0  0  0  0  0
   38.2010   28.1800   41.9710 C   0  0  0  0  0  0  0  0  0  0  0  0
   39.0230   27.6990   42.5080 H   0  0  0  0  0  0  0  0  0  0  0  0
   36.8920   28.0050   42.4010 C   0  0  0  0  0  0  0  0  0  0  0  0
   36.6520   27.3030   43.3940 O   0  0  0  0  0  0  0  0  0  0  0  0
   35.8850   28.5970   41.7410 N   0  0  0  0  0  0  0  0  0  0  0  0
   36.2380   29.3410   40.6760 C   0  0  0  0  0  0  0  0  0  0  0  0
   35.2910   29.9100   40.0390 O   0  0  0  0  0  0  0  0  0  0  0  0
   34.8800   28.5150   42.0010 H   0  0  0  0  0  0  0  0  0  0  0  0
   37.9840   33.9700   40.0090 C   0  0  0  0  0  0  0  0  0  0  0  0
   37.4150   32.7260   39.6860 C   0  0  0  0  0  0  0  0  0  0  0  0
   38.2970   31.6820   39.3660 C   0  0  0  0  0  0  0  0  0  0  0  0
   39.6490   31.9230   39.3840 N   0  0  0  0  0  0  0  0  0  0  0  0
   40.1410   33.1410   39.7030 C   0  0  0  0  0  0  0  0  0  0  0  0
   39.3110   34.1600   40.0140 N   0  0  0  0  0  0  0  0  0  0  0  0
   37.2820   34.7550   40.2510 H   0  0  0  0  0  0  0  0  0  0  0  0
   36.3350   32.6080   39.6910 H   0  0  0  0  0  0  0  0  0  0  0  0
   41.2030   33.1360   39.6640 H   0  0  0  0  0  0  0  0  0  0  0  0
  1 16  1  0  0  0  0
  1  4  1  0  0  0  0
  2  1  1  0  0  0  0
  3  1  1  0  0  0  0
  4 11  1  0  0  0  0
  4  5  1  0  0  0  0
  5  6  2  0  0  0  0
  6  8  1  0  0  0  0
  6  7  1  0  0  0  0
  8  9  2  0  0  0  0
 10 13  1  0  0  0  0
 10  8  1  0  0  0  0
 11 10  1  0  0  0  0
 12 11  2  0  0  0  0
 14 19  1  0  0  0  0
 14 20  1  0  0  0  0
 15 21  1  0  0  0  0
 15 14  2  0  0  0  0
 16 17  2  0  0  0  0
 16 15  1  0  0  0  0
 17 18  1  0  0  0  0
 18 19  2  0  0  0  0
 22 18  1  0  0  0  0
M  END
>  <minimizedAffinity>
-4.07029057

$$$$

 OpenBabel03252504543D

 22 23  0  0  0  0  0  0  0  0999 V2000
   37.6610   28.7230   43.4170 C   0  0  0  0  0  0  0  0  0  0  0  0
   37.8670   29.0460   44.4620 H   0  0  0  0  0  0  0  0  0  0  0  0
   36.5750   28.6790   43.2450 H   0  0  0  0  0  0  0  0  0  0  0  0
   38.1840   29.7220   42.4820 N   0  0  0  0  0  0  0  0  0  0  0  0
   39.4470   30.2370   42.5580 C   0  0  0  0  0  3  0  0  0  0  0  0
   39.8000   31.1660   41.6150 C   0  0  0  0  0  0  0  0  0  0  0  0
   40.8100   31.5790   41.6750 H   0  0  0  0  0  0  0  0  0  0  0  0
   38.9340   31.5860   40.6120 C   0  0  0  0  0  0  0  0  0  0  0  0
   39.3050   32.4290   39.7830 O   0  0  0  0  0  0  0  0  0  0  0  0
   37.6950   31.0770   40.5410 N   0  0  0  0  0  0  0  0  0  0  0  0
   37.3780   30.1670   41.4810 C   0  0  0  0  0  0  0  0  0  0  0  0
   36.2030   29.6750   41.4250 O   0  0  0  0  0  0  0  0  0  0  0  0
   36.9900   31.3400   39.8210 H   0  0  0  0  0  0  0  0  0  0  0  0
   38.0140   25.2310   42.1760 C   0  0  0  0  0  0  0  0  0  0  0  0
   37.4750   26.5100   42.4050 C   0  0  0  0  0  0  0  0  0  0  0  0
   38.2350   27.3940   43.1860 C   0  0  0  0  0  0  0  0  0  0  0  0
   39.4460   26.9750   43.6800 N   0  0  0  0  0  0  0  0  0  0  0  0
   39.9160   25.7330   43.4280 C   0  0  0  0  0  0  0  0  0  0  0  0
   39.2020   24.8650   42.6780 N   0  0  0  0  0  0  0  0  0  0  0  0
   37.4080   24.5710   41.5720 H   0  0  0  0  0  0  0  0  0  0  0  0
   36.5090   26.7710   41.9830 H   0  0  0  0  0  0  0  0  0  0  0  0
   40.8630   25.5920   43.8880 H   0  0  0  0  0  0  0  0  0  0  0  0
  1  2  1  0  0  0  0
  3  1  1  0  0  0  0
  4  5  1  0  0  0  0
  4  1  1  0  0  0  0
  6  7  1  0  0  0  0
  6  5  2  0  0  0  0
  8  6  1  0  0  0  0
  9  8  2  0  0  0  0
 10  8  1  0  0  0  0
 10 11  1  0  0  0  0
 11  4  1  0  0  0  0
 12 11  2  0  0  0  0
 13 10  1  0  0  0  0
 14 15  2  0  0  0  0
 14 19  1  0  0  0  0
 15 16  1  0  0  0  0
 16  1  1  0  0  0  0
 16 17  2  0  0  0  0
 18 17  1  0  0  0  0
 18 22  1  0  0  0  0
 19 18  2  0  0  0  0
 20 14  1  0  0  0  0
 21 15  1  0  0  0  0
M  END
>  <minimizedAffinity>
-4.06516218

$$$$

 OpenBabel03252504543D

 22 23  0  0  0  0  0  0  0  0999 V2000
   36.6170   31.1070   41.0310 C   0  0  0  0  0  0  0  0  0  0  0  0
   35.7590   30.9850   40.3310 H   0  0  0  0  0  0  0  0  0  0  0  0
   36.3120   31.7110   41.8980 H   0  0  0  0  0  0  0  0  0  0  0  0
   37.0080   29.7980   41.5600 N   0  0  0  0  0  0  0  0  0  0  0  0
   38.0280   29.6180   42.4490 C   0  0  0  0  0  3  0  0  0  0  0  0
   38.2800   28.3350   42.8580 C   0  0  0  0  0  0  0  0  0  0  0  0
   39.0970   28.1890   43.5700 H   0  0  0  0  0  0  0  0  0  0  0  0
   37.5490   27.2440   42.4050 C   0  0  0  0  0  0  0  0  0  0  0  0
   37.8200   26.1030   42.8080 O   0  0  0  0  0  0  0  0  0  0  0  0
   36.5480   27.4250   41.5310 N   0  0  0  0  0  0  0  0  0  0  0  0
   36.3230   28.6960   41.1490 C   0  0  0  0  0  0  0  0  0  0  0  0
   35.3740   28.8830   40.3180 O   0  0  0  0  0  0  0  0  0  0  0  0
   35.9540   26.6600   41.1460 H   0  0  0  0  0  0  0  0  0  0  0  0
   39.1260   31.9240   38.4050 C   0  0  0  0  0  0  0  0  0  0  0  0
   38.0660   31.2880   39.0750 C   0  0  0  0  0  0  0  0  0  0  0  0
   37.7240   31.7800   40.3450 C   0  0  0  0  0  0  0  0  0  0  0  0
   38.4290   32.8390   40.8600 N   0  0  0  0  0  0  0  0  0  0  0  0
   39.4410   33.4130   40.1720 C   0  0  0  0  0  0  0  0  0  0  0  0
   39.7870   32.9560   38.9480 N   0  0  0  0  0  0  0  0  0  0  0  0
   39.3680   31.5250   37.4300 H   0  0  0  0  0  0  0  0  0  0  0  0
   37.5540   30.4540   38.6050 H   0  0  0  0  0  0  0  0  0  0  0  0
   39.8640   34.2130   40.7270 H   0  0  0  0  0  0  0  0  0  0  0  0
  1  4  1  0  0  0  0
  1  3  1  0  0  0  0
  2  1  1  0  0  0  0
  4  5  1  0  0  0  0
  5  6  2  0  0  0  0
  6  7  1  0  0  0  0
  8  9  2  0  0  0  0
  8  6  1  0  0  0  0
 10  8  1  0  0  0  0
 11 10  1  0  0  0  0
 11  4  1  0  0  0  0
 12 11  2  0  0  0  0
 13 10  1  0  0  0  0
 14 19  2  0  0  0  0
 14 15  1  0  0  0  0
 15 16  2  0  0  0  0
 16 17  1  0  0  0  0
 16  1  1  0  0  0  0
 18 22  1  0  0  0  0
 18 17  2  0  0  0  0
 19 18  1  0  0  0  0
 20 14  1  0  0  0  0
 21 15  1  0  0  0  0
M  END
>  <minimizedAffinity>
-4.06266546

$$$$
