
 OpenBabel03252505533D

 34 36  0  0  0  0  0  0  0  0999 V2000
   47.2300   30.2230   47.8240 C   0  0  0  0  0  0  0  0  0  0  0  0
   47.6610   28.9600   47.4780 C   0  0  0  0  0  0  0  0  0  0  0  0
   48.8550   28.4980   47.9680 C   0  0  0  0  0  0  0  0  0  0  0  0
   49.6260   29.2400   48.7800 N   0  0  0  0  0  0  0  0  0  0  0  0
   49.1940   30.4710   49.1100 C   0  0  0  0  0  0  0  0  0  0  0  0
   48.0160   30.9750   48.6500 N   0  0  0  0  0  0  0  0  0  0  0  0
   46.9740   28.4490   46.8270 H   0  0  0  0  0  0  0  0  0  0  0  0
   49.0970   27.4980   47.6350 H   0  0  0  0  0  0  0  0  0  0  0  0
   50.0450   31.2420   49.9830 N   0  0  0  0  0  0  0  0  0  0  0  0
   50.4870   32.4830   49.8600 C   0  0  0  0  0  3  0  0  0  0  0  0
   51.3000   33.0040   50.8400 C   0  0  0  0  0  0  0  0  0  0  0  0
   51.6390   34.0200   50.7010 H   0  0  0  0  0  0  0  0  0  0  0  0
   51.6440   32.2400   51.9290 C   0  0  0  0  0  0  0  0  0  0  0  0
   52.3900   32.7320   52.8190 O   0  0  0  0  0  0  0  0  0  0  0  0
   51.1820   30.9780   52.0330 N   0  0  0  0  0  0  0  0  0  0  0  0
   50.3870   30.4820   51.0650 C   0  0  0  0  0  0  0  0  0  0  0  0
   50.0360   29.2900   51.3050 O   0  0  0  0  0  0  0  0  0  0  0  0
   51.4850   30.4580   52.8880 H   0  0  0  0  0  0  0  0  0  0  0  0
   46.0200   30.9410   47.4460 C   0  0  0  0  0  0  0  0  0  0  0  0
   45.1410   30.7150   48.1010 H   0  0  0  0  0  0  0  0  0  0  0  0
   45.7010   30.6380   46.4200 H   0  0  0  0  0  0  0  0  0  0  0  0
   46.3280   32.3140   47.3960 O   0  0  0  0  0  0  0  0  0  0  0  0
   45.1630   34.7100   45.0390 C   0  0  0  0  0  0  0  0  0  0  0  0
   45.9930   34.5270   43.9370 C   0  0  0  0  0  0  0  0  0  0  0  0
   46.9910   33.5340   44.0260 C   0  0  0  0  0  0  0  0  0  0  0  0
   47.0760   32.8240   45.1740 N   0  0  0  0  0  0  0  0  0  0  0  0
   46.2460   33.0400   46.2130 C   0  0  0  0  0  0  0  0  0  0  0  0
   45.3010   33.9690   46.1510 N   0  0  0  0  0  0  0  0  0  0  0  0
   44.3770   35.4630   45.0230 H   0  0  0  0  0  0  0  0  0  0  0  0
   47.6220   33.4040   43.1720 H   0  0  0  0  0  0  0  0  0  0  0  0
   45.7800   35.3900   42.7320 C   0  0  0  0  0  0  0  0  0  0  0  0
   45.3240   36.5860   43.2250 F   0  0  0  0  0  0  0  0  0  0  0  0
   44.7870   34.7670   41.9850 F   0  0  0  0  0  0  0  0  0  0  0  0
   46.9640   35.5010   42.0500 F   0  0  0  0  0  0  0  0  0  0  0  0
  1  6  1  0  0  0  0
  2  1  2  0  0  0  0
  2  3  1  0  0  0  0
  3  4  2  0  0  0  0
  4  5  1  0  0  0  0
  5  9  1  0  0  0  0
  6  5  2  0  0  0  0
  7  2  1  0  0  0  0
  8  3  1  0  0  0  0
  9 16  1  0  0  0  0
 10  9  1  0  0  0  0
 10 11  2  0  0  0  0
 11 13  1  0  0  0  0
 12 11  1  0  0  0  0
 13 15  1  0  0  0  0
 13 14  2  0  0  0  0
 15 18  1  0  0  0  0
 16 17  2  0  0  0  0
 16 15  1  0  0  0  0
 19  1  1  0  0  0  0
 19 20  1  0  0  0  0
 21 19  1  0  0  0  0
 22 19  1  0  0  0  0
 23 28  1  0  0  0  0
 24 25  1  0  0  0  0
 24 23  2  0  0  0  0
 25 26  2  0  0  0  0
 26 27  1  0  0  0  0
 27 22  1  0  0  0  0
 28 27  2  0  0  0  0
 29 23  1  0  0  0  0
 30 25  1  0  0  0  0
 31 32  1  0  0  0  0
 31 24  1  0  0  0  0
 33 31  1  0  0  0  0
 34 31  1  0  0  0  0
M  END
>  <minimizedAffinity>
-6.45212412

>  <minimizedRMSD>
0.820263803

$$$$
