
 OpenBabel03242511593D

 42 45  0  0  1  0  0  0  0  0999 V2000
   39.4960   26.5070   41.1780 C   0  0  2  0  0  0  0  0  0  0  0  0
   40.0980   25.1490   41.1670 C   0  0  0  0  0  0  0  0  0  0  0  0
   39.7170   24.3300   42.3450 C   0  0  0  0  0  0  0  0  0  0  0  0
   39.9720   24.9930   43.6660 C   0  0  0  0  0  0  0  0  0  0  0  0
   39.7010   26.4780   43.6610 C   0  0  0  0  0  0  0  0  0  0  0  0
   38.8690   26.9040   42.4810 C   0  0  1  0  0  0  0  0  0  0  0  0
   40.3430   27.2210   40.9560 H   0  0  0  0  0  0  0  0  0  0  0  0
   41.2040   25.1540   41.0880 H   0  0  0  0  0  0  0  0  0  0  0  0
   39.7210   24.6220   40.2660 H   0  0  0  0  0  0  0  0  0  0  0  0
   38.6700   23.9350   42.2510 H   0  0  0  0  0  0  0  0  0  0  0  0
   40.3580   23.4080   42.3230 H   0  0  0  0  0  0  0  0  0  0  0  0
   40.9630   24.7500   44.0900 H   0  0  0  0  0  0  0  0  0  0  0  0
   39.2370   24.5340   44.3760 H   0  0  0  0  0  0  0  0  0  0  0  0
   39.1210   26.7850   44.5710 H   0  0  0  0  0  0  0  0  0  0  0  0
   40.6570   27.0110   43.7290 H   0  0  0  0  0  0  0  0  0  0  0  0
   37.8400   26.5580   42.6400 H   0  0  0  0  0  0  0  0  0  0  0  0
   38.5150   26.7030   40.0900 C   0  0  0  0  0  0  0  0  0  0  0  0
   37.3520   25.9420   40.2210 C   0  0  0  0  0  0  0  0  0  0  0  0
   36.3370   26.0420   39.2580 C   0  0  0  0  0  0  0  0  0  0  0  0
   36.5840   26.9240   38.2130 N   0  0  0  0  0  0  0  0  0  0  0  0
   37.7220   27.6410   38.1210 C   0  0  0  0  0  0  0  0  0  0  0  0
   38.6790   27.5220   39.0650 N   0  0  0  0  0  0  0  0  0  0  0  0
   37.0100   25.2190   40.9420 H   0  0  0  0  0  0  0  0  0  0  0  0
   35.3990   25.5370   39.2120 H   0  0  0  0  0  0  0  0  0  0  0  0
   37.8700   28.3100   37.2940 H   0  0  0  0  0  0  0  0  0  0  0  0
   38.8010   28.4140   42.4990 C   0  0  2  0  0  0  0  0  0  0  0  0
   37.8400   29.0610   43.4750 C   0  0  0  0  0  0  0  0  0  0  0  0
   37.6040   29.1280   42.0140 C   0  0  1  0  0  0  0  0  0  0  0  0
   39.7860   28.8940   42.3080 H   0  0  0  0  0  0  0  0  0  0  0  0
   38.3090   29.9060   44.0390 H   0  0  0  0  0  0  0  0  0  0  0  0
   37.3080   28.3590   44.1200 H   0  0  0  0  0  0  0  0  0  0  0  0
   36.7130   28.5330   41.6800 H   0  0  0  0  0  0  0  0  0  0  0  0
   37.6480   30.4340   41.4460 N   0  0  0  0  0  0  0  0  0  0  0  0
   38.8710   31.0360   41.5290 C   0  0  0  0  0  3  0  0  0  0  0  0
   39.0330   32.3120   41.0090 C   0  0  0  0  0  0  0  0  0  0  0  0
   39.9880   32.8330   41.0510 H   0  0  0  0  0  0  0  0  0  0  0  0
   37.9840   33.0060   40.3990 C   0  0  0  0  0  0  0  0  0  0  0  0
   38.1740   34.1610   39.9400 O   0  0  0  0  0  0  0  0  0  0  0  0
   36.8150   32.3580   40.3520 N   0  0  0  0  0  0  0  0  0  0  0  0
   36.6790   31.1220   40.8620 C   0  0  0  0  0  0  0  0  0  0  0  0
   35.5690   30.5480   40.7990 O   0  0  0  0  0  0  0  0  0  0  0  0
   36.0020   32.8360   39.9060 H   0  0  0  0  0  0  0  0  0  0  0  0
  1  7  1  6  0  0  0
  1  6  1  0  0  0  0
  2  1  1  0  0  0  0
  2  3  1  0  0  0  0
  3  4  1  0  0  0  0
  4 12  1  0  0  0  0
  4 13  1  0  0  0  0
  5  4  1  0  0  0  0
  5 15  1  0  0  0  0
  5 14  1  0  0  0  0
  6 26  1  0  0  0  0
  6 16  1  1  0  0  0
  6  5  1  0  0  0  0
  8  2  1  0  0  0  0
  9  2  1  0  0  0  0
 10  3  1  0  0  0  0
 11  3  1  0  0  0  0
 17 18  1  0  0  0  0
 17  1  1  0  0  0  0
 18 23  1  0  0  0  0
 19 18  2  0  0  0  0
 20 19  1  0  0  0  0
 21 20  2  0  0  0  0
 21 22  1  0  0  0  0
 22 17  2  0  0  0  0
 24 19  1  0  0  0  0
 25 21  1  0  0  0  0
 26 29  1  6  0  0  0
 26 27  1  0  0  0  0
 27 30  1  0  0  0  0
 27 31  1  0  0  0  0
 28 32  1  6  0  0  0
 28 26  1  0  0  0  0
 28 27  1  0  0  0  0
 33 34  1  0  0  0  0
 33 28  1  0  0  0  0
 35 36  1  0  0  0  0
 35 34  2  0  0  0  0
 37 35  1  0  0  0  0
 38 37  2  0  0  0  0
 39 37  1  0  0  0  0
 39 40  1  0  0  0  0
 40 33  1  0  0  0  0
 41 40  2  0  0  0  0
 42 39  1  0  0  0  0
M  END
>  <minimizedAffinity>
-5.93411779

$$$$

 OpenBabel03242511593D

 42 45  0  0  1  0  0  0  0  0999 V2000
   37.0710   26.1310   41.4620 C   0  0  2  0  0  0  0  0  0  0  0  0
   36.9840   24.7760   42.0660 C   0  0  0  0  0  0  0  0  0  0  0  0
   37.2080   23.6830   41.0860 C   0  0  0  0  0  0  0  0  0  0  0  0
   36.3360   23.7580   39.8680 C   0  0  0  0  0  0  0  0  0  0  0  0
   36.0930   25.1670   39.3830 C   0  0  0  0  0  0  0  0  0  0  0  0
   37.0750   26.1500   39.9620 C   0  0  1  0  0  0  0  0  0  0  0  0
   36.1580   26.6880   41.8240 H   0  0  0  0  0  0  0  0  0  0  0  0
   36.0260   24.5840   42.5900 H   0  0  0  0  0  0  0  0  0  0  0  0
   37.7830   24.6980   42.8320 H   0  0  0  0  0  0  0  0  0  0  0  0
   38.2970   23.5710   40.8360 H   0  0  0  0  0  0  0  0  0  0  0  0
   36.9480   22.7210   41.6050 H   0  0  0  0  0  0  0  0  0  0  0  0
   35.3990   23.1830   39.9680 H   0  0  0  0  0  0  0  0  0  0  0  0
   36.9090   23.2340   39.0590 H   0  0  0  0  0  0  0  0  0  0  0  0
   36.2130   25.2350   38.2690 H   0  0  0  0  0  0  0  0  0  0  0  0
   35.0490   25.4330   39.5820 H   0  0  0  0  0  0  0  0  0  0  0  0
   38.0510   25.9860   39.4860 H   0  0  0  0  0  0  0  0  0  0  0  0
   38.2300   26.9010   41.9580 C   0  0  0  0  0  0  0  0  0  0  0  0
   39.4690   26.3860   41.5740 C   0  0  0  0  0  0  0  0  0  0  0  0
   40.6500   27.0290   41.9720 C   0  0  0  0  0  0  0  0  0  0  0  0
   40.4810   28.1700   42.7480 N   0  0  0  0  0  0  0  0  0  0  0  0
   39.2660   28.6350   43.1010 C   0  0  0  0  0  0  0  0  0  0  0  0
   38.1490   27.9930   42.7000 N   0  0  0  0  0  0  0  0  0  0  0  0
   39.7760   25.5280   40.9990 H   0  0  0  0  0  0  0  0  0  0  0  0
   41.6630   26.7700   41.7650 H   0  0  0  0  0  0  0  0  0  0  0  0
   39.1830   29.5210   43.7040 H   0  0  0  0  0  0  0  0  0  0  0  0
   36.6360   27.5310   39.5340 C   0  0  2  0  0  0  0  0  0  0  0  0
   36.8220   27.9060   38.0780 C   0  0  0  0  0  0  0  0  0  0  0  0
   37.6230   28.5560   39.1420 C   0  0  1  0  0  0  0  0  0  0  0  0
   35.7300   27.8840   40.0750 H   0  0  0  0  0  0  0  0  0  0  0  0
   35.9110   28.3890   37.6430 H   0  0  0  0  0  0  0  0  0  0  0  0
   37.2220   27.1070   37.4520 H   0  0  0  0  0  0  0  0  0  0  0  0
   38.7100   28.2810   39.1090 H   0  0  0  0  0  0  0  0  0  0  0  0
   37.4050   29.9540   39.3030 N   0  0  0  0  0  0  0  0  0  0  0  0
   38.0430   30.7280   38.3760 C   0  0  0  0  0  3  0  0  0  0  0  0
   37.9030   32.1070   38.4350 C   0  0  0  0  0  0  0  0  0  0  0  0
   38.3920   32.7660   37.7190 H   0  0  0  0  0  0  0  0  0  0  0  0
   37.1280   32.7360   39.4140 C   0  0  0  0  0  0  0  0  0  0  0  0
   37.0280   33.9890   39.4310 O   0  0  0  0  0  0  0  0  0  0  0  0
   36.5330   31.9180   40.2890 N   0  0  0  0  0  0  0  0  0  0  0  0
   36.6810   30.5850   40.2150 C   0  0  0  0  0  0  0  0  0  0  0  0
   36.1070   29.8540   41.0520 O   0  0  0  0  0  0  0  0  0  0  0  0
   35.9430   32.3430   41.0390 H   0  0  0  0  0  0  0  0  0  0  0  0
  1  7  1  1  0  0  0
  1 17  1  0  0  0  0
  1  2  1  0  0  0  0
  2  8  1  0  0  0  0
  2  9  1  0  0  0  0
  3 11  1  0  0  0  0
  3  2  1  0  0  0  0
  4 12  1  0  0  0  0
  4  3  1  0  0  0  0
  5 15  1  0  0  0  0
  5  4  1  0  0  0  0
  5  6  1  0  0  0  0
  6 16  1  6  0  0  0
  6  1  1  0  0  0  0
 10  3  1  0  0  0  0
 13  4  1  0  0  0  0
 14  5  1  0  0  0  0
 17 22  1  0  0  0  0
 18 17  2  0  0  0  0
 18 19  1  0  0  0  0
 19 20  2  0  0  0  0
 20 21  1  0  0  0  0
 21 25  1  0  0  0  0
 22 21  2  0  0  0  0
 23 18  1  0  0  0  0
 24 19  1  0  0  0  0
 26  6  1  0  0  0  0
 26 29  1  1  0  0  0
 27 28  1  0  0  0  0
 27 26  1  0  0  0  0
 28 32  1  1  0  0  0
 28 33  1  0  0  0  0
 28 26  1  0  0  0  0
 30 27  1  0  0  0  0
 31 27  1  0  0  0  0
 33 40  1  0  0  0  0
 34 35  2  0  0  0  0
 34 33  1  0  0  0  0
 35 37  1  0  0  0  0
 36 35  1  0  0  0  0
 37 38  2  0  0  0  0
 37 39  1  0  0  0  0
 39 42  1  0  0  0  0
 40 39  1  0  0  0  0
 40 41  2  0  0  0  0
M  END
>  <minimizedAffinity>
-5.75340605

$$$$

 OpenBabel03242511593D

 42 45  0  0  1  0  0  0  0  0999 V2000
   37.9850   28.0130   40.7970 C   0  0  2  0  0  0  0  0  0  0  0  0
   37.3380   26.8250   41.4110 C   0  0  0  0  0  0  0  0  0  0  0  0
   36.5740   27.1440   42.6440 C   0  0  0  0  0  0  0  0  0  0  0  0
   37.3610   27.8920   43.6800 C   0  0  0  0  0  0  0  0  0  0  0  0
   38.3160   28.9070   43.0990 C   0  0  0  0  0  0  0  0  0  0  0  0
   38.0010   29.2360   41.6650 C   0  0  1  0  0  0  0  0  0  0  0  0
   39.0520   27.7080   40.5890 H   0  0  0  0  0  0  0  0  0  0  0  0
   38.0450   26.0030   41.6420 H   0  0  0  0  0  0  0  0  0  0  0  0
   36.6130   26.4190   40.6740 H   0  0  0  0  0  0  0  0  0  0  0  0
   35.5920   27.6350   42.4050 H   0  0  0  0  0  0  0  0  0  0  0  0
   36.2830   26.1650   43.1100 H   0  0  0  0  0  0  0  0  0  0  0  0
   37.8500   27.2290   44.4150 H   0  0  0  0  0  0  0  0  0  0  0  0
   36.6020   28.4660   44.2720 H   0  0  0  0  0  0  0  0  0  0  0  0
   38.2580   29.8790   43.6570 H   0  0  0  0  0  0  0  0  0  0  0  0
   39.3420   28.5480   43.2430 H   0  0  0  0  0  0  0  0  0  0  0  0
   37.0890   29.8480   41.6430 H   0  0  0  0  0  0  0  0  0  0  0  0
   37.4060   28.3600   39.4830 C   0  0  0  0  0  0  0  0  0  0  0  0
   36.1260   28.9130   39.5460 C   0  0  0  0  0  0  0  0  0  0  0  0
   35.4680   29.2950   38.3680 C   0  0  0  0  0  0  0  0  0  0  0  0
   36.1730   29.0810   37.1890 N   0  0  0  0  0  0  0  0  0  0  0  0
   37.4080   28.5410   37.1690 C   0  0  0  0  0  0  0  0  0  0  0  0
   38.0140   28.1860   38.3210 N   0  0  0  0  0  0  0  0  0  0  0  0
   35.4460   29.1340   40.3520 H   0  0  0  0  0  0  0  0  0  0  0  0
   34.5020   29.7280   38.2440 H   0  0  0  0  0  0  0  0  0  0  0  0
   37.9150   28.3930   36.2330 H   0  0  0  0  0  0  0  0  0  0  0  0
   39.1070   30.1290   41.1540 C   0  0  2  0  0  0  0  0  0  0  0  0
   39.2830   31.4790   41.8190 C   0  0  0  0  0  0  0  0  0  0  0  0
   38.8030   31.3750   40.4210 C   0  0  1  0  0  0  0  0  0  0  0  0
   40.0080   29.5620   40.8310 H   0  0  0  0  0  0  0  0  0  0  0  0
   40.3530   31.6980   42.0640 H   0  0  0  0  0  0  0  0  0  0  0  0
   38.6070   31.6640   42.6550 H   0  0  0  0  0  0  0  0  0  0  0  0
   37.7320   31.6850   40.2940 H   0  0  0  0  0  0  0  0  0  0  0  0
   39.6660   31.9320   39.4350 N   0  0  0  0  0  0  0  0  0  0  0  0
   40.8870   32.3140   39.9140 C   0  0  0  0  0  3  0  0  0  0  0  0
   41.8110   32.8710   39.0430 C   0  0  0  0  0  0  0  0  0  0  0  0
   42.7970   33.1910   39.3780 H   0  0  0  0  0  0  0  0  0  0  0  0
   41.5370   33.0570   37.6850 C   0  0  0  0  0  0  0  0  0  0  0  0
   42.4040   33.5660   36.9300 O   0  0  0  0  0  0  0  0  0  0  0  0
   40.3240   32.6610   37.2840 N   0  0  0  0  0  0  0  0  0  0  0  0
   39.4430   32.1240   38.1430 C   0  0  0  0  0  0  0  0  0  0  0  0
   38.3180   31.7650   37.7290 O   0  0  0  0  0  0  0  0  0  0  0  0
   40.0740   32.7790   36.2770 H   0  0  0  0  0  0  0  0  0  0  0  0
  1  7  1  6  0  0  0
  1  2  1  0  0  0  0
  1  6  1  0  0  0  0
  2  8  1  0  0  0  0
  2  3  1  0  0  0  0
  3 11  1  0  0  0  0
  3  4  1  0  0  0  0
  4 13  1  0  0  0  0
  4 12  1  0  0  0  0
  5 15  1  0  0  0  0
  5 14  1  0  0  0  0
  5  4  1  0  0  0  0
  6 16  1  6  0  0  0
  6  5  1  0  0  0  0
  9  2  1  0  0  0  0
 10  3  1  0  0  0  0
 17 18  1  0  0  0  0
 17  1  1  0  0  0  0
 18 23  1  0  0  0  0
 19 18  2  0  0  0  0
 20 19  1  0  0  0  0
 21 20  2  0  0  0  0
 21 22  1  0  0  0  0
 22 17  2  0  0  0  0
 24 19  1  0  0  0  0
 25 21  1  0  0  0  0
 26 29  1  6  0  0  0
 26  6  1  0  0  0  0
 26 27  1  0  0  0  0
 27 30  1  0  0  0  0
 27 31  1  0  0  0  0
 28 32  1  6  0  0  0
 28 26  1  0  0  0  0
 28 27  1  0  0  0  0
 33 34  1  0  0  0  0
 33 28  1  0  0  0  0
 35 36  1  0  0  0  0
 35 34  2  0  0  0  0
 37 35  1  0  0  0  0
 38 37  2  0  0  0  0
 39 37  1  0  0  0  0
 39 40  1  0  0  0  0
 40 33  1  0  0  0  0
 41 40  2  0  0  0  0
 42 39  1  0  0  0  0
M  END
>  <minimizedAffinity>
-5.580688

$$$$

 OpenBabel03242511593D

 42 45  0  0  1  0  0  0  0  0999 V2000
   37.3840   26.5820   39.9010 C   0  0  2  0  0  0  0  0  0  0  0  0
   37.1080   25.1690   39.5370 C   0  0  0  0  0  0  0  0  0  0  0  0
   36.3460   24.4330   40.5770 C   0  0  0  0  0  0  0  0  0  0  0  0
   36.9520   24.5000   41.9480 C   0  0  0  0  0  0  0  0  0  0  0  0
   37.5720   25.8380   42.2720 C   0  0  0  0  0  0  0  0  0  0  0  0
   37.1120   26.9240   41.3360 C   0  0  1  0  0  0  0  0  0  0  0  0
   38.4830   26.7440   39.6970 H   0  0  0  0  0  0  0  0  0  0  0  0
   38.0200   24.5860   39.2950 H   0  0  0  0  0  0  0  0  0  0  0  0
   36.4850   25.1740   38.6180 H   0  0  0  0  0  0  0  0  0  0  0  0
   35.2590   24.7140   40.5670 H   0  0  0  0  0  0  0  0  0  0  0  0
   36.3500   23.3500   40.2800 H   0  0  0  0  0  0  0  0  0  0  0  0
   37.6350   23.6600   42.1620 H   0  0  0  0  0  0  0  0  0  0  0  0
   36.0960   24.3610   42.6580 H   0  0  0  0  0  0  0  0  0  0  0  0
   37.2820   26.1770   43.3010 H   0  0  0  0  0  0  0  0  0  0  0  0
   38.6620   25.7250   42.2970 H   0  0  0  0  0  0  0  0  0  0  0  0
   36.0700   27.1710   41.5790 H   0  0  0  0  0  0  0  0  0  0  0  0
   36.6720   27.5430   39.0330 C   0  0  0  0  0  0  0  0  0  0  0  0
   37.4840   28.1790   38.0920 C   0  0  0  0  0  0  0  0  0  0  0  0
   36.9280   29.1080   37.2010 C   0  0  0  0  0  0  0  0  0  0  0  0
   35.5630   29.3290   37.3350 N   0  0  0  0  0  0  0  0  0  0  0  0
   34.8120   28.6950   38.2580 C   0  0  0  0  0  0  0  0  0  0  0  0
   35.3770   27.8050   39.1010 N   0  0  0  0  0  0  0  0  0  0  0  0
   38.5360   28.1380   37.8630 H   0  0  0  0  0  0  0  0  0  0  0  0
   37.4040   29.6730   36.4320 H   0  0  0  0  0  0  0  0  0  0  0  0
   33.7590   28.8970   38.3260 H   0  0  0  0  0  0  0  0  0  0  0  0
   37.9130   28.1640   41.6570 C   0  0  2  0  0  0  0  0  0  0  0  0
   37.5350   28.9410   42.9020 C   0  0  0  0  0  0  0  0  0  0  0  0
   37.3110   29.5080   41.5510 C   0  0  1  0  0  0  0  0  0  0  0  0
   38.9870   28.0700   41.3810 H   0  0  0  0  0  0  0  0  0  0  0  0
   38.4260   29.2160   43.5200 H   0  0  0  0  0  0  0  0  0  0  0  0
   36.7300   28.4950   43.4870 H   0  0  0  0  0  0  0  0  0  0  0  0
   36.2260   29.5990   41.2820 H   0  0  0  0  0  0  0  0  0  0  0  0
   38.0620   30.6800   41.2470 N   0  0  0  0  0  0  0  0  0  0  0  0
   39.2860   30.7290   41.8510 C   0  0  0  0  0  3  0  0  0  0  0  0
   40.1060   31.8250   41.6280 C   0  0  0  0  0  0  0  0  0  0  0  0
   41.0900   31.9100   42.0870 H   0  0  0  0  0  0  0  0  0  0  0  0
   39.7230   32.8870   40.8030 C   0  0  0  0  0  0  0  0  0  0  0  0
   40.4970   33.8610   40.6270 O   0  0  0  0  0  0  0  0  0  0  0  0
   38.5140   32.7730   40.2440 N   0  0  0  0  0  0  0  0  0  0  0  0
   37.7340   31.7030   40.4730 C   0  0  0  0  0  0  0  0  0  0  0  0
   36.6080   31.6330   39.9320 O   0  0  0  0  0  0  0  0  0  0  0  0
   38.1830   33.5420   39.6190 H   0  0  0  0  0  0  0  0  0  0  0  0
  1  7  1  6  0  0  0
  1  6  1  0  0  0  0
  2  1  1  0  0  0  0
  2  3  1  0  0  0  0
  3  4  1  0  0  0  0
  4 12  1  0  0  0  0
  4  5  1  0  0  0  0
  4 13  1  0  0  0  0
  5 15  1  0  0  0  0
  5 14  1  0  0  0  0
  6 16  1  1  0  0  0
  6 26  1  0  0  0  0
  6  5  1  0  0  0  0
  8  2  1  0  0  0  0
  9  2  1  0  0  0  0
 10  3  1  0  0  0  0
 11  3  1  0  0  0  0
 17 22  1  0  0  0  0
 17  1  1  0  0  0  0
 18 17  2  0  0  0  0
 19 20  2  0  0  0  0
 19 18  1  0  0  0  0
 20 21  1  0  0  0  0
 21 25  1  0  0  0  0
 21 22  2  0  0  0  0
 23 18  1  0  0  0  0
 24 19  1  0  0  0  0
 26 29  1  6  0  0  0
 26 27  1  0  0  0  0
 27 31  1  0  0  0  0
 27 30  1  0  0  0  0
 28 32  1  6  0  0  0
 28 26  1  0  0  0  0
 28 27  1  0  0  0  0
 33 28  1  0  0  0  0
 33 34  1  0  0  0  0
 35 34  2  0  0  0  0
 35 36  1  0  0  0  0
 37 35  1  0  0  0  0
 38 37  2  0  0  0  0
 39 40  1  0  0  0  0
 39 37  1  0  0  0  0
 40 33  1  0  0  0  0
 41 40  2  0  0  0  0
 42 39  1  0  0  0  0
M  END
>  <minimizedAffinity>
-5.38992834

$$$$

 OpenBabel03242511593D

 42 45  0  0  1  0  0  0  0  0999 V2000
   37.0610   28.8600   41.7520 C   0  0  2  0  0  0  0  0  0  0  0  0
   37.1750   28.6190   43.2130 C   0  0  0  0  0  0  0  0  0  0  0  0
   38.0280   27.4510   43.5500 C   0  0  0  0  0  0  0  0  0  0  0  0
   37.6400   26.1820   42.8490 C   0  0  0  0  0  0  0  0  0  0  0  0
   37.1740   26.3920   41.4290 C   0  0  0  0  0  0  0  0  0  0  0  0
   37.5670   27.7410   40.8910 C   0  0  1  0  0  0  0  0  0  0  0  0
   35.9580   28.9970   41.5480 H   0  0  0  0  0  0  0  0  0  0  0  0
   36.1980   28.4950   43.7210 H   0  0  0  0  0  0  0  0  0  0  0  0
   37.6530   29.5130   43.6650 H   0  0  0  0  0  0  0  0  0  0  0  0
   39.1200   27.6920   43.4400 H   0  0  0  0  0  0  0  0  0  0  0  0
   37.9010   27.2600   44.6490 H   0  0  0  0  0  0  0  0  0  0  0  0
   36.9370   25.5620   43.4330 H   0  0  0  0  0  0  0  0  0  0  0  0
   38.5790   25.5730   42.7940 H   0  0  0  0  0  0  0  0  0  0  0  0
   37.6380   25.6390   40.7380 H   0  0  0  0  0  0  0  0  0  0  0  0
   36.0950   26.2070   41.3810 H   0  0  0  0  0  0  0  0  0  0  0  0
   38.6490   27.7370   40.7020 H   0  0  0  0  0  0  0  0  0  0  0  0
   37.7030   30.1220   41.3310 C   0  0  0  0  0  0  0  0  0  0  0  0
   36.8200   31.0740   40.8200 C   0  0  0  0  0  0  0  0  0  0  0  0
   37.3030   32.3200   40.3930 C   0  0  0  0  0  0  0  0  0  0  0  0
   38.6740   32.5100   40.5180 N   0  0  0  0  0  0  0  0  0  0  0  0
   39.4950   31.5640   41.0160 C   0  0  0  0  0  0  0  0  0  0  0  0
   38.9990   30.3750   41.4190 N   0  0  0  0  0  0  0  0  0  0  0  0
   35.7570   31.0900   40.6450 H   0  0  0  0  0  0  0  0  0  0  0  0
   36.7680   33.1470   39.9840 H   0  0  0  0  0  0  0  0  0  0  0  0
   40.5500   31.7540   41.0940 H   0  0  0  0  0  0  0  0  0  0  0  0
   36.9150   27.8930   39.5360 C   0  0  2  0  0  0  0  0  0  0  0  0
   37.0700   26.7520   38.5510 C   0  0  0  0  0  0  0  0  0  0  0  0
   37.7280   28.0590   38.3140 C   0  0  1  0  0  0  0  0  0  0  0  0
   35.9520   28.4470   39.5780 H   0  0  0  0  0  0  0  0  0  0  0  0
   36.1020   26.4780   38.0600 H   0  0  0  0  0  0  0  0  0  0  0  0
   37.6120   25.8890   38.9390 H   0  0  0  0  0  0  0  0  0  0  0  0
   38.8460   28.0140   38.3930 H   0  0  0  0  0  0  0  0  0  0  0  0
   37.2780   28.7710   37.1660 N   0  0  0  0  0  0  0  0  0  0  0  0
   36.4630   28.0460   36.3440 C   0  0  0  0  0  3  0  0  0  0  0  0
   35.9630   28.6380   35.1940 C   0  0  0  0  0  0  0  0  0  0  0  0
   35.3100   28.1010   34.5080 H   0  0  0  0  0  0  0  0  0  0  0  0
   36.2650   29.9570   34.8430 C   0  0  0  0  0  0  0  0  0  0  0  0
   35.7900   30.4550   33.7910 O   0  0  0  0  0  0  0  0  0  0  0  0
   37.0670   30.6080   35.6920 N   0  0  0  0  0  0  0  0  0  0  0  0
   37.5410   30.0170   36.8010 C   0  0  0  0  0  0  0  0  0  0  0  0
   38.2900   30.6600   37.5700 O   0  0  0  0  0  0  0  0  0  0  0  0
   37.3210   31.5970   35.4720 H   0  0  0  0  0  0  0  0  0  0  0  0
  1  7  1  6  0  0  0
  1  2  1  0  0  0  0
  2  3  1  0  0  0  0
  2  9  1  0  0  0  0
  2  8  1  0  0  0  0
  3 11  1  0  0  0  0
  4 12  1  0  0  0  0
  4  3  1  0  0  0  0
  5  4  1  0  0  0  0
  6 16  1  6  0  0  0
  6  5  1  0  0  0  0
  6  1  1  0  0  0  0
 10  3  1  0  0  0  0
 13  4  1  0  0  0  0
 14  5  1  0  0  0  0
 15  5  1  0  0  0  0
 17 22  1  0  0  0  0
 17  1  1  0  0  0  0
 18 17  2  0  0  0  0
 19 20  2  0  0  0  0
 19 18  1  0  0  0  0
 20 21  1  0  0  0  0
 21 25  1  0  0  0  0
 21 22  2  0  0  0  0
 23 18  1  0  0  0  0
 24 19  1  0  0  0  0
 26 29  1  6  0  0  0
 26  6  1  0  0  0  0
 27 31  1  0  0  0  0
 27 26  1  0  0  0  0
 28 32  1  1  0  0  0
 28 27  1  0  0  0  0
 28 26  1  0  0  0  0
 30 27  1  0  0  0  0
 33 28  1  0  0  0  0
 34 33  1  0  0  0  0
 35 34  2  0  0  0  0
 36 35  1  0  0  0  0
 37 35  1  0  0  0  0
 37 39  1  0  0  0  0
 38 37  2  0  0  0  0
 39 40  1  0  0  0  0
 40 33  1  0  0  0  0
 40 41  2  0  0  0  0
 42 39  1  0  0  0  0
M  END
>  <minimizedAffinity>
-5.33050156

$$$$

 OpenBabel03242511593D

 42 45  0  0  1  0  0  0  0  0999 V2000
   37.0880   28.1810   42.1450 C   0  0  2  0  0  0  0  0  0  0  0  0
   37.6500   28.0560   43.5150 C   0  0  0  0  0  0  0  0  0  0  0  0
   38.8410   27.1720   43.5810 C   0  0  0  0  0  0  0  0  0  0  0  0
   38.6330   25.8110   42.9860 C   0  0  0  0  0  0  0  0  0  0  0  0
   37.7650   25.8150   41.7510 C   0  0  0  0  0  0  0  0  0  0  0  0
   37.6250   27.1910   41.1550 C   0  0  1  0  0  0  0  0  0  0  0  0
   35.9770   28.0130   42.2520 H   0  0  0  0  0  0  0  0  0  0  0  0
   36.9150   27.7070   44.2670 H   0  0  0  0  0  0  0  0  0  0  0  0
   37.9750   29.0670   43.8380 H   0  0  0  0  0  0  0  0  0  0  0  0
   39.7580   27.6850   43.1830 H   0  0  0  0  0  0  0  0  0  0  0  0
   39.0690   27.0130   44.6690 H   0  0  0  0  0  0  0  0  0  0  0  0
   38.3040   25.0600   43.7260 H   0  0  0  0  0  0  0  0  0  0  0  0
   39.6500   25.4680   42.6640 H   0  0  0  0  0  0  0  0  0  0  0  0
   38.2100   25.1750   40.9440 H   0  0  0  0  0  0  0  0  0  0  0  0
   36.8020   25.3520   41.9950 H   0  0  0  0  0  0  0  0  0  0  0  0
   38.5770   27.4600   40.6790 H   0  0  0  0  0  0  0  0  0  0  0  0
   37.2340   29.5440   41.5920 C   0  0  0  0  0  0  0  0  0  0  0  0
   38.5510   30.0030   41.5360 C   0  0  0  0  0  0  0  0  0  0  0  0
   38.8270   31.2790   41.0230 C   0  0  0  0  0  0  0  0  0  0  0  0
   37.7230   32.0090   40.5990 N   0  0  0  0  0  0  0  0  0  0  0  0
   36.4640   31.5310   40.6730 C   0  0  0  0  0  0  0  0  0  0  0  0
   36.2330   30.2980   41.1700 N   0  0  0  0  0  0  0  0  0  0  0  0
   39.5010   29.5860   41.8240 H   0  0  0  0  0  0  0  0  0  0  0  0
   39.7650   31.7730   40.9100 H   0  0  0  0  0  0  0  0  0  0  0  0
   35.6400   32.1310   40.3340 H   0  0  0  0  0  0  0  0  0  0  0  0
   36.6180   27.0940   40.0330 C   0  0  2  0  0  0  0  0  0  0  0  0
   36.9580   26.1980   38.8590 C   0  0  0  0  0  0  0  0  0  0  0  0
   36.9020   27.6710   38.7030 C   0  0  1  0  0  0  0  0  0  0  0  0
   35.5650   27.1450   40.3890 H   0  0  0  0  0  0  0  0  0  0  0  0
   36.1040   25.5370   38.5650 H   0  0  0  0  0  0  0  0  0  0  0  0
   37.9010   25.6580   38.9600 H   0  0  0  0  0  0  0  0  0  0  0  0
   37.9050   28.1360   38.5140 H   0  0  0  0  0  0  0  0  0  0  0  0
   35.8880   28.1540   37.8270 N   0  0  0  0  0  0  0  0  0  0  0  0
   34.6780   28.3510   38.4300 C   0  0  0  0  0  3  0  0  0  0  0  0
   33.6150   28.8220   37.6740 C   0  0  0  0  0  0  0  0  0  0  0  0
   32.6320   28.9940   38.1090 H   0  0  0  0  0  0  0  0  0  0  0  0
   33.7370   29.1030   36.3100 C   0  0  0  0  0  0  0  0  0  0  0  0
   32.7480   29.5270   35.6620 O   0  0  0  0  0  0  0  0  0  0  0  0
   34.9480   28.8870   35.7850 N   0  0  0  0  0  0  0  0  0  0  0  0
   35.9660   28.4320   36.5350 C   0  0  0  0  0  0  0  0  0  0  0  0
   37.0840   28.2430   36.0060 O   0  0  0  0  0  0  0  0  0  0  0  0
   35.0880   29.0840   34.7690 H   0  0  0  0  0  0  0  0  0  0  0  0
  1  7  1  1  0  0  0
  1  2  1  0  0  0  0
  2  3  1  0  0  0  0
  2  9  1  0  0  0  0
  2  8  1  0  0  0  0
  3 11  1  0  0  0  0
  4  3  1  0  0  0  0
  4 12  1  0  0  0  0
  5 15  1  0  0  0  0
  5  4  1  0  0  0  0
  6 16  1  6  0  0  0
  6  5  1  0  0  0  0
  6  1  1  0  0  0  0
 10  3  1  0  0  0  0
 13  4  1  0  0  0  0
 14  5  1  0  0  0  0
 17  1  1  0  0  0  0
 18 17  1  0  0  0  0
 18 23  1  0  0  0  0
 19 18  2  0  0  0  0
 20 21  2  0  0  0  0
 20 19  1  0  0  0  0
 21 22  1  0  0  0  0
 22 17  2  0  0  0  0
 24 19  1  0  0  0  0
 25 21  1  0  0  0  0
 26 29  1  1  0  0  0
 26  6  1  0  0  0  0
 27 31  1  0  0  0  0
 27 26  1  0  0  0  0
 28 32  1  6  0  0  0
 28 27  1  0  0  0  0
 28 26  1  0  0  0  0
 30 27  1  0  0  0  0
 33 34  1  0  0  0  0
 33 28  1  0  0  0  0
 35 36  1  0  0  0  0
 35 34  2  0  0  0  0
 37 35  1  0  0  0  0
 38 37  2  0  0  0  0
 39 37  1  0  0  0  0
 39 40  1  0  0  0  0
 40 33  1  0  0  0  0
 41 40  2  0  0  0  0
 42 39  1  0  0  0  0
M  END
>  <minimizedAffinity>
-5.31239653

$$$$

 OpenBabel03242511593D

 42 45  0  0  1  0  0  0  0  0999 V2000
   36.7640   30.3860   40.0350 C   0  0  2  0  0  0  0  0  0  0  0  0
   36.9570   31.8530   40.1730 C   0  0  0  0  0  0  0  0  0  0  0  0
   38.3770   32.2410   40.3660 C   0  0  0  0  0  0  0  0  0  0  0  0
   39.0650   31.5250   41.4910 C   0  0  0  0  0  0  0  0  0  0  0  0
   38.6520   30.0790   41.6300 C   0  0  0  0  0  0  0  0  0  0  0  0
   37.9600   29.5590   40.3990 C   0  0  1  0  0  0  0  0  0  0  0  0
   35.9180   30.1200   40.7350 H   0  0  0  0  0  0  0  0  0  0  0  0
   36.3580   32.3050   40.9890 H   0  0  0  0  0  0  0  0  0  0  0  0
   36.6130   32.3270   39.2310 H   0  0  0  0  0  0  0  0  0  0  0  0
   38.9520   32.1930   39.4020 H   0  0  0  0  0  0  0  0  0  0  0  0
   38.3830   33.3320   40.6320 H   0  0  0  0  0  0  0  0  0  0  0  0
   39.0110   32.0690   42.4490 H   0  0  0  0  0  0  0  0  0  0  0  0
   40.1530   31.5250   41.2220 H   0  0  0  0  0  0  0  0  0  0  0  0
   39.5470   29.4190   41.7810 H   0  0  0  0  0  0  0  0  0  0  0  0
   38.0510   29.9700   42.5400 H   0  0  0  0  0  0  0  0  0  0  0  0
   38.7110   29.4320   39.6070 H   0  0  0  0  0  0  0  0  0  0  0  0
   36.3010   29.9990   38.6860 C   0  0  0  0  0  0  0  0  0  0  0  0
   37.1920   30.3150   37.6590 C   0  0  0  0  0  0  0  0  0  0  0  0
   36.8760   29.9920   36.3320 C   0  0  0  0  0  0  0  0  0  0  0  0
   35.6520   29.3610   36.1410 N   0  0  0  0  0  0  0  0  0  0  0  0
   34.8170   29.0740   37.1590 C   0  0  0  0  0  0  0  0  0  0  0  0
   35.1520   29.3970   38.4260 N   0  0  0  0  0  0  0  0  0  0  0  0
   38.1530   30.8010   37.6270 H   0  0  0  0  0  0  0  0  0  0  0  0
   37.4400   30.1610   35.4430 H   0  0  0  0  0  0  0  0  0  0  0  0
   33.8790   28.5860   36.9650 H   0  0  0  0  0  0  0  0  0  0  0  0
   37.4600   28.1690   40.7160 C   0  0  2  0  0  0  0  0  0  0  0  0
   37.1660   27.8430   42.1660 C   0  0  0  0  0  0  0  0  0  0  0  0
   38.3010   27.2080   41.4570 C   0  0  1  0  0  0  0  0  0  0  0  0
   36.8010   27.7540   39.9220 H   0  0  0  0  0  0  0  0  0  0  0  0
   36.1830   27.3240   42.2960 H   0  0  0  0  0  0  0  0  0  0  0  0
   37.3020   28.6780   42.8540 H   0  0  0  0  0  0  0  0  0  0  0  0
   39.3040   27.5400   41.8360 H   0  0  0  0  0  0  0  0  0  0  0  0
   38.2070   25.7960   41.2920 N   0  0  0  0  0  0  0  0  0  0  0  0
   37.5410   25.4110   40.1630 C   0  0  0  0  0  3  0  0  0  0  0  0
   37.3880   24.0580   39.8980 C   0  0  0  0  0  0  0  0  0  0  0  0
   36.8650   23.7010   39.0120 H   0  0  0  0  0  0  0  0  0  0  0  0
   37.8930   23.0700   40.7490 C   0  0  0  0  0  0  0  0  0  0  0  0
   37.7310   21.8550   40.4710 O   0  0  0  0  0  0  0  0  0  0  0  0
   38.5330   23.5180   41.8340 N   0  0  0  0  0  0  0  0  0  0  0  0
   38.6710   24.8330   42.0730 C   0  0  0  0  0  0  0  0  0  0  0  0
   39.2770   25.2120   43.1000 O   0  0  0  0  0  0  0  0  0  0  0  0
   38.9280   22.8170   42.5000 H   0  0  0  0  0  0  0  0  0  0  0  0
  1  2  1  0  0  0  0
  1  6  1  0  0  0  0
  1  7  1  1  0  0  0
  2  3  1  0  0  0  0
  2  8  1  0  0  0  0
  3 11  1  0  0  0  0
  3  4  1  0  0  0  0
  4  5  1  0  0  0  0
  4 12  1  0  0  0  0
  5 14  1  0  0  0  0
  5 15  1  0  0  0  0
  6 16  1  6  0  0  0
  6 26  1  0  0  0  0
  6  5  1  0  0  0  0
  9  2  1  0  0  0  0
 10  3  1  0  0  0  0
 13  4  1  0  0  0  0
 17  1  1  0  0  0  0
 18 17  2  0  0  0  0
 19 18  1  0  0  0  0
 20 19  2  0  0  0  0
 20 21  1  0  0  0  0
 21 22  2  0  0  0  0
 22 17  1  0  0  0  0
 23 18  1  0  0  0  0
 24 19  1  0  0  0  0
 25 21  1  0  0  0  0
 26 29  1  6  0  0  0
 26 28  1  0  0  0  0
 26 27  1  0  0  0  0
 27 30  1  0  0  0  0
 27 31  1  0  0  0  0
 28 32  1  1  0  0  0
 28 27  1  0  0  0  0
 33 28  1  0  0  0  0
 33 40  1  0  0  0  0
 34 33  1  0  0  0  0
 35 34  2  0  0  0  0
 35 37  1  0  0  0  0
 36 35  1  0  0  0  0
 37 39  1  0  0  0  0
 38 37  2  0  0  0  0
 39 40  1  0  0  0  0
 39 42  1  0  0  0  0
 40 41  2  0  0  0  0
M  END
>  <minimizedAffinity>
-5.26147795

$$$$

 OpenBabel03242511593D

 42 45  0  0  1  0  0  0  0  0999 V2000
   36.8290   26.3520   41.2920 C   0  0  2  0  0  0  0  0  0  0  0  0
   37.0130   25.4300   42.4430 C   0  0  0  0  0  0  0  0  0  0  0  0
   37.8300   24.2360   42.1130 C   0  0  0  0  0  0  0  0  0  0  0  0
   37.3470   23.4710   40.9150 C   0  0  0  0  0  0  0  0  0  0  0  0
   36.8140   24.3490   39.8100 C   0  0  0  0  0  0  0  0  0  0  0  0
   37.2370   25.7850   39.9640 C   0  0  1  0  0  0  0  0  0  0  0  0
   35.7250   26.5840   41.2570 H   0  0  0  0  0  0  0  0  0  0  0  0
   36.0600   25.0880   42.8940 H   0  0  0  0  0  0  0  0  0  0  0  0
   37.5540   25.9880   43.2360 H   0  0  0  0  0  0  0  0  0  0  0  0
   38.9230   24.4860   42.0570 H   0  0  0  0  0  0  0  0  0  0  0  0
   37.7550   23.5370   42.9880 H   0  0  0  0  0  0  0  0  0  0  0  0
   36.6510   22.6540   41.1740 H   0  0  0  0  0  0  0  0  0  0  0  0
   38.2540   22.9540   40.5070 H   0  0  0  0  0  0  0  0  0  0  0  0
   37.2060   24.0210   38.8100 H   0  0  0  0  0  0  0  0  0  0  0  0
   35.7270   24.2240   39.7530 H   0  0  0  0  0  0  0  0  0  0  0  0
   38.3060   25.8600   39.7220 H   0  0  0  0  0  0  0  0  0  0  0  0
   37.5040   27.6520   41.4900 C   0  0  0  0  0  0  0  0  0  0  0  0
   38.8970   27.5920   41.4240 C   0  0  0  0  0  0  0  0  0  0  0  0
   39.6560   28.7600   41.5870 C   0  0  0  0  0  0  0  0  0  0  0  0
   38.9310   29.9240   41.8120 N   0  0  0  0  0  0  0  0  0  0  0  0
   37.5840   29.9400   41.8720 C   0  0  0  0  0  0  0  0  0  0  0  0
   36.8820   28.7980   41.7090 N   0  0  0  0  0  0  0  0  0  0  0  0
   39.6050   26.7940   41.2730 H   0  0  0  0  0  0  0  0  0  0  0  0
   40.7150   28.8850   41.5640 H   0  0  0  0  0  0  0  0  0  0  0  0
   37.0640   30.8630   42.0490 H   0  0  0  0  0  0  0  0  0  0  0  0
   36.5200   26.5840   38.9010 C   0  0  2  0  0  0  0  0  0  0  0  0
   35.5510   25.8430   38.0020 C   0  0  0  0  0  0  0  0  0  0  0  0
   36.8220   26.3890   37.4690 C   0  0  1  0  0  0  0  0  0  0  0  0
   36.2740   27.6180   39.2280 H   0  0  0  0  0  0  0  0  0  0  0  0
   34.5780   26.3840   37.8850 H   0  0  0  0  0  0  0  0  0  0  0  0
   35.4270   24.7860   38.2430 H   0  0  0  0  0  0  0  0  0  0  0  0
   37.5560   25.5940   37.1700 H   0  0  0  0  0  0  0  0  0  0  0  0
   36.6840   27.4170   36.4930 N   0  0  0  0  0  0  0  0  0  0  0  0
   35.3920   27.7930   36.2580 C   0  0  0  0  0  3  0  0  0  0  0  0
   35.1370   28.7880   35.3260 C   0  0  0  0  0  0  0  0  0  0  0  0
   34.1240   29.1220   35.1040 H   0  0  0  0  0  0  0  0  0  0  0  0
   36.1590   29.4240   34.6160 C   0  0  0  0  0  0  0  0  0  0  0  0
   35.8830   30.3220   33.7800 O   0  0  0  0  0  0  0  0  0  0  0  0
   37.3990   29.0070   34.8960 N   0  0  0  0  0  0  0  0  0  0  0  0
   37.6250   28.0420   35.8020 C   0  0  0  0  0  0  0  0  0  0  0  0
   38.8000   27.6800   36.0360 O   0  0  0  0  0  0  0  0  0  0  0  0
   38.1960   29.4540   34.3900 H   0  0  0  0  0  0  0  0  0  0  0  0
  1  7  1  6  0  0  0
  1 17  1  0  0  0  0
  1  2  1  0  0  0  0
  2  8  1  0  0  0  0
  2  9  1  0  0  0  0
  3  2  1  0  0  0  0
  3 11  1  0  0  0  0
  4 12  1  0  0  0  0
  4  3  1  0  0  0  0
  5  6  1  0  0  0  0
  5  4  1  0  0  0  0
  6 16  1  6  0  0  0
  6  1  1  0  0  0  0
 10  3  1  0  0  0  0
 13  4  1  0  0  0  0
 14  5  1  0  0  0  0
 15  5  1  0  0  0  0
 17 22  1  0  0  0  0
 18 17  2  0  0  0  0
 18 19  1  0  0  0  0
 19 20  2  0  0  0  0
 20 21  1  0  0  0  0
 21 25  1  0  0  0  0
 22 21  2  0  0  0  0
 23 18  1  0  0  0  0
 24 19  1  0  0  0  0
 26 29  1  1  0  0  0
 26  6  1  0  0  0  0
 27 31  1  0  0  0  0
 27 26  1  0  0  0  0
 28 32  1  6  0  0  0
 28 27  1  0  0  0  0
 28 26  1  0  0  0  0
 30 27  1  0  0  0  0
 33 28  1  0  0  0  0
 34 33  1  0  0  0  0
 35 34  2  0  0  0  0
 36 35  1  0  0  0  0
 37 39  1  0  0  0  0
 37 35  1  0  0  0  0
 38 37  2  0  0  0  0
 39 40  1  0  0  0  0
 40 41  2  0  0  0  0
 40 33  1  0  0  0  0
 42 39  1  0  0  0  0
M  END
>  <minimizedAffinity>
-5.25704002

$$$$

 OpenBabel03242511593D

 42 45  0  0  1  0  0  0  0  0999 V2000
   37.8580   26.3700   40.2550 C   0  0  2  0  0  0  0  0  0  0  0  0
   37.0900   25.3350   39.5170 C   0  0  0  0  0  0  0  0  0  0  0  0
   36.5060   24.2960   40.4030 C   0  0  0  0  0  0  0  0  0  0  0  0
   37.4950   23.6430   41.3220 C   0  0  0  0  0  0  0  0  0  0  0  0
   38.5420   24.5890   41.8580 C   0  0  0  0  0  0  0  0  0  0  0  0
   38.1500   26.0330   41.6870 C   0  0  1  0  0  0  0  0  0  0  0  0
   38.8390   26.4750   39.7050 H   0  0  0  0  0  0  0  0  0  0  0  0
   37.6760   24.8280   38.7240 H   0  0  0  0  0  0  0  0  0  0  0  0
   36.2450   25.8430   39.0080 H   0  0  0  0  0  0  0  0  0  0  0  0
   35.5970   24.6770   40.9410 H   0  0  0  0  0  0  0  0  0  0  0  0
   36.1070   23.4850   39.7360 H   0  0  0  0  0  0  0  0  0  0  0  0
   37.9390   22.7240   40.9000 H   0  0  0  0  0  0  0  0  0  0  0  0
   36.8970   23.2920   42.2030 H   0  0  0  0  0  0  0  0  0  0  0  0
   38.6910   24.4410   42.9600 H   0  0  0  0  0  0  0  0  0  0  0  0
   39.5060   24.3480   41.3960 H   0  0  0  0  0  0  0  0  0  0  0  0
   37.3500   26.2610   42.4030 H   0  0  0  0  0  0  0  0  0  0  0  0
   37.2220   27.7030   40.1930 C   0  0  0  0  0  0  0  0  0  0  0  0
   37.8300   28.5890   39.3020 C   0  0  0  0  0  0  0  0  0  0  0  0
   37.3170   29.8840   39.1420 C   0  0  0  0  0  0  0  0  0  0  0  0
   36.2040   30.1910   39.9160 N   0  0  0  0  0  0  0  0  0  0  0  0
   35.6460   29.3070   40.7670 C   0  0  0  0  0  0  0  0  0  0  0  0
   36.1630   28.0670   40.8970 N   0  0  0  0  0  0  0  0  0  0  0  0
   38.6840   28.5240   38.6490 H   0  0  0  0  0  0  0  0  0  0  0  0
   37.6590   30.6730   38.5110 H   0  0  0  0  0  0  0  0  0  0  0  0
   34.7850   29.5870   41.3470 H   0  0  0  0  0  0  0  0  0  0  0  0
   39.3320   26.8740   42.1100 C   0  0  2  0  0  0  0  0  0  0  0  0
   39.6540   26.9370   43.5890 C   0  0  0  0  0  0  0  0  0  0  0  0
   39.1420   28.1270   42.8680 C   0  0  1  0  0  0  0  0  0  0  0  0
   40.1650   26.8520   41.3730 H   0  0  0  0  0  0  0  0  0  0  0  0
   40.7450   26.7920   43.7940 H   0  0  0  0  0  0  0  0  0  0  0  0
   39.0150   26.3170   44.2190 H   0  0  0  0  0  0  0  0  0  0  0  0
   38.1060   28.4230   43.1810 H   0  0  0  0  0  0  0  0  0  0  0  0
   40.0400   29.2300   42.7940 N   0  0  0  0  0  0  0  0  0  0  0  0
   41.3420   28.9070   43.0540 C   0  0  0  0  0  3  0  0  0  0  0  0
   42.3060   29.9030   43.0090 C   0  0  0  0  0  0  0  0  0  0  0  0
   43.3560   29.6960   43.2090 H   0  0  0  0  0  0  0  0  0  0  0  0
   41.9930   31.2310   42.7060 C   0  0  0  0  0  0  0  0  0  0  0  0
   42.8980   32.1030   42.6770 O   0  0  0  0  0  0  0  0  0  0  0  0
   40.7010   31.4760   42.4630 N   0  0  0  0  0  0  0  0  0  0  0  0
   39.7820   30.4970   42.5110 C   0  0  0  0  0  0  0  0  0  0  0  0
   38.5830   30.7660   42.2760 O   0  0  0  0  0  0  0  0  0  0  0  0
   40.4180   32.4540   42.2310 H   0  0  0  0  0  0  0  0  0  0  0  0
  1  7  1  6  0  0  0
  1  6  1  0  0  0  0
  2  1  1  0  0  0  0
  2  3  1  0  0  0  0
  3 10  1  0  0  0  0
  3  4  1  0  0  0  0
  4  5  1  0  0  0  0
  4 13  1  0  0  0  0
  5 14  1  0  0  0  0
  6  5  1  0  0  0  0
  6 26  1  0  0  0  0
  6 16  1  1  0  0  0
  8  2  1  0  0  0  0
  9  2  1  0  0  0  0
 11  3  1  0  0  0  0
 12  4  1  0  0  0  0
 15  5  1  0  0  0  0
 17  1  1  0  0  0  0
 17 22  1  0  0  0  0
 18 17  2  0  0  0  0
 19 18  1  0  0  0  0
 19 20  2  0  0  0  0
 20 21  1  0  0  0  0
 21 22  2  0  0  0  0
 21 25  1  0  0  0  0
 23 18  1  0  0  0  0
 24 19  1  0  0  0  0
 26 29  1  6  0  0  0
 26 28  1  0  0  0  0
 26 27  1  0  0  0  0
 27 30  1  0  0  0  0
 27 31  1  0  0  0  0
 28 32  1  1  0  0  0
 28 27  1  0  0  0  0
 33 28  1  0  0  0  0
 33 34  1  0  0  0  0
 35 34  2  0  0  0  0
 35 36  1  0  0  0  0
 37 35  1  0  0  0  0
 38 37  2  0  0  0  0
 39 40  1  0  0  0  0
 39 37  1  0  0  0  0
 40 33  1  0  0  0  0
 41 40  2  0  0  0  0
 42 39  1  0  0  0  0
M  END
>  <minimizedAffinity>
-5.244349

$$$$
