
 OpenBabel03242520193D

 36 38  0  0  0  0  0  0  0  0999 V2000
   41.4780   35.5900   39.0110 C   0  0  0  0  0  0  0  0  0  0  0  0
   41.6890   36.6810   38.9760 H   0  0  0  0  0  0  0  0  0  0  0  0
   41.4240   35.2200   37.9560 H   0  0  0  0  0  0  0  0  0  0  0  0
   44.0720   34.4800   41.5220 C   0  0  0  0  0  0  0  0  0  0  0  0
   43.0590   35.2390   40.9040 C   0  0  0  0  0  0  0  0  0  0  0  0
   42.5520   34.8220   39.6840 C   0  0  0  0  0  0  0  0  0  0  0  0
   43.0750   33.6780   39.1420 N   0  0  0  0  0  0  0  0  0  0  0  0
   44.0600   32.9750   39.7820 C   0  0  0  0  0  0  0  0  0  0  0  0
   44.5400   33.3760   40.9460 N   0  0  0  0  0  0  0  0  0  0  0  0
   42.7080   36.1270   41.4060 H   0  0  0  0  0  0  0  0  0  0  0  0
   44.4240   32.0780   39.2890 H   0  0  0  0  0  0  0  0  0  0  0  0
   44.6160   34.9460   42.8270 C   0  0  0  0  0  0  0  0  0  0  0  0
   46.1340   35.3230   42.7210 C   0  0  0  0  0  0  0  0  0  0  0  0
   45.0690   36.2680   43.0720 C   0  0  0  0  0  0  0  0  0  0  0  0
   44.4010   34.2270   43.6650 H   0  0  0  0  0  0  0  0  0  0  0  0
   46.5930   35.2890   41.7230 H   0  0  0  0  0  0  0  0  0  0  0  0
   46.7480   34.9580   43.5690 H   0  0  0  0  0  0  0  0  0  0  0  0
   44.8510   37.0340   42.2680 H   0  0  0  0  0  0  0  0  0  0  0  0
   45.0040   36.7530   44.0680 H   0  0  0  0  0  0  0  0  0  0  0  0
   40.1510   35.3760   39.6760 C   0  0  0  0  0  0  0  0  0  0  0  0
   40.1260   35.9470   40.6250 H   0  0  0  0  0  0  0  0  0  0  0  0
   39.3000   35.7980   39.0770 H   0  0  0  0  0  0  0  0  0  0  0  0
   39.8050   33.4420   41.1970 C   0  0  0  0  0  0  0  0  0  0  0  0
   39.8910   34.1780   42.2270 O   0  0  0  0  0  0  0  0  0  0  0  0
   39.8290   33.9750   39.8890 N   0  0  0  0  0  0  0  0  0  0  0  0
   39.6320   33.4480   39.0500 H   0  0  0  0  0  0  0  0  0  0  0  0
   41.0370   29.7300   43.5050 H   0  0  0  0  0  0  0  0  0  0  0  0
   40.4230   30.1150   42.7570 N   0  0  0  0  0  0  0  0  0  0  0  0
   40.4700   31.4200   42.4460 C   0  0  0  0  0  3  0  0  0  0  0  0
   39.6790   32.0120   41.4550 C   0  0  0  0  0  0  0  0  0  0  0  0
   38.8740   31.0960   40.8650 C   0  0  0  0  0  0  0  0  0  0  0  0
   38.1090   31.4800   39.9590 O   0  0  0  0  0  0  0  0  0  0  0  0
   38.8010   29.8000   41.1470 N   0  0  0  0  0  0  0  0  0  0  0  0
   39.5870   29.2880   42.1090 C   0  0  0  0  0  0  0  0  0  0  0  0
   39.5790   28.0910   42.4310 O   0  0  0  0  0  0  0  0  0  0  0  0
   38.1650   29.1500   40.6600 H   0  0  0  0  0  0  0  0  0  0  0  0
  1 20  1  0  0  0  0
  1  6  1  0  0  0  0
  2  1  1  0  0  0  0
  3  1  1  0  0  0  0
  4 12  1  0  0  0  0
  5 10  1  0  0  0  0
  5  4  2  0  0  0  0
  6  5  1  0  0  0  0
  7  6  2  0  0  0  0
  7  8  1  0  0  0  0
  8  9  2  0  0  0  0
  9  4  1  0  0  0  0
 11  8  1  0  0  0  0
 12 14  1  0  0  0  0
 12 15  1  0  0  0  0
 13 12  1  0  0  0  0
 13 14  1  0  0  0  0
 13 17  1  0  0  0  0
 14 19  1  0  0  0  0
 16 13  1  0  0  0  0
 18 14  1  0  0  0  0
 20 25  1  0  0  0  0
 20 21  1  0  0  0  0
 22 20  1  0  0  0  0
 23 30  1  0  0  0  0
 23 24  2  0  0  0  0
 25 23  1  0  0  0  0
 26 25  1  0  0  0  0
 28 27  1  0  0  0  0
 29 28  1  0  0  0  0
 30 29  2  0  0  0  0
 31 33  1  0  0  0  0
 31 30  1  0  0  0  0
 32 31  2  0  0  0  0
 33 34  1  0  0  0  0
 34 35  2  0  0  0  0
 34 28  1  0  0  0  0
 36 33  1  0  0  0  0
M  END
>  <minimizedAffinity>
-4.90435171

>  <minimizedRMSD>
1.91711771

$$$$
