
 OpenBabel03252502403D

 47 50  0  0  1  0  0  0  0  0999 V2000
   37.2750   29.9010   39.9630 C   0  0  1  0  0  0  0  0  0  0  0  0
   38.2010   29.9030   39.3140 H   0  0  0  0  0  0  0  0  0  0  0  0
   37.5690   29.0030   41.0460 N   0  0  0  0  0  0  0  0  0  0  0  0
   38.8150   28.3500   40.9050 C   0  0  0  0  0  0  0  0  0  0  0  0
   38.7710   27.1700   41.8950 C   0  0  0  0  0  0  0  0  0  0  0  0
   38.8420   27.7830   43.1660 N   0  0  0  0  0  0  0  0  0  0  0  0
   37.8330   28.7030   43.4510 C   0  0  0  0  0  0  0  0  0  0  0  0
   37.4140   29.6080   42.3010 C   0  0  0  0  0  0  0  0  0  0  0  0
   38.8980   27.8890   39.9000 H   0  0  0  0  0  0  0  0  0  0  0  0
   39.7150   28.9600   41.1280 H   0  0  0  0  0  0  0  0  0  0  0  0
   37.8700   26.5770   41.6900 H   0  0  0  0  0  0  0  0  0  0  0  0
   39.6970   26.5730   41.7240 H   0  0  0  0  0  0  0  0  0  0  0  0
   39.6470   27.6520   43.7420 H   0  0  0  0  0  0  0  0  0  0  0  0
   38.1010   29.2860   44.3610 H   0  0  0  0  0  0  0  0  0  0  0  0
   36.9200   28.1150   43.7570 H   0  0  0  0  0  0  0  0  0  0  0  0
   36.4990   30.0390   42.6320 H   0  0  0  0  0  0  0  0  0  0  0  0
   38.2840   30.3380   42.3640 H   0  0  0  0  0  0  0  0  0  0  0  0
   34.8960   29.2350   39.6270 C   0  0  0  0  0  0  0  0  0  0  0  0
   36.1480   29.5790   39.1460 C   0  0  0  0  0  0  0  0  0  0  0  0
   36.2800   29.6050   37.7440 C   0  0  0  0  0  0  0  0  0  0  0  0
   35.2060   29.2990   36.9530 N   0  0  0  0  0  0  0  0  0  0  0  0
   34.0050   28.9690   37.4970 C   0  0  0  0  0  0  0  0  0  0  0  0
   33.8550   28.9390   38.8380 N   0  0  0  0  0  0  0  0  0  0  0  0
   34.8070   29.2200   40.6910 H   0  0  0  0  0  0  0  0  0  0  0  0
   37.2310   29.8660   37.2960 H   0  0  0  0  0  0  0  0  0  0  0  0
   33.1570   28.7280   36.8710 H   0  0  0  0  0  0  0  0  0  0  0  0
   37.0650   31.3110   40.5320 C   0  0  0  0  0  0  0  0  0  0  0  0
   36.0660   31.7210   40.4310 H   0  0  0  0  0  0  0  0  0  0  0  0
   37.0340   31.0100   41.6300 H   0  0  0  0  0  0  0  0  0  0  0  0
   38.0860   32.2650   40.2520 C   0  0  0  0  0  0  0  0  0  0  0  0
   38.3860   33.5440   40.5760 C   0  0  0  0  0  0  0  0  0  0  0  0
   39.4670   34.3010   40.1630 C   0  0  0  0  0  0  0  0  0  0  0  0
   40.3100   33.6860   39.3440 N   0  0  0  0  0  0  0  0  0  0  0  0
   40.1000   32.4430   38.9730 C   0  0  0  0  0  0  0  0  0  0  0  0
   39.0380   31.7920   39.4190 N   0  0  0  0  0  0  0  0  0  0  0  0
   37.6280   33.9790   41.2550 H   0  0  0  0  0  0  0  0  0  0  0  0
   39.5120   35.2920   40.5410 H   0  0  0  0  0  0  0  0  0  0  0  0
   41.0780   31.8830   38.0860 N   0  0  0  0  0  0  0  0  0  0  0  0
   42.2370   32.5670   37.8530 C   0  0  0  0  0  3  0  0  0  0  0  0
   43.2140   32.0580   36.9970 C   0  0  0  0  0  0  0  0  0  0  0  0
   44.1410   32.5860   36.8000 H   0  0  0  0  0  0  0  0  0  0  0  0
   42.9080   30.8330   36.4220 C   0  0  0  0  0  0  0  0  0  0  0  0
   43.7190   30.2860   35.6370 O   0  0  0  0  0  0  0  0  0  0  0  0
   41.7690   30.1800   36.6620 N   0  0  0  0  0  0  0  0  0  0  0  0
   40.8570   30.7120   37.4960 C   0  0  0  0  0  0  0  0  0  0  0  0
   39.7920   30.0370   37.6810 O   0  0  0  0  0  0  0  0  0  0  0  0
   41.5780   29.2570   36.2080 H   0  0  0  0  0  0  0  0  0  0  0  0
  1  2  1  6  0  0  0
  1 27  1  0  0  0  0
  1  3  1  0  0  0  0
  3  8  1  0  0  0  0
  4  3  1  0  0  0  0
  4 10  1  0  0  0  0
  4  5  1  0  0  0  0
  5  6  1  0  0  0  0
  6  7  1  0  0  0  0
  6 13  1  0  0  0  0
  7 15  1  0  0  0  0
  7 14  1  0  0  0  0
  8 17  1  0  0  0  0
  8 16  1  0  0  0  0
  8  7  1  0  0  0  0
  9  4  1  0  0  0  0
 11  5  1  0  0  0  0
 12  5  1  0  0  0  0
 18 24  1  0  0  0  0
 19 18  1  0  0  0  0
 19  1  1  0  0  0  0
 20 19  2  0  0  0  0
 21 22  2  0  0  0  0
 21 20  1  0  0  0  0
 22 23  1  0  0  0  0
 23 18  2  0  0  0  0
 25 20  1  0  0  0  0
 26 22  1  0  0  0  0
 27 29  1  0  0  0  0
 28 27  1  0  0  0  0
 30 27  1  0  0  0  0
 30 31  1  0  0  0  0
 31 36  1  0  0  0  0
 32 37  1  0  0  0  0
 32 31  2  0  0  0  0
 33 32  1  0  0  0  0
 34 33  2  0  0  0  0
 34 35  1  0  0  0  0
 35 30  2  0  0  0  0
 38 34  1  0  0  0  0
 39 38  1  0  0  0  0
 40 39  2  0  0  0  0
 41 40  1  0  0  0  0
 42 44  1  0  0  0  0
 42 40  1  0  0  0  0
 43 42  2  0  0  0  0
 44 45  1  0  0  0  0
 45 46  2  0  0  0  0
 45 38  1  0  0  0  0
 47 44  1  0  0  0  0
M  END
>  <minimizedAffinity>
-6.06243801

$$$$

 OpenBabel03252502403D

 47 50  0  0  1  0  0  0  0  0999 V2000
   37.7110   26.1670   41.8250 C   0  0  1  0  0  0  0  0  0  0  0  0
   37.1600   25.1930   41.9870 H   0  0  0  0  0  0  0  0  0  0  0  0
   37.7110   26.3730   40.4030 N   0  0  0  0  0  0  0  0  0  0  0  0
   38.9860   26.7040   39.8880 C   0  0  0  0  0  0  0  0  0  0  0  0
   38.7230   27.2740   38.4810 C   0  0  0  0  0  0  0  0  0  0  0  0
   38.3230   26.1510   37.7230 N   0  0  0  0  0  0  0  0  0  0  0  0
   37.2020   25.4690   38.1970 C   0  0  0  0  0  0  0  0  0  0  0  0
   37.1050   25.3170   39.7070 C   0  0  0  0  0  0  0  0  0  0  0  0
   39.4310   27.5400   40.4670 H   0  0  0  0  0  0  0  0  0  0  0  0
   39.7090   25.8670   39.7960 H   0  0  0  0  0  0  0  0  0  0  0  0
   37.9910   28.0880   38.5670 H   0  0  0  0  0  0  0  0  0  0  0  0
   39.7010   27.6460   38.0980 H   0  0  0  0  0  0  0  0  0  0  0  0
   38.9050   25.8100   36.9860 H   0  0  0  0  0  0  0  0  0  0  0  0
   37.1090   24.4900   37.6740 H   0  0  0  0  0  0  0  0  0  0  0  0
   36.2920   26.0480   37.8640 H   0  0  0  0  0  0  0  0  0  0  0  0
   36.0990   25.0120   39.8720 H   0  0  0  0  0  0  0  0  0  0  0  0
   37.8420   24.4570   39.8170 H   0  0  0  0  0  0  0  0  0  0  0  0
   39.8410   24.9920   42.3770 C   0  0  0  0  0  0  0  0  0  0  0  0
   38.9870   26.0790   42.4630 C   0  0  0  0  0  0  0  0  0  0  0  0
   39.4450   27.1580   43.2430 C   0  0  0  0  0  0  0  0  0  0  0  0
   40.6670   27.0840   43.8570 N   0  0  0  0  0  0  0  0  0  0  0  0
   41.4510   25.9830   43.7270 C   0  0  0  0  0  0  0  0  0  0  0  0
   41.0330   24.9370   42.9840 N   0  0  0  0  0  0  0  0  0  0  0  0
   39.4830   24.1810   41.7820 H   0  0  0  0  0  0  0  0  0  0  0  0
   38.8300   28.0430   43.3550 H   0  0  0  0  0  0  0  0  0  0  0  0
   42.4170   25.9260   44.2130 H   0  0  0  0  0  0  0  0  0  0  0  0
   36.9210   27.3020   42.4900 C   0  0  0  0  0  0  0  0  0  0  0  0
   36.1960   27.0010   43.2390 H   0  0  0  0  0  0  0  0  0  0  0  0
   37.7560   27.6660   43.1740 H   0  0  0  0  0  0  0  0  0  0  0  0
   36.4330   28.3240   41.6260 C   0  0  0  0  0  0  0  0  0  0  0  0
   35.3540   28.5480   40.8390 C   0  0  0  0  0  0  0  0  0  0  0  0
   35.0850   29.6510   40.0510 C   0  0  0  0  0  0  0  0  0  0  0  0
   36.0060   30.6060   40.0760 N   0  0  0  0  0  0  0  0  0  0  0  0
   37.0870   30.4750   40.8110 C   0  0  0  0  0  0  0  0  0  0  0  0
   37.2640   29.3840   41.5370 N   0  0  0  0  0  0  0  0  0  0  0  0
   34.6440   27.7000   40.8740 H   0  0  0  0  0  0  0  0  0  0  0  0
   34.1720   29.6230   39.5100 H   0  0  0  0  0  0  0  0  0  0  0  0
   38.0120   31.5700   40.7580 N   0  0  0  0  0  0  0  0  0  0  0  0
   37.6380   32.7320   40.1430 C   0  0  0  0  0  3  0  0  0  0  0  0
   38.5070   33.8200   40.0700 C   0  0  0  0  0  0  0  0  0  0  0  0
   38.2280   34.7510   39.5870 H   0  0  0  0  0  0  0  0  0  0  0  0
   39.7480   33.6200   40.6600 C   0  0  0  0  0  0  0  0  0  0  0  0
   40.6040   34.5360   40.6500 O   0  0  0  0  0  0  0  0  0  0  0  0
   40.0950   32.4770   41.2560 N   0  0  0  0  0  0  0  0  0  0  0  0
   39.2200   31.4550   41.3010 C   0  0  0  0  0  0  0  0  0  0  0  0
   39.6160   30.3930   41.8850 O   0  0  0  0  0  0  0  0  0  0  0  0
   41.0410   32.3680   41.6890 H   0  0  0  0  0  0  0  0  0  0  0  0
  1  2  1  1  0  0  0
  1 19  1  0  0  0  0
  1 27  1  0  0  0  0
  3  1  1  0  0  0  0
  4  3  1  0  0  0  0
  4  9  1  0  0  0  0
  5 11  1  0  0  0  0
  5  4  1  0  0  0  0
  6  7  1  0  0  0  0
  6  5  1  0  0  0  0
  7  8  1  0  0  0  0
  8 17  1  0  0  0  0
  8 16  1  0  0  0  0
  8  3  1  0  0  0  0
 10  4  1  0  0  0  0
 12  5  1  0  0  0  0
 13  6  1  0  0  0  0
 14  7  1  0  0  0  0
 15  7  1  0  0  0  0
 18 19  2  0  0  0  0
 18 23  1  0  0  0  0
 19 20  1  0  0  0  0
 20 25  1  0  0  0  0
 20 21  2  0  0  0  0
 22 21  1  0  0  0  0
 22 26  1  0  0  0  0
 23 22  2  0  0  0  0
 24 18  1  0  0  0  0
 27 29  1  0  0  0  0
 27 28  1  0  0  0  0
 30 27  1  0  0  0  0
 31 36  1  0  0  0  0
 31 30  2  0  0  0  0
 32 33  2  0  0  0  0
 32 31  1  0  0  0  0
 33 34  1  0  0  0  0
 34 35  2  0  0  0  0
 35 30  1  0  0  0  0
 37 32  1  0  0  0  0
 38 34  1  0  0  0  0
 38 45  1  0  0  0  0
 39 38  1  0  0  0  0
 40 39  2  0  0  0  0
 40 42  1  0  0  0  0
 41 40  1  0  0  0  0
 42 44  1  0  0  0  0
 43 42  2  0  0  0  0
 44 45  1  0  0  0  0
 44 47  1  0  0  0  0
 45 46  2  0  0  0  0
M  END
>  <minimizedAffinity>
-5.93381548

$$$$

 OpenBabel03252502403D

 47 50  0  0  1  0  0  0  0  0999 V2000
   36.9550   31.0470   38.6090 C   0  0  1  0  0  0  0  0  0  0  0  0
   36.2880   31.7140   37.9860 H   0  0  0  0  0  0  0  0  0  0  0  0
   37.9640   31.9160   39.1510 N   0  0  0  0  0  0  0  0  0  0  0  0
   39.0170   32.1790   38.2450 C   0  0  0  0  0  0  0  0  0  0  0  0
   40.1590   32.7580   39.1030 C   0  0  0  0  0  0  0  0  0  0  0  0
   39.6940   34.0380   39.4770 N   0  0  0  0  0  0  0  0  0  0  0  0
   38.4880   34.0630   40.1790 C   0  0  0  0  0  0  0  0  0  0  0  0
   37.4230   33.0850   39.7070 C   0  0  0  0  0  0  0  0  0  0  0  0
   39.4130   31.2310   37.8270 H   0  0  0  0  0  0  0  0  0  0  0  0
   38.7930   32.8990   37.4300 H   0  0  0  0  0  0  0  0  0  0  0  0
   40.3670   32.0570   39.9220 H   0  0  0  0  0  0  0  0  0  0  0  0
   41.0400   32.8700   38.4300 H   0  0  0  0  0  0  0  0  0  0  0  0
   40.1450   34.8580   39.1280 H   0  0  0  0  0  0  0  0  0  0  0  0
   38.1020   35.1070   40.2250 H   0  0  0  0  0  0  0  0  0  0  0  0
   38.7200   33.8060   41.2530 H   0  0  0  0  0  0  0  0  0  0  0  0
   36.7100   33.0790   40.4960 H   0  0  0  0  0  0  0  0  0  0  0  0
   37.0670   33.6780   38.8050 H   0  0  0  0  0  0  0  0  0  0  0  0
   38.6630   29.3880   37.8710 C   0  0  0  0  0  0  0  0  0  0  0  0
   37.4070   29.9650   37.7930 C   0  0  0  0  0  0  0  0  0  0  0  0
   36.5390   29.4170   36.8300 C   0  0  0  0  0  0  0  0  0  0  0  0
   36.9630   28.3790   36.0440 N   0  0  0  0  0  0  0  0  0  0  0  0
   38.2130   27.8630   36.1770 C   0  0  0  0  0  0  0  0  0  0  0  0
   39.0610   28.3730   37.0940 N   0  0  0  0  0  0  0  0  0  0  0  0
   39.3120   29.8120   38.6060 H   0  0  0  0  0  0  0  0  0  0  0  0
   35.5400   29.8180   36.7120 H   0  0  0  0  0  0  0  0  0  0  0  0
   38.5460   27.0430   35.5550 H   0  0  0  0  0  0  0  0  0  0  0  0
   36.1320   30.4630   39.7660 C   0  0  0  0  0  0  0  0  0  0  0  0
   35.3600   31.1070   40.1730 H   0  0  0  0  0  0  0  0  0  0  0  0
   35.4850   29.7700   39.1350 H   0  0  0  0  0  0  0  0  0  0  0  0
   36.8620   29.7690   40.7740 C   0  0  0  0  0  0  0  0  0  0  0  0
   37.5640   30.0630   41.8920 C   0  0  0  0  0  0  0  0  0  0  0  0
   38.2210   29.1940   42.7440 C   0  0  0  0  0  0  0  0  0  0  0  0
   38.1470   27.9110   42.4130 N   0  0  0  0  0  0  0  0  0  0  0  0
   37.4870   27.5310   41.3440 C   0  0  0  0  0  0  0  0  0  0  0  0
   36.8860   28.4310   40.5840 N   0  0  0  0  0  0  0  0  0  0  0  0
   37.5790   31.1520   42.0870 H   0  0  0  0  0  0  0  0  0  0  0  0
   38.7140   29.6390   43.5720 H   0  0  0  0  0  0  0  0  0  0  0  0
   37.4760   26.1200   41.0860 N   0  0  0  0  0  0  0  0  0  0  0  0
   37.9490   25.2640   42.0400 C   0  0  0  0  0  3  0  0  0  0  0  0
   37.9560   23.8850   41.8300 C   0  0  0  0  0  0  0  0  0  0  0  0
   38.3280   23.1890   42.5750 H   0  0  0  0  0  0  0  0  0  0  0  0
   37.4560   23.4760   40.6020 C   0  0  0  0  0  0  0  0  0  0  0  0
   37.4170   22.2570   40.3120 O   0  0  0  0  0  0  0  0  0  0  0  0
   36.9980   24.3290   39.6820 N   0  0  0  0  0  0  0  0  0  0  0  0
   37.0110   25.6510   39.9320 C   0  0  0  0  0  0  0  0  0  0  0  0
   36.5600   26.4090   39.0120 O   0  0  0  0  0  0  0  0  0  0  0  0
   36.6280   23.9790   38.7690 H   0  0  0  0  0  0  0  0  0  0  0  0
  1  2  1  6  0  0  0
  1  3  1  0  0  0  0
  1 27  1  0  0  0  0
  3  8  1  0  0  0  0
  4  5  1  0  0  0  0
  4  3  1  0  0  0  0
  5  6  1  0  0  0  0
  5 11  1  0  0  0  0
  6  7  1  0  0  0  0
  7 14  1  0  0  0  0
  7 15  1  0  0  0  0
  8  7  1  0  0  0  0
  8 16  1  0  0  0  0
  9  4  1  0  0  0  0
 10  4  1  0  0  0  0
 12  5  1  0  0  0  0
 13  6  1  0  0  0  0
 17  8  1  0  0  0  0
 18 24  1  0  0  0  0
 19 18  1  0  0  0  0
 19  1  1  0  0  0  0
 20 19  2  0  0  0  0
 21 22  2  0  0  0  0
 21 20  1  0  0  0  0
 22 23  1  0  0  0  0
 23 18  2  0  0  0  0
 25 20  1  0  0  0  0
 26 22  1  0  0  0  0
 27 28  1  0  0  0  0
 27 30  1  0  0  0  0
 29 27  1  0  0  0  0
 30 31  1  0  0  0  0
 31 36  1  0  0  0  0
 31 32  2  0  0  0  0
 32 37  1  0  0  0  0
 33 32  1  0  0  0  0
 34 33  2  0  0  0  0
 35 30  2  0  0  0  0
 35 34  1  0  0  0  0
 38 34  1  0  0  0  0
 38 39  1  0  0  0  0
 40 39  2  0  0  0  0
 40 41  1  0  0  0  0
 42 40  1  0  0  0  0
 43 42  2  0  0  0  0
 44 45  1  0  0  0  0
 44 42  1  0  0  0  0
 45 38  1  0  0  0  0
 46 45  2  0  0  0  0
 47 44  1  0  0  0  0
M  END
>  <minimizedAffinity>
-5.91040611

$$$$

 OpenBabel03252502403D

 47 50  0  0  1  0  0  0  0  0999 V2000
   38.5380   31.1330   40.6850 C   0  0  1  0  0  0  0  0  0  0  0  0
   37.7350   31.5360   41.3720 H   0  0  0  0  0  0  0  0  0  0  0  0
   39.4370   32.2320   40.4620 N   0  0  0  0  0  0  0  0  0  0  0  0
   38.8850   33.4840   40.8220 C   0  0  0  0  0  0  0  0  0  0  0  0
   39.7900   34.5360   40.1520 C   0  0  0  0  0  0  0  0  0  0  0  0
   40.9970   34.4670   40.8820 N   0  0  0  0  0  0  0  0  0  0  0  0
   41.6220   33.2190   40.9010 C   0  0  0  0  0  0  0  0  0  0  0  0
   40.7010   32.0160   41.0310 C   0  0  0  0  0  0  0  0  0  0  0  0
   37.8870   33.6140   40.3550 H   0  0  0  0  0  0  0  0  0  0  0  0
   38.8380   33.7040   41.9080 H   0  0  0  0  0  0  0  0  0  0  0  0
   39.8550   34.3070   39.0800 H   0  0  0  0  0  0  0  0  0  0  0  0
   39.3120   35.5270   40.3270 H   0  0  0  0  0  0  0  0  0  0  0  0
   41.2860   35.2360   41.4500 H   0  0  0  0  0  0  0  0  0  0  0  0
   42.4250   33.2120   41.6730 H   0  0  0  0  0  0  0  0  0  0  0  0
   42.1770   33.1070   39.9250 H   0  0  0  0  0  0  0  0  0  0  0  0
   41.3200   31.1890   40.7770 H   0  0  0  0  0  0  0  0  0  0  0  0
   40.5160   32.0910   42.1500 H   0  0  0  0  0  0  0  0  0  0  0  0
   38.5860   30.0450   38.4420 C   0  0  0  0  0  0  0  0  0  0  0  0
   37.9110   30.5690   39.5320 C   0  0  0  0  0  0  0  0  0  0  0  0
   36.5050   30.5240   39.4620 C   0  0  0  0  0  0  0  0  0  0  0  0
   35.8950   29.9840   38.3620 N   0  0  0  0  0  0  0  0  0  0  0  0
   36.6240   29.4880   37.3280 C   0  0  0  0  0  0  0  0  0  0  0  0
   37.9720   29.5210   37.3740 N   0  0  0  0  0  0  0  0  0  0  0  0
   39.6510   30.0840   38.5070 H   0  0  0  0  0  0  0  0  0  0  0  0
   35.9120   30.9160   40.2790 H   0  0  0  0  0  0  0  0  0  0  0  0
   36.1400   29.0620   36.4590 H   0  0  0  0  0  0  0  0  0  0  0  0
   39.2970   30.0140   41.4120 C   0  0  0  0  0  0  0  0  0  0  0  0
   40.1610   29.6110   40.8930 H   0  0  0  0  0  0  0  0  0  0  0  0
   39.8260   30.6780   42.1700 H   0  0  0  0  0  0  0  0  0  0  0  0
   38.5000   29.0040   42.0260 C   0  0  0  0  0  0  0  0  0  0  0  0
   37.6150   28.9000   43.0440 C   0  0  0  0  0  0  0  0  0  0  0  0
   36.9460   27.7730   43.4840 C   0  0  0  0  0  0  0  0  0  0  0  0
   37.2120   26.6580   42.8160 N   0  0  0  0  0  0  0  0  0  0  0  0
   38.0580   26.6630   41.8120 C   0  0  0  0  0  0  0  0  0  0  0  0
   38.6550   27.7890   41.4570 N   0  0  0  0  0  0  0  0  0  0  0  0
   37.4600   29.8730   43.5480 H   0  0  0  0  0  0  0  0  0  0  0  0
   36.2900   27.9140   44.3070 H   0  0  0  0  0  0  0  0  0  0  0  0
   38.2670   25.3990   41.1660 N   0  0  0  0  0  0  0  0  0  0  0  0
   37.4510   24.3480   41.4760 C   0  0  0  0  0  3  0  0  0  0  0  0
   37.6190   23.1030   40.8700 C   0  0  0  0  0  0  0  0  0  0  0  0
   36.9810   22.2570   41.1030 H   0  0  0  0  0  0  0  0  0  0  0  0
   38.6600   23.0330   39.9550 C   0  0  0  0  0  0  0  0  0  0  0  0
   38.8980   21.9580   39.3540 O   0  0  0  0  0  0  0  0  0  0  0  0
   39.4480   24.0710   39.6660 N   0  0  0  0  0  0  0  0  0  0  0  0
   39.2440   25.2530   40.2760 C   0  0  0  0  0  0  0  0  0  0  0  0
   40.0310   26.2030   39.9550 O   0  0  0  0  0  0  0  0  0  0  0  0
   40.2210   23.9760   38.9690 H   0  0  0  0  0  0  0  0  0  0  0  0
  1  2  1  1  0  0  0
  1 27  1  0  0  0  0
  3  1  1  0  0  0  0
  3  4  1  0  0  0  0
  3  8  1  0  0  0  0
  4 10  1  0  0  0  0
  5 12  1  0  0  0  0
  5  4  1  0  0  0  0
  5  6  1  0  0  0  0
  6  7  1  0  0  0  0
  6 13  1  0  0  0  0
  7  8  1  0  0  0  0
  7 14  1  0  0  0  0
  8 17  1  0  0  0  0
  9  4  1  0  0  0  0
 11  5  1  0  0  0  0
 15  7  1  0  0  0  0
 16  8  1  0  0  0  0
 18 24  1  0  0  0  0
 18 19  1  0  0  0  0
 19  1  1  0  0  0  0
 20 19  2  0  0  0  0
 20 25  1  0  0  0  0
 21 20  1  0  0  0  0
 22 23  1  0  0  0  0
 22 21  2  0  0  0  0
 23 18  2  0  0  0  0
 26 22  1  0  0  0  0
 27 30  1  0  0  0  0
 27 29  1  0  0  0  0
 28 27  1  0  0  0  0
 30 31  1  0  0  0  0
 31 32  2  0  0  0  0
 31 36  1  0  0  0  0
 32 37  1  0  0  0  0
 33 32  1  0  0  0  0
 34 33  2  0  0  0  0
 35 34  1  0  0  0  0
 35 30  2  0  0  0  0
 38 39  1  0  0  0  0
 38 34  1  0  0  0  0
 40 41  1  0  0  0  0
 40 39  2  0  0  0  0
 42 40  1  0  0  0  0
 43 42  2  0  0  0  0
 44 42  1  0  0  0  0
 44 45  1  0  0  0  0
 45 38  1  0  0  0  0
 46 45  2  0  0  0  0
 47 44  1  0  0  0  0
M  END
>  <minimizedAffinity>
-5.90671444

$$$$

 OpenBabel03252502403D

 47 50  0  0  1  0  0  0  0  0999 V2000
   36.7960   27.3020   41.9430 C   0  0  1  0  0  0  0  0  0  0  0  0
   35.6890   27.1290   42.0890 H   0  0  0  0  0  0  0  0  0  0  0  0
   36.8930   28.4190   41.0440 N   0  0  0  0  0  0  0  0  0  0  0  0
   36.1810   28.2260   39.8370 C   0  0  0  0  0  0  0  0  0  0  0  0
   36.7190   29.2980   38.8700 C   0  0  0  0  0  0  0  0  0  0  0  0
   36.2100   30.5120   39.3830 N   0  0  0  0  0  0  0  0  0  0  0  0
   36.5680   30.8110   40.6980 C   0  0  0  0  0  0  0  0  0  0  0  0
   36.5810   29.6370   41.6660 C   0  0  0  0  0  0  0  0  0  0  0  0
   36.4530   27.2530   39.3800 H   0  0  0  0  0  0  0  0  0  0  0  0
   35.0780   28.3320   39.8970 H   0  0  0  0  0  0  0  0  0  0  0  0
   37.8120   29.2090   38.8250 H   0  0  0  0  0  0  0  0  0  0  0  0
   36.2550   29.0970   37.8770 H   0  0  0  0  0  0  0  0  0  0  0  0
   35.5310   31.0300   38.8660 H   0  0  0  0  0  0  0  0  0  0  0  0
   35.9440   31.6530   41.0760 H   0  0  0  0  0  0  0  0  0  0  0  0
   37.6150   31.2310   40.6740 H   0  0  0  0  0  0  0  0  0  0  0  0
   37.1050   30.0080   42.5140 H   0  0  0  0  0  0  0  0  0  0  0  0
   35.4600   29.5770   41.8420 H   0  0  0  0  0  0  0  0  0  0  0  0
   38.4830   25.9860   40.6620 C   0  0  0  0  0  0  0  0  0  0  0  0
   37.3960   26.0770   41.5150 C   0  0  0  0  0  0  0  0  0  0  0  0
   36.8740   24.8540   41.9760 C   0  0  0  0  0  0  0  0  0  0  0  0
   37.4430   23.6760   41.5730 N   0  0  0  0  0  0  0  0  0  0  0  0
   38.5090   23.6640   40.7320 C   0  0  0  0  0  0  0  0  0  0  0  0
   39.0270   24.8240   40.2780 N   0  0  0  0  0  0  0  0  0  0  0  0
   38.8710   26.9200   40.3200 H   0  0  0  0  0  0  0  0  0  0  0  0
   36.0240   24.8490   42.6470 H   0  0  0  0  0  0  0  0  0  0  0  0
   38.9580   22.7310   40.4140 H   0  0  0  0  0  0  0  0  0  0  0  0
   37.4190   27.6950   43.2890 C   0  0  0  0  0  0  0  0  0  0  0  0
   37.0840   28.6370   43.7110 H   0  0  0  0  0  0  0  0  0  0  0  0
   36.8160   26.9750   43.9320 H   0  0  0  0  0  0  0  0  0  0  0  0
   38.8250   27.5010   43.4160 C   0  0  0  0  0  0  0  0  0  0  0  0
   39.6760   26.5280   43.8170 C   0  0  0  0  0  0  0  0  0  0  0  0
   41.0570   26.5660   43.8670 C   0  0  0  0  0  0  0  0  0  0  0  0
   41.6080   27.7060   43.4690 N   0  0  0  0  0  0  0  0  0  0  0  0
   40.8610   28.7060   43.0630 C   0  0  0  0  0  0  0  0  0  0  0  0
   39.5450   28.5830   43.0470 N   0  0  0  0  0  0  0  0  0  0  0  0
   39.1310   25.6200   44.1370 H   0  0  0  0  0  0  0  0  0  0  0  0
   41.5340   25.6840   44.2160 H   0  0  0  0  0  0  0  0  0  0  0  0
   41.5670   29.8870   42.6570 N   0  0  0  0  0  0  0  0  0  0  0  0
   42.9260   29.8380   42.5170 C   0  0  0  0  0  3  0  0  0  0  0  0
   43.6500   30.9630   42.1240 C   0  0  0  0  0  0  0  0  0  0  0  0
   44.7290   30.9430   42.0070 H   0  0  0  0  0  0  0  0  0  0  0  0
   42.8890   32.1010   41.8970 C   0  0  0  0  0  0  0  0  0  0  0  0
   43.4420   33.1680   41.5400 O   0  0  0  0  0  0  0  0  0  0  0  0
   41.5610   32.1300   42.0410 N   0  0  0  0  0  0  0  0  0  0  0  0
   40.9070   31.0170   42.4210 C   0  0  0  0  0  0  0  0  0  0  0  0
   39.6410   31.1130   42.5380 O   0  0  0  0  0  0  0  0  0  0  0  0
   41.0250   33.0090   41.8590 H   0  0  0  0  0  0  0  0  0  0  0  0
  1  2  1  1  0  0  0
  1 27  1  0  0  0  0
  3  8  1  0  0  0  0
  3  1  1  0  0  0  0
  4 10  1  0  0  0  0
  4  3  1  0  0  0  0
  5  6  1  0  0  0  0
  5  4  1  0  0  0  0
  6  7  1  0  0  0  0
  7 14  1  0  0  0  0
  7  8  1  0  0  0  0
  8 17  1  0  0  0  0
  8 16  1  0  0  0  0
  9  4  1  0  0  0  0
 11  5  1  0  0  0  0
 12  5  1  0  0  0  0
 13  6  1  0  0  0  0
 15  7  1  0  0  0  0
 18 19  1  0  0  0  0
 19  1  1  0  0  0  0
 19 20  2  0  0  0  0
 20 25  1  0  0  0  0
 21 20  1  0  0  0  0
 22 21  2  0  0  0  0
 23 18  2  0  0  0  0
 23 22  1  0  0  0  0
 24 18  1  0  0  0  0
 26 22  1  0  0  0  0
 27 30  1  0  0  0  0
 27 28  1  0  0  0  0
 27 29  1  0  0  0  0
 30 31  1  0  0  0  0
 31 32  2  0  0  0  0
 31 36  1  0  0  0  0
 32 37  1  0  0  0  0
 33 32  1  0  0  0  0
 34 33  2  0  0  0  0
 35 34  1  0  0  0  0
 35 30  2  0  0  0  0
 38 34  1  0  0  0  0
 39 38  1  0  0  0  0
 40 39  2  0  0  0  0
 41 40  1  0  0  0  0
 42 44  1  0  0  0  0
 42 40  1  0  0  0  0
 43 42  2  0  0  0  0
 44 45  1  0  0  0  0
 45 46  2  0  0  0  0
 45 38  1  0  0  0  0
 47 44  1  0  0  0  0
M  END
>  <minimizedAffinity>
-5.8713913

$$$$

 OpenBabel03252502403D

 47 50  0  0  1  0  0  0  0  0999 V2000
   37.2920   30.4070   39.6460 C   0  0  1  0  0  0  0  0  0  0  0  0
   38.2020   29.7370   39.6060 H   0  0  0  0  0  0  0  0  0  0  0  0
   36.5890   30.1710   38.4150 N   0  0  0  0  0  0  0  0  0  0  0  0
   37.3940   29.5700   37.4200 C   0  0  0  0  0  0  0  0  0  0  0  0
   36.6260   29.7680   36.0990 C   0  0  0  0  0  0  0  0  0  0  0  0
   35.5140   28.9040   36.2140 N   0  0  0  0  0  0  0  0  0  0  0  0
   34.6800   29.1340   37.3080 C   0  0  0  0  0  0  0  0  0  0  0  0
   35.3770   29.4920   38.6120 C   0  0  0  0  0  0  0  0  0  0  0  0
   38.3420   30.1340   37.2980 H   0  0  0  0  0  0  0  0  0  0  0  0
   37.6000   28.4870   37.5450 H   0  0  0  0  0  0  0  0  0  0  0  0
   36.4020   30.8370   35.9840 H   0  0  0  0  0  0  0  0  0  0  0  0
   37.2920   29.4030   35.2830 H   0  0  0  0  0  0  0  0  0  0  0  0
   35.4350   28.1070   35.6180 H   0  0  0  0  0  0  0  0  0  0  0  0
   33.9800   28.2770   37.4340 H   0  0  0  0  0  0  0  0  0  0  0  0
   34.0100   30.0020   37.0430 H   0  0  0  0  0  0  0  0  0  0  0  0
   34.5940   29.8640   39.2300 H   0  0  0  0  0  0  0  0  0  0  0  0
   35.6950   28.4400   38.9030 H   0  0  0  0  0  0  0  0  0  0  0  0
   37.1090   32.8810   39.3910 C   0  0  0  0  0  0  0  0  0  0  0  0
   37.7240   31.7470   39.8940 C   0  0  0  0  0  0  0  0  0  0  0  0
   38.8520   31.9700   40.7060 C   0  0  0  0  0  0  0  0  0  0  0  0
   39.2730   33.2500   40.9500 N   0  0  0  0  0  0  0  0  0  0  0  0
   38.6170   34.3160   40.4220 C   0  0  0  0  0  0  0  0  0  0  0  0
   37.5330   34.1260   39.6410 N   0  0  0  0  0  0  0  0  0  0  0  0
   36.2530   32.6990   38.7780 H   0  0  0  0  0  0  0  0  0  0  0  0
   39.3840   31.1300   41.1340 H   0  0  0  0  0  0  0  0  0  0  0  0
   38.9510   35.3270   40.6160 H   0  0  0  0  0  0  0  0  0  0  0  0
   36.4030   29.9670   40.8170 C   0  0  0  0  0  0  0  0  0  0  0  0
   35.9200   30.7640   41.3730 H   0  0  0  0  0  0  0  0  0  0  0  0
   35.5200   29.6130   40.1910 H   0  0  0  0  0  0  0  0  0  0  0  0
   36.9260   28.9440   41.6590 C   0  0  0  0  0  0  0  0  0  0  0  0
   37.4010   28.8220   42.9200 C   0  0  0  0  0  0  0  0  0  0  0  0
   37.8830   27.6880   43.5470 C   0  0  0  0  0  0  0  0  0  0  0  0
   37.8750   26.5850   42.8100 N   0  0  0  0  0  0  0  0  0  0  0  0
   37.4320   26.6080   41.5740 C   0  0  0  0  0  0  0  0  0  0  0  0
   36.9870   27.7380   41.0530 N   0  0  0  0  0  0  0  0  0  0  0  0
   37.3780   29.7890   43.4580 H   0  0  0  0  0  0  0  0  0  0  0  0
   38.2080   27.8140   44.5500 H   0  0  0  0  0  0  0  0  0  0  0  0
   37.4710   25.3560   40.8740 N   0  0  0  0  0  0  0  0  0  0  0  0
   37.7540   24.2120   41.5670 C   0  0  0  0  0  3  0  0  0  0  0  0
   37.8020   22.9750   40.9250 C   0  0  0  0  0  0  0  0  0  0  0  0
   38.0240   22.0560   41.4580 H   0  0  0  0  0  0  0  0  0  0  0  0
   37.5460   23.0120   39.5620 C   0  0  0  0  0  0  0  0  0  0  0  0
   37.5640   21.9530   38.8890 O   0  0  0  0  0  0  0  0  0  0  0  0
   37.2720   24.1400   38.9020 N   0  0  0  0  0  0  0  0  0  0  0  0
   37.2360   25.3100   39.5670 C   0  0  0  0  0  0  0  0  0  0  0  0
   36.9690   26.3480   38.8770 O   0  0  0  0  0  0  0  0  0  0  0  0
   37.0850   24.1230   37.8740 H   0  0  0  0  0  0  0  0  0  0  0  0
  1  2  1  1  0  0  0
  1 19  1  0  0  0  0
  1 27  1  0  0  0  0
  3  8  1  0  0  0  0
  3  1  1  0  0  0  0
  4 10  1  0  0  0  0
  4  3  1  0  0  0  0
  5  6  1  0  0  0  0
  5  4  1  0  0  0  0
  6  7  1  0  0  0  0
  7 14  1  0  0  0  0
  7  8  1  0  0  0  0
  8 17  1  0  0  0  0
  8 16  1  0  0  0  0
  9  4  1  0  0  0  0
 11  5  1  0  0  0  0
 12  5  1  0  0  0  0
 13  6  1  0  0  0  0
 15  7  1  0  0  0  0
 18 23  2  0  0  0  0
 18 19  1  0  0  0  0
 19 20  2  0  0  0  0
 20 21  1  0  0  0  0
 20 25  1  0  0  0  0
 22 26  1  0  0  0  0
 22 21  2  0  0  0  0
 23 22  1  0  0  0  0
 24 18  1  0  0  0  0
 27 28  1  0  0  0  0
 27 30  1  0  0  0  0
 29 27  1  0  0  0  0
 30 31  1  0  0  0  0
 31 36  1  0  0  0  0
 31 32  2  0  0  0  0
 32 37  1  0  0  0  0
 33 32  1  0  0  0  0
 34 33  2  0  0  0  0
 35 34  1  0  0  0  0
 35 30  2  0  0  0  0
 38 39  1  0  0  0  0
 38 34  1  0  0  0  0
 40 41  1  0  0  0  0
 40 39  2  0  0  0  0
 42 40  1  0  0  0  0
 43 42  2  0  0  0  0
 44 42  1  0  0  0  0
 44 45  1  0  0  0  0
 45 38  1  0  0  0  0
 46 45  2  0  0  0  0
 47 44  1  0  0  0  0
M  END
>  <minimizedAffinity>
-5.86377478

$$$$

 OpenBabel03252502403D

 47 50  0  0  1  0  0  0  0  0999 V2000
   39.8510   30.4990   39.5860 C   0  0  1  0  0  0  0  0  0  0  0  0
   39.1240   29.6960   39.2650 H   0  0  0  0  0  0  0  0  0  0  0  0
   39.1140   31.7310   39.5150 N   0  0  0  0  0  0  0  0  0  0  0  0
   37.7120   31.5430   39.5250 C   0  0  0  0  0  0  0  0  0  0  0  0
   37.1180   32.8800   39.0410 C   0  0  0  0  0  0  0  0  0  0  0  0
   37.3570   33.7710   40.1110 N   0  0  0  0  0  0  0  0  0  0  0  0
   38.6930   33.9300   40.4790 C   0  0  0  0  0  0  0  0  0  0  0  0
   39.5410   32.6670   40.4680 C   0  0  0  0  0  0  0  0  0  0  0  0
   37.4180   30.7950   38.7600 H   0  0  0  0  0  0  0  0  0  0  0  0
   37.2590   31.2940   40.5070 H   0  0  0  0  0  0  0  0  0  0  0  0
   37.5810   33.1390   38.0800 H   0  0  0  0  0  0  0  0  0  0  0  0
   36.0200   32.7220   38.9330 H   0  0  0  0  0  0  0  0  0  0  0  0
   36.5920   34.1380   40.6390 H   0  0  0  0  0  0  0  0  0  0  0  0
   38.7530   34.4620   41.4560 H   0  0  0  0  0  0  0  0  0  0  0  0
   39.1600   34.6480   39.7450 H   0  0  0  0  0  0  0  0  0  0  0  0
   40.5400   33.0270   40.5250 H   0  0  0  0  0  0  0  0  0  0  0  0
   39.1790   32.2380   41.4570 H   0  0  0  0  0  0  0  0  0  0  0  0
   41.1570   30.9520   37.5110 C   0  0  0  0  0  0  0  0  0  0  0  0
   41.0240   30.4030   38.7740 C   0  0  0  0  0  0  0  0  0  0  0  0
   42.1460   29.7080   39.2630 C   0  0  0  0  0  0  0  0  0  0  0  0
   43.2750   29.6110   38.4940 N   0  0  0  0  0  0  0  0  0  0  0  0
   43.3330   30.1760   37.2600 C   0  0  0  0  0  0  0  0  0  0  0  0
   42.2700   30.8480   36.7720 N   0  0  0  0  0  0  0  0  0  0  0  0
   40.3000   31.4780   37.1510 H   0  0  0  0  0  0  0  0  0  0  0  0
   42.1140   29.2520   40.2450 H   0  0  0  0  0  0  0  0  0  0  0  0
   44.2260   30.0990   36.6530 H   0  0  0  0  0  0  0  0  0  0  0  0
   40.2570   30.2490   41.0440 C   0  0  0  0  0  0  0  0  0  0  0  0
   41.3000   30.0030   41.2120 H   0  0  0  0  0  0  0  0  0  0  0  0
   40.2670   31.3400   41.3710 H   0  0  0  0  0  0  0  0  0  0  0  0
   39.3690   29.4490   41.8200 C   0  0  0  0  0  0  0  0  0  0  0  0
   38.5570   29.5960   42.8920 C   0  0  0  0  0  0  0  0  0  0  0  0
   37.7630   28.6420   43.5020 C   0  0  0  0  0  0  0  0  0  0  0  0
   37.8110   27.4330   42.9590 N   0  0  0  0  0  0  0  0  0  0  0  0
   38.5720   27.1960   41.9150 C   0  0  0  0  0  0  0  0  0  0  0  0
   39.2990   28.1690   41.3940 N   0  0  0  0  0  0  0  0  0  0  0  0
   38.5840   30.6310   43.2830 H   0  0  0  0  0  0  0  0  0  0  0  0
   37.1990   28.9730   44.3380 H   0  0  0  0  0  0  0  0  0  0  0  0
   38.5430   25.8510   41.4150 N   0  0  0  0  0  0  0  0  0  0  0  0
   37.6070   24.9800   41.8950 C   0  0  0  0  0  3  0  0  0  0  0  0
   37.5440   23.6650   41.4350 C   0  0  0  0  0  0  0  0  0  0  0  0
   36.8080   22.9580   41.8040 H   0  0  0  0  0  0  0  0  0  0  0  0
   38.4920   23.3330   40.4770 C   0  0  0  0  0  0  0  0  0  0  0  0
   38.5230   22.1750   39.9970 O   0  0  0  0  0  0  0  0  0  0  0  0
   39.4000   24.1990   40.0210 N   0  0  0  0  0  0  0  0  0  0  0  0
   39.4190   25.4590   40.4950 C   0  0  0  0  0  0  0  0  0  0  0  0
   40.3120   26.2330   40.0170 O   0  0  0  0  0  0  0  0  0  0  0  0
   40.0970   23.9080   39.2970 H   0  0  0  0  0  0  0  0  0  0  0  0
  1  2  1  6  0  0  0
  1 27  1  0  0  0  0
  3  4  1  0  0  0  0
  3  1  1  0  0  0  0
  3  8  1  0  0  0  0
  4 10  1  0  0  0  0
  5  4  1  0  0  0  0
  5  6  1  0  0  0  0
  6  7  1  0  0  0  0
  6 13  1  0  0  0  0
  7 14  1  0  0  0  0
  8  7  1  0  0  0  0
  8 16  1  0  0  0  0
  8 17  1  0  0  0  0
  9  4  1  0  0  0  0
 11  5  1  0  0  0  0
 12  5  1  0  0  0  0
 15  7  1  0  0  0  0
 18 19  1  0  0  0  0
 19 20  2  0  0  0  0
 19  1  1  0  0  0  0
 20 25  1  0  0  0  0
 21 20  1  0  0  0  0
 22 21  2  0  0  0  0
 23 22  1  0  0  0  0
 23 18  2  0  0  0  0
 24 18  1  0  0  0  0
 26 22  1  0  0  0  0
 27 28  1  0  0  0  0
 27 29  1  0  0  0  0
 27 30  1  0  0  0  0
 30 31  1  0  0  0  0
 31 36  1  0  0  0  0
 31 32  2  0  0  0  0
 32 37  1  0  0  0  0
 33 32  1  0  0  0  0
 34 33  2  0  0  0  0
 35 30  2  0  0  0  0
 35 34  1  0  0  0  0
 38 39  1  0  0  0  0
 38 34  1  0  0  0  0
 40 41  1  0  0  0  0
 40 39  2  0  0  0  0
 42 40  1  0  0  0  0
 43 42  2  0  0  0  0
 44 42  1  0  0  0  0
 44 45  1  0  0  0  0
 45 38  1  0  0  0  0
 46 45  2  0  0  0  0
 47 44  1  0  0  0  0
M  END
>  <minimizedAffinity>
-5.74817705

$$$$

 OpenBabel03252502403D

 47 50  0  0  1  0  0  0  0  0999 V2000
   36.6480   27.3920   39.2760 C   0  0  1  0  0  0  0  0  0  0  0  0
   35.7470   26.7950   38.9450 H   0  0  0  0  0  0  0  0  0  0  0  0
   37.1980   27.9500   38.0710 N   0  0  0  0  0  0  0  0  0  0  0  0
   37.6010   26.9680   37.1360 C   0  0  0  0  0  0  0  0  0  0  0  0
   38.5090   27.7080   36.1340 C   0  0  0  0  0  0  0  0  0  0  0  0
   37.6220   28.5340   35.4090 N   0  0  0  0  0  0  0  0  0  0  0  0
   36.8840   29.4420   36.1690 C   0  0  0  0  0  0  0  0  0  0  0  0
   36.3670   28.9280   37.5040 C   0  0  0  0  0  0  0  0  0  0  0  0
   38.2520   26.2150   37.6240 H   0  0  0  0  0  0  0  0  0  0  0  0
   36.7880   26.4700   36.5690 H   0  0  0  0  0  0  0  0  0  0  0  0
   39.3020   28.2190   36.6950 H   0  0  0  0  0  0  0  0  0  0  0  0
   38.9300   26.9340   35.4510 H   0  0  0  0  0  0  0  0  0  0  0  0
   37.4530   28.3610   34.4400 H   0  0  0  0  0  0  0  0  0  0  0  0
   36.0680   29.8760   35.5470 H   0  0  0  0  0  0  0  0  0  0  0  0
   37.5590   30.3190   36.3910 H   0  0  0  0  0  0  0  0  0  0  0  0
   36.0670   29.8080   38.0200 H   0  0  0  0  0  0  0  0  0  0  0  0
   35.4830   28.3380   37.1020 H   0  0  0  0  0  0  0  0  0  0  0  0
   38.8870   26.5830   40.0160 C   0  0  0  0  0  0  0  0  0  0  0  0
   37.5030   26.5410   40.0410 C   0  0  0  0  0  0  0  0  0  0  0  0
   36.9350   25.5780   40.8950 C   0  0  0  0  0  0  0  0  0  0  0  0
   37.7460   24.7590   41.6340 N   0  0  0  0  0  0  0  0  0  0  0  0
   39.0990   24.8580   41.5570 C   0  0  0  0  0  0  0  0  0  0  0  0
   39.6660   25.7740   40.7460 N   0  0  0  0  0  0  0  0  0  0  0  0
   39.3070   27.3180   39.3650 H   0  0  0  0  0  0  0  0  0  0  0  0
   35.8570   25.4870   40.9660 H   0  0  0  0  0  0  0  0  0  0  0  0
   39.7390   24.2090   42.1420 H   0  0  0  0  0  0  0  0  0  0  0  0
   36.1790   28.5380   40.1820 C   0  0  0  0  0  0  0  0  0  0  0  0
   35.5660   29.2980   39.7090 H   0  0  0  0  0  0  0  0  0  0  0  0
   35.3670   27.9560   40.7280 H   0  0  0  0  0  0  0  0  0  0  0  0
   37.1530   29.0850   41.0670 C   0  0  0  0  0  0  0  0  0  0  0  0
   37.5510   28.9250   42.3500 C   0  0  0  0  0  0  0  0  0  0  0  0
   38.5520   29.5980   43.0260 C   0  0  0  0  0  0  0  0  0  0  0  0
   39.1980   30.5150   42.3170 N   0  0  0  0  0  0  0  0  0  0  0  0
   38.8810   30.7390   41.0620 C   0  0  0  0  0  0  0  0  0  0  0  0
   37.9080   30.0470   40.4930 N   0  0  0  0  0  0  0  0  0  0  0  0
   36.9550   28.1480   42.8660 H   0  0  0  0  0  0  0  0  0  0  0  0
   38.7020   29.3140   44.0380 H   0  0  0  0  0  0  0  0  0  0  0  0
   39.6470   31.7530   40.3970 N   0  0  0  0  0  0  0  0  0  0  0  0
   40.7590   32.2590   41.0090 C   0  0  0  0  0  3  0  0  0  0  0  0
   41.5320   33.2450   40.3970 C   0  0  0  0  0  0  0  0  0  0  0  0
   42.4190   33.6590   40.8670 H   0  0  0  0  0  0  0  0  0  0  0  0
   41.0810   33.6530   39.1490 C   0  0  0  0  0  0  0  0  0  0  0  0
   41.7040   34.5360   38.5120 O   0  0  0  0  0  0  0  0  0  0  0  0
   39.9910   33.1470   38.5670 N   0  0  0  0  0  0  0  0  0  0  0  0
   39.2790   32.1950   39.1980 C   0  0  0  0  0  0  0  0  0  0  0  0
   38.2500   31.7550   38.5870 O   0  0  0  0  0  0  0  0  0  0  0  0
   39.6860   33.4820   37.6250 H   0  0  0  0  0  0  0  0  0  0  0  0
  1  2  1  6  0  0  0
  1 19  1  0  0  0  0
  1 27  1  0  0  0  0
  3  1  1  0  0  0  0
  4  9  1  0  0  0  0
  4  3  1  0  0  0  0
  5 11  1  0  0  0  0
  5  4  1  0  0  0  0
  6  5  1  0  0  0  0
  6  7  1  0  0  0  0
  7 15  1  0  0  0  0
  7  8  1  0  0  0  0
  8 16  1  0  0  0  0
  8  3  1  0  0  0  0
 10  4  1  0  0  0  0
 12  5  1  0  0  0  0
 13  6  1  0  0  0  0
 14  7  1  0  0  0  0
 17  8  1  0  0  0  0
 18 19  2  0  0  0  0
 18 23  1  0  0  0  0
 19 20  1  0  0  0  0
 20 25  1  0  0  0  0
 20 21  2  0  0  0  0
 22 21  1  0  0  0  0
 22 26  1  0  0  0  0
 23 22  2  0  0  0  0
 24 18  1  0  0  0  0
 27 29  1  0  0  0  0
 27 30  1  0  0  0  0
 28 27  1  0  0  0  0
 30 31  1  0  0  0  0
 31 36  1  0  0  0  0
 31 32  2  0  0  0  0
 32 37  1  0  0  0  0
 33 32  1  0  0  0  0
 34 33  2  0  0  0  0
 35 34  1  0  0  0  0
 35 30  2  0  0  0  0
 38 39  1  0  0  0  0
 38 34  1  0  0  0  0
 40 41  1  0  0  0  0
 40 39  2  0  0  0  0
 42 40  1  0  0  0  0
 43 42  2  0  0  0  0
 44 42  1  0  0  0  0
 44 45  1  0  0  0  0
 45 38  1  0  0  0  0
 46 45  2  0  0  0  0
 47 44  1  0  0  0  0
M  END
>  <minimizedAffinity>
-5.64270973

$$$$

 OpenBabel03252502403D

 47 50  0  0  1  0  0  0  0  0999 V2000
   38.5230   30.4210   40.1850 C   0  0  1  0  0  0  0  0  0  0  0  0
   39.6500   30.3280   40.1900 H   0  0  0  0  0  0  0  0  0  0  0  0
   38.2560   31.8300   40.2880 N   0  0  0  0  0  0  0  0  0  0  0  0
   39.4300   32.6190   40.3150 C   0  0  0  0  0  0  0  0  0  0  0  0
   38.9810   34.0000   40.8270 C   0  0  0  0  0  0  0  0  0  0  0  0
   38.2280   34.5360   39.7590 N   0  0  0  0  0  0  0  0  0  0  0  0
   37.1280   33.7790   39.3550 C   0  0  0  0  0  0  0  0  0  0  0  0
   37.3300   32.2720   39.3310 C   0  0  0  0  0  0  0  0  0  0  0  0
   40.1350   32.2340   41.0800 H   0  0  0  0  0  0  0  0  0  0  0  0
   39.9490   32.7570   39.3440 H   0  0  0  0  0  0  0  0  0  0  0  0
   38.4490   33.8630   41.7780 H   0  0  0  0  0  0  0  0  0  0  0  0
   39.9060   34.6070   40.9640 H   0  0  0  0  0  0  0  0  0  0  0  0
   38.5640   35.3310   39.2570 H   0  0  0  0  0  0  0  0  0  0  0  0
   36.7450   34.1620   38.3820 H   0  0  0  0  0  0  0  0  0  0  0  0
   36.2910   33.9890   40.0830 H   0  0  0  0  0  0  0  0  0  0  0  0
   36.3450   31.8800   39.2500 H   0  0  0  0  0  0  0  0  0  0  0  0
   37.9010   32.2150   38.3490 H   0  0  0  0  0  0  0  0  0  0  0  0
   36.9400   28.7030   41.0550 C   0  0  0  0  0  0  0  0  0  0  0  0
   37.9920   29.5880   41.2170 C   0  0  0  0  0  0  0  0  0  0  0  0
   38.5560   29.6410   42.5060 C   0  0  0  0  0  0  0  0  0  0  0  0
   38.0550   28.8450   43.5020 N   0  0  0  0  0  0  0  0  0  0  0  0
   37.0180   27.9990   43.2680 C   0  0  0  0  0  0  0  0  0  0  0  0
   36.4630   27.9310   42.0400 N   0  0  0  0  0  0  0  0  0  0  0  0
   36.5210   28.6710   40.0730 H   0  0  0  0  0  0  0  0  0  0  0  0
   39.3830   30.3110   42.7070 H   0  0  0  0  0  0  0  0  0  0  0  0
   36.6240   27.3710   44.0560 H   0  0  0  0  0  0  0  0  0  0  0  0
   37.9890   29.9140   38.8390 C   0  0  0  0  0  0  0  0  0  0  0  0
   36.9560   29.5830   38.8310 H   0  0  0  0  0  0  0  0  0  0  0  0
   37.8620   30.9340   38.3500 H   0  0  0  0  0  0  0  0  0  0  0  0
   38.8510   29.0520   38.1000 C   0  0  0  0  0  0  0  0  0  0  0  0
   38.8480   27.7820   37.6330 C   0  0  0  0  0  0  0  0  0  0  0  0
   39.8360   27.1290   36.9220 C   0  0  0  0  0  0  0  0  0  0  0  0
   40.9230   27.8480   36.6690 N   0  0  0  0  0  0  0  0  0  0  0  0
   41.0160   29.0910   37.0830 C   0  0  0  0  0  0  0  0  0  0  0  0
   40.0190   29.6380   37.7590 N   0  0  0  0  0  0  0  0  0  0  0  0
   37.9090   27.2570   37.8950 H   0  0  0  0  0  0  0  0  0  0  0  0
   39.6270   26.1240   36.6500 H   0  0  0  0  0  0  0  0  0  0  0  0
   42.2360   29.7690   36.7520 N   0  0  0  0  0  0  0  0  0  0  0  0
   43.1090   29.1840   35.8790 C   0  0  0  0  0  3  0  0  0  0  0  0
   44.3060   29.8090   35.5310 C   0  0  0  0  0  0  0  0  0  0  0  0
   45.0120   29.3610   34.8390 H   0  0  0  0  0  0  0  0  0  0  0  0
   44.5220   31.0390   36.1350 C   0  0  0  0  0  0  0  0  0  0  0  0
   45.5690   31.6860   35.8900 O   0  0  0  0  0  0  0  0  0  0  0  0
   43.6570   31.5950   36.9870 N   0  0  0  0  0  0  0  0  0  0  0  0
   42.5140   30.9520   37.2910 C   0  0  0  0  0  0  0  0  0  0  0  0
   41.7330   31.5380   38.1100 O   0  0  0  0  0  0  0  0  0  0  0  0
   43.8590   32.5250   37.4200 H   0  0  0  0  0  0  0  0  0  0  0  0
  1  2  1  6  0  0  0
  1  3  1  0  0  0  0
  1 19  1  0  0  0  0
  3  4  1  0  0  0  0
  4  5  1  0  0  0  0
  4  9  1  0  0  0  0
  5 12  1  0  0  0  0
  5 11  1  0  0  0  0
  6  5  1  0  0  0  0
  7  6  1  0  0  0  0
  7 15  1  0  0  0  0
  8  7  1  0  0  0  0
  8  3  1  0  0  0  0
 10  4  1  0  0  0  0
 13  6  1  0  0  0  0
 14  7  1  0  0  0  0
 16  8  1  0  0  0  0
 17  8  1  0  0  0  0
 18 19  2  0  0  0  0
 18 23  1  0  0  0  0
 19 20  1  0  0  0  0
 20 25  1  0  0  0  0
 20 21  2  0  0  0  0
 22 21  1  0  0  0  0
 22 26  1  0  0  0  0
 23 22  2  0  0  0  0
 24 18  1  0  0  0  0
 27  1  1  0  0  0  0
 28 27  1  0  0  0  0
 29 27  1  0  0  0  0
 30 27  1  0  0  0  0
 31 36  1  0  0  0  0
 31 30  2  0  0  0  0
 32 31  1  0  0  0  0
 33 32  2  0  0  0  0
 33 34  1  0  0  0  0
 34 35  2  0  0  0  0
 35 30  1  0  0  0  0
 37 32  1  0  0  0  0
 38 34  1  0  0  0  0
 38 45  1  0  0  0  0
 39 38  1  0  0  0  0
 40 39  2  0  0  0  0
 40 42  1  0  0  0  0
 41 40  1  0  0  0  0
 42 44  1  0  0  0  0
 43 42  2  0  0  0  0
 44 45  1  0  0  0  0
 44 47  1  0  0  0  0
 45 46  2  0  0  0  0
M  END
>  <minimizedAffinity>
-5.64022732

$$$$
