
 OpenBabel03252506303D

 48 52  0  0  0  0  0  0  0  0999 V2000
   38.6140   31.9220   41.0190 C   0  0  0  0  0  0  0  0  0  0  0  0
   37.2980   31.6090   40.6600 C   0  0  0  0  0  0  0  0  0  0  0  0
   36.9370   30.4510   41.2550 C   0  0  0  0  0  0  0  0  0  0  0  0
   37.9980   30.0600   41.9630 N   0  0  0  0  0  0  0  0  0  0  0  0
   39.0090   30.9250   41.8340 N   0  0  0  0  0  0  0  0  0  0  0  0
   36.6750   32.2230   39.9940 H   0  0  0  0  0  0  0  0  0  0  0  0
   35.9680   29.9880   41.1410 H   0  0  0  0  0  0  0  0  0  0  0  0
   39.4660   35.4100   40.3640 C   0  0  0  0  0  0  0  0  0  0  0  0
   40.6970   35.3270   39.7260 C   0  0  0  0  0  0  0  0  0  0  0  0
   41.2280   34.0550   39.5250 C   0  0  0  0  0  0  0  0  0  0  0  0
   40.5100   32.9880   39.9640 N   0  0  0  0  0  0  0  0  0  0  0  0
   39.3400   33.0950   40.5690 C   0  0  0  0  0  0  0  0  0  0  0  0
   38.8150   34.3230   40.7700 N   0  0  0  0  0  0  0  0  0  0  0  0
   39.0880   36.4250   40.5000 H   0  0  0  0  0  0  0  0  0  0  0  0
   41.3050   36.1350   39.3600 H   0  0  0  0  0  0  0  0  0  0  0  0
   42.4880   33.7850   38.8830 N   0  0  0  0  0  0  0  0  0  0  0  0
   43.6810   34.0330   39.4500 C   0  0  0  0  0  3  0  0  0  0  0  0
   44.8610   33.7500   38.7780 C   0  0  0  0  0  0  0  0  0  0  0  0
   45.8170   33.9510   39.2380 H   0  0  0  0  0  0  0  0  0  0  0  0
   44.7790   33.2060   37.5130 C   0  0  0  0  0  0  0  0  0  0  0  0
   45.8070   32.9230   36.8440 O   0  0  0  0  0  0  0  0  0  0  0  0
   43.5470   32.9800   37.0010 N   0  0  0  0  0  0  0  0  0  0  0  0
   42.3840   33.2580   37.6590 C   0  0  0  0  0  0  0  0  0  0  0  0
   41.3370   32.9790   37.0220 O   0  0  0  0  0  0  0  0  0  0  0  0
   43.5330   32.5620   36.0280 H   0  0  0  0  0  0  0  0  0  0  0  0
   38.0810   28.8530   42.7810 C   0  0  0  0  0  0  0  0  0  0  0  0
   38.1610   29.1140   43.8610 H   0  0  0  0  0  0  0  0  0  0  0  0
   38.9740   28.2810   42.5290 H   0  0  0  0  0  0  0  0  0  0  0  0
   36.8780   28.0130   42.6030 C   0  0  0  0  0  0  0  0  0  0  0  0
   36.0100   28.6930   42.3920 H   0  0  0  0  0  0  0  0  0  0  0  0
   36.6260   27.5640   43.5940 H   0  0  0  0  0  0  0  0  0  0  0  0
   36.6200   26.9070   40.3140 C   0  0  0  0  0  0  0  0  0  0  0  0
   36.9530   26.9280   41.6460 C   0  0  0  0  0  0  0  0  0  0  0  0
   37.4420   25.7320   42.1820 C   0  0  0  0  0  0  0  0  0  0  0  0
   37.5810   24.5910   41.4120 C   0  0  0  0  0  0  0  0  0  0  0  0
   38.0090   23.3400   41.6440 N   0  0  0  0  0  0  0  0  0  0  0  0
   37.9500   22.5900   40.5460 C   0  0  0  0  0  0  0  0  0  0  0  0
   37.4540   23.3740   39.5080 C   0  0  0  0  0  0  0  0  0  0  0  0
   37.2430   24.5960   40.0880 C   0  0  0  0  0  0  0  0  0  0  0  0
   36.7590   25.7730   39.5530 C   0  0  0  0  0  0  0  0  0  0  0  0
   36.2460   27.8490   39.9360 H   0  0  0  0  0  0  0  0  0  0  0  0
   37.7450   25.5990   43.2160 H   0  0  0  0  0  0  0  0  0  0  0  0
   38.3530   22.9750   42.5690 H   0  0  0  0  0  0  0  0  0  0  0  0
   38.2170   21.5450   40.3920 H   0  0  0  0  0  0  0  0  0  0  0  0
   37.2860   23.0610   38.4860 H   0  0  0  0  0  0  0  0  0  0  0  0
   36.3880   25.8070   38.1370 C   0  0  0  0  0  0  0  0  0  0  0  0
   35.2000   26.0850   37.7940 O   0  0  0  0  0  0  0  0  0  0  0  0
   37.1150   25.5980   37.3640 H   0  0  0  0  0  0  0  0  0  0  0  0
  1  5  2  0  0  0  0
  2  1  1  0  0  0  0
  2  3  2  0  0  0  0
  3  4  1  0  0  0  0
  4 26  1  0  0  0  0
  5  4  1  0  0  0  0
  6  2  1  0  0  0  0
  7  3  1  0  0  0  0
  8 14  1  0  0  0  0
  8 13  1  0  0  0  0
  9  8  2  0  0  0  0
 10  9  1  0  0  0  0
 10 11  2  0  0  0  0
 11 12  1  0  0  0  0
 12 13  2  0  0  0  0
 12  1  1  0  0  0  0
 15  9  1  0  0  0  0
 16 17  1  0  0  0  0
 16 10  1  0  0  0  0
 18 19  1  0  0  0  0
 18 17  2  0  0  0  0
 20 18  1  0  0  0  0
 21 20  2  0  0  0  0
 22 20  1  0  0  0  0
 22 23  1  0  0  0  0
 23 16  1  0  0  0  0
 24 23  2  0  0  0  0
 25 22  1  0  0  0  0
 26 27  1  0  0  0  0
 28 26  1  0  0  0  0
 29 26  1  0  0  0  0
 29 31  1  0  0  0  0
 30 29  1  0  0  0  0
 32 33  1  0  0  0  0
 33 34  2  0  0  0  0
 33 29  1  0  0  0  0
 34 42  1  0  0  0  0
 35 36  1  0  0  0  0
 35 34  1  0  0  0  0
 36 43  1  0  0  0  0
 37 36  1  0  0  0  0
 38 39  1  0  0  0  0
 38 37  2  0  0  0  0
 39 35  2  0  0  0  0
 40 39  1  0  0  0  0
 40 32  2  0  0  0  0
 41 32  1  0  0  0  0
 44 37  1  0  0  0  0
 45 38  1  0  0  0  0
 46 40  1  0  0  0  0
 47 46  2  0  0  0  0
 48 46  1  0  0  0  0
M  END
>  <minimizedAffinity>
-7.19668579

$$$$

 OpenBabel03252506303D

 48 52  0  0  0  0  0  0  0  0999 V2000
   38.1970   31.5140   38.5250 C   0  0  0  0  0  0  0  0  0  0  0  0
   38.9810   30.5470   37.8840 C   0  0  0  0  0  0  0  0  0  0  0  0
   38.1790   29.5730   37.4010 C   0  0  0  0  0  0  0  0  0  0  0  0
   36.9370   29.9280   37.7320 N   0  0  0  0  0  0  0  0  0  0  0  0
   36.9270   31.0830   38.4030 N   0  0  0  0  0  0  0  0  0  0  0  0
   40.0760   30.5940   37.8010 H   0  0  0  0  0  0  0  0  0  0  0  0
   38.5350   28.7070   36.8630 H   0  0  0  0  0  0  0  0  0  0  0  0
   38.3190   34.7900   40.1290 C   0  0  0  0  0  0  0  0  0  0  0  0
   39.6730   34.9780   40.3780 C   0  0  0  0  0  0  0  0  0  0  0  0
   40.5400   33.9610   39.9870 C   0  0  0  0  0  0  0  0  0  0  0  0
   40.0070   32.8620   39.3910 N   0  0  0  0  0  0  0  0  0  0  0  0
   38.7140   32.7100   39.1660 C   0  0  0  0  0  0  0  0  0  0  0  0
   37.8630   33.6880   39.5410 N   0  0  0  0  0  0  0  0  0  0  0  0
   37.6750   35.6120   40.4520 H   0  0  0  0  0  0  0  0  0  0  0  0
   40.1450   35.8240   40.8440 H   0  0  0  0  0  0  0  0  0  0  0  0
   41.9680   33.9890   40.1670 N   0  0  0  0  0  0  0  0  0  0  0  0
   42.5840   33.6080   41.3000 C   0  0  0  0  0  3  0  0  0  0  0  0
   43.9650   33.6580   41.4100 C   0  0  0  0  0  0  0  0  0  0  0  0
   44.4540   33.3510   42.3230 H   0  0  0  0  0  0  0  0  0  0  0  0
   44.6930   34.1070   40.3280 C   0  0  0  0  0  0  0  0  0  0  0  0
   45.9490   34.1780   40.3550 O   0  0  0  0  0  0  0  0  0  0  0  0
   44.0120   34.4730   39.2170 N   0  0  0  0  0  0  0  0  0  0  0  0
   42.6530   34.4260   39.1050 C   0  0  0  0  0  0  0  0  0  0  0  0
   42.2010   34.8070   37.9960 O   0  0  0  0  0  0  0  0  0  0  0  0
   44.6110   34.8110   38.4120 H   0  0  0  0  0  0  0  0  0  0  0  0
   35.7230   29.1770   37.4200 C   0  0  0  0  0  0  0  0  0  0  0  0
   35.9690   28.2370   36.8770 H   0  0  0  0  0  0  0  0  0  0  0  0
   35.0720   29.7570   36.7660 H   0  0  0  0  0  0  0  0  0  0  0  0
   34.9990   28.8120   38.6560 C   0  0  0  0  0  0  0  0  0  0  0  0
   34.1050   28.1980   38.3640 H   0  0  0  0  0  0  0  0  0  0  0  0
   34.5520   29.7440   39.0780 H   0  0  0  0  0  0  0  0  0  0  0  0
   36.3620   26.9480   39.7520 C   0  0  0  0  0  0  0  0  0  0  0  0
   35.7590   28.1810   39.7170 C   0  0  0  0  0  0  0  0  0  0  0  0
   35.8840   28.9660   40.8680 C   0  0  0  0  0  0  0  0  0  0  0  0
   36.5770   28.5230   41.9800 C   0  0  0  0  0  0  0  0  0  0  0  0
   36.8560   29.0370   43.1880 N   0  0  0  0  0  0  0  0  0  0  0  0
   37.5760   28.1970   43.9260 C   0  0  0  0  0  0  0  0  0  0  0  0
   37.8010   27.0440   43.1790 C   0  0  0  0  0  0  0  0  0  0  0  0
   37.1690   27.2910   41.9900 C   0  0  0  0  0  0  0  0  0  0  0  0
   37.0480   26.5120   40.8570 C   0  0  0  0  0  0  0  0  0  0  0  0
   36.2430   26.3710   38.8440 H   0  0  0  0  0  0  0  0  0  0  0  0
   35.4620   29.9590   40.9850 H   0  0  0  0  0  0  0  0  0  0  0  0
   36.5530   29.9860   43.5310 H   0  0  0  0  0  0  0  0  0  0  0  0
   37.9640   28.3020   44.9390 H   0  0  0  0  0  0  0  0  0  0  0  0
   38.3550   26.1680   43.4930 H   0  0  0  0  0  0  0  0  0  0  0  0
   37.6720   25.1870   40.8400 C   0  0  0  0  0  0  0  0  0  0  0  0
   37.0420   24.1780   41.2800 O   0  0  0  0  0  0  0  0  0  0  0  0
   38.6720   25.0460   40.4550 H   0  0  0  0  0  0  0  0  0  0  0  0
  1 12  1  0  0  0  0
  2  1  1  0  0  0  0
  3  4  1  0  0  0  0
  3  2  2  0  0  0  0
  4  5  1  0  0  0  0
  5  1  2  0  0  0  0
  6  2  1  0  0  0  0
  7  3  1  0  0  0  0
  8  9  1  0  0  0  0
  8 14  1  0  0  0  0
  9 15  1  0  0  0  0
 10 16  1  0  0  0  0
 10  9  2  0  0  0  0
 11 10  1  0  0  0  0
 12 11  2  0  0  0  0
 12 13  1  0  0  0  0
 13  8  2  0  0  0  0
 16 17  1  0  0  0  0
 17 18  2  0  0  0  0
 18 19  1  0  0  0  0
 20 21  2  0  0  0  0
 20 18  1  0  0  0  0
 22 20  1  0  0  0  0
 23 22  1  0  0  0  0
 23 16  1  0  0  0  0
 24 23  2  0  0  0  0
 25 22  1  0  0  0  0
 26  4  1  0  0  0  0
 26 29  1  0  0  0  0
 27 26  1  0  0  0  0
 28 26  1  0  0  0  0
 29 31  1  0  0  0  0
 29 33  1  0  0  0  0
 30 29  1  0  0  0  0
 32 40  1  0  0  0  0
 33 32  2  0  0  0  0
 33 34  1  0  0  0  0
 34 42  1  0  0  0  0
 34 35  2  0  0  0  0
 35 39  1  0  0  0  0
 35 36  1  0  0  0  0
 36 43  1  0  0  0  0
 36 37  1  0  0  0  0
 37 44  1  0  0  0  0
 38 45  1  0  0  0  0
 38 37  2  0  0  0  0
 39 38  1  0  0  0  0
 40 39  2  0  0  0  0
 41 32  1  0  0  0  0
 46 40  1  0  0  0  0
 46 47  2  0  0  0  0
 48 46  1  0  0  0  0
M  END
>  <minimizedAffinity>
-7.19511557

$$$$

 OpenBabel03252506303D

 48 52  0  0  0  0  0  0  0  0999 V2000
   37.9110   31.7650   39.1130 C   0  0  0  0  0  0  0  0  0  0  0  0
   38.2820   30.9800   38.0150 C   0  0  0  0  0  0  0  0  0  0  0  0
   37.4710   29.9010   37.9450 C   0  0  0  0  0  0  0  0  0  0  0  0
   36.6230   30.0170   38.9680 N   0  0  0  0  0  0  0  0  0  0  0  0
   36.8700   31.1230   39.6770 N   0  0  0  0  0  0  0  0  0  0  0  0
   39.1080   31.2220   37.3310 H   0  0  0  0  0  0  0  0  0  0  0  0
   37.5460   29.1350   37.1870 H   0  0  0  0  0  0  0  0  0  0  0  0
   38.3830   35.2340   40.1460 C   0  0  0  0  0  0  0  0  0  0  0  0
   39.7630   35.3570   40.2410 C   0  0  0  0  0  0  0  0  0  0  0  0
   40.5270   34.2300   39.9450 C   0  0  0  0  0  0  0  0  0  0  0  0
   39.8740   33.0940   39.5850 N   0  0  0  0  0  0  0  0  0  0  0  0
   38.5580   33.0040   39.5030 C   0  0  0  0  0  0  0  0  0  0  0  0
   37.8070   34.0900   39.7880 N   0  0  0  0  0  0  0  0  0  0  0  0
   37.8240   36.1410   40.3870 H   0  0  0  0  0  0  0  0  0  0  0  0
   40.3290   36.2280   40.5200 H   0  0  0  0  0  0  0  0  0  0  0  0
   41.9650   34.1800   39.9920 N   0  0  0  0  0  0  0  0  0  0  0  0
   42.6670   34.0020   41.1250 C   0  0  0  0  0  3  0  0  0  0  0  0
   44.0540   33.9620   41.1030 C   0  0  0  0  0  0  0  0  0  0  0  0
   44.6130   33.8190   42.0160 H   0  0  0  0  0  0  0  0  0  0  0  0
   44.6940   34.1080   39.8900 C   0  0  0  0  0  0  0  0  0  0  0  0
   45.9490   34.0820   39.7930 O   0  0  0  0  0  0  0  0  0  0  0  0
   43.9270   34.2830   38.7880 N   0  0  0  0  0  0  0  0  0  0  0  0
   42.5640   34.3230   38.8050 C   0  0  0  0  0  0  0  0  0  0  0  0
   42.0260   34.4930   37.6820 O   0  0  0  0  0  0  0  0  0  0  0  0
   44.4620   34.3900   37.8800 H   0  0  0  0  0  0  0  0  0  0  0  0
   35.5550   29.0790   39.3020 C   0  0  0  0  0  0  0  0  0  0  0  0
   34.8300   28.9910   38.4610 H   0  0  0  0  0  0  0  0  0  0  0  0
   34.9920   29.4310   40.1660 H   0  0  0  0  0  0  0  0  0  0  0  0
   36.1020   27.7320   39.5730 C   0  0  0  0  0  0  0  0  0  0  0  0
   36.6870   27.4090   38.6700 H   0  0  0  0  0  0  0  0  0  0  0  0
   35.2460   27.0160   39.6030 H   0  0  0  0  0  0  0  0  0  0  0  0
   36.6330   28.0530   42.0520 C   0  0  0  0  0  0  0  0  0  0  0  0
   36.8600   27.5490   40.7950 C   0  0  0  0  0  0  0  0  0  0  0  0
   37.9850   26.7320   40.6470 C   0  0  0  0  0  0  0  0  0  0  0  0
   38.8250   26.4490   41.7100 C   0  0  0  0  0  0  0  0  0  0  0  0
   39.9420   25.7220   41.8640 N   0  0  0  0  0  0  0  0  0  0  0  0
   40.3860   25.7640   43.1180 C   0  0  0  0  0  0  0  0  0  0  0  0
   39.5220   26.5650   43.8600 C   0  0  0  0  0  0  0  0  0  0  0  0
   38.5780   26.9630   42.9520 C   0  0  0  0  0  0  0  0  0  0  0  0
   37.4680   27.7700   43.1030 C   0  0  0  0  0  0  0  0  0  0  0  0
   35.7540   28.6800   42.1260 H   0  0  0  0  0  0  0  0  0  0  0  0
   38.2890   26.2650   39.7160 H   0  0  0  0  0  0  0  0  0  0  0  0
   40.4260   25.1770   41.1040 H   0  0  0  0  0  0  0  0  0  0  0  0
   41.2550   25.2920   43.5740 H   0  0  0  0  0  0  0  0  0  0  0  0
   39.6030   26.8000   44.9130 H   0  0  0  0  0  0  0  0  0  0  0  0
   37.1790   28.3350   44.4240 C   0  0  0  0  0  0  0  0  0  0  0  0
   36.2220   27.8790   45.1180 O   0  0  0  0  0  0  0  0  0  0  0  0
   37.7720   29.1450   44.8260 H   0  0  0  0  0  0  0  0  0  0  0  0
  1 12  1  0  0  0  0
  1  5  2  0  0  0  0
  2  1  1  0  0  0  0
  3  2  2  0  0  0  0
  3  4  1  0  0  0  0
  4 26  1  0  0  0  0
  4  5  1  0  0  0  0
  6  2  1  0  0  0  0
  7  3  1  0  0  0  0
  8  9  1  0  0  0  0
  8 14  1  0  0  0  0
  9 15  1  0  0  0  0
 10 16  1  0  0  0  0
 10  9  2  0  0  0  0
 11 10  1  0  0  0  0
 12 11  2  0  0  0  0
 12 13  1  0  0  0  0
 13  8  2  0  0  0  0
 16 17  1  0  0  0  0
 18 17  2  0  0  0  0
 18 19  1  0  0  0  0
 20 18  1  0  0  0  0
 21 20  2  0  0  0  0
 22 23  1  0  0  0  0
 22 20  1  0  0  0  0
 23 16  1  0  0  0  0
 24 23  2  0  0  0  0
 25 22  1  0  0  0  0
 26 29  1  0  0  0  0
 26 28  1  0  0  0  0
 27 26  1  0  0  0  0
 29 31  1  0  0  0  0
 29 33  1  0  0  0  0
 30 29  1  0  0  0  0
 32 41  1  0  0  0  0
 32 40  1  0  0  0  0
 33 32  2  0  0  0  0
 34 33  1  0  0  0  0
 34 35  2  0  0  0  0
 35 36  1  0  0  0  0
 35 39  1  0  0  0  0
 36 37  1  0  0  0  0
 37 44  1  0  0  0  0
 37 38  2  0  0  0  0
 38 45  1  0  0  0  0
 39 40  2  0  0  0  0
 39 38  1  0  0  0  0
 40 46  1  0  0  0  0
 42 34  1  0  0  0  0
 43 36  1  0  0  0  0
 46 48  1  0  0  0  0
 46 47  2  0  0  0  0
M  END
>  <minimizedAffinity>
-7.06888914

$$$$

 OpenBabel03252506303D

 48 52  0  0  0  0  0  0  0  0999 V2000
   39.2870   32.1690   39.3020 C   0  0  0  0  0  0  0  0  0  0  0  0
   38.3630   31.8410   38.3030 C   0  0  0  0  0  0  0  0  0  0  0  0
   37.3220   31.1820   38.8580 C   0  0  0  0  0  0  0  0  0  0  0  0
   37.5930   31.1070   40.1620 N   0  0  0  0  0  0  0  0  0  0  0  0
   38.7620   31.6900   40.4460 N   0  0  0  0  0  0  0  0  0  0  0  0
   38.4860   32.0890   37.2390 H   0  0  0  0  0  0  0  0  0  0  0  0
   36.4700   30.8170   38.3020 H   0  0  0  0  0  0  0  0  0  0  0  0
   42.1230   33.7050   37.5940 C   0  0  0  0  0  0  0  0  0  0  0  0
   42.8840   34.2230   38.6350 C   0  0  0  0  0  0  0  0  0  0  0  0
   42.4070   34.0350   39.9300 C   0  0  0  0  0  0  0  0  0  0  0  0
   41.2370   33.3620   40.0870 N   0  0  0  0  0  0  0  0  0  0  0  0
   40.5320   32.8800   39.0790 C   0  0  0  0  0  0  0  0  0  0  0  0
   40.9840   33.0560   37.8180 N   0  0  0  0  0  0  0  0  0  0  0  0
   42.5340   33.8760   36.5970 H   0  0  0  0  0  0  0  0  0  0  0  0
   43.8130   34.7600   38.5670 H   0  0  0  0  0  0  0  0  0  0  0  0
   43.0660   34.5030   41.1210 N   0  0  0  0  0  0  0  0  0  0  0  0
   44.2320   34.0060   41.5710 C   0  0  0  0  0  3  0  0  0  0  0  0
   44.8160   34.5010   42.7280 C   0  0  0  0  0  0  0  0  0  0  0  0
   45.7530   34.0990   43.0850 H   0  0  0  0  0  0  0  0  0  0  0  0
   44.1720   35.5160   43.4040 C   0  0  0  0  0  0  0  0  0  0  0  0
   44.6430   36.0140   44.4600 O   0  0  0  0  0  0  0  0  0  0  0  0
   43.0030   35.9710   42.8970 N   0  0  0  0  0  0  0  0  0  0  0  0
   42.4240   35.4870   41.7600 C   0  0  0  0  0  0  0  0  0  0  0  0
   41.3380   36.0350   41.4450 O   0  0  0  0  0  0  0  0  0  0  0  0
   42.5440   36.7500   43.4490 H   0  0  0  0  0  0  0  0  0  0  0  0
   36.7500   30.4770   41.1740 C   0  0  0  0  0  0  0  0  0  0  0  0
   35.7960   31.0400   41.2990 H   0  0  0  0  0  0  0  0  0  0  0  0
   37.2460   30.4830   42.1440 H   0  0  0  0  0  0  0  0  0  0  0  0
   36.4120   29.0910   40.7900 C   0  0  0  0  0  0  0  0  0  0  0  0
   36.4550   29.0220   39.6700 H   0  0  0  0  0  0  0  0  0  0  0  0
   35.3320   28.9260   41.0220 H   0  0  0  0  0  0  0  0  0  0  0  0
   36.9480   26.6620   41.3800 C   0  0  0  0  0  0  0  0  0  0  0  0
   37.1560   28.0190   41.4210 C   0  0  0  0  0  0  0  0  0  0  0  0
   38.2450   28.4570   42.1810 C   0  0  0  0  0  0  0  0  0  0  0  0
   39.0670   27.5710   42.8540 C   0  0  0  0  0  0  0  0  0  0  0  0
   40.1510   27.6940   43.6360 N   0  0  0  0  0  0  0  0  0  0  0  0
   40.5920   26.5100   44.0550 C   0  0  0  0  0  0  0  0  0  0  0  0
   39.7610   25.5240   43.5290 C   0  0  0  0  0  0  0  0  0  0  0  0
   38.8390   26.2240   42.7980 C   0  0  0  0  0  0  0  0  0  0  0  0
   37.7650   25.7870   42.0490 C   0  0  0  0  0  0  0  0  0  0  0  0
   36.0970   26.3630   40.7820 H   0  0  0  0  0  0  0  0  0  0  0  0
   38.5320   29.4960   42.3050 H   0  0  0  0  0  0  0  0  0  0  0  0
   40.6130   28.6020   43.8990 H   0  0  0  0  0  0  0  0  0  0  0  0
   41.4370   26.2580   44.6940 H   0  0  0  0  0  0  0  0  0  0  0  0
   39.8490   24.4560   43.6800 H   0  0  0  0  0  0  0  0  0  0  0  0
   37.4960   24.3490   41.9700 C   0  0  0  0  0  0  0  0  0  0  0  0
   37.8950   23.6780   40.9710 O   0  0  0  0  0  0  0  0  0  0  0  0
   36.9570   23.8380   42.7560 H   0  0  0  0  0  0  0  0  0  0  0  0
  1  5  2  0  0  0  0
  2  3  2  0  0  0  0
  2  1  1  0  0  0  0
  3  4  1  0  0  0  0
  4  5  1  0  0  0  0
  4 26  1  0  0  0  0
  6  2  1  0  0  0  0
  7  3  1  0  0  0  0
  8 13  2  0  0  0  0
  8  9  1  0  0  0  0
  9 10  2  0  0  0  0
 10 11  1  0  0  0  0
 10 16  1  0  0  0  0
 12  1  1  0  0  0  0
 12 11  2  0  0  0  0
 13 12  1  0  0  0  0
 14  8  1  0  0  0  0
 15  9  1  0  0  0  0
 16 17  1  0  0  0  0
 16 23  1  0  0  0  0
 17 18  2  0  0  0  0
 18 19  1  0  0  0  0
 18 20  1  0  0  0  0
 20 21  2  0  0  0  0
 22 20  1  0  0  0  0
 22 25  1  0  0  0  0
 23 22  1  0  0  0  0
 24 23  2  0  0  0  0
 26 27  1  0  0  0  0
 26 28  1  0  0  0  0
 29 31  1  0  0  0  0
 29 26  1  0  0  0  0
 29 33  1  0  0  0  0
 30 29  1  0  0  0  0
 32 33  2  0  0  0  0
 32 40  1  0  0  0  0
 33 34  1  0  0  0  0
 34 42  1  0  0  0  0
 34 35  2  0  0  0  0
 35 36  1  0  0  0  0
 36 43  1  0  0  0  0
 36 37  1  0  0  0  0
 37 44  1  0  0  0  0
 38 45  1  0  0  0  0
 38 37  2  0  0  0  0
 39 35  1  0  0  0  0
 39 38  1  0  0  0  0
 40 39  2  0  0  0  0
 41 32  1  0  0  0  0
 46 40  1  0  0  0  0
 46 48  1  0  0  0  0
 47 46  2  0  0  0  0
M  END
>  <minimizedAffinity>
-7.06333876

$$$$

 OpenBabel03252506303D

 48 52  0  0  0  0  0  0  0  0999 V2000
   37.7830   31.8030   39.2280 C   0  0  0  0  0  0  0  0  0  0  0  0
   37.6330   31.3070   37.9270 C   0  0  0  0  0  0  0  0  0  0  0  0
   36.9110   30.1660   37.9670 C   0  0  0  0  0  0  0  0  0  0  0  0
   36.6220   29.9630   39.2530 N   0  0  0  0  0  0  0  0  0  0  0  0
   37.1340   30.9300   40.0210 N   0  0  0  0  0  0  0  0  0  0  0  0
   38.0480   31.7860   37.0290 H   0  0  0  0  0  0  0  0  0  0  0  0
   36.6530   29.5820   37.0960 H   0  0  0  0  0  0  0  0  0  0  0  0
   38.4590   35.2770   40.1200 C   0  0  0  0  0  0  0  0  0  0  0  0
   39.8430   35.3180   40.2320 C   0  0  0  0  0  0  0  0  0  0  0  0
   40.5380   34.1340   39.9970 C   0  0  0  0  0  0  0  0  0  0  0  0
   39.8190   33.0260   39.6750 N   0  0  0  0  0  0  0  0  0  0  0  0
   38.5020   33.0150   39.5750 C   0  0  0  0  0  0  0  0  0  0  0  0
   37.8170   34.1570   39.8010 N   0  0  0  0  0  0  0  0  0  0  0  0
   37.9550   36.2270   40.3120 H   0  0  0  0  0  0  0  0  0  0  0  0
   40.4580   36.1640   40.4830 H   0  0  0  0  0  0  0  0  0  0  0  0
   41.9690   33.9960   40.0690 N   0  0  0  0  0  0  0  0  0  0  0  0
   42.6170   33.5090   41.1420 C   0  0  0  0  0  3  0  0  0  0  0  0
   44.0000   33.4010   41.1490 C   0  0  0  0  0  0  0  0  0  0  0  0
   44.5150   33.0090   42.0140 H   0  0  0  0  0  0  0  0  0  0  0  0
   44.6940   33.8050   40.0280 C   0  0  0  0  0  0  0  0  0  0  0  0
   45.9490   33.7350   39.9620 O   0  0  0  0  0  0  0  0  0  0  0  0
   43.9810   34.2850   38.9820 N   0  0  0  0  0  0  0  0  0  0  0  0
   42.6210   34.3930   38.9710 C   0  0  0  0  0  0  0  0  0  0  0  0
   42.1370   34.8620   37.9110 O   0  0  0  0  0  0  0  0  0  0  0  0
   44.5550   34.5820   38.1440 H   0  0  0  0  0  0  0  0  0  0  0  0
   35.8510   28.8440   39.7890 C   0  0  0  0  0  0  0  0  0  0  0  0
   36.1560   27.8880   39.3060 H   0  0  0  0  0  0  0  0  0  0  0  0
   34.7890   28.9760   39.5830 H   0  0  0  0  0  0  0  0  0  0  0  0
   36.0670   28.7060   41.2450 C   0  0  0  0  0  0  0  0  0  0  0  0
   35.0610   28.6350   41.7390 H   0  0  0  0  0  0  0  0  0  0  0  0
   36.4780   29.6740   41.6220 H   0  0  0  0  0  0  0  0  0  0  0  0
   36.8920   26.3000   41.4920 C   0  0  0  0  0  0  0  0  0  0  0  0
   36.9600   27.6570   41.6940 C   0  0  0  0  0  0  0  0  0  0  0  0
   38.0480   28.1180   42.4420 C   0  0  0  0  0  0  0  0  0  0  0  0
   39.0010   27.2550   42.9520 C   0  0  0  0  0  0  0  0  0  0  0  0
   40.1170   27.4030   43.6820 N   0  0  0  0  0  0  0  0  0  0  0  0
   40.7060   26.2350   43.9230 C   0  0  0  0  0  0  0  0  0  0  0  0
   39.9480   25.2330   43.3220 C   0  0  0  0  0  0  0  0  0  0  0  0
   38.9110   25.9080   42.7370 C   0  0  0  0  0  0  0  0  0  0  0  0
   37.8400   25.4470   41.9990 C   0  0  0  0  0  0  0  0  0  0  0  0
   36.0380   25.9820   40.9090 H   0  0  0  0  0  0  0  0  0  0  0  0
   38.2320   29.1610   42.6820 H   0  0  0  0  0  0  0  0  0  0  0  0
   40.4990   28.3200   44.0330 H   0  0  0  0  0  0  0  0  0  0  0  0
   41.6140   26.0040   44.4780 H   0  0  0  0  0  0  0  0  0  0  0  0
   40.1570   24.1710   43.3310 H   0  0  0  0  0  0  0  0  0  0  0  0
   37.7170   24.0080   41.7530 C   0  0  0  0  0  0  0  0  0  0  0  0
   36.8830   23.5740   40.9030 O   0  0  0  0  0  0  0  0  0  0  0  0
   38.3310   23.2960   42.2880 H   0  0  0  0  0  0  0  0  0  0  0  0
  1 12  1  0  0  0  0
  1  5  2  0  0  0  0
  2  3  2  0  0  0  0
  2  1  1  0  0  0  0
  3  4  1  0  0  0  0
  4 26  1  0  0  0  0
  4  5  1  0  0  0  0
  6  2  1  0  0  0  0
  7  3  1  0  0  0  0
  8  9  1  0  0  0  0
  8 14  1  0  0  0  0
  9 15  1  0  0  0  0
 10 16  1  0  0  0  0
 10  9  2  0  0  0  0
 11 10  1  0  0  0  0
 12 11  2  0  0  0  0
 12 13  1  0  0  0  0
 13  8  2  0  0  0  0
 16 17  1  0  0  0  0
 17 18  2  0  0  0  0
 18 19  1  0  0  0  0
 20 18  1  0  0  0  0
 21 20  2  0  0  0  0
 22 20  1  0  0  0  0
 23 22  1  0  0  0  0
 23 16  1  0  0  0  0
 24 23  2  0  0  0  0
 25 22  1  0  0  0  0
 26 29  1  0  0  0  0
 27 26  1  0  0  0  0
 28 26  1  0  0  0  0
 29 31  1  0  0  0  0
 29 33  1  0  0  0  0
 29 30  1  0  0  0  0
 32 33  2  0  0  0  0
 32 40  1  0  0  0  0
 33 34  1  0  0  0  0
 34 42  1  0  0  0  0
 34 35  2  0  0  0  0
 35 36  1  0  0  0  0
 36 37  1  0  0  0  0
 36 43  1  0  0  0  0
 37 44  1  0  0  0  0
 38 45  1  0  0  0  0
 38 37  2  0  0  0  0
 39 35  1  0  0  0  0
 39 38  1  0  0  0  0
 40 39  2  0  0  0  0
 41 32  1  0  0  0  0
 46 40  1  0  0  0  0
 46 48  1  0  0  0  0
 47 46  2  0  0  0  0
M  END
>  <minimizedAffinity>
-7.05536985

$$$$

 OpenBabel03252506303D

 48 52  0  0  0  0  0  0  0  0999 V2000
   37.6350   32.1090   40.5150 C   0  0  0  0  0  0  0  0  0  0  0  0
   37.0070   32.9480   39.5860 C   0  0  0  0  0  0  0  0  0  0  0  0
   37.6320   34.1460   39.5770 C   0  0  0  0  0  0  0  0  0  0  0  0
   38.6170   34.0500   40.4710 N   0  0  0  0  0  0  0  0  0  0  0  0
   38.6340   32.8410   41.0420 N   0  0  0  0  0  0  0  0  0  0  0  0
   36.1430   32.6580   38.9730 H   0  0  0  0  0  0  0  0  0  0  0  0
   37.3440   34.9750   38.9460 H   0  0  0  0  0  0  0  0  0  0  0  0
   35.5920   29.0960   40.7790 C   0  0  0  0  0  0  0  0  0  0  0  0
   36.4630   28.1630   41.3280 C   0  0  0  0  0  0  0  0  0  0  0  0
   37.7600   28.5860   41.6040 C   0  0  0  0  0  0  0  0  0  0  0  0
   38.0850   29.8750   41.3210 N   0  0  0  0  0  0  0  0  0  0  0  0
   37.2360   30.7420   40.7990 C   0  0  0  0  0  0  0  0  0  0  0  0
   35.9750   30.3440   40.5260 N   0  0  0  0  0  0  0  0  0  0  0  0
   34.5860   28.7210   40.5790 H   0  0  0  0  0  0  0  0  0  0  0  0
   36.2590   27.1350   41.5710 H   0  0  0  0  0  0  0  0  0  0  0  0
   38.7890   27.7550   42.1710 N   0  0  0  0  0  0  0  0  0  0  0  0
   38.8660   27.4520   43.4790 C   0  0  0  0  0  3  0  0  0  0  0  0
   39.8840   26.6440   43.9640 C   0  0  0  0  0  0  0  0  0  0  0  0
   39.9400   26.4050   45.0160 H   0  0  0  0  0  0  0  0  0  0  0  0
   40.8150   26.1570   43.0710 C   0  0  0  0  0  0  0  0  0  0  0  0
   41.7660   25.4190   43.4390 O   0  0  0  0  0  0  0  0  0  0  0  0
   40.6800   26.4990   41.7680 N   0  0  0  0  0  0  0  0  0  0  0  0
   39.6810   27.2940   41.2870 C   0  0  0  0  0  0  0  0  0  0  0  0
   39.7200   27.5000   40.0480 O   0  0  0  0  0  0  0  0  0  0  0  0
   41.4170   26.1020   41.1190 H   0  0  0  0  0  0  0  0  0  0  0  0
   39.5690   35.1040   40.8090 C   0  0  0  0  0  0  0  0  0  0  0  0
   39.9410   34.9790   41.8520 H   0  0  0  0  0  0  0  0  0  0  0  0
   39.0910   36.0820   40.7620 H   0  0  0  0  0  0  0  0  0  0  0  0
   40.7370   35.0700   39.9030 C   0  0  0  0  0  0  0  0  0  0  0  0
   40.6920   35.9800   39.2480 H   0  0  0  0  0  0  0  0  0  0  0  0
   40.5900   34.2240   39.1900 H   0  0  0  0  0  0  0  0  0  0  0  0
   43.1370   34.2050   40.0490 C   0  0  0  0  0  0  0  0  0  0  0  0
   42.0460   34.9040   40.5020 C   0  0  0  0  0  0  0  0  0  0  0  0
   42.1980   35.5670   41.7250 C   0  0  0  0  0  0  0  0  0  0  0  0
   43.3820   35.5180   42.4380 C   0  0  0  0  0  0  0  0  0  0  0  0
   43.8080   36.0350   43.6010 N   0  0  0  0  0  0  0  0  0  0  0  0
   45.0670   35.6900   43.8610 C   0  0  0  0  0  0  0  0  0  0  0  0
   45.5240   34.8910   42.8160 C   0  0  0  0  0  0  0  0  0  0  0  0
   44.4540   34.8140   41.9650 C   0  0  0  0  0  0  0  0  0  0  0  0
   44.3110   34.1580   40.7590 C   0  0  0  0  0  0  0  0  0  0  0  0
   42.9810   33.7070   39.1010 H   0  0  0  0  0  0  0  0  0  0  0  0
   41.4240   36.1570   42.2060 H   0  0  0  0  0  0  0  0  0  0  0  0
   43.2360   36.6420   44.2440 H   0  0  0  0  0  0  0  0  0  0  0  0
   45.7040   35.9370   44.7090 H   0  0  0  0  0  0  0  0  0  0  0  0
   46.5070   34.4480   42.7240 H   0  0  0  0  0  0  0  0  0  0  0  0
   45.4430   33.3960   40.2280 C   0  0  0  0  0  0  0  0  0  0  0  0
   45.4660   32.1330   40.3290 O   0  0  0  0  0  0  0  0  0  0  0  0
   46.2730   33.8940   39.7460 H   0  0  0  0  0  0  0  0  0  0  0  0
  1 12  1  0  0  0  0
  1  5  2  0  0  0  0
  2  1  1  0  0  0  0
  3  2  2  0  0  0  0
  3  4  1  0  0  0  0
  4 26  1  0  0  0  0
  4  5  1  0  0  0  0
  6  2  1  0  0  0  0
  7  3  1  0  0  0  0
  8  9  1  0  0  0  0
  9 15  1  0  0  0  0
  9 10  2  0  0  0  0
 10 16  1  0  0  0  0
 11 10  1  0  0  0  0
 12 11  2  0  0  0  0
 13  8  2  0  0  0  0
 13 12  1  0  0  0  0
 14  8  1  0  0  0  0
 16 17  1  0  0  0  0
 17 18  2  0  0  0  0
 18 19  1  0  0  0  0
 20 21  2  0  0  0  0
 20 18  1  0  0  0  0
 22 20  1  0  0  0  0
 23 22  1  0  0  0  0
 23 16  1  0  0  0  0
 24 23  2  0  0  0  0
 25 22  1  0  0  0  0
 26 27  1  0  0  0  0
 28 26  1  0  0  0  0
 29 33  1  0  0  0  0
 29 26  1  0  0  0  0
 30 29  1  0  0  0  0
 31 29  1  0  0  0  0
 32 33  2  0  0  0  0
 32 40  1  0  0  0  0
 33 34  1  0  0  0  0
 34 42  1  0  0  0  0
 34 35  2  0  0  0  0
 35 36  1  0  0  0  0
 36 37  1  0  0  0  0
 36 43  1  0  0  0  0
 37 44  1  0  0  0  0
 38 37  2  0  0  0  0
 39 35  1  0  0  0  0
 39 38  1  0  0  0  0
 40 39  2  0  0  0  0
 41 32  1  0  0  0  0
 45 38  1  0  0  0  0
 46 47  2  0  0  0  0
 46 40  1  0  0  0  0
 48 46  1  0  0  0  0
M  END
>  <minimizedAffinity>
-7.00496674

$$$$

 OpenBabel03252506303D

 48 52  0  0  0  0  0  0  0  0999 V2000
   37.6120   32.0380   40.5090 C   0  0  0  0  0  0  0  0  0  0  0  0
   37.0470   32.8140   39.4900 C   0  0  0  0  0  0  0  0  0  0  0  0
   37.6130   34.0410   39.4990 C   0  0  0  0  0  0  0  0  0  0  0  0
   38.5020   34.0230   40.4930 N   0  0  0  0  0  0  0  0  0  0  0  0
   38.5160   32.8360   41.1070 N   0  0  0  0  0  0  0  0  0  0  0  0
   36.2650   32.4610   38.8030 H   0  0  0  0  0  0  0  0  0  0  0  0
   37.3530   34.8330   38.8120 H   0  0  0  0  0  0  0  0  0  0  0  0
   35.6510   28.9720   40.7900 C   0  0  0  0  0  0  0  0  0  0  0  0
   36.5460   28.0670   41.3460 C   0  0  0  0  0  0  0  0  0  0  0  0
   37.8310   28.5260   41.6210 C   0  0  0  0  0  0  0  0  0  0  0  0
   38.1210   29.8220   41.3290 N   0  0  0  0  0  0  0  0  0  0  0  0
   37.2500   30.6630   40.8010 C   0  0  0  0  0  0  0  0  0  0  0  0
   36.0000   30.2290   40.5290 N   0  0  0  0  0  0  0  0  0  0  0  0
   34.6550   28.5700   40.5910 H   0  0  0  0  0  0  0  0  0  0  0  0
   36.3690   27.0360   41.5950 H   0  0  0  0  0  0  0  0  0  0  0  0
   38.8810   27.7270   42.1950 N   0  0  0  0  0  0  0  0  0  0  0  0
   39.9510   27.2950   41.5040 C   0  0  0  0  0  3  0  0  0  0  0  0
   40.9310   26.5280   42.1160 C   0  0  0  0  0  0  0  0  0  0  0  0
   41.7880   26.1840   41.5570 H   0  0  0  0  0  0  0  0  0  0  0  0
   40.7810   26.2180   43.4520 C   0  0  0  0  0  0  0  0  0  0  0  0
   41.6290   25.5260   44.0730 O   0  0  0  0  0  0  0  0  0  0  0  0
   39.6810   26.6850   44.0890 N   0  0  0  0  0  0  0  0  0  0  0  0
   38.7150   27.4400   43.4900 C   0  0  0  0  0  0  0  0  0  0  0  0
   37.7690   27.7810   44.2440 O   0  0  0  0  0  0  0  0  0  0  0  0
   39.6080   26.4230   45.1130 H   0  0  0  0  0  0  0  0  0  0  0  0
   39.3640   35.1340   40.8880 C   0  0  0  0  0  0  0  0  0  0  0  0
   40.0080   34.8460   41.7500 H   0  0  0  0  0  0  0  0  0  0  0  0
   38.7660   35.9860   41.2130 H   0  0  0  0  0  0  0  0  0  0  0  0
   40.2490   35.5360   39.7740 C   0  0  0  0  0  0  0  0  0  0  0  0
   40.3120   36.6570   39.7690 H   0  0  0  0  0  0  0  0  0  0  0  0
   39.7230   35.2970   38.8180 H   0  0  0  0  0  0  0  0  0  0  0  0
   42.3920   34.5150   40.7200 C   0  0  0  0  0  0  0  0  0  0  0  0
   41.5610   34.9250   39.7060 C   0  0  0  0  0  0  0  0  0  0  0  0
   42.0310   34.7330   38.4030 C   0  0  0  0  0  0  0  0  0  0  0  0
   43.2660   34.1630   38.1500 C   0  0  0  0  0  0  0  0  0  0  0  0
   43.9600   33.8630   37.0410 N   0  0  0  0  0  0  0  0  0  0  0  0
   45.1340   33.3090   37.3310 C   0  0  0  0  0  0  0  0  0  0  0  0
   45.2470   33.2270   38.7160 C   0  0  0  0  0  0  0  0  0  0  0  0
   44.0750   33.7630   39.1770 C   0  0  0  0  0  0  0  0  0  0  0  0
   43.6160   33.9500   40.4650 C   0  0  0  0  0  0  0  0  0  0  0  0
   41.9940   34.6790   41.7130 H   0  0  0  0  0  0  0  0  0  0  0  0
   41.4860   35.0070   37.5050 H   0  0  0  0  0  0  0  0  0  0  0  0
   43.6360   34.0350   36.0540 H   0  0  0  0  0  0  0  0  0  0  0  0
   45.9270   32.9540   36.6740 H   0  0  0  0  0  0  0  0  0  0  0  0
   46.0830   32.8240   39.2740 H   0  0  0  0  0  0  0  0  0  0  0  0
   44.4620   33.5310   41.5850 C   0  0  0  0  0  0  0  0  0  0  0  0
   44.2960   32.3940   42.1210 O   0  0  0  0  0  0  0  0  0  0  0  0
   45.2370   34.1790   41.9720 H   0  0  0  0  0  0  0  0  0  0  0  0
  1 12  1  0  0  0  0
  1  5  2  0  0  0  0
  2  3  2  0  0  0  0
  2  1  1  0  0  0  0
  3  4  1  0  0  0  0
  4 26  1  0  0  0  0
  4  5  1  0  0  0  0
  6  2  1  0  0  0  0
  7  3  1  0  0  0  0
  8  9  1  0  0  0  0
  9 15  1  0  0  0  0
  9 10  2  0  0  0  0
 10 16  1  0  0  0  0
 11 10  1  0  0  0  0
 12 11  2  0  0  0  0
 13  8  2  0  0  0  0
 13 12  1  0  0  0  0
 14  8  1  0  0  0  0
 16 23  1  0  0  0  0
 17 18  2  0  0  0  0
 17 16  1  0  0  0  0
 18 20  1  0  0  0  0
 19 18  1  0  0  0  0
 20 21  2  0  0  0  0
 20 22  1  0  0  0  0
 22 25  1  0  0  0  0
 23 22  1  0  0  0  0
 23 24  2  0  0  0  0
 26 28  1  0  0  0  0
 26 27  1  0  0  0  0
 29 26  1  0  0  0  0
 30 29  1  0  0  0  0
 31 29  1  0  0  0  0
 32 41  1  0  0  0  0
 33 29  1  0  0  0  0
 33 32  2  0  0  0  0
 34 33  1  0  0  0  0
 35 34  2  0  0  0  0
 35 39  1  0  0  0  0
 36 37  1  0  0  0  0
 36 35  1  0  0  0  0
 37 38  2  0  0  0  0
 38 39  1  0  0  0  0
 38 45  1  0  0  0  0
 39 40  2  0  0  0  0
 40 32  1  0  0  0  0
 40 46  1  0  0  0  0
 42 34  1  0  0  0  0
 43 36  1  0  0  0  0
 44 37  1  0  0  0  0
 46 48  1  0  0  0  0
 46 47  2  0  0  0  0
M  END
>  <minimizedAffinity>
-6.99831867

$$$$

 OpenBabel03252506303D

 48 52  0  0  0  0  0  0  0  0999 V2000
   40.5470   30.7660   41.6770 C   0  0  0  0  0  0  0  0  0  0  0  0
   41.4560   31.3600   42.5610 C   0  0  0  0  0  0  0  0  0  0  0  0
   42.2280   30.4000   43.1160 C   0  0  0  0  0  0  0  0  0  0  0  0
   41.8120   29.2480   42.5890 N   0  0  0  0  0  0  0  0  0  0  0  0
   40.8080   29.4460   41.7280 N   0  0  0  0  0  0  0  0  0  0  0  0
   41.5120   32.4390   42.7580 H   0  0  0  0  0  0  0  0  0  0  0  0
   43.0110   30.5940   43.8350 H   0  0  0  0  0  0  0  0  0  0  0  0
   38.5280   33.4990   40.3450 C   0  0  0  0  0  0  0  0  0  0  0  0
   37.6900   32.8670   39.4340 C   0  0  0  0  0  0  0  0  0  0  0  0
   37.8310   31.4900   39.2860 C   0  0  0  0  0  0  0  0  0  0  0  0
   38.7730   30.8600   40.0380 N   0  0  0  0  0  0  0  0  0  0  0  0
   39.5570   31.4860   40.8980 C   0  0  0  0  0  0  0  0  0  0  0  0
   39.4300   32.8220   41.0500 N   0  0  0  0  0  0  0  0  0  0  0  0
   38.3830   34.5780   40.4290 H   0  0  0  0  0  0  0  0  0  0  0  0
   36.9320   33.3150   38.8170 H   0  0  0  0  0  0  0  0  0  0  0  0
   37.0490   30.6780   38.3910 N   0  0  0  0  0  0  0  0  0  0  0  0
   37.3290   30.5280   37.0840 C   0  0  0  0  0  3  0  0  0  0  0  0
   36.5360   29.7300   36.2740 C   0  0  0  0  0  0  0  0  0  0  0  0
   36.7660   29.6130   35.2250 H   0  0  0  0  0  0  0  0  0  0  0  0
   35.4520   29.0920   36.8420 C   0  0  0  0  0  0  0  0  0  0  0  0
   34.6890   28.3530   36.1680 O   0  0  0  0  0  0  0  0  0  0  0  0
   35.2270   29.2850   38.1620 N   0  0  0  0  0  0  0  0  0  0  0  0
   36.0050   30.0690   38.9630 C   0  0  0  0  0  0  0  0  0  0  0  0
   35.6390   30.1260   40.1640 O   0  0  0  0  0  0  0  0  0  0  0  0
   34.3850   28.7760   38.5550 H   0  0  0  0  0  0  0  0  0  0  0  0
   42.3540   27.9260   42.8900 C   0  0  0  0  0  0  0  0  0  0  0  0
   43.3790   28.0080   43.3180 H   0  0  0  0  0  0  0  0  0  0  0  0
   42.4400   27.3310   41.9810 H   0  0  0  0  0  0  0  0  0  0  0  0
   41.5060   27.2210   43.8750 C   0  0  0  0  0  0  0  0  0  0  0  0
   41.4100   27.8770   44.7800 H   0  0  0  0  0  0  0  0  0  0  0  0
   42.0790   26.3390   44.2480 H   0  0  0  0  0  0  0  0  0  0  0  0
   38.9760   27.3160   43.5290 C   0  0  0  0  0  0  0  0  0  0  0  0
   40.2170   26.7370   43.4240 C   0  0  0  0  0  0  0  0  0  0  0  0
   40.2680   25.4920   42.7900 C   0  0  0  0  0  0  0  0  0  0  0  0
   39.1310   24.8770   42.2960 C   0  0  0  0  0  0  0  0  0  0  0  0
   38.8810   23.7220   41.6610 N   0  0  0  0  0  0  0  0  0  0  0  0
   37.5860   23.5820   41.3870 C   0  0  0  0  0  0  0  0  0  0  0  0
   36.9160   24.7060   41.8630 C   0  0  0  0  0  0  0  0  0  0  0  0
   37.9070   25.4740   42.4130 C   0  0  0  0  0  0  0  0  0  0  0  0
   37.8500   26.7030   43.0380 C   0  0  0  0  0  0  0  0  0  0  0  0
   38.9760   28.2780   44.0250 H   0  0  0  0  0  0  0  0  0  0  0  0
   41.1760   24.9170   42.6340 H   0  0  0  0  0  0  0  0  0  0  0  0
   39.6020   23.0000   41.4010 H   0  0  0  0  0  0  0  0  0  0  0  0
   37.0540   22.7730   40.8880 H   0  0  0  0  0  0  0  0  0  0  0  0
   35.8540   24.9010   41.7980 H   0  0  0  0  0  0  0  0  0  0  0  0
   36.5520   27.3660   43.1780 C   0  0  0  0  0  0  0  0  0  0  0  0
   35.9960   27.4500   44.3140 O   0  0  0  0  0  0  0  0  0  0  0  0
   36.0480   27.7920   42.3210 H   0  0  0  0  0  0  0  0  0  0  0  0
  1  5  2  0  0  0  0
  1  2  1  0  0  0  0
  2  6  1  0  0  0  0
  2  3  2  0  0  0  0
  3  7  1  0  0  0  0
  4 26  1  0  0  0  0
  4  3  1  0  0  0  0
  5  4  1  0  0  0  0
  8 14  1  0  0  0  0
  8 13  1  0  0  0  0
  9  8  2  0  0  0  0
 10  9  1  0  0  0  0
 10 11  2  0  0  0  0
 11 12  1  0  0  0  0
 12 13  2  0  0  0  0
 12  1  1  0  0  0  0
 15  9  1  0  0  0  0
 16 23  1  0  0  0  0
 16 10  1  0  0  0  0
 17 16  1  0  0  0  0
 18 20  1  0  0  0  0
 18 17  2  0  0  0  0
 19 18  1  0  0  0  0
 20 22  1  0  0  0  0
 21 20  2  0  0  0  0
 22 25  1  0  0  0  0
 22 23  1  0  0  0  0
 23 24  2  0  0  0  0
 26 27  1  0  0  0  0
 26 29  1  0  0  0  0
 28 26  1  0  0  0  0
 29 31  1  0  0  0  0
 29 30  1  0  0  0  0
 32 41  1  0  0  0  0
 33 32  1  0  0  0  0
 33 29  1  0  0  0  0
 34 33  2  0  0  0  0
 35 39  2  0  0  0  0
 35 34  1  0  0  0  0
 36 35  1  0  0  0  0
 37 36  1  0  0  0  0
 37 38  2  0  0  0  0
 38 39  1  0  0  0  0
 39 40  1  0  0  0  0
 40 46  1  0  0  0  0
 40 32  2  0  0  0  0
 42 34  1  0  0  0  0
 43 36  1  0  0  0  0
 44 37  1  0  0  0  0
 45 38  1  0  0  0  0
 46 47  2  0  0  0  0
 48 46  1  0  0  0  0
M  END
>  <minimizedAffinity>
-6.68841314

$$$$

 OpenBabel03252506303D

 48 52  0  0  0  0  0  0  0  0999 V2000
   37.2450   27.7510   41.1700 C   0  0  0  0  0  0  0  0  0  0  0  0
   36.2070   27.7330   40.2310 C   0  0  0  0  0  0  0  0  0  0  0  0
   35.8160   29.0000   39.9740 C   0  0  0  0  0  0  0  0  0  0  0  0
   36.5910   29.7800   40.7300 N   0  0  0  0  0  0  0  0  0  0  0  0
   37.4500   29.0520   41.4510 N   0  0  0  0  0  0  0  0  0  0  0  0
   35.7890   26.8180   39.7870 H   0  0  0  0  0  0  0  0  0  0  0  0
   35.0290   29.2630   39.2820 H   0  0  0  0  0  0  0  0  0  0  0  0
   37.8450   24.3120   42.2350 C   0  0  0  0  0  0  0  0  0  0  0  0
   39.1660   24.3330   42.6640 C   0  0  0  0  0  0  0  0  0  0  0  0
   39.8450   25.5460   42.5810 C   0  0  0  0  0  0  0  0  0  0  0  0
   39.1730   26.6210   42.0890 N   0  0  0  0  0  0  0  0  0  0  0  0
   37.9160   26.5730   41.6880 C   0  0  0  0  0  0  0  0  0  0  0  0
   37.2460   25.4020   41.7630 N   0  0  0  0  0  0  0  0  0  0  0  0
   37.3510   23.3410   42.3180 H   0  0  0  0  0  0  0  0  0  0  0  0
   39.7430   23.5160   43.0600 H   0  0  0  0  0  0  0  0  0  0  0  0
   41.2130   25.7480   42.9800 N   0  0  0  0  0  0  0  0  0  0  0  0
   41.5740   26.2660   44.1670 C   0  0  0  0  0  3  0  0  0  0  0  0
   42.9120   26.4350   44.4920 C   0  0  0  0  0  0  0  0  0  0  0  0
   43.1960   26.8530   45.4470 H   0  0  0  0  0  0  0  0  0  0  0  0
   43.8630   26.0560   43.5680 C   0  0  0  0  0  0  0  0  0  0  0  0
   45.0950   26.1800   43.7940 O   0  0  0  0  0  0  0  0  0  0  0  0
   43.4330   25.5400   42.3930 N   0  0  0  0  0  0  0  0  0  0  0  0
   42.1180   25.3730   42.0690 C   0  0  0  0  0  0  0  0  0  0  0  0
   41.9130   24.8780   40.9330 O   0  0  0  0  0  0  0  0  0  0  0  0
   44.1980   25.2640   41.7150 H   0  0  0  0  0  0  0  0  0  0  0  0
   36.5360   31.2380   40.7900 C   0  0  0  0  0  0  0  0  0  0  0  0
   37.2230   31.6260   41.5760 H   0  0  0  0  0  0  0  0  0  0  0  0
   35.5340   31.5730   41.0550 H   0  0  0  0  0  0  0  0  0  0  0  0
   36.9420   31.8330   39.4980 C   0  0  0  0  0  0  0  0  0  0  0  0
   36.0930   32.4680   39.1290 H   0  0  0  0  0  0  0  0  0  0  0  0
   37.0000   31.0090   38.7470 H   0  0  0  0  0  0  0  0  0  0  0  0
   39.3190   32.3080   38.6910 C   0  0  0  0  0  0  0  0  0  0  0  0
   38.2030   32.5450   39.4550 C   0  0  0  0  0  0  0  0  0  0  0  0
   38.2700   33.6340   40.3300 C   0  0  0  0  0  0  0  0  0  0  0  0
   39.3990   34.4270   40.4220 C   0  0  0  0  0  0  0  0  0  0  0  0
   39.7430   35.5030   41.1460 N   0  0  0  0  0  0  0  0  0  0  0  0
   40.9770   35.9130   40.8630 C   0  0  0  0  0  0  0  0  0  0  0  0
   41.5040   35.0680   39.8900 C   0  0  0  0  0  0  0  0  0  0  0  0
   40.4980   34.1710   39.6500 C   0  0  0  0  0  0  0  0  0  0  0  0
   40.4380   33.0980   38.7840 C   0  0  0  0  0  0  0  0  0  0  0  0
   39.2290   31.4590   38.0270 H   0  0  0  0  0  0  0  0  0  0  0  0
   37.4670   33.9410   40.9930 H   0  0  0  0  0  0  0  0  0  0  0  0
   39.1300   35.9820   41.8560 H   0  0  0  0  0  0  0  0  0  0  0  0
   41.5540   36.7440   41.2670 H   0  0  0  0  0  0  0  0  0  0  0  0
   42.4880   35.1310   39.4440 H   0  0  0  0  0  0  0  0  0  0  0  0
   41.6010   32.7990   37.9450 C   0  0  0  0  0  0  0  0  0  0  0  0
   41.4890   32.0190   36.9530 O   0  0  0  0  0  0  0  0  0  0  0  0
   42.5680   33.2350   38.1560 H   0  0  0  0  0  0  0  0  0  0  0  0
  1  5  2  0  0  0  0
  1 12  1  0  0  0  0
  2  1  1  0  0  0  0
  3  2  2  0  0  0  0
  3  4  1  0  0  0  0
  4 26  1  0  0  0  0
  4  5  1  0  0  0  0
  6  2  1  0  0  0  0
  7  3  1  0  0  0  0
  8 14  1  0  0  0  0
  8  9  1  0  0  0  0
  9 15  1  0  0  0  0
 10  9  2  0  0  0  0
 10 16  1  0  0  0  0
 11 10  1  0  0  0  0
 12 13  1  0  0  0  0
 12 11  2  0  0  0  0
 13  8  2  0  0  0  0
 16 17  1  0  0  0  0
 17 18  2  0  0  0  0
 18 19  1  0  0  0  0
 20 21  2  0  0  0  0
 20 18  1  0  0  0  0
 22 20  1  0  0  0  0
 23 22  1  0  0  0  0
 23 16  1  0  0  0  0
 24 23  2  0  0  0  0
 25 22  1  0  0  0  0
 26 28  1  0  0  0  0
 26 27  1  0  0  0  0
 29 26  1  0  0  0  0
 30 29  1  0  0  0  0
 31 29  1  0  0  0  0
 32 40  2  0  0  0  0
 32 33  1  0  0  0  0
 33 29  1  0  0  0  0
 33 34  2  0  0  0  0
 34 35  1  0  0  0  0
 34 42  1  0  0  0  0
 35 36  1  0  0  0  0
 36 43  1  0  0  0  0
 37 36  1  0  0  0  0
 37 44  1  0  0  0  0
 38 37  2  0  0  0  0
 39 38  1  0  0  0  0
 39 35  2  0  0  0  0
 40 39  1  0  0  0  0
 41 32  1  0  0  0  0
 45 38  1  0  0  0  0
 46 48  1  0  0  0  0
 46 40  1  0  0  0  0
 47 46  2  0  0  0  0
M  END
>  <minimizedAffinity>
-6.65635109

$$$$
