
     RDKit          3D

 35 37  0  0  0  0  0  0  0  0999 V2000
   44.8180   35.1501   45.0908 C   0  0  0  0  0  0  0  0  0  0  0  0
   45.7032   34.7811   44.0832 C   0  0  0  0  0  0  0  0  0  0  0  0
   46.5487   33.6782   44.3235 C   0  0  0  0  0  0  0  0  0  0  0  0
   46.4441   33.0507   45.5179 N   0  0  0  0  0  0  0  0  0  0  0  0
   45.5689   33.4479   46.4622 C   0  0  0  0  0  0  0  0  0  0  0  0
   44.7648   34.4828   46.2563 N   0  0  0  0  0  0  0  0  0  0  0  0
   45.7061   35.5715   42.8114 C   0  0  0  0  0  0  0  0  0  0  0  0
   45.2222   36.8081   43.1575 F   0  0  0  0  0  0  0  0  0  0  0  0
   44.8182   34.9290   41.9566 F   0  0  0  0  0  0  0  0  0  0  0  0
   46.9835   35.6104   42.3144 F   0  0  0  0  0  0  0  0  0  0  0  0
   45.4564   32.8081   47.6908 O   0  0  0  0  0  0  0  0  0  0  0  0
   45.2297   31.4218   47.7868 C   0  0  0  0  0  0  0  0  0  0  0  0
   46.5135   30.7723   48.0168 C   0  0  0  0  0  0  0  0  0  0  0  0
   47.0637   29.6531   47.4294 C   0  0  0  0  0  0  0  0  0  0  0  0
   48.3076   29.2300   47.8196 C   0  0  0  0  0  0  0  0  0  0  0  0
   49.0149   29.8738   48.7625 N   0  0  0  0  0  0  0  0  0  0  0  0
   48.4667   30.9649   49.3282 C   0  0  0  0  0  0  0  0  0  0  0  0
   47.2359   31.4252   48.9761 N   0  0  0  0  0  0  0  0  0  0  0  0
   44.1443   35.9938   44.9555 H   0  0  0  0  0  0  0  0  0  0  0  0
   47.2243   33.4048   43.5414 H   0  0  0  0  0  0  0  0  0  0  0  0
   44.4519   31.1588   48.5475 H   0  0  0  0  0  0  0  0  0  0  0  0
   44.8042   31.0903   46.8097 H   0  0  0  0  0  0  0  0  0  0  0  0
   46.4199   29.2124   46.6897 H   0  0  0  0  0  0  0  0  0  0  0  0
   48.6435   28.3446   47.2962 H   0  0  0  0  0  0  0  0  0  0  0  0
   49.2530   31.6327   50.3373 N   0  0  0  0  0  0  0  0  0  0  0  0
   48.9452   31.9403   51.5865 C   0  0  0  0  0  0  0  0  0  0  0  0
   49.8773   32.5874   52.3653 C   0  0  0  0  0  0  0  0  0  0  0  0
   49.5870   32.8206   53.3790 H   0  0  0  0  0  0  0  0  0  0  0  0
   51.1087   32.9062   51.8451 C   0  0  0  0  0  0  0  0  0  0  0  0
   51.9524   33.4992   52.5711 O   0  0  0  0  0  0  0  0  0  0  0  0
   51.3996   32.5825   50.5695 N   0  0  0  0  0  0  0  0  0  0  0  0
   50.4758   31.9491   49.8206 C   0  0  0  0  0  0  0  0  0  0  0  0
   50.8955   31.7140   48.6499 O   0  0  0  0  0  0  0  0  0  0  0  0
   47.9615   31.6371   51.8616 H   0  0  0  0  0  0  0  0  0  0  0  0
   52.3538   32.8562   50.2433 H   0  0  0  0  0  0  0  0  0  0  0  0
  1  6  2  0
  2  3  2  0
  2  1  1  0
  3  4  1  0
  4  5  2  0
  5 11  1  0
  6  5  1  0
  7  8  1  0
  7  2  1  0
  9  7  1  0
 10  7  1  0
 11 12  1  0
 12 13  1  0
 13 18  2  0
 14 15  2  0
 14 13  1  0
 15 16  1  0
 16 17  2  0
 18 17  1  0
  1 19  1  0
  3 20  1  0
 12 21  1  0
 12 22  1  0
 14 23  1  0
 15 24  1  0
 25 26  1  0
 26 27  2  0
 27 28  1  0
 27 29  1  0
 29 30  2  0
 29 31  1  0
 31 32  1  0
 32 33  2  0
 32 25  1  0
 26 34  1  0
 31 35  1  0
 17 25  1  0
M  ISO  7  19  14  20  14  21   8  22   8  23  14  24  14  28  16
M  END
>  <DihAtoms>  (1) 
15,16,24,25

>  <DihDeg>  (1) 
-64.98581081391274

$$$$
