
 OpenBabel03252504093D

 26 27  0  0  0  0  0  0  0  0999 V2000
   45.9220   31.5200   44.6480 C   0  0  0  0  0  0  0  0  0  0  0  0
   46.1480   32.4210   45.6970 C   0  0  0  0  0  0  0  0  0  0  0  0
   45.7460   33.7560   45.5190 C   0  0  0  0  0  0  0  0  0  0  0  0
   45.1630   34.1020   44.3460 N   0  0  0  0  0  0  0  0  0  0  0  0
   44.9620   33.1960   43.3510 C   0  0  0  0  0  0  0  0  0  0  0  0
   45.3390   31.9200   43.5060 N   0  0  0  0  0  0  0  0  0  0  0  0
   45.9120   34.4540   46.3110 H   0  0  0  0  0  0  0  0  0  0  0  0
   44.3430   33.6190   42.1390 N   0  0  0  0  0  0  0  0  0  0  0  0
   43.0090   33.5360   41.9930 C   0  0  0  0  0  3  0  0  0  0  0  0
   42.3510   33.9340   40.8330 C   0  0  0  0  0  0  0  0  0  0  0  0
   41.2740   33.8600   40.7330 H   0  0  0  0  0  0  0  0  0  0  0  0
   43.1840   34.4210   39.8450 C   0  0  0  0  0  0  0  0  0  0  0  0
   42.6260   34.7990   38.7640 O   0  0  0  0  0  0  0  0  0  0  0  0
   44.5180   34.5120   39.9720 N   0  0  0  0  0  0  0  0  0  0  0  0
   45.0860   34.1000   41.1430 C   0  0  0  0  0  0  0  0  0  0  0  0
   46.3340   34.1760   41.2820 O   0  0  0  0  0  0  0  0  0  0  0  0
   45.0840   34.8900   39.1850 H   0  0  0  0  0  0  0  0  0  0  0  0
   46.7960   31.9330   46.9430 C   0  0  0  0  0  0  0  0  0  0  0  0
   45.8940   31.2200   47.7030 F   0  0  0  0  0  0  0  0  0  0  0  0
   47.8160   31.0600   46.5870 F   0  0  0  0  0  0  0  0  0  0  0  0
   47.3120   32.9210   47.7330 F   0  0  0  0  0  0  0  0  0  0  0  0
   46.3120   30.2440   44.8350 O   0  0  0  0  0  0  0  0  0  0  0  0
   45.4860   29.1240   45.0130 C   0  0  0  0  0  0  0  0  0  0  0  0
   44.4370   29.5100   45.8410 F   0  0  0  0  0  0  0  0  0  0  0  0
   45.0730   28.6500   43.7900 F   0  0  0  0  0  0  0  0  0  0  0  0
   46.1630   28.1560   45.7440 F   0  0  0  0  0  0  0  0  0  0  0  0
  1 22  1  0  0  0  0
  1  2  1  0  0  0  0
  2 18  1  0  0  0  0
  3  2  2  0  0  0  0
  3  7  1  0  0  0  0
  4  3  1  0  0  0  0
  5  6  1  0  0  0  0
  5  4  2  0  0  0  0
  6  1  2  0  0  0  0
  8  5  1  0  0  0  0
  9  8  1  0  0  0  0
 10  9  2  0  0  0  0
 11 10  1  0  0  0  0
 12 14  1  0  0  0  0
 12 10  1  0  0  0  0
 13 12  2  0  0  0  0
 14 15  1  0  0  0  0
 15 16  2  0  0  0  0
 15  8  1  0  0  0  0
 17 14  1  0  0  0  0
 18 19  1  0  0  0  0
 18 21  1  0  0  0  0
 20 18  1  0  0  0  0
 22 23  1  0  0  0  0
 23 26  1  0  0  0  0
 23 24  1  0  0  0  0
 25 23  1  0  0  0  0
M  END
>  <minimizedAffinity>
-4.53055525

>  <minimizedRMSD>
6.98667288

$$$$
