
 OpenBabel03252506193D

 24 25  0  0  0  0  0  0  0  0999 V2000
   45.2270   36.1260   43.0220 C   0  0  0  0  0  0  0  0  0  0  0  0
   44.2610   35.7310   42.0780 C   0  0  0  0  0  0  0  0  0  0  0  0
   44.5440   34.6590   41.2430 C   0  0  0  0  0  0  0  0  0  0  0  0
   45.7410   34.0470   41.3810 N   0  0  0  0  0  0  0  0  0  0  0  0
   46.6550   34.4430   42.2950 C   0  0  0  0  0  0  0  0  0  0  0  0
   46.3970   35.4680   43.1030 N   0  0  0  0  0  0  0  0  0  0  0  0
   43.3470   36.2930   42.0620 H   0  0  0  0  0  0  0  0  0  0  0  0
   43.8010   34.3550   40.5160 H   0  0  0  0  0  0  0  0  0  0  0  0
   47.8610   33.6900   42.3070 N   0  0  0  0  0  0  0  0  0  0  0  0
   49.0800   34.2550   42.0750 C   0  0  0  0  0  3  0  0  0  0  0  0
   50.2360   33.4980   42.0930 C   0  0  0  0  0  0  0  0  0  0  0  0
   51.1870   34.0000   41.9020 H   0  0  0  0  0  0  0  0  0  0  0  0
   50.1610   32.1450   42.3500 C   0  0  0  0  0  0  0  0  0  0  0  0
   51.2220   31.4860   42.3600 O   0  0  0  0  0  0  0  0  0  0  0  0
   48.9250   31.6240   42.5750 N   0  0  0  0  0  0  0  0  0  0  0  0
   47.8060   32.3720   42.5550 C   0  0  0  0  0  0  0  0  0  0  0  0
   46.7280   31.7390   42.7840 O   0  0  0  0  0  0  0  0  0  0  0  0
   48.9710   30.5800   42.7630 H   0  0  0  0  0  0  0  0  0  0  0  0
   44.9430   37.2610   43.9170 C   0  0  0  0  0  3  0  0  0  0  0  0
   45.5200   38.4180   43.6170 C   0  0  0  0  0  3  0  0  0  0  0  0
   45.2740   39.6070   44.4840 C   0  0  0  0  0  0  0  0  0  0  0  0
   45.4730   40.5110   43.8430 H   0  0  0  0  0  0  0  0  0  0  0  0
   44.2670   39.6150   44.9250 H   0  0  0  0  0  0  0  0  0  0  0  0
   46.0100   39.5980   45.3110 H   0  0  0  0  0  0  0  0  0  0  0  0
  1  6  1  0  0  0  0
  1 19  1  0  0  0  0
  2  1  2  0  0  0  0
  3  4  2  0  0  0  0
  3  2  1  0  0  0  0
  4  5  1  0  0  0  0
  5  9  1  0  0  0  0
  5  6  2  0  0  0  0
  7  2  1  0  0  0  0
  8  3  1  0  0  0  0
  9 16  1  0  0  0  0
 10 11  2  0  0  0  0
 10  9  1  0  0  0  0
 11 13  1  0  0  0  0
 12 11  1  0  0  0  0
 13 14  2  0  0  0  0
 13 15  1  0  0  0  0
 15 18  1  0  0  0  0
 16 15  1  0  0  0  0
 16 17  2  0  0  0  0
 20 19  2  0  0  0  0
 20 21  1  0  0  0  0
 21 23  1  0  0  0  0
 21 24  1  0  0  0  0
 22 21  1  0  0  0  0
M  END
>  <minimizedAffinity>
-3.88777065

>  <minimizedRMSD>
3.24735785

$$$$
