
 OpenBabel03252502593D

 23 25  0  0  1  0  0  0  0  0999 V2000
   43.7200   33.8820   40.4630 C   0  0  0  0  0  0  0  0  0  0  0  0
   44.5780   33.8920   39.7480 H   0  0  0  0  0  0  0  0  0  0  0  0
   43.7480   32.9430   41.0590 H   0  0  0  0  0  0  0  0  0  0  0  0
   42.4490   34.0170   39.7350 N   0  0  0  0  0  0  0  0  0  0  0  0
   42.2170   33.1920   38.7070 C   0  0  0  0  0  3  0  0  0  0  0  0
   40.9900   33.3940   38.0790 C   0  0  0  0  0  0  0  0  0  0  0  0
   40.7050   32.7650   37.2210 H   0  0  0  0  0  0  0  0  0  0  0  0
   40.1040   34.3850   38.5190 C   0  0  0  0  0  0  0  0  0  0  0  0
   38.9950   34.5860   37.9720 O   0  0  0  0  0  0  0  0  0  0  0  0
   40.4410   35.1620   39.5700 N   0  0  0  0  0  0  0  0  0  0  0  0
   41.6200   34.9860   40.1900 C   0  0  1  0  0  3  0  0  0  0  0  0
   41.9460   35.7080   41.1760 O   0  0  0  0  0  0  0  0  0  0  0  0
   39.7970   35.9130   39.9200 H   0  0  0  0  0  0  0  0  0  0  0  0
   43.8230   35.3470   41.5190 S   0  0  1  0  0  3  0  0  0  0  0  0
   44.2530   35.7450   44.2380 C   0  0  0  0  0  0  0  0  0  0  0  0
   44.4270   34.8810   43.1400 C   0  0  0  0  0  0  0  0  0  0  0  0
   45.0680   33.6670   43.3170 C   0  0  0  0  0  0  0  0  0  0  0  0
   45.5100   33.3610   44.5720 N   0  0  0  0  0  0  0  0  0  0  0  0
   45.3260   34.2080   45.5950 C   0  0  0  0  0  0  0  0  0  0  0  0
   44.7160   35.3790   45.4620 N   0  0  0  0  0  0  0  0  0  0  0  0
   43.7470   36.6740   44.0370 H   0  0  0  0  0  0  0  0  0  0  0  0
   45.2280   32.9600   42.4920 H   0  0  0  0  0  0  0  0  0  0  0  0
   45.6540   34.0200   46.6140 H   0  0  0  0  0  0  0  0  0  0  0  0
  1  3  1  0  0  0  0
  1 14  1  0  0  0  0
  2  1  1  0  0  0  0
  4 11  1  0  0  0  0
  4  1  1  0  0  0  0
  5  4  1  0  0  0  0
  6  8  1  0  0  0  0
  6  5  2  0  0  0  0
  7  6  1  0  0  0  0
  8 10  1  0  0  0  0
  9  8  2  0  0  0  0
 10 13  1  0  0  0  0
 10 11  1  0  0  0  0
 11 12  1  1  0  0  0
 12 14  1  0  0  0  0
 14 16  1  1  0  0  0
 15 20  1  0  0  0  0
 16 17  1  0  0  0  0
 16 15  2  0  0  0  0
 17 18  2  0  0  0  0
 18 19  1  0  0  0  0
 19 23  1  0  0  0  0
 20 19  2  0  0  0  0
 21 15  1  0  0  0  0
 22 17  1  0  0  0  0
M  END
>  <minimizedAffinity>
-4.30497694

>  <minimizedRMSD>
1.85331702

$$$$
