
 OpenBabel03252504103D

 26 27  0  0  0  0  0  0  0  0999 V2000
   46.8630   34.0920   42.8960 C   0  0  0  0  0  0  0  0  0  0  0  0
   45.8450   34.6730   43.6640 C   0  0  0  0  0  0  0  0  0  0  0  0
   45.3600   33.9550   44.7700 C   0  0  0  0  0  0  0  0  0  0  0  0
   45.8990   32.7410   45.0370 N   0  0  0  0  0  0  0  0  0  0  0  0
   46.8870   32.2100   44.2650 C   0  0  0  0  0  0  0  0  0  0  0  0
   47.3600   32.8830   43.2080 N   0  0  0  0  0  0  0  0  0  0  0  0
   44.5840   34.3870   45.3650 H   0  0  0  0  0  0  0  0  0  0  0  0
   47.4150   30.9290   44.5950 N   0  0  0  0  0  0  0  0  0  0  0  0
   46.7760   30.1380   45.4740 C   0  0  0  0  0  3  0  0  0  0  0  0
   47.2450   28.8780   45.8340 C   0  0  0  0  0  0  0  0  0  0  0  0
   46.7150   28.2540   46.5460 H   0  0  0  0  0  0  0  0  0  0  0  0
   48.4200   28.5080   45.2120 C   0  0  0  0  0  0  0  0  0  0  0  0
   48.8870   27.3620   45.5100 O   0  0  0  0  0  0  0  0  0  0  0  0
   49.0740   29.2840   44.3300 N   0  0  0  0  0  0  0  0  0  0  0  0
   48.5470   30.5070   44.0320 C   0  0  0  0  0  0  0  0  0  0  0  0
   49.1420   31.2490   43.2080 O   0  0  0  0  0  0  0  0  0  0  0  0
   49.9550   28.9410   43.8990 H   0  0  0  0  0  0  0  0  0  0  0  0
   45.3260   36.0130   43.2820 C   0  0  0  0  0  0  0  0  0  0  0  0
   46.3650   36.8400   42.9110 F   0  0  0  0  0  0  0  0  0  0  0  0
   44.5050   35.8590   42.1720 F   0  0  0  0  0  0  0  0  0  0  0  0
   44.6240   36.6470   44.2680 F   0  0  0  0  0  0  0  0  0  0  0  0
   47.3170   34.7940   41.8400 O   0  0  0  0  0  0  0  0  0  0  0  0
   48.6510   34.9390   41.4320 C   0  0  0  0  0  0  0  0  0  0  0  0
   49.3880   35.3200   42.5490 F   0  0  0  0  0  0  0  0  0  0  0  0
   49.0930   33.7720   40.8560 F   0  0  0  0  0  0  0  0  0  0  0  0
   48.7590   36.0200   40.5640 F   0  0  0  0  0  0  0  0  0  0  0  0
  1  6  2  0  0  0  0
  1  2  1  0  0  0  0
  2  3  2  0  0  0  0
  3  4  1  0  0  0  0
  3  7  1  0  0  0  0
  5  8  1  0  0  0  0
  5  4  2  0  0  0  0
  6  5  1  0  0  0  0
  8  9  1  0  0  0  0
  9 10  2  0  0  0  0
 10 11  1  0  0  0  0
 12 13  2  0  0  0  0
 12 10  1  0  0  0  0
 14 12  1  0  0  0  0
 15 14  1  0  0  0  0
 15  8  1  0  0  0  0
 16 15  2  0  0  0  0
 17 14  1  0  0  0  0
 18  2  1  0  0  0  0
 18 21  1  0  0  0  0
 19 18  1  0  0  0  0
 20 18  1  0  0  0  0
 22  1  1  0  0  0  0
 23 22  1  0  0  0  0
 23 24  1  0  0  0  0
 25 23  1  0  0  0  0
 26 23  1  0  0  0  0
M  END
>  <minimizedAffinity>
-4.96619701

>  <minimizedRMSD>
1.1520822

$$$$
