
 OpenBabel03252504433D

 46 49  0  0  0  0  0  0  0  0999 V2000
   36.8150   31.6830   40.4160 C   0  0  0  0  0  0  0  0  0  0  0  0
   36.1340   31.7320   39.5390 H   0  0  0  0  0  0  0  0  0  0  0  0
   36.3220   32.2290   41.2440 H   0  0  0  0  0  0  0  0  0  0  0  0
   38.0380   32.4580   40.0450 C   0  0  0  0  0  0  0  0  0  0  0  0
   38.1630   33.8220   40.0020 C   0  0  0  0  0  0  0  0  0  0  0  0
   39.4130   34.0690   39.6250 N   0  0  0  0  0  0  0  0  0  0  0  0
   40.0940   32.9440   39.4260 C   0  0  0  0  0  0  0  0  0  0  0  0
   39.2240   31.9350   39.6920 N   0  0  0  0  0  0  0  0  0  0  0  0
   41.4330   32.6970   39.0260 N   0  0  0  0  0  0  0  0  0  0  0  0
   41.7330   32.6030   37.5960 C   0  0  0  0  0  0  0  0  0  0  0  0
   42.4030   33.9300   37.2540 C   0  0  0  0  0  0  0  0  0  0  0  0
   43.4860   34.2400   38.2610 C   0  0  0  0  0  0  0  0  0  0  0  0
   43.8460   32.9700   39.0200 C   0  0  0  0  0  0  0  0  0  0  0  0
   42.6380   32.5060   39.8030 C   0  0  0  0  0  0  0  0  0  0  0  0
   37.3900   34.5680   40.2290 H   0  0  0  0  0  0  0  0  0  0  0  0
   39.8290   35.0260   39.4950 H   0  0  0  0  0  0  0  0  0  0  0  0
   40.8080   32.4870   37.0080 H   0  0  0  0  0  0  0  0  0  0  0  0
   42.3890   31.7550   37.3530 H   0  0  0  0  0  0  0  0  0  0  0  0
   41.6170   34.7050   37.2480 H   0  0  0  0  0  0  0  0  0  0  0  0
   42.8620   33.8180   36.2510 H   0  0  0  0  0  0  0  0  0  0  0  0
   44.3590   34.7250   37.8300 H   0  0  0  0  0  0  0  0  0  0  0  0
   43.0390   34.9140   39.0220 H   0  0  0  0  0  0  0  0  0  0  0  0
   44.6130   33.2830   39.7760 H   0  0  0  0  0  0  0  0  0  0  0  0
   44.2380   32.1780   38.3590 H   0  0  0  0  0  0  0  0  0  0  0  0
   42.5740   32.9400   40.8070 H   0  0  0  0  0  0  0  0  0  0  0  0
   42.7330   31.3890   39.9430 H   0  0  0  0  0  0  0  0  0  0  0  0
   37.3820   29.9270   42.0390 C   0  0  0  0  0  3  0  0  0  0  0  0
   37.1590   30.3040   40.7890 C   0  0  0  0  0  3  0  0  0  0  0  0
   37.7180   28.5160   42.2770 C   0  0  0  0  0  0  0  0  0  0  0  0
   36.7300   27.5110   42.2610 C   0  0  0  0  0  0  0  0  0  0  0  0
   37.1390   26.2090   42.4970 C   0  0  0  0  0  0  0  0  0  0  0  0
   38.4320   25.9530   42.7280 N   0  0  0  0  0  0  0  0  0  0  0  0
   39.3720   26.9350   42.7410 C   0  0  0  0  0  0  0  0  0  0  0  0
   39.0010   28.1830   42.5180 N   0  0  0  0  0  0  0  0  0  0  0  0
   35.7340   27.8460   42.0650 H   0  0  0  0  0  0  0  0  0  0  0  0
   36.3590   25.4760   42.4750 H   0  0  0  0  0  0  0  0  0  0  0  0
   40.7200   26.5410   42.9990 N   0  0  0  0  0  0  0  0  0  0  0  0
   41.6620   27.4150   43.3920 C   0  0  0  0  0  3  0  0  0  0  0  0
   42.9810   27.0470   43.6480 C   0  0  0  0  0  0  0  0  0  0  0  0
   43.7340   27.7560   43.9640 H   0  0  0  0  0  0  0  0  0  0  0  0
   43.2430   25.7060   43.4640 C   0  0  0  0  0  0  0  0  0  0  0  0
   44.4300   25.2900   43.6790 O   0  0  0  0  0  0  0  0  0  0  0  0
   42.3480   24.7860   43.0740 N   0  0  0  0  0  0  0  0  0  0  0  0
   41.1090   25.2650   42.8580 C   0  0  0  0  0  0  0  0  0  0  0  0
   40.2220   24.4310   42.4870 O   0  0  0  0  0  0  0  0  0  0  0  0
   42.5850   23.7780   42.9460 H   0  0  0  0  0  0  0  0  0  0  0  0
  1 28  1  0  0  0  0
  1  3  1  0  0  0  0
  2  1  1  0  0  0  0
  4  1  1  0  0  0  0
  5  4  2  0  0  0  0
  5 15  1  0  0  0  0
  6  5  1  0  0  0  0
  7  6  1  0  0  0  0
  7  8  2  0  0  0  0
  8  4  1  0  0  0  0
  9  7  1  0  0  0  0
  9 14  1  0  0  0  0
 10  9  1  0  0  0  0
 11 10  1  0  0  0  0
 11 12  1  0  0  0  0
 12 13  1  0  0  0  0
 12 22  1  0  0  0  0
 13 23  1  0  0  0  0
 13 14  1  0  0  0  0
 14 26  1  0  0  0  0
 14 25  1  0  0  0  0
 16  6  1  0  0  0  0
 17 10  1  0  0  0  0
 18 10  1  0  0  0  0
 19 11  1  0  0  0  0
 20 11  1  0  0  0  0
 21 12  1  0  0  0  0
 24 13  1  0  0  0  0
 27 29  1  0  0  0  0
 28 27  2  0  0  0  0
 29 34  1  0  0  0  0
 30 29  2  0  0  0  0
 30 31  1  0  0  0  0
 31 32  2  0  0  0  0
 32 33  1  0  0  0  0
 33 37  1  0  0  0  0
 34 33  2  0  0  0  0
 35 30  1  0  0  0  0
 36 31  1  0  0  0  0
 37 38  1  0  0  0  0
 38 39  2  0  0  0  0
 39 40  1  0  0  0  0
 41 39  1  0  0  0  0
 41 42  2  0  0  0  0
 43 41  1  0  0  0  0
 44 37  1  0  0  0  0
 44 43  1  0  0  0  0
 45 44  2  0  0  0  0
 46 43  1  0  0  0  0
M  END
>  <minimizedAffinity>
-6.89265871

$$$$

 OpenBabel03252504433D

 46 49  0  0  0  0  0  0  0  0999 V2000
   36.8710   32.1140   39.7300 C   0  0  0  0  0  0  0  0  0  0  0  0
   36.4250   32.1100   38.7120 H   0  0  0  0  0  0  0  0  0  0  0  0
   36.2380   32.7690   40.3620 H   0  0  0  0  0  0  0  0  0  0  0  0
   38.2030   32.7800   39.6050 C   0  0  0  0  0  0  0  0  0  0  0  0
   38.5060   34.0760   39.9290 C   0  0  0  0  0  0  0  0  0  0  0  0
   39.7970   34.2350   39.6580 N   0  0  0  0  0  0  0  0  0  0  0  0
   40.3360   33.1170   39.1790 C   0  0  0  0  0  0  0  0  0  0  0  0
   39.3290   32.2050   39.1490 N   0  0  0  0  0  0  0  0  0  0  0  0
   41.6520   32.7960   38.7550 N   0  0  0  0  0  0  0  0  0  0  0  0
   42.0180   33.0390   37.3590 C   0  0  0  0  0  0  0  0  0  0  0  0
   42.8750   34.3010   37.3960 C   0  0  0  0  0  0  0  0  0  0  0  0
   43.9290   34.1820   38.4720 C   0  0  0  0  0  0  0  0  0  0  0  0
   44.0770   32.7200   38.8710 C   0  0  0  0  0  0  0  0  0  0  0  0
   42.7760   32.2420   39.4770 C   0  0  0  0  0  0  0  0  0  0  0  0
   37.8260   34.8380   40.3320 H   0  0  0  0  0  0  0  0  0  0  0  0
   40.3410   35.1240   39.7960 H   0  0  0  0  0  0  0  0  0  0  0  0
   41.1210   33.2110   36.7430 H   0  0  0  0  0  0  0  0  0  0  0  0
   42.5720   32.2010   36.9120 H   0  0  0  0  0  0  0  0  0  0  0  0
   42.1970   35.1540   37.5820 H   0  0  0  0  0  0  0  0  0  0  0  0
   43.3710   34.3920   36.4100 H   0  0  0  0  0  0  0  0  0  0  0  0
   44.8810   34.6350   38.2030 H   0  0  0  0  0  0  0  0  0  0  0  0
   43.5310   34.6890   39.3750 H   0  0  0  0  0  0  0  0  0  0  0  0
   44.8340   32.7130   39.6980 H   0  0  0  0  0  0  0  0  0  0  0  0
   44.3990   32.0810   38.0310 H   0  0  0  0  0  0  0  0  0  0  0  0
   42.7120   32.4030   40.5590 H   0  0  0  0  0  0  0  0  0  0  0  0
   42.7170   31.1250   39.3160 H   0  0  0  0  0  0  0  0  0  0  0  0
   37.3290   30.5380   41.5590 C   0  0  0  0  0  3  0  0  0  0  0  0
   37.0080   30.7650   40.2940 C   0  0  0  0  0  3  0  0  0  0  0  0
   37.4330   29.1400   41.9980 C   0  0  0  0  0  0  0  0  0  0  0  0
   37.8370   28.8070   43.3070 C   0  0  0  0  0  0  0  0  0  0  0  0
   37.9080   27.4630   43.6310 C   0  0  0  0  0  0  0  0  0  0  0  0
   37.5980   26.5420   42.7120 N   0  0  0  0  0  0  0  0  0  0  0  0
   37.2110   26.8800   41.4520 C   0  0  0  0  0  0  0  0  0  0  0  0
   37.1370   28.1580   41.1240 N   0  0  0  0  0  0  0  0  0  0  0  0
   38.0570   29.6350   43.9460 H   0  0  0  0  0  0  0  0  0  0  0  0
   38.2180   27.2520   44.6350 H   0  0  0  0  0  0  0  0  0  0  0  0
   36.9050   25.8120   40.5570 N   0  0  0  0  0  0  0  0  0  0  0  0
   36.8660   25.9780   39.2240 C   0  0  0  0  0  3  0  0  0  0  0  0
   36.5700   24.9460   38.3370 C   0  0  0  0  0  0  0  0  0  0  0  0
   36.5400   25.0870   37.2650 H   0  0  0  0  0  0  0  0  0  0  0  0
   36.3180   23.7320   38.9410 C   0  0  0  0  0  0  0  0  0  0  0  0
   36.0380   22.7360   38.1940 O   0  0  0  0  0  0  0  0  0  0  0  0
   36.3410   23.5020   40.2620 N   0  0  0  0  0  0  0  0  0  0  0  0
   36.6400   24.5780   41.0140 C   0  0  0  0  0  0  0  0  0  0  0  0
   36.6750   24.4120   42.2750 O   0  0  0  0  0  0  0  0  0  0  0  0
   36.1440   22.5680   40.6820 H   0  0  0  0  0  0  0  0  0  0  0  0
  1 28  1  0  0  0  0
  1  3  1  0  0  0  0
  2  1  1  0  0  0  0
  4  1  1  0  0  0  0
  4  5  2  0  0  0  0
  5 15  1  0  0  0  0
  6 16  1  0  0  0  0
  6  5  1  0  0  0  0
  7  6  1  0  0  0  0
  8  7  2  0  0  0  0
  8  4  1  0  0  0  0
  9  7  1  0  0  0  0
  9 14  1  0  0  0  0
 10 11  1  0  0  0  0
 10  9  1  0  0  0  0
 11 19  1  0  0  0  0
 11 12  1  0  0  0  0
 12 13  1  0  0  0  0
 12 22  1  0  0  0  0
 13 14  1  0  0  0  0
 13 23  1  0  0  0  0
 14 25  1  0  0  0  0
 17 10  1  0  0  0  0
 18 10  1  0  0  0  0
 20 11  1  0  0  0  0
 21 12  1  0  0  0  0
 24 13  1  0  0  0  0
 26 14  1  0  0  0  0
 27 29  1  0  0  0  0
 28 27  2  0  0  0  0
 29 30  1  0  0  0  0
 30 31  2  0  0  0  0
 30 35  1  0  0  0  0
 31 36  1  0  0  0  0
 32 31  1  0  0  0  0
 33 32  2  0  0  0  0
 34 33  1  0  0  0  0
 34 29  2  0  0  0  0
 37 44  1  0  0  0  0
 37 33  1  0  0  0  0
 38 37  1  0  0  0  0
 39 41  1  0  0  0  0
 39 38  2  0  0  0  0
 40 39  1  0  0  0  0
 41 43  1  0  0  0  0
 42 41  2  0  0  0  0
 43 46  1  0  0  0  0
 43 44  1  0  0  0  0
 44 45  2  0  0  0  0
M  END
>  <minimizedAffinity>
-6.41868877

$$$$

 OpenBabel03252504433D

 46 49  0  0  0  0  0  0  0  0999 V2000
   38.0790   29.0960   43.3100 C   0  0  0  0  0  0  0  0  0  0  0  0
   38.4430   29.1490   44.3590 H   0  0  0  0  0  0  0  0  0  0  0  0
   36.9840   29.2610   43.3340 H   0  0  0  0  0  0  0  0  0  0  0  0
   38.3030   27.6900   42.8560 C   0  0  0  0  0  0  0  0  0  0  0  0
   39.1770   26.7830   43.3950 C   0  0  0  0  0  0  0  0  0  0  0  0
   39.0440   25.6700   42.6830 N   0  0  0  0  0  0  0  0  0  0  0  0
   38.1360   25.8110   41.7210 C   0  0  0  0  0  0  0  0  0  0  0  0
   37.6730   27.0840   41.8360 N   0  0  0  0  0  0  0  0  0  0  0  0
   37.6520   24.9220   40.7260 N   0  0  0  0  0  0  0  0  0  0  0  0
   38.3490   24.8620   39.4400 C   0  0  0  0  0  0  0  0  0  0  0  0
   39.1540   23.5670   39.4960 C   0  0  0  0  0  0  0  0  0  0  0  0
   38.2750   22.4300   39.9640 C   0  0  0  0  0  0  0  0  0  0  0  0
   36.8140   22.8310   39.8200 C   0  0  0  0  0  0  0  0  0  0  0  0
   36.5340   24.0050   40.7320 C   0  0  0  0  0  0  0  0  0  0  0  0
   39.8570   26.9380   44.2430 H   0  0  0  0  0  0  0  0  0  0  0  0
   39.5810   24.7790   42.8430 H   0  0  0  0  0  0  0  0  0  0  0  0
   39.0290   25.7210   39.3210 H   0  0  0  0  0  0  0  0  0  0  0  0
   37.6610   24.8610   38.5820 H   0  0  0  0  0  0  0  0  0  0  0  0
   40.0030   23.7350   40.1820 H   0  0  0  0  0  0  0  0  0  0  0  0
   39.5070   23.3530   38.4680 H   0  0  0  0  0  0  0  0  0  0  0  0
   38.4920   21.4800   39.4780 H   0  0  0  0  0  0  0  0  0  0  0  0
   38.4380   22.3200   41.0560 H   0  0  0  0  0  0  0  0  0  0  0  0
   36.2270   21.9660   40.2270 H   0  0  0  0  0  0  0  0  0  0  0  0
   36.5330   23.0460   38.7740 H   0  0  0  0  0  0  0  0  0  0  0  0
   36.2260   23.7110   41.7410 H   0  0  0  0  0  0  0  0  0  0  0  0
   35.6690   24.5810   40.2880 H   0  0  0  0  0  0  0  0  0  0  0  0
   38.1630   30.6530   41.4100 C   0  0  0  0  0  3  0  0  0  0  0  0
   38.7630   30.0490   42.4250 C   0  0  0  0  0  3  0  0  0  0  0  0
   38.9610   31.5850   40.6010 C   0  0  0  0  0  0  0  0  0  0  0  0
   38.8550   32.9810   40.7690 C   0  0  0  0  0  0  0  0  0  0  0  0
   39.6460   33.7820   39.9620 C   0  0  0  0  0  0  0  0  0  0  0  0
   40.4660   33.2190   39.0680 N   0  0  0  0  0  0  0  0  0  0  0  0
   40.5550   31.8700   38.9190 C   0  0  0  0  0  0  0  0  0  0  0  0
   39.8090   31.0880   39.6800 N   0  0  0  0  0  0  0  0  0  0  0  0
   38.1630   33.3040   41.5160 H   0  0  0  0  0  0  0  0  0  0  0  0
   39.5360   34.8360   40.1200 H   0  0  0  0  0  0  0  0  0  0  0  0
   41.4650   31.3840   37.9330 N   0  0  0  0  0  0  0  0  0  0  0  0
   41.3920   30.1360   37.4390 C   0  0  0  0  0  3  0  0  0  0  0  0
   42.2720   29.6460   36.4760 C   0  0  0  0  0  0  0  0  0  0  0  0
   42.2070   28.6410   36.0830 H   0  0  0  0  0  0  0  0  0  0  0  0
   43.2300   30.5500   36.0700 C   0  0  0  0  0  0  0  0  0  0  0  0
   44.0750   30.1770   35.1890 O   0  0  0  0  0  0  0  0  0  0  0  0
   43.3560   31.8060   36.5250 N   0  0  0  0  0  0  0  0  0  0  0  0
   42.4470   32.1610   37.4510 C   0  0  0  0  0  0  0  0  0  0  0  0
   42.5230   33.3440   37.9150 O   0  0  0  0  0  0  0  0  0  0  0  0
   44.0960   32.4620   36.1920 H   0  0  0  0  0  0  0  0  0  0  0  0
  1  3  1  0  0  0  0
  1  2  1  0  0  0  0
  4  1  1  0  0  0  0
  4  5  2  0  0  0  0
  5 15  1  0  0  0  0
  6 16  1  0  0  0  0
  6  5  1  0  0  0  0
  7  8  2  0  0  0  0
  7  6  1  0  0  0  0
  8  4  1  0  0  0  0
  9 14  1  0  0  0  0
  9  7  1  0  0  0  0
 10 11  1  0  0  0  0
 10  9  1  0  0  0  0
 11 12  1  0  0  0  0
 11 19  1  0  0  0  0
 12 22  1  0  0  0  0
 13 12  1  0  0  0  0
 13 23  1  0  0  0  0
 13 14  1  0  0  0  0
 14 25  1  0  0  0  0
 17 10  1  0  0  0  0
 18 10  1  0  0  0  0
 20 11  1  0  0  0  0
 21 12  1  0  0  0  0
 24 13  1  0  0  0  0
 26 14  1  0  0  0  0
 27 28  2  0  0  0  0
 28  1  1  0  0  0  0
 29 30  1  0  0  0  0
 29 27  1  0  0  0  0
 30 35  1  0  0  0  0
 31 36  1  0  0  0  0
 31 30  2  0  0  0  0
 32 31  1  0  0  0  0
 33 32  2  0  0  0  0
 33 34  1  0  0  0  0
 34 29  2  0  0  0  0
 37 33  1  0  0  0  0
 38 37  1  0  0  0  0
 39 38  2  0  0  0  0
 40 39  1  0  0  0  0
 41 39  1  0  0  0  0
 41 43  1  0  0  0  0
 42 41  2  0  0  0  0
 43 44  1  0  0  0  0
 44 45  2  0  0  0  0
 44 37  1  0  0  0  0
 46 43  1  0  0  0  0
M  END
>  <minimizedAffinity>
-6.37917757

$$$$

 OpenBabel03252504433D

 46 49  0  0  0  0  0  0  0  0999 V2000
   36.2120   29.6180   37.3560 C   0  0  0  0  0  0  0  0  0  0  0  0
   35.1640   29.9420   37.5310 H   0  0  0  0  0  0  0  0  0  0  0  0
   36.3130   29.4040   36.2740 H   0  0  0  0  0  0  0  0  0  0  0  0
   36.3800   28.3210   38.0790 C   0  0  0  0  0  0  0  0  0  0  0  0
   35.6900   27.1590   37.8480 C   0  0  0  0  0  0  0  0  0  0  0  0
   36.1600   26.2690   38.7150 N   0  0  0  0  0  0  0  0  0  0  0  0
   37.1090   26.7940   39.4860 C   0  0  0  0  0  0  0  0  0  0  0  0
   37.2430   28.0840   39.0790 N   0  0  0  0  0  0  0  0  0  0  0  0
   37.8960   26.2510   40.5350 N   0  0  0  0  0  0  0  0  0  0  0  0
   37.3800   26.3110   41.9030 C   0  0  0  0  0  0  0  0  0  0  0  0
   36.9030   24.8920   42.2000 C   0  0  0  0  0  0  0  0  0  0  0  0
   37.9680   23.8940   41.8080 C   0  0  0  0  0  0  0  0  0  0  0  0
   39.3000   24.6150   41.6530 C   0  0  0  0  0  0  0  0  0  0  0  0
   39.1920   25.6080   40.5180 C   0  0  0  0  0  0  0  0  0  0  0  0
   34.9040   26.9890   37.1010 H   0  0  0  0  0  0  0  0  0  0  0  0
   35.8350   25.2730   38.7980 H   0  0  0  0  0  0  0  0  0  0  0  0
   36.5340   27.0130   41.9720 H   0  0  0  0  0  0  0  0  0  0  0  0
   38.1380   26.6320   42.6310 H   0  0  0  0  0  0  0  0  0  0  0  0
   35.9680   24.7330   41.6340 H   0  0  0  0  0  0  0  0  0  0  0  0
   36.7260   24.8250   43.2910 H   0  0  0  0  0  0  0  0  0  0  0  0
   38.0370   23.0410   42.4810 H   0  0  0  0  0  0  0  0  0  0  0  0
   37.7160   23.5310   40.7910 H   0  0  0  0  0  0  0  0  0  0  0  0
   40.0260   23.8290   41.3190 H   0  0  0  0  0  0  0  0  0  0  0  0
   39.6350   25.0950   42.5890 H   0  0  0  0  0  0  0  0  0  0  0  0
   39.4480   25.1850   39.5400 H   0  0  0  0  0  0  0  0  0  0  0  0
   39.9400   26.4320   40.7150 H   0  0  0  0  0  0  0  0  0  0  0  0
   36.9510   31.4660   38.7980 C   0  0  0  0  0  3  0  0  0  0  0  0
   37.1950   30.6080   37.8190 C   0  0  0  0  0  3  0  0  0  0  0  0
   38.0190   32.4060   39.1650 C   0  0  0  0  0  0  0  0  0  0  0  0
   37.7690   33.5170   39.9970 C   0  0  0  0  0  0  0  0  0  0  0  0
   38.8370   34.3480   40.2890 C   0  0  0  0  0  0  0  0  0  0  0  0
   40.0460   34.0780   39.7840 N   0  0  0  0  0  0  0  0  0  0  0  0
   40.2700   33.0010   38.9830 C   0  0  0  0  0  0  0  0  0  0  0  0
   39.2630   32.1960   38.6930 N   0  0  0  0  0  0  0  0  0  0  0  0
   36.7610   33.6220   40.3340 H   0  0  0  0  0  0  0  0  0  0  0  0
   38.6050   35.1810   40.9230 H   0  0  0  0  0  0  0  0  0  0  0  0
   41.6010   32.8140   38.5040 N   0  0  0  0  0  0  0  0  0  0  0  0
   41.8820   32.0330   37.4470 C   0  0  0  0  0  3  0  0  0  0  0  0
   43.1750   31.8390   36.9660 C   0  0  0  0  0  0  0  0  0  0  0  0
   43.3940   31.2100   36.1150 H   0  0  0  0  0  0  0  0  0  0  0  0
   44.1490   32.5180   37.6670 C   0  0  0  0  0  0  0  0  0  0  0  0
   45.3610   32.3920   37.2880 O   0  0  0  0  0  0  0  0  0  0  0  0
   43.9330   33.3100   38.7280 N   0  0  0  0  0  0  0  0  0  0  0  0
   42.6430   33.4170   39.0960 C   0  0  0  0  0  0  0  0  0  0  0  0
   42.3850   34.1580   40.0980 O   0  0  0  0  0  0  0  0  0  0  0  0
   44.6980   33.8070   39.2330 H   0  0  0  0  0  0  0  0  0  0  0  0
  1  2  1  0  0  0  0
  1 28  1  0  0  0  0
  1  4  1  0  0  0  0
  3  1  1  0  0  0  0
  4  8  1  0  0  0  0
  5  4  2  0  0  0  0
  5  6  1  0  0  0  0
  6 16  1  0  0  0  0
  6  7  1  0  0  0  0
  7  9  1  0  0  0  0
  8  7  2  0  0  0  0
  9 10  1  0  0  0  0
 10 17  1  0  0  0  0
 10 11  1  0  0  0  0
 10 18  1  0  0  0  0
 11 20  1  0  0  0  0
 12 11  1  0  0  0  0
 12 21  1  0  0  0  0
 13 12  1  0  0  0  0
 13 24  1  0  0  0  0
 14  9  1  0  0  0  0
 14 26  1  0  0  0  0
 14 13  1  0  0  0  0
 15  5  1  0  0  0  0
 19 11  1  0  0  0  0
 22 12  1  0  0  0  0
 23 13  1  0  0  0  0
 25 14  1  0  0  0  0
 27 29  1  0  0  0  0
 28 27  2  0  0  0  0
 29 30  1  0  0  0  0
 30 31  2  0  0  0  0
 30 35  1  0  0  0  0
 31 36  1  0  0  0  0
 32 31  1  0  0  0  0
 33 32  2  0  0  0  0
 34 33  1  0  0  0  0
 34 29  2  0  0  0  0
 37 33  1  0  0  0  0
 37 44  1  0  0  0  0
 38 37  1  0  0  0  0
 39 38  2  0  0  0  0
 39 41  1  0  0  0  0
 40 39  1  0  0  0  0
 41 43  1  0  0  0  0
 42 41  2  0  0  0  0
 43 44  1  0  0  0  0
 43 46  1  0  0  0  0
 44 45  2  0  0  0  0
M  END
>  <minimizedAffinity>
-6.34078836

$$$$

 OpenBabel03252504433D

 46 49  0  0  0  0  0  0  0  0999 V2000
   36.9500   32.0880   39.2620 C   0  0  0  0  0  0  0  0  0  0  0  0
   36.3590   32.8630   39.7960 H   0  0  0  0  0  0  0  0  0  0  0  0
   36.4710   31.9330   38.2750 H   0  0  0  0  0  0  0  0  0  0  0  0
   36.7810   30.8200   40.0370 C   0  0  0  0  0  0  0  0  0  0  0  0
   36.1200   30.6690   41.2270 C   0  0  0  0  0  0  0  0  0  0  0  0
   36.2200   29.3830   41.5470 N   0  0  0  0  0  0  0  0  0  0  0  0
   36.9060   28.7050   40.6310 C   0  0  0  0  0  0  0  0  0  0  0  0
   37.2550   29.6140   39.6830 N   0  0  0  0  0  0  0  0  0  0  0  0
   37.2690   27.3360   40.5290 N   0  0  0  0  0  0  0  0  0  0  0  0
   38.5210   26.8950   41.1440 C   0  0  0  0  0  0  0  0  0  0  0  0
   38.0940   26.1700   42.4170 C   0  0  0  0  0  0  0  0  0  0  0  0
   36.9850   25.1900   42.1090 C   0  0  0  0  0  0  0  0  0  0  0  0
   36.9450   24.9310   40.6090 C   0  0  0  0  0  0  0  0  0  0  0  0
   36.6020   26.2200   39.8960 C   0  0  0  0  0  0  0  0  0  0  0  0
   35.6100   31.4470   41.8090 H   0  0  0  0  0  0  0  0  0  0  0  0
   35.8170   28.9400   42.4110 H   0  0  0  0  0  0  0  0  0  0  0  0
   39.1590   27.7570   41.3980 H   0  0  0  0  0  0  0  0  0  0  0  0
   39.1060   26.2310   40.4910 H   0  0  0  0  0  0  0  0  0  0  0  0
   37.7690   26.9380   43.1410 H   0  0  0  0  0  0  0  0  0  0  0  0
   38.9760   25.6140   42.7920 H   0  0  0  0  0  0  0  0  0  0  0  0
   37.0420   24.2700   42.6860 H   0  0  0  0  0  0  0  0  0  0  0  0
   36.0270   25.7000   42.3390 H   0  0  0  0  0  0  0  0  0  0  0  0
   36.0770   24.2390   40.4510 H   0  0  0  0  0  0  0  0  0  0  0  0
   37.8820   24.4880   40.2300 H   0  0  0  0  0  0  0  0  0  0  0  0
   35.5240   26.3780   39.7720 H   0  0  0  0  0  0  0  0  0  0  0  0
   37.0380   26.1580   38.8560 H   0  0  0  0  0  0  0  0  0  0  0  0
   39.1430   32.7070   40.1830 C   0  0  0  0  0  3  0  0  0  0  0  0
   38.3700   32.4440   39.1400 C   0  0  0  0  0  3  0  0  0  0  0  0
   40.5480   33.0510   39.9230 C   0  0  0  0  0  0  0  0  0  0  0  0
   41.1920   34.0920   40.6230 C   0  0  0  0  0  0  0  0  0  0  0  0
   42.5170   34.3450   40.3110 C   0  0  0  0  0  0  0  0  0  0  0  0
   43.1310   33.6100   39.3770 N   0  0  0  0  0  0  0  0  0  0  0  0
   42.4940   32.6100   38.7110 C   0  0  0  0  0  0  0  0  0  0  0  0
   41.2290   32.3540   38.9940 N   0  0  0  0  0  0  0  0  0  0  0  0
   40.5920   34.6030   41.3440 H   0  0  0  0  0  0  0  0  0  0  0  0
   42.9710   35.1430   40.8650 H   0  0  0  0  0  0  0  0  0  0  0  0
   43.2500   31.8950   37.7350 N   0  0  0  0  0  0  0  0  0  0  0  0
   42.6700   31.1530   36.7760 C   0  0  0  0  0  3  0  0  0  0  0  0
   43.3930   30.4490   35.8150 C   0  0  0  0  0  0  0  0  0  0  0  0
   42.9190   29.8550   35.0470 H   0  0  0  0  0  0  0  0  0  0  0  0
   44.7610   30.5750   35.9300 C   0  0  0  0  0  0  0  0  0  0  0  0
   45.4940   29.9590   35.0860 O   0  0  0  0  0  0  0  0  0  0  0  0
   45.4000   31.2970   36.8630 N   0  0  0  0  0  0  0  0  0  0  0  0
   44.5910   31.9310   37.7320 C   0  0  0  0  0  0  0  0  0  0  0  0
   45.1490   32.6310   38.6380 O   0  0  0  0  0  0  0  0  0  0  0  0
   46.4390   31.3680   36.9170 H   0  0  0  0  0  0  0  0  0  0  0  0
  1  2  1  0  0  0  0
  1  4  1  0  0  0  0
  3  1  1  0  0  0  0
  4  5  2  0  0  0  0
  5  6  1  0  0  0  0
  5 15  1  0  0  0  0
  6 16  1  0  0  0  0
  7  6  1  0  0  0  0
  8  4  1  0  0  0  0
  8  7  2  0  0  0  0
  9  7  1  0  0  0  0
  9 10  1  0  0  0  0
 10 17  1  0  0  0  0
 10 11  1  0  0  0  0
 11 20  1  0  0  0  0
 11 19  1  0  0  0  0
 12 22  1  0  0  0  0
 12 11  1  0  0  0  0
 12 21  1  0  0  0  0
 13 12  1  0  0  0  0
 14  9  1  0  0  0  0
 14 13  1  0  0  0  0
 18 10  1  0  0  0  0
 23 13  1  0  0  0  0
 24 13  1  0  0  0  0
 25 14  1  0  0  0  0
 26 14  1  0  0  0  0
 28  1  1  0  0  0  0
 28 27  2  0  0  0  0
 29 27  1  0  0  0  0
 29 30  1  0  0  0  0
 30 35  1  0  0  0  0
 31 30  2  0  0  0  0
 31 36  1  0  0  0  0
 32 31  1  0  0  0  0
 33 34  1  0  0  0  0
 33 32  2  0  0  0  0
 34 29  2  0  0  0  0
 37 33  1  0  0  0  0
 38 37  1  0  0  0  0
 39 41  1  0  0  0  0
 39 38  2  0  0  0  0
 40 39  1  0  0  0  0
 41 43  1  0  0  0  0
 42 41  2  0  0  0  0
 43 46  1  0  0  0  0
 43 44  1  0  0  0  0
 44 37  1  0  0  0  0
 44 45  2  0  0  0  0
M  END
>  <minimizedAffinity>
-6.26699018

$$$$

 OpenBabel03252504433D

 46 49  0  0  0  0  0  0  0  0999 V2000
   36.0330   25.9250   37.9460 C   0  0  0  0  0  0  0  0  0  0  0  0
   36.7290   25.8130   37.0860 H   0  0  0  0  0  0  0  0  0  0  0  0
   35.8470   24.9100   38.3510 H   0  0  0  0  0  0  0  0  0  0  0  0
   34.7400   26.4170   37.3820 C   0  0  0  0  0  0  0  0  0  0  0  0
   33.6870   25.6510   36.9550 C   0  0  0  0  0  0  0  0  0  0  0  0
   32.7560   26.5000   36.5350 N   0  0  0  0  0  0  0  0  0  0  0  0
   33.1510   27.7630   36.6690 C   0  0  0  0  0  0  0  0  0  0  0  0
   34.3990   27.7040   37.2040 N   0  0  0  0  0  0  0  0  0  0  0  0
   32.5200   28.9990   36.3690 N   0  0  0  0  0  0  0  0  0  0  0  0
   32.6820   29.5620   35.0280 C   0  0  0  0  0  0  0  0  0  0  0  0
   31.3540   29.2860   34.3290 C   0  0  0  0  0  0  0  0  0  0  0  0
   30.2040   29.6990   35.2170 C   0  0  0  0  0  0  0  0  0  0  0  0
   30.7190   30.6270   36.3080 C   0  0  0  0  0  0  0  0  0  0  0  0
   31.6950   29.8670   37.1800 C   0  0  0  0  0  0  0  0  0  0  0  0
   33.6190   24.5550   36.9530 H   0  0  0  0  0  0  0  0  0  0  0  0
   31.8190   26.2280   36.1430 H   0  0  0  0  0  0  0  0  0  0  0  0
   33.5020   29.0610   34.4890 H   0  0  0  0  0  0  0  0  0  0  0  0
   32.9030   30.6390   35.0420 H   0  0  0  0  0  0  0  0  0  0  0  0
   31.3220   28.2060   34.0960 H   0  0  0  0  0  0  0  0  0  0  0  0
   31.3350   29.8950   33.4040 H   0  0  0  0  0  0  0  0  0  0  0  0
   29.3630   30.1270   34.6740 H   0  0  0  0  0  0  0  0  0  0  0  0
   29.8610   28.7880   35.7510 H   0  0  0  0  0  0  0  0  0  0  0  0
   29.8290   30.8530   36.9520 H   0  0  0  0  0  0  0  0  0  0  0  0
   31.1630   31.5530   35.9040 H   0  0  0  0  0  0  0  0  0  0  0  0
   31.2190   29.3470   38.0190 H   0  0  0  0  0  0  0  0  0  0  0  0
   32.4040   30.6220   37.6320 H   0  0  0  0  0  0  0  0  0  0  0  0
   36.6670   26.5110   40.2470 C   0  0  0  0  0  3  0  0  0  0  0  0
   36.5450   26.8450   38.9710 C   0  0  0  0  0  3  0  0  0  0  0  0
   37.1920   27.5250   41.1710 C   0  0  0  0  0  0  0  0  0  0  0  0
   37.1630   27.3340   42.5680 C   0  0  0  0  0  0  0  0  0  0  0  0
   37.6800   28.3440   43.3610 C   0  0  0  0  0  0  0  0  0  0  0  0
   38.1790   29.4460   42.7900 N   0  0  0  0  0  0  0  0  0  0  0  0
   38.1990   29.6150   41.4410 C   0  0  0  0  0  0  0  0  0  0  0  0
   37.7100   28.6620   40.6670 N   0  0  0  0  0  0  0  0  0  0  0  0
   36.7380   26.4110   42.8980 H   0  0  0  0  0  0  0  0  0  0  0  0
   37.6390   28.1600   44.4160 H   0  0  0  0  0  0  0  0  0  0  0  0
   38.7570   30.8320   40.9460 N   0  0  0  0  0  0  0  0  0  0  0  0
   38.5180   31.2800   39.7020 C   0  0  0  0  0  3  0  0  0  0  0  0
   39.0540   32.4650   39.2040 C   0  0  0  0  0  0  0  0  0  0  0  0
   38.8570   32.8190   38.2010 H   0  0  0  0  0  0  0  0  0  0  0  0
   39.8550   33.1460   40.0960 C   0  0  0  0  0  0  0  0  0  0  0  0
   40.3840   34.2420   39.7140 O   0  0  0  0  0  0  0  0  0  0  0  0
   40.1320   32.7510   41.3480 N   0  0  0  0  0  0  0  0  0  0  0  0
   39.5550   31.5910   41.7120 C   0  0  0  0  0  0  0  0  0  0  0  0
   39.7860   31.1740   42.8920 O   0  0  0  0  0  0  0  0  0  0  0  0
   40.7440   33.2950   41.9950 H   0  0  0  0  0  0  0  0  0  0  0  0
  1  3  1  0  0  0  0
  1 28  1  0  0  0  0
  2  1  1  0  0  0  0
  4  1  1  0  0  0  0
  5  4  2  0  0  0  0
  6  7  1  0  0  0  0
  6  5  1  0  0  0  0
  7  8  2  0  0  0  0
  8  4  1  0  0  0  0
  9  7  1  0  0  0  0
  9 14  1  0  0  0  0
 10 18  1  0  0  0  0
 10  9  1  0  0  0  0
 11 10  1  0  0  0  0
 11 12  1  0  0  0  0
 12 22  1  0  0  0  0
 12 13  1  0  0  0  0
 13 23  1  0  0  0  0
 13 14  1  0  0  0  0
 14 26  1  0  0  0  0
 14 25  1  0  0  0  0
 15  5  1  0  0  0  0
 16  6  1  0  0  0  0
 17 10  1  0  0  0  0
 19 11  1  0  0  0  0
 20 11  1  0  0  0  0
 21 12  1  0  0  0  0
 24 13  1  0  0  0  0
 27 29  1  0  0  0  0
 28 27  2  0  0  0  0
 29 30  1  0  0  0  0
 30 35  1  0  0  0  0
 30 31  2  0  0  0  0
 31 36  1  0  0  0  0
 32 31  1  0  0  0  0
 33 32  2  0  0  0  0
 34 29  2  0  0  0  0
 34 33  1  0  0  0  0
 37 33  1  0  0  0  0
 37 44  1  0  0  0  0
 38 37  1  0  0  0  0
 39 38  2  0  0  0  0
 39 41  1  0  0  0  0
 40 39  1  0  0  0  0
 41 43  1  0  0  0  0
 42 41  2  0  0  0  0
 43 44  1  0  0  0  0
 43 46  1  0  0  0  0
 44 45  2  0  0  0  0
M  END
>  <minimizedAffinity>
-6.12459803

$$$$

 OpenBabel03252504433D

 46 49  0  0  0  0  0  0  0  0999 V2000
   36.9740   27.2630   42.7560 C   0  0  0  0  0  0  0  0  0  0  0  0
   37.5180   27.0700   43.7060 H   0  0  0  0  0  0  0  0  0  0  0  0
   35.8970   27.3370   43.0050 H   0  0  0  0  0  0  0  0  0  0  0  0
   37.1470   26.0400   41.9140 C   0  0  0  0  0  0  0  0  0  0  0  0
   36.9560   24.7410   42.3050 C   0  0  0  0  0  0  0  0  0  0  0  0
   37.2220   23.9900   41.2420 N   0  0  0  0  0  0  0  0  0  0  0  0
   37.5700   24.7320   40.1950 C   0  0  0  0  0  0  0  0  0  0  0  0
   37.5200   26.0210   40.6240 N   0  0  0  0  0  0  0  0  0  0  0  0
   37.9360   24.3960   38.8650 N   0  0  0  0  0  0  0  0  0  0  0  0
   39.3440   24.1230   38.5720 C   0  0  0  0  0  0  0  0  0  0  0  0
   39.4260   22.6050   38.4470 C   0  0  0  0  0  0  0  0  0  0  0  0
   38.3260   22.0980   37.5430 C   0  0  0  0  0  0  0  0  0  0  0  0
   37.7720   23.2570   36.7270 C   0  0  0  0  0  0  0  0  0  0  0  0
   37.1410   24.2620   37.6650 C   0  0  0  0  0  0  0  0  0  0  0  0
   36.6490   24.3830   43.2960 H   0  0  0  0  0  0  0  0  0  0  0  0
   37.1690   22.9400   41.2130 H   0  0  0  0  0  0  0  0  0  0  0  0
   39.9900   24.4680   39.3960 H   0  0  0  0  0  0  0  0  0  0  0  0
   39.6900   24.6130   37.6510 H   0  0  0  0  0  0  0  0  0  0  0  0
   39.3430   22.1850   39.4650 H   0  0  0  0  0  0  0  0  0  0  0  0
   40.4080   22.3640   37.9940 H   0  0  0  0  0  0  0  0  0  0  0  0
   38.6250   21.2590   36.9190 H   0  0  0  0  0  0  0  0  0  0  0  0
   37.4880   21.7790   38.1970 H   0  0  0  0  0  0  0  0  0  0  0  0
   36.9360   22.8200   36.1200 H   0  0  0  0  0  0  0  0  0  0  0  0
   38.5340   23.7220   36.0780 H   0  0  0  0  0  0  0  0  0  0  0  0
   36.0830   24.0630   37.8710 H   0  0  0  0  0  0  0  0  0  0  0  0
   37.1840   25.2710   37.1590 H   0  0  0  0  0  0  0  0  0  0  0  0
   36.6610   29.3490   41.4960 C   0  0  0  0  0  3  0  0  0  0  0  0
   37.4650   28.4580   42.0560 C   0  0  0  0  0  3  0  0  0  0  0  0
   37.2800   30.5020   40.8260 C   0  0  0  0  0  0  0  0  0  0  0  0
   36.6200   31.1920   39.7880 C   0  0  0  0  0  0  0  0  0  0  0  0
   37.2800   32.2650   39.2150 C   0  0  0  0  0  0  0  0  0  0  0  0
   38.4970   32.6060   39.6530 N   0  0  0  0  0  0  0  0  0  0  0  0
   39.1200   31.9290   40.6550 C   0  0  0  0  0  0  0  0  0  0  0  0
   38.5060   30.9010   41.2150 N   0  0  0  0  0  0  0  0  0  0  0  0
   35.6520   30.8200   39.5310 H   0  0  0  0  0  0  0  0  0  0  0  0
   36.7450   32.7620   38.4310 H   0  0  0  0  0  0  0  0  0  0  0  0
   40.4170   32.3840   41.0390 N   0  0  0  0  0  0  0  0  0  0  0  0
   41.2730   31.6170   41.7350 C   0  0  0  0  0  3  0  0  0  0  0  0
   42.5420   32.0450   42.1160 C   0  0  0  0  0  0  0  0  0  0  0  0
   43.2250   31.4210   42.6760 H   0  0  0  0  0  0  0  0  0  0  0  0
   42.8510   33.3290   41.7200 C   0  0  0  0  0  0  0  0  0  0  0  0
   43.9970   33.7950   42.0320 O   0  0  0  0  0  0  0  0  0  0  0  0
   42.0420   34.1440   41.0270 N   0  0  0  0  0  0  0  0  0  0  0  0
   40.8440   33.6150   40.7170 C   0  0  0  0  0  0  0  0  0  0  0  0
   40.0390   34.3480   40.0580 O   0  0  0  0  0  0  0  0  0  0  0  0
   42.3120   35.1110   40.7450 H   0  0  0  0  0  0  0  0  0  0  0  0
  1  3  1  0  0  0  0
  1  2  1  0  0  0  0
  4  5  2  0  0  0  0
  4  1  1  0  0  0  0
  5 15  1  0  0  0  0
  6  5  1  0  0  0  0
  7  8  2  0  0  0  0
  7  6  1  0  0  0  0
  8  4  1  0  0  0  0
  9  7  1  0  0  0  0
 10  9  1  0  0  0  0
 10 17  1  0  0  0  0
 11 10  1  0  0  0  0
 11 19  1  0  0  0  0
 12 22  1  0  0  0  0
 12 11  1  0  0  0  0
 13 12  1  0  0  0  0
 13 14  1  0  0  0  0
 14 25  1  0  0  0  0
 14  9  1  0  0  0  0
 16  6  1  0  0  0  0
 18 10  1  0  0  0  0
 20 11  1  0  0  0  0
 21 12  1  0  0  0  0
 23 13  1  0  0  0  0
 24 13  1  0  0  0  0
 26 14  1  0  0  0  0
 27 28  2  0  0  0  0
 28  1  1  0  0  0  0
 29 34  1  0  0  0  0
 29 27  1  0  0  0  0
 30 29  2  0  0  0  0
 31 32  2  0  0  0  0
 31 30  1  0  0  0  0
 32 33  1  0  0  0  0
 33 37  1  0  0  0  0
 33 34  2  0  0  0  0
 35 30  1  0  0  0  0
 36 31  1  0  0  0  0
 37 38  1  0  0  0  0
 38 39  2  0  0  0  0
 39 40  1  0  0  0  0
 41 42  2  0  0  0  0
 41 39  1  0  0  0  0
 43 41  1  0  0  0  0
 44 43  1  0  0  0  0
 44 37  1  0  0  0  0
 45 44  2  0  0  0  0
 46 43  1  0  0  0  0
M  END
>  <minimizedAffinity>
-5.76262283

$$$$

 OpenBabel03252504433D

 46 49  0  0  0  0  0  0  0  0999 V2000
   37.0230   32.5100   40.2330 C   0  0  0  0  0  0  0  0  0  0  0  0
   36.3680   33.3420   39.8950 H   0  0  0  0  0  0  0  0  0  0  0  0
   36.8640   32.3900   41.3230 H   0  0  0  0  0  0  0  0  0  0  0  0
   38.4300   32.9760   40.0430 C   0  0  0  0  0  0  0  0  0  0  0  0
   38.9950   34.1110   40.5630 C   0  0  0  0  0  0  0  0  0  0  0  0
   40.2550   34.1250   40.1400 N   0  0  0  0  0  0  0  0  0  0  0  0
   40.5270   33.0680   39.3810 C   0  0  0  0  0  0  0  0  0  0  0  0
   39.3760   32.3480   39.3250 N   0  0  0  0  0  0  0  0  0  0  0  0
   41.7080   32.6490   38.7140 N   0  0  0  0  0  0  0  0  0  0  0  0
   41.9520   33.1270   37.3520 C   0  0  0  0  0  0  0  0  0  0  0  0
   43.0190   34.2060   37.5050 C   0  0  0  0  0  0  0  0  0  0  0  0
   44.1490   33.7000   38.3700 C   0  0  0  0  0  0  0  0  0  0  0  0
   44.0770   32.1810   38.4550 C   0  0  0  0  0  0  0  0  0  0  0  0
   42.7890   31.7880   39.1420 C   0  0  0  0  0  0  0  0  0  0  0  0
   38.5130   34.8630   41.2000 H   0  0  0  0  0  0  0  0  0  0  0  0
   40.9620   34.8710   40.3650 H   0  0  0  0  0  0  0  0  0  0  0  0
   41.0370   33.5620   36.9190 H   0  0  0  0  0  0  0  0  0  0  0  0
   42.2920   32.3290   36.6760 H   0  0  0  0  0  0  0  0  0  0  0  0
   42.5310   35.0920   37.9490 H   0  0  0  0  0  0  0  0  0  0  0  0
   43.4100   34.4300   36.4920 H   0  0  0  0  0  0  0  0  0  0  0  0
   45.1310   34.0490   38.0570 H   0  0  0  0  0  0  0  0  0  0  0  0
   43.9540   34.0560   39.4030 H   0  0  0  0  0  0  0  0  0  0  0  0
   44.9090   31.8820   39.1450 H   0  0  0  0  0  0  0  0  0  0  0  0
   44.1830   31.6960   37.4690 H   0  0  0  0  0  0  0  0  0  0  0  0
   42.8770   31.7210   40.2330 H   0  0  0  0  0  0  0  0  0  0  0  0
   42.5120   30.7540   38.7800 H   0  0  0  0  0  0  0  0  0  0  0  0
   36.1670   30.2150   40.0310 C   0  0  0  0  0  3  0  0  0  0  0  0
   36.7780   31.2620   39.4970 C   0  0  0  0  0  3  0  0  0  0  0  0
   35.9830   29.0270   39.1870 C   0  0  0  0  0  0  0  0  0  0  0  0
   35.3840   29.1130   37.9140 C   0  0  0  0  0  0  0  0  0  0  0  0
   35.2530   27.9400   37.1890 C   0  0  0  0  0  0  0  0  0  0  0  0
   35.6890   26.7880   37.7090 N   0  0  0  0  0  0  0  0  0  0  0  0
   36.2640   26.7220   38.9400 C   0  0  0  0  0  0  0  0  0  0  0  0
   36.3980   27.8300   39.6470 N   0  0  0  0  0  0  0  0  0  0  0  0
   35.0790   30.0920   37.6140 H   0  0  0  0  0  0  0  0  0  0  0  0
   34.7930   28.0490   36.2280 H   0  0  0  0  0  0  0  0  0  0  0  0
   36.6910   25.4360   39.3900 N   0  0  0  0  0  0  0  0  0  0  0  0
   36.9320   25.1700   40.6850 C   0  0  0  0  0  3  0  0  0  0  0  0
   37.3480   23.9220   41.1410 C   0  0  0  0  0  0  0  0  0  0  0  0
   37.5400   23.7150   42.1850 H   0  0  0  0  0  0  0  0  0  0  0  0
   37.4940   22.9750   40.1500 C   0  0  0  0  0  0  0  0  0  0  0  0
   37.8730   21.8040   40.4880 O   0  0  0  0  0  0  0  0  0  0  0  0
   37.2710   23.1780   38.8430 N   0  0  0  0  0  0  0  0  0  0  0  0
   36.8720   24.4240   38.5280 C   0  0  0  0  0  0  0  0  0  0  0  0
   36.6460   24.6680   37.2990 O   0  0  0  0  0  0  0  0  0  0  0  0
   37.3930   22.4340   38.1210 H   0  0  0  0  0  0  0  0  0  0  0  0
  1  3  1  0  0  0  0
  2  1  1  0  0  0  0
  4  1  1  0  0  0  0
  4  5  2  0  0  0  0
  5 15  1  0  0  0  0
  6 16  1  0  0  0  0
  6  5  1  0  0  0  0
  7  6  1  0  0  0  0
  8  7  2  0  0  0  0
  8  4  1  0  0  0  0
  9 14  1  0  0  0  0
  9  7  1  0  0  0  0
 10 11  1  0  0  0  0
 10  9  1  0  0  0  0
 11 19  1  0  0  0  0
 11 12  1  0  0  0  0
 12 13  1  0  0  0  0
 12 22  1  0  0  0  0
 13 14  1  0  0  0  0
 13 23  1  0  0  0  0
 14 25  1  0  0  0  0
 17 10  1  0  0  0  0
 18 10  1  0  0  0  0
 20 11  1  0  0  0  0
 21 12  1  0  0  0  0
 24 13  1  0  0  0  0
 26 14  1  0  0  0  0
 28 27  2  0  0  0  0
 28  1  1  0  0  0  0
 29 34  1  0  0  0  0
 29 27  1  0  0  0  0
 30 29  2  0  0  0  0
 31 32  2  0  0  0  0
 31 30  1  0  0  0  0
 32 33  1  0  0  0  0
 33 37  1  0  0  0  0
 33 34  2  0  0  0  0
 35 30  1  0  0  0  0
 36 31  1  0  0  0  0
 37 38  1  0  0  0  0
 38 39  2  0  0  0  0
 39 40  1  0  0  0  0
 41 42  2  0  0  0  0
 41 39  1  0  0  0  0
 43 41  1  0  0  0  0
 44 43  1  0  0  0  0
 44 37  1  0  0  0  0
 45 44  2  0  0  0  0
 46 43  1  0  0  0  0
M  END
>  <minimizedAffinity>
-5.73599195

$$$$

 OpenBabel03252504433D

 46 49  0  0  0  0  0  0  0  0999 V2000
   35.8630   28.9080   35.6360 C   0  0  0  0  0  0  0  0  0  0  0  0
   35.7420   29.2830   34.5970 H   0  0  0  0  0  0  0  0  0  0  0  0
   36.4230   27.9530   35.5760 H   0  0  0  0  0  0  0  0  0  0  0  0
   34.4910   28.5820   36.1300 C   0  0  0  0  0  0  0  0  0  0  0  0
   34.0460   27.3640   36.5710 C   0  0  0  0  0  0  0  0  0  0  0  0
   32.7730   27.5340   36.9110 N   0  0  0  0  0  0  0  0  0  0  0  0
   32.3780   28.7880   36.7130 C   0  0  0  0  0  0  0  0  0  0  0  0
   33.4640   29.4430   36.2220 N   0  0  0  0  0  0  0  0  0  0  0  0
   31.1370   29.4440   36.9220 N   0  0  0  0  0  0  0  0  0  0  0  0
   30.1490   29.4370   35.8420 C   0  0  0  0  0  0  0  0  0  0  0  0
   29.1090   28.4070   36.2740 C   0  0  0  0  0  0  0  0  0  0  0  0
   28.7000   28.6540   37.7080 C   0  0  0  0  0  0  0  0  0  0  0  0
   29.1130   30.0620   38.1140 C   0  0  0  0  0  0  0  0  0  0  0  0
   30.6220   30.1640   38.0650 C   0  0  0  0  0  0  0  0  0  0  0  0
   34.6180   26.4290   36.6340 H   0  0  0  0  0  0  0  0  0  0  0  0
   32.1400   26.7830   37.2890 H   0  0  0  0  0  0  0  0  0  0  0  0
   30.6100   29.1280   34.8900 H   0  0  0  0  0  0  0  0  0  0  0  0
   29.6860   30.4210   35.6820 H   0  0  0  0  0  0  0  0  0  0  0  0
   29.5610   27.4080   36.1450 H   0  0  0  0  0  0  0  0  0  0  0  0
   28.2260   28.5340   35.6170 H   0  0  0  0  0  0  0  0  0  0  0  0
   27.6460   28.4610   37.9010 H   0  0  0  0  0  0  0  0  0  0  0  0
   29.3110   27.9790   38.3420 H   0  0  0  0  0  0  0  0  0  0  0  0
   28.8240   30.1560   39.1930 H   0  0  0  0  0  0  0  0  0  0  0  0
   28.6280   30.8410   37.5010 H   0  0  0  0  0  0  0  0  0  0  0  0
   31.1100   29.8820   39.0050 H   0  0  0  0  0  0  0  0  0  0  0  0
   30.8820   31.2480   37.8820 H   0  0  0  0  0  0  0  0  0  0  0  0
   36.6260   29.7180   37.8270 C   0  0  0  0  0  3  0  0  0  0  0  0
   36.5220   29.8820   36.5160 C   0  0  0  0  0  3  0  0  0  0  0  0
   37.3090   30.7690   38.5940 C   0  0  0  0  0  0  0  0  0  0  0  0
   36.6800   31.4180   39.6770 C   0  0  0  0  0  0  0  0  0  0  0  0
   37.4010   32.3950   40.3410 C   0  0  0  0  0  0  0  0  0  0  0  0
   38.6440   32.6870   39.9440 N   0  0  0  0  0  0  0  0  0  0  0  0
   39.2370   32.0510   38.8970 C   0  0  0  0  0  0  0  0  0  0  0  0
   38.5650   31.1160   38.2500 N   0  0  0  0  0  0  0  0  0  0  0  0
   35.6850   31.0930   39.8930 H   0  0  0  0  0  0  0  0  0  0  0  0
   36.8870   32.8630   41.1570 H   0  0  0  0  0  0  0  0  0  0  0  0
   40.5670   32.4470   38.5660 N   0  0  0  0  0  0  0  0  0  0  0  0
   41.1220   32.1760   37.3720 C   0  0  0  0  0  3  0  0  0  0  0  0
   42.4180   32.5550   37.0320 C   0  0  0  0  0  0  0  0  0  0  0  0
   42.8580   32.3340   36.0690 H   0  0  0  0  0  0  0  0  0  0  0  0
   43.0910   33.2350   38.0250 C   0  0  0  0  0  0  0  0  0  0  0  0
   44.2850   33.6160   37.7900 O   0  0  0  0  0  0  0  0  0  0  0  0
   42.5940   33.5340   39.2350 N   0  0  0  0  0  0  0  0  0  0  0  0
   41.3320   33.1150   39.4430 C   0  0  0  0  0  0  0  0  0  0  0  0
   40.8140   33.3750   40.5760 O   0  0  0  0  0  0  0  0  0  0  0  0
   43.1350   34.0510   39.9620 H   0  0  0  0  0  0  0  0  0  0  0  0
  1  4  1  0  0  0  0
  1 28  1  0  0  0  0
  2  1  1  0  0  0  0
  3  1  1  0  0  0  0
  4  8  1  0  0  0  0
  4  5  2  0  0  0  0
  5 15  1  0  0  0  0
  5  6  1  0  0  0  0
  6 16  1  0  0  0  0
  7  6  1  0  0  0  0
  7  9  1  0  0  0  0
  8  7  2  0  0  0  0
  9 14  1  0  0  0  0
 10 11  1  0  0  0  0
 10  9  1  0  0  0  0
 11 12  1  0  0  0  0
 12 21  1  0  0  0  0
 12 13  1  0  0  0  0
 12 22  1  0  0  0  0
 13 23  1  0  0  0  0
 14 13  1  0  0  0  0
 14 25  1  0  0  0  0
 17 10  1  0  0  0  0
 18 10  1  0  0  0  0
 19 11  1  0  0  0  0
 20 11  1  0  0  0  0
 24 13  1  0  0  0  0
 26 14  1  0  0  0  0
 27 29  1  0  0  0  0
 28 27  2  0  0  0  0
 29 30  1  0  0  0  0
 30 35  1  0  0  0  0
 30 31  2  0  0  0  0
 31 36  1  0  0  0  0
 32 31  1  0  0  0  0
 33 32  2  0  0  0  0
 34 29  2  0  0  0  0
 34 33  1  0  0  0  0
 37 33  1  0  0  0  0
 37 44  1  0  0  0  0
 38 37  1  0  0  0  0
 39 38  2  0  0  0  0
 39 41  1  0  0  0  0
 40 39  1  0  0  0  0
 41 43  1  0  0  0  0
 42 41  2  0  0  0  0
 43 44  1  0  0  0  0
 43 46  1  0  0  0  0
 44 45  2  0  0  0  0
M  END
>  <minimizedAffinity>
-5.69209766

$$$$
