REMARK  Name = 
REMARK  2 active torsions:
REMARK  status: ('A' for Active; 'I' for Inactive)
REMARK    1  A    between atoms: C_1  and  C_7
REMARK    2  A    between atoms: C_8  and  C_9
REMARK                            x       y       z     vdW  Elec       q    Type
REMARK                         _______ _______ _______ _____ _____    ______ ____
ROOT
ATOM      1  C   UNL     1      44.682  35.525  43.598  0.00  0.00    +0.000 A 
ATOM      2  C   UNL     1      43.938  35.417  42.409  0.00  0.00    +0.000 A 
ATOM      3  C   UNL     1      43.783  34.165  41.831  0.00  0.00    +0.000 A 
ATOM      4  N   UNL     1      44.359  33.107  42.445  0.00  0.00    +0.000 NA
ATOM      5  C   UNL     1      45.069  33.234  43.588  0.00  0.00    +0.000 A 
ATOM      6  N   UNL     1      45.226  34.428  44.154  0.00  0.00    +0.000 NA
ATOM      7  H   UNL     1      43.528  36.327  42.014  0.00  0.00    +0.000 HD
ATOM      8  H   UNL     1      43.211  34.081  40.915  0.00  0.00    +0.000 HD
ATOM      9  N   UNL     1      45.607  32.022  44.101  0.00  0.00    +0.000 N 
ATOM     10  C   UNL     1      45.422  30.820  43.486  0.00  0.00    +0.000 A 
ATOM     11  C   UNL     1      45.956  29.657  44.007  0.00  0.00    +0.000 A 
ATOM     12  H   UNL     1      45.778  28.719  43.475  0.00  0.00    +0.000 HD
ATOM     13  C   UNL     1      46.692  29.708  45.173  0.00  0.00    +0.000 A 
ATOM     14  O   UNL     1      47.163  28.642  45.623  0.00  0.00    +0.000 OA
ATOM     15  N   UNL     1      46.850  30.929  45.752  0.00  0.00    +0.000 N 
ATOM     16  C   UNL     1      46.325  32.053  45.234  0.00  0.00    +0.000 A 
ATOM     17  O   UNL     1      46.562  33.114  45.893  0.00  0.00    +0.000 OA
ATOM     18  H   UNL     1      47.429  30.864  46.641  0.00  0.00    +0.000 HD
ENDROOT
BRANCH   1  19
ATOM     19  C   UNL     1      44.856  36.847  44.225  0.00  0.00    +0.000 C 
ATOM     20  C   UNL     1      45.236  37.840  43.431  0.00  0.00    +0.000 C 
BRANCH  20  21
ATOM     21  C   UNL     1      45.431  39.204  44.004  0.00  0.00    +0.000 C 
ATOM     22  H   UNL     1      45.315  39.925  43.147  0.00  0.00    +0.000 HD
ATOM     23  H   UNL     1      44.746  39.422  44.835  0.00  0.00    +0.000 HD
ATOM     24  H   UNL     1      46.468  39.280  44.385  0.00  0.00    +0.000 HD
ENDBRANCH  20  21
ENDBRANCH   1  19
TORSDOF 2
