
 OpenBabel03252507463D

 38 40  0  0  0  0  0  0  0  0999 V2000
   47.5510   34.8010   41.0710 C   0  0  0  0  0  0  0  0  0  0  0  0
   47.8990   35.7760   40.7030 H   0  0  0  0  0  0  0  0  0  0  0  0
   46.9200   34.3480   40.2920 H   0  0  0  0  0  0  0  0  0  0  0  0
   48.7260   33.9680   41.3900 C   0  0  0  0  0  0  0  0  0  0  0  0
   48.7250   32.6780   40.8900 C   0  0  0  0  0  0  0  0  0  0  0  0
   49.7760   31.8070   41.1270 C   0  0  0  0  0  0  0  0  0  0  0  0
   50.8170   32.2980   41.8840 N   0  0  0  0  0  0  0  0  0  0  0  0
   50.7790   33.5590   42.3520 C   0  0  0  0  0  0  0  0  0  0  0  0
   49.7590   34.3740   42.1110 N   0  0  0  0  0  0  0  0  0  0  0  0
   49.7980   30.8060   40.7500 H   0  0  0  0  0  0  0  0  0  0  0  0
   51.5830   33.9780   42.9550 H   0  0  0  0  0  0  0  0  0  0  0  0
   47.3310   32.0770   39.8950 S   0  0  0  0  0  0  0  0  0  0  0  0
   47.8250   34.7520   35.8410 H   0  0  0  0  0  0  0  0  0  0  0  0
   47.9740   33.8150   36.2820 N   0  0  0  0  0  0  0  0  0  0  0  0
   47.5910   33.7060   37.5520 C   0  0  0  0  0  3  0  0  0  0  0  0
   47.7540   32.5080   38.1970 C   0  0  0  0  0  0  0  0  0  0  0  0
   48.3130   31.4280   37.5230 C   0  0  0  0  0  0  0  0  0  0  0  0
   48.5200   30.2640   38.0020 O   0  0  0  0  0  0  0  0  0  0  0  0
   48.6940   31.5690   36.2260 N   0  0  0  0  0  0  0  0  0  0  0  0
   48.5200   32.7660   35.6170 C   0  0  0  0  0  0  0  0  0  0  0  0
   48.8510   32.9590   34.4250 O   0  0  0  0  0  0  0  0  0  0  0  0
   49.1200   30.7770   35.6870 H   0  0  0  0  0  0  0  0  0  0  0  0
   46.6550   35.0330   42.2600 C   0  0  0  0  0  0  0  0  0  0  0  0
   46.9660   34.3750   43.0950 H   0  0  0  0  0  0  0  0  0  0  0  0
   46.8270   36.0810   42.6180 H   0  0  0  0  0  0  0  0  0  0  0  0
   45.2070   34.9580   41.9440 C   0  0  0  0  0  0  0  0  0  0  0  0
   44.2600   35.5500   42.8400 C   0  0  0  0  0  0  0  0  0  0  0  0
   42.6530   35.2020   42.0300 S   0  0  0  0  0  0  0  0  0  0  0  0
   43.5350   34.3090   40.6030 C   0  0  0  0  0  0  0  0  0  0  0  0
   44.6290   34.4070   40.9150 N   0  0  0  0  0  0  0  0  0  0  0  0
   44.4670   36.0690   43.7640 H   0  0  0  0  0  0  0  0  0  0  0  0
   42.8570   33.7410   39.5350 O   0  0  0  0  0  0  0  0  0  0  0  0
   40.8360   33.9500   37.8340 O   0  0  0  0  0  0  0  0  0  0  0  0
   41.8750   34.7720   38.5940 P   0  0  0  0  0  0  0  0  0  0  0  0
   41.0750   35.8210   39.6490 O   0  0  0  0  0  0  0  0  0  0  0  0
   40.5290   36.4550   39.1180 H   0  0  0  0  0  0  0  0  0  0  0  0
   42.8330   35.6640   37.5260 O   0  0  0  0  0  0  0  0  0  0  0  0
   42.9350   35.2050   36.6710 H   0  0  0  0  0  0  0  0  0  0  0  0
  1  4  1  0  0  0  0
  1 23  1  0  0  0  0
  2  1  1  0  0  0  0
  3  1  1  0  0  0  0
  4  9  1  0  0  0  0
  5  6  1  0  0  0  0
  5  4  2  0  0  0  0
  6  7  2  0  0  0  0
  7  8  1  0  0  0  0
  8 11  1  0  0  0  0
  9  8  2  0  0  0  0
 10  6  1  0  0  0  0
 12  5  1  0  0  0  0
 13 14  1  0  0  0  0
 14 15  1  0  0  0  0
 15 16  2  0  0  0  0
 16 12  1  0  0  0  0
 17 18  2  0  0  0  0
 17 16  1  0  0  0  0
 19 17  1  0  0  0  0
 20 19  1  0  0  0  0
 20 14  1  0  0  0  0
 21 20  2  0  0  0  0
 22 19  1  0  0  0  0
 23 25  1  0  0  0  0
 23 24  1  0  0  0  0
 26 23  1  0  0  0  0
 26 27  2  0  0  0  0
 27 31  1  0  0  0  0
 28 27  1  0  0  0  0
 29 30  2  0  0  0  0
 29 28  1  0  0  0  0
 30 26  1  0  0  0  0
 32 29  1  0  0  0  0
 33 34  2  0  0  0  0
 34 32  1  0  0  0  0
 34 35  1  0  0  0  0
 36 35  1  0  0  0  0
 37 34  1  0  0  0  0
 38 37  1  0  0  0  0
M  END
>  <minimizedAffinity>
-5.44134092

>  <minimizedRMSD>
1.17325568

$$$$
