
 OpenBabel03242516533D

 46 49  0  0  1  0  0  0  0  0999 V2000
   47.8390   32.8230   41.6080 C   0  0  1  0  0  0  0  0  0  0  0  0
   47.4320   32.1000   40.4040 C   0  0  0  0  0  0  0  0  0  0  0  0
   48.4220   32.5060   39.3160 C   0  0  0  0  0  0  0  0  0  0  0  0
   48.1390   33.9610   38.9840 C   0  0  0  0  0  0  0  0  0  0  0  0
   48.1600   34.8800   40.1690 C   0  0  0  0  0  0  0  0  0  0  0  0
   47.6970   34.3420   41.4550 C   0  0  1  0  0  0  0  0  0  0  0  0
   48.9600   32.7040   41.7340 H   0  0  0  0  0  0  0  0  0  0  0  0
   46.4200   32.3920   40.0270 H   0  0  0  0  0  0  0  0  0  0  0  0
   47.4970   31.0200   40.5770 H   0  0  0  0  0  0  0  0  0  0  0  0
   49.4700   32.3670   39.6580 H   0  0  0  0  0  0  0  0  0  0  0  0
   48.1690   31.9240   38.4130 H   0  0  0  0  0  0  0  0  0  0  0  0
   47.1770   34.0060   38.4350 H   0  0  0  0  0  0  0  0  0  0  0  0
   48.9210   34.2530   38.2480 H   0  0  0  0  0  0  0  0  0  0  0  0
   47.5400   35.7660   39.9140 H   0  0  0  0  0  0  0  0  0  0  0  0
   49.2010   35.2800   40.2380 H   0  0  0  0  0  0  0  0  0  0  0  0
   48.3530   34.7660   42.2700 H   0  0  0  0  0  0  0  0  0  0  0  0
   45.5230   31.0700   44.0270 C   0  0  0  0  0  0  0  0  0  0  0  0
   46.1650   31.5140   42.8640 C   0  0  0  0  0  0  0  0  0  0  0  0
   47.2370   32.4080   42.8570 C   0  0  0  0  0  0  0  0  0  0  0  0
   47.6320   32.8350   44.0570 N   0  0  0  0  0  0  0  0  0  0  0  0
   47.0190   32.4140   45.1950 C   0  0  0  0  0  0  0  0  0  0  0  0
   45.9940   31.5560   45.1960 N   0  0  0  0  0  0  0  0  0  0  0  0
   44.7030   30.3760   43.9150 H   0  0  0  0  0  0  0  0  0  0  0  0
   45.8320   31.1570   41.8970 H   0  0  0  0  0  0  0  0  0  0  0  0
   47.3510   32.7680   46.1710 H   0  0  0  0  0  0  0  0  0  0  0  0
   46.3470   34.7930   41.7960 C   0  0  0  0  0  0  0  0  0  0  0  0
   46.0070   35.6310   42.8670 C   0  0  0  0  0  0  0  0  0  0  0  0
   44.6510   35.9430   42.9910 C   0  0  0  0  0  0  0  0  0  0  0  0
   43.7750   35.4120   42.0720 C   0  0  0  0  0  0  0  0  0  0  0  0
   44.1300   34.5900   41.0260 C   0  0  0  0  0  0  0  0  0  0  0  0
   45.4530   34.2860   40.9050 N   0  0  0  0  0  0  0  0  0  0  0  0
   46.7910   35.9560   43.4860 H   0  0  0  0  0  0  0  0  0  0  0  0
   44.3670   36.5880   43.8090 H   0  0  0  0  0  0  0  0  0  0  0  0
   42.7450   35.6900   42.2200 H   0  0  0  0  0  0  0  0  0  0  0  0
   43.1310   34.0720   40.0890 C   0  0  0  0  0  0  0  0  0  0  0  0
   43.4200   34.0700   38.8600 O   0  0  0  0  0  0  0  0  0  0  0  0
   38.6260   34.1910   39.5980 H   0  0  0  0  0  0  0  0  0  0  0  0
   39.4490   33.7020   40.0340 N   0  0  0  0  0  0  0  0  0  0  0  0
   40.6960   34.1750   39.7970 C   0  0  0  0  0  0  0  0  0  0  0  0
   41.8000   33.5370   40.3660 C   0  0  0  0  0  0  0  0  0  0  0  0
   41.5670   32.4400   41.1570 C   0  0  0  0  0  0  0  0  0  0  0  0
   42.6180   31.9330   41.6250 O   0  0  0  0  0  0  0  0  0  0  0  0
   40.3340   31.9620   41.3980 N   0  0  0  0  0  0  0  0  0  0  0  0
   39.2760   32.6080   40.8270 C   0  0  0  0  0  0  0  0  0  0  0  0
   38.1180   32.1650   41.0510 O   0  0  0  0  0  0  0  0  0  0  0  0
   40.2170   31.1250   42.0080 H   0  0  0  0  0  0  0  0  0  0  0  0
  1  7  1  1  0  0  0
  1 19  1  0  0  0  0
  2  9  1  0  0  0  0
  2  1  1  0  0  0  0
  3 10  1  0  0  0  0
  3  2  1  0  0  0  0
  4  3  1  0  0  0  0
  4  5  1  0  0  0  0
  5 15  1  0  0  0  0
  5  6  1  0  0  0  0
  6  1  1  0  0  0  0
  6 26  1  0  0  0  0
  6 16  1  1  0  0  0
  8  2  1  0  0  0  0
 11  3  1  0  0  0  0
 12  4  1  0  0  0  0
 13  4  1  0  0  0  0
 14  5  1  0  0  0  0
 17 22  1  0  0  0  0
 18 17  2  0  0  0  0
 19 18  1  0  0  0  0
 19 20  2  0  0  0  0
 20 21  1  0  0  0  0
 21 22  2  0  0  0  0
 21 25  1  0  0  0  0
 23 17  1  0  0  0  0
 24 18  1  0  0  0  0
 26 27  1  0  0  0  0
 27 28  2  0  0  0  0
 27 32  1  0  0  0  0
 28 33  1  0  0  0  0
 29 34  1  0  0  0  0
 29 28  1  0  0  0  0
 30 29  2  0  0  0  0
 31 30  1  0  0  0  0
 31 26  2  0  0  0  0
 35 40  1  0  0  0  0
 35 30  1  0  0  0  0
 36 35  2  0  0  0  0
 37 38  1  0  0  0  0
 38 44  1  0  0  0  0
 39 38  1  0  0  0  0
 39 40  2  0  0  0  0
 40 41  1  0  0  0  0
 41 43  1  0  0  0  0
 41 42  2  0  0  0  0
 43 46  1  0  0  0  0
 44 45  2  0  0  0  0
 44 43  1  0  0  0  0
M  END
>  <minimizedAffinity>
-6.09154701

>  <minimizedRMSD>
2.32785392

$$$$
