
 OpenBabel03252505553D

 34 36  0  0  0  0  0  0  0  0999 V2000
   38.6110   32.9050   39.3600 C   0  0  0  0  0  0  0  0  0  0  0  0
   38.7740   34.0220   40.1520 C   0  0  0  0  0  0  0  0  0  0  0  0
   40.0340   34.5230   40.3560 C   0  0  0  0  0  0  0  0  0  0  0  0
   41.1220   33.9580   39.8080 N   0  0  0  0  0  0  0  0  0  0  0  0
   40.9480   32.8690   39.0390 C   0  0  0  0  0  0  0  0  0  0  0  0
   39.7200   32.3330   38.8040 N   0  0  0  0  0  0  0  0  0  0  0  0
   37.8450   34.3970   40.5400 H   0  0  0  0  0  0  0  0  0  0  0  0
   40.0490   35.3990   40.9920 H   0  0  0  0  0  0  0  0  0  0  0  0
   42.1380   32.2870   38.4660 N   0  0  0  0  0  0  0  0  0  0  0  0
   42.6930   31.1060   38.6790 C   0  0  0  0  0  3  0  0  0  0  0  0
   43.8440   30.7740   38.0020 C   0  0  0  0  0  0  0  0  0  0  0  0
   44.2650   29.8000   38.2060 H   0  0  0  0  0  0  0  0  0  0  0  0
   44.4050   31.6650   37.1190 C   0  0  0  0  0  0  0  0  0  0  0  0
   45.4600   31.3460   36.5060 O   0  0  0  0  0  0  0  0  0  0  0  0
   43.8220   32.8630   36.9180 N   0  0  0  0  0  0  0  0  0  0  0  0
   42.6950   33.1720   37.5870 C   0  0  0  0  0  0  0  0  0  0  0  0
   42.2700   34.3260   37.2930 O   0  0  0  0  0  0  0  0  0  0  0  0
   44.3050   33.4860   36.2310 H   0  0  0  0  0  0  0  0  0  0  0  0
   37.4000   32.1830   38.9890 C   0  0  0  0  0  0  0  0  0  0  0  0
   37.5970   31.2470   38.4090 H   0  0  0  0  0  0  0  0  0  0  0  0
   36.7710   32.8140   38.3150 H   0  0  0  0  0  0  0  0  0  0  0  0
   36.6540   31.9560   40.1600 O   0  0  0  0  0  0  0  0  0  0  0  0
   37.7270   29.3800   42.3660 C   0  0  0  0  0  0  0  0  0  0  0  0
   36.8090   28.3560   42.1570 C   0  0  0  0  0  0  0  0  0  0  0  0
   35.7830   28.5770   41.2150 C   0  0  0  0  0  0  0  0  0  0  0  0
   35.7590   29.7690   40.5760 N   0  0  0  0  0  0  0  0  0  0  0  0
   36.6730   30.7290   40.8140 C   0  0  0  0  0  0  0  0  0  0  0  0
   37.6450   30.5420   41.6960 N   0  0  0  0  0  0  0  0  0  0  0  0
   38.5380   29.2610   43.0830 H   0  0  0  0  0  0  0  0  0  0  0  0
   35.0840   27.7820   41.0640 H   0  0  0  0  0  0  0  0  0  0  0  0
   36.9630   27.0890   42.9410 C   0  0  0  0  0  0  0  0  0  0  0  0
   36.7820   26.0800   42.0300 F   0  0  0  0  0  0  0  0  0  0  0  0
   35.9320   27.0860   43.8730 F   0  0  0  0  0  0  0  0  0  0  0  0
   38.2030   27.0750   43.5260 F   0  0  0  0  0  0  0  0  0  0  0  0
  1  2  1  0  0  0  0
  2  3  2  0  0  0  0
  2  7  1  0  0  0  0
  3  8  1  0  0  0  0
  4  3  1  0  0  0  0
  5  4  2  0  0  0  0
  6  5  1  0  0  0  0
  6  1  2  0  0  0  0
  9 10  1  0  0  0  0
  9  5  1  0  0  0  0
 11 12  1  0  0  0  0
 11 10  2  0  0  0  0
 13 11  1  0  0  0  0
 14 13  2  0  0  0  0
 15 13  1  0  0  0  0
 15 16  1  0  0  0  0
 16  9  1  0  0  0  0
 17 16  2  0  0  0  0
 18 15  1  0  0  0  0
 19  1  1  0  0  0  0
 19 22  1  0  0  0  0
 20 19  1  0  0  0  0
 21 19  1  0  0  0  0
 22 27  1  0  0  0  0
 23 29  1  0  0  0  0
 24 23  1  0  0  0  0
 24 31  1  0  0  0  0
 25 24  2  0  0  0  0
 26 27  2  0  0  0  0
 26 25  1  0  0  0  0
 27 28  1  0  0  0  0
 28 23  2  0  0  0  0
 30 25  1  0  0  0  0
 31 34  1  0  0  0  0
 31 33  1  0  0  0  0
 32 31  1  0  0  0  0
M  END
>  <minimizedAffinity>
-6.5465517

$$$$

 OpenBabel03252505553D

 34 36  0  0  0  0  0  0  0  0999 V2000
   38.4440   32.3220   39.9860 C   0  0  0  0  0  0  0  0  0  0  0  0
   37.7570   33.5170   39.9480 C   0  0  0  0  0  0  0  0  0  0  0  0
   38.4480   34.6950   40.0750 C   0  0  0  0  0  0  0  0  0  0  0  0
   39.7810   34.7240   40.2380 N   0  0  0  0  0  0  0  0  0  0  0  0
   40.4380   33.5500   40.2740 C   0  0  0  0  0  0  0  0  0  0  0  0
   39.8000   32.3550   40.1520 N   0  0  0  0  0  0  0  0  0  0  0  0
   36.6990   33.3850   39.8140 H   0  0  0  0  0  0  0  0  0  0  0  0
   37.8140   35.5700   40.0320 H   0  0  0  0  0  0  0  0  0  0  0  0
   41.8690   33.6170   40.4500 N   0  0  0  0  0  0  0  0  0  0  0  0
   42.6210   33.1950   41.4520 C   0  0  0  0  0  3  0  0  0  0  0  0
   43.9840   33.3750   41.3880 C   0  0  0  0  0  0  0  0  0  0  0  0
   44.5620   33.0160   42.2270 H   0  0  0  0  0  0  0  0  0  0  0  0
   44.5480   33.9880   40.2950 C   0  0  0  0  0  0  0  0  0  0  0  0
   45.7990   34.1450   40.2510 O   0  0  0  0  0  0  0  0  0  0  0  0
   43.7610   34.4100   39.2860 N   0  0  0  0  0  0  0  0  0  0  0  0
   42.4290   34.2260   39.3630 C   0  0  0  0  0  0  0  0  0  0  0  0
   41.8290   34.6730   38.3440 O   0  0  0  0  0  0  0  0  0  0  0  0
   44.2600   34.8660   38.4880 H   0  0  0  0  0  0  0  0  0  0  0  0
   37.9570   30.9530   39.8770 C   0  0  0  0  0  0  0  0  0  0  0  0
   38.5450   30.3240   39.1620 H   0  0  0  0  0  0  0  0  0  0  0  0
   36.9150   30.9490   39.4760 H   0  0  0  0  0  0  0  0  0  0  0  0
   37.9050   30.4060   41.1730 O   0  0  0  0  0  0  0  0  0  0  0  0
   37.8120   26.9160   40.4910 C   0  0  0  0  0  0  0  0  0  0  0  0
   37.3870   26.3520   41.6900 C   0  0  0  0  0  0  0  0  0  0  0  0
   37.1260   27.2230   42.7690 C   0  0  0  0  0  0  0  0  0  0  0  0
   37.3050   28.5480   42.5680 N   0  0  0  0  0  0  0  0  0  0  0  0
   37.7190   29.0450   41.3860 C   0  0  0  0  0  0  0  0  0  0  0  0
   37.9700   28.2440   40.3590 N   0  0  0  0  0  0  0  0  0  0  0  0
   38.0280   26.2890   39.6280 H   0  0  0  0  0  0  0  0  0  0  0  0
   36.8000   26.7760   43.6840 H   0  0  0  0  0  0  0  0  0  0  0  0
   37.2340   24.8640   41.7630 C   0  0  0  0  0  0  0  0  0  0  0  0
   36.2480   24.6510   42.6930 F   0  0  0  0  0  0  0  0  0  0  0  0
   38.4490   24.3750   42.2290 F   0  0  0  0  0  0  0  0  0  0  0  0
   36.9160   24.3870   40.5180 F   0  0  0  0  0  0  0  0  0  0  0  0
  1  6  1  0  0  0  0
  2  1  2  0  0  0  0
  2  3  1  0  0  0  0
  3  4  2  0  0  0  0
  4  5  1  0  0  0  0
  5  9  1  0  0  0  0
  6  5  2  0  0  0  0
  7  2  1  0  0  0  0
  8  3  1  0  0  0  0
  9 10  1  0  0  0  0
 11 10  2  0  0  0  0
 11 12  1  0  0  0  0
 13 11  1  0  0  0  0
 14 13  2  0  0  0  0
 15 16  1  0  0  0  0
 15 13  1  0  0  0  0
 16  9  1  0  0  0  0
 17 16  2  0  0  0  0
 18 15  1  0  0  0  0
 19  1  1  0  0  0  0
 19 22  1  0  0  0  0
 20 19  1  0  0  0  0
 21 19  1  0  0  0  0
 22 27  1  0  0  0  0
 23 24  1  0  0  0  0
 24 31  1  0  0  0  0
 24 25  2  0  0  0  0
 25 30  1  0  0  0  0
 26 25  1  0  0  0  0
 27 26  2  0  0  0  0
 28 23  2  0  0  0  0
 28 27  1  0  0  0  0
 29 23  1  0  0  0  0
 31 33  1  0  0  0  0
 31 32  1  0  0  0  0
 34 31  1  0  0  0  0
M  END
>  <minimizedAffinity>
-6.09075117

$$$$

 OpenBabel03252505553D

 34 36  0  0  0  0  0  0  0  0999 V2000
   38.6140   27.0470   43.4210 C   0  0  0  0  0  0  0  0  0  0  0  0
   39.8190   26.8250   44.0540 C   0  0  0  0  0  0  0  0  0  0  0  0
   40.5850   25.7500   43.6850 C   0  0  0  0  0  0  0  0  0  0  0  0
   40.1990   24.8990   42.7200 N   0  0  0  0  0  0  0  0  0  0  0  0
   39.0210   25.1270   42.1110 C   0  0  0  0  0  0  0  0  0  0  0  0
   38.2250   26.1790   42.4410 N   0  0  0  0  0  0  0  0  0  0  0  0
   40.0350   27.5610   44.8080 H   0  0  0  0  0  0  0  0  0  0  0  0
   41.5080   25.6690   44.2440 H   0  0  0  0  0  0  0  0  0  0  0  0
   38.6370   24.1940   41.0800 N   0  0  0  0  0  0  0  0  0  0  0  0
   37.6230   23.3460   41.0380 C   0  0  0  0  0  3  0  0  0  0  0  0
   37.4630   22.5480   39.9280 C   0  0  0  0  0  0  0  0  0  0  0  0
   36.6230   21.8690   39.9340 H   0  0  0  0  0  0  0  0  0  0  0  0
   38.3500   22.6360   38.8820 C   0  0  0  0  0  0  0  0  0  0  0  0
   38.1890   21.8970   37.8720 O   0  0  0  0  0  0  0  0  0  0  0  0
   39.3760   23.5070   38.9480 N   0  0  0  0  0  0  0  0  0  0  0  0
   39.5180   24.2820   40.0410 C   0  0  0  0  0  0  0  0  0  0  0  0
   40.5230   25.0440   39.9530 O   0  0  0  0  0  0  0  0  0  0  0  0
   40.0080   23.5190   38.1150 H   0  0  0  0  0  0  0  0  0  0  0  0
   37.6250   28.0990   43.6210 C   0  0  0  0  0  0  0  0  0  0  0  0
   38.0280   28.9980   44.1530 H   0  0  0  0  0  0  0  0  0  0  0  0
   36.7980   27.7250   44.2710 H   0  0  0  0  0  0  0  0  0  0  0  0
   37.0620   28.4090   42.3690 O   0  0  0  0  0  0  0  0  0  0  0  0
   38.7510   31.3500   41.2960 C   0  0  0  0  0  0  0  0  0  0  0  0
   37.7760   32.0620   40.6040 C   0  0  0  0  0  0  0  0  0  0  0  0
   36.4890   31.4920   40.5110 C   0  0  0  0  0  0  0  0  0  0  0  0
   36.2860   30.2920   41.1010 N   0  0  0  0  0  0  0  0  0  0  0  0
   37.2640   29.6420   41.7610 C   0  0  0  0  0  0  0  0  0  0  0  0
   38.4820   30.1600   41.8590 N   0  0  0  0  0  0  0  0  0  0  0  0
   39.7600   31.7450   41.3970 H   0  0  0  0  0  0  0  0  0  0  0  0
   35.7500   32.0500   39.9770 H   0  0  0  0  0  0  0  0  0  0  0  0
   38.1500   33.3820   40.0020 C   0  0  0  0  0  0  0  0  0  0  0  0
   39.1330   33.0940   39.0900 F   0  0  0  0  0  0  0  0  0  0  0  0
   38.6660   34.1460   41.0420 F   0  0  0  0  0  0  0  0  0  0  0  0
   37.0340   33.9440   39.4370 F   0  0  0  0  0  0  0  0  0  0  0  0
  1 19  1  0  0  0  0
  1  2  1  0  0  0  0
  2  7  1  0  0  0  0
  3  2  2  0  0  0  0
  3  8  1  0  0  0  0
  4  3  1  0  0  0  0
  5  6  1  0  0  0  0
  5  4  2  0  0  0  0
  6  1  2  0  0  0  0
  9  5  1  0  0  0  0
 10  9  1  0  0  0  0
 11 12  1  0  0  0  0
 11 10  2  0  0  0  0
 13 15  1  0  0  0  0
 13 11  1  0  0  0  0
 14 13  2  0  0  0  0
 15 16  1  0  0  0  0
 16  9  1  0  0  0  0
 17 16  2  0  0  0  0
 18 15  1  0  0  0  0
 19 20  1  0  0  0  0
 19 21  1  0  0  0  0
 22 19  1  0  0  0  0
 23 29  1  0  0  0  0
 23 28  1  0  0  0  0
 24 23  2  0  0  0  0
 25 24  1  0  0  0  0
 25 26  2  0  0  0  0
 26 27  1  0  0  0  0
 27 28  2  0  0  0  0
 27 22  1  0  0  0  0
 30 25  1  0  0  0  0
 31 24  1  0  0  0  0
 31 33  1  0  0  0  0
 32 31  1  0  0  0  0
 34 31  1  0  0  0  0
M  END
>  <minimizedAffinity>
-6.08477831

$$$$

 OpenBabel03252505553D

 34 36  0  0  0  0  0  0  0  0999 V2000
   38.2330   31.5960   38.6230 C   0  0  0  0  0  0  0  0  0  0  0  0
   37.3380   32.6110   38.8870 C   0  0  0  0  0  0  0  0  0  0  0  0
   37.6530   33.5580   39.8260 C   0  0  0  0  0  0  0  0  0  0  0  0
   38.8110   33.5300   40.5050 N   0  0  0  0  0  0  0  0  0  0  0  0
   39.6750   32.5340   40.2390 C   0  0  0  0  0  0  0  0  0  0  0  0
   39.4110   31.5700   39.3160 N   0  0  0  0  0  0  0  0  0  0  0  0
   36.4460   32.5430   38.2920 H   0  0  0  0  0  0  0  0  0  0  0  0
   36.8820   34.3070   39.9540 H   0  0  0  0  0  0  0  0  0  0  0  0
   40.9100   32.5330   40.9860 N   0  0  0  0  0  0  0  0  0  0  0  0
   41.3660   31.6630   41.8710 C   0  0  0  0  0  3  0  0  0  0  0  0
   42.5910   31.8830   42.4570 C   0  0  0  0  0  0  0  0  0  0  0  0
   42.9270   31.1480   43.1740 H   0  0  0  0  0  0  0  0  0  0  0  0
   43.3250   32.9970   42.1240 C   0  0  0  0  0  0  0  0  0  0  0  0
   44.4460   33.1850   42.6700 O   0  0  0  0  0  0  0  0  0  0  0  0
   42.8390   33.8700   41.2200 N   0  0  0  0  0  0  0  0  0  0  0  0
   41.6380   33.6390   40.6540 C   0  0  0  0  0  0  0  0  0  0  0  0
   41.3200   34.5440   39.8300 O   0  0  0  0  0  0  0  0  0  0  0  0
   43.4520   34.6920   41.0160 H   0  0  0  0  0  0  0  0  0  0  0  0
   38.1450   30.4810   37.6880 C   0  0  0  0  0  0  0  0  0  0  0  0
   39.0900   29.8870   37.6080 H   0  0  0  0  0  0  0  0  0  0  0  0
   37.9550   30.8630   36.6570 H   0  0  0  0  0  0  0  0  0  0  0  0
   37.0330   29.6970   38.0510 O   0  0  0  0  0  0  0  0  0  0  0  0
   37.8540   27.4000   40.6400 C   0  0  0  0  0  0  0  0  0  0  0  0
   36.9330   27.6840   41.6430 C   0  0  0  0  0  0  0  0  0  0  0  0
   35.9980   28.7120   41.4040 C   0  0  0  0  0  0  0  0  0  0  0  0
   36.0560   29.3550   40.2150 N   0  0  0  0  0  0  0  0  0  0  0  0
   36.9680   29.0410   39.2750 C   0  0  0  0  0  0  0  0  0  0  0  0
   37.8570   28.0780   39.4800 N   0  0  0  0  0  0  0  0  0  0  0  0
   38.5970   26.6160   40.7740 H   0  0  0  0  0  0  0  0  0  0  0  0
   35.2960   28.9200   42.1840 H   0  0  0  0  0  0  0  0  0  0  0  0
   36.9900   26.8870   42.9100 C   0  0  0  0  0  0  0  0  0  0  0  0
   36.8210   25.5820   42.5200 F   0  0  0  0  0  0  0  0  0  0  0  0
   35.9090   27.3050   43.6760 F   0  0  0  0  0  0  0  0  0  0  0  0
   38.1930   27.1160   43.5260 F   0  0  0  0  0  0  0  0  0  0  0  0
  1  2  2  0  0  0  0
  1  6  1  0  0  0  0
  2  3  1  0  0  0  0
  3  8  1  0  0  0  0
  3  4  2  0  0  0  0
  5  4  1  0  0  0  0
  5  9  1  0  0  0  0
  6  5  2  0  0  0  0
  7  2  1  0  0  0  0
  9 10  1  0  0  0  0
 10 11  2  0  0  0  0
 11 12  1  0  0  0  0
 13 11  1  0  0  0  0
 13 14  2  0  0  0  0
 15 13  1  0  0  0  0
 16  9  1  0  0  0  0
 16 15  1  0  0  0  0
 17 16  2  0  0  0  0
 18 15  1  0  0  0  0
 19 22  1  0  0  0  0
 19  1  1  0  0  0  0
 20 19  1  0  0  0  0
 21 19  1  0  0  0  0
 22 27  1  0  0  0  0
 23 29  1  0  0  0  0
 23 24  1  0  0  0  0
 24 31  1  0  0  0  0
 25 24  2  0  0  0  0
 25 30  1  0  0  0  0
 26 25  1  0  0  0  0
 27 28  1  0  0  0  0
 27 26  2  0  0  0  0
 28 23  2  0  0  0  0
 31 34  1  0  0  0  0
 31 33  1  0  0  0  0
 32 31  1  0  0  0  0
M  END
>  <minimizedAffinity>
-6.04754829

$$$$

 OpenBabel03252505553D

 34 36  0  0  0  0  0  0  0  0999 V2000
   38.9350   27.1290   42.0740 C   0  0  0  0  0  0  0  0  0  0  0  0
   38.1810   26.9580   43.2150 C   0  0  0  0  0  0  0  0  0  0  0  0
   37.5000   28.0270   43.7380 C   0  0  0  0  0  0  0  0  0  0  0  0
   37.5440   29.2440   43.1730 N   0  0  0  0  0  0  0  0  0  0  0  0
   38.2840   29.3980   42.0610 C   0  0  0  0  0  0  0  0  0  0  0  0
   38.9780   28.3690   41.5010 N   0  0  0  0  0  0  0  0  0  0  0  0
   38.2110   25.9500   43.5860 H   0  0  0  0  0  0  0  0  0  0  0  0
   36.9420   27.7830   44.6320 H   0  0  0  0  0  0  0  0  0  0  0  0
   38.3100   30.7180   41.4800 N   0  0  0  0  0  0  0  0  0  0  0  0
   39.3150   31.5660   41.3430 C   0  0  0  0  0  3  0  0  0  0  0  0
   39.0870   32.7850   40.7470 C   0  0  0  0  0  0  0  0  0  0  0  0
   39.9360   33.4480   40.6550 H   0  0  0  0  0  0  0  0  0  0  0  0
   37.8290   33.1100   40.3020 C   0  0  0  0  0  0  0  0  0  0  0  0
   37.6360   34.2320   39.7570 O   0  0  0  0  0  0  0  0  0  0  0  0
   36.8190   32.2300   40.4520 N   0  0  0  0  0  0  0  0  0  0  0  0
   37.0590   31.0410   41.0380 C   0  0  0  0  0  0  0  0  0  0  0  0
   36.0170   30.3280   41.1060 O   0  0  0  0  0  0  0  0  0  0  0  0
   35.8910   32.5460   40.0900 H   0  0  0  0  0  0  0  0  0  0  0  0
   39.7420   26.1730   41.3260 C   0  0  0  0  0  0  0  0  0  0  0  0
   39.8610   25.1870   41.8410 H   0  0  0  0  0  0  0  0  0  0  0  0
   40.7800   26.5640   41.2030 H   0  0  0  0  0  0  0  0  0  0  0  0
   39.1890   26.0540   40.0360 O   0  0  0  0  0  0  0  0  0  0  0  0
   36.8500   23.3790   40.1920 C   0  0  0  0  0  0  0  0  0  0  0  0
   35.7850   23.8190   39.4120 C   0  0  0  0  0  0  0  0  0  0  0  0
   35.8920   25.0930   38.8140 C   0  0  0  0  0  0  0  0  0  0  0  0
   37.0220   25.8020   39.0380 N   0  0  0  0  0  0  0  0  0  0  0  0
   38.0250   25.3300   39.8030 C   0  0  0  0  0  0  0  0  0  0  0  0
   37.9450   24.1360   40.3740 N   0  0  0  0  0  0  0  0  0  0  0  0
   36.8180   22.4050   40.6760 H   0  0  0  0  0  0  0  0  0  0  0  0
   35.0670   25.4180   38.2170 H   0  0  0  0  0  0  0  0  0  0  0  0
   34.5970   22.9210   39.2540 C   0  0  0  0  0  0  0  0  0  0  0  0
   33.8590   23.4790   38.2410 F   0  0  0  0  0  0  0  0  0  0  0  0
   33.9000   22.9930   40.4540 F   0  0  0  0  0  0  0  0  0  0  0  0
   35.0320   21.6520   38.9720 F   0  0  0  0  0  0  0  0  0  0  0  0
  1  2  1  0  0  0  0
  2  7  1  0  0  0  0
  2  3  2  0  0  0  0
  3  8  1  0  0  0  0
  4  3  1  0  0  0  0
  5  4  2  0  0  0  0
  6  5  1  0  0  0  0
  6  1  2  0  0  0  0
  9  5  1  0  0  0  0
 10  9  1  0  0  0  0
 11 10  2  0  0  0  0
 12 11  1  0  0  0  0
 13 15  1  0  0  0  0
 13 11  1  0  0  0  0
 14 13  2  0  0  0  0
 15 16  1  0  0  0  0
 16 17  2  0  0  0  0
 16  9  1  0  0  0  0
 18 15  1  0  0  0  0
 19 20  1  0  0  0  0
 19  1  1  0  0  0  0
 21 19  1  0  0  0  0
 22 19  1  0  0  0  0
 23 28  1  0  0  0  0
 23 29  1  0  0  0  0
 24 23  2  0  0  0  0
 25 26  2  0  0  0  0
 25 24  1  0  0  0  0
 26 27  1  0  0  0  0
 27 22  1  0  0  0  0
 27 28  2  0  0  0  0
 30 25  1  0  0  0  0
 31 24  1  0  0  0  0
 31 33  1  0  0  0  0
 32 31  1  0  0  0  0
 34 31  1  0  0  0  0
M  END
>  <minimizedAffinity>
-5.95960903

$$$$

 OpenBabel03252505553D

 34 36  0  0  0  0  0  0  0  0999 V2000
   38.0370   30.2830   41.7960 C   0  0  0  0  0  0  0  0  0  0  0  0
   36.7540   30.4300   41.3150 C   0  0  0  0  0  0  0  0  0  0  0  0
   36.5230   31.2800   40.2640 C   0  0  0  0  0  0  0  0  0  0  0  0
   37.5110   31.9800   39.6840 N   0  0  0  0  0  0  0  0  0  0  0  0
   38.7590   31.8270   40.1640 C   0  0  0  0  0  0  0  0  0  0  0  0
   39.0410   30.9960   41.2040 N   0  0  0  0  0  0  0  0  0  0  0  0
   36.0390   29.8280   41.8450 H   0  0  0  0  0  0  0  0  0  0  0  0
   35.4830   31.3200   39.9670 H   0  0  0  0  0  0  0  0  0  0  0  0
   39.7970   32.5940   39.5180 N   0  0  0  0  0  0  0  0  0  0  0  0
   40.5550   33.5660   39.9950 C   0  0  0  0  0  3  0  0  0  0  0  0
   41.4900   34.1510   39.1720 C   0  0  0  0  0  0  0  0  0  0  0  0
   42.0880   34.9420   39.6010 H   0  0  0  0  0  0  0  0  0  0  0  0
   41.6270   33.7260   37.8730 C   0  0  0  0  0  0  0  0  0  0  0  0
   42.4890   34.2720   37.1310 O   0  0  0  0  0  0  0  0  0  0  0  0
   40.8430   32.7330   37.4090 N   0  0  0  0  0  0  0  0  0  0  0  0
   39.9330   32.1700   38.2270 C   0  0  0  0  0  0  0  0  0  0  0  0
   39.2770   31.2560   37.6490 O   0  0  0  0  0  0  0  0  0  0  0  0
   41.0050   32.4620   36.4120 H   0  0  0  0  0  0  0  0  0  0  0  0
   38.5460   29.4580   42.8850 C   0  0  0  0  0  0  0  0  0  0  0  0
   37.7460   29.0670   43.5620 H   0  0  0  0  0  0  0  0  0  0  0  0
   39.2120   30.0650   43.5440 H   0  0  0  0  0  0  0  0  0  0  0  0
   39.3360   28.4380   42.3240 O   0  0  0  0  0  0  0  0  0  0  0  0
   37.3130   25.5190   42.1300 C   0  0  0  0  0  0  0  0  0  0  0  0
   37.6040   24.9920   40.8760 C   0  0  0  0  0  0  0  0  0  0  0  0
   38.5380   25.6820   40.0750 C   0  0  0  0  0  0  0  0  0  0  0  0
   39.0890   26.8100   40.5780 N   0  0  0  0  0  0  0  0  0  0  0  0
   38.7730   27.2790   41.8010 C   0  0  0  0  0  0  0  0  0  0  0  0
   37.8970   26.6460   42.5700 N   0  0  0  0  0  0  0  0  0  0  0  0
   36.5990   25.0250   42.7870 H   0  0  0  0  0  0  0  0  0  0  0  0
   38.7530   25.2660   39.1140 H   0  0  0  0  0  0  0  0  0  0  0  0
   36.9130   23.7320   40.4530 C   0  0  0  0  0  0  0  0  0  0  0  0
   35.6650   23.8000   41.0200 F   0  0  0  0  0  0  0  0  0  0  0  0
   37.6400   22.6880   41.0140 F   0  0  0  0  0  0  0  0  0  0  0  0
   36.8830   23.6790   39.0840 F   0  0  0  0  0  0  0  0  0  0  0  0
  1 19  1  0  0  0  0
  2  1  1  0  0  0  0
  2  7  1  0  0  0  0
  3  2  2  0  0  0  0
  4  5  2  0  0  0  0
  4  3  1  0  0  0  0
  5  6  1  0  0  0  0
  6  1  2  0  0  0  0
  8  3  1  0  0  0  0
  9 10  1  0  0  0  0
  9  5  1  0  0  0  0
 11 12  1  0  0  0  0
 11 10  2  0  0  0  0
 13 11  1  0  0  0  0
 14 13  2  0  0  0  0
 15 13  1  0  0  0  0
 15 16  1  0  0  0  0
 16  9  1  0  0  0  0
 17 16  2  0  0  0  0
 18 15  1  0  0  0  0
 19 21  1  0  0  0  0
 19 20  1  0  0  0  0
 22 19  1  0  0  0  0
 23 28  1  0  0  0  0
 23 29  1  0  0  0  0
 24 23  2  0  0  0  0
 25 26  2  0  0  0  0
 25 24  1  0  0  0  0
 26 27  1  0  0  0  0
 27 22  1  0  0  0  0
 27 28  2  0  0  0  0
 30 25  1  0  0  0  0
 31 24  1  0  0  0  0
 31 33  1  0  0  0  0
 31 32  1  0  0  0  0
 34 31  1  0  0  0  0
M  END
>  <minimizedAffinity>
-5.95679522

$$$$

 OpenBabel03252505553D

 34 36  0  0  0  0  0  0  0  0999 V2000
   36.9450   30.7940   39.9440 C   0  0  0  0  0  0  0  0  0  0  0  0
   36.6910   30.6170   38.6010 C   0  0  0  0  0  0  0  0  0  0  0  0
   37.5410   31.1670   37.6770 C   0  0  0  0  0  0  0  0  0  0  0  0
   38.6210   31.8780   38.0380 N   0  0  0  0  0  0  0  0  0  0  0  0
   38.8570   32.0450   39.3520 C   0  0  0  0  0  0  0  0  0  0  0  0
   38.0450   31.5190   40.3080 N   0  0  0  0  0  0  0  0  0  0  0  0
   35.8060   30.0340   38.4180 H   0  0  0  0  0  0  0  0  0  0  0  0
   37.2490   30.9670   36.6540 H   0  0  0  0  0  0  0  0  0  0  0  0
   40.0250   32.8140   39.7050 N   0  0  0  0  0  0  0  0  0  0  0  0
   40.1190   33.9800   40.3220 C   0  0  0  0  0  3  0  0  0  0  0  0
   41.3640   34.5200   40.5490 C   0  0  0  0  0  0  0  0  0  0  0  0
   41.3960   35.4740   41.0550 H   0  0  0  0  0  0  0  0  0  0  0  0
   42.4910   33.8510   40.1360 C   0  0  0  0  0  0  0  0  0  0  0  0
   43.6260   34.3590   40.3520 O   0  0  0  0  0  0  0  0  0  0  0  0
   42.3710   32.6640   39.5090 N   0  0  0  0  0  0  0  0  0  0  0  0
   41.1450   32.1490   39.2950 C   0  0  0  0  0  0  0  0  0  0  0  0
   41.1960   31.0350   38.6990 O   0  0  0  0  0  0  0  0  0  0  0  0
   43.2710   32.2140   39.2250 H   0  0  0  0  0  0  0  0  0  0  0  0
   36.2110   30.3230   41.1120 C   0  0  0  0  0  0  0  0  0  0  0  0
   35.4760   29.5120   40.8820 H   0  0  0  0  0  0  0  0  0  0  0  0
   35.6010   31.1540   41.5400 H   0  0  0  0  0  0  0  0  0  0  0  0
   37.1500   29.9510   42.0930 O   0  0  0  0  0  0  0  0  0  0  0  0
   37.2590   26.4190   41.6850 C   0  0  0  0  0  0  0  0  0  0  0  0
   38.4010   26.0370   42.3810 C   0  0  0  0  0  0  0  0  0  0  0  0
   39.1550   27.0490   43.0120 C   0  0  0  0  0  0  0  0  0  0  0  0
   38.7180   28.3240   42.8990 N   0  0  0  0  0  0  0  0  0  0  0  0
   37.6040   28.6420   42.2130 C   0  0  0  0  0  0  0  0  0  0  0  0
   36.8810   27.7060   41.6120 N   0  0  0  0  0  0  0  0  0  0  0  0
   36.6430   25.6780   41.1800 H   0  0  0  0  0  0  0  0  0  0  0  0
   40.0300   26.7410   43.5430 H   0  0  0  0  0  0  0  0  0  0  0  0
   38.7610   24.5830   42.4190 C   0  0  0  0  0  0  0  0  0  0  0  0
   39.4910   24.3650   41.2780 F   0  0  0  0  0  0  0  0  0  0  0  0
   37.5590   23.8880   42.3600 F   0  0  0  0  0  0  0  0  0  0  0  0
   39.4630   24.3280   43.5680 F   0  0  0  0  0  0  0  0  0  0  0  0
  1  6  1  0  0  0  0
  1 19  1  0  0  0  0
  2  1  2  0  0  0  0
  3  4  2  0  0  0  0
  3  2  1  0  0  0  0
  4  5  1  0  0  0  0
  5  9  1  0  0  0  0
  5  6  2  0  0  0  0
  7  2  1  0  0  0  0
  8  3  1  0  0  0  0
  9 10  1  0  0  0  0
 10 11  2  0  0  0  0
 11 12  1  0  0  0  0
 13 14  2  0  0  0  0
 13 11  1  0  0  0  0
 15 13  1  0  0  0  0
 16 15  1  0  0  0  0
 16  9  1  0  0  0  0
 17 16  2  0  0  0  0
 18 15  1  0  0  0  0
 19 21  1  0  0  0  0
 19 22  1  0  0  0  0
 20 19  1  0  0  0  0
 22 27  1  0  0  0  0
 23 24  1  0  0  0  0
 24 31  1  0  0  0  0
 24 25  2  0  0  0  0
 25 30  1  0  0  0  0
 26 25  1  0  0  0  0
 27 26  2  0  0  0  0
 28 23  2  0  0  0  0
 28 27  1  0  0  0  0
 29 23  1  0  0  0  0
 31 34  1  0  0  0  0
 32 31  1  0  0  0  0
 33 31  1  0  0  0  0
M  END
>  <minimizedAffinity>
-5.95458078

$$$$

 OpenBabel03252505553D

 34 36  0  0  0  0  0  0  0  0999 V2000
   36.5700   30.2820   39.7550 C   0  0  0  0  0  0  0  0  0  0  0  0
   35.7650   29.7140   38.7910 C   0  0  0  0  0  0  0  0  0  0  0  0
   36.2440   29.5700   37.5140 C   0  0  0  0  0  0  0  0  0  0  0  0
   37.4790   29.9670   37.1680 N   0  0  0  0  0  0  0  0  0  0  0  0
   38.2540   30.5200   38.1190 C   0  0  0  0  0  0  0  0  0  0  0  0
   37.8270   30.6850   39.4000 N   0  0  0  0  0  0  0  0  0  0  0  0
   34.8000   29.4310   39.1690 H   0  0  0  0  0  0  0  0  0  0  0  0
   35.5320   29.1140   36.8390 H   0  0  0  0  0  0  0  0  0  0  0  0
   39.5750   30.9350   37.7130 N   0  0  0  0  0  0  0  0  0  0  0  0
   40.1040   32.1460   37.6570 C   0  0  0  0  0  3  0  0  0  0  0  0
   41.4050   32.2890   37.2310 C   0  0  0  0  0  0  0  0  0  0  0  0
   41.7990   33.2940   37.2000 H   0  0  0  0  0  0  0  0  0  0  0  0
   42.1380   31.1840   36.8690 C   0  0  0  0  0  0  0  0  0  0  0  0
   43.3290   31.3320   36.4810 O   0  0  0  0  0  0  0  0  0  0  0  0
   41.5770   29.9600   36.9340 N   0  0  0  0  0  0  0  0  0  0  0  0
   40.3030   29.8370   37.3540 C   0  0  0  0  0  0  0  0  0  0  0  0
   39.9210   28.6310   37.3610 O   0  0  0  0  0  0  0  0  0  0  0  0
   42.1940   29.1680   36.6450 H   0  0  0  0  0  0  0  0  0  0  0  0
   36.3090   30.5460   41.1640 C   0  0  0  0  0  0  0  0  0  0  0  0
   35.3440   30.1130   41.5300 H   0  0  0  0  0  0  0  0  0  0  0  0
   36.2150   31.6460   41.3350 H   0  0  0  0  0  0  0  0  0  0  0  0
   37.4220   30.1050   41.9030 O   0  0  0  0  0  0  0  0  0  0  0  0
   39.2920   27.0800   41.9640 C   0  0  0  0  0  0  0  0  0  0  0  0
   38.3660   26.1210   42.3610 C   0  0  0  0  0  0  0  0  0  0  0  0
   37.0460   26.5500   42.6160 C   0  0  0  0  0  0  0  0  0  0  0  0
   36.7680   27.8640   42.4570 N   0  0  0  0  0  0  0  0  0  0  0  0
   37.7020   28.7530   42.0690 C   0  0  0  0  0  0  0  0  0  0  0  0
   38.9490   28.3710   41.8250 N   0  0  0  0  0  0  0  0  0  0  0  0
   40.3240   26.8020   41.7550 H   0  0  0  0  0  0  0  0  0  0  0  0
   36.3440   25.8030   42.9210 H   0  0  0  0  0  0  0  0  0  0  0  0
   38.8210   24.7010   42.4950 C   0  0  0  0  0  0  0  0  0  0  0  0
   39.5800   24.6740   43.6380 F   0  0  0  0  0  0  0  0  0  0  0  0
   39.6160   24.4460   41.3840 F   0  0  0  0  0  0  0  0  0  0  0  0
   37.7220   23.8850   42.5570 F   0  0  0  0  0  0  0  0  0  0  0  0
  1 19  1  0  0  0  0
  2  7  1  0  0  0  0
  2  1  2  0  0  0  0
  3  2  1  0  0  0  0
  4  3  2  0  0  0  0
  4  5  1  0  0  0  0
  5  6  2  0  0  0  0
  6  1  1  0  0  0  0
  8  3  1  0  0  0  0
  9  5  1  0  0  0  0
 10  9  1  0  0  0  0
 11 10  2  0  0  0  0
 12 11  1  0  0  0  0
 13 15  1  0  0  0  0
 13 11  1  0  0  0  0
 14 13  2  0  0  0  0
 15 16  1  0  0  0  0
 16 17  2  0  0  0  0
 16  9  1  0  0  0  0
 18 15  1  0  0  0  0
 19 21  1  0  0  0  0
 19 20  1  0  0  0  0
 19 22  1  0  0  0  0
 22 27  1  0  0  0  0
 23 24  1  0  0  0  0
 24 31  1  0  0  0  0
 24 25  2  0  0  0  0
 25 30  1  0  0  0  0
 26 25  1  0  0  0  0
 27 26  2  0  0  0  0
 28 23  2  0  0  0  0
 28 27  1  0  0  0  0
 29 23  1  0  0  0  0
 31 34  1  0  0  0  0
 31 32  1  0  0  0  0
 33 31  1  0  0  0  0
M  END
>  <minimizedAffinity>
-5.79121876

$$$$

 OpenBabel03252505553D

 34 36  0  0  0  0  0  0  0  0999 V2000
   38.1300   29.0260   42.0300 C   0  0  0  0  0  0  0  0  0  0  0  0
   37.7120   29.1030   43.3420 C   0  0  0  0  0  0  0  0  0  0  0  0
   37.2470   27.9750   43.9670 C   0  0  0  0  0  0  0  0  0  0  0  0
   37.1840   26.7890   43.3400 N   0  0  0  0  0  0  0  0  0  0  0  0
   37.5940   26.7280   42.0600 C   0  0  0  0  0  0  0  0  0  0  0  0
   38.0640   27.8180   41.3950 N   0  0  0  0  0  0  0  0  0  0  0  0
   37.8040   30.0930   43.7510 H   0  0  0  0  0  0  0  0  0  0  0  0
   36.9460   28.1460   44.9920 H   0  0  0  0  0  0  0  0  0  0  0  0
   37.5120   25.4390   41.4160 N   0  0  0  0  0  0  0  0  0  0  0  0
   36.7700   25.0470   40.3950 C   0  0  0  0  0  3  0  0  0  0  0  0
   36.8700   23.7470   39.9550 C   0  0  0  0  0  0  0  0  0  0  0  0
   36.2460   23.4660   39.1190 H   0  0  0  0  0  0  0  0  0  0  0  0
   37.7310   22.8730   40.5750 C   0  0  0  0  0  0  0  0  0  0  0  0
   37.8110   21.6850   40.1600 O   0  0  0  0  0  0  0  0  0  0  0  0
   38.4770   23.2960   41.6140 N   0  0  0  0  0  0  0  0  0  0  0  0
   38.3680   24.5720   42.0320 C   0  0  0  0  0  0  0  0  0  0  0  0
   39.1290   24.8170   43.0120 O   0  0  0  0  0  0  0  0  0  0  0  0
   39.1090   22.5770   42.0350 H   0  0  0  0  0  0  0  0  0  0  0  0
   38.6590   30.0600   41.1490 C   0  0  0  0  0  0  0  0  0  0  0  0
   39.4190   29.6810   40.4200 H   0  0  0  0  0  0  0  0  0  0  0  0
   39.1920   30.8360   41.7480 H   0  0  0  0  0  0  0  0  0  0  0  0
   37.5690   30.6950   40.5230 O   0  0  0  0  0  0  0  0  0  0  0  0
   36.1480   29.3910   37.5350 C   0  0  0  0  0  0  0  0  0  0  0  0
   36.7330   30.1490   36.5270 C   0  0  0  0  0  0  0  0  0  0  0  0
   37.6530   31.1490   36.9070 C   0  0  0  0  0  0  0  0  0  0  0  0
   37.9070   31.3030   38.2270 N   0  0  0  0  0  0  0  0  0  0  0  0
   37.3130   30.5410   39.1660 C   0  0  0  0  0  0  0  0  0  0  0  0
   36.4440   29.5970   38.8290 N   0  0  0  0  0  0  0  0  0  0  0  0
   35.4310   28.6070   37.2950 H   0  0  0  0  0  0  0  0  0  0  0  0
   38.0960   31.7240   36.1220 H   0  0  0  0  0  0  0  0  0  0  0  0
   36.3530   29.8630   35.1060 C   0  0  0  0  0  0  0  0  0  0  0  0
   35.0570   29.4190   35.1650 F   0  0  0  0  0  0  0  0  0  0  0  0
   37.1930   28.8400   34.6830 F   0  0  0  0  0  0  0  0  0  0  0  0
   36.5010   31.0080   34.3670 F   0  0  0  0  0  0  0  0  0  0  0  0
  1  2  1  0  0  0  0
  2  7  1  0  0  0  0
  2  3  2  0  0  0  0
  3  8  1  0  0  0  0
  4  3  1  0  0  0  0
  5  4  2  0  0  0  0
  6  1  2  0  0  0  0
  6  5  1  0  0  0  0
  9 16  1  0  0  0  0
  9  5  1  0  0  0  0
 10  9  1  0  0  0  0
 11 10  2  0  0  0  0
 11 13  1  0  0  0  0
 12 11  1  0  0  0  0
 13 15  1  0  0  0  0
 14 13  2  0  0  0  0
 15 16  1  0  0  0  0
 15 18  1  0  0  0  0
 16 17  2  0  0  0  0
 19 21  1  0  0  0  0
 19  1  1  0  0  0  0
 20 19  1  0  0  0  0
 22 19  1  0  0  0  0
 23 28  1  0  0  0  0
 24 25  1  0  0  0  0
 24 23  2  0  0  0  0
 25 26  2  0  0  0  0
 26 27  1  0  0  0  0
 27 22  1  0  0  0  0
 28 27  2  0  0  0  0
 29 23  1  0  0  0  0
 30 25  1  0  0  0  0
 31 32  1  0  0  0  0
 31 24  1  0  0  0  0
 33 31  1  0  0  0  0
 34 31  1  0  0  0  0
M  END
>  <minimizedAffinity>
-5.72384214

$$$$
