
 OpenBabel03242516273D

 44 48  0  0  0  0  0  0  0  0999 V2000
   37.8220   27.9060   39.6830 C   0  0  0  0  0  0  0  0  0  0  0  0
   37.8330   26.7450   38.9830 N   0  0  0  0  0  0  0  0  0  0  0  0
   37.5850   25.5490   39.5330 C   0  0  0  0  0  0  0  0  0  0  0  0
   37.3130   25.5240   40.8600 N   0  0  0  0  0  0  0  0  0  0  0  0
   37.2820   26.6150   41.6240 C   0  0  0  0  0  0  0  0  0  0  0  0
   37.0070   26.5930   42.9890 C   0  0  0  0  0  0  0  0  0  0  0  0
   36.9930   27.7540   43.7280 C   0  0  0  0  0  0  0  0  0  0  0  0
   37.2550   29.0000   43.1430 C   0  0  0  0  0  0  0  0  0  0  0  0
   37.5200   28.9770   41.7960 C   0  0  0  0  0  0  0  0  0  0  0  0
   37.5410   27.8380   41.0340 C   0  0  0  0  0  0  0  0  0  0  0  0
   37.6090   24.6760   38.9300 H   0  0  0  0  0  0  0  0  0  0  0  0
   36.8110   25.6090   43.3960 H   0  0  0  0  0  0  0  0  0  0  0  0
   36.7640   27.5790   44.7710 H   0  0  0  0  0  0  0  0  0  0  0  0
   37.2160   29.8390   43.8200 H   0  0  0  0  0  0  0  0  0  0  0  0
   37.7620   30.3060   41.3510 N   0  0  0  0  0  0  0  0  0  0  0  0
   38.9990   30.8930   41.3960 C   0  0  0  0  0  3  0  0  0  0  0  0
   39.1950   32.2010   40.9770 C   0  0  0  0  0  0  0  0  0  0  0  0
   40.1400   32.6880   40.9980 H   0  0  0  0  0  0  0  0  0  0  0  0
   38.0740   32.8900   40.5090 C   0  0  0  0  0  0  0  0  0  0  0  0
   38.1220   34.0790   40.1030 O   0  0  0  0  0  0  0  0  0  0  0  0
   36.8570   32.2920   40.4730 N   0  0  0  0  0  0  0  0  0  0  0  0
   36.6850   31.0130   40.8860 C   0  0  0  0  0  0  0  0  0  0  0  0
   35.5470   30.4770   40.8440 O   0  0  0  0  0  0  0  0  0  0  0  0
   36.0350   32.8060   40.1270 H   0  0  0  0  0  0  0  0  0  0  0  0
   38.1440   29.4950   38.9710 S   0  0  0  0  0  0  0  0  0  0  0  0
   41.6930   30.5890   37.4260 C   0  0  0  0  0  0  0  0  0  0  0  0
   40.5030   30.5510   38.1070 C   0  0  0  0  0  0  0  0  0  0  0  0
   39.6700   29.4530   38.0580 C   0  0  0  0  0  0  0  0  0  0  0  0
   40.0280   28.3450   37.3030 C   0  0  0  0  0  0  0  0  0  0  0  0
   41.1980   28.3620   36.6230 C   0  0  0  0  0  0  0  0  0  0  0  0
   42.0070   29.4720   36.6930 C   0  0  0  0  0  0  0  0  0  0  0  0
   40.2260   31.4160   38.6970 H   0  0  0  0  0  0  0  0  0  0  0  0
   39.3660   27.5060   37.2800 H   0  0  0  0  0  0  0  0  0  0  0  0
   41.5100   27.5240   36.0270 H   0  0  0  0  0  0  0  0  0  0  0  0
   42.9390   29.4630   36.1410 H   0  0  0  0  0  0  0  0  0  0  0  0
   42.6390   34.1160   37.4720 C   0  0  0  0  0  0  0  0  0  0  0  0
   44.0470   34.0770   37.6220 C   0  0  0  0  0  0  0  0  0  0  0  0
   44.6730   32.8290   37.7060 C   0  0  0  0  0  0  0  0  0  0  0  0
   43.9190   31.6970   37.6430 N   0  0  0  0  0  0  0  0  0  0  0  0
   42.5610   31.7780   37.4980 C   0  0  0  0  0  0  0  0  0  0  0  0
   41.9350   32.9840   37.4140 N   0  0  0  0  0  0  0  0  0  0  0  0
   42.1360   35.0630   37.4050 H   0  0  0  0  0  0  0  0  0  0  0  0
   44.6340   34.9870   37.6710 H   0  0  0  0  0  0  0  0  0  0  0  0
   45.7450   32.7360   37.8200 H   0  0  0  0  0  0  0  0  0  0  0  0
  1 10  1  0  0  0  0
  2  3  1  0  0  0  0
  2  1  2  0  0  0  0
  3  4  2  0  0  0  0
  4  5  1  0  0  0  0
  5  6  1  0  0  0  0
  6 12  1  0  0  0  0
  6  7  2  0  0  0  0
  7 13  1  0  0  0  0
  8  7  1  0  0  0  0
  8 14  1  0  0  0  0
  9  8  2  0  0  0  0
 10  5  2  0  0  0  0
 10  9  1  0  0  0  0
 11  3  1  0  0  0  0
 15 16  1  0  0  0  0
 15  9  1  0  0  0  0
 17 18  1  0  0  0  0
 17 16  2  0  0  0  0
 19 17  1  0  0  0  0
 20 19  2  0  0  0  0
 21 19  1  0  0  0  0
 21 22  1  0  0  0  0
 22 15  1  0  0  0  0
 23 22  2  0  0  0  0
 24 21  1  0  0  0  0
 25  1  1  0  0  0  0
 26 40  1  0  0  0  0
 26 27  1  0  0  0  0
 27 32  1  0  0  0  0
 28 27  2  0  0  0  0
 28 25  1  0  0  0  0
 29 28  1  0  0  0  0
 30 31  1  0  0  0  0
 30 29  2  0  0  0  0
 31 26  2  0  0  0  0
 33 29  1  0  0  0  0
 34 30  1  0  0  0  0
 35 31  1  0  0  0  0
 36 37  1  0  0  0  0
 37 43  1  0  0  0  0
 37 38  2  0  0  0  0
 38 44  1  0  0  0  0
 39 38  1  0  0  0  0
 40 39  2  0  0  0  0
 41 36  2  0  0  0  0
 41 40  1  0  0  0  0
 42 36  1  0  0  0  0
M  END
>  <minimizedAffinity>
-6.94223785

$$$$

 OpenBabel03242516273D

 44 48  0  0  0  0  0  0  0  0999 V2000
   37.3860   28.7970   41.0820 C   0  0  0  0  0  0  0  0  0  0  0  0
   37.5670   29.4130   42.2750 N   0  0  0  0  0  0  0  0  0  0  0  0
   37.5880   28.7620   43.4470 C   0  0  0  0  0  0  0  0  0  0  0  0
   37.4150   27.4190   43.4090 N   0  0  0  0  0  0  0  0  0  0  0  0
   37.2300   26.7330   42.2820 C   0  0  0  0  0  0  0  0  0  0  0  0
   37.0480   25.3530   42.2410 C   0  0  0  0  0  0  0  0  0  0  0  0
   36.8560   24.7000   41.0440 C   0  0  0  0  0  0  0  0  0  0  0  0
   36.8350   25.3900   39.8260 C   0  0  0  0  0  0  0  0  0  0  0  0
   37.0190   26.7470   39.9110 C   0  0  0  0  0  0  0  0  0  0  0  0
   37.2120   27.4260   41.0860 C   0  0  0  0  0  0  0  0  0  0  0  0
   37.7350   29.3030   44.3480 H   0  0  0  0  0  0  0  0  0  0  0  0
   37.0710   24.8640   43.2060 H   0  0  0  0  0  0  0  0  0  0  0  0
   36.7290   23.6320   41.1710 H   0  0  0  0  0  0  0  0  0  0  0  0
   36.6770   24.7730   38.9540 H   0  0  0  0  0  0  0  0  0  0  0  0
   36.9740   27.3030   38.6030 N   0  0  0  0  0  0  0  0  0  0  0  0
   35.8220   27.7760   38.0340 C   0  0  0  0  0  3  0  0  0  0  0  0
   35.8090   28.2890   36.7440 C   0  0  0  0  0  0  0  0  0  0  0  0
   34.9330   28.6640   36.2720 H   0  0  0  0  0  0  0  0  0  0  0  0
   37.0230   28.2980   36.0550 C   0  0  0  0  0  0  0  0  0  0  0  0
   37.1410   28.7350   34.8820 O   0  0  0  0  0  0  0  0  0  0  0  0
   38.1540   27.8240   36.6360 N   0  0  0  0  0  0  0  0  0  0  0  0
   38.1480   27.3280   37.8960 C   0  0  0  0  0  0  0  0  0  0  0  0
   39.2080   26.8930   38.4160 O   0  0  0  0  0  0  0  0  0  0  0  0
   39.0450   27.8340   36.1210 H   0  0  0  0  0  0  0  0  0  0  0  0
   37.3600   29.6420   39.5260 S   0  0  0  0  0  0  0  0  0  0  0  0
   39.6130   32.8570   40.4030 C   0  0  0  0  0  0  0  0  0  0  0  0
   39.1500   31.5800   40.2090 C   0  0  0  0  0  0  0  0  0  0  0  0
   37.8760   31.3300   39.7430 C   0  0  0  0  0  0  0  0  0  0  0  0
   37.0230   32.3860   39.4580 C   0  0  0  0  0  0  0  0  0  0  0  0
   37.4600   33.6540   39.6420 C   0  0  0  0  0  0  0  0  0  0  0  0
   38.7360   33.8700   40.1080 C   0  0  0  0  0  0  0  0  0  0  0  0
   39.8180   30.7560   40.4310 H   0  0  0  0  0  0  0  0  0  0  0  0
   36.0400   32.1680   39.0980 H   0  0  0  0  0  0  0  0  0  0  0  0
   36.8290   34.4990   39.4330 H   0  0  0  0  0  0  0  0  0  0  0  0
   39.0650   34.8930   40.2480 H   0  0  0  0  0  0  0  0  0  0  0  0
   42.6990   34.6560   41.1630 C   0  0  0  0  0  0  0  0  0  0  0  0
   43.5060   33.6750   41.7880 C   0  0  0  0  0  0  0  0  0  0  0  0
   42.9850   32.3870   41.9470 C   0  0  0  0  0  0  0  0  0  0  0  0
   41.7280   32.1150   41.5020 N   0  0  0  0  0  0  0  0  0  0  0  0
   40.9800   33.0910   40.9030 C   0  0  0  0  0  0  0  0  0  0  0  0
   41.4720   34.3500   40.7390 N   0  0  0  0  0  0  0  0  0  0  0  0
   43.0780   35.6520   41.0280 H   0  0  0  0  0  0  0  0  0  0  0  0
   44.5060   33.9070   42.1380 H   0  0  0  0  0  0  0  0  0  0  0  0
   43.5550   31.5950   42.4170 H   0  0  0  0  0  0  0  0  0  0  0  0
  1 10  2  0  0  0  0
  1  2  1  0  0  0  0
  2  3  2  0  0  0  0
  3 11  1  0  0  0  0
  4  3  1  0  0  0  0
  5  4  2  0  0  0  0
  6  5  1  0  0  0  0
  6 12  1  0  0  0  0
  7 13  1  0  0  0  0
  7  6  2  0  0  0  0
  8  9  2  0  0  0  0
  8  7  1  0  0  0  0
  9 10  1  0  0  0  0
 10  5  1  0  0  0  0
 14  8  1  0  0  0  0
 15  9  1  0  0  0  0
 16 15  1  0  0  0  0
 17 16  2  0  0  0  0
 18 17  1  0  0  0  0
 19 21  1  0  0  0  0
 19 17  1  0  0  0  0
 20 19  2  0  0  0  0
 21 22  1  0  0  0  0
 22 23  2  0  0  0  0
 22 15  1  0  0  0  0
 24 21  1  0  0  0  0
 25 28  1  0  0  0  0
 25  1  1  0  0  0  0
 26 40  1  0  0  0  0
 27 26  1  0  0  0  0
 27 32  1  0  0  0  0
 28 27  2  0  0  0  0
 29 30  2  0  0  0  0
 29 28  1  0  0  0  0
 30 31  1  0  0  0  0
 31 35  1  0  0  0  0
 31 26  2  0  0  0  0
 33 29  1  0  0  0  0
 34 30  1  0  0  0  0
 36 37  1  0  0  0  0
 37 38  2  0  0  0  0
 37 43  1  0  0  0  0
 38 44  1  0  0  0  0
 39 38  1  0  0  0  0
 40 39  2  0  0  0  0
 41 40  1  0  0  0  0
 41 36  2  0  0  0  0
 42 36  1  0  0  0  0
M  END
>  <minimizedAffinity>
-6.67887926

$$$$

 OpenBabel03242516273D

 44 48  0  0  0  0  0  0  0  0999 V2000
   37.6800   27.6990   39.7410 C   0  0  0  0  0  0  0  0  0  0  0  0
   37.6630   26.4830   39.1430 N   0  0  0  0  0  0  0  0  0  0  0  0
   37.5960   25.3280   39.8190 C   0  0  0  0  0  0  0  0  0  0  0  0
   37.5450   25.4070   41.1710 N   0  0  0  0  0  0  0  0  0  0  0  0
   37.5580   26.5580   41.8400 C   0  0  0  0  0  0  0  0  0  0  0  0
   37.5100   26.6420   43.2300 C   0  0  0  0  0  0  0  0  0  0  0  0
   37.5310   27.8630   43.8660 C   0  0  0  0  0  0  0  0  0  0  0  0
   37.6010   29.0640   43.1500 C   0  0  0  0  0  0  0  0  0  0  0  0
   37.6460   28.9360   41.7840 C   0  0  0  0  0  0  0  0  0  0  0  0
   37.6270   27.7360   41.1210 C   0  0  0  0  0  0  0  0  0  0  0  0
   37.5860   24.4070   39.2910 H   0  0  0  0  0  0  0  0  0  0  0  0
   37.4560   25.6890   43.7400 H   0  0  0  0  0  0  0  0  0  0  0  0
   37.4880   27.7680   44.9440 H   0  0  0  0  0  0  0  0  0  0  0  0
   37.6110   29.9570   43.7550 H   0  0  0  0  0  0  0  0  0  0  0  0
   37.7140   30.2320   41.2010 N   0  0  0  0  0  0  0  0  0  0  0  0
   38.8960   30.8860   40.9750 C   0  0  0  0  0  3  0  0  0  0  0  0
   38.9240   32.1610   40.4270 C   0  0  0  0  0  0  0  0  0  0  0  0
   39.8230   32.6970   40.2390 H   0  0  0  0  0  0  0  0  0  0  0  0
   37.6940   32.7450   40.1200 C   0  0  0  0  0  0  0  0  0  0  0  0
   37.5880   33.8940   39.6210 O   0  0  0  0  0  0  0  0  0  0  0  0
   36.5340   32.0810   40.3510 N   0  0  0  0  0  0  0  0  0  0  0  0
   36.5250   30.8360   40.8860 C   0  0  0  0  0  0  0  0  0  0  0  0
   35.4380   30.2380   41.0930 O   0  0  0  0  0  0  0  0  0  0  0  0
   35.6310   32.5180   40.1220 H   0  0  0  0  0  0  0  0  0  0  0  0
   37.7630   29.2340   38.8620 S   0  0  0  0  0  0  0  0  0  0  0  0
   34.8310   29.1760   36.1090 C   0  0  0  0  0  0  0  0  0  0  0  0
   35.5490   29.2760   37.2730 C   0  0  0  0  0  0  0  0  0  0  0  0
   36.9150   29.0880   37.3050 C   0  0  0  0  0  0  0  0  0  0  0  0
   37.6010   28.7870   36.1360 C   0  0  0  0  0  0  0  0  0  0  0  0
   36.9110   28.6830   34.9760 C   0  0  0  0  0  0  0  0  0  0  0  0
   35.5490   28.8770   34.9780 C   0  0  0  0  0  0  0  0  0  0  0  0
   35.0130   29.5120   38.1840 H   0  0  0  0  0  0  0  0  0  0  0  0
   38.6590   28.6450   36.1860 H   0  0  0  0  0  0  0  0  0  0  0  0
   37.4050   28.4520   34.0510 H   0  0  0  0  0  0  0  0  0  0  0  0
   35.0180   28.7900   34.0380 H   0  0  0  0  0  0  0  0  0  0  0  0
   31.4890   29.8590   34.8020 C   0  0  0  0  0  0  0  0  0  0  0  0
   30.6660   29.7840   35.9510 C   0  0  0  0  0  0  0  0  0  0  0  0
   31.2650   29.4990   37.1820 C   0  0  0  0  0  0  0  0  0  0  0  0
   32.6100   29.3010   37.2410 N   0  0  0  0  0  0  0  0  0  0  0  0
   33.3710   29.3820   36.1080 C   0  0  0  0  0  0  0  0  0  0  0  0
   32.8050   29.6590   34.9010 N   0  0  0  0  0  0  0  0  0  0  0  0
   31.0520   30.0780   33.8450 H   0  0  0  0  0  0  0  0  0  0  0  0
   29.5950   29.9430   35.8880 H   0  0  0  0  0  0  0  0  0  0  0  0
   30.6870   29.4290   38.0950 H   0  0  0  0  0  0  0  0  0  0  0  0
  1 10  1  0  0  0  0
  2  1  2  0  0  0  0
  2  3  1  0  0  0  0
  3  4  2  0  0  0  0
  4  5  1  0  0  0  0
  5  6  1  0  0  0  0
  6 12  1  0  0  0  0
  6  7  2  0  0  0  0
  7 13  1  0  0  0  0
  8 14  1  0  0  0  0
  8  7  1  0  0  0  0
  9  8  2  0  0  0  0
 10  9  1  0  0  0  0
 10  5  2  0  0  0  0
 11  3  1  0  0  0  0
 15  9  1  0  0  0  0
 16 15  1  0  0  0  0
 17 16  2  0  0  0  0
 18 17  1  0  0  0  0
 19 21  1  0  0  0  0
 19 17  1  0  0  0  0
 20 19  2  0  0  0  0
 21 22  1  0  0  0  0
 22 23  2  0  0  0  0
 22 15  1  0  0  0  0
 24 21  1  0  0  0  0
 25  1  1  0  0  0  0
 26 27  1  0  0  0  0
 27 28  2  0  0  0  0
 27 32  1  0  0  0  0
 28 25  1  0  0  0  0
 29 33  1  0  0  0  0
 29 28  1  0  0  0  0
 30 31  1  0  0  0  0
 30 29  2  0  0  0  0
 31 26  2  0  0  0  0
 34 30  1  0  0  0  0
 35 31  1  0  0  0  0
 36 41  2  0  0  0  0
 36 37  1  0  0  0  0
 37 38  2  0  0  0  0
 38 39  1  0  0  0  0
 38 44  1  0  0  0  0
 40 26  1  0  0  0  0
 40 39  2  0  0  0  0
 41 40  1  0  0  0  0
 42 36  1  0  0  0  0
 43 37  1  0  0  0  0
M  END
>  <minimizedAffinity>
-6.65189171

$$$$

 OpenBabel03242516273D

 44 48  0  0  0  0  0  0  0  0999 V2000
   37.0970   29.4540   40.8320 C   0  0  0  0  0  0  0  0  0  0  0  0
   35.8660   28.8910   40.8740 N   0  0  0  0  0  0  0  0  0  0  0  0
   35.0030   28.9260   39.8490 C   0  0  0  0  0  0  0  0  0  0  0  0
   35.4060   29.5640   38.7240 N   0  0  0  0  0  0  0  0  0  0  0  0
   36.5980   30.1450   38.5970 C   0  0  0  0  0  0  0  0  0  0  0  0
   37.0140   30.8050   37.4430 C   0  0  0  0  0  0  0  0  0  0  0  0
   38.2580   31.3910   37.3720 C   0  0  0  0  0  0  0  0  0  0  0  0
   39.1520   31.3500   38.4490 C   0  0  0  0  0  0  0  0  0  0  0  0
   38.7030   30.6890   39.5660 C   0  0  0  0  0  0  0  0  0  0  0  0
   37.4710   30.0960   39.6670 C   0  0  0  0  0  0  0  0  0  0  0  0
   34.0510   28.4660   39.9450 H   0  0  0  0  0  0  0  0  0  0  0  0
   36.2900   30.8110   36.6380 H   0  0  0  0  0  0  0  0  0  0  0  0
   38.4380   31.8650   36.4150 H   0  0  0  0  0  0  0  0  0  0  0  0
   40.0960   31.8430   38.2780 H   0  0  0  0  0  0  0  0  0  0  0  0
   39.7140   30.7310   40.5650 N   0  0  0  0  0  0  0  0  0  0  0  0
   40.6670   29.7560   40.7020 C   0  0  0  0  0  3  0  0  0  0  0  0
   41.6240   29.8160   41.7050 C   0  0  0  0  0  0  0  0  0  0  0  0
   42.3770   29.0780   41.8390 H   0  0  0  0  0  0  0  0  0  0  0  0
   41.5700   30.9120   42.5670 C   0  0  0  0  0  0  0  0  0  0  0  0
   42.3790   31.0790   43.5140 O   0  0  0  0  0  0  0  0  0  0  0  0
   40.6180   31.8670   42.4160 N   0  0  0  0  0  0  0  0  0  0  0  0
   39.6920   31.7930   41.4300 C   0  0  0  0  0  0  0  0  0  0  0  0
   38.8170   32.6890   41.3080 O   0  0  0  0  0  0  0  0  0  0  0  0
   40.5840   32.6720   43.0560 H   0  0  0  0  0  0  0  0  0  0  0  0
   38.2510   29.4130   42.1750 S   0  0  0  0  0  0  0  0  0  0  0  0
   38.4700   25.4010   41.9890 C   0  0  0  0  0  0  0  0  0  0  0  0
   38.1720   26.7200   41.7620 C   0  0  0  0  0  0  0  0  0  0  0  0
   38.6970   27.7310   42.5400 C   0  0  0  0  0  0  0  0  0  0  0  0
   39.5550   27.4240   43.5880 C   0  0  0  0  0  0  0  0  0  0  0  0
   39.8620   26.1280   43.8290 C   0  0  0  0  0  0  0  0  0  0  0  0
   39.3220   25.1440   43.0340 C   0  0  0  0  0  0  0  0  0  0  0  0
   37.5030   26.9580   40.9440 H   0  0  0  0  0  0  0  0  0  0  0  0
   39.9490   28.2240   44.1770 H   0  0  0  0  0  0  0  0  0  0  0  0
   40.5220   25.8500   44.6300 H   0  0  0  0  0  0  0  0  0  0  0  0
   39.5820   24.1140   43.2450 H   0  0  0  0  0  0  0  0  0  0  0  0
   36.0280   23.6710   39.8960 C   0  0  0  0  0  0  0  0  0  0  0  0
   36.6890   22.4690   39.5450 C   0  0  0  0  0  0  0  0  0  0  0  0
   37.9820   22.2540   40.0320 C   0  0  0  0  0  0  0  0  0  0  0  0
   38.5650   23.1960   40.8230 N   0  0  0  0  0  0  0  0  0  0  0  0
   37.8920   24.3440   41.1400 C   0  0  0  0  0  0  0  0  0  0  0  0
   36.6320   24.5700   40.6740 N   0  0  0  0  0  0  0  0  0  0  0  0
   35.0340   23.8580   39.5350 H   0  0  0  0  0  0  0  0  0  0  0  0
   36.2120   21.7280   38.9140 H   0  0  0  0  0  0  0  0  0  0  0  0
   38.5370   21.3540   39.7980 H   0  0  0  0  0  0  0  0  0  0  0  0
  1  2  1  0  0  0  0
  1 25  1  0  0  0  0
  3 11  1  0  0  0  0
  3  2  2  0  0  0  0
  4  3  1  0  0  0  0
  5  4  2  0  0  0  0
  5 10  1  0  0  0  0
  6  5  1  0  0  0  0
  7  6  2  0  0  0  0
  7  8  1  0  0  0  0
  8  9  2  0  0  0  0
  9 10  1  0  0  0  0
  9 15  1  0  0  0  0
 10  1  2  0  0  0  0
 12  6  1  0  0  0  0
 13  7  1  0  0  0  0
 14  8  1  0  0  0  0
 15 16  1  0  0  0  0
 15 22  1  0  0  0  0
 16 17  2  0  0  0  0
 17 18  1  0  0  0  0
 17 19  1  0  0  0  0
 19 20  2  0  0  0  0
 21 19  1  0  0  0  0
 21 24  1  0  0  0  0
 22 21  1  0  0  0  0
 23 22  2  0  0  0  0
 25 28  1  0  0  0  0
 26 31  1  0  0  0  0
 27 26  2  0  0  0  0
 27 28  1  0  0  0  0
 28 29  2  0  0  0  0
 29 30  1  0  0  0  0
 29 33  1  0  0  0  0
 30 34  1  0  0  0  0
 31 35  1  0  0  0  0
 31 30  2  0  0  0  0
 32 27  1  0  0  0  0
 36 41  1  0  0  0  0
 37 36  2  0  0  0  0
 37 38  1  0  0  0  0
 38 39  2  0  0  0  0
 39 40  1  0  0  0  0
 40 26  1  0  0  0  0
 41 40  2  0  0  0  0
 42 36  1  0  0  0  0
 43 37  1  0  0  0  0
 44 38  1  0  0  0  0
M  END
>  <minimizedAffinity>
-6.60895109

$$$$

 OpenBabel03242516273D

 44 48  0  0  0  0  0  0  0  0999 V2000
   38.2750   28.3190   39.4370 C   0  0  0  0  0  0  0  0  0  0  0  0
   38.3660   27.1850   38.7000 N   0  0  0  0  0  0  0  0  0  0  0  0
   38.2010   25.9570   39.2120 C   0  0  0  0  0  0  0  0  0  0  0  0
   37.9300   25.8710   40.5360 N   0  0  0  0  0  0  0  0  0  0  0  0
   37.8240   26.9330   41.3340 C   0  0  0  0  0  0  0  0  0  0  0  0
   37.5510   26.8480   42.6970 C   0  0  0  0  0  0  0  0  0  0  0  0
   37.4580   27.9810   43.4730 C   0  0  0  0  0  0  0  0  0  0  0  0
   37.6330   29.2600   42.9290 C   0  0  0  0  0  0  0  0  0  0  0  0
   37.9000   29.2990   41.5830 C   0  0  0  0  0  0  0  0  0  0  0  0
   37.9990   28.1890   40.7850 C   0  0  0  0  0  0  0  0  0  0  0  0
   38.2850   25.1080   38.5810 H   0  0  0  0  0  0  0  0  0  0  0  0
   37.4240   25.8400   43.0720 H   0  0  0  0  0  0  0  0  0  0  0  0
   37.2410   27.7570   44.5100 H   0  0  0  0  0  0  0  0  0  0  0  0
   37.5370   30.0730   43.6320 H   0  0  0  0  0  0  0  0  0  0  0  0
   38.0500   30.6550   41.1810 N   0  0  0  0  0  0  0  0  0  0  0  0
   39.2520   31.3110   41.2070 C   0  0  0  0  0  3  0  0  0  0  0  0
   39.3580   32.6420   40.8310 C   0  0  0  0  0  0  0  0  0  0  0  0
   40.2750   33.1820   40.8390 H   0  0  0  0  0  0  0  0  0  0  0  0
   38.1840   33.2820   40.4290 C   0  0  0  0  0  0  0  0  0  0  0  0
   38.1500   34.4850   40.0670 O   0  0  0  0  0  0  0  0  0  0  0  0
   37.0030   32.6150   40.4100 N   0  0  0  0  0  0  0  0  0  0  0  0
   36.9180   31.3150   40.7790 C   0  0  0  0  0  0  0  0  0  0  0  0
   35.8120   30.7150   40.7550 O   0  0  0  0  0  0  0  0  0  0  0  0
   36.1410   33.0930   40.1120 H   0  0  0  0  0  0  0  0  0  0  0  0
   38.4870   29.9480   38.7770 S   0  0  0  0  0  0  0  0  0  0  0  0
   41.8900   28.9110   36.8990 C   0  0  0  0  0  0  0  0  0  0  0  0
   40.6840   28.8980   37.5510 C   0  0  0  0  0  0  0  0  0  0  0  0
   40.0470   30.0620   37.9300 C   0  0  0  0  0  0  0  0  0  0  0  0
   40.6270   31.2910   37.6510 C   0  0  0  0  0  0  0  0  0  0  0  0
   41.8170   31.3260   37.0070 C   0  0  0  0  0  0  0  0  0  0  0  0
   42.4260   30.1480   36.6430 C   0  0  0  0  0  0  0  0  0  0  0  0
   40.2310   27.9380   37.7680 H   0  0  0  0  0  0  0  0  0  0  0  0
   40.1150   32.1800   37.9530 H   0  0  0  0  0  0  0  0  0  0  0  0
   42.2990   32.2580   36.7730 H   0  0  0  0  0  0  0  0  0  0  0  0
   43.3780   30.2000   36.1290 H   0  0  0  0  0  0  0  0  0  0  0  0
   42.2290   25.3940   35.9720 C   0  0  0  0  0  0  0  0  0  0  0  0
   43.6230   25.2390   35.7790 C   0  0  0  0  0  0  0  0  0  0  0  0
   44.4500   26.3500   35.9690 C   0  0  0  0  0  0  0  0  0  0  0  0
   43.8970   27.5410   36.3320 N   0  0  0  0  0  0  0  0  0  0  0  0
   42.5450   27.6500   36.5090 C   0  0  0  0  0  0  0  0  0  0  0  0
   41.7250   26.5780   36.3280 N   0  0  0  0  0  0  0  0  0  0  0  0
   41.5740   24.5550   35.8320 H   0  0  0  0  0  0  0  0  0  0  0  0
   44.0480   24.2840   35.4890 H   0  0  0  0  0  0  0  0  0  0  0  0
   45.5230   26.2930   35.8360 H   0  0  0  0  0  0  0  0  0  0  0  0
  1 10  1  0  0  0  0
  2  3  1  0  0  0  0
  2  1  2  0  0  0  0
  3  4  2  0  0  0  0
  4  5  1  0  0  0  0
  5  6  1  0  0  0  0
  6 12  1  0  0  0  0
  6  7  2  0  0  0  0
  7 13  1  0  0  0  0
  8  7  1  0  0  0  0
  8 14  1  0  0  0  0
  9  8  2  0  0  0  0
 10  5  2  0  0  0  0
 10  9  1  0  0  0  0
 11  3  1  0  0  0  0
 15 16  1  0  0  0  0
 15  9  1  0  0  0  0
 17 18  1  0  0  0  0
 17 16  2  0  0  0  0
 19 17  1  0  0  0  0
 20 19  2  0  0  0  0
 21 19  1  0  0  0  0
 21 22  1  0  0  0  0
 22 15  1  0  0  0  0
 23 22  2  0  0  0  0
 24 21  1  0  0  0  0
 25  1  1  0  0  0  0
 26 27  1  0  0  0  0
 27 32  1  0  0  0  0
 27 28  2  0  0  0  0
 28 25  1  0  0  0  0
 29 28  1  0  0  0  0
 29 33  1  0  0  0  0
 30 29  2  0  0  0  0
 31 26  2  0  0  0  0
 31 30  1  0  0  0  0
 34 30  1  0  0  0  0
 35 31  1  0  0  0  0
 36 41  1  0  0  0  0
 37 38  1  0  0  0  0
 37 36  2  0  0  0  0
 38 39  2  0  0  0  0
 39 40  1  0  0  0  0
 40 26  1  0  0  0  0
 41 40  2  0  0  0  0
 42 36  1  0  0  0  0
 43 37  1  0  0  0  0
 44 38  1  0  0  0  0
M  END
>  <minimizedAffinity>
-6.59766579

$$$$

 OpenBabel03242516273D

 44 48  0  0  0  0  0  0  0  0999 V2000
   39.1530   31.4770   40.8860 C   0  0  0  0  0  0  0  0  0  0  0  0
   37.8440   31.5400   40.5440 N   0  0  0  0  0  0  0  0  0  0  0  0
   37.2680   32.6350   40.0270 C   0  0  0  0  0  0  0  0  0  0  0  0
   38.0560   33.7220   39.8490 N   0  0  0  0  0  0  0  0  0  0  0  0
   39.3520   33.7480   40.1580 C   0  0  0  0  0  0  0  0  0  0  0  0
   40.1640   34.8640   39.9800 C   0  0  0  0  0  0  0  0  0  0  0  0
   41.4970   34.8320   40.3230 C   0  0  0  0  0  0  0  0  0  0  0  0
   42.0900   33.6840   40.8620 C   0  0  0  0  0  0  0  0  0  0  0  0
   41.2540   32.6060   41.0210 C   0  0  0  0  0  0  0  0  0  0  0  0
   39.9240   32.6070   40.6890 C   0  0  0  0  0  0  0  0  0  0  0  0
   36.2360   32.6200   39.7790 H   0  0  0  0  0  0  0  0  0  0  0  0
   39.6630   35.7270   39.5600 H   0  0  0  0  0  0  0  0  0  0  0  0
   41.9980   35.7720   40.1270 H   0  0  0  0  0  0  0  0  0  0  0  0
   43.1400   33.7760   41.0920 H   0  0  0  0  0  0  0  0  0  0  0  0
   41.9950   31.5250   41.5730 N   0  0  0  0  0  0  0  0  0  0  0  0
   42.0850   31.2960   42.9210 C   0  0  0  0  0  3  0  0  0  0  0  0
   42.8380   30.2460   43.4270 C   0  0  0  0  0  0  0  0  0  0  0  0
   42.9300   30.0390   44.4660 H   0  0  0  0  0  0  0  0  0  0  0  0
   43.4990   29.4360   42.5010 C   0  0  0  0  0  0  0  0  0  0  0  0
   44.2110   28.4560   42.8350 O   0  0  0  0  0  0  0  0  0  0  0  0
   43.3970   29.6800   41.1710 N   0  0  0  0  0  0  0  0  0  0  0  0
   42.6570   30.7090   40.6940 C   0  0  0  0  0  0  0  0  0  0  0  0
   42.5760   30.9180   39.4550 O   0  0  0  0  0  0  0  0  0  0  0  0
   43.8870   29.0790   40.4930 H   0  0  0  0  0  0  0  0  0  0  0  0
   39.9310   30.0380   41.5660 S   0  0  0  0  0  0  0  0  0  0  0  0
   37.3010   26.9950   41.6610 C   0  0  0  0  0  0  0  0  0  0  0  0
   38.2540   27.9080   41.2850 C   0  0  0  0  0  0  0  0  0  0  0  0
   38.6950   28.8960   42.1410 C   0  0  0  0  0  0  0  0  0  0  0  0
   38.1720   28.9860   43.4240 C   0  0  0  0  0  0  0  0  0  0  0  0
   37.2310   28.0950   43.8150 C   0  0  0  0  0  0  0  0  0  0  0  0
   36.8130   27.1220   42.9370 C   0  0  0  0  0  0  0  0  0  0  0  0
   38.6620   27.8360   40.2840 H   0  0  0  0  0  0  0  0  0  0  0  0
   38.5300   29.7590   44.0690 H   0  0  0  0  0  0  0  0  0  0  0  0
   36.8020   28.1320   44.7990 H   0  0  0  0  0  0  0  0  0  0  0  0
   36.0590   26.4200   43.2720 H   0  0  0  0  0  0  0  0  0  0  0  0
   36.4420   23.6680   40.4250 C   0  0  0  0  0  0  0  0  0  0  0  0
   36.0300   23.9090   39.0920 C   0  0  0  0  0  0  0  0  0  0  0  0
   36.0490   25.2240   38.6170 C   0  0  0  0  0  0  0  0  0  0  0  0
   36.4590   26.2270   39.4410 N   0  0  0  0  0  0  0  0  0  0  0  0
   36.8500   25.9520   40.7230 C   0  0  0  0  0  0  0  0  0  0  0  0
   36.8380   24.6780   41.2020 N   0  0  0  0  0  0  0  0  0  0  0  0
   36.4370   22.6660   40.8120 H   0  0  0  0  0  0  0  0  0  0  0  0
   35.7050   23.1000   38.4480 H   0  0  0  0  0  0  0  0  0  0  0  0
   35.7450   25.4700   37.6070 H   0  0  0  0  0  0  0  0  0  0  0  0
  1 25  1  0  0  0  0
  2  1  2  0  0  0  0
  3  2  1  0  0  0  0
  4  3  2  0  0  0  0
  4  5  1  0  0  0  0
  5 10  1  0  0  0  0
  6  5  2  0  0  0  0
  6  7  1  0  0  0  0
  7  8  2  0  0  0  0
  8  9  1  0  0  0  0
  8 14  1  0  0  0  0
  9 15  1  0  0  0  0
 10  1  1  0  0  0  0
 10  9  2  0  0  0  0
 11  3  1  0  0  0  0
 12  6  1  0  0  0  0
 13  7  1  0  0  0  0
 15 16  1  0  0  0  0
 16 17  2  0  0  0  0
 17 18  1  0  0  0  0
 19 20  2  0  0  0  0
 19 17  1  0  0  0  0
 21 19  1  0  0  0  0
 22 21  1  0  0  0  0
 22 15  1  0  0  0  0
 23 22  2  0  0  0  0
 24 21  1  0  0  0  0
 25 28  1  0  0  0  0
 26 31  1  0  0  0  0
 27 26  2  0  0  0  0
 27 28  1  0  0  0  0
 28 29  2  0  0  0  0
 29 30  1  0  0  0  0
 29 33  1  0  0  0  0
 30 34  1  0  0  0  0
 31 35  1  0  0  0  0
 31 30  2  0  0  0  0
 32 27  1  0  0  0  0
 36 42  1  0  0  0  0
 36 41  1  0  0  0  0
 37 36  2  0  0  0  0
 38 37  1  0  0  0  0
 38 39  2  0  0  0  0
 39 40  1  0  0  0  0
 40 41  2  0  0  0  0
 40 26  1  0  0  0  0
 43 37  1  0  0  0  0
 44 38  1  0  0  0  0
M  END
>  <minimizedAffinity>
-6.59149837

$$$$

 OpenBabel03242516273D

 44 48  0  0  0  0  0  0  0  0999 V2000
   36.9700   28.9990   41.2300 C   0  0  0  0  0  0  0  0  0  0  0  0
   37.2960   29.4870   42.4520 N   0  0  0  0  0  0  0  0  0  0  0  0
   37.5790   28.7090   43.5060 C   0  0  0  0  0  0  0  0  0  0  0  0
   37.5290   27.3690   43.3150 N   0  0  0  0  0  0  0  0  0  0  0  0
   37.2170   26.8040   42.1500 C   0  0  0  0  0  0  0  0  0  0  0  0
   37.1600   25.4270   41.9520 C   0  0  0  0  0  0  0  0  0  0  0  0
   36.8270   24.9010   40.7240 C   0  0  0  0  0  0  0  0  0  0  0  0
   36.5320   25.7230   39.6290 C   0  0  0  0  0  0  0  0  0  0  0  0
   36.6010   27.0730   39.8670 C   0  0  0  0  0  0  0  0  0  0  0  0
   36.9290   27.6260   41.0770 C   0  0  0  0  0  0  0  0  0  0  0  0
   37.8280   29.1540   44.4370 H   0  0  0  0  0  0  0  0  0  0  0  0
   37.3950   24.8330   42.8260 H   0  0  0  0  0  0  0  0  0  0  0  0
   36.8240   23.8180   40.7240 H   0  0  0  0  0  0  0  0  0  0  0  0
   36.2850   25.1990   38.7180 H   0  0  0  0  0  0  0  0  0  0  0  0
   36.2790   27.7700   38.6690 N   0  0  0  0  0  0  0  0  0  0  0  0
   35.0070   28.1710   38.3600 C   0  0  0  0  0  3  0  0  0  0  0  0
   34.7240   28.8270   37.1700 C   0  0  0  0  0  0  0  0  0  0  0  0
   33.7490   29.1520   36.8980 H   0  0  0  0  0  0  0  0  0  0  0  0
   35.7950   29.0560   36.3040 C   0  0  0  0  0  0  0  0  0  0  0  0
   35.6670   29.6390   35.1970 O   0  0  0  0  0  0  0  0  0  0  0  0
   37.0480   28.6510   36.6280 N   0  0  0  0  0  0  0  0  0  0  0  0
   37.3060   28.0130   37.7950 C   0  0  0  0  0  0  0  0  0  0  0  0
   38.4760   27.6440   38.0760 O   0  0  0  0  0  0  0  0  0  0  0  0
   37.8330   28.8240   35.9850 H   0  0  0  0  0  0  0  0  0  0  0  0
   36.5980   30.0120   39.8260 S   0  0  0  0  0  0  0  0  0  0  0  0
   39.8880   32.1290   38.8880 C   0  0  0  0  0  0  0  0  0  0  0  0
   38.9400   31.1460   39.0130 C   0  0  0  0  0  0  0  0  0  0  0  0
   37.7690   31.3460   39.7140 C   0  0  0  0  0  0  0  0  0  0  0  0
   37.5240   32.5720   40.3180 C   0  0  0  0  0  0  0  0  0  0  0  0
   38.4480   33.5560   40.2070 C   0  0  0  0  0  0  0  0  0  0  0  0
   39.6050   33.3240   39.5010 C   0  0  0  0  0  0  0  0  0  0  0  0
   39.1310   30.1900   38.5400 H   0  0  0  0  0  0  0  0  0  0  0  0
   36.6100   32.7040   40.8560 H   0  0  0  0  0  0  0  0  0  0  0  0
   38.2960   34.5180   40.6600 H   0  0  0  0  0  0  0  0  0  0  0  0
   40.3290   34.1250   39.4250 H   0  0  0  0  0  0  0  0  0  0  0  0
   42.2690   30.4070   36.7190 C   0  0  0  0  0  0  0  0  0  0  0  0
   43.3740   31.2900   36.6780 C   0  0  0  0  0  0  0  0  0  0  0  0
   43.3000   32.4840   37.4030 C   0  0  0  0  0  0  0  0  0  0  0  0
   42.1760   32.7620   38.1190 N   0  0  0  0  0  0  0  0  0  0  0  0
   41.1290   31.8820   38.1330 C   0  0  0  0  0  0  0  0  0  0  0  0
   41.1850   30.7150   37.4340 N   0  0  0  0  0  0  0  0  0  0  0  0
   42.3030   29.4830   36.1710 H   0  0  0  0  0  0  0  0  0  0  0  0
   44.2620   31.0550   36.1020 H   0  0  0  0  0  0  0  0  0  0  0  0
   44.1130   33.1990   37.4100 H   0  0  0  0  0  0  0  0  0  0  0  0
  1  2  1  0  0  0  0
  2  3  2  0  0  0  0
  3 11  1  0  0  0  0
  4  3  1  0  0  0  0
  5  4  2  0  0  0  0
  6  5  1  0  0  0  0
  6 12  1  0  0  0  0
  7 13  1  0  0  0  0
  7  6  2  0  0  0  0
  8  9  2  0  0  0  0
  8  7  1  0  0  0  0
  9 10  1  0  0  0  0
 10  1  2  0  0  0  0
 10  5  1  0  0  0  0
 14  8  1  0  0  0  0
 15  9  1  0  0  0  0
 16 15  1  0  0  0  0
 17 16  2  0  0  0  0
 18 17  1  0  0  0  0
 19 21  1  0  0  0  0
 19 17  1  0  0  0  0
 20 19  2  0  0  0  0
 21 22  1  0  0  0  0
 22 23  2  0  0  0  0
 22 15  1  0  0  0  0
 24 21  1  0  0  0  0
 25  1  1  0  0  0  0
 26 27  2  0  0  0  0
 26 31  1  0  0  0  0
 27 28  1  0  0  0  0
 28 25  1  0  0  0  0
 28 29  2  0  0  0  0
 29 33  1  0  0  0  0
 30 29  1  0  0  0  0
 30 34  1  0  0  0  0
 31 30  2  0  0  0  0
 32 27  1  0  0  0  0
 35 31  1  0  0  0  0
 36 41  1  0  0  0  0
 37 36  2  0  0  0  0
 37 38  1  0  0  0  0
 38 44  1  0  0  0  0
 38 39  2  0  0  0  0
 39 40  1  0  0  0  0
 40 26  1  0  0  0  0
 41 40  2  0  0  0  0
 42 36  1  0  0  0  0
 43 37  1  0  0  0  0
M  END
>  <minimizedAffinity>
-6.55034781

$$$$

 OpenBabel03242516273D

 44 48  0  0  0  0  0  0  0  0999 V2000
   36.4830   26.8070   38.4940 C   0  0  0  0  0  0  0  0  0  0  0  0
   36.2310   25.8040   37.6180 N   0  0  0  0  0  0  0  0  0  0  0  0
   36.1890   24.5110   37.9680 C   0  0  0  0  0  0  0  0  0  0  0  0
   36.4130   24.2170   39.2710 N   0  0  0  0  0  0  0  0  0  0  0  0
   36.6690   25.1380   40.1980 C   0  0  0  0  0  0  0  0  0  0  0  0
   36.9040   24.8390   41.5380 C   0  0  0  0  0  0  0  0  0  0  0  0
   37.1680   25.8360   42.4500 C   0  0  0  0  0  0  0  0  0  0  0  0
   37.2110   27.1840   42.0740 C   0  0  0  0  0  0  0  0  0  0  0  0
   36.9720   27.4350   40.7460 C   0  0  0  0  0  0  0  0  0  0  0  0
   36.7070   26.4660   39.8140 C   0  0  0  0  0  0  0  0  0  0  0  0
   35.9860   23.7720   37.2330 H   0  0  0  0  0  0  0  0  0  0  0  0
   36.8610   23.7860   41.7810 H   0  0  0  0  0  0  0  0  0  0  0  0
   37.3290   25.4510   43.4490 H   0  0  0  0  0  0  0  0  0  0  0  0
   37.4260   27.8750   42.8740 H   0  0  0  0  0  0  0  0  0  0  0  0
   37.0480   28.8380   40.5200 N   0  0  0  0  0  0  0  0  0  0  0  0
   38.2190   29.4810   40.2200 C   0  0  0  0  0  3  0  0  0  0  0  0
   38.2620   30.8550   40.0310 C   0  0  0  0  0  0  0  0  0  0  0  0
   39.1520   31.3870   39.7970 H   0  0  0  0  0  0  0  0  0  0  0  0
   37.0570   31.5500   40.1620 C   0  0  0  0  0  0  0  0  0  0  0  0
   36.9660   32.7950   40.0150 O   0  0  0  0  0  0  0  0  0  0  0  0
   35.9080   30.8940   40.4600 N   0  0  0  0  0  0  0  0  0  0  0  0
   35.8850   29.5520   40.6400 C   0  0  0  0  0  0  0  0  0  0  0  0
   34.8080   28.9630   40.9170 O   0  0  0  0  0  0  0  0  0  0  0  0
   35.0240   31.4130   40.5550 H   0  0  0  0  0  0  0  0  0  0  0  0
   36.5380   28.5200   38.0480 S   0  0  0  0  0  0  0  0  0  0  0  0
   32.8650   29.2690   36.5880 C   0  0  0  0  0  0  0  0  0  0  0  0
   33.9310   28.9860   37.4040 C   0  0  0  0  0  0  0  0  0  0  0  0
   35.2190   28.8950   36.9170 C   0  0  0  0  0  0  0  0  0  0  0  0
   35.4630   29.0930   35.5650 C   0  0  0  0  0  0  0  0  0  0  0  0
   34.4250   29.3740   34.7420 C   0  0  0  0  0  0  0  0  0  0  0  0
   33.1530   29.4570   35.2600 C   0  0  0  0  0  0  0  0  0  0  0  0
   33.7390   28.8320   38.4590 H   0  0  0  0  0  0  0  0  0  0  0  0
   36.4680   29.0190   35.2100 H   0  0  0  0  0  0  0  0  0  0  0  0
   34.5730   29.5330   33.6900 H   0  0  0  0  0  0  0  0  0  0  0  0
   32.3380   29.6820   34.5830 H   0  0  0  0  0  0  0  0  0  0  0  0
   29.2520   28.7920   36.8290 C   0  0  0  0  0  0  0  0  0  0  0  0
   28.9160   29.4370   38.0440 C   0  0  0  0  0  0  0  0  0  0  0  0
   29.9390   30.0390   38.7830 C   0  0  0  0  0  0  0  0  0  0  0  0
   31.2180   29.9900   38.3190 N   0  0  0  0  0  0  0  0  0  0  0  0
   31.5010   29.3570   37.1400 C   0  0  0  0  0  0  0  0  0  0  0  0
   30.5180   28.7650   36.4070 N   0  0  0  0  0  0  0  0  0  0  0  0
   28.4840   28.3230   36.2430 H   0  0  0  0  0  0  0  0  0  0  0  0
   27.8930   29.4680   38.4010 H   0  0  0  0  0  0  0  0  0  0  0  0
   29.7430   30.5470   39.7190 H   0  0  0  0  0  0  0  0  0  0  0  0
  1 10  1  0  0  0  0
  2  3  1  0  0  0  0
  2  1  2  0  0  0  0
  3  4  2  0  0  0  0
  4  5  1  0  0  0  0
  5  6  1  0  0  0  0
  6 12  1  0  0  0  0
  6  7  2  0  0  0  0
  7 13  1  0  0  0  0
  8  7  1  0  0  0  0
  8 14  1  0  0  0  0
  9  8  2  0  0  0  0
 10  5  2  0  0  0  0
 10  9  1  0  0  0  0
 11  3  1  0  0  0  0
 15 22  1  0  0  0  0
 15  9  1  0  0  0  0
 16 15  1  0  0  0  0
 17 19  1  0  0  0  0
 17 16  2  0  0  0  0
 18 17  1  0  0  0  0
 19 21  1  0  0  0  0
 20 19  2  0  0  0  0
 21 24  1  0  0  0  0
 21 22  1  0  0  0  0
 22 23  2  0  0  0  0
 25  1  1  0  0  0  0
 26 40  1  0  0  0  0
 26 27  1  0  0  0  0
 27 32  1  0  0  0  0
 28 27  2  0  0  0  0
 28 25  1  0  0  0  0
 29 28  1  0  0  0  0
 30 31  1  0  0  0  0
 30 29  2  0  0  0  0
 31 26  2  0  0  0  0
 33 29  1  0  0  0  0
 34 30  1  0  0  0  0
 35 31  1  0  0  0  0
 36 37  1  0  0  0  0
 37 43  1  0  0  0  0
 37 38  2  0  0  0  0
 38 44  1  0  0  0  0
 39 38  1  0  0  0  0
 40 39  2  0  0  0  0
 41 36  2  0  0  0  0
 41 40  1  0  0  0  0
 42 36  1  0  0  0  0
M  END
>  <minimizedAffinity>
-6.53888559

$$$$

 OpenBabel03242516273D

 44 48  0  0  0  0  0  0  0  0999 V2000
   36.1530   26.2640   39.0210 C   0  0  0  0  0  0  0  0  0  0  0  0
   35.4030   26.1100   37.9030 N   0  0  0  0  0  0  0  0  0  0  0  0
   35.2840   24.9460   37.2480 C   0  0  0  0  0  0  0  0  0  0  0  0
   35.9600   23.8840   37.7490 N   0  0  0  0  0  0  0  0  0  0  0  0
   36.7200   23.9460   38.8410 C   0  0  0  0  0  0  0  0  0  0  0  0
   37.4190   22.8580   39.3560 C   0  0  0  0  0  0  0  0  0  0  0  0
   38.1940   22.9850   40.4870 C   0  0  0  0  0  0  0  0  0  0  0  0
   38.3110   24.2050   41.1640 C   0  0  0  0  0  0  0  0  0  0  0  0
   37.6060   25.2520   40.6240 C   0  0  0  0  0  0  0  0  0  0  0  0
   36.8270   25.1570   39.5000 C   0  0  0  0  0  0  0  0  0  0  0  0
   34.6800   24.8900   36.3770 H   0  0  0  0  0  0  0  0  0  0  0  0
   37.2980   21.9370   38.8010 H   0  0  0  0  0  0  0  0  0  0  0  0
   38.6750   22.0560   40.7670 H   0  0  0  0  0  0  0  0  0  0  0  0
   38.9450   24.1840   42.0370 H   0  0  0  0  0  0  0  0  0  0  0  0
   37.8230   26.4130   41.4150 N   0  0  0  0  0  0  0  0  0  0  0  0
   36.9920   26.7820   42.4400 C   0  0  0  0  0  3  0  0  0  0  0  0
   37.2200   27.9370   43.1760 C   0  0  0  0  0  0  0  0  0  0  0  0
   36.5960   28.2530   43.9760 H   0  0  0  0  0  0  0  0  0  0  0  0
   38.3330   28.7030   42.8230 C   0  0  0  0  0  0  0  0  0  0  0  0
   38.6450   29.7680   43.4130 O   0  0  0  0  0  0  0  0  0  0  0  0
   39.1440   28.3200   41.8060 N   0  0  0  0  0  0  0  0  0  0  0  0
   38.9070   27.1900   41.0980 C   0  0  0  0  0  0  0  0  0  0  0  0
   39.6710   26.8530   40.1570 O   0  0  0  0  0  0  0  0  0  0  0  0
   39.9630   28.8900   41.5510 H   0  0  0  0  0  0  0  0  0  0  0  0
   36.3170   27.7920   39.9000 S   0  0  0  0  0  0  0  0  0  0  0  0
   37.8070   31.2460   38.4730 C   0  0  0  0  0  0  0  0  0  0  0  0
   37.4210   30.2060   39.2800 C   0  0  0  0  0  0  0  0  0  0  0  0
   36.7840   29.0900   38.7770 C   0  0  0  0  0  0  0  0  0  0  0  0
   36.5160   28.9990   37.4180 C   0  0  0  0  0  0  0  0  0  0  0  0
   36.8890   30.0150   36.6040 C   0  0  0  0  0  0  0  0  0  0  0  0
   37.5220   31.1130   37.1370 C   0  0  0  0  0  0  0  0  0  0  0  0
   37.6310   30.2780   40.3400 H   0  0  0  0  0  0  0  0  0  0  0  0
   36.0220   28.1250   37.0520 H   0  0  0  0  0  0  0  0  0  0  0  0
   36.6990   29.9820   35.5470 H   0  0  0  0  0  0  0  0  0  0  0  0
   37.8110   31.9140   36.4670 H   0  0  0  0  0  0  0  0  0  0  0  0
   40.5300   33.5220   39.3340 C   0  0  0  0  0  0  0  0  0  0  0  0
   39.8780   34.5620   40.0400 C   0  0  0  0  0  0  0  0  0  0  0  0
   38.4940   34.4780   40.2210 C   0  0  0  0  0  0  0  0  0  0  0  0
   37.8180   33.4090   39.7180 N   0  0  0  0  0  0  0  0  0  0  0  0
   38.4850   32.4250   39.0420 C   0  0  0  0  0  0  0  0  0  0  0  0
   39.8320   32.4900   38.8560 N   0  0  0  0  0  0  0  0  0  0  0  0
   41.5930   33.5640   39.1820 H   0  0  0  0  0  0  0  0  0  0  0  0
   40.4310   35.4080   40.4340 H   0  0  0  0  0  0  0  0  0  0  0  0
   37.9410   35.2420   40.7530 H   0  0  0  0  0  0  0  0  0  0  0  0
  1 10  1  0  0  0  0
  1 25  1  0  0  0  0
  2  1  2  0  0  0  0
  3  4  2  0  0  0  0
  3  2  1  0  0  0  0
  4  5  1  0  0  0  0
  5  6  2  0  0  0  0
  5 10  1  0  0  0  0
  6  7  1  0  0  0  0
  7 13  1  0  0  0  0
  7  8  2  0  0  0  0
  8 14  1  0  0  0  0
  9  8  1  0  0  0  0
  9 15  1  0  0  0  0
 10  9  2  0  0  0  0
 11  3  1  0  0  0  0
 12  6  1  0  0  0  0
 15 16  1  0  0  0  0
 16 17  2  0  0  0  0
 17 18  1  0  0  0  0
 19 17  1  0  0  0  0
 19 20  2  0  0  0  0
 21 19  1  0  0  0  0
 22 15  1  0  0  0  0
 22 21  1  0  0  0  0
 23 22  2  0  0  0  0
 24 21  1  0  0  0  0
 26 40  1  0  0  0  0
 26 27  1  0  0  0  0
 27 32  1  0  0  0  0
 28 27  2  0  0  0  0
 28 25  1  0  0  0  0
 29 28  1  0  0  0  0
 30 31  1  0  0  0  0
 30 29  2  0  0  0  0
 31 26  2  0  0  0  0
 33 29  1  0  0  0  0
 34 30  1  0  0  0  0
 35 31  1  0  0  0  0
 36 37  1  0  0  0  0
 37 38  2  0  0  0  0
 37 43  1  0  0  0  0
 38 44  1  0  0  0  0
 39 38  1  0  0  0  0
 40 39  2  0  0  0  0
 41 40  1  0  0  0  0
 41 36  2  0  0  0  0
 42 36  1  0  0  0  0
M  END
>  <minimizedAffinity>
-6.51247168

$$$$
