
 OpenBabel03242520463D

 23 24  0  0  0  0  0  0  0  0999 V2000
   36.2690   28.8810   40.8880 C   0  0  0  0  0  0  0  0  0  0  0  0
   35.0230   28.9500   40.7740 O   0  0  0  0  0  0  0  0  0  0  0  0
   37.4520   32.3340   40.4110 C   0  0  0  0  0  0  0  0  0  0  0  0
   36.6690   31.1700   40.3930 C   0  0  0  0  0  0  0  0  0  0  0  0
   37.1730   30.0030   40.9740 C   0  0  0  0  0  0  0  0  0  0  0  0
   38.3930   30.0530   41.5250 N   0  0  0  0  0  0  0  0  0  0  0  0
   39.1330   31.1780   41.5340 C   0  0  0  0  0  0  0  0  0  0  0  0
   38.6470   32.2880   40.9790 N   0  0  0  0  0  0  0  0  0  0  0  0
   36.9660   33.5290   39.8310 N   0  0  0  0  0  0  0  0  0  0  0  0
   35.6860   31.2340   39.9190 H   0  0  0  0  0  0  0  0  0  0  0  0
   40.1130   31.1750   41.9900 H   0  0  0  0  0  0  0  0  0  0  0  0
   37.1210   34.4050   40.3350 H   0  0  0  0  0  0  0  0  0  0  0  0
   36.4490   33.6530   38.9220 H   0  0  0  0  0  0  0  0  0  0  0  0
   38.9180   25.4570   39.4170 H   0  0  0  0  0  0  0  0  0  0  0  0
   38.3910   25.8810   40.1990 N   0  0  0  0  0  0  0  0  0  0  0  0
   37.7450   27.0430   39.9340 C   0  0  0  0  0  3  0  0  0  0  0  0
   37.0310   27.6380   40.9540 C   0  0  0  0  0  0  0  0  0  0  0  0
   36.9750   27.0640   42.2240 C   0  0  0  0  0  0  0  0  0  0  0  0
   36.3620   27.5160   43.2180 O   0  0  0  0  0  0  0  0  0  0  0  0
   37.6420   25.8970   42.4370 N   0  0  0  0  0  0  0  0  0  0  0  0
   38.3370   25.3250   41.4250 C   0  0  0  0  0  0  0  0  0  0  0  0
   38.9470   24.2460   41.6460 O   0  0  0  0  0  0  0  0  0  0  0  0
   37.6500   25.4010   43.3640 H   0  0  0  0  0  0  0  0  0  0  0  0
  1 17  1  0  0  0  0
  1  5  1  0  0  0  0
  2  1  2  0  0  0  0
  3  8  1  0  0  0  0
  4  3  2  0  0  0  0
  4  5  1  0  0  0  0
  5  6  2  0  0  0  0
  6  7  1  0  0  0  0
  7 11  1  0  0  0  0
  8  7  2  0  0  0  0
  9 12  1  0  0  0  0
  9  3  1  0  0  0  0
 10  4  1  0  0  0  0
 13  9  1  0  0  0  0
 14 15  1  0  0  0  0
 15 21  1  0  0  0  0
 16 15  1  0  0  0  0
 16 17  2  0  0  0  0
 17 18  1  0  0  0  0
 18 20  1  0  0  0  0
 18 19  2  0  0  0  0
 20 23  1  0  0  0  0
 21 22  2  0  0  0  0
 21 20  1  0  0  0  0
M  END
>  <minimizedAffinity>
-4.96928406

$$$$

 OpenBabel03242520463D

 23 24  0  0  0  0  0  0  0  0999 V2000
   39.1650   32.6620   40.4390 C   0  0  0  0  0  0  0  0  0  0  0  0
   38.9010   33.8560   40.7090 O   0  0  0  0  0  0  0  0  0  0  0  0
   41.4550   32.8890   37.5660 C   0  0  0  0  0  0  0  0  0  0  0  0
   40.6700   33.2090   38.6840 C   0  0  0  0  0  0  0  0  0  0  0  0
   39.9250   32.2000   39.3020 C   0  0  0  0  0  0  0  0  0  0  0  0
   39.9960   30.9640   38.7900 N   0  0  0  0  0  0  0  0  0  0  0  0
   40.7530   30.6730   37.7150 C   0  0  0  0  0  0  0  0  0  0  0  0
   41.4620   31.6390   37.1300 N   0  0  0  0  0  0  0  0  0  0  0  0
   42.2190   33.8900   36.9210 N   0  0  0  0  0  0  0  0  0  0  0  0
   40.6820   34.2470   39.0240 H   0  0  0  0  0  0  0  0  0  0  0  0
   40.7820   29.6610   37.3340 H   0  0  0  0  0  0  0  0  0  0  0  0
   43.1690   33.6530   36.6260 H   0  0  0  0  0  0  0  0  0  0  0  0
   41.9420   34.8800   36.6920 H   0  0  0  0  0  0  0  0  0  0  0  0
   39.5160   29.2670   43.4830 H   0  0  0  0  0  0  0  0  0  0  0  0
   38.9260   29.7730   42.8000 N   0  0  0  0  0  0  0  0  0  0  0  0
   39.5040   30.8170   42.1560 C   0  0  0  0  0  3  0  0  0  0  0  0
   38.7450   31.5150   41.2380 C   0  0  0  0  0  0  0  0  0  0  0  0
   37.4220   31.1600   40.9780 C   0  0  0  0  0  0  0  0  0  0  0  0
   36.6470   31.7200   40.1710 O   0  0  0  0  0  0  0  0  0  0  0  0
   36.8900   30.1030   41.6530 N   0  0  0  0  0  0  0  0  0  0  0  0
   37.6480   29.4280   42.5500 C   0  0  0  0  0  0  0  0  0  0  0  0
   37.1340   28.4560   43.1620 O   0  0  0  0  0  0  0  0  0  0  0  0
   35.9020   29.7730   41.5140 H   0  0  0  0  0  0  0  0  0  0  0  0
  1  2  2  0  0  0  0
  1 17  1  0  0  0  0
  3  4  1  0  0  0  0
  4 10  1  0  0  0  0
  4  5  2  0  0  0  0
  5  1  1  0  0  0  0
  6  5  1  0  0  0  0
  7  6  2  0  0  0  0
  8  3  2  0  0  0  0
  8  7  1  0  0  0  0
  9  3  1  0  0  0  0
 11  7  1  0  0  0  0
 12  9  1  0  0  0  0
 13  9  1  0  0  0  0
 15 14  1  0  0  0  0
 16 15  1  0  0  0  0
 17 16  2  0  0  0  0
 18 17  1  0  0  0  0
 18 20  1  0  0  0  0
 19 18  2  0  0  0  0
 20 21  1  0  0  0  0
 21 15  1  0  0  0  0
 21 22  2  0  0  0  0
 23 20  1  0  0  0  0
M  END
>  <minimizedAffinity>
-4.96335459

$$$$

 OpenBabel03242520463D

 23 24  0  0  0  0  0  0  0  0999 V2000
   37.8240   31.5810   39.6850 C   0  0  0  0  0  0  0  0  0  0  0  0
   36.7520   32.2270   39.6470 O   0  0  0  0  0  0  0  0  0  0  0  0
   37.6250   29.0650   42.3650 C   0  0  0  0  0  0  0  0  0  0  0  0
   37.5010   30.2530   41.6280 C   0  0  0  0  0  0  0  0  0  0  0  0
   38.0200   30.3050   40.3310 C   0  0  0  0  0  0  0  0  0  0  0  0
   38.6180   29.2070   39.8510 N   0  0  0  0  0  0  0  0  0  0  0  0
   38.7300   28.0750   40.5700 C   0  0  0  0  0  0  0  0  0  0  0  0
   38.2330   28.0310   41.8060 N   0  0  0  0  0  0  0  0  0  0  0  0
   37.1080   28.9850   43.6790 N   0  0  0  0  0  0  0  0  0  0  0  0
   36.9940   31.0920   42.1110 H   0  0  0  0  0  0  0  0  0  0  0  0
   39.2210   27.2110   40.1440 H   0  0  0  0  0  0  0  0  0  0  0  0
   36.6130   28.1310   43.9500 H   0  0  0  0  0  0  0  0  0  0  0  0
   37.1610   29.7020   44.4490 H   0  0  0  0  0  0  0  0  0  0  0  0
   42.1130   33.1530   39.4870 H   0  0  0  0  0  0  0  0  0  0  0  0
   41.2800   32.8190   38.9740 N   0  0  0  0  0  0  0  0  0  0  0  0
   40.2090   32.4630   39.7260 C   0  0  0  0  0  3  0  0  0  0  0  0
   39.0790   32.0110   39.0760 C   0  0  0  0  0  0  0  0  0  0  0  0
   39.0350   31.9210   37.6840 C   0  0  0  0  0  0  0  0  0  0  0  0
   38.0690   31.5260   36.9950 O   0  0  0  0  0  0  0  0  0  0  0  0
   40.1390   32.2900   36.9770 N   0  0  0  0  0  0  0  0  0  0  0  0
   41.2400   32.7320   37.6310 C   0  0  0  0  0  0  0  0  0  0  0  0
   42.2470   33.0670   36.9550 O   0  0  0  0  0  0  0  0  0  0  0  0
   40.1870   32.2520   35.9280 H   0  0  0  0  0  0  0  0  0  0  0  0
  1  5  1  0  0  0  0
  2  1  2  0  0  0  0
  3  9  1  0  0  0  0
  4 10  1  0  0  0  0
  4  3  2  0  0  0  0
  5  4  1  0  0  0  0
  6  5  2  0  0  0  0
  6  7  1  0  0  0  0
  7  8  2  0  0  0  0
  8  3  1  0  0  0  0
  9 12  1  0  0  0  0
  9 13  1  0  0  0  0
 11  7  1  0  0  0  0
 15 14  1  0  0  0  0
 15 16  1  0  0  0  0
 17  1  1  0  0  0  0
 17 16  2  0  0  0  0
 18 17  1  0  0  0  0
 19 18  2  0  0  0  0
 20 21  1  0  0  0  0
 20 18  1  0  0  0  0
 21 15  1  0  0  0  0
 22 21  2  0  0  0  0
 23 20  1  0  0  0  0
M  END
>  <minimizedAffinity>
-4.90698767

$$$$

 OpenBabel03242520463D

 23 24  0  0  0  0  0  0  0  0999 V2000
   38.5310   32.9710   39.8620 C   0  0  0  0  0  0  0  0  0  0  0  0
   38.0460   34.1200   39.9810 O   0  0  0  0  0  0  0  0  0  0  0  0
   36.3370   30.2490   41.0150 C   0  0  0  0  0  0  0  0  0  0  0  0
   36.8390   31.3760   40.3450 C   0  0  0  0  0  0  0  0  0  0  0  0
   38.1400   31.8060   40.6190 C   0  0  0  0  0  0  0  0  0  0  0  0
   38.8520   31.1150   41.5190 N   0  0  0  0  0  0  0  0  0  0  0  0
   38.3570   30.0370   42.1550 C   0  0  0  0  0  0  0  0  0  0  0  0
   37.1160   29.6310   41.8900 N   0  0  0  0  0  0  0  0  0  0  0  0
   35.0240   29.7920   40.7570 N   0  0  0  0  0  0  0  0  0  0  0  0
   36.1770   31.8680   39.6280 H   0  0  0  0  0  0  0  0  0  0  0  0
   38.9670   29.5080   42.8750 H   0  0  0  0  0  0  0  0  0  0  0  0
   34.8750   28.7840   40.6690 H   0  0  0  0  0  0  0  0  0  0  0  0
   34.1440   30.3590   40.6370 H   0  0  0  0  0  0  0  0  0  0  0  0
   40.4410   31.1180   36.1440 H   0  0  0  0  0  0  0  0  0  0  0  0
   40.5700   31.6560   37.0180 N   0  0  0  0  0  0  0  0  0  0  0  0
   39.4550   31.8920   37.7530 C   0  0  0  0  0  3  0  0  0  0  0  0
   39.5900   32.6070   38.9260 C   0  0  0  0  0  0  0  0  0  0  0  0
   40.8350   33.0760   39.3460 C   0  0  0  0  0  0  0  0  0  0  0  0
   41.0700   33.7310   40.3860 O   0  0  0  0  0  0  0  0  0  0  0  0
   41.9220   32.8110   38.5690 N   0  0  0  0  0  0  0  0  0  0  0  0
   41.7730   32.1080   37.4210 C   0  0  0  0  0  0  0  0  0  0  0  0
   42.7920   31.8760   36.7200 O   0  0  0  0  0  0  0  0  0  0  0  0
   42.8930   33.1290   38.8150 H   0  0  0  0  0  0  0  0  0  0  0  0
  1  2  2  0  0  0  0
  1  5  1  0  0  0  0
  3  8  1  0  0  0  0
  4  5  1  0  0  0  0
  4  3  2  0  0  0  0
  5  6  2  0  0  0  0
  6  7  1  0  0  0  0
  7 11  1  0  0  0  0
  8  7  2  0  0  0  0
  9  3  1  0  0  0  0
 10  4  1  0  0  0  0
 12  9  1  0  0  0  0
 13  9  1  0  0  0  0
 14 15  1  0  0  0  0
 15 21  1  0  0  0  0
 15 16  1  0  0  0  0
 16 17  2  0  0  0  0
 17 18  1  0  0  0  0
 17  1  1  0  0  0  0
 18 19  2  0  0  0  0
 20 23  1  0  0  0  0
 20 18  1  0  0  0  0
 21 20  1  0  0  0  0
 22 21  2  0  0  0  0
M  END
>  <minimizedAffinity>
-4.90199471

$$$$

 OpenBabel03242520463D

 23 24  0  0  0  0  0  0  0  0999 V2000
   37.2240   28.5720   42.4320 C   0  0  0  0  0  0  0  0  0  0  0  0
   37.3130   28.5110   43.6800 O   0  0  0  0  0  0  0  0  0  0  0  0
   37.3470   25.0570   41.3460 C   0  0  0  0  0  0  0  0  0  0  0  0
   37.4470   26.2290   42.1110 C   0  0  0  0  0  0  0  0  0  0  0  0
   37.0740   27.4490   41.5390 C   0  0  0  0  0  0  0  0  0  0  0  0
   36.6350   27.4390   40.2730 N   0  0  0  0  0  0  0  0  0  0  0  0
   36.5450   26.3060   39.5510 C   0  0  0  0  0  0  0  0  0  0  0  0
   36.9020   25.1460   40.1020 N   0  0  0  0  0  0  0  0  0  0  0  0
   37.7180   23.8100   41.9000 N   0  0  0  0  0  0  0  0  0  0  0  0
   37.8170   26.1290   43.1350 H   0  0  0  0  0  0  0  0  0  0  0  0
   36.1850   26.3430   38.5320 H   0  0  0  0  0  0  0  0  0  0  0  0
   37.1190   23.0030   41.7100 H   0  0  0  0  0  0  0  0  0  0  0  0
   38.5520   23.5830   42.5020 H   0  0  0  0  0  0  0  0  0  0  0  0
   35.5910   32.1950   40.1680 H   0  0  0  0  0  0  0  0  0  0  0  0
   36.4190   31.6660   40.4920 N   0  0  0  0  0  0  0  0  0  0  0  0
   36.1760   30.5380   41.2050 C   0  0  0  0  0  3  0  0  0  0  0  0
   37.2570   29.8070   41.6540 C   0  0  0  0  0  0  0  0  0  0  0  0
   38.5640   30.2140   41.3860 C   0  0  0  0  0  0  0  0  0  0  0  0
   39.6120   29.6320   41.7430 O   0  0  0  0  0  0  0  0  0  0  0  0
   38.7520   31.3550   40.6660 N   0  0  0  0  0  0  0  0  0  0  0  0
   37.6800   32.0600   40.2320 C   0  0  0  0  0  0  0  0  0  0  0  0
   37.8790   33.1120   39.5690 O   0  0  0  0  0  0  0  0  0  0  0  0
   39.7030   31.7290   40.4220 H   0  0  0  0  0  0  0  0  0  0  0  0
  1  2  2  0  0  0  0
  3  9  1  0  0  0  0
  3  4  1  0  0  0  0
  4 10  1  0  0  0  0
  5  4  2  0  0  0  0
  5  1  1  0  0  0  0
  6  5  1  0  0  0  0
  7  8  1  0  0  0  0
  7  6  2  0  0  0  0
  8  3  2  0  0  0  0
  9 13  1  0  0  0  0
 11  7  1  0  0  0  0
 12  9  1  0  0  0  0
 14 15  1  0  0  0  0
 15 16  1  0  0  0  0
 16 17  2  0  0  0  0
 17  1  1  0  0  0  0
 18 17  1  0  0  0  0
 18 19  2  0  0  0  0
 20 18  1  0  0  0  0
 21 15  1  0  0  0  0
 21 20  1  0  0  0  0
 22 21  2  0  0  0  0
 23 20  1  0  0  0  0
M  END
>  <minimizedAffinity>
-4.86856937

$$$$

 OpenBabel03242520463D

 23 24  0  0  0  0  0  0  0  0999 V2000
   36.2590   29.0940   40.7520 C   0  0  0  0  0  0  0  0  0  0  0  0
   35.0200   28.9220   40.6920 O   0  0  0  0  0  0  0  0  0  0  0  0
   37.3690   32.3990   39.5710 C   0  0  0  0  0  0  0  0  0  0  0  0
   36.6990   31.3760   40.2580 C   0  0  0  0  0  0  0  0  0  0  0  0
   37.0190   30.0450   39.9770 C   0  0  0  0  0  0  0  0  0  0  0  0
   37.9610   29.8080   39.0530 N   0  0  0  0  0  0  0  0  0  0  0  0
   38.5950   30.8010   38.4020 C   0  0  0  0  0  0  0  0  0  0  0  0
   38.2850   32.0680   38.6740 N   0  0  0  0  0  0  0  0  0  0  0  0
   37.0650   33.7540   39.8360 N   0  0  0  0  0  0  0  0  0  0  0  0
   35.9470   31.6740   40.9930 H   0  0  0  0  0  0  0  0  0  0  0  0
   39.3500   30.5650   37.6630 H   0  0  0  0  0  0  0  0  0  0  0  0
   37.8420   34.4170   39.9050 H   0  0  0  0  0  0  0  0  0  0  0  0
   36.1200   34.1980   39.9790 H   0  0  0  0  0  0  0  0  0  0  0  0
   39.0500   28.3480   44.2960 H   0  0  0  0  0  0  0  0  0  0  0  0
   38.5930   27.9710   43.4480 N   0  0  0  0  0  0  0  0  0  0  0  0
   37.7880   28.8220   42.7660 C   0  0  0  0  0  3  0  0  0  0  0  0
   37.1610   28.3540   41.6300 C   0  0  0  0  0  0  0  0  0  0  0  0
   37.3470   27.0430   41.1920 C   0  0  0  0  0  0  0  0  0  0  0  0
   36.8310   26.5160   40.1810 O   0  0  0  0  0  0  0  0  0  0  0  0
   38.1670   26.2290   41.9140 N   0  0  0  0  0  0  0  0  0  0  0  0
   38.7750   26.7050   43.0270 C   0  0  0  0  0  0  0  0  0  0  0  0
   39.5270   25.9340   43.6780 O   0  0  0  0  0  0  0  0  0  0  0  0
   38.3590   25.2310   41.6520 H   0  0  0  0  0  0  0  0  0  0  0  0
  1 17  1  0  0  0  0
  2  1  2  0  0  0  0
  3  9  1  0  0  0  0
  3  4  1  0  0  0  0
  4 10  1  0  0  0  0
  5  4  2  0  0  0  0
  5  1  1  0  0  0  0
  6  5  1  0  0  0  0
  7  8  1  0  0  0  0
  7  6  2  0  0  0  0
  8  3  2  0  0  0  0
  9 12  1  0  0  0  0
  9 13  1  0  0  0  0
 11  7  1  0  0  0  0
 15 14  1  0  0  0  0
 16 15  1  0  0  0  0
 17 16  2  0  0  0  0
 18 17  1  0  0  0  0
 18 20  1  0  0  0  0
 19 18  2  0  0  0  0
 20 21  1  0  0  0  0
 21 15  1  0  0  0  0
 21 22  2  0  0  0  0
 23 20  1  0  0  0  0
M  END
>  <minimizedAffinity>
-4.8624649

$$$$

 OpenBabel03242520463D

 23 24  0  0  0  0  0  0  0  0999 V2000
   36.9680   31.1790   38.6940 C   0  0  0  0  0  0  0  0  0  0  0  0
   37.2820   32.3420   38.3510 O   0  0  0  0  0  0  0  0  0  0  0  0
   36.5630   29.0840   35.6950 C   0  0  0  0  0  0  0  0  0  0  0  0
   37.0370   30.0300   36.6160 C   0  0  0  0  0  0  0  0  0  0  0  0
   36.3790   30.1750   37.8410 C   0  0  0  0  0  0  0  0  0  0  0  0
   35.3150   29.3960   38.0770 N   0  0  0  0  0  0  0  0  0  0  0  0
   34.8710   28.4930   37.1830 C   0  0  0  0  0  0  0  0  0  0  0  0
   35.5030   28.3590   36.0170 N   0  0  0  0  0  0  0  0  0  0  0  0
   37.2090   28.9160   34.4480 N   0  0  0  0  0  0  0  0  0  0  0  0
   37.9130   30.6160   36.3270 H   0  0  0  0  0  0  0  0  0  0  0  0
   34.0080   27.8840   37.4140 H   0  0  0  0  0  0  0  0  0  0  0  0
   37.3510   27.9630   34.1050 H   0  0  0  0  0  0  0  0  0  0  0  0
   37.5810   29.6570   33.7980 H   0  0  0  0  0  0  0  0  0  0  0  0
   35.8860   30.0940   43.0030 H   0  0  0  0  0  0  0  0  0  0  0  0
   36.5910   30.0740   42.2460 N   0  0  0  0  0  0  0  0  0  0  0  0
   36.2310   30.6400   41.0670 C   0  0  0  0  0  3  0  0  0  0  0  0
   37.1470   30.6300   40.0350 C   0  0  0  0  0  0  0  0  0  0  0  0
   38.4070   30.0540   40.1950 C   0  0  0  0  0  0  0  0  0  0  0  0
   39.3100   29.9890   39.3300 O   0  0  0  0  0  0  0  0  0  0  0  0
   38.7180   29.4990   41.3990 N   0  0  0  0  0  0  0  0  0  0  0  0
   37.8080   29.5180   42.4020 C   0  0  0  0  0  0  0  0  0  0  0  0
   38.1180   28.9980   43.5060 O   0  0  0  0  0  0  0  0  0  0  0  0
   39.6440   29.0470   41.5990 H   0  0  0  0  0  0  0  0  0  0  0  0
  1 17  1  0  0  0  0
  2  1  2  0  0  0  0
  3  8  2  0  0  0  0
  3  4  1  0  0  0  0
  4  5  2  0  0  0  0
  5  6  1  0  0  0  0
  5  1  1  0  0  0  0
  7 11  1  0  0  0  0
  7  6  2  0  0  0  0
  8  7  1  0  0  0  0
  9  3  1  0  0  0  0
 10  4  1  0  0  0  0
 12  9  1  0  0  0  0
 13  9  1  0  0  0  0
 15 21  1  0  0  0  0
 15 14  1  0  0  0  0
 16 15  1  0  0  0  0
 17 18  1  0  0  0  0
 17 16  2  0  0  0  0
 18 20  1  0  0  0  0
 19 18  2  0  0  0  0
 20 23  1  0  0  0  0
 20 21  1  0  0  0  0
 21 22  2  0  0  0  0
M  END
>  <minimizedAffinity>
-4.75611448

$$$$

 OpenBabel03242520463D

 23 24  0  0  0  0  0  0  0  0999 V2000
   38.7310   30.5930   39.9250 C   0  0  0  0  0  0  0  0  0  0  0  0
   39.5900   31.4580   40.2080 O   0  0  0  0  0  0  0  0  0  0  0  0
   37.6610   31.4820   36.5170 C   0  0  0  0  0  0  0  0  0  0  0  0
   38.2300   31.5260   37.7990 C   0  0  0  0  0  0  0  0  0  0  0  0
   38.1000   30.4170   38.6390 C   0  0  0  0  0  0  0  0  0  0  0  0
   37.4290   29.3540   38.1750 N   0  0  0  0  0  0  0  0  0  0  0  0
   36.8880   29.3270   36.9420 C   0  0  0  0  0  0  0  0  0  0  0  0
   37.0150   30.3880   36.1450 N   0  0  0  0  0  0  0  0  0  0  0  0
   37.7780   32.5900   35.6460 N   0  0  0  0  0  0  0  0  0  0  0  0
   38.7580   32.4410   38.0820 H   0  0  0  0  0  0  0  0  0  0  0  0
   36.3540   28.4480   36.6060 H   0  0  0  0  0  0  0  0  0  0  0  0
   37.9870   32.4080   34.6620 H   0  0  0  0  0  0  0  0  0  0  0  0
   37.6780   33.6150   35.8720 H   0  0  0  0  0  0  0  0  0  0  0  0
   38.5790   26.6890   42.3010 H   0  0  0  0  0  0  0  0  0  0  0  0
   38.1330   27.5950   42.0770 N   0  0  0  0  0  0  0  0  0  0  0  0
   38.7770   28.3810   41.1800 C   0  0  0  0  0  3  0  0  0  0  0  0
   38.2110   29.5980   40.8590 C   0  0  0  0  0  0  0  0  0  0  0  0
   37.0110   30.0110   41.4390 C   0  0  0  0  0  0  0  0  0  0  0  0
   36.4120   31.0880   41.2220 O   0  0  0  0  0  0  0  0  0  0  0  0
   36.4060   29.1820   42.3340 N   0  0  0  0  0  0  0  0  0  0  0  0
   36.9750   27.9910   42.6380 C   0  0  0  0  0  0  0  0  0  0  0  0
   36.3970   27.2430   43.4690 O   0  0  0  0  0  0  0  0  0  0  0  0
   35.5020   29.4190   42.8140 H   0  0  0  0  0  0  0  0  0  0  0  0
  1  2  2  0  0  0  0
  1 17  1  0  0  0  0
  3  4  1  0  0  0  0
  4 10  1  0  0  0  0
  4  5  2  0  0  0  0
  5  1  1  0  0  0  0
  6  5  1  0  0  0  0
  7  6  2  0  0  0  0
  8  3  2  0  0  0  0
  8  7  1  0  0  0  0
  9 13  1  0  0  0  0
  9  3  1  0  0  0  0
 11  7  1  0  0  0  0
 12  9  1  0  0  0  0
 15 14  1  0  0  0  0
 15 21  1  0  0  0  0
 16 15  1  0  0  0  0
 17 16  2  0  0  0  0
 17 18  1  0  0  0  0
 18 20  1  0  0  0  0
 19 18  2  0  0  0  0
 20 21  1  0  0  0  0
 20 23  1  0  0  0  0
 21 22  2  0  0  0  0
M  END
>  <minimizedAffinity>
-4.72566128

$$$$

 OpenBabel03242520463D

 23 24  0  0  0  0  0  0  0  0999 V2000
   37.3140   30.7030   40.9820 C   0  0  0  0  0  0  0  0  0  0  0  0
   36.1090   31.0360   40.9030 O   0  0  0  0  0  0  0  0  0  0  0  0
   39.4630   32.1840   38.3860 C   0  0  0  0  0  0  0  0  0  0  0  0
   38.4280   31.4980   39.0410 C   0  0  0  0  0  0  0  0  0  0  0  0
   38.4320   31.4350   40.4370 C   0  0  0  0  0  0  0  0  0  0  0  0
   39.4340   32.0390   41.0890 N   0  0  0  0  0  0  0  0  0  0  0  0
   40.4200   32.6930   40.4470 C   0  0  0  0  0  0  0  0  0  0  0  0
   40.4120   32.7490   39.1150 N   0  0  0  0  0  0  0  0  0  0  0  0
   39.4840   32.2630   36.9740 N   0  0  0  0  0  0  0  0  0  0  0  0
   37.6570   31.0390   38.4160 H   0  0  0  0  0  0  0  0  0  0  0  0
   41.2110   33.1670   41.0130 H   0  0  0  0  0  0  0  0  0  0  0  0
   39.7320   33.1580   36.5460 H   0  0  0  0  0  0  0  0  0  0  0  0
   39.2730   31.5060   36.2720 H   0  0  0  0  0  0  0  0  0  0  0  0
   39.1480   28.1540   44.3060 H   0  0  0  0  0  0  0  0  0  0  0  0
   38.7440   28.1920   43.3550 N   0  0  0  0  0  0  0  0  0  0  0  0
   38.3470   29.4110   42.9140 C   0  0  0  0  0  3  0  0  0  0  0  0
   37.8030   29.5000   41.6490 C   0  0  0  0  0  0  0  0  0  0  0  0
   37.6630   28.3690   40.8430 C   0  0  0  0  0  0  0  0  0  0  0  0
   37.1850   28.3340   39.6870 O   0  0  0  0  0  0  0  0  0  0  0  0
   38.0780   27.1690   41.3350 N   0  0  0  0  0  0  0  0  0  0  0  0
   38.6100   27.0990   42.5790 C   0  0  0  0  0  0  0  0  0  0  0  0
   38.9860   25.9790   43.0110 O   0  0  0  0  0  0  0  0  0  0  0  0
   38.0070   26.2720   40.7920 H   0  0  0  0  0  0  0  0  0  0  0  0
  1 17  1  0  0  0  0
  2  1  2  0  0  0  0
  3  4  2  0  0  0  0
  3  8  1  0  0  0  0
  4  5  1  0  0  0  0
  5  1  1  0  0  0  0
  5  6  2  0  0  0  0
  7 11  1  0  0  0  0
  7  6  1  0  0  0  0
  8  7  2  0  0  0  0
  9  3  1  0  0  0  0
 10  4  1  0  0  0  0
 12  9  1  0  0  0  0
 13  9  1  0  0  0  0
 15 14  1  0  0  0  0
 16 15  1  0  0  0  0
 17 16  2  0  0  0  0
 18 20  1  0  0  0  0
 18 17  1  0  0  0  0
 19 18  2  0  0  0  0
 20 21  1  0  0  0  0
 21 22  2  0  0  0  0
 21 15  1  0  0  0  0
 23 20  1  0  0  0  0
M  END
>  <minimizedAffinity>
-4.68909121

$$$$
