
 OpenBabel03252506183D

 24 25  0  0  0  0  0  0  0  0999 V2000
   44.7740   35.6370   43.7220 C   0  0  0  0  0  0  0  0  0  0  0  0
   44.0530   35.3970   42.5380 C   0  0  0  0  0  0  0  0  0  0  0  0
   43.9890   34.1010   42.0470 C   0  0  0  0  0  0  0  0  0  0  0  0
   44.6270   33.1290   42.7370 N   0  0  0  0  0  0  0  0  0  0  0  0
   45.3140   33.3820   43.8730 C   0  0  0  0  0  0  0  0  0  0  0  0
   45.3840   34.6200   44.3560 N   0  0  0  0  0  0  0  0  0  0  0  0
   43.5870   36.2480   42.0790 H   0  0  0  0  0  0  0  0  0  0  0  0
   43.4340   33.9160   41.1350 H   0  0  0  0  0  0  0  0  0  0  0  0
   45.9260   32.2470   44.4720 N   0  0  0  0  0  0  0  0  0  0  0  0
   46.0890   31.0670   43.8090 C   0  0  0  0  0  3  0  0  0  0  0  0
   46.6880   29.9800   44.4160 C   0  0  0  0  0  0  0  0  0  0  0  0
   46.7950   29.0570   43.8410 H   0  0  0  0  0  0  0  0  0  0  0  0
   47.1300   30.0850   45.7190 C   0  0  0  0  0  0  0  0  0  0  0  0
   47.6680   29.0860   46.2440 O   0  0  0  0  0  0  0  0  0  0  0  0
   46.9470   31.2810   46.3410 N   0  0  0  0  0  0  0  0  0  0  0  0
   46.3620   32.3310   45.7370 C   0  0  0  0  0  0  0  0  0  0  0  0
   46.2630   33.3780   46.4530 O   0  0  0  0  0  0  0  0  0  0  0  0
   47.3180   31.2610   47.3360 H   0  0  0  0  0  0  0  0  0  0  0  0
   44.8520   37.0070   44.2580 C   0  0  0  0  0  3  0  0  0  0  0  0
   45.3280   37.9410   43.4440 C   0  0  0  0  0  3  0  0  0  0  0  0
   45.4330   39.3490   43.9250 C   0  0  0  0  0  0  0  0  0  0  0  0
   45.4280   39.9980   43.0050 H   0  0  0  0  0  0  0  0  0  0  0  0
   44.6410   39.6200   44.6370 H   0  0  0  0  0  0  0  0  0  0  0  0
   46.4090   39.4750   44.4340 H   0  0  0  0  0  0  0  0  0  0  0  0
  1 19  1  0  0  0  0
  1  6  1  0  0  0  0
  2  1  2  0  0  0  0
  3  2  1  0  0  0  0
  3  4  2  0  0  0  0
  4  5  1  0  0  0  0
  5  6  2  0  0  0  0
  5  9  1  0  0  0  0
  7  2  1  0  0  0  0
  8  3  1  0  0  0  0
  9 16  1  0  0  0  0
 10 11  2  0  0  0  0
 10  9  1  0  0  0  0
 11 13  1  0  0  0  0
 12 11  1  0  0  0  0
 13 14  2  0  0  0  0
 13 15  1  0  0  0  0
 15 18  1  0  0  0  0
 16 15  1  0  0  0  0
 16 17  2  0  0  0  0
 20 21  1  0  0  0  0
 20 19  2  0  0  0  0
 21 24  1  0  0  0  0
 21 23  1  0  0  0  0
 22 21  1  0  0  0  0
M  END
>  <minimizedAffinity>
-3.78563857

>  <minimizedRMSD>
0.519521236

$$$$
