
 OpenBabel03252501063D

 41 44  0  0  1  0  0  0  0  0999 V2000
   48.5860   32.3030   37.9590 O   0  0  0  0  0  0  0  0  0  0  0  0
   48.1030   33.7310   38.1990 P   0  0  2  0  0  0  0  0  0  0  0  0
   49.3200   34.7240   37.5580 O   0  0  0  0  0  0  0  0  0  0  0  0
   48.8820   35.5850   37.3010 H   0  0  0  0  0  0  0  0  0  0  0  0
   47.7390   34.0190   39.7650 O   0  0  0  0  0  0  0  0  0  0  0  0
   47.9450   35.3880   41.7480 C   0  0  1  0  0  0  0  0  0  0  0  0
   49.2030   34.6440   41.6970 C   0  0  0  0  0  0  0  0  0  0  0  0
   48.4080   34.9840   40.4220 C   0  0  1  0  0  0  0  0  0  0  0  0
   47.9360   36.4370   42.0600 H   0  0  0  0  0  0  0  0  0  0  0  0
   49.2650   33.5460   41.8410 H   0  0  0  0  0  0  0  0  0  0  0  0
   50.1760   35.1300   41.8690 H   0  0  0  0  0  0  0  0  0  0  0  0
   48.9790   35.6880   39.7940 H   0  0  0  0  0  0  0  0  0  0  0  0
   45.8810   32.9490   43.7780 C   0  0  0  0  0  0  0  0  0  0  0  0
   46.9810   33.6460   43.2880 C   0  0  0  0  0  0  0  0  0  0  0  0
   46.7720   34.6310   42.3030 C   0  0  0  0  0  0  0  0  0  0  0  0
   45.5100   34.8730   41.8600 N   0  0  0  0  0  0  0  0  0  0  0  0
   44.4560   34.1760   42.3560 C   0  0  0  0  0  0  0  0  0  0  0  0
   44.6390   33.2180   43.3110 N   0  0  0  0  0  0  0  0  0  0  0  0
   46.0710   32.2020   44.5300 H   0  0  0  0  0  0  0  0  0  0  0  0
   47.9550   33.4270   43.6610 H   0  0  0  0  0  0  0  0  0  0  0  0
   43.4660   34.4080   41.9660 H   0  0  0  0  0  0  0  0  0  0  0  0
   46.7500   33.9000   37.2190 O   0  0  0  0  0  0  0  0  0  0  0  0
   45.6630   33.0430   37.2430 C   0  0  0  0  0  0  0  0  0  0  0  0
   45.4170   31.9460   36.4360 C   0  0  0  0  0  0  0  0  0  0  0  0
   44.2910   31.1940   36.5820 C   0  0  0  0  0  0  0  0  0  0  0  0
   43.3620   31.5170   37.5500 C   0  0  0  0  0  0  0  0  0  0  0  0
   43.6400   32.6270   38.3450 C   0  0  0  0  0  0  0  0  0  0  0  0
   44.7660   33.3630   38.1840 N   0  0  0  0  0  0  0  0  0  0  0  0
   46.1880   31.7550   35.7010 H   0  0  0  0  0  0  0  0  0  0  0  0
   44.1820   30.3580   35.9110 H   0  0  0  0  0  0  0  0  0  0  0  0
   42.4850   30.9290   37.6620 H   0  0  0  0  0  0  0  0  0  0  0  0
   42.6640   32.9380   39.3380 N   0  0  0  0  0  0  0  0  0  0  0  0
   42.2160   32.0850   40.2670 C   0  0  0  0  0  0  0  0  0  0  0  0
   41.2660   32.4700   41.1940 C   0  0  0  0  0  0  0  0  0  0  0  0
   40.9060   31.7650   41.9490 H   0  0  0  0  0  0  0  0  0  0  0  0
   40.7700   33.7680   41.1570 C   0  0  0  0  0  0  0  0  0  0  0  0
   39.9050   34.1540   41.9850 O   0  0  0  0  0  0  0  0  0  0  0  0
   41.2560   34.6020   40.1930 N   0  0  0  0  0  0  0  0  0  0  0  0
   42.1890   34.2100   39.2890 C   0  0  0  0  0  0  0  0  0  0  0  0
   42.5110   35.1220   38.4800 O   0  0  0  0  0  0  0  0  0  0  0  0
   40.8380   35.5660   40.2240 H   0  0  0  0  0  0  0  0  0  0  0  0
  2  1  2  6  0  0  0
  2  5  1  0  0  0  0
  3  2  1  0  0  0  0
  4  3  1  0  0  0  0
  5  8  1  0  0  0  0
  6  9  1  1  0  0  0
  6 15  1  0  0  0  0
  7  6  1  0  0  0  0
  7 10  1  0  0  0  0
  7 11  1  0  0  0  0
  8 12  1  6  0  0  0
  8  7  1  0  0  0  0
  8  6  1  0  0  0  0
 13 19  1  0  0  0  0
 14 20  1  0  0  0  0
 14 13  2  0  0  0  0
 15 14  1  0  0  0  0
 16 15  2  0  0  0  0
 16 17  1  0  0  0  0
 17 18  2  0  0  0  0
 18 13  1  0  0  0  0
 21 17  1  0  0  0  0
 22 23  1  0  0  0  0
 22  2  1  0  0  0  0
 23 28  1  0  0  0  0
 24 25  1  0  0  0  0
 24 23  2  0  0  0  0
 25 26  2  0  0  0  0
 26 31  1  0  0  0  0
 26 27  1  0  0  0  0
 27 32  1  0  0  0  0
 28 27  2  0  0  0  0
 29 24  1  0  0  0  0
 30 25  1  0  0  0  0
 32 33  1  0  0  0  0
 33 34  2  0  0  0  0
 34 35  1  0  0  0  0
 36 34  1  0  0  0  0
 36 37  2  0  0  0  0
 38 41  1  0  0  0  0
 38 36  1  0  0  0  0
 39 32  1  0  0  0  0
 39 38  1  0  0  0  0
 40 39  2  0  0  0  0
M  END
>  <minimizedAffinity>
-5.79829931

>  <minimizedRMSD>
1.00344479

$$$$
