REMARK  Name = 
REMARK  5 active torsions:
REMARK  status: ('A' for Active; 'I' for Inactive)
REMARK    1  A    between atoms: C_1  and  N_5
REMARK    2  A    between atoms: C_1  and  C_13
REMARK    3  A    between atoms: C_2  and  C_11
REMARK    4  A    between atoms: C_13  and  C_15
REMARK    5  A    between atoms: C_22  and  N_37
REMARK                            x       y       z     vdW  Elec       q    Type
REMARK                         _______ _______ _______ _____ _____    ______ ____
ROOT
ATOM      1  C   UNL     1      45.118  27.549  47.906  0.00  0.00    +0.000 A 
ATOM      2  C   UNL     1      45.194  28.907  47.645  0.00  0.00    +0.000 A 
ATOM      3  C   UNL     1      44.364  29.382  46.633  0.00  0.00    +0.000 A 
ATOM      4  C   UNL     1      43.513  28.563  45.925  0.00  0.00    +0.000 A 
ATOM      5  N   UNL     1      42.628  28.730  44.931  0.00  0.00    +0.000 N 
ATOM      6  C   UNL     1      42.047  27.569  44.599  0.00  0.00    +0.000 A 
ATOM      7  C   UNL     1      42.556  26.566  45.400  0.00  0.00    +0.000 A 
ATOM      8  C   UNL     1      43.455  27.215  46.203  0.00  0.00    +0.000 A 
ATOM      9  C   UNL     1      44.275  26.731  47.206  0.00  0.00    +0.000 A 
ATOM     10  H   UNL     1      45.790  27.235  48.708  0.00  0.00    +0.000 HD
ATOM     11  H   UNL     1      44.315  30.417  46.319  0.00  0.00    +0.000 HD
ATOM     12  H   UNL     1      42.407  29.654  44.461  0.00  0.00    +0.000 HD
ATOM     13  H   UNL     1      41.298  27.451  43.825  0.00  0.00    +0.000 HD
ATOM     14  H   UNL     1      42.322  25.511  45.416  0.00  0.00    +0.000 HD
ENDROOT
BRANCH   9  15
ATOM     15  N   UNL     1      44.255  25.344  47.536  0.00  0.00    +0.000 N 
ATOM     16  C   UNL     1      45.221  24.439  47.291  0.00  0.00    +0.000 A 
ATOM     17  C   UNL     1      45.015  23.123  47.692  0.00  0.00    +0.000 A 
ATOM     18  H   UNL     1      45.810  22.418  47.481  0.00  0.00    +0.000 HD
ATOM     19  C   UNL     1      43.847  22.754  48.327  0.00  0.00    +0.000 A 
ATOM     20  O   UNL     1      43.657  21.565  48.691  0.00  0.00    +0.000 OA
ATOM     21  N   UNL     1      42.899  23.707  48.552  0.00  0.00    +0.000 N 
ATOM     22  C   UNL     1      43.117  24.975  48.157  0.00  0.00    +0.000 A 
ATOM     23  O   UNL     1      42.154  25.765  48.427  0.00  0.00    +0.000 OA
ATOM     24  H   UNL     1      42.017  23.388  49.041  0.00  0.00    +0.000 HD
ENDBRANCH   9  15
BRANCH   2  25
ATOM     25  C   UNL     1      46.012  29.936  48.265  0.00  0.00    +0.000 C 
ATOM     26  H   UNL     1      45.443  30.884  48.409  0.00  0.00    +0.000 HD
ATOM     27  H   UNL     1      46.220  29.599  49.321  0.00  0.00    +0.000 HD
BRANCH  25  28
ATOM     28  C   UNL     1      47.331  30.215  47.647  0.00  0.00    +0.000 C 
ATOM     29  H   UNL     1      47.941  30.780  48.408  0.00  0.00    +0.000 HD
ATOM     30  H   UNL     1      47.849  29.285  47.431  0.00  0.00    +0.000 HD
BRANCH  28  34
ATOM     31  C   UNL     1      46.559  32.655  45.156  0.00  0.00    +0.000 A 
ATOM     32  C   UNL     1      47.276  31.707  44.417  0.00  0.00    +0.000 A 
ATOM     33  C   UNL     1      47.646  30.696  45.243  0.00  0.00    +0.000 A 
ATOM     34  N   UNL     1      47.174  31.010  46.448  0.00  0.00    +0.000 N 
ATOM     35  N   UNL     1      46.516  32.186  46.415  0.00  0.00    +0.000 NA
ATOM     36  H   UNL     1      47.522  31.732  43.354  0.00  0.00    +0.000 HD
ATOM     37  H   UNL     1      48.215  29.798  44.993  0.00  0.00    +0.000 HD
BRANCH  31  42
ATOM     38  C   UNL     1      44.574  35.703  44.832  0.00  0.00    +0.000 A 
ATOM     39  C   UNL     1      44.952  36.192  43.576  0.00  0.00    +0.000 A 
ATOM     40  C   UNL     1      45.888  35.465  42.852  0.00  0.00    +0.000 A 
ATOM     41  N   UNL     1      46.362  34.340  43.418  0.00  0.00    +0.000 NA
ATOM     42  C   UNL     1      45.996  33.882  44.617  0.00  0.00    +0.000 A 
ATOM     43  N   UNL     1      45.099  34.573  45.318  0.00  0.00    +0.000 NA
ATOM     44  H   UNL     1      43.841  36.295  45.371  0.00  0.00    +0.000 HD
ATOM     45  H   UNL     1      44.591  37.080  43.105  0.00  0.00    +0.000 HD
ATOM     46  H   UNL     1      46.260  35.737  41.872  0.00  0.00    +0.000 HD
ENDBRANCH  31  42
ENDBRANCH  28  34
ENDBRANCH  25  28
ENDBRANCH   2  25
TORSDOF 5
