
 OpenBabel03252509033D

 49 51  0  0  1  0  0  0  0  0999 V2000
   46.7510   34.4360   43.3180 N   0  0  0  0  0  0  0  0  0  0  0  0
   46.4980   34.8950   42.0060 C   0  0  0  0  0  0  0  0  0  0  0  0
   45.0530   34.7360   41.5640 C   0  0  0  0  0  0  0  0  0  0  0  0
   44.0450   34.9310   42.6710 C   0  0  0  0  0  0  0  0  0  0  0  0
   44.7260   35.3510   43.9620 C   0  0  0  0  0  0  0  0  0  0  0  0
   45.7510   34.1710   44.2180 C   0  0  2  0  0  0  0  0  0  0  0  0
   46.7270   35.9890   41.9820 H   0  0  0  0  0  0  0  0  0  0  0  0
   47.1050   34.4460   41.2130 H   0  0  0  0  0  0  0  0  0  0  0  0
   44.8970   33.7690   41.0300 H   0  0  0  0  0  0  0  0  0  0  0  0
   44.8450   35.5140   40.7980 H   0  0  0  0  0  0  0  0  0  0  0  0
   43.5790   33.9410   42.8710 H   0  0  0  0  0  0  0  0  0  0  0  0
   43.2190   35.6100   42.4000 H   0  0  0  0  0  0  0  0  0  0  0  0
   43.9920   35.3690   44.7740 H   0  0  0  0  0  0  0  0  0  0  0  0
   45.2870   36.2760   43.8310 H   0  0  0  0  0  0  0  0  0  0  0  0
   45.1970   33.2230   44.0630 H   0  0  0  0  0  0  0  0  0  0  0  0
   48.0210   33.7790   43.4760 C   0  0  0  0  0  0  0  0  0  0  0  0
   48.2540   33.8070   44.5600 H   0  0  0  0  0  0  0  0  0  0  0  0
   48.7660   34.3850   42.9190 H   0  0  0  0  0  0  0  0  0  0  0  0
   47.8890   32.3930   42.9570 C   0  0  0  0  0  0  0  0  0  0  0  0
   46.9150   32.2300   42.4320 H   0  0  0  0  0  0  0  0  0  0  0  0
   47.9550   31.6470   43.7570 H   0  0  0  0  0  0  0  0  0  0  0  0
   51.2610   32.0740   41.3330 C   0  0  0  0  0  0  0  0  0  0  0  0
   50.2520   32.3020   42.2870 C   0  0  0  0  0  0  0  0  0  0  0  0
   48.9360   32.1470   41.9350 C   0  0  0  0  0  0  0  0  0  0  0  0
   48.6750   31.7790   40.6760 N   0  0  0  0  0  0  0  0  0  0  0  0
   49.6270   31.5610   39.7610 C   0  0  0  0  0  0  0  0  0  0  0  0
   50.9340   31.7050   40.0750 N   0  0  0  0  0  0  0  0  0  0  0  0
   52.2700   32.2180   41.6900 H   0  0  0  0  0  0  0  0  0  0  0  0
   50.4860   32.6020   43.3060 H   0  0  0  0  0  0  0  0  0  0  0  0
   49.4310   31.2630   38.7390 H   0  0  0  0  0  0  0  0  0  0  0  0
   46.1060   34.4200   45.5300 O   0  0  0  0  0  0  0  0  0  0  0  0
   45.5740   31.8140   45.7070 O   0  0  0  0  0  0  0  0  0  0  0  0
   46.0120   33.0540   46.4980 P   0  0  2  0  0  0  0  0  0  0  0  0
   44.6930   33.3390   47.5660 O   0  0  0  0  0  0  0  0  0  0  0  0
   44.9960   33.8030   48.3700 H   0  0  0  0  0  0  0  0  0  0  0  0
   47.3710   32.7880   47.4210 O   0  0  0  0  0  0  0  0  0  0  0  0
   47.0510   31.9140   48.4500 C   0  0  0  0  0  0  0  0  0  0  0  0
   46.8450   32.4730   49.4020 H   0  0  0  0  0  0  0  0  0  0  0  0
   46.1800   31.2910   48.1980 H   0  0  0  0  0  0  0  0  0  0  0  0
   48.2140   31.0820   48.6940 N   0  0  0  0  0  0  0  0  0  0  0  0
   49.2960   31.4040   49.4260 C   0  0  0  0  0  3  0  0  0  0  0  0
   50.3390   30.5050   49.5720 C   0  0  0  0  0  0  0  0  0  0  0  0
   51.1940   30.7880   50.1650 H   0  0  0  0  0  0  0  0  0  0  0  0
   50.2930   29.2530   48.9700 C   0  0  0  0  0  0  0  0  0  0  0  0
   51.2330   28.4310   49.0970 O   0  0  0  0  0  0  0  0  0  0  0  0
   49.1970   28.9760   48.2500 N   0  0  0  0  0  0  0  0  0  0  0  0
   48.1870   29.8550   48.1110 C   0  0  0  0  0  0  0  0  0  0  0  0
   47.2300   29.4580   47.4120 O   0  0  0  0  0  0  0  0  0  0  0  0
   49.1960   28.0250   47.8100 H   0  0  0  0  0  0  0  0  0  0  0  0
  1 16  1  0  0  0  0
  1  6  1  0  0  0  0
  2  1  1  0  0  0  0
  3  2  1  0  0  0  0
  3  4  1  0  0  0  0
  4 11  1  0  0  0  0
  4  5  1  0  0  0  0
  5  6  1  0  0  0  0
  5 13  1  0  0  0  0
  6 15  1  6  0  0  0
  6 31  1  0  0  0  0
  7  2  1  0  0  0  0
  8  2  1  0  0  0  0
  9  3  1  0  0  0  0
 10  3  1  0  0  0  0
 12  4  1  0  0  0  0
 14  5  1  0  0  0  0
 16 17  1  0  0  0  0
 18 16  1  0  0  0  0
 19 16  1  0  0  0  0
 19 21  1  0  0  0  0
 20 19  1  0  0  0  0
 22 28  1  0  0  0  0
 22 23  1  0  0  0  0
 23 29  1  0  0  0  0
 24 23  2  0  0  0  0
 24 19  1  0  0  0  0
 25 24  1  0  0  0  0
 26 27  1  0  0  0  0
 26 25  2  0  0  0  0
 27 22  2  0  0  0  0
 30 26  1  0  0  0  0
 31 33  1  0  0  0  0
 33 32  2  6  0  0  0
 33 36  1  0  0  0  0
 33 34  1  0  0  0  0
 34 35  1  0  0  0  0
 36 37  1  0  0  0  0
 37 40  1  0  0  0  0
 37 38  1  0  0  0  0
 39 37  1  0  0  0  0
 40 41  1  0  0  0  0
 41 42  2  0  0  0  0
 42 43  1  0  0  0  0
 44 45  2  0  0  0  0
 44 42  1  0  0  0  0
 46 44  1  0  0  0  0
 47 46  1  0  0  0  0
 47 40  1  0  0  0  0
 48 47  2  0  0  0  0
 49 46  1  0  0  0  0
M  END
>  <minimizedAffinity>
-5.14669037

>  <minimizedRMSD>
3.08727598

$$$$
