
 OpenBabel03242521443D

 39 41  0  0  1  0  0  0  0  0999 V2000
   45.5630   35.5290   43.8000 C   0  0  0  0  0  0  0  0  0  0  0  0
   46.5860   34.7360   43.2870 C   0  0  0  0  0  0  0  0  0  0  0  0
   47.0050   33.6040   43.9750 C   0  0  0  0  0  0  0  0  0  0  0  0
   46.3840   33.3350   45.1230 N   0  0  0  0  0  0  0  0  0  0  0  0
   45.3900   34.1040   45.6220 C   0  0  0  0  0  0  0  0  0  0  0  0
   44.9700   35.2020   44.9720 N   0  0  0  0  0  0  0  0  0  0  0  0
   47.0040   35.0520   42.3640 H   0  0  0  0  0  0  0  0  0  0  0  0
   44.8910   33.8760   46.5550 H   0  0  0  0  0  0  0  0  0  0  0  0
   49.0440   33.6070   42.5610 C   0  0  2  0  0  0  0  0  0  0  0  0
   48.0760   32.8260   43.3770 C   0  0  2  0  0  0  0  0  0  0  0  0
   47.6360   31.8580   42.4260 O   0  0  0  0  0  0  0  0  0  0  0  0
   48.8410   31.3630   41.9590 C   0  0  0  0  0  0  0  0  0  0  0  0
   49.8850   32.4320   42.0290 C   0  0  1  0  0  0  0  0  0  0  0  0
   48.5730   34.0280   41.6320 H   0  0  0  0  0  0  0  0  0  0  0  0
   48.6290   32.2910   44.1830 H   0  0  0  0  0  0  0  0  0  0  0  0
   49.1270   30.4480   42.5370 H   0  0  0  0  0  0  0  0  0  0  0  0
   48.6980   31.0920   40.8900 H   0  0  0  0  0  0  0  0  0  0  0  0
   50.7120   32.1940   42.7070 H   0  0  0  0  0  0  0  0  0  0  0  0
   49.7630   34.5330   43.2540 O   0  0  0  0  0  0  0  0  0  0  0  0
   50.5590   34.7680   42.6940 H   0  0  0  0  0  0  0  0  0  0  0  0
   50.4310   32.7910   40.8000 O   0  0  0  0  0  0  0  0  0  0  0  0
   49.8060   32.7930   40.0560 H   0  0  0  0  0  0  0  0  0  0  0  0
   45.1300   36.7510   43.0550 C   0  0  0  0  0  0  0  0  0  0  0  0
   45.9760   37.0820   42.4040 H   0  0  0  0  0  0  0  0  0  0  0  0
   44.2010   36.5640   42.4690 H   0  0  0  0  0  0  0  0  0  0  0  0
   45.2070   39.1790   43.9190 C   0  0  0  0  0  0  0  0  0  0  0  0
   45.7060   39.5230   42.7860 O   0  0  0  0  0  0  0  0  0  0  0  0
   44.9080   37.8040   44.0050 N   0  0  0  0  0  0  0  0  0  0  0  0
   44.4540   37.4620   44.8740 H   0  0  0  0  0  0  0  0  0  0  0  0
   44.6790   43.5150   45.0020 H   0  0  0  0  0  0  0  0  0  0  0  0
   44.7440   42.5460   45.3570 N   0  0  0  0  0  0  0  0  0  0  0  0
   44.9210   41.5230   44.5120 C   0  0  0  0  0  3  0  0  0  0  0  0
   45.0160   40.1940   44.9370 C   0  0  0  0  0  0  0  0  0  0  0  0
   44.9070   40.0700   46.3020 C   0  0  0  0  0  0  0  0  0  0  0  0
   44.9830   38.9010   46.7480 O   0  0  0  0  0  0  0  0  0  0  0  0
   44.7290   41.0770   47.1700 N   0  0  0  0  0  0  0  0  0  0  0  0
   44.6490   42.3230   46.6790 C   0  0  0  0  0  0  0  0  0  0  0  0
   44.4830   43.2410   47.5000 O   0  0  0  0  0  0  0  0  0  0  0  0
   44.6620   40.8470   48.1850 H   0  0  0  0  0  0  0  0  0  0  0  0
  1  6  1  0  0  0  0
  2  1  2  0  0  0  0
  2  3  1  0  0  0  0
  3  4  2  0  0  0  0
  4  5  1  0  0  0  0
  5  8  1  0  0  0  0
  6  5  2  0  0  0  0
  7  2  1  0  0  0  0
  9 14  1  6  0  0  0
  9 19  1  0  0  0  0
  9 10  1  0  0  0  0
 10  3  1  0  0  0  0
 10 15  1  1  0  0  0
 11 10  1  0  0  0  0
 12 13  1  0  0  0  0
 12 11  1  0  0  0  0
 12 16  1  0  0  0  0
 13  9  1  0  0  0  0
 13 18  1  1  0  0  0
 17 12  1  0  0  0  0
 20 19  1  0  0  0  0
 21 13  1  0  0  0  0
 22 21  1  0  0  0  0
 23  1  1  0  0  0  0
 23 28  1  0  0  0  0
 24 23  1  0  0  0  0
 25 23  1  0  0  0  0
 26 28  1  0  0  0  0
 26 33  1  0  0  0  0
 27 26  2  0  0  0  0
 28 29  1  0  0  0  0
 30 31  1  0  0  0  0
 31 37  1  0  0  0  0
 32 33  2  0  0  0  0
 32 31  1  0  0  0  0
 33 34  1  0  0  0  0
 34 35  2  0  0  0  0
 34 36  1  0  0  0  0
 36 39  1  0  0  0  0
 37 36  1  0  0  0  0
 37 38  2  0  0  0  0
M  END
>  <minimizedAffinity>
-3.27826238

>  <minimizedRMSD>
0.767763674

$$$$
