
 OpenBabel03252507073D

 25 26  0  0  0  0  0  0  0  0999 V2000
   44.5410   36.1630   44.3920 C   0  0  0  0  0  0  0  0  0  0  0  0
   45.1910   36.0500   43.1330 C   0  0  0  0  0  0  0  0  0  0  0  0
   46.0460   34.9700   42.9460 C   0  0  0  0  0  0  0  0  0  0  0  0
   46.2210   34.0780   43.9720 N   0  0  0  0  0  0  0  0  0  0  0  0
   45.5820   34.2250   45.1570 C   0  0  0  0  0  0  0  0  0  0  0  0
   44.7470   35.2620   45.3650 N   0  0  0  0  0  0  0  0  0  0  0  0
   43.8730   36.9860   44.5700 H   0  0  0  0  0  0  0  0  0  0  0  0
   44.9850   36.8110   42.3810 H   0  0  0  0  0  0  0  0  0  0  0  0
   45.9330   33.1720   46.0480 N   0  0  0  0  0  0  0  0  0  0  0  0
   45.2740   33.1190   47.2230 C   0  0  0  0  0  0  0  0  0  0  0  0
   45.6100   32.0890   48.1090 C   0  0  0  0  0  0  0  0  0  0  0  0
   45.0930   32.0330   49.0500 H   0  0  0  0  0  0  0  0  0  0  0  0
   46.5890   31.1970   47.7240 C   0  0  0  0  0  0  0  0  0  0  0  0
   46.8970   30.2650   48.5180 O   0  0  0  0  0  0  0  0  0  0  0  0
   47.2220   31.2880   46.5390 N   0  0  0  0  0  0  0  0  0  0  0  0
   46.8850   32.2900   45.6950 C   0  0  0  0  0  0  0  0  0  0  0  0
   47.5010   32.3380   44.6000 O   0  0  0  0  0  0  0  0  0  0  0  0
   47.9610   30.5760   46.3030 H   0  0  0  0  0  0  0  0  0  0  0  0
   46.6820   34.8540   41.7200 O   0  0  0  0  0  0  0  0  0  0  0  0
   48.6800   33.2460   41.0440 O   0  0  0  0  0  0  0  0  0  0  0  0
   48.3810   34.6110   41.6720 P   0  0  0  0  0  0  0  0  0  0  0  0
   49.0710   35.8580   40.8080 O   0  0  0  0  0  0  0  0  0  0  0  0
   49.0220   35.6120   39.8480 H   0  0  0  0  0  0  0  0  0  0  0  0
   48.9250   34.5540   43.2770 O   0  0  0  0  0  0  0  0  0  0  0  0
   48.9750   35.4970   43.5860 H   0  0  0  0  0  0  0  0  0  0  0  0
  1  7  1  0  0  0  0
  1  6  1  0  0  0  0
  2  1  2  0  0  0  0
  3  2  1  0  0  0  0
  3  4  2  0  0  0  0
  4  5  1  0  0  0  0
  5  6  2  0  0  0  0
  5  9  1  0  0  0  0
  8  2  1  0  0  0  0
  9 10  1  0  0  0  0
 10 11  2  0  0  0  0
 11 12  1  0  0  0  0
 13 11  1  0  0  0  0
 13 14  2  0  0  0  0
 15 13  1  0  0  0  0
 16  9  1  0  0  0  0
 16 15  1  0  0  0  0
 17 16  2  0  0  0  0
 18 15  1  0  0  0  0
 19  3  1  0  0  0  0
 20 21  2  0  0  0  0
 21 19  1  0  0  0  0
 21 24  1  0  0  0  0
 22 21  1  0  0  0  0
 23 22  1  0  0  0  0
 24 25  1  0  0  0  0
M  END
>  <minimizedAffinity>
-6.22376633

>  <minimizedRMSD>
0.34431234

$$$$
