REMARK  Name = 
REMARK  5 active torsions:
REMARK  status: ('A' for Active; 'I' for Inactive)
REMARK    1  A    between atoms: C_1  and  C_7
REMARK    2  A    between atoms: C_3  and  C_10
REMARK    3  A    between atoms: C_10  and  C_11
REMARK    4  A    between atoms: C_11  and  N_14
REMARK    5  A    between atoms: C_12  and  C_30
REMARK                            x       y       z     vdW  Elec       q    Type
REMARK                         _______ _______ _______ _____ _____    ______ ____
ROOT
ATOM      1  C   UNL     1      41.072  35.738  39.177  0.00  0.00    +0.000 C 
ATOM      2  H   UNL     1      41.260  36.809  38.944  0.00  0.00    +0.000 HD
ATOM      3  H   UNL     1      40.735  35.239  38.234  0.00  0.00    +0.000 HD
ENDROOT
BRANCH   1   6
ATOM      4  C   UNL     1      43.982  34.573  41.285  0.00  0.00    +0.000 A 
ATOM      5  C   UNL     1      42.827  35.272  40.883  0.00  0.00    +0.000 A 
ATOM      6  C   UNL     1      42.293  35.029  39.628  0.00  0.00    +0.000 A 
ATOM      7  N   UNL     1      42.930  34.108  38.840  0.00  0.00    +0.000 NA
ATOM      8  C   UNL     1      44.051  33.454  39.276  0.00  0.00    +0.000 A 
ATOM      9  N   UNL     1      44.557  33.689  40.474  0.00  0.00    +0.000 NA
ATOM     10  H   UNL     1      42.393  35.980  41.572  0.00  0.00    +0.000 HD
ATOM     11  H   UNL     1      44.500  32.739  38.593  0.00  0.00    +0.000 HD
BRANCH   4  12
ATOM     12  C   UNL     1      44.552  34.853  42.631  0.00  0.00    +0.000 C 
ATOM     13  C   UNL     1      46.058  35.282  42.546  0.00  0.00    +0.000 C 
ATOM     14  C   UNL     1      44.982  36.135  43.061  0.00  0.00    +0.000 C 
ATOM     15  H   UNL     1      44.378  34.011  43.357  0.00  0.00    +0.000 HD
ATOM     16  H   UNL     1      46.489  35.410  41.543  0.00  0.00    +0.000 HD
ATOM     17  H   UNL     1      46.704  34.811  43.314  0.00  0.00    +0.000 HD
ATOM     18  H   UNL     1      44.724  37.006  42.387  0.00  0.00    +0.000 HD
ATOM     19  H   UNL     1      44.934  36.463  44.120  0.00  0.00    +0.000 HD
ENDBRANCH   4  12
ENDBRANCH   1   6
BRANCH   1  20
ATOM     20  C   UNL     1      39.978  35.651  40.199  0.00  0.00    +0.000 C 
ATOM     21  H   UNL     1      40.431  35.556  41.206  0.00  0.00    +0.000 HD
ATOM     22  H   UNL     1      39.372  36.595  40.256  0.00  0.00    +0.000 HD
BRANCH  20  25
ATOM     23  C   UNL     1      39.049  33.407  40.721  0.00  0.00    +0.000 C 
ATOM     24  O   UNL     1      39.765  33.302  41.764  0.00  0.00    +0.000 OA
ATOM     25  N   UNL     1      39.027  34.583  39.940  0.00  0.00    +0.000 N 
ATOM     26  H   UNL     1      38.380  34.760  39.185  0.00  0.00    +0.000 HD
BRANCH  23  30
ATOM     27  H   UNL     1      35.458  30.732  41.481  0.00  0.00    +0.000 HD
ATOM     28  N   UNL     1      36.303  30.894  40.895  0.00  0.00    +0.000 N 
ATOM     29  C   UNL     1      37.101  31.948  41.129  0.00  0.00    +0.000 A 
ATOM     30  C   UNL     1      38.252  32.232  40.386  0.00  0.00    +0.000 A 
ATOM     31  C   UNL     1      38.443  31.309  39.415  0.00  0.00    +0.000 A 
ATOM     32  O   UNL     1      39.435  31.432  38.670  0.00  0.00    +0.000 OA
ATOM     33  N   UNL     1      37.677  30.255  39.154  0.00  0.00    +0.000 N 
ATOM     34  C   UNL     1      36.583  30.033  39.902  0.00  0.00    +0.000 A 
ATOM     35  O   UNL     1      35.818  29.074  39.724  0.00  0.00    +0.000 OA
ATOM     36  H   UNL     1      37.876  29.584  38.397  0.00  0.00    +0.000 HD
ENDBRANCH  23  30
ENDBRANCH  20  25
ENDBRANCH   1  20
TORSDOF 5
