
 OpenBabel03242515243D

 22 23  0  0  0  0  0  0  0  0999 V2000
   35.4740   28.8840   40.7650 C   0  0  0  0  0  0  0  0  0  0  0  0
   34.6720   29.1750   41.4550 H   0  0  0  0  0  0  0  0  0  0  0  0
   35.0160   28.2730   39.9370 H   0  0  0  0  0  0  0  0  0  0  0  0
   36.4820   28.0470   41.3990 N   0  0  0  0  0  0  0  0  0  0  0  0
   36.9830   28.4080   42.5810 C   0  0  0  0  0  3  0  0  0  0  0  0
   37.9460   27.5810   43.1530 C   0  0  0  0  0  0  0  0  0  0  0  0
   38.3850   27.8400   44.1240 H   0  0  0  0  0  0  0  0  0  0  0  0
   38.3650   26.4350   42.5230 C   0  0  0  0  0  0  0  0  0  0  0  0
   39.2380   25.7120   43.0710 O   0  0  0  0  0  0  0  0  0  0  0  0
   37.8290   26.1090   41.3260 N   0  0  0  0  0  0  0  0  0  0  0  0
   36.8860   26.9120   40.7580 C   0  0  0  0  0  0  0  0  0  0  0  0
   36.4340   26.5460   39.6450 O   0  0  0  0  0  0  0  0  0  0  0  0
   38.1520   25.2330   40.8480 H   0  0  0  0  0  0  0  0  0  0  0  0
   36.3660   30.0010   38.8150 C   0  0  0  0  0  0  0  0  0  0  0  0
   36.1340   30.0650   40.2000 C   0  0  0  0  0  0  0  0  0  0  0  0
   36.5490   31.2130   40.8580 C   0  0  0  0  0  0  0  0  0  0  0  0
   37.1430   32.1910   40.1490 N   0  0  0  0  0  0  0  0  0  0  0  0
   37.3490   32.0900   38.8100 C   0  0  0  0  0  0  0  0  0  0  0  0
   36.9680   30.9980   38.1130 N   0  0  0  0  0  0  0  0  0  0  0  0
   36.0840   29.1550   38.2110 H   0  0  0  0  0  0  0  0  0  0  0  0
   36.3550   31.2210   41.9040 H   0  0  0  0  0  0  0  0  0  0  0  0
   37.8320   32.9390   38.3620 H   0  0  0  0  0  0  0  0  0  0  0  0
  1  4  1  0  0  0  0
  1  2  1  0  0  0  0
  3  1  1  0  0  0  0
  4  5  1  0  0  0  0
  5  6  2  0  0  0  0
  6  7  1  0  0  0  0
  8  9  2  0  0  0  0
  8  6  1  0  0  0  0
 10  8  1  0  0  0  0
 11 10  1  0  0  0  0
 11  4  1  0  0  0  0
 12 11  2  0  0  0  0
 13 10  1  0  0  0  0
 14 15  1  0  0  0  0
 15  1  1  0  0  0  0
 15 16  2  0  0  0  0
 16 21  1  0  0  0  0
 17 16  1  0  0  0  0
 18 17  2  0  0  0  0
 19 18  1  0  0  0  0
 19 14  2  0  0  0  0
 20 14  1  0  0  0  0
 22 18  1  0  0  0  0
M  END
>  <minimizedAffinity>
-4.21552944

$$$$

 OpenBabel03242515243D

 22 23  0  0  0  0  0  0  0  0999 V2000
   36.8200   27.2480   42.9770 C   0  0  0  0  0  0  0  0  0  0  0  0
   35.8290   26.8860   43.2770 H   0  0  0  0  0  0  0  0  0  0  0  0
   37.3700   27.5710   43.9050 H   0  0  0  0  0  0  0  0  0  0  0  0
   36.7500   28.4100   42.1020 N   0  0  0  0  0  0  0  0  0  0  0  0
   35.8790   28.4160   41.0920 C   0  0  0  0  0  3  0  0  0  0  0  0
   35.8430   29.5460   40.2790 C   0  0  0  0  0  0  0  0  0  0  0  0
   35.1430   29.5940   39.4370 H   0  0  0  0  0  0  0  0  0  0  0  0
   36.6760   30.6150   40.5080 C   0  0  0  0  0  0  0  0  0  0  0  0
   36.6150   31.6190   39.7520 O   0  0  0  0  0  0  0  0  0  0  0  0
   37.5420   30.5630   41.5440 N   0  0  0  0  0  0  0  0  0  0  0  0
   37.5840   29.4630   42.3460 C   0  0  0  0  0  0  0  0  0  0  0  0
   38.4150   29.4850   43.2880 O   0  0  0  0  0  0  0  0  0  0  0  0
   38.1760   31.3810   41.7160 H   0  0  0  0  0  0  0  0  0  0  0  0
   36.8940   24.9780   42.1480 C   0  0  0  0  0  0  0  0  0  0  0  0
   37.5800   26.1960   42.2940 C   0  0  0  0  0  0  0  0  0  0  0  0
   38.8700   26.2590   41.7880 C   0  0  0  0  0  0  0  0  0  0  0  0
   39.3890   25.1700   41.1920 N   0  0  0  0  0  0  0  0  0  0  0  0
   38.6910   24.0100   41.0700 C   0  0  0  0  0  0  0  0  0  0  0  0
   37.4320   23.8860   41.5430 N   0  0  0  0  0  0  0  0  0  0  0  0
   35.8890   24.8230   42.5060 H   0  0  0  0  0  0  0  0  0  0  0  0
   39.3530   27.1980   41.9190 H   0  0  0  0  0  0  0  0  0  0  0  0
   39.2190   23.2160   40.5750 H   0  0  0  0  0  0  0  0  0  0  0  0
  1  2  1  0  0  0  0
  1  3  1  0  0  0  0
  4 11  1  0  0  0  0
  4  1  1  0  0  0  0
  5  4  1  0  0  0  0
  6  8  1  0  0  0  0
  6  5  2  0  0  0  0
  7  6  1  0  0  0  0
  8 10  1  0  0  0  0
  9  8  2  0  0  0  0
 10 13  1  0  0  0  0
 10 11  1  0  0  0  0
 11 12  2  0  0  0  0
 14 15  1  0  0  0  0
 14 20  1  0  0  0  0
 15  1  1  0  0  0  0
 16 21  1  0  0  0  0
 16 15  2  0  0  0  0
 17 16  1  0  0  0  0
 18 17  2  0  0  0  0
 18 19  1  0  0  0  0
 19 14  2  0  0  0  0
 22 18  1  0  0  0  0
M  END
>  <minimizedAffinity>
-4.21524525

$$$$

 OpenBabel03242515243D

 22 23  0  0  0  0  0  0  0  0999 V2000
   37.6600   28.7570   40.0970 C   0  0  0  0  0  0  0  0  0  0  0  0
   38.1800   28.3010   39.2450 H   0  0  0  0  0  0  0  0  0  0  0  0
   36.5570   28.5680   39.9740 H   0  0  0  0  0  0  0  0  0  0  0  0
   37.8370   30.2000   40.1530 N   0  0  0  0  0  0  0  0  0  0  0  0
   39.0490   30.7200   39.9520 C   0  0  0  0  0  3  0  0  0  0  0  0
   39.1760   32.1050   40.0150 C   0  0  0  0  0  0  0  0  0  0  0  0
   40.1540   32.5740   39.8560 H   0  0  0  0  0  0  0  0  0  0  0  0
   38.0920   32.9070   40.2760 C   0  0  0  0  0  0  0  0  0  0  0  0
   38.2450   34.1560   40.3250 O   0  0  0  0  0  0  0  0  0  0  0  0
   36.8830   32.3370   40.4730 N   0  0  0  0  0  0  0  0  0  0  0  0
   36.7490   30.9830   40.4130 C   0  0  0  0  0  0  0  0  0  0  0  0
   35.5960   30.5240   40.6070 O   0  0  0  0  0  0  0  0  0  0  0  0
   36.0580   32.9530   40.6720 H   0  0  0  0  0  0  0  0  0  0  0  0
   39.2080   27.2970   41.2440 C   0  0  0  0  0  0  0  0  0  0  0  0
   38.1220   28.1800   41.3630 C   0  0  0  0  0  0  0  0  0  0  0  0
   37.6210   28.3980   42.6380 C   0  0  0  0  0  0  0  0  0  0  0  0
   38.1930   27.7640   43.6790 N   0  0  0  0  0  0  0  0  0  0  0  0
   39.2440   26.9180   43.5210 C   0  0  0  0  0  0  0  0  0  0  0  0
   39.7750   26.6640   42.3060 N   0  0  0  0  0  0  0  0  0  0  0  0
   39.6710   27.0590   40.3010 H   0  0  0  0  0  0  0  0  0  0  0  0
   36.7990   29.0720   42.6850 H   0  0  0  0  0  0  0  0  0  0  0  0
   39.6080   26.4760   44.4310 H   0  0  0  0  0  0  0  0  0  0  0  0
  1  4  1  0  0  0  0
  1 15  1  0  0  0  0
  2  1  1  0  0  0  0
  3  1  1  0  0  0  0
  4 11  1  0  0  0  0
  5  6  2  0  0  0  0
  5  4  1  0  0  0  0
  6  8  1  0  0  0  0
  7  6  1  0  0  0  0
  8  9  2  0  0  0  0
  8 10  1  0  0  0  0
 10 13  1  0  0  0  0
 11 10  1  0  0  0  0
 11 12  2  0  0  0  0
 14 15  2  0  0  0  0
 14 19  1  0  0  0  0
 15 16  1  0  0  0  0
 16 21  1  0  0  0  0
 16 17  2  0  0  0  0
 18 17  1  0  0  0  0
 18 22  1  0  0  0  0
 19 18  2  0  0  0  0
 20 14  1  0  0  0  0
M  END
>  <minimizedAffinity>
-4.11737394

$$$$

 OpenBabel03242515243D

 22 23  0  0  0  0  0  0  0  0999 V2000
   37.0000   31.6390   39.3010 C   0  0  0  0  0  0  0  0  0  0  0  0
   36.1930   31.6960   38.5600 H   0  0  0  0  0  0  0  0  0  0  0  0
   36.8050   32.4180   40.0910 H   0  0  0  0  0  0  0  0  0  0  0  0
   38.3060   31.9350   38.7310 N   0  0  0  0  0  0  0  0  0  0  0  0
   39.3150   32.2620   39.5400 C   0  0  0  0  0  3  0  0  0  0  0  0
   40.5480   32.5380   38.9540 C   0  0  0  0  0  0  0  0  0  0  0  0
   41.4040   32.8120   39.5810 H   0  0  0  0  0  0  0  0  0  0  0  0
   40.7190   32.4770   37.5920 C   0  0  0  0  0  0  0  0  0  0  0  0
   41.8480   32.7330   37.0990 O   0  0  0  0  0  0  0  0  0  0  0  0
   39.6680   32.1410   36.8120 N   0  0  0  0  0  0  0  0  0  0  0  0
   38.4580   31.8690   37.3760 C   0  0  0  0  0  0  0  0  0  0  0  0
   37.5270   31.5650   36.5890 O   0  0  0  0  0  0  0  0  0  0  0  0
   39.8020   32.0950   35.7730 H   0  0  0  0  0  0  0  0  0  0  0  0
   36.9100   30.3090   41.3180 C   0  0  0  0  0  0  0  0  0  0  0  0
   37.0520   30.3110   39.9210 C   0  0  0  0  0  0  0  0  0  0  0  0
   37.2220   29.0820   39.3010 C   0  0  0  0  0  0  0  0  0  0  0  0
   37.2410   27.9690   40.0580 N   0  0  0  0  0  0  0  0  0  0  0  0
   37.1000   28.0100   41.4080 C   0  0  0  0  0  0  0  0  0  0  0  0
   36.9320   29.1760   42.0700 N   0  0  0  0  0  0  0  0  0  0  0  0
   36.7730   31.2080   41.8960 H   0  0  0  0  0  0  0  0  0  0  0  0
   37.3250   29.1270   38.2430 H   0  0  0  0  0  0  0  0  0  0  0  0
   37.1330   27.0530   41.8950 H   0  0  0  0  0  0  0  0  0  0  0  0
  1 15  1  0  0  0  0
  1  3  1  0  0  0  0
  2  1  1  0  0  0  0
  4  1  1  0  0  0  0
  4  5  1  0  0  0  0
  6  5  2  0  0  0  0
  6  7  1  0  0  0  0
  8  6  1  0  0  0  0
  9  8  2  0  0  0  0
 10 11  1  0  0  0  0
 10  8  1  0  0  0  0
 11  4  1  0  0  0  0
 12 11  2  0  0  0  0
 13 10  1  0  0  0  0
 14 20  1  0  0  0  0
 14 19  1  0  0  0  0
 15 14  2  0  0  0  0
 16 15  1  0  0  0  0
 16 17  2  0  0  0  0
 17 18  1  0  0  0  0
 18 22  1  0  0  0  0
 18 19  2  0  0  0  0
 21 16  1  0  0  0  0
M  END
>  <minimizedAffinity>
-4.09527397

$$$$

 OpenBabel03242515243D

 22 23  0  0  0  0  0  0  0  0999 V2000
   36.4080   30.7780   41.0180 C   0  0  0  0  0  0  0  0  0  0  0  0
   36.2580   31.7570   41.4920 H   0  0  0  0  0  0  0  0  0  0  0  0
   35.4460   30.1990   41.1030 H   0  0  0  0  0  0  0  0  0  0  0  0
   37.4360   29.9880   41.6780 N   0  0  0  0  0  0  0  0  0  0  0  0
   38.6450   30.5190   41.8730 C   0  0  0  0  0  3  0  0  0  0  0  0
   39.6010   29.7300   42.5080 C   0  0  0  0  0  0  0  0  0  0  0  0
   40.6070   30.1260   42.6890 H   0  0  0  0  0  0  0  0  0  0  0  0
   39.3110   28.4510   42.9170 C   0  0  0  0  0  0  0  0  0  0  0  0
   40.2010   27.7670   43.4870 O   0  0  0  0  0  0  0  0  0  0  0  0
   38.0730   27.9550   42.6980 N   0  0  0  0  0  0  0  0  0  0  0  0
   37.1300   28.7190   42.0780 C   0  0  0  0  0  0  0  0  0  0  0  0
   36.0030   28.1920   41.9070 O   0  0  0  0  0  0  0  0  0  0  0  0
   37.8550   26.9780   43.0110 H   0  0  0  0  0  0  0  0  0  0  0  0
   36.4730   29.8150   38.8020 C   0  0  0  0  0  0  0  0  0  0  0  0
   36.7690   30.9290   39.6050 C   0  0  0  0  0  0  0  0  0  0  0  0
   37.3580   32.0200   38.9820 C   0  0  0  0  0  0  0  0  0  0  0  0
   37.6100   31.9560   37.6610 N   0  0  0  0  0  0  0  0  0  0  0  0
   37.3080   30.8580   36.9190 C   0  0  0  0  0  0  0  0  0  0  0  0
   36.7350   29.7650   37.4680 N   0  0  0  0  0  0  0  0  0  0  0  0
   36.0170   28.9180   39.1860 H   0  0  0  0  0  0  0  0  0  0  0  0
   37.5650   32.8410   39.6240 H   0  0  0  0  0  0  0  0  0  0  0  0
   37.5610   30.9340   35.8770 H   0  0  0  0  0  0  0  0  0  0  0  0
  1  3  1  0  0  0  0
  1  2  1  0  0  0  0
  1  4  1  0  0  0  0
  4  5  1  0  0  0  0
  4 11  1  0  0  0  0
  5  6  2  0  0  0  0
  6  7  1  0  0  0  0
  6  8  1  0  0  0  0
  8  9  2  0  0  0  0
 10  8  1  0  0  0  0
 10 13  1  0  0  0  0
 11 10  1  0  0  0  0
 12 11  2  0  0  0  0
 14 20  1  0  0  0  0
 14 15  1  0  0  0  0
 15  1  1  0  0  0  0
 16 15  2  0  0  0  0
 16 21  1  0  0  0  0
 17 16  1  0  0  0  0
 18 19  1  0  0  0  0
 18 17  2  0  0  0  0
 19 14  2  0  0  0  0
 22 18  1  0  0  0  0
M  END
>  <minimizedAffinity>
-4.0880065

$$$$

 OpenBabel03242515243D

 22 23  0  0  0  0  0  0  0  0999 V2000
   37.7760   30.2050   39.2010 C   0  0  0  0  0  0  0  0  0  0  0  0
   36.9560   30.2480   38.4730 H   0  0  0  0  0  0  0  0  0  0  0  0
   38.6780   29.7720   38.6840 H   0  0  0  0  0  0  0  0  0  0  0  0
   37.4770   29.3350   40.3290 N   0  0  0  0  0  0  0  0  0  0  0  0
   38.4590   28.6220   40.8840 C   0  0  0  0  0  3  0  0  0  0  0  0
   38.1310   27.8030   41.9610 C   0  0  0  0  0  0  0  0  0  0  0  0
   38.9070   27.2000   42.4470 H   0  0  0  0  0  0  0  0  0  0  0  0
   36.8440   27.7310   42.4340 C   0  0  0  0  0  0  0  0  0  0  0  0
   36.5860   26.9780   43.4100 O   0  0  0  0  0  0  0  0  0  0  0  0
   35.8820   28.4710   41.8410 N   0  0  0  0  0  0  0  0  0  0  0  0
   36.1930   29.2760   40.7870 C   0  0  0  0  0  0  0  0  0  0  0  0
   35.2470   29.9340   40.2850 O   0  0  0  0  0  0  0  0  0  0  0  0
   34.9010   28.4130   42.2060 H   0  0  0  0  0  0  0  0  0  0  0  0
   37.2700   32.5690   39.2250 C   0  0  0  0  0  0  0  0  0  0  0  0
   38.0950   31.5410   39.7130 C   0  0  0  0  0  0  0  0  0  0  0  0
   39.0950   31.9020   40.6030 C   0  0  0  0  0  0  0  0  0  0  0  0
   39.2220   33.1970   40.9490 N   0  0  0  0  0  0  0  0  0  0  0  0
   38.4030   34.1610   40.4540 C   0  0  0  0  0  0  0  0  0  0  0  0
   37.4110   33.8730   39.5840 N   0  0  0  0  0  0  0  0  0  0  0  0
   36.4650   32.3960   38.5300 H   0  0  0  0  0  0  0  0  0  0  0  0
   39.6960   31.0950   40.9490 H   0  0  0  0  0  0  0  0  0  0  0  0
   38.6090   35.1540   40.8090 H   0  0  0  0  0  0  0  0  0  0  0  0
  1 15  1  0  0  0  0
  1  4  1  0  0  0  0
  2  1  1  0  0  0  0
  3  1  1  0  0  0  0
  4 11  1  0  0  0  0
  4  5  1  0  0  0  0
  5  6  2  0  0  0  0
  6  8  1  0  0  0  0
  6  7  1  0  0  0  0
  8  9  2  0  0  0  0
 10 13  1  0  0  0  0
 10  8  1  0  0  0  0
 11 10  1  0  0  0  0
 12 11  2  0  0  0  0
 14 19  2  0  0  0  0
 14 15  1  0  0  0  0
 15 16  2  0  0  0  0
 16 17  1  0  0  0  0
 16 21  1  0  0  0  0
 18 22  1  0  0  0  0
 18 17  2  0  0  0  0
 19 18  1  0  0  0  0
 20 14  1  0  0  0  0
M  END
>  <minimizedAffinity>
-4.08298826

$$$$

 OpenBabel03242515243D

 22 23  0  0  0  0  0  0  0  0999 V2000
   36.7110   31.1170   40.4420 C   0  0  0  0  0  0  0  0  0  0  0  0
   35.7910   30.8310   39.9170 H   0  0  0  0  0  0  0  0  0  0  0  0
   36.5100   32.0720   41.0040 H   0  0  0  0  0  0  0  0  0  0  0  0
   37.8140   31.3880   39.5310 N   0  0  0  0  0  0  0  0  0  0  0  0
   38.2060   30.4410   38.6780 C   0  0  0  0  0  3  0  0  0  0  0  0
   39.2650   30.7400   37.8240 C   0  0  0  0  0  0  0  0  0  0  0  0
   39.6200   29.9910   37.1070 H   0  0  0  0  0  0  0  0  0  0  0  0
   39.8820   31.9670   37.8590 C   0  0  0  0  0  0  0  0  0  0  0  0
   40.8360   32.2010   37.0720 O   0  0  0  0  0  0  0  0  0  0  0  0
   39.4500   32.8960   38.7400 N   0  0  0  0  0  0  0  0  0  0  0  0
   38.4150   32.6130   39.5800 C   0  0  0  0  0  0  0  0  0  0  0  0
   38.0690   33.5240   40.3710 O   0  0  0  0  0  0  0  0  0  0  0  0
   39.9240   33.8310   38.7640 H   0  0  0  0  0  0  0  0  0  0  0  0
   36.3040   28.9320   41.3940 C   0  0  0  0  0  0  0  0  0  0  0  0
   37.1280   30.0700   41.3810 C   0  0  0  0  0  0  0  0  0  0  0  0
   38.2170   30.0730   42.2400 C   0  0  0  0  0  0  0  0  0  0  0  0
   38.4260   29.0020   43.0280 N   0  0  0  0  0  0  0  0  0  0  0  0
   37.6040   27.9200   43.0100 C   0  0  0  0  0  0  0  0  0  0  0  0
   36.5280   27.8580   42.1970 N   0  0  0  0  0  0  0  0  0  0  0  0
   35.4340   28.8300   40.7670 H   0  0  0  0  0  0  0  0  0  0  0  0
   38.8150   30.9510   42.1980 H   0  0  0  0  0  0  0  0  0  0  0  0
   37.8800   27.1320   43.6880 H   0  0  0  0  0  0  0  0  0  0  0  0
  1  3  1  0  0  0  0
  1 15  1  0  0  0  0
  2  1  1  0  0  0  0
  4 11  1  0  0  0  0
  4  1  1  0  0  0  0
  5  4  1  0  0  0  0
  6  8  1  0  0  0  0
  6  5  2  0  0  0  0
  7  6  1  0  0  0  0
  8 10  1  0  0  0  0
  9  8  2  0  0  0  0
 10 13  1  0  0  0  0
 10 11  1  0  0  0  0
 11 12  2  0  0  0  0
 14 19  1  0  0  0  0
 15 14  2  0  0  0  0
 15 16  1  0  0  0  0
 16 17  2  0  0  0  0
 18 17  1  0  0  0  0
 18 22  1  0  0  0  0
 19 18  2  0  0  0  0
 20 14  1  0  0  0  0
 21 16  1  0  0  0  0
M  END
>  <minimizedAffinity>
-4.07577324

$$$$

 OpenBabel03242515243D

 22 23  0  0  0  0  0  0  0  0999 V2000
   38.1310   32.3280   40.4870 C   0  0  0  0  0  0  0  0  0  0  0  0
   38.4150   33.2370   41.0310 H   0  0  0  0  0  0  0  0  0  0  0  0
   37.0980   32.4800   40.0680 H   0  0  0  0  0  0  0  0  0  0  0  0
   38.0700   31.1560   41.3480 N   0  0  0  0  0  0  0  0  0  0  0  0
   39.1470   30.8030   42.0510 C   0  0  0  0  0  3  0  0  0  0  0  0
   39.0470   29.6760   42.8630 C   0  0  0  0  0  0  0  0  0  0  0  0
   39.9080   29.3500   43.4570 H   0  0  0  0  0  0  0  0  0  0  0  0
   37.8810   28.9530   42.9350 C   0  0  0  0  0  0  0  0  0  0  0  0
   37.8280   27.9390   43.6790 O   0  0  0  0  0  0  0  0  0  0  0  0
   36.8150   29.3480   42.2050 N   0  0  0  0  0  0  0  0  0  0  0  0
   36.9030   30.4500   41.4080 C   0  0  0  0  0  0  0  0  0  0  0  0
   35.8730   30.7570   40.7580 O   0  0  0  0  0  0  0  0  0  0  0  0
   35.9270   28.7940   42.2630 H   0  0  0  0  0  0  0  0  0  0  0  0
   40.0530   33.0430   39.2060 C   0  0  0  0  0  0  0  0  0  0  0  0
   39.0710   32.0560   39.3940 C   0  0  0  0  0  0  0  0  0  0  0  0
   39.1040   30.9610   38.5430 C   0  0  0  0  0  0  0  0  0  0  0  0
   40.0580   30.9020   37.5960 N   0  0  0  0  0  0  0  0  0  0  0  0
   40.9900   31.8790   37.4470 C   0  0  0  0  0  0  0  0  0  0  0  0
   41.0110   32.9690   38.2430 N   0  0  0  0  0  0  0  0  0  0  0  0
   40.1170   33.9320   39.8110 H   0  0  0  0  0  0  0  0  0  0  0  0
   38.3440   30.2370   38.7200 H   0  0  0  0  0  0  0  0  0  0  0  0
   41.6960   31.7120   36.6530 H   0  0  0  0  0  0  0  0  0  0  0  0
  1  2  1  0  0  0  0
  1  4  1  0  0  0  0
  3  1  1  0  0  0  0
  4 11  1  0  0  0  0
  4  5  1  0  0  0  0
  5  6  2  0  0  0  0
  6  8  1  0  0  0  0
  6  7  1  0  0  0  0
  8  9  2  0  0  0  0
 10 13  1  0  0  0  0
 10  8  1  0  0  0  0
 11 10  1  0  0  0  0
 12 11  2  0  0  0  0
 14 15  1  0  0  0  0
 14 20  1  0  0  0  0
 15  1  1  0  0  0  0
 16 21  1  0  0  0  0
 16 15  2  0  0  0  0
 17 16  1  0  0  0  0
 18 17  2  0  0  0  0
 18 19  1  0  0  0  0
 19 14  2  0  0  0  0
 22 18  1  0  0  0  0
M  END
>  <minimizedAffinity>
-4.06789303

$$$$

 OpenBabel03242515243D

 22 23  0  0  0  0  0  0  0  0999 V2000
   39.3130   30.1060   40.2370 C   0  0  0  0  0  0  0  0  0  0  0  0
   39.3450   29.6390   39.2450 H   0  0  0  0  0  0  0  0  0  0  0  0
   40.3570   30.1030   40.6580 H   0  0  0  0  0  0  0  0  0  0  0  0
   38.4770   29.3720   41.1740 N   0  0  0  0  0  0  0  0  0  0  0  0
   38.6150   29.5880   42.4840 C   0  0  0  0  0  3  0  0  0  0  0  0
   37.7970   28.8650   43.3470 C   0  0  0  0  0  0  0  0  0  0  0  0
   37.8770   29.0110   44.4300 H   0  0  0  0  0  0  0  0  0  0  0  0
   36.8810   27.9600   42.8680 C   0  0  0  0  0  0  0  0  0  0  0  0
   36.1580   27.3240   43.6800 O   0  0  0  0  0  0  0  0  0  0  0  0
   36.7750   27.7740   41.5340 N   0  0  0  0  0  0  0  0  0  0  0  0
   37.5720   28.4770   40.6810 C   0  0  0  0  0  0  0  0  0  0  0  0
   37.4190   28.2500   39.4550 O   0  0  0  0  0  0  0  0  0  0  0  0
   36.0750   27.0820   41.1730 H   0  0  0  0  0  0  0  0  0  0  0  0
   39.7060   32.4570   40.6440 C   0  0  0  0  0  0  0  0  0  0  0  0
   38.8190   31.4850   40.1520 C   0  0  0  0  0  0  0  0  0  0  0  0
   37.6040   31.9310   39.6550 C   0  0  0  0  0  0  0  0  0  0  0  0
   37.3410   33.2520   39.6680 N   0  0  0  0  0  0  0  0  0  0  0  0
   38.2280   34.1600   40.1530 C   0  0  0  0  0  0  0  0  0  0  0  0
   39.4260   33.7870   40.6510 N   0  0  0  0  0  0  0  0  0  0  0  0
   40.6740   32.2160   41.0520 H   0  0  0  0  0  0  0  0  0  0  0  0
   36.9620   31.1640   39.2920 H   0  0  0  0  0  0  0  0  0  0  0  0
   37.8970   35.1820   40.1070 H   0  0  0  0  0  0  0  0  0  0  0  0
  1  3  1  0  0  0  0
  1  4  1  0  0  0  0
  2  1  1  0  0  0  0
  4  5  1  0  0  0  0
  5  6  2  0  0  0  0
  6  7  1  0  0  0  0
  8  6  1  0  0  0  0
  8  9  2  0  0  0  0
 10  8  1  0  0  0  0
 11  4  1  0  0  0  0
 11 10  1  0  0  0  0
 12 11  2  0  0  0  0
 13 10  1  0  0  0  0
 14 19  1  0  0  0  0
 14 20  1  0  0  0  0
 15  1  1  0  0  0  0
 15 14  2  0  0  0  0
 16 17  2  0  0  0  0
 16 15  1  0  0  0  0
 17 18  1  0  0  0  0
 18 19  2  0  0  0  0
 21 16  1  0  0  0  0
 22 18  1  0  0  0  0
M  END
>  <minimizedAffinity>
-4.03861141

$$$$
