
 OpenBabel03242518393D

 40 43  0  0  1  0  0  0  0  0999 V2000
   48.6740   33.3620   40.7570 O   0  0  0  0  0  0  0  0  0  0  0  0
   48.4550   33.6330   39.3820 C   0  0  0  0  0  0  0  0  0  0  0  0
   48.5590   34.8150   38.6420 C   0  0  0  0  0  0  0  0  0  0  0  0
   48.2330   34.5440   37.3250 C   0  0  0  0  0  0  0  0  0  0  0  0
   47.9470   33.2160   37.3250 C   0  0  0  0  0  0  0  0  0  0  0  0
   48.0760   32.6850   38.5260 O   0  0  0  0  0  0  0  0  0  0  0  0
   48.8550   35.7320   39.1260 H   0  0  0  0  0  0  0  0  0  0  0  0
   48.2300   35.2800   36.5330 H   0  0  0  0  0  0  0  0  0  0  0  0
   47.5350   32.4430   36.1330 C   0  0  2  0  0  0  0  0  0  0  0  0
   48.3220   31.2980   35.6760 C   0  0  0  0  0  0  0  0  0  0  0  0
   48.5240   32.5750   34.9450 C   0  0  1  0  0  0  0  0  0  0  0  0
   46.4700   32.5710   35.8870 H   0  0  0  0  0  0  0  0  0  0  0  0
   49.1440   30.8650   36.2920 H   0  0  0  0  0  0  0  0  0  0  0  0
   47.7230   30.4950   35.1580 H   0  0  0  0  0  0  0  0  0  0  0  0
   49.4010   33.1980   35.0980 H   0  0  0  0  0  0  0  0  0  0  0  0
   48.5760   33.0850   32.5150 C   0  0  0  0  0  0  0  0  0  0  0  0
   49.7970   33.4150   32.5500 O   0  0  0  0  0  0  0  0  0  0  0  0
   47.8390   32.6900   33.6600 N   0  0  0  0  0  0  0  0  0  0  0  0
   48.1480   33.1350   31.5230 H   0  0  0  0  0  0  0  0  0  0  0  0
   46.8220   32.4830   33.5950 H   0  0  0  0  0  0  0  0  0  0  0  0
   48.4670   34.4160   41.6960 C   0  0  0  0  0  0  0  0  0  0  0  0
   49.3420   35.3040   41.7470 O   0  0  0  0  0  0  0  0  0  0  0  0
   47.2710   34.3230   42.4690 C   0  0  0  0  0  0  0  0  0  0  0  0
   46.1390   34.8130   41.8680 C   0  0  0  0  0  0  0  0  0  0  0  0
   44.9380   34.7590   42.5530 C   0  0  0  0  0  0  0  0  0  0  0  0
   44.9310   34.2210   43.7970 N   0  0  0  0  0  0  0  0  0  0  0  0
   46.0510   33.7500   44.3600 C   0  0  0  0  0  0  0  0  0  0  0  0
   47.2040   33.8150   43.6720 N   0  0  0  0  0  0  0  0  0  0  0  0
   46.0610   35.2550   40.8850 H   0  0  0  0  0  0  0  0  0  0  0  0
   44.0110   35.1300   42.1280 H   0  0  0  0  0  0  0  0  0  0  0  0
   45.9830   33.1960   45.6720 N   0  0  0  0  0  0  0  0  0  0  0  0
   46.5940   32.0740   46.1050 C   0  0  0  0  0  3  0  0  0  0  0  0
   46.4430   31.6470   47.4080 C   0  0  0  0  0  0  0  0  0  0  0  0
   46.9480   30.7490   47.7050 H   0  0  0  0  0  0  0  0  0  0  0  0
   45.6430   32.4240   48.2240 C   0  0  0  0  0  0  0  0  0  0  0  0
   45.4940   32.0420   49.4300 O   0  0  0  0  0  0  0  0  0  0  0  0
   45.0400   33.5270   47.8000 N   0  0  0  0  0  0  0  0  0  0  0  0
   45.2090   33.9250   46.5040 C   0  0  0  0  0  0  0  0  0  0  0  0
   44.5950   34.9840   46.2030 O   0  0  0  0  0  0  0  0  0  0  0  0
   44.4480   34.0610   48.4880 H   0  0  0  0  0  0  0  0  0  0  0  0
  1 21  1  0  0  0  0
  2  1  1  0  0  0  0
  3  7  1  0  0  0  0
  3  2  2  0  0  0  0
  4  3  1  0  0  0  0
  5  4  2  0  0  0  0
  5  6  1  0  0  0  0
  6  2  1  0  0  0  0
  8  4  1  0  0  0  0
  9 12  1  6  0  0  0
  9  5  1  0  0  0  0
 10  9  1  0  0  0  0
 10 13  1  0  0  0  0
 11 15  1  1  0  0  0
 11 10  1  0  0  0  0
 11  9  1  0  0  0  0
 14 10  1  0  0  0  0
 16 17  2  0  0  0  0
 16 18  1  0  0  0  0
 18 11  1  0  0  0  0
 19 16  1  0  0  0  0
 20 18  1  0  0  0  0
 21 22  2  0  0  0  0
 21 23  1  0  0  0  0
 23 28  1  0  0  0  0
 24 23  2  0  0  0  0
 24 25  1  0  0  0  0
 25 26  2  0  0  0  0
 26 27  1  0  0  0  0
 27 31  1  0  0  0  0
 28 27  2  0  0  0  0
 29 24  1  0  0  0  0
 30 25  1  0  0  0  0
 31 32  1  0  0  0  0
 31 38  1  0  0  0  0
 32 33  2  0  0  0  0
 33 34  1  0  0  0  0
 33 35  1  0  0  0  0
 35 36  2  0  0  0  0
 37 35  1  0  0  0  0
 37 40  1  0  0  0  0
 38 37  1  0  0  0  0
 39 38  2  0  0  0  0
M  END
>  <minimizedAffinity>
-7.08088398

>  <minimizedRMSD>
1.26749313

$$$$
