
 OpenBabel03242518393D

 40 43  0  0  1  0  0  0  0  0999 V2000
   46.3550   33.5810   41.0060 O   0  0  0  0  0  0  0  0  0  0  0  0
   46.7300   33.5940   39.6380 C   0  0  0  0  0  0  0  0  0  0  0  0
   47.9110   33.9950   39.0050 C   0  0  0  0  0  0  0  0  0  0  0  0
   47.7690   33.8090   37.6420 C   0  0  0  0  0  0  0  0  0  0  0  0
   46.5140   33.3060   37.5090 C   0  0  0  0  0  0  0  0  0  0  0  0
   45.9080   33.1820   38.6740 O   0  0  0  0  0  0  0  0  0  0  0  0
   48.7360   34.3720   39.5880 H   0  0  0  0  0  0  0  0  0  0  0  0
   48.5330   34.0370   36.9110 H   0  0  0  0  0  0  0  0  0  0  0  0
   45.8850   32.9400   36.2210 C   0  0  2  0  0  0  0  0  0  0  0  0
   45.5370   31.5500   35.9270 C   0  0  0  0  0  0  0  0  0  0  0  0
   46.7940   32.0600   35.3230 C   0  0  1  0  0  0  0  0  0  0  0  0
   45.4010   33.7940   35.7230 H   0  0  0  0  0  0  0  0  0  0  0  0
   45.5690   30.7580   36.7100 H   0  0  0  0  0  0  0  0  0  0  0  0
   44.6490   31.4250   35.2430 H   0  0  0  0  0  0  0  0  0  0  0  0
   47.7730   31.7990   35.7150 H   0  0  0  0  0  0  0  0  0  0  0  0
   47.9170   32.6650   33.1910 C   0  0  0  0  0  0  0  0  0  0  0  0
   49.0670   32.6260   33.7170 O   0  0  0  0  0  0  0  0  0  0  0  0
   46.7180   32.4380   33.9140 N   0  0  0  0  0  0  0  0  0  0  0  0
   47.9380   32.8900   32.1340 H   0  0  0  0  0  0  0  0  0  0  0  0
   45.7910   32.5360   33.4530 H   0  0  0  0  0  0  0  0  0  0  0  0
   46.8320   34.6260   41.8490 C   0  0  0  0  0  0  0  0  0  0  0  0
   47.7900   35.3020   41.4200 O   0  0  0  0  0  0  0  0  0  0  0  0
   46.1490   34.7730   43.0940 C   0  0  0  0  0  0  0  0  0  0  0  0
   45.3110   35.8560   43.1830 C   0  0  0  0  0  0  0  0  0  0  0  0
   44.6120   36.0680   44.3590 C   0  0  0  0  0  0  0  0  0  0  0  0
   44.7850   35.1900   45.3770 N   0  0  0  0  0  0  0  0  0  0  0  0
   45.6090   34.1410   45.2620 C   0  0  0  0  0  0  0  0  0  0  0  0
   46.2770   33.9600   44.1090 N   0  0  0  0  0  0  0  0  0  0  0  0
   45.1190   36.5970   42.4220 H   0  0  0  0  0  0  0  0  0  0  0  0
   43.9350   36.9060   44.4880 H   0  0  0  0  0  0  0  0  0  0  0  0
   45.7520   33.2520   46.3670 N   0  0  0  0  0  0  0  0  0  0  0  0
   44.9180   33.1360   47.4210 C   0  0  0  0  0  3  0  0  0  0  0  0
   45.1760   32.2280   48.4280 C   0  0  0  0  0  0  0  0  0  0  0  0
   44.4840   32.1730   49.2440 H   0  0  0  0  0  0  0  0  0  0  0  0
   46.3190   31.4620   48.2910 C   0  0  0  0  0  0  0  0  0  0  0  0
   46.5690   30.6200   49.2130 O   0  0  0  0  0  0  0  0  0  0  0  0
   47.1390   31.5750   47.2560 N   0  0  0  0  0  0  0  0  0  0  0  0
   46.8580   32.4820   46.2740 C   0  0  0  0  0  0  0  0  0  0  0  0
   47.7000   32.5090   45.3350 O   0  0  0  0  0  0  0  0  0  0  0  0
   47.9890   30.9500   47.2290 H   0  0  0  0  0  0  0  0  0  0  0  0
  1 21  1  0  0  0  0
  2  1  1  0  0  0  0
  3  7  1  0  0  0  0
  3  2  2  0  0  0  0
  4  3  1  0  0  0  0
  5  4  2  0  0  0  0
  5  6  1  0  0  0  0
  6  2  1  0  0  0  0
  8  4  1  0  0  0  0
  9 12  1  6  0  0  0
  9  5  1  0  0  0  0
 10  9  1  0  0  0  0
 10 13  1  0  0  0  0
 11 15  1  1  0  0  0
 11 10  1  0  0  0  0
 11  9  1  0  0  0  0
 14 10  1  0  0  0  0
 16 17  2  0  0  0  0
 16 18  1  0  0  0  0
 18 11  1  0  0  0  0
 19 16  1  0  0  0  0
 20 18  1  0  0  0  0
 21 23  1  0  0  0  0
 22 21  2  0  0  0  0
 23 24  2  0  0  0  0
 23 28  1  0  0  0  0
 24 25  1  0  0  0  0
 25 30  1  0  0  0  0
 25 26  2  0  0  0  0
 27 26  1  0  0  0  0
 27 31  1  0  0  0  0
 28 27  2  0  0  0  0
 29 24  1  0  0  0  0
 31 32  1  0  0  0  0
 32 33  2  0  0  0  0
 33 34  1  0  0  0  0
 35 33  1  0  0  0  0
 35 36  2  0  0  0  0
 37 35  1  0  0  0  0
 38 31  1  0  0  0  0
 38 37  1  0  0  0  0
 39 38  2  0  0  0  0
 40 37  1  0  0  0  0
M  END
>  <minimizedAffinity>
-6.39542818

>  <minimizedRMSD>
0.448078752

$$$$
