
     RDKit          3D

 40 42  0  0  0  0  0  0  0  0999 V2000
   46.6768   32.8554   46.6445 C   0  0  2  0  0  0  0  0  0  0  0  0
   47.0472   32.7398   45.2199 C   0  0  1  0  0  0  0  0  0  0  0  0
   46.5347   31.4178   44.8299 O   0  0  0  0  0  0  0  0  0  0  0  0
   47.2126   30.7122   45.8620 C   0  0  0  0  0  0  0  0  0  0  0  0
   46.5813   31.4058   47.1001 C   0  0  2  0  0  0  0  0  0  0  0  0
   44.7131   35.2384   43.9753 C   0  0  0  0  0  0  0  0  0  0  0  0
   45.3413   35.7330   42.8212 C   0  0  0  0  0  0  0  0  0  0  0  0
   46.5857   35.2032   42.4461 C   0  0  0  0  0  0  0  0  0  0  0  0
   47.1318   34.2245   43.2261 N   0  0  0  0  0  0  0  0  0  0  0  0
   46.5046   33.7666   44.3322 C   0  0  0  0  0  0  0  0  0  0  0  0
   45.3004   34.2645   44.7134 N   0  0  0  0  0  0  0  0  0  0  0  0
   43.4801   35.7408   44.3812 O   0  0  0  0  0  0  0  0  0  0  0  0
   45.3612   33.4293   46.7505 O   0  0  0  0  0  0  0  0  0  0  0  0
   45.2679   30.9713   47.1634 O   0  0  0  0  0  0  0  0  0  0  0  0
   45.0000   30.1312   48.2213 C   0  0  0  0  0  0  0  0  0  0  0  0
   45.0646   28.6843   47.9280 C   0  0  0  0  0  0  0  0  0  0  0  0
   47.3914   33.4342   47.2314 H   0  0  0  0  0  0  0  0  0  0  0  0
   48.1688   32.6551   45.1270 H   0  0  0  0  0  0  0  0  0  0  0  0
   47.1172   29.6564   45.8455 H   0  0  0  0  0  0  0  0  0  0  0  0
   48.2983   31.0350   45.8556 H   0  0  0  0  0  0  0  0  0  0  0  0
   47.1991   31.1479   47.9726 H   0  0  0  0  0  0  0  0  0  0  0  0
   44.8739   36.5022   42.2401 H   0  0  0  0  0  0  0  0  0  0  0  0
   47.1072   35.5518   41.5665 H   0  0  0  0  0  0  0  0  0  0  0  0
   43.5071   36.6920   44.7546 H   0  0  0  0  0  0  0  0  0  0  0  0
   44.7053   32.7294   46.5036 H   0  0  0  0  0  0  0  0  0  0  0  0
   45.3324   30.5110   49.1829 H   0  0  0  0  0  0  0  0  0  0  0  0
   43.8190   30.3052   48.3322 H   0  0  0  0  0  0  0  0  0  0  0  0
   46.0379   28.3486   47.4998 H   0  0  0  0  0  0  0  0  0  0  0  0
   44.9713   28.1385   48.8930 H   0  0  0  0  0  0  0  0  0  0  0  0
   44.0650   28.2287   46.9858 N   0  0  0  0  0  0  0  0  0  0  0  0
   43.0401   27.5933   47.6405 C   0  0  0  0  0  0  0  0  0  0  0  0
   41.9205   27.0491   47.0399 C   0  0  0  0  0  0  0  0  0  0  0  0
   41.1218   26.5520   47.5678 H   0  0  0  0  0  0  0  0  0  0  0  0
   41.7937   27.1355   45.6724 C   0  0  0  0  0  0  0  0  0  0  0  0
   40.8568   26.7028   44.9706 O   0  0  0  0  0  0  0  0  0  0  0  0
   42.7959   27.7549   45.0463 N   0  0  0  0  0  0  0  0  0  0  0  0
   43.8516   28.2607   45.6768 C   0  0  0  0  0  0  0  0  0  0  0  0
   44.7741   28.8346   45.0570 O   0  0  0  0  0  0  0  0  0  0  0  0
   42.9947   27.4443   48.7300 H   0  0  0  0  0  0  0  0  0  0  0  0
   42.8014   27.8759   44.0111 H   0  0  0  0  0  0  0  0  0  0  0  0
  1 13  1  0
  1  5  1  0
  2  1  1  0
  3  2  1  0
  3  4  1  0
  4  5  1  0
  5 14  1  0
  6 12  1  0
  6 11  2  0
  7  6  1  0
  8  7  2  0
  8  9  1  0
  9 10  2  0
 10 11  1  0
 10  2  1  0
 14 15  1  0
 16 15  1  0
  1 17  1  1
  2 18  1  1
  4 19  1  0
  4 20  1  0
  5 21  1  1
  7 22  1  0
  8 23  1  0
 12 24  1  0
 13 25  1  0
 15 26  1  0
 15 27  1  0
 16 28  1  0
 16 29  1  0
 30 31  1  0
 31 32  2  0
 32 33  1  0
 32 34  1  0
 34 35  2  0
 34 36  1  0
 36 37  1  0
 37 38  2  0
 37 30  1  0
 31 39  1  0
 36 40  1  0
 16 30  1  0
M  ISO  8  17  13  18  13  19  13  20  13  21  13  22  14  23  14  24   3
M  ISO  6  25   3  26   8  27   8  28   8  29   8  33  16
M  END
>  <DihAtoms>  (1) 
14,15,29,30

>  <DihDeg>  (1) 
-87.36282841660774

$$$$
