
 OpenBabel03252505363D

 34 36  0  0  0  0  0  0  0  0999 V2000
   45.7330   33.1430   45.5040 C   0  0  0  0  0  0  0  0  0  0  0  0
   45.7180   33.4550   44.1240 C   0  0  0  0  0  0  0  0  0  0  0  0
   45.8200   32.4240   43.2190 C   0  0  0  0  0  0  0  0  0  0  0  0
   45.9280   31.1720   43.6980 N   0  0  0  0  0  0  0  0  0  0  0  0
   45.9420   30.8970   45.0300 C   0  0  0  0  0  0  0  0  0  0  0  0
   45.8440   31.8800   45.9270 N   0  0  0  0  0  0  0  0  0  0  0  0
   46.0720   29.5560   45.4960 N   0  0  0  0  0  0  0  0  0  0  0  0
   45.6610   33.8830   46.2890 H   0  0  0  0  0  0  0  0  0  0  0  0
   47.1180   29.4220   45.3620 H   0  0  0  0  0  0  0  0  0  0  0  0
   45.1290   29.1990   45.7900 H   0  0  0  0  0  0  0  0  0  0  0  0
   45.8090   32.6140   41.8040 C   0  0  0  0  0  0  0  0  0  0  0  0
   47.0380   32.6290   41.1420 C   0  0  0  0  0  0  0  0  0  0  0  0
   47.1490   32.7970   39.7630 C   0  0  0  0  0  0  0  0  0  0  0  0
   46.0090   32.9550   39.0180 C   0  0  0  0  0  0  0  0  0  0  0  0
   44.7940   32.9430   39.6530 C   0  0  0  0  0  0  0  0  0  0  0  0
   44.6920   32.7740   41.0280 C   0  0  0  0  0  0  0  0  0  0  0  0
   47.9590   32.5050   41.7130 H   0  0  0  0  0  0  0  0  0  0  0  0
   48.1230   32.8020   39.2850 H   0  0  0  0  0  0  0  0  0  0  0  0
   46.0150   33.0910   37.9400 H   0  0  0  0  0  0  0  0  0  0  0  0
   43.8710   33.0640   39.1070 H   0  0  0  0  0  0  0  0  0  0  0  0
   43.3790   32.7490   41.7060 C   0  0  0  0  0  0  0  0  0  0  0  0
   42.4070   32.4890   40.7420 F   0  0  0  0  0  0  0  0  0  0  0  0
   43.1410   33.9690   42.3050 F   0  0  0  0  0  0  0  0  0  0  0  0
   43.2690   31.8040   42.7000 F   0  0  0  0  0  0  0  0  0  0  0  0
   45.6110   34.8470   43.8790 N   0  0  0  0  0  0  0  0  0  0  0  0
   46.0830   35.5800   42.8590 C   0  0  0  0  0  3  0  0  0  0  0  0
   45.9350   36.9210   42.7160 C   0  0  0  0  0  0  0  0  0  0  0  0
   46.3560   37.4170   41.8520 H   0  0  0  0  0  0  0  0  0  0  0  0
   45.2490   37.6370   43.6750 C   0  0  0  0  0  0  0  0  0  0  0  0
   45.0770   38.8790   43.6010 O   0  0  0  0  0  0  0  0  0  0  0  0
   44.7610   36.9410   44.7110 N   0  0  0  0  0  0  0  0  0  0  0  0
   44.9410   35.6160   44.7930 C   0  0  0  0  0  0  0  0  0  0  0  0
   44.4220   35.0830   45.8330 O   0  0  0  0  0  0  0  0  0  0  0  0
   44.2460   37.4800   45.4300 H   0  0  0  0  0  0  0  0  0  0  0  0
  1  6  1  0  0  0  0
  1  8  1  0  0  0  0
  2  1  2  0  0  0  0
  3  4  2  0  0  0  0
  3  2  1  0  0  0  0
  4  5  1  0  0  0  0
  5  7  1  0  0  0  0
  5  6  2  0  0  0  0
  7 10  1  0  0  0  0
  9  7  1  0  0  0  0
 11  3  1  0  0  0  0
 12 17  1  0  0  0  0
 12 11  1  0  0  0  0
 13 12  2  0  0  0  0
 14 15  2  0  0  0  0
 14 13  1  0  0  0  0
 15 16  1  0  0  0  0
 16 21  1  0  0  0  0
 16 11  2  0  0  0  0
 18 13  1  0  0  0  0
 19 14  1  0  0  0  0
 20 15  1  0  0  0  0
 21 23  1  0  0  0  0
 21 24  1  0  0  0  0
 22 21  1  0  0  0  0
 25  2  1  0  0  0  0
 25 32  1  0  0  0  0
 26 25  1  0  0  0  0
 27 26  2  0  0  0  0
 27 29  1  0  0  0  0
 28 27  1  0  0  0  0
 29 31  1  0  0  0  0
 30 29  2  0  0  0  0
 31 32  1  0  0  0  0
 31 34  1  0  0  0  0
 32 33  2  0  0  0  0
M  END
>  <minimizedAffinity>
-3.670645

>  <minimizedRMSD>
2.91249704

$$$$
