
 OpenBabel03252506553D

 39 43  0  0  0  0  0  0  0  0999 V2000
   47.2050   31.3340   45.1930 C   0  0  0  0  0  0  0  0  0  0  0  0
   46.8330   32.6750   45.1930 C   0  0  0  0  0  0  0  0  0  0  0  0
   46.2250   33.2750   46.2760 C   0  0  0  0  0  0  0  0  0  0  0  0
   45.9590   32.5390   47.4290 C   0  0  0  0  0  0  0  0  0  0  0  0
   45.3920   32.7970   48.6390 N   0  0  0  0  0  0  0  0  0  0  0  0
   45.4140   31.6430   49.3660 C   0  0  0  0  0  0  0  0  0  0  0  0
   45.9920   30.7000   48.5910 N   0  0  0  0  0  0  0  0  0  0  0  0
   46.3330   31.2170   47.4060 C   0  0  0  0  0  0  0  0  0  0  0  0
   46.9350   30.5900   46.3570 C   0  0  0  0  0  0  0  0  0  0  0  0
   47.6830   30.8580   44.3420 H   0  0  0  0  0  0  0  0  0  0  0  0
   45.9370   34.3310   46.2660 H   0  0  0  0  0  0  0  0  0  0  0  0
   45.0190   33.7200   48.9290 H   0  0  0  0  0  0  0  0  0  0  0  0
   45.0310   31.5480   50.3710 H   0  0  0  0  0  0  0  0  0  0  0  0
   46.4440   35.1750   42.5210 C   0  0  0  0  0  0  0  0  0  0  0  0
   47.6040   34.9810   41.7680 C   0  0  0  0  0  0  0  0  0  0  0  0
   48.5150   33.9990   42.1730 C   0  0  0  0  0  0  0  0  0  0  0  0
   48.2220   33.2660   43.3020 N   0  0  0  0  0  0  0  0  0  0  0  0
   47.0970   33.4780   44.0040 C   0  0  0  0  0  0  0  0  0  0  0  0
   46.2010   34.4240   43.6290 N   0  0  0  0  0  0  0  0  0  0  0  0
   45.7420   35.9340   42.2050 H   0  0  0  0  0  0  0  0  0  0  0  0
   47.8490   35.5470   40.8790 H   0  0  0  0  0  0  0  0  0  0  0  0
   49.4350   33.7590   41.6800 H   0  0  0  0  0  0  0  0  0  0  0  0
   47.3000   29.1680   46.4260 C   0  0  0  0  0  0  0  0  0  0  0  0
   48.5920   28.6930   46.5090 C   0  0  0  0  0  0  0  0  0  0  0  0
   48.4400   27.3110   46.5500 C   0  0  0  0  0  0  0  0  0  0  0  0
   47.0950   27.0210   46.4910 C   0  0  0  0  0  0  0  0  0  0  0  0
   46.4610   28.1740   46.4180 O   0  0  0  0  0  0  0  0  0  0  0  0
   49.5220   29.2580   46.5370 H   0  0  0  0  0  0  0  0  0  0  0  0
   49.2480   26.5950   46.6150 H   0  0  0  0  0  0  0  0  0  0  0  0
   46.4510   25.7530   46.5020 N   0  0  0  0  0  0  0  0  0  0  0  0
   46.2920   25.0590   45.3620 C   0  0  0  0  0  0  0  0  0  0  0  0
   45.6720   23.8160   45.3050 C   0  0  0  0  0  0  0  0  0  0  0  0
   45.5930   23.3430   44.3480 H   0  0  0  0  0  0  0  0  0  0  0  0
   45.1960   23.2680   46.4840 C   0  0  0  0  0  0  0  0  0  0  0  0
   44.6310   22.1420   46.4600 O   0  0  0  0  0  0  0  0  0  0  0  0
   45.3590   23.9740   47.6410 N   0  0  0  0  0  0  0  0  0  0  0  0
   45.9710   25.1720   47.6090 C   0  0  0  0  0  0  0  0  0  0  0  0
   46.0790   25.7490   48.7040 O   0  0  0  0  0  0  0  0  0  0  0  0
   44.9940   23.5480   48.5300 H   0  0  0  0  0  0  0  0  0  0  0  0
  1  9  1  0  0  0  0
  2  1  2  0  0  0  0
  2  3  1  0  0  0  0
  3  4  2  0  0  0  0
  4  5  1  0  0  0  0
  5 12  1  0  0  0  0
  5  6  1  0  0  0  0
  6 13  1  0  0  0  0
  7  6  2  0  0  0  0
  8  4  1  0  0  0  0
  8  7  1  0  0  0  0
  9 23  1  0  0  0  0
  9  8  2  0  0  0  0
 10  1  1  0  0  0  0
 11  3  1  0  0  0  0
 14 19  1  0  0  0  0
 15 16  1  0  0  0  0
 15 14  2  0  0  0  0
 16 17  2  0  0  0  0
 17 18  1  0  0  0  0
 18  2  1  0  0  0  0
 19 18  2  0  0  0  0
 20 14  1  0  0  0  0
 21 15  1  0  0  0  0
 22 16  1  0  0  0  0
 23 24  2  0  0  0  0
 24 28  1  0  0  0  0
 24 25  1  0  0  0  0
 25 29  1  0  0  0  0
 26 30  1  0  0  0  0
 26 25  2  0  0  0  0
 27 23  1  0  0  0  0
 27 26  1  0  0  0  0
 30 37  1  0  0  0  0
 31 30  1  0  0  0  0
 32 31  2  0  0  0  0
 32 34  1  0  0  0  0
 33 32  1  0  0  0  0
 34 36  1  0  0  0  0
 35 34  2  0  0  0  0
 36 39  1  0  0  0  0
 37 36  1  0  0  0  0
 37 38  2  0  0  0  0
M  END
>  <minimizedAffinity>
-5.74681139

>  <minimizedRMSD>
0.343167931

$$$$
