
 OpenBabel03252506183D

 24 25  0  0  0  0  0  0  0  0999 V2000
   44.8900   35.6890   44.1030 C   0  0  0  0  0  0  0  0  0  0  0  0
   44.4600   35.1640   42.8710 C   0  0  0  0  0  0  0  0  0  0  0  0
   44.5920   33.8010   42.6450 C   0  0  0  0  0  0  0  0  0  0  0  0
   45.1300   33.0440   43.6270 N   0  0  0  0  0  0  0  0  0  0  0  0
   45.5360   33.5700   44.8040 C   0  0  0  0  0  0  0  0  0  0  0  0
   45.4160   34.8740   45.0360 N   0  0  0  0  0  0  0  0  0  0  0  0
   44.0490   35.8630   42.1680 H   0  0  0  0  0  0  0  0  0  0  0  0
   44.2620   33.3960   41.6960 H   0  0  0  0  0  0  0  0  0  0  0  0
   46.0790   32.6340   45.7270 N   0  0  0  0  0  0  0  0  0  0  0  0
   45.7410   32.6260   47.0470 C   0  0  0  0  0  3  0  0  0  0  0  0
   46.2830   31.7050   47.9220 C   0  0  0  0  0  0  0  0  0  0  0  0
   45.9790   31.7420   48.9710 H   0  0  0  0  0  0  0  0  0  0  0  0
   47.1860   30.7710   47.4550 C   0  0  0  0  0  0  0  0  0  0  0  0
   47.6610   29.9500   48.2680 O   0  0  0  0  0  0  0  0  0  0  0  0
   47.4940   30.8170   46.1310 N   0  0  0  0  0  0  0  0  0  0  0  0
   46.9570   31.7200   45.2900 C   0  0  0  0  0  0  0  0  0  0  0  0
   47.3460   31.6310   44.0820 O   0  0  0  0  0  0  0  0  0  0  0  0
   48.1930   30.0620   45.8700 H   0  0  0  0  0  0  0  0  0  0  0  0
   44.7570   37.1340   44.3600 C   0  0  0  0  0  3  0  0  0  0  0  0
   45.4610   37.9460   43.5820 C   0  0  0  0  0  3  0  0  0  0  0  0
   45.3710   39.4210   43.7900 C   0  0  0  0  0  0  0  0  0  0  0  0
   45.6630   39.8960   42.8120 H   0  0  0  0  0  0  0  0  0  0  0  0
   44.3810   39.7460   44.1390 H   0  0  0  0  0  0  0  0  0  0  0  0
   46.1170   39.7140   44.5550 H   0  0  0  0  0  0  0  0  0  0  0  0
  1 19  1  0  0  0  0
  1  6  1  0  0  0  0
  2  1  2  0  0  0  0
  3  2  1  0  0  0  0
  3  4  2  0  0  0  0
  4  5  1  0  0  0  0
  5  6  2  0  0  0  0
  5  9  1  0  0  0  0
  7  2  1  0  0  0  0
  8  3  1  0  0  0  0
  9 10  1  0  0  0  0
 10 11  2  0  0  0  0
 11 12  1  0  0  0  0
 13 11  1  0  0  0  0
 13 14  2  0  0  0  0
 15 13  1  0  0  0  0
 16  9  1  0  0  0  0
 16 15  1  0  0  0  0
 17 16  2  0  0  0  0
 18 15  1  0  0  0  0
 20 21  1  0  0  0  0
 20 19  2  0  0  0  0
 21 23  1  0  0  0  0
 21 24  1  0  0  0  0
 22 21  1  0  0  0  0
M  END
>  <minimizedAffinity>
-3.9827652

>  <minimizedRMSD>
1.79554689

$$$$
