
     RDKit          3D

 41 44  0  0  0  0  0  0  0  0999 V2000
   47.3849   33.7254   39.7676 C   0  0  0  0  0  0  0  0  0  0  0  0
   48.3202   34.4401   39.0120 C   0  0  0  0  0  0  0  0  0  0  0  0
   48.0389   34.2546   37.6698 C   0  0  0  0  0  0  0  0  0  0  0  0
   46.9517   33.4402   37.6717 C   0  0  0  0  0  0  0  0  0  0  0  0
   46.5711   33.1318   38.8969 O   0  0  0  0  0  0  0  0  0  0  0  0
   46.2639   32.9506   36.4574 C   0  0  2  0  0  0  0  0  0  0  0  0
   46.0588   31.5192   36.2398 C   0  0  0  0  0  0  0  0  0  0  0  0
   47.1907   32.1451   35.5101 C   0  0  1  0  0  0  0  0  0  0  0  0
   48.0581   32.6421   33.2355 C   0  0  0  0  0  0  0  0  0  0  0  0
   49.2610   32.6280   33.6265 O   0  0  0  0  0  0  0  0  0  0  0  0
   46.9514   32.4519   34.1016 N   0  0  0  0  0  0  0  0  0  0  0  0
   47.2242   33.5800   41.1699 O   0  0  0  0  0  0  0  0  0  0  0  0
   47.3560   34.7391   41.9899 C   0  0  0  0  0  0  0  0  0  0  0  0
   48.2294   35.5670   41.6565 O   0  0  0  0  0  0  0  0  0  0  0  0
   46.4641   34.8104   43.1019 C   0  0  0  0  0  0  0  0  0  0  0  0
   45.5610   35.8422   43.0701 C   0  0  0  0  0  0  0  0  0  0  0  0
   44.6607   35.9787   44.1132 C   0  0  0  0  0  0  0  0  0  0  0  0
   44.7112   35.0812   45.1269 N   0  0  0  0  0  0  0  0  0  0  0  0
   45.6032   34.0832   45.1330 C   0  0  0  0  0  0  0  0  0  0  0  0
   46.4663   33.9741   44.1067 N   0  0  0  0  0  0  0  0  0  0  0  0
   49.0923   35.0091   39.5035 H   0  0  0  0  0  0  0  0  0  0  0  0
   48.6065   34.6949   36.8611 H   0  0  0  0  0  0  0  0  0  0  0  0
   45.6418   33.7225   35.9779 H   0  0  0  0  0  0  0  0  0  0  0  0
   46.2507   30.7687   37.0406 H   0  0  0  0  0  0  0  0  0  0  0  0
   45.1369   31.2637   35.6416 H   0  0  0  0  0  0  0  0  0  0  0  0
   48.2238   32.0153   35.8214 H   0  0  0  0  0  0  0  0  0  0  0  0
   47.9556   32.8140   32.1727 H   0  0  0  0  0  0  0  0  0  0  0  0
   45.9769   32.5280   33.7471 H   0  0  0  0  0  0  0  0  0  0  0  0
   45.4573   36.5949   42.3025 H   0  0  0  0  0  0  0  0  0  0  0  0
   43.9243   36.7749   44.1415 H   0  0  0  0  0  0  0  0  0  0  0  0
   45.6088   33.1693   46.2267 N   0  0  0  0  0  0  0  0  0  0  0  0
   44.5381   32.5504   46.7647 C   0  0  0  0  0  0  0  0  0  0  0  0
   44.6854   31.6839   47.8287 C   0  0  0  0  0  0  0  0  0  0  0  0
   43.8043   31.2159   48.2219 H   0  0  0  0  0  0  0  0  0  0  0  0
   45.9716   31.4945   48.2977 C   0  0  0  0  0  0  0  0  0  0  0  0
   46.1225   30.6973   49.2794 O   0  0  0  0  0  0  0  0  0  0  0  0
   47.0260   32.1023   47.7700 N   0  0  0  0  0  0  0  0  0  0  0  0
   46.8486   32.9543   46.7178 C   0  0  0  0  0  0  0  0  0  0  0  0
   47.9129   33.4795   46.2908 O   0  0  0  0  0  0  0  0  0  0  0  0
   43.5980   32.7979   46.2914 H   0  0  0  0  0  0  0  0  0  0  0  0
   47.9719   31.9014   48.1887 H   0  0  0  0  0  0  0  0  0  0  0  0
  1 12  1  0
  2  1  2  0
  3  2  1  0
  4  3  2  0
  4  5  1  0
  5  1  1  0
  6  4  1  0
  7  6  1  0
  8  7  1  0
  8  6  1  0
  9 10  2  0
  9 11  1  0
 11  8  1  0
 12 13  1  0
 13 15  1  0
 14 13  2  0
 15 20  1  0
 16 15  2  0
 16 17  1  0
 17 18  2  0
 19 18  1  0
 20 19  2  0
  2 21  1  0
  3 22  1  0
  6 23  1  6
  7 24  1  0
  7 25  1  0
  8 26  1  1
  9 27  1  0
 11 28  1  0
 16 29  1  0
 17 30  1  0
 31 32  1  0
 32 33  2  0
 33 34  1  0
 33 35  1  0
 35 36  2  0
 35 37  1  0
 37 38  1  0
 38 39  2  0
 38 31  1  0
 32 40  1  0
 37 41  1  0
 19 31  1  0
M  ISO  8  21  14  22  14  23  13  24  13  25  13  26  13  27   6  29  14
M  ISO  2  30  14  34  16
M  END
>  <DihAtoms>  (1) 
17,18,30,31

>  <DihDeg>  (1) 
122.48144794967575

$$$$
