
 OpenBabel03252509043D

 49 51  0  0  1  0  0  0  0  0999 V2000
   47.1440   34.1520   43.0700 N   0  0  0  0  0  0  0  0  0  0  0  0
   46.6660   35.3250   42.4460 C   0  0  0  0  0  0  0  0  0  0  0  0
   45.1720   35.5460   42.6090 C   0  0  0  0  0  0  0  0  0  0  0  0
   44.6230   35.0850   43.9380 C   0  0  0  0  0  0  0  0  0  0  0  0
   45.7350   34.5980   44.8490 C   0  0  0  0  0  0  0  0  0  0  0  0
   46.4120   33.4500   43.9940 C   0  0  2  0  0  0  0  0  0  0  0  0
   47.1780   36.1950   42.9260 H   0  0  0  0  0  0  0  0  0  0  0  0
   46.8670   35.4170   41.3730 H   0  0  0  0  0  0  0  0  0  0  0  0
   44.6030   35.1120   41.7540 H   0  0  0  0  0  0  0  0  0  0  0  0
   44.9820   36.6390   42.5440 H   0  0  0  0  0  0  0  0  0  0  0  0
   43.9730   34.2050   43.7380 H   0  0  0  0  0  0  0  0  0  0  0  0
   43.9810   35.8330   44.4320 H   0  0  0  0  0  0  0  0  0  0  0  0
   45.3010   34.1610   45.7550 H   0  0  0  0  0  0  0  0  0  0  0  0
   46.4730   35.3810   45.0270 H   0  0  0  0  0  0  0  0  0  0  0  0
   45.5930   32.8230   43.5880 H   0  0  0  0  0  0  0  0  0  0  0  0
   48.1670   33.4650   42.3260 C   0  0  0  0  0  0  0  0  0  0  0  0
   48.7860   32.9260   43.0710 H   0  0  0  0  0  0  0  0  0  0  0  0
   48.7790   34.2450   41.8270 H   0  0  0  0  0  0  0  0  0  0  0  0
   47.4990   32.5450   41.3690 C   0  0  0  0  0  0  0  0  0  0  0  0
   46.4040   32.7590   41.2730 H   0  0  0  0  0  0  0  0  0  0  0  0
   47.6000   31.4970   41.6670 H   0  0  0  0  0  0  0  0  0  0  0  0
   49.4410   31.9740   38.2040 C   0  0  0  0  0  0  0  0  0  0  0  0
   48.8950   31.7970   39.4900 C   0  0  0  0  0  0  0  0  0  0  0  0
   48.0630   32.7530   40.0110 C   0  0  0  0  0  0  0  0  0  0  0  0
   47.8060   33.8250   39.2550 N   0  0  0  0  0  0  0  0  0  0  0  0
   48.3190   34.0030   38.0320 C   0  0  0  0  0  0  0  0  0  0  0  0
   49.1440   33.0800   37.4880 N   0  0  0  0  0  0  0  0  0  0  0  0
   50.0870   31.1760   37.8680 H   0  0  0  0  0  0  0  0  0  0  0  0
   49.1170   30.9170   40.0900 H   0  0  0  0  0  0  0  0  0  0  0  0
   48.1210   34.8650   37.4090 H   0  0  0  0  0  0  0  0  0  0  0  0
   47.1850   32.8330   44.9590 O   0  0  0  0  0  0  0  0  0  0  0  0
   46.0500   30.5850   44.0840 O   0  0  0  0  0  0  0  0  0  0  0  0
   46.6660   31.2770   45.3080 P   0  0  2  0  0  0  0  0  0  0  0  0
   45.3300   31.4700   46.3770 O   0  0  0  0  0  0  0  0  0  0  0  0
   45.6340   31.5000   47.3050 H   0  0  0  0  0  0  0  0  0  0  0  0
   47.8080   30.3420   46.0770 O   0  0  0  0  0  0  0  0  0  0  0  0
   47.7320   29.0470   45.5850 C   0  0  0  0  0  0  0  0  0  0  0  0
   46.7350   28.5870   45.8160 H   0  0  0  0  0  0  0  0  0  0  0  0
   47.9060   29.0140   44.4990 H   0  0  0  0  0  0  0  0  0  0  0  0
   48.7320   28.2580   46.2800 N   0  0  0  0  0  0  0  0  0  0  0  0
   48.8040   28.0360   47.6040 C   0  0  0  0  0  3  0  0  0  0  0  0
   49.8210   27.2570   48.1320 C   0  0  0  0  0  0  0  0  0  0  0  0
   49.8550   27.0950   49.1980 H   0  0  0  0  0  0  0  0  0  0  0  0
   50.7860   26.6880   47.3110 C   0  0  0  0  0  0  0  0  0  0  0  0
   51.7110   25.9820   47.7790 O   0  0  0  0  0  0  0  0  0  0  0  0
   50.6740   26.9370   45.9980 N   0  0  0  0  0  0  0  0  0  0  0  0
   49.6840   27.6950   45.4920 C   0  0  0  0  0  0  0  0  0  0  0  0
   49.7080   27.8390   44.2500 O   0  0  0  0  0  0  0  0  0  0  0  0
   51.4180   26.4940   45.4080 H   0  0  0  0  0  0  0  0  0  0  0  0
  1  6  1  0  0  0  0
  2  3  1  0  0  0  0
  2  7  1  0  0  0  0
  2  1  1  0  0  0  0
  3  4  1  0  0  0  0
  4 12  1  0  0  0  0
  4  5  1  0  0  0  0
  5 14  1  0  0  0  0
  5 13  1  0  0  0  0
  6 15  1  6  0  0  0
  6  5  1  0  0  0  0
  6 31  1  0  0  0  0
  8  2  1  0  0  0  0
  9  3  1  0  0  0  0
 10  3  1  0  0  0  0
 11  4  1  0  0  0  0
 16  1  1  0  0  0  0
 16 17  1  0  0  0  0
 18 16  1  0  0  0  0
 19 21  1  0  0  0  0
 19 16  1  0  0  0  0
 20 19  1  0  0  0  0
 22 23  1  0  0  0  0
 23 24  2  0  0  0  0
 23 29  1  0  0  0  0
 24 19  1  0  0  0  0
 25 24  1  0  0  0  0
 26 25  2  0  0  0  0
 27 26  1  0  0  0  0
 27 22  2  0  0  0  0
 28 22  1  0  0  0  0
 30 26  1  0  0  0  0
 31 33  1  0  0  0  0
 33 32  2  6  0  0  0
 33 36  1  0  0  0  0
 33 34  1  0  0  0  0
 34 35  1  0  0  0  0
 37 38  1  0  0  0  0
 37 36  1  0  0  0  0
 37 40  1  0  0  0  0
 39 37  1  0  0  0  0
 40 41  1  0  0  0  0
 41 42  2  0  0  0  0
 42 43  1  0  0  0  0
 44 45  2  0  0  0  0
 44 42  1  0  0  0  0
 46 44  1  0  0  0  0
 47 46  1  0  0  0  0
 47 40  1  0  0  0  0
 48 47  2  0  0  0  0
 49 46  1  0  0  0  0
M  END
>  <minimizedAffinity>
-3.67141128

>  <minimizedRMSD>
0.401623845

$$$$
