
 OpenBabel03252504123D

 26 27  0  0  0  0  0  0  0  0999 V2000
   39.0630   26.8310   41.4450 C   0  0  0  0  0  0  0  0  0  0  0  0
   37.8420   26.1780   41.6620 C   0  0  0  0  0  0  0  0  0  0  0  0
   36.6660   26.9440   41.6100 C   0  0  0  0  0  0  0  0  0  0  0  0
   36.7700   28.2690   41.3540 N   0  0  0  0  0  0  0  0  0  0  0  0
   37.9760   28.8670   41.1490 C   0  0  0  0  0  0  0  0  0  0  0  0
   39.1060   28.1500   41.1940 N   0  0  0  0  0  0  0  0  0  0  0  0
   35.7270   26.4580   41.7730 H   0  0  0  0  0  0  0  0  0  0  0  0
   38.0240   30.2650   40.8830 N   0  0  0  0  0  0  0  0  0  0  0  0
   39.2060   30.8840   40.7090 C   0  0  0  0  0  3  0  0  0  0  0  0
   39.3130   32.2470   40.4470 C   0  0  0  0  0  0  0  0  0  0  0  0
   40.2740   32.7280   40.3100 H   0  0  0  0  0  0  0  0  0  0  0  0
   38.1040   32.9100   40.3820 C   0  0  0  0  0  0  0  0  0  0  0  0
   38.1520   34.1610   40.1450 O   0  0  0  0  0  0  0  0  0  0  0  0
   36.9130   32.3110   40.5530 N   0  0  0  0  0  0  0  0  0  0  0  0
   36.8960   30.9700   40.8070 C   0  0  0  0  0  0  0  0  0  0  0  0
   35.7910   30.3890   40.9710 O   0  0  0  0  0  0  0  0  0  0  0  0
   36.0420   32.8740   40.4910 H   0  0  0  0  0  0  0  0  0  0  0  0
   37.8420   24.7160   41.9350 C   0  0  0  0  0  0  0  0  0  0  0  0
   36.5550   24.2690   42.1430 F   0  0  0  0  0  0  0  0  0  0  0  0
   38.3290   24.0650   40.8090 F   0  0  0  0  0  0  0  0  0  0  0  0
   38.5880   24.3470   43.0180 F   0  0  0  0  0  0  0  0  0  0  0  0
   40.1820   26.0820   41.4970 O   0  0  0  0  0  0  0  0  0  0  0  0
   41.2030   26.1540   42.4560 C   0  0  0  0  0  0  0  0  0  0  0  0
   41.6500   24.8560   42.6840 F   0  0  0  0  0  0  0  0  0  0  0  0
   42.1910   27.0060   42.0240 F   0  0  0  0  0  0  0  0  0  0  0  0
   40.6700   26.5520   43.6760 F   0  0  0  0  0  0  0  0  0  0  0  0
  1 22  1  0  0  0  0
  1  2  1  0  0  0  0
  2 18  1  0  0  0  0
  3  2  2  0  0  0  0
  3  7  1  0  0  0  0
  4  3  1  0  0  0  0
  5  6  1  0  0  0  0
  5  4  2  0  0  0  0
  6  1  2  0  0  0  0
  8  5  1  0  0  0  0
  9  8  1  0  0  0  0
 10  9  2  0  0  0  0
 11 10  1  0  0  0  0
 12 10  1  0  0  0  0
 12 14  1  0  0  0  0
 13 12  2  0  0  0  0
 14 15  1  0  0  0  0
 15  8  1  0  0  0  0
 15 16  2  0  0  0  0
 17 14  1  0  0  0  0
 18 19  1  0  0  0  0
 18 21  1  0  0  0  0
 20 18  1  0  0  0  0
 22 23  1  0  0  0  0
 23 24  1  0  0  0  0
 23 26  1  0  0  0  0
 25 23  1  0  0  0  0
M  END
>  <minimizedAffinity>
-5.55105019

$$$$

 OpenBabel03252504123D

 26 27  0  0  0  0  0  0  0  0999 V2000
   39.3760   31.5510   38.4690 C   0  0  0  0  0  0  0  0  0  0  0  0
   39.4200   32.7070   39.2600 C   0  0  0  0  0  0  0  0  0  0  0  0
   40.6090   33.4550   39.2690 C   0  0  0  0  0  0  0  0  0  0  0  0
   41.6490   33.0240   38.5150 N   0  0  0  0  0  0  0  0  0  0  0  0
   41.5660   31.8940   37.7600 C   0  0  0  0  0  0  0  0  0  0  0  0
   40.4390   31.1700   37.7410 N   0  0  0  0  0  0  0  0  0  0  0  0
   40.6570   34.3400   39.8670 H   0  0  0  0  0  0  0  0  0  0  0  0
   42.6920   31.4900   36.9870 N   0  0  0  0  0  0  0  0  0  0  0  0
   42.6450   30.3600   36.2580 C   0  0  0  0  0  3  0  0  0  0  0  0
   43.7130   29.9160   35.4850 C   0  0  0  0  0  0  0  0  0  0  0  0
   43.6570   29.0020   34.9040 H   0  0  0  0  0  0  0  0  0  0  0  0
   44.8260   30.7310   35.5300 C   0  0  0  0  0  0  0  0  0  0  0  0
   45.8310   30.3650   34.8380 O   0  0  0  0  0  0  0  0  0  0  0  0
   44.8930   31.8640   36.2510 N   0  0  0  0  0  0  0  0  0  0  0  0
   43.8000   32.2290   36.9830 C   0  0  0  0  0  0  0  0  0  0  0  0
   43.8420   33.2850   37.6660 O   0  0  0  0  0  0  0  0  0  0  0  0
   45.7640   32.4300   36.2390 H   0  0  0  0  0  0  0  0  0  0  0  0
   38.2200   33.0900   40.0490 C   0  0  0  0  0  0  0  0  0  0  0  0
   38.5080   34.1610   40.8680 F   0  0  0  0  0  0  0  0  0  0  0  0
   37.2320   33.5010   39.1630 F   0  0  0  0  0  0  0  0  0  0  0  0
   37.7220   32.0900   40.8370 F   0  0  0  0  0  0  0  0  0  0  0  0
   38.2290   30.8440   38.4710 O   0  0  0  0  0  0  0  0  0  0  0  0
   37.3340   30.6820   37.4040 C   0  0  0  0  0  0  0  0  0  0  0  0
   36.0790   30.4270   37.9490 F   0  0  0  0  0  0  0  0  0  0  0  0
   37.3640   31.7930   36.5950 F   0  0  0  0  0  0  0  0  0  0  0  0
   37.6460   29.5220   36.7050 F   0  0  0  0  0  0  0  0  0  0  0  0
  1 22  1  0  0  0  0
  1  2  1  0  0  0  0
  2  3  2  0  0  0  0
  2 18  1  0  0  0  0
  3  7  1  0  0  0  0
  4  3  1  0  0  0  0
  5  4  2  0  0  0  0
  6  5  1  0  0  0  0
  6  1  2  0  0  0  0
  8  5  1  0  0  0  0
  9  8  1  0  0  0  0
 10 12  1  0  0  0  0
 10  9  2  0  0  0  0
 11 10  1  0  0  0  0
 12 14  1  0  0  0  0
 13 12  2  0  0  0  0
 14 15  1  0  0  0  0
 15  8  1  0  0  0  0
 15 16  2  0  0  0  0
 17 14  1  0  0  0  0
 18 21  1  0  0  0  0
 18 19  1  0  0  0  0
 20 18  1  0  0  0  0
 23 24  1  0  0  0  0
 23 22  1  0  0  0  0
 25 23  1  0  0  0  0
 26 23  1  0  0  0  0
M  END
>  <minimizedAffinity>
-5.51995945

$$$$

 OpenBabel03252504123D

 26 27  0  0  0  0  0  0  0  0999 V2000
   37.9960   29.2220   41.1380 C   0  0  0  0  0  0  0  0  0  0  0  0
   37.0270   29.7510   40.2750 C   0  0  0  0  0  0  0  0  0  0  0  0
   37.2540   31.0270   39.7310 C   0  0  0  0  0  0  0  0  0  0  0  0
   38.3920   31.6780   40.0680 N   0  0  0  0  0  0  0  0  0  0  0  0
   39.3100   31.1290   40.9110 C   0  0  0  0  0  0  0  0  0  0  0  0
   39.1080   29.9140   41.4370 N   0  0  0  0  0  0  0  0  0  0  0  0
   36.5230   31.4430   39.0710 H   0  0  0  0  0  0  0  0  0  0  0  0
   40.4890   31.8620   41.2280 N   0  0  0  0  0  0  0  0  0  0  0  0
   41.3950   31.3540   42.0840 C   0  0  0  0  0  3  0  0  0  0  0  0
   42.5640   32.0250   42.4310 C   0  0  0  0  0  0  0  0  0  0  0  0
   43.2820   31.6000   43.1220 H   0  0  0  0  0  0  0  0  0  0  0  0
   42.7160   33.2550   41.8230 C   0  0  0  0  0  0  0  0  0  0  0  0
   43.7720   33.9070   42.1100 O   0  0  0  0  0  0  0  0  0  0  0  0
   41.8240   33.7790   40.9660 N   0  0  0  0  0  0  0  0  0  0  0  0
   40.7020   33.0570   40.6790 C   0  0  0  0  0  0  0  0  0  0  0  0
   39.8530   33.5300   39.8790 O   0  0  0  0  0  0  0  0  0  0  0  0
   42.0030   34.7130   40.5450 H   0  0  0  0  0  0  0  0  0  0  0  0
   35.8120   28.9490   39.9730 C   0  0  0  0  0  0  0  0  0  0  0  0
   34.9800   28.9120   41.0710 F   0  0  0  0  0  0  0  0  0  0  0  0
   35.1180   29.5830   38.9500 F   0  0  0  0  0  0  0  0  0  0  0  0
   36.0680   27.6590   39.6030 F   0  0  0  0  0  0  0  0  0  0  0  0
   37.7650   27.9980   41.6510 O   0  0  0  0  0  0  0  0  0  0  0  0
   37.4860   27.6800   42.9880 C   0  0  0  0  0  0  0  0  0  0  0  0
   37.0860   28.8530   43.6190 F   0  0  0  0  0  0  0  0  0  0  0  0
   36.5450   26.6790   43.0430 F   0  0  0  0  0  0  0  0  0  0  0  0
   38.6620   27.3240   43.6380 F   0  0  0  0  0  0  0  0  0  0  0  0
  1  6  1  0  0  0  0
  1 22  1  0  0  0  0
  2  1  2  0  0  0  0
  3  4  2  0  0  0  0
  3  2  1  0  0  0  0
  4  5  1  0  0  0  0
  5  8  1  0  0  0  0
  5  6  2  0  0  0  0
  7  3  1  0  0  0  0
  8  9  1  0  0  0  0
  9 10  2  0  0  0  0
 10 11  1  0  0  0  0
 12 13  2  0  0  0  0
 12 10  1  0  0  0  0
 14 12  1  0  0  0  0
 15 14  1  0  0  0  0
 15  8  1  0  0  0  0
 16 15  2  0  0  0  0
 17 14  1  0  0  0  0
 18  2  1  0  0  0  0
 18 19  1  0  0  0  0
 20 18  1  0  0  0  0
 21 18  1  0  0  0  0
 22 23  1  0  0  0  0
 23 25  1  0  0  0  0
 23 24  1  0  0  0  0
 23 26  1  0  0  0  0
M  END
>  <minimizedAffinity>
-5.45711517

$$$$

 OpenBabel03252504123D

 26 27  0  0  0  0  0  0  0  0999 V2000
   36.9810   27.1840   40.7510 C   0  0  0  0  0  0  0  0  0  0  0  0
   37.3580   28.2380   41.5940 C   0  0  0  0  0  0  0  0  0  0  0  0
   37.5950   29.4960   41.0140 C   0  0  0  0  0  0  0  0  0  0  0  0
   37.4480   29.6250   39.6740 N   0  0  0  0  0  0  0  0  0  0  0  0
   37.0810   28.5760   38.8880 C   0  0  0  0  0  0  0  0  0  0  0  0
   36.8510   27.3710   39.4270 N   0  0  0  0  0  0  0  0  0  0  0  0
   37.8820   30.3090   41.6460 H   0  0  0  0  0  0  0  0  0  0  0  0
   36.9420   28.7730   37.4850 N   0  0  0  0  0  0  0  0  0  0  0  0
   36.6110   27.7430   36.6840 C   0  0  0  0  0  3  0  0  0  0  0  0
   36.4630   27.8770   35.3060 C   0  0  0  0  0  0  0  0  0  0  0  0
   36.1960   27.0360   34.6770 H   0  0  0  0  0  0  0  0  0  0  0  0
   36.6830   29.1540   34.8310 C   0  0  0  0  0  0  0  0  0  0  0  0
   36.5590   29.3250   33.5750 O   0  0  0  0  0  0  0  0  0  0  0  0
   37.0140   30.1950   35.6140 N   0  0  0  0  0  0  0  0  0  0  0  0
   37.1410   29.9790   36.9560 C   0  0  0  0  0  0  0  0  0  0  0  0
   37.4500   30.9400   37.7070 O   0  0  0  0  0  0  0  0  0  0  0  0
   37.1660   31.1300   35.1880 H   0  0  0  0  0  0  0  0  0  0  0  0
   37.4890   27.9850   43.0530 C   0  0  0  0  0  0  0  0  0  0  0  0
   38.5540   27.1430   43.2980 F   0  0  0  0  0  0  0  0  0  0  0  0
   37.7670   29.1930   43.6800 F   0  0  0  0  0  0  0  0  0  0  0  0
   36.3820   27.4300   43.6300 F   0  0  0  0  0  0  0  0  0  0  0  0
   36.7570   25.9850   41.3220 O   0  0  0  0  0  0  0  0  0  0  0  0
   37.5670   24.8440   41.2380 C   0  0  0  0  0  0  0  0  0  0  0  0
   36.9780   23.9830   40.3180 F   0  0  0  0  0  0  0  0  0  0  0  0
   38.8510   25.2060   40.9050 F   0  0  0  0  0  0  0  0  0  0  0  0
   37.5190   24.1470   42.4400 F   0  0  0  0  0  0  0  0  0  0  0  0
  1 22  1  0  0  0  0
  1  2  1  0  0  0  0
  2 18  1  0  0  0  0
  3  2  2  0  0  0  0
  3  7  1  0  0  0  0
  4  3  1  0  0  0  0
  5  6  1  0  0  0  0
  5  4  2  0  0  0  0
  6  1  2  0  0  0  0
  8  5  1  0  0  0  0
  9  8  1  0  0  0  0
 10  9  2  0  0  0  0
 11 10  1  0  0  0  0
 12 10  1  0  0  0  0
 12 14  1  0  0  0  0
 13 12  2  0  0  0  0
 14 15  1  0  0  0  0
 15  8  1  0  0  0  0
 15 16  2  0  0  0  0
 17 14  1  0  0  0  0
 18 19  1  0  0  0  0
 18 21  1  0  0  0  0
 18 20  1  0  0  0  0
 23 22  1  0  0  0  0
 23 26  1  0  0  0  0
 24 23  1  0  0  0  0
 25 23  1  0  0  0  0
M  END
>  <minimizedAffinity>
-5.39840364

$$$$

 OpenBabel03252504123D

 26 27  0  0  0  0  0  0  0  0999 V2000
   37.6880   31.0250   39.6430 C   0  0  0  0  0  0  0  0  0  0  0  0
   38.3310   31.9190   40.5100 C   0  0  0  0  0  0  0  0  0  0  0  0
   38.8580   31.4110   41.7090 C   0  0  0  0  0  0  0  0  0  0  0  0
   38.7180   30.0890   41.9660 N   0  0  0  0  0  0  0  0  0  0  0  0
   38.0860   29.2530   41.0970 C   0  0  0  0  0  0  0  0  0  0  0  0
   37.5790   29.7210   39.9500 N   0  0  0  0  0  0  0  0  0  0  0  0
   39.3520   32.0820   42.3800 H   0  0  0  0  0  0  0  0  0  0  0  0
   37.9700   27.8710   41.4220 N   0  0  0  0  0  0  0  0  0  0  0  0
   37.3210   27.0310   40.5940 C   0  0  0  0  0  3  0  0  0  0  0  0
   37.1770   25.6720   40.8590 C   0  0  0  0  0  0  0  0  0  0  0  0
   36.6510   25.0110   40.1810 H   0  0  0  0  0  0  0  0  0  0  0  0
   37.7540   25.2590   42.0420 C   0  0  0  0  0  0  0  0  0  0  0  0
   37.6480   24.0220   42.3290 O   0  0  0  0  0  0  0  0  0  0  0  0
   38.4070   26.0810   42.8820 N   0  0  0  0  0  0  0  0  0  0  0  0
   38.5030   27.4010   42.5480 C   0  0  0  0  0  0  0  0  0  0  0  0
   39.1090   28.1890   43.3210 O   0  0  0  0  0  0  0  0  0  0  0  0
   38.8170   25.7010   43.7580 H   0  0  0  0  0  0  0  0  0  0  0  0
   38.4280   33.3520   40.1290 C   0  0  0  0  0  0  0  0  0  0  0  0
   38.8470   34.1060   41.2050 F   0  0  0  0  0  0  0  0  0  0  0  0
   39.3950   33.4730   39.1390 F   0  0  0  0  0  0  0  0  0  0  0  0
   37.2590   33.8940   39.6750 F   0  0  0  0  0  0  0  0  0  0  0  0
   37.1880   31.5270   38.4970 O   0  0  0  0  0  0  0  0  0  0  0  0
   37.6550   31.2920   37.1960 C   0  0  0  0  0  0  0  0  0  0  0  0
   37.4180   32.4450   36.4540 F   0  0  0  0  0  0  0  0  0  0  0  0
   38.9810   30.9280   37.2340 F   0  0  0  0  0  0  0  0  0  0  0  0
   36.8680   30.3230   36.5850 F   0  0  0  0  0  0  0  0  0  0  0  0
  1  6  2  0  0  0  0
  1  2  1  0  0  0  0
  2  3  2  0  0  0  0
  3  4  1  0  0  0  0
  3  7  1  0  0  0  0
  5  8  1  0  0  0  0
  5  4  2  0  0  0  0
  6  5  1  0  0  0  0
  8 15  1  0  0  0  0
  9 10  2  0  0  0  0
  9  8  1  0  0  0  0
 10 12  1  0  0  0  0
 11 10  1  0  0  0  0
 12 13  2  0  0  0  0
 12 14  1  0  0  0  0
 14 17  1  0  0  0  0
 15 14  1  0  0  0  0
 15 16  2  0  0  0  0
 18  2  1  0  0  0  0
 18 19  1  0  0  0  0
 20 18  1  0  0  0  0
 21 18  1  0  0  0  0
 22  1  1  0  0  0  0
 23 25  1  0  0  0  0
 23 22  1  0  0  0  0
 24 23  1  0  0  0  0
 26 23  1  0  0  0  0
M  END
>  <minimizedAffinity>
-5.32727146

$$$$

 OpenBabel03252504123D

 26 27  0  0  0  0  0  0  0  0999 V2000
   38.2620   28.5530   40.8550 C   0  0  0  0  0  0  0  0  0  0  0  0
   38.7250   29.7710   41.3710 C   0  0  0  0  0  0  0  0  0  0  0  0
   38.7240   30.8900   40.5210 C   0  0  0  0  0  0  0  0  0  0  0  0
   38.2780   30.7360   39.2520 N   0  0  0  0  0  0  0  0  0  0  0  0
   37.8370   29.5340   38.7890 C   0  0  0  0  0  0  0  0  0  0  0  0
   37.8310   28.4580   39.5860 N   0  0  0  0  0  0  0  0  0  0  0  0
   39.0730   31.8270   40.9020 H   0  0  0  0  0  0  0  0  0  0  0  0
   37.3790   29.4320   37.4440 N   0  0  0  0  0  0  0  0  0  0  0  0
   36.9690   28.2480   36.9530 C   0  0  0  0  0  3  0  0  0  0  0  0
   36.5130   28.0890   35.6480 C   0  0  0  0  0  0  0  0  0  0  0  0
   36.1860   27.1270   35.2710 H   0  0  0  0  0  0  0  0  0  0  0  0
   36.5170   29.2480   34.8990 C   0  0  0  0  0  0  0  0  0  0  0  0
   36.1070   29.1520   33.6960 O   0  0  0  0  0  0  0  0  0  0  0  0
   36.9220   30.4400   35.3700 N   0  0  0  0  0  0  0  0  0  0  0  0
   37.3560   30.5100   36.6620 C   0  0  0  0  0  0  0  0  0  0  0  0
   37.7410   31.6160   37.1220 O   0  0  0  0  0  0  0  0  0  0  0  0
   36.8990   31.2720   34.7480 H   0  0  0  0  0  0  0  0  0  0  0  0
   39.1920   29.8290   42.7810 C   0  0  0  0  0  0  0  0  0  0  0  0
   39.7170   31.0730   43.0600 F   0  0  0  0  0  0  0  0  0  0  0  0
   38.0910   29.6520   43.6100 F   0  0  0  0  0  0  0  0  0  0  0  0
   40.1400   28.8990   43.0980 F   0  0  0  0  0  0  0  0  0  0  0  0
   38.2690   27.4900   41.6830 O   0  0  0  0  0  0  0  0  0  0  0  0
   37.1630   26.9040   42.3160 C   0  0  0  0  0  0  0  0  0  0  0  0
   36.1060   27.8040   42.2230 F   0  0  0  0  0  0  0  0  0  0  0  0
   36.8930   25.6820   41.7470 F   0  0  0  0  0  0  0  0  0  0  0  0
   37.4060   26.7990   43.6800 F   0  0  0  0  0  0  0  0  0  0  0  0
  1  2  1  0  0  0  0
  1 22  1  0  0  0  0
  2 18  1  0  0  0  0
  3  7  1  0  0  0  0
  3  2  2  0  0  0  0
  4  3  1  0  0  0  0
  5  4  2  0  0  0  0
  5  6  1  0  0  0  0
  6  1  2  0  0  0  0
  8  5  1  0  0  0  0
  9  8  1  0  0  0  0
 10  9  2  0  0  0  0
 11 10  1  0  0  0  0
 12 14  1  0  0  0  0
 12 10  1  0  0  0  0
 13 12  2  0  0  0  0
 14 15  1  0  0  0  0
 15 16  2  0  0  0  0
 15  8  1  0  0  0  0
 17 14  1  0  0  0  0
 18 19  1  0  0  0  0
 18 21  1  0  0  0  0
 18 20  1  0  0  0  0
 22 23  1  0  0  0  0
 23 26  1  0  0  0  0
 24 23  1  0  0  0  0
 25 23  1  0  0  0  0
M  END
>  <minimizedAffinity>
-5.32376194

$$$$

 OpenBabel03252504123D

 26 27  0  0  0  0  0  0  0  0999 V2000
   37.0290   27.9550   40.8210 C   0  0  0  0  0  0  0  0  0  0  0  0
   36.9850   26.5810   41.0970 C   0  0  0  0  0  0  0  0  0  0  0  0
   36.8590   25.6940   40.0150 C   0  0  0  0  0  0  0  0  0  0  0  0
   36.7850   26.2090   38.7640 N   0  0  0  0  0  0  0  0  0  0  0  0
   36.8310   27.5510   38.5380 C   0  0  0  0  0  0  0  0  0  0  0  0
   36.9520   28.4090   39.5590 N   0  0  0  0  0  0  0  0  0  0  0  0
   36.8250   24.6440   40.2110 H   0  0  0  0  0  0  0  0  0  0  0  0
   36.7500   28.0340   37.2010 N   0  0  0  0  0  0  0  0  0  0  0  0
   36.7610   29.3570   36.9540 C   0  0  0  0  0  3  0  0  0  0  0  0
   36.6830   29.8850   35.6690 C   0  0  0  0  0  0  0  0  0  0  0  0
   36.6930   30.9540   35.4900 H   0  0  0  0  0  0  0  0  0  0  0  0
   36.5950   28.9390   34.6690 C   0  0  0  0  0  0  0  0  0  0  0  0
   36.5220   29.3750   33.4740 O   0  0  0  0  0  0  0  0  0  0  0  0
   36.5830   27.6130   34.8940 N   0  0  0  0  0  0  0  0  0  0  0  0
   36.6620   27.1770   36.1840 C   0  0  0  0  0  0  0  0  0  0  0  0
   36.6510   25.9400   36.4170 O   0  0  0  0  0  0  0  0  0  0  0  0
   36.5140   26.9570   34.0910 H   0  0  0  0  0  0  0  0  0  0  0  0
   37.0740   26.1240   42.5090 C   0  0  0  0  0  0  0  0  0  0  0  0
   36.1920   26.8330   43.2970 F   0  0  0  0  0  0  0  0  0  0  0  0
   36.6900   24.7900   42.5580 F   0  0  0  0  0  0  0  0  0  0  0  0
   38.3160   26.2490   43.0640 F   0  0  0  0  0  0  0  0  0  0  0  0
   37.1510   28.7920   41.8690 O   0  0  0  0  0  0  0  0  0  0  0  0
   38.3110   29.4590   42.2890 C   0  0  0  0  0  0  0  0  0  0  0  0
   38.2950   29.4860   43.6800 F   0  0  0  0  0  0  0  0  0  0  0  0
   39.4210   28.8380   41.7660 F   0  0  0  0  0  0  0  0  0  0  0  0
   38.2410   30.7960   41.9180 F   0  0  0  0  0  0  0  0  0  0  0  0
  1  2  1  0  0  0  0
  1 22  1  0  0  0  0
  2 18  1  0  0  0  0
  3  7  1  0  0  0  0
  3  2  2  0  0  0  0
  4  3  1  0  0  0  0
  5  4  2  0  0  0  0
  5  6  1  0  0  0  0
  6  1  2  0  0  0  0
  8  5  1  0  0  0  0
  9  8  1  0  0  0  0
 10  9  2  0  0  0  0
 11 10  1  0  0  0  0
 12 14  1  0  0  0  0
 12 10  1  0  0  0  0
 13 12  2  0  0  0  0
 14 15  1  0  0  0  0
 15 16  2  0  0  0  0
 15  8  1  0  0  0  0
 17 14  1  0  0  0  0
 18 20  1  0  0  0  0
 18 21  1  0  0  0  0
 18 19  1  0  0  0  0
 22 23  1  0  0  0  0
 23 24  1  0  0  0  0
 25 23  1  0  0  0  0
 26 23  1  0  0  0  0
M  END
>  <minimizedAffinity>
-5.31733274

$$$$

 OpenBabel03252504123D

 26 27  0  0  0  0  0  0  0  0999 V2000
   38.8280   28.2890   42.7400 C   0  0  0  0  0  0  0  0  0  0  0  0
   37.6830   28.7270   42.0590 C   0  0  0  0  0  0  0  0  0  0  0  0
   37.7200   29.9950   41.4540 C   0  0  0  0  0  0  0  0  0  0  0  0
   38.8540   30.7270   41.5590 N   0  0  0  0  0  0  0  0  0  0  0  0
   39.9460   30.2660   42.2300 C   0  0  0  0  0  0  0  0  0  0  0  0
   39.9260   29.0600   42.8120 N   0  0  0  0  0  0  0  0  0  0  0  0
   36.8540   30.3410   40.9300 H   0  0  0  0  0  0  0  0  0  0  0  0
   41.1110   31.0810   42.3070 N   0  0  0  0  0  0  0  0  0  0  0  0
   42.1900   30.6600   42.9920 C   0  0  0  0  0  3  0  0  0  0  0  0
   43.3550   31.4140   43.1010 C   0  0  0  0  0  0  0  0  0  0  0  0
   44.2150   31.0590   43.6570 H   0  0  0  0  0  0  0  0  0  0  0  0
   43.3100   32.6290   42.4480 C   0  0  0  0  0  0  0  0  0  0  0  0
   44.3550   33.3550   42.5200 O   0  0  0  0  0  0  0  0  0  0  0  0
   42.2430   33.0670   41.7580 N   0  0  0  0  0  0  0  0  0  0  0  0
   41.1390   32.2670   41.7010 C   0  0  0  0  0  0  0  0  0  0  0  0
   40.1280   32.6580   41.0610 O   0  0  0  0  0  0  0  0  0  0  0  0
   42.2790   33.9940   41.2910 H   0  0  0  0  0  0  0  0  0  0  0  0
   36.4910   27.8410   42.0050 C   0  0  0  0  0  0  0  0  0  0  0  0
   36.0600   27.5420   43.2800 F   0  0  0  0  0  0  0  0  0  0  0  0
   35.4650   28.5330   41.3750 F   0  0  0  0  0  0  0  0  0  0  0  0
   36.6970   26.6600   41.3510 F   0  0  0  0  0  0  0  0  0  0  0  0
   38.7770   27.0720   43.3140 O   0  0  0  0  0  0  0  0  0  0  0  0
   39.4930   25.9270   42.9350 C   0  0  0  0  0  0  0  0  0  0  0  0
   40.6680   25.9070   43.6800 F   0  0  0  0  0  0  0  0  0  0  0  0
   38.7140   24.8090   43.1120 F   0  0  0  0  0  0  0  0  0  0  0  0
   39.9220   26.0590   41.6200 F   0  0  0  0  0  0  0  0  0  0  0  0
  1  6  1  0  0  0  0
  1 22  1  0  0  0  0
  2  1  2  0  0  0  0
  3  4  2  0  0  0  0
  3  2  1  0  0  0  0
  4  5  1  0  0  0  0
  5  8  1  0  0  0  0
  5  6  2  0  0  0  0
  7  3  1  0  0  0  0
  8  9  1  0  0  0  0
  9 10  2  0  0  0  0
 10 11  1  0  0  0  0
 12 13  2  0  0  0  0
 12 10  1  0  0  0  0
 14 12  1  0  0  0  0
 15 14  1  0  0  0  0
 15  8  1  0  0  0  0
 16 15  2  0  0  0  0
 17 14  1  0  0  0  0
 18  2  1  0  0  0  0
 18 19  1  0  0  0  0
 20 18  1  0  0  0  0
 21 18  1  0  0  0  0
 23 25  1  0  0  0  0
 23 22  1  0  0  0  0
 23 24  1  0  0  0  0
 26 23  1  0  0  0  0
M  END
>  <minimizedAffinity>
-5.30313158

$$$$

 OpenBabel03252504123D

 26 27  0  0  0  0  0  0  0  0999 V2000
   37.2690   26.8480   40.9040 C   0  0  0  0  0  0  0  0  0  0  0  0
   38.0740   26.1470   41.8130 C   0  0  0  0  0  0  0  0  0  0  0  0
   39.0370   26.8700   42.5360 C   0  0  0  0  0  0  0  0  0  0  0  0
   39.1390   28.2030   42.3200 N   0  0  0  0  0  0  0  0  0  0  0  0
   38.3380   28.8470   41.4270 C   0  0  0  0  0  0  0  0  0  0  0  0
   37.4160   28.1720   40.7300 N   0  0  0  0  0  0  0  0  0  0  0  0
   39.6570   26.3480   43.2340 H   0  0  0  0  0  0  0  0  0  0  0  0
   38.4920   30.2510   41.2420 N   0  0  0  0  0  0  0  0  0  0  0  0
   37.7340   30.9050   40.3420 C   0  0  0  0  0  3  0  0  0  0  0  0
   37.8410   32.2740   40.1190 C   0  0  0  0  0  0  0  0  0  0  0  0
   37.2220   32.7830   39.3890 H   0  0  0  0  0  0  0  0  0  0  0  0
   38.7890   32.9060   40.8970 C   0  0  0  0  0  0  0  0  0  0  0  0
   38.9230   34.1610   40.7280 O   0  0  0  0  0  0  0  0  0  0  0  0
   39.5550   32.2720   41.8020 N   0  0  0  0  0  0  0  0  0  0  0  0
   39.3890   30.9260   41.9590 C   0  0  0  0  0  0  0  0  0  0  0  0
   40.0960   30.3130   42.8000 O   0  0  0  0  0  0  0  0  0  0  0  0
   40.2510   32.8110   42.3540 H   0  0  0  0  0  0  0  0  0  0  0  0
   37.8770   24.6820   41.9720 C   0  0  0  0  0  0  0  0  0  0  0  0
   38.7370   24.1850   42.9290 F   0  0  0  0  0  0  0  0  0  0  0  0
   36.5830   24.4660   42.4300 F   0  0  0  0  0  0  0  0  0  0  0  0
   38.0690   23.9600   40.8290 F   0  0  0  0  0  0  0  0  0  0  0  0
   36.3510   26.1400   40.2190 O   0  0  0  0  0  0  0  0  0  0  0  0
   36.3620   25.8430   38.8480 C   0  0  0  0  0  0  0  0  0  0  0  0
   35.4430   26.6870   38.2330 F   0  0  0  0  0  0  0  0  0  0  0  0
   37.6390   25.9700   38.3530 F   0  0  0  0  0  0  0  0  0  0  0  0
   35.8490   24.5680   38.6420 F   0  0  0  0  0  0  0  0  0  0  0  0
  1  2  1  0  0  0  0
  2 18  1  0  0  0  0
  2  3  2  0  0  0  0
  3  7  1  0  0  0  0
  4  3  1  0  0  0  0
  5  4  2  0  0  0  0
  6  1  2  0  0  0  0
  6  5  1  0  0  0  0
  8  5  1  0  0  0  0
  8 15  1  0  0  0  0
  9  8  1  0  0  0  0
 10  9  2  0  0  0  0
 10 12  1  0  0  0  0
 11 10  1  0  0  0  0
 12 14  1  0  0  0  0
 13 12  2  0  0  0  0
 14 15  1  0  0  0  0
 14 17  1  0  0  0  0
 15 16  2  0  0  0  0
 18 20  1  0  0  0  0
 18 19  1  0  0  0  0
 21 18  1  0  0  0  0
 22  1  1  0  0  0  0
 23 22  1  0  0  0  0
 24 23  1  0  0  0  0
 25 23  1  0  0  0  0
 26 23  1  0  0  0  0
M  END
>  <minimizedAffinity>
-5.25120878

$$$$
