
 OpenBabel03252509043D

 49 51  0  0  1  0  0  0  0  0999 V2000
   46.7620   34.3430   43.6500 N   0  0  0  0  0  0  0  0  0  0  0  0
   46.3940   35.2420   42.6250 C   0  0  0  0  0  0  0  0  0  0  0  0
   44.8930   35.3770   42.4320 C   0  0  0  0  0  0  0  0  0  0  0  0
   44.0960   35.2770   43.7100 C   0  0  0  0  0  0  0  0  0  0  0  0
   45.0110   35.1680   44.9170 C   0  0  0  0  0  0  0  0  0  0  0  0
   45.8740   33.8820   44.5880 C   0  0  2  0  0  0  0  0  0  0  0  0
   46.7770   36.2530   42.9080 H   0  0  0  0  0  0  0  0  0  0  0  0
   46.8060   35.0360   41.6310 H   0  0  0  0  0  0  0  0  0  0  0  0
   44.5200   34.6680   41.6550 H   0  0  0  0  0  0  0  0  0  0  0  0
   44.6950   36.3840   42.0060 H   0  0  0  0  0  0  0  0  0  0  0  0
   43.5210   34.3250   43.6660 H   0  0  0  0  0  0  0  0  0  0  0  0
   43.3500   36.0800   43.8270 H   0  0  0  0  0  0  0  0  0  0  0  0
   44.4120   34.9770   45.8140 H   0  0  0  0  0  0  0  0  0  0  0  0
   45.6790   36.0270   44.9850 H   0  0  0  0  0  0  0  0  0  0  0  0
   45.1690   33.0980   44.2440 H   0  0  0  0  0  0  0  0  0  0  0  0
   47.9300   33.5580   43.3520 C   0  0  0  0  0  0  0  0  0  0  0  0
   48.3900   33.2990   44.3270 H   0  0  0  0  0  0  0  0  0  0  0  0
   48.6180   34.2120   42.7770 H   0  0  0  0  0  0  0  0  0  0  0  0
   47.4940   32.3570   42.5920 C   0  0  0  0  0  0  0  0  0  0  0  0
   46.4060   32.3940   42.3350 H   0  0  0  0  0  0  0  0  0  0  0  0
   47.6640   31.4320   43.1530 H   0  0  0  0  0  0  0  0  0  0  0  0
   50.0770   31.5580   39.9850 C   0  0  0  0  0  0  0  0  0  0  0  0
   49.3850   31.6140   41.2090 C   0  0  0  0  0  0  0  0  0  0  0  0
   48.2070   32.3110   41.2920 C   0  0  0  0  0  0  0  0  0  0  0  0
   47.7690   32.9120   40.1810 N   0  0  0  0  0  0  0  0  0  0  0  0
   48.4190   32.8650   39.0130 C   0  0  0  0  0  0  0  0  0  0  0  0
   49.5830   32.1870   38.8970 N   0  0  0  0  0  0  0  0  0  0  0  0
   50.9960   30.9890   40.0050 H   0  0  0  0  0  0  0  0  0  0  0  0
   49.7590   31.1180   42.1020 H   0  0  0  0  0  0  0  0  0  0  0  0
   48.0770   33.3470   38.1060 H   0  0  0  0  0  0  0  0  0  0  0  0
   46.4480   33.6360   45.8210 O   0  0  0  0  0  0  0  0  0  0  0  0
   45.5820   31.1760   45.2720 O   0  0  0  0  0  0  0  0  0  0  0  0
   46.1680   32.0770   46.3680 P   0  0  2  0  0  0  0  0  0  0  0  0
   44.8840   32.2150   47.5060 O   0  0  0  0  0  0  0  0  0  0  0  0
   45.2350   32.3900   48.4010 H   0  0  0  0  0  0  0  0  0  0  0  0
   47.4700   31.3900   47.1440 O   0  0  0  0  0  0  0  0  0  0  0  0
   47.9390   30.3300   46.3820 C   0  0  0  0  0  0  0  0  0  0  0  0
   47.0890   29.7640   45.9160 H   0  0  0  0  0  0  0  0  0  0  0  0
   48.6280   30.6690   45.5940 H   0  0  0  0  0  0  0  0  0  0  0  0
   48.6140   29.4120   47.2810 N   0  0  0  0  0  0  0  0  0  0  0  0
   49.8220   29.5800   47.8460 C   0  0  0  0  0  3  0  0  0  0  0  0
   50.3440   28.6140   48.6900 C   0  0  0  0  0  0  0  0  0  0  0  0
   51.3160   28.7740   49.1300 H   0  0  0  0  0  0  0  0  0  0  0  0
   49.6370   27.4540   48.9730 C   0  0  0  0  0  0  0  0  0  0  0  0
   50.1010   26.5720   49.7350 O   0  0  0  0  0  0  0  0  0  0  0  0
   48.4360   27.3280   48.3880 N   0  0  0  0  0  0  0  0  0  0  0  0
   47.9340   28.2700   47.5690 C   0  0  0  0  0  0  0  0  0  0  0  0
   46.8050   28.0170   47.0970 O   0  0  0  0  0  0  0  0  0  0  0  0
   47.9300   26.4410   48.6210 H   0  0  0  0  0  0  0  0  0  0  0  0
  1  6  1  0  0  0  0
  2  7  1  0  0  0  0
  2  1  1  0  0  0  0
  3  2  1  0  0  0  0
  3  4  1  0  0  0  0
  4 12  1  0  0  0  0
  4  5  1  0  0  0  0
  5 14  1  0  0  0  0
  5 13  1  0  0  0  0
  6 15  1  6  0  0  0
  6  5  1  0  0  0  0
  6 31  1  0  0  0  0
  8  2  1  0  0  0  0
  9  3  1  0  0  0  0
 10  3  1  0  0  0  0
 11  4  1  0  0  0  0
 16  1  1  0  0  0  0
 16 17  1  0  0  0  0
 18 16  1  0  0  0  0
 19 21  1  0  0  0  0
 19 16  1  0  0  0  0
 20 19  1  0  0  0  0
 22 28  1  0  0  0  0
 22 23  1  0  0  0  0
 23 24  2  0  0  0  0
 23 29  1  0  0  0  0
 24 19  1  0  0  0  0
 25 24  1  0  0  0  0
 26 25  2  0  0  0  0
 27 26  1  0  0  0  0
 27 22  2  0  0  0  0
 30 26  1  0  0  0  0
 31 33  1  0  0  0  0
 33 32  2  6  0  0  0
 33 36  1  0  0  0  0
 33 34  1  0  0  0  0
 34 35  1  0  0  0  0
 37 36  1  0  0  0  0
 37 40  1  0  0  0  0
 38 37  1  0  0  0  0
 39 37  1  0  0  0  0
 40 47  1  0  0  0  0
 40 41  1  0  0  0  0
 41 42  2  0  0  0  0
 42 44  1  0  0  0  0
 42 43  1  0  0  0  0
 44 45  2  0  0  0  0
 46 49  1  0  0  0  0
 46 44  1  0  0  0  0
 47 46  1  0  0  0  0
 48 47  2  0  0  0  0
M  END
>  <minimizedAffinity>
-4.67192507

>  <minimizedRMSD>
1.7156738

$$$$
