
 OpenBabel03242518383D

 40 43  0  0  1  0  0  0  0  0999 V2000
   46.2530   33.2520   42.0010 O   0  0  0  0  0  0  0  0  0  0  0  0
   46.9270   33.2220   40.7530 C   0  0  0  0  0  0  0  0  0  0  0  0
   48.2590   32.9490   40.4260 C   0  0  0  0  0  0  0  0  0  0  0  0
   48.4090   33.0540   39.0540 C   0  0  0  0  0  0  0  0  0  0  0  0
   47.1670   33.3850   38.6140 C   0  0  0  0  0  0  0  0  0  0  0  0
   46.3040   33.4840   39.6060 O   0  0  0  0  0  0  0  0  0  0  0  0
   48.9680   32.7060   41.2010 H   0  0  0  0  0  0  0  0  0  0  0  0
   49.3400   32.8940   38.5280 H   0  0  0  0  0  0  0  0  0  0  0  0
   46.8110   33.6150   37.1960 C   0  0  2  0  0  0  0  0  0  0  0  0
   45.7260   32.8620   36.5680 C   0  0  0  0  0  0  0  0  0  0  0  0
   47.1080   32.3970   36.2840 C   0  0  1  0  0  0  0  0  0  0  0  0
   47.1550   34.5910   36.8210 H   0  0  0  0  0  0  0  0  0  0  0  0
   45.0280   32.2280   37.1610 H   0  0  0  0  0  0  0  0  0  0  0  0
   45.1880   33.4150   35.7440 H   0  0  0  0  0  0  0  0  0  0  0  0
   47.5310   31.5150   36.7570 H   0  0  0  0  0  0  0  0  0  0  0  0
   48.8920   32.2300   34.5640 C   0  0  0  0  0  0  0  0  0  0  0  0
   49.5850   31.4460   35.2740 O   0  0  0  0  0  0  0  0  0  0  0  0
   47.6610   32.7910   34.9910 N   0  0  0  0  0  0  0  0  0  0  0  0
   49.3310   32.4310   33.5960 H   0  0  0  0  0  0  0  0  0  0  0  0
   47.1530   33.4760   34.3970 H   0  0  0  0  0  0  0  0  0  0  0  0
   46.2580   34.4690   42.7440 C   0  0  0  0  0  0  0  0  0  0  0  0
   46.5890   35.5030   42.1280 O   0  0  0  0  0  0  0  0  0  0  0  0
   45.8790   34.3530   44.1150 C   0  0  0  0  0  0  0  0  0  0  0  0
   44.8420   35.1590   44.5120 C   0  0  0  0  0  0  0  0  0  0  0  0
   44.4150   35.1050   45.8270 C   0  0  0  0  0  0  0  0  0  0  0  0
   45.0430   34.2520   46.6730 N   0  0  0  0  0  0  0  0  0  0  0  0
   46.0530   33.4760   46.2590 C   0  0  0  0  0  0  0  0  0  0  0  0
   46.4480   33.5500   44.9760 N   0  0  0  0  0  0  0  0  0  0  0  0
   44.2920   35.8610   43.9030 H   0  0  0  0  0  0  0  0  0  0  0  0
   43.5990   35.7180   46.1980 H   0  0  0  0  0  0  0  0  0  0  0  0
   46.6770   32.5990   47.1940 N   0  0  0  0  0  0  0  0  0  0  0  0
   48.0010   32.4420   47.3910 C   0  0  0  0  0  3  0  0  0  0  0  0
   48.4730   31.5520   48.3350 C   0  0  0  0  0  0  0  0  0  0  0  0
   49.5350   31.4620   48.4550 H   0  0  0  0  0  0  0  0  0  0  0  0
   47.5230   30.8480   49.0490 C   0  0  0  0  0  0  0  0  0  0  0  0
   47.9440   30.0230   49.9230 O   0  0  0  0  0  0  0  0  0  0  0  0
   46.2190   31.0010   48.8560 N   0  0  0  0  0  0  0  0  0  0  0  0
   45.7820   31.8890   47.9150 C   0  0  0  0  0  0  0  0  0  0  0  0
   44.5280   31.9580   47.8110 O   0  0  0  0  0  0  0  0  0  0  0  0
   45.5620   30.4240   49.4440 H   0  0  0  0  0  0  0  0  0  0  0  0
  1 21  1  0  0  0  0
  2  1  1  0  0  0  0
  3  2  2  0  0  0  0
  3  7  1  0  0  0  0
  4  3  1  0  0  0  0
  5  4  2  0  0  0  0
  5  6  1  0  0  0  0
  6  2  1  0  0  0  0
  8  4  1  0  0  0  0
  9 12  1  6  0  0  0
  9  5  1  0  0  0  0
 10 13  1  0  0  0  0
 10  9  1  0  0  0  0
 11 10  1  0  0  0  0
 11 15  1  1  0  0  0
 11  9  1  0  0  0  0
 14 10  1  0  0  0  0
 16 18  1  0  0  0  0
 16 17  2  0  0  0  0
 18 11  1  0  0  0  0
 19 16  1  0  0  0  0
 20 18  1  0  0  0  0
 21 23  1  0  0  0  0
 22 21  2  0  0  0  0
 23 24  2  0  0  0  0
 23 28  1  0  0  0  0
 24 25  1  0  0  0  0
 25 30  1  0  0  0  0
 25 26  2  0  0  0  0
 27 26  1  0  0  0  0
 27 31  1  0  0  0  0
 28 27  2  0  0  0  0
 29 24  1  0  0  0  0
 31 32  1  0  0  0  0
 31 38  1  0  0  0  0
 32 33  2  0  0  0  0
 33 34  1  0  0  0  0
 33 35  1  0  0  0  0
 35 36  2  0  0  0  0
 37 35  1  0  0  0  0
 37 40  1  0  0  0  0
 38 37  1  0  0  0  0
 39 38  2  0  0  0  0
M  END
>  <minimizedAffinity>
-4.01660252

>  <minimizedRMSD>
1.73492002

$$$$
