
 OpenBabel03252504103D

 26 27  0  0  0  0  0  0  0  0999 V2000
   47.0350   34.3460   43.0550 C   0  0  0  0  0  0  0  0  0  0  0  0
   45.7950   34.6870   43.6130 C   0  0  0  0  0  0  0  0  0  0  0  0
   45.2320   33.8120   44.5560 C   0  0  0  0  0  0  0  0  0  0  0  0
   45.9130   32.6860   44.8780 N   0  0  0  0  0  0  0  0  0  0  0  0
   47.1150   32.3890   44.3120 C   0  0  0  0  0  0  0  0  0  0  0  0
   47.6650   33.2140   43.4120 N   0  0  0  0  0  0  0  0  0  0  0  0
   44.2870   34.0600   44.9900 H   0  0  0  0  0  0  0  0  0  0  0  0
   47.7850   31.1900   44.6900 N   0  0  0  0  0  0  0  0  0  0  0  0
   47.6460   30.6980   45.9340 C   0  0  0  0  0  3  0  0  0  0  0  0
   48.2760   29.5310   46.3580 C   0  0  0  0  0  0  0  0  0  0  0  0
   48.1530   29.1500   47.3650 H   0  0  0  0  0  0  0  0  0  0  0  0
   49.0530   28.9210   45.3950 C   0  0  0  0  0  0  0  0  0  0  0  0
   49.6500   27.8490   45.7360 O   0  0  0  0  0  0  0  0  0  0  0  0
   49.2050   29.3970   44.1460 N   0  0  0  0  0  0  0  0  0  0  0  0
   48.5520   30.5480   43.8100 C   0  0  0  0  0  0  0  0  0  0  0  0
   48.6810   31.0100   42.6460 O   0  0  0  0  0  0  0  0  0  0  0  0
   49.8070   28.8850   43.4720 H   0  0  0  0  0  0  0  0  0  0  0  0
   45.1350   35.9500   43.1880 C   0  0  0  0  0  0  0  0  0  0  0  0
   46.0630   36.9640   43.0860 F   0  0  0  0  0  0  0  0  0  0  0  0
   44.5980   35.7530   41.9220 F   0  0  0  0  0  0  0  0  0  0  0  0
   44.1460   36.3770   44.0280 F   0  0  0  0  0  0  0  0  0  0  0  0
   47.5620   35.1960   42.1530 O   0  0  0  0  0  0  0  0  0  0  0  0
   48.8750   35.1990   41.6600 C   0  0  0  0  0  0  0  0  0  0  0  0
   49.7240   35.4160   42.7410 F   0  0  0  0  0  0  0  0  0  0  0  0
   49.1270   34.0240   40.9940 F   0  0  0  0  0  0  0  0  0  0  0  0
   49.0650   36.3090   40.8460 F   0  0  0  0  0  0  0  0  0  0  0  0
  1  6  2  0  0  0  0
  1  2  1  0  0  0  0
  2  3  2  0  0  0  0
  3  4  1  0  0  0  0
  3  7  1  0  0  0  0
  5  8  1  0  0  0  0
  5  4  2  0  0  0  0
  6  5  1  0  0  0  0
  8  9  1  0  0  0  0
  9 10  2  0  0  0  0
 10 11  1  0  0  0  0
 12 13  2  0  0  0  0
 12 10  1  0  0  0  0
 14 12  1  0  0  0  0
 15 14  1  0  0  0  0
 15  8  1  0  0  0  0
 16 15  2  0  0  0  0
 17 14  1  0  0  0  0
 18  2  1  0  0  0  0
 18 21  1  0  0  0  0
 19 18  1  0  0  0  0
 20 18  1  0  0  0  0
 22  1  1  0  0  0  0
 23 22  1  0  0  0  0
 23 24  1  0  0  0  0
 25 23  1  0  0  0  0
 26 23  1  0  0  0  0
M  END
>  <minimizedAffinity>
-5.3875351

>  <minimizedRMSD>
0.698458672

$$$$
