
 OpenBabel03242517093D

 35 37  0  0  1  0  0  0  0  0999 V2000
   37.4650   27.9380   40.7730 C   0  0  2  0  0  0  0  0  0  0  0  0
   37.3580   29.0270   41.7610 C   0  0  1  0  0  0  0  0  0  0  0  0
   37.8930   28.6610   43.1300 C   0  0  0  0  0  0  0  0  0  0  0  0
   37.1960   27.4290   43.6800 C   0  0  0  0  0  0  0  0  0  0  0  0
   36.9570   26.3570   42.6520 C   0  0  0  0  0  0  0  0  0  0  0  0
   37.7740   26.5890   41.4050 C   0  0  0  0  0  0  0  0  0  0  0  0
   36.4990   27.7510   40.2070 H   0  0  0  0  0  0  0  0  0  0  0  0
   36.2270   29.1040   41.9770 H   0  0  0  0  0  0  0  0  0  0  0  0
   38.9510   28.4910   43.2130 H   0  0  0  0  0  0  0  0  0  0  0  0
   37.6120   29.5030   43.7970 H   0  0  0  0  0  0  0  0  0  0  0  0
   36.2500   27.7170   44.1870 H   0  0  0  0  0  0  0  0  0  0  0  0
   37.8370   26.9880   44.4790 H   0  0  0  0  0  0  0  0  0  0  0  0
   35.8830   26.4770   42.3270 H   0  0  0  0  0  0  0  0  0  0  0  0
   37.0760   25.3320   42.9950 H   0  0  0  0  0  0  0  0  0  0  0  0
   38.8440   26.5220   41.7130 H   0  0  0  0  0  0  0  0  0  0  0  0
   37.5380   25.8210   40.6520 H   0  0  0  0  0  0  0  0  0  0  0  0
   37.7140   30.3420   41.3740 N   0  0  0  0  0  0  0  0  0  0  0  0
   38.9020   30.9970   41.5030 C   0  0  0  0  0  3  0  0  0  0  0  0
   39.1820   32.2680   41.1190 C   0  0  0  0  0  0  0  0  0  0  0  0
   40.1730   32.6470   41.2900 H   0  0  0  0  0  0  0  0  0  0  0  0
   38.1490   32.9690   40.5350 C   0  0  0  0  0  0  0  0  0  0  0  0
   38.3810   34.1600   40.1670 O   0  0  0  0  0  0  0  0  0  0  0  0
   36.9570   32.3630   40.3870 N   0  0  0  0  0  0  0  0  0  0  0  0
   36.7340   31.0910   40.7890 C   0  0  0  0  0  0  0  0  0  0  0  0
   35.5510   30.7390   40.5490 O   0  0  0  0  0  0  0  0  0  0  0  0
   36.2530   32.9870   39.9340 H   0  0  0  0  0  0  0  0  0  0  0  0
   38.4790   28.1800   39.7300 C   0  0  0  0  0  0  0  0  0  0  0  0
   39.7920   27.7930   40.0450 C   0  0  0  0  0  0  0  0  0  0  0  0
   40.8100   27.9960   39.1160 C   0  0  0  0  0  0  0  0  0  0  0  0
   40.4410   28.5790   37.9190 N   0  0  0  0  0  0  0  0  0  0  0  0
   39.1820   28.9350   37.6500 C   0  0  0  0  0  0  0  0  0  0  0  0
   38.1960   28.7370   38.5540 N   0  0  0  0  0  0  0  0  0  0  0  0
   40.1730   27.3340   40.9160 H   0  0  0  0  0  0  0  0  0  0  0  0
   41.8520   27.7380   39.2510 H   0  0  0  0  0  0  0  0  0  0  0  0
   38.9780   29.3870   36.6850 H   0  0  0  0  0  0  0  0  0  0  0  0
  1  7  1  6  0  0  0
  1  6  1  0  0  0  0
  1  2  1  0  0  0  0
  2  8  1  1  0  0  0
  2  3  1  0  0  0  0
  3  9  1  0  0  0  0
  3  4  1  0  0  0  0
  3 10  1  0  0  0  0
  4 11  1  0  0  0  0
  4 12  1  0  0  0  0
  5 14  1  0  0  0  0
  5  4  1  0  0  0  0
  6 15  1  0  0  0  0
  6  5  1  0  0  0  0
 13  5  1  0  0  0  0
 16  6  1  0  0  0  0
 17 18  1  0  0  0  0
 17  2  1  0  0  0  0
 19 20  1  0  0  0  0
 19 18  2  0  0  0  0
 21 19  1  0  0  0  0
 22 21  2  0  0  0  0
 23 21  1  0  0  0  0
 23 24  1  0  0  0  0
 24 17  1  0  0  0  0
 25 24  2  0  0  0  0
 26 23  1  0  0  0  0
 27 28  1  0  0  0  0
 27  1  1  0  0  0  0
 28 33  1  0  0  0  0
 29 34  1  0  0  0  0
 29 28  2  0  0  0  0
 30 29  1  0  0  0  0
 31 30  2  0  0  0  0
 31 32  1  0  0  0  0
 32 27  2  0  0  0  0
 35 31  1  0  0  0  0
M  END
>  <minimizedAffinity>
-5.2912879

$$$$

 OpenBabel03242517093D

 35 37  0  0  1  0  0  0  0  0999 V2000
   36.5900   30.3340   37.7720 C   0  0  2  0  0  0  0  0  0  0  0  0
   36.6940   28.9700   38.3240 C   0  0  1  0  0  0  0  0  0  0  0  0
   37.4400   28.0070   37.4250 C   0  0  0  0  0  0  0  0  0  0  0  0
   36.8010   27.9330   36.0490 C   0  0  0  0  0  0  0  0  0  0  0  0
   36.3500   29.2660   35.5170 C   0  0  0  0  0  0  0  0  0  0  0  0
   36.9510   30.4090   36.2960 C   0  0  0  0  0  0  0  0  0  0  0  0
   35.5350   30.7520   37.8100 H   0  0  0  0  0  0  0  0  0  0  0  0
   35.6190   28.5530   38.2550 H   0  0  0  0  0  0  0  0  0  0  0  0
   38.4890   28.1860   37.2780 H   0  0  0  0  0  0  0  0  0  0  0  0
   37.3080   27.0040   37.8850 H   0  0  0  0  0  0  0  0  0  0  0  0
   35.9660   27.1980   36.0520 H   0  0  0  0  0  0  0  0  0  0  0  0
   37.5510   27.5240   35.3330 H   0  0  0  0  0  0  0  0  0  0  0  0
   35.2420   29.3190   35.7220 H   0  0  0  0  0  0  0  0  0  0  0  0
   36.4860   29.4240   34.4500 H   0  0  0  0  0  0  0  0  0  0  0  0
   38.0540   30.3460   36.1460 H   0  0  0  0  0  0  0  0  0  0  0  0
   36.5610   31.3670   35.9200 H   0  0  0  0  0  0  0  0  0  0  0  0
   37.0280   28.8060   39.6900 N   0  0  0  0  0  0  0  0  0  0  0  0
   38.2420   28.5880   40.2700 C   0  0  0  0  0  3  0  0  0  0  0  0
   38.5000   28.4280   41.5930 C   0  0  0  0  0  0  0  0  0  0  0  0
   39.5170   28.2620   41.8980 H   0  0  0  0  0  0  0  0  0  0  0  0
   37.4130   28.4950   42.4370 C   0  0  0  0  0  0  0  0  0  0  0  0
   37.6240   28.3480   43.6800 O   0  0  0  0  0  0  0  0  0  0  0  0
   36.1940   28.7090   41.9100 N   0  0  0  0  0  0  0  0  0  0  0  0
   35.9950   28.8610   40.5810 C   0  0  0  0  0  0  0  0  0  0  0  0
   34.7780   29.0490   40.3220 O   0  0  0  0  0  0  0  0  0  0  0  0
   35.4500   28.7400   42.6410 H   0  0  0  0  0  0  0  0  0  0  0  0
   37.4190   31.3260   38.4810 C   0  0  0  0  0  0  0  0  0  0  0  0
   38.7630   31.4050   38.0810 C   0  0  0  0  0  0  0  0  0  0  0  0
   39.6150   32.3110   38.7070 C   0  0  0  0  0  0  0  0  0  0  0  0
   39.0580   33.0870   39.7050 N   0  0  0  0  0  0  0  0  0  0  0  0
   37.7750   32.9880   40.0630 C   0  0  0  0  0  0  0  0  0  0  0  0
   36.9500   32.1070   39.4530 N   0  0  0  0  0  0  0  0  0  0  0  0
   39.2790   30.8710   37.3290 H   0  0  0  0  0  0  0  0  0  0  0  0
   40.6630   32.4560   38.4810 H   0  0  0  0  0  0  0  0  0  0  0  0
   37.4180   33.6350   40.8560 H   0  0  0  0  0  0  0  0  0  0  0  0
  1  7  1  1  0  0  0
  1  2  1  0  0  0  0
  1 27  1  0  0  0  0
  2  8  1  6  0  0  0
  2 17  1  0  0  0  0
  3 10  1  0  0  0  0
  3  2  1  0  0  0  0
  4 11  1  0  0  0  0
  4  3  1  0  0  0  0
  5 13  1  0  0  0  0
  5  4  1  0  0  0  0
  5  6  1  0  0  0  0
  6  1  1  0  0  0  0
  9  3  1  0  0  0  0
 12  4  1  0  0  0  0
 14  5  1  0  0  0  0
 15  6  1  0  0  0  0
 16  6  1  0  0  0  0
 17 18  1  0  0  0  0
 17 24  1  0  0  0  0
 18 19  2  0  0  0  0
 19 20  1  0  0  0  0
 19 21  1  0  0  0  0
 21 22  2  0  0  0  0
 23 21  1  0  0  0  0
 23 26  1  0  0  0  0
 24 23  1  0  0  0  0
 25 24  2  0  0  0  0
 27 32  1  0  0  0  0
 28 27  2  0  0  0  0
 28 29  1  0  0  0  0
 29 30  2  0  0  0  0
 30 31  1  0  0  0  0
 31 35  1  0  0  0  0
 32 31  2  0  0  0  0
 33 28  1  0  0  0  0
 34 29  1  0  0  0  0
M  END
>  <minimizedAffinity>
-4.94849682

$$$$

 OpenBabel03242517093D

 35 37  0  0  1  0  0  0  0  0999 V2000
   36.6780   26.4160   40.7060 C   0  0  2  0  0  0  0  0  0  0  0  0
   37.7990   26.4610   41.6620 C   0  0  1  0  0  0  0  0  0  0  0  0
   38.7920   25.3310   41.4870 C   0  0  0  0  0  0  0  0  0  0  0  0
   38.1080   23.9790   41.5950 C   0  0  0  0  0  0  0  0  0  0  0  0
   36.7690   23.9190   40.9120 C   0  0  0  0  0  0  0  0  0  0  0  0
   36.5700   25.0860   39.9760 C   0  0  0  0  0  0  0  0  0  0  0  0
   35.6630   26.5310   41.2010 H   0  0  0  0  0  0  0  0  0  0  0  0
   37.3200   26.1840   42.6750 H   0  0  0  0  0  0  0  0  0  0  0  0
   39.3700   25.3220   40.5820 H   0  0  0  0  0  0  0  0  0  0  0  0
   39.4820   25.4020   42.3540 H   0  0  0  0  0  0  0  0  0  0  0  0
   38.0290   23.6720   42.6610 H   0  0  0  0  0  0  0  0  0  0  0  0
   38.7620   23.2140   41.1170 H   0  0  0  0  0  0  0  0  0  0  0  0
   36.0020   24.0600   41.7280 H   0  0  0  0  0  0  0  0  0  0  0  0
   36.5330   22.9870   40.4070 H   0  0  0  0  0  0  0  0  0  0  0  0
   37.3510   24.9920   39.1860 H   0  0  0  0  0  0  0  0  0  0  0  0
   35.5620   25.0440   39.5340 H   0  0  0  0  0  0  0  0  0  0  0  0
   38.4300   27.7020   41.9200 N   0  0  0  0  0  0  0  0  0  0  0  0
   39.4980   28.2820   41.3030 C   0  0  0  0  0  3  0  0  0  0  0  0
   40.0680   29.4770   41.6040 C   0  0  0  0  0  0  0  0  0  0  0  0
   40.9120   29.8010   41.0220 H   0  0  0  0  0  0  0  0  0  0  0  0
   39.5010   30.1750   42.6480 C   0  0  0  0  0  0  0  0  0  0  0  0
   40.0150   31.2950   42.9520 O   0  0  0  0  0  0  0  0  0  0  0  0
   38.4450   29.6420   43.2880 N   0  0  0  0  0  0  0  0  0  0  0  0
   37.9170   28.4450   42.9450 C   0  0  0  0  0  0  0  0  0  0  0  0
   36.9400   28.1520   43.6800 O   0  0  0  0  0  0  0  0  0  0  0  0
   38.1010   30.2580   44.0570 H   0  0  0  0  0  0  0  0  0  0  0  0
   36.7260   27.4780   39.6830 C   0  0  0  0  0  0  0  0  0  0  0  0
   35.8770   28.5770   39.8960 C   0  0  0  0  0  0  0  0  0  0  0  0
   35.8570   29.6190   38.9720 C   0  0  0  0  0  0  0  0  0  0  0  0
   36.6960   29.4890   37.8830 N   0  0  0  0  0  0  0  0  0  0  0  0
   37.4920   28.4310   37.7090 C   0  0  0  0  0  0  0  0  0  0  0  0
   37.5100   27.4200   38.6080 N   0  0  0  0  0  0  0  0  0  0  0  0
   35.2120   28.7760   40.6920 H   0  0  0  0  0  0  0  0  0  0  0  0
   35.2450   30.5090   39.0350 H   0  0  0  0  0  0  0  0  0  0  0  0
   38.1210   28.4080   36.8260 H   0  0  0  0  0  0  0  0  0  0  0  0
  1  7  1  1  0  0  0
  1  2  1  0  0  0  0
  2 17  1  0  0  0  0
  2  8  1  1  0  0  0
  3  4  1  0  0  0  0
  3  2  1  0  0  0  0
  3 10  1  0  0  0  0
  4 11  1  0  0  0  0
  5  4  1  0  0  0  0
  5 13  1  0  0  0  0
  6  1  1  0  0  0  0
  6  5  1  0  0  0  0
  9  3  1  0  0  0  0
 12  4  1  0  0  0  0
 14  5  1  0  0  0  0
 15  6  1  0  0  0  0
 16  6  1  0  0  0  0
 17 24  1  0  0  0  0
 18 19  2  0  0  0  0
 18 17  1  0  0  0  0
 19 21  1  0  0  0  0
 20 19  1  0  0  0  0
 21 22  2  0  0  0  0
 21 23  1  0  0  0  0
 23 26  1  0  0  0  0
 24 23  1  0  0  0  0
 24 25  2  0  0  0  0
 27 28  1  0  0  0  0
 27  1  1  0  0  0  0
 28 33  1  0  0  0  0
 29 34  1  0  0  0  0
 29 28  2  0  0  0  0
 30 29  1  0  0  0  0
 31 30  2  0  0  0  0
 31 32  1  0  0  0  0
 32 27  2  0  0  0  0
 35 31  1  0  0  0  0
M  END
>  <minimizedAffinity>
-4.87284803

$$$$

 OpenBabel03242517093D

 35 37  0  0  1  0  0  0  0  0999 V2000
   38.9900   28.6660   41.1210 C   0  0  2  0  0  0  0  0  0  0  0  0
   37.7070   27.9780   41.3570 C   0  0  1  0  0  0  0  0  0  0  0  0
   37.2890   27.9550   42.8120 C   0  0  0  0  0  0  0  0  0  0  0  0
   38.3570   27.3130   43.6800 C   0  0  0  0  0  0  0  0  0  0  0  0
   39.7600   27.7040   43.3040 C   0  0  0  0  0  0  0  0  0  0  0  0
   39.7780   28.9100   42.3990 C   0  0  0  0  0  0  0  0  0  0  0  0
   39.7070   28.0670   40.4770 H   0  0  0  0  0  0  0  0  0  0  0  0
   37.9450   26.8630   41.1750 H   0  0  0  0  0  0  0  0  0  0  0  0
   37.0360   28.8960   43.2640 H   0  0  0  0  0  0  0  0  0  0  0  0
   36.4040   27.2850   42.8590 H   0  0  0  0  0  0  0  0  0  0  0  0
   38.2360   26.2070   43.6840 H   0  0  0  0  0  0  0  0  0  0  0  0
   38.1930   27.6310   44.7360 H   0  0  0  0  0  0  0  0  0  0  0  0
   40.1570   26.8560   42.6740 H   0  0  0  0  0  0  0  0  0  0  0  0
   40.4540   27.8420   44.1300 H   0  0  0  0  0  0  0  0  0  0  0  0
   39.3440   29.7520   42.9870 H   0  0  0  0  0  0  0  0  0  0  0  0
   40.8120   29.1390   42.0980 H   0  0  0  0  0  0  0  0  0  0  0  0
   36.6210   28.2340   40.4850 N   0  0  0  0  0  0  0  0  0  0  0  0
   35.5710   29.0910   40.6280 C   0  0  0  0  0  3  0  0  0  0  0  0
   34.5490   29.2860   39.7580 C   0  0  0  0  0  0  0  0  0  0  0  0
   33.7890   30.0020   40.0140 H   0  0  0  0  0  0  0  0  0  0  0  0
   34.5810   28.5340   38.6030 C   0  0  0  0  0  0  0  0  0  0  0  0
   33.6380   28.6960   37.7700 O   0  0  0  0  0  0  0  0  0  0  0  0
   35.5990   27.6750   38.4170 N   0  0  0  0  0  0  0  0  0  0  0  0
   36.5930   27.5200   39.3210 C   0  0  0  0  0  0  0  0  0  0  0  0
   37.4300   26.6650   38.9350 O   0  0  0  0  0  0  0  0  0  0  0  0
   35.5190   27.1620   37.5110 H   0  0  0  0  0  0  0  0  0  0  0  0
   38.8510   29.9620   40.4330 C   0  0  0  0  0  0  0  0  0  0  0  0
   38.5900   31.0710   41.2540 C   0  0  0  0  0  0  0  0  0  0  0  0
   38.4370   32.3310   40.6800 C   0  0  0  0  0  0  0  0  0  0  0  0
   38.5550   32.3980   39.3050 N   0  0  0  0  0  0  0  0  0  0  0  0
   38.8040   31.3230   38.5510 C   0  0  0  0  0  0  0  0  0  0  0  0
   38.9530   30.1010   39.1120 N   0  0  0  0  0  0  0  0  0  0  0  0
   38.4930   31.1300   42.3040 H   0  0  0  0  0  0  0  0  0  0  0  0
   38.2350   33.2500   41.2130 H   0  0  0  0  0  0  0  0  0  0  0  0
   38.8820   31.4630   37.4790 H   0  0  0  0  0  0  0  0  0  0  0  0
  1  7  1  6  0  0  0
  1  2  1  0  0  0  0
  1  6  1  0  0  0  0
  2  8  1  6  0  0  0
  2  3  1  0  0  0  0
  3 10  1  0  0  0  0
  3  9  1  0  0  0  0
  3  4  1  0  0  0  0
  4 11  1  0  0  0  0
  4 12  1  0  0  0  0
  5  4  1  0  0  0  0
  5 14  1  0  0  0  0
  6 15  1  0  0  0  0
  6  5  1  0  0  0  0
 13  5  1  0  0  0  0
 16  6  1  0  0  0  0
 17 18  1  0  0  0  0
 17  2  1  0  0  0  0
 19 20  1  0  0  0  0
 19 18  2  0  0  0  0
 21 19  1  0  0  0  0
 22 21  2  0  0  0  0
 23 21  1  0  0  0  0
 23 24  1  0  0  0  0
 24 17  1  0  0  0  0
 25 24  2  0  0  0  0
 26 23  1  0  0  0  0
 27  1  1  0  0  0  0
 27 28  1  0  0  0  0
 28 33  1  0  0  0  0
 29 34  1  0  0  0  0
 29 28  2  0  0  0  0
 30 29  1  0  0  0  0
 31 32  1  0  0  0  0
 31 30  2  0  0  0  0
 32 27  2  0  0  0  0
 35 31  1  0  0  0  0
M  END
>  <minimizedAffinity>
-4.86235809

$$$$

 OpenBabel03242517093D

 35 37  0  0  1  0  0  0  0  0999 V2000
   36.5940   26.4770   39.5410 C   0  0  2  0  0  0  0  0  0  0  0  0
   36.7110   27.2650   40.7810 C   0  0  1  0  0  0  0  0  0  0  0  0
   37.5730   26.6080   41.8390 C   0  0  0  0  0  0  0  0  0  0  0  0
   37.0570   25.2220   42.1840 C   0  0  0  0  0  0  0  0  0  0  0  0
   36.5930   24.4320   40.9910 C   0  0  0  0  0  0  0  0  0  0  0  0
   37.0750   25.0430   39.6980 C   0  0  0  0  0  0  0  0  0  0  0  0
   35.5230   26.3610   39.1850 H   0  0  0  0  0  0  0  0  0  0  0  0
   35.6670   27.1890   41.2660 H   0  0  0  0  0  0  0  0  0  0  0  0
   38.6220   26.5110   41.6260 H   0  0  0  0  0  0  0  0  0  0  0  0
   37.4480   27.2250   42.7540 H   0  0  0  0  0  0  0  0  0  0  0  0
   36.2580   25.2900   42.9550 H   0  0  0  0  0  0  0  0  0  0  0  0
   37.8820   24.6470   42.6650 H   0  0  0  0  0  0  0  0  0  0  0  0
   35.4710   24.5410   40.9680 H   0  0  0  0  0  0  0  0  0  0  0  0
   36.8120   23.3680   41.0090 H   0  0  0  0  0  0  0  0  0  0  0  0
   38.1890   24.9890   39.7200 H   0  0  0  0  0  0  0  0  0  0  0  0
   36.6760   24.4760   38.8430 H   0  0  0  0  0  0  0  0  0  0  0  0
   36.9360   28.6600   40.6890 N   0  0  0  0  0  0  0  0  0  0  0  0
   38.1060   29.3580   40.7140 C   0  0  0  0  0  3  0  0  0  0  0  0
   38.2590   30.7040   40.6310 C   0  0  0  0  0  0  0  0  0  0  0  0
   39.2540   31.1090   40.6650 H   0  0  0  0  0  0  0  0  0  0  0  0
   37.1000   31.4410   40.5090 C   0  0  0  0  0  0  0  0  0  0  0  0
   37.2130   32.7030   40.4300 O   0  0  0  0  0  0  0  0  0  0  0  0
   35.9210   30.7950   40.4810 N   0  0  0  0  0  0  0  0  0  0  0  0
   35.8280   29.4490   40.5670 C   0  0  0  0  0  0  0  0  0  0  0  0
   34.6290   29.0720   40.5200 O   0  0  0  0  0  0  0  0  0  0  0  0
   35.1160   31.4530   40.3850 H   0  0  0  0  0  0  0  0  0  0  0  0
   37.3160   27.0620   38.3950 C   0  0  0  0  0  0  0  0  0  0  0  0
   38.6670   26.7020   38.2690 C   0  0  0  0  0  0  0  0  0  0  0  0
   39.4210   27.2190   37.2180 C   0  0  0  0  0  0  0  0  0  0  0  0
   38.7640   28.0720   36.3530 N   0  0  0  0  0  0  0  0  0  0  0  0
   37.4770   28.3950   36.5000 C   0  0  0  0  0  0  0  0  0  0  0  0
   36.7470   27.8910   37.5220 N   0  0  0  0  0  0  0  0  0  0  0  0
   39.2550   26.0560   38.8630 H   0  0  0  0  0  0  0  0  0  0  0  0
   40.4650   27.0110   37.0260 H   0  0  0  0  0  0  0  0  0  0  0  0
   37.0370   29.0720   35.7760 H   0  0  0  0  0  0  0  0  0  0  0  0
  1  7  1  6  0  0  0
  1  6  1  0  0  0  0
  1  2  1  0  0  0  0
  2  8  1  1  0  0  0
  2  3  1  0  0  0  0
  3  4  1  0  0  0  0
  3 10  1  0  0  0  0
  4 12  1  0  0  0  0
  4 11  1  0  0  0  0
  5 14  1  0  0  0  0
  5  4  1  0  0  0  0
  6 15  1  0  0  0  0
  6  5  1  0  0  0  0
  9  3  1  0  0  0  0
 13  5  1  0  0  0  0
 16  6  1  0  0  0  0
 17 18  1  0  0  0  0
 17  2  1  0  0  0  0
 19 20  1  0  0  0  0
 19 18  2  0  0  0  0
 21 19  1  0  0  0  0
 22 21  2  0  0  0  0
 23 21  1  0  0  0  0
 23 24  1  0  0  0  0
 24 17  1  0  0  0  0
 25 24  2  0  0  0  0
 26 23  1  0  0  0  0
 27  1  1  0  0  0  0
 28 27  1  0  0  0  0
 28 33  1  0  0  0  0
 29 28  2  0  0  0  0
 30 31  2  0  0  0  0
 30 29  1  0  0  0  0
 31 32  1  0  0  0  0
 32 27  2  0  0  0  0
 34 29  1  0  0  0  0
 35 31  1  0  0  0  0
M  END
>  <minimizedAffinity>
-4.84519386

$$$$

 OpenBabel03242517093D

 35 37  0  0  1  0  0  0  0  0999 V2000
   37.4720   27.3640   39.6380 C   0  0  2  0  0  0  0  0  0  0  0  0
   36.9020   28.4830   38.8670 C   0  0  1  0  0  0  0  0  0  0  0  0
   35.4370   28.3030   38.5270 C   0  0  0  0  0  0  0  0  0  0  0  0
   35.2070   27.0120   37.7610 C   0  0  0  0  0  0  0  0  0  0  0  0
   36.0120   25.8490   38.2750 C   0  0  0  0  0  0  0  0  0  0  0  0
   36.5830   26.1290   39.6430 C   0  0  0  0  0  0  0  0  0  0  0  0
   38.4540   26.9830   39.2130 H   0  0  0  0  0  0  0  0  0  0  0  0
   37.3870   28.3870   37.8240 H   0  0  0  0  0  0  0  0  0  0  0  0
   34.7390   28.3150   39.3440 H   0  0  0  0  0  0  0  0  0  0  0  0
   35.1870   29.1290   37.8290 H   0  0  0  0  0  0  0  0  0  0  0  0
   35.3830   27.1730   36.6750 H   0  0  0  0  0  0  0  0  0  0  0  0
   34.1300   26.7370   37.8470 H   0  0  0  0  0  0  0  0  0  0  0  0
   36.9060   25.7690   37.5920 H   0  0  0  0  0  0  0  0  0  0  0  0
   35.5130   24.8830   38.2660 H   0  0  0  0  0  0  0  0  0  0  0  0
   35.7130   26.2600   40.3270 H   0  0  0  0  0  0  0  0  0  0  0  0
   37.2100   25.2850   39.9680 H   0  0  0  0  0  0  0  0  0  0  0  0
   37.2080   29.8100   39.2570 N   0  0  0  0  0  0  0  0  0  0  0  0
   36.5570   30.6370   40.1230 C   0  0  0  0  0  3  0  0  0  0  0  0
   36.8940   31.9100   40.4500 C   0  0  0  0  0  0  0  0  0  0  0  0
   36.2770   32.4380   41.1530 H   0  0  0  0  0  0  0  0  0  0  0  0
   38.0200   32.4180   39.8360 C   0  0  0  0  0  0  0  0  0  0  0  0
   38.3590   33.6060   40.1230 O   0  0  0  0  0  0  0  0  0  0  0  0
   38.6950   31.6380   38.9730 N   0  0  0  0  0  0  0  0  0  0  0  0
   38.3120   30.3740   38.6840 C   0  0  0  0  0  0  0  0  0  0  0  0
   39.0930   29.8410   37.8540 O   0  0  0  0  0  0  0  0  0  0  0  0
   39.5260   32.1260   38.5720 H   0  0  0  0  0  0  0  0  0  0  0  0
   37.7700   27.7000   41.0430 C   0  0  0  0  0  0  0  0  0  0  0  0
   36.7240   27.5000   41.9580 C   0  0  0  0  0  0  0  0  0  0  0  0
   36.9220   27.8010   43.3040 C   0  0  0  0  0  0  0  0  0  0  0  0
   38.1680   28.2890   43.6470 N   0  0  0  0  0  0  0  0  0  0  0  0
   39.1420   28.4680   42.7510 C   0  0  0  0  0  0  0  0  0  0  0  0
   38.9480   28.1740   41.4450 N   0  0  0  0  0  0  0  0  0  0  0  0
   35.7490   27.1260   41.8030 H   0  0  0  0  0  0  0  0  0  0  0  0
   36.1900   27.6880   44.0930 H   0  0  0  0  0  0  0  0  0  0  0  0
   40.0920   28.8550   43.1040 H   0  0  0  0  0  0  0  0  0  0  0  0
  1  7  1  6  0  0  0
  1  6  1  0  0  0  0
  1 27  1  0  0  0  0
  2  8  1  6  0  0  0
  2 17  1  0  0  0  0
  2  1  1  0  0  0  0
  3  2  1  0  0  0  0
  3  9  1  0  0  0  0
  4 12  1  0  0  0  0
  4  5  1  0  0  0  0
  4  3  1  0  0  0  0
  5  6  1  0  0  0  0
  6 16  1  0  0  0  0
  6 15  1  0  0  0  0
 10  3  1  0  0  0  0
 11  4  1  0  0  0  0
 13  5  1  0  0  0  0
 14  5  1  0  0  0  0
 17 18  1  0  0  0  0
 18 19  2  0  0  0  0
 19 20  1  0  0  0  0
 21 22  2  0  0  0  0
 21 19  1  0  0  0  0
 23 21  1  0  0  0  0
 24 23  1  0  0  0  0
 24 17  1  0  0  0  0
 25 24  2  0  0  0  0
 26 23  1  0  0  0  0
 27 32  2  0  0  0  0
 27 28  1  0  0  0  0
 28 29  2  0  0  0  0
 29 30  1  0  0  0  0
 29 34  1  0  0  0  0
 31 35  1  0  0  0  0
 31 30  2  0  0  0  0
 32 31  1  0  0  0  0
 33 28  1  0  0  0  0
M  END
>  <minimizedAffinity>
-4.82666254

$$$$

 OpenBabel03242517093D

 35 37  0  0  1  0  0  0  0  0999 V2000
   36.4720   27.7340   39.8920 C   0  0  2  0  0  0  0  0  0  0  0  0
   37.5260   28.6640   40.3380 C   0  0  1  0  0  0  0  0  0  0  0  0
   38.9270   28.1030   40.2060 C   0  0  0  0  0  0  0  0  0  0  0  0
   39.0690   26.7980   40.9690 C   0  0  0  0  0  0  0  0  0  0  0  0
   37.8770   25.8880   40.8440 C   0  0  0  0  0  0  0  0  0  0  0  0
   36.9730   26.3080   39.7120 C   0  0  0  0  0  0  0  0  0  0  0  0
   35.6260   27.6250   40.6410 H   0  0  0  0  0  0  0  0  0  0  0  0
   37.4070   28.6990   41.4850 H   0  0  0  0  0  0  0  0  0  0  0  0
   39.2930   27.9300   39.2110 H   0  0  0  0  0  0  0  0  0  0  0  0
   39.5920   28.8350   40.7120 H   0  0  0  0  0  0  0  0  0  0  0  0
   39.3090   27.0000   42.0360 H   0  0  0  0  0  0  0  0  0  0  0  0
   39.9520   26.2480   40.5670 H   0  0  0  0  0  0  0  0  0  0  0  0
   37.2700   26.0470   41.7820 H   0  0  0  0  0  0  0  0  0  0  0  0
   38.0940   24.8250   40.7780 H   0  0  0  0  0  0  0  0  0  0  0  0
   37.5700   26.2050   38.7760 H   0  0  0  0  0  0  0  0  0  0  0  0
   36.0840   25.6590   39.6800 H   0  0  0  0  0  0  0  0  0  0  0  0
   37.4480   30.0240   39.9520 N   0  0  0  0  0  0  0  0  0  0  0  0
   37.9880   30.6560   38.8710 C   0  0  0  0  0  3  0  0  0  0  0  0
   37.8870   31.9720   38.5580 C   0  0  0  0  0  0  0  0  0  0  0  0
   38.3720   32.3240   37.6660 H   0  0  0  0  0  0  0  0  0  0  0  0
   37.1570   32.7510   39.4310 C   0  0  0  0  0  0  0  0  0  0  0  0
   37.0470   33.9860   39.1630 O   0  0  0  0  0  0  0  0  0  0  0  0
   36.6060   32.1710   40.5120 N   0  0  0  0  0  0  0  0  0  0  0  0
   36.7390   30.8510   40.7750 C   0  0  0  0  0  0  0  0  0  0  0  0
   36.1410   30.5360   41.8360 O   0  0  0  0  0  0  0  0  0  0  0  0
   36.0790   32.8550   41.0980 H   0  0  0  0  0  0  0  0  0  0  0  0
   35.8190   28.1350   38.6330 C   0  0  0  0  0  0  0  0  0  0  0  0
   34.5340   28.6890   38.7550 C   0  0  0  0  0  0  0  0  0  0  0  0
   33.8460   29.0870   37.6110 C   0  0  0  0  0  0  0  0  0  0  0  0
   34.4960   28.9000   36.4070 N   0  0  0  0  0  0  0  0  0  0  0  0
   35.7200   28.3700   36.3250 C   0  0  0  0  0  0  0  0  0  0  0  0
   36.3860   27.9850   37.4370 N   0  0  0  0  0  0  0  0  0  0  0  0
   33.9590   28.8830   39.6190 H   0  0  0  0  0  0  0  0  0  0  0  0
   32.8560   29.5230   37.5870 H   0  0  0  0  0  0  0  0  0  0  0  0
   36.1590   28.2590   35.3400 H   0  0  0  0  0  0  0  0  0  0  0  0
  1  2  1  0  0  0  0
  1  7  1  1  0  0  0
  2  8  1  1  0  0  0
  3  2  1  0  0  0  0
  3 10  1  0  0  0  0
  3  4  1  0  0  0  0
  4 11  1  0  0  0  0
  5  4  1  0  0  0  0
  5 13  1  0  0  0  0
  6  1  1  0  0  0  0
  6  5  1  0  0  0  0
  9  3  1  0  0  0  0
 12  4  1  0  0  0  0
 14  5  1  0  0  0  0
 15  6  1  0  0  0  0
 16  6  1  0  0  0  0
 17  2  1  0  0  0  0
 17 24  1  0  0  0  0
 18 17  1  0  0  0  0
 19 18  2  0  0  0  0
 19 21  1  0  0  0  0
 20 19  1  0  0  0  0
 21 23  1  0  0  0  0
 22 21  2  0  0  0  0
 23 24  1  0  0  0  0
 23 26  1  0  0  0  0
 24 25  2  0  0  0  0
 27 28  1  0  0  0  0
 27  1  1  0  0  0  0
 28 33  1  0  0  0  0
 29 28  2  0  0  0  0
 30 29  1  0  0  0  0
 31 30  2  0  0  0  0
 31 32  1  0  0  0  0
 32 27  2  0  0  0  0
 34 29  1  0  0  0  0
 35 31  1  0  0  0  0
M  END
>  <minimizedAffinity>
-4.8001523

$$$$

 OpenBabel03242517093D

 35 37  0  0  1  0  0  0  0  0999 V2000
   35.6080   29.1890   39.2780 C   0  0  2  0  0  0  0  0  0  0  0  0
   36.3690   27.9700   39.6100 C   0  0  1  0  0  0  0  0  0  0  0  0
   36.5910   27.0520   38.4260 C   0  0  0  0  0  0  0  0  0  0  0  0
   35.2720   26.6500   37.7890 C   0  0  0  0  0  0  0  0  0  0  0  0
   34.2750   27.7730   37.6960 C   0  0  0  0  0  0  0  0  0  0  0  0
   34.9260   29.1150   37.9210 C   0  0  0  0  0  0  0  0  0  0  0  0
   34.7510   29.3900   39.9960 H   0  0  0  0  0  0  0  0  0  0  0  0
   35.6370   27.3420   40.2450 H   0  0  0  0  0  0  0  0  0  0  0  0
   37.2260   27.4130   37.6390 H   0  0  0  0  0  0  0  0  0  0  0  0
   37.0310   26.1230   38.8450 H   0  0  0  0  0  0  0  0  0  0  0  0
   34.8410   25.7720   38.3180 H   0  0  0  0  0  0  0  0  0  0  0  0
   35.4750   26.2970   36.7510 H   0  0  0  0  0  0  0  0  0  0  0  0
   33.5750   27.6340   38.5700 H   0  0  0  0  0  0  0  0  0  0  0  0
   33.6650   27.7960   36.7970 H   0  0  0  0  0  0  0  0  0  0  0  0
   35.6590   29.2520   37.0920 H   0  0  0  0  0  0  0  0  0  0  0  0
   34.1650   29.9100   37.9010 H   0  0  0  0  0  0  0  0  0  0  0  0
   37.5160   28.0800   40.4330 N   0  0  0  0  0  0  0  0  0  0  0  0
   38.8250   28.2410   40.0880 C   0  0  0  0  0  3  0  0  0  0  0  0
   39.8870   28.3300   40.9260 C   0  0  0  0  0  0  0  0  0  0  0  0
   40.8660   28.4560   40.5000 H   0  0  0  0  0  0  0  0  0  0  0  0
   39.6080   28.2490   42.2740 C   0  0  0  0  0  0  0  0  0  0  0  0
   40.5830   28.3290   43.0820 O   0  0  0  0  0  0  0  0  0  0  0  0
   38.3300   28.0900   42.6620 N   0  0  0  0  0  0  0  0  0  0  0  0
   37.3080   28.0070   41.7810 C   0  0  0  0  0  0  0  0  0  0  0  0
   36.2080   27.8600   42.3720 O   0  0  0  0  0  0  0  0  0  0  0  0
   38.2390   28.0420   43.7010 H   0  0  0  0  0  0  0  0  0  0  0  0
   36.4200   30.4200   39.2990 C   0  0  0  0  0  0  0  0  0  0  0  0
   37.0620   30.7550   38.0960 C   0  0  0  0  0  0  0  0  0  0  0  0
   37.8540   31.8990   38.0350 C   0  0  0  0  0  0  0  0  0  0  0  0
   37.9530   32.6390   39.1970 N   0  0  0  0  0  0  0  0  0  0  0  0
   37.3290   32.2930   40.3260 C   0  0  0  0  0  0  0  0  0  0  0  0
   36.5600   31.1830   40.3820 N   0  0  0  0  0  0  0  0  0  0  0  0
   37.0420   30.2680   37.1590 H   0  0  0  0  0  0  0  0  0  0  0  0
   38.3930   32.2500   37.1650 H   0  0  0  0  0  0  0  0  0  0  0  0
   37.4590   32.9310   41.1940 H   0  0  0  0  0  0  0  0  0  0  0  0
  1 27  1  0  0  0  0
  1  2  1  0  0  0  0
  1  7  1  1  0  0  0
  2  8  1  1  0  0  0
  2 17  1  0  0  0  0
  3 10  1  0  0  0  0
  3  2  1  0  0  0  0
  4 11  1  0  0  0  0
  4  3  1  0  0  0  0
  5  4  1  0  0  0  0
  5  6  1  0  0  0  0
  5 13  1  0  0  0  0
  6  1  1  0  0  0  0
  9  3  1  0  0  0  0
 12  4  1  0  0  0  0
 14  5  1  0  0  0  0
 15  6  1  0  0  0  0
 16  6  1  0  0  0  0
 17 24  1  0  0  0  0
 18 17  1  0  0  0  0
 18 19  2  0  0  0  0
 19 21  1  0  0  0  0
 20 19  1  0  0  0  0
 21 23  1  0  0  0  0
 21 22  2  0  0  0  0
 23 26  1  0  0  0  0
 24 25  2  0  0  0  0
 24 23  1  0  0  0  0
 27 32  1  0  0  0  0
 28 27  2  0  0  0  0
 29 28  1  0  0  0  0
 29 30  2  0  0  0  0
 30 31  1  0  0  0  0
 31 32  2  0  0  0  0
 31 35  1  0  0  0  0
 33 28  1  0  0  0  0
 34 29  1  0  0  0  0
M  END
>  <minimizedAffinity>
-4.79799843

$$$$

 OpenBabel03242517093D

 35 37  0  0  1  0  0  0  0  0999 V2000
   38.2380   25.6420   41.0120 C   0  0  2  0  0  0  0  0  0  0  0  0
   37.5260   25.8200   39.7340 C   0  0  1  0  0  0  0  0  0  0  0  0
   36.3130   24.9240   39.5850 C   0  0  0  0  0  0  0  0  0  0  0  0
   36.6910   23.4610   39.7370 C   0  0  0  0  0  0  0  0  0  0  0  0
   37.6900   23.2020   40.8320 C   0  0  0  0  0  0  0  0  0  0  0  0
   37.8180   24.3860   41.7590 C   0  0  0  0  0  0  0  0  0  0  0  0
   39.3590   25.5130   40.8840 H   0  0  0  0  0  0  0  0  0  0  0  0
   38.2370   25.3660   38.9460 H   0  0  0  0  0  0  0  0  0  0  0  0
   35.4850   25.1080   40.2430 H   0  0  0  0  0  0  0  0  0  0  0  0
   35.9740   25.0510   38.5350 H   0  0  0  0  0  0  0  0  0  0  0  0
   37.0450   23.0510   38.7660 H   0  0  0  0  0  0  0  0  0  0  0  0
   35.7700   22.8820   39.9820 H   0  0  0  0  0  0  0  0  0  0  0  0
   38.6920   23.1190   40.3200 H   0  0  0  0  0  0  0  0  0  0  0  0
   37.5450   22.2900   41.4040 H   0  0  0  0  0  0  0  0  0  0  0  0
   36.8220   24.5160   42.2420 H   0  0  0  0  0  0  0  0  0  0  0  0
   38.5940   24.1880   42.5150 H   0  0  0  0  0  0  0  0  0  0  0  0
   37.2910   27.1320   39.2550 N   0  0  0  0  0  0  0  0  0  0  0  0
   36.2080   27.9410   39.4240 C   0  0  0  0  0  3  0  0  0  0  0  0
   36.0360   29.1930   38.9300 C   0  0  0  0  0  0  0  0  0  0  0  0
   35.1190   29.7080   39.1510 H   0  0  0  0  0  0  0  0  0  0  0  0
   37.0740   29.6970   38.1760 C   0  0  0  0  0  0  0  0  0  0  0  0
   36.9400   30.8660   37.7000 O   0  0  0  0  0  0  0  0  0  0  0  0
   38.1640   28.9340   37.9810 N   0  0  0  0  0  0  0  0  0  0  0  0
   38.2820   27.6900   38.4990 C   0  0  0  0  0  0  0  0  0  0  0  0
   39.3830   27.1700   38.1860 O   0  0  0  0  0  0  0  0  0  0  0  0
   38.8820   29.4170   37.3970 H   0  0  0  0  0  0  0  0  0  0  0  0
   38.0880   26.7790   41.9390 C   0  0  0  0  0  0  0  0  0  0  0  0
   36.9640   26.7430   42.7800 C   0  0  0  0  0  0  0  0  0  0  0  0
   36.7450   27.7840   43.6790 C   0  0  0  0  0  0  0  0  0  0  0  0
   37.6770   28.8040   43.6760 N   0  0  0  0  0  0  0  0  0  0  0  0
   38.7360   28.8080   42.8630 C   0  0  0  0  0  0  0  0  0  0  0  0
   38.9470   27.7960   41.9910 N   0  0  0  0  0  0  0  0  0  0  0  0
   36.2060   26.0130   42.8680 H   0  0  0  0  0  0  0  0  0  0  0  0
   35.9160   27.8610   44.3700 H   0  0  0  0  0  0  0  0  0  0  0  0
   39.4200   29.6470   42.9250 H   0  0  0  0  0  0  0  0  0  0  0  0
  1  7  1  6  0  0  0
  1  6  1  0  0  0  0
  1 27  1  0  0  0  0
  2  8  1  6  0  0  0
  2  1  1  0  0  0  0
  3  2  1  0  0  0  0
  3  4  1  0  0  0  0
  3  9  1  0  0  0  0
  4 12  1  0  0  0  0
  4  5  1  0  0  0  0
  5 14  1  0  0  0  0
  5  6  1  0  0  0  0
  6 15  1  0  0  0  0
  6 16  1  0  0  0  0
 10  3  1  0  0  0  0
 11  4  1  0  0  0  0
 13  5  1  0  0  0  0
 17 18  1  0  0  0  0
 17  2  1  0  0  0  0
 19 20  1  0  0  0  0
 19 18  2  0  0  0  0
 21 19  1  0  0  0  0
 22 21  2  0  0  0  0
 23 21  1  0  0  0  0
 23 24  1  0  0  0  0
 24 17  1  0  0  0  0
 25 24  2  0  0  0  0
 26 23  1  0  0  0  0
 27 32  2  0  0  0  0
 27 28  1  0  0  0  0
 28 33  1  0  0  0  0
 28 29  2  0  0  0  0
 29 34  1  0  0  0  0
 30 29  1  0  0  0  0
 31 35  1  0  0  0  0
 31 30  2  0  0  0  0
 32 31  1  0  0  0  0
M  END
>  <minimizedAffinity>
-4.75891304

$$$$
