
 OpenBabel03252506283D

 48 52  0  0  0  0  0  0  0  0999 V2000
   47.6000   29.9120   43.7740 C   0  0  0  0  0  0  0  0  0  0  0  0
   47.1150   30.4280   42.5670 C   0  0  0  0  0  0  0  0  0  0  0  0
   48.1550   30.8300   41.8050 C   0  0  0  0  0  0  0  0  0  0  0  0
   49.2510   30.5690   42.5180 N   0  0  0  0  0  0  0  0  0  0  0  0
   48.9400   30.0210   43.6970 N   0  0  0  0  0  0  0  0  0  0  0  0
   46.0500   30.4880   42.3020 H   0  0  0  0  0  0  0  0  0  0  0  0
   48.0530   31.2670   40.8220 H   0  0  0  0  0  0  0  0  0  0  0  0
   44.7260   29.3440   45.9510 C   0  0  0  0  0  0  0  0  0  0  0  0
   45.1900   28.3980   46.8570 C   0  0  0  0  0  0  0  0  0  0  0  0
   46.5030   27.9600   46.7070 C   0  0  0  0  0  0  0  0  0  0  0  0
   47.2380   28.4850   45.6910 N   0  0  0  0  0  0  0  0  0  0  0  0
   46.7720   29.3840   44.8430 C   0  0  0  0  0  0  0  0  0  0  0  0
   45.5000   29.8160   44.9770 N   0  0  0  0  0  0  0  0  0  0  0  0
   43.6920   29.6580   46.1050 H   0  0  0  0  0  0  0  0  0  0  0  0
   44.6530   27.9520   47.6750 H   0  0  0  0  0  0  0  0  0  0  0  0
   47.1440   26.9880   47.5530 N   0  0  0  0  0  0  0  0  0  0  0  0
   46.6980   25.7300   47.7150 C   0  0  0  0  0  3  0  0  0  0  0  0
   47.3640   24.8410   48.5460 C   0  0  0  0  0  0  0  0  0  0  0  0
   47.0010   23.8300   48.6700 H   0  0  0  0  0  0  0  0  0  0  0  0
   48.4930   25.2800   49.2050 C   0  0  0  0  0  0  0  0  0  0  0  0
   49.1470   24.5290   49.9750 O   0  0  0  0  0  0  0  0  0  0  0  0
   48.8880   26.5580   49.0000 N   0  0  0  0  0  0  0  0  0  0  0  0
   48.2360   27.4360   48.1820 C   0  0  0  0  0  0  0  0  0  0  0  0
   48.7520   28.5810   48.1190 O   0  0  0  0  0  0  0  0  0  0  0  0
   49.7580   26.8520   49.5260 H   0  0  0  0  0  0  0  0  0  0  0  0
   50.6260   30.8340   42.1010 C   0  0  0  0  0  0  0  0  0  0  0  0
   50.8260   31.9300   42.0760 H   0  0  0  0  0  0  0  0  0  0  0  0
   50.7990   30.4610   41.0920 H   0  0  0  0  0  0  0  0  0  0  0  0
   51.5880   30.2180   43.0380 C   0  0  0  0  0  0  0  0  0  0  0  0
   51.1600   30.2950   44.0740 H   0  0  0  0  0  0  0  0  0  0  0  0
   52.4920   30.8720   43.0770 H   0  0  0  0  0  0  0  0  0  0  0  0
   52.4130   28.3130   41.5470 C   0  0  0  0  0  0  0  0  0  0  0  0
   52.0430   28.8740   42.7450 C   0  0  0  0  0  0  0  0  0  0  0  0
   52.1060   28.0400   43.8660 C   0  0  0  0  0  0  0  0  0  0  0  0
   52.5180   26.7220   43.7720 C   0  0  0  0  0  0  0  0  0  0  0  0
   52.6740   25.7160   44.6460 N   0  0  0  0  0  0  0  0  0  0  0  0
   53.1090   24.6090   44.0480 C   0  0  0  0  0  0  0  0  0  0  0  0
   53.2560   24.8760   42.6900 C   0  0  0  0  0  0  0  0  0  0  0  0
   52.8820   26.1880   42.5680 C   0  0  0  0  0  0  0  0  0  0  0  0
   52.8220   27.0060   41.4580 C   0  0  0  0  0  0  0  0  0  0  0  0
   52.3510   28.9890   40.7050 H   0  0  0  0  0  0  0  0  0  0  0  0
   51.8450   28.3430   44.8750 H   0  0  0  0  0  0  0  0  0  0  0  0
   52.4850   25.7710   45.6800 H   0  0  0  0  0  0  0  0  0  0  0  0
   53.3340   23.6270   44.4610 H   0  0  0  0  0  0  0  0  0  0  0  0
   53.5930   24.1850   41.9280 H   0  0  0  0  0  0  0  0  0  0  0  0
   53.2050   26.4600   40.1540 C   0  0  0  0  0  0  0  0  0  0  0  0
   53.2410   27.2100   39.1330 O   0  0  0  0  0  0  0  0  0  0  0  0
   53.4630   25.4160   40.0410 H   0  0  0  0  0  0  0  0  0  0  0  0
  1 12  1  0  0  0  0
  2  1  1  0  0  0  0
  3  4  1  0  0  0  0
  3  2  2  0  0  0  0
  4  5  1  0  0  0  0
  5  1  2  0  0  0  0
  6  2  1  0  0  0  0
  7  3  1  0  0  0  0
  8 14  1  0  0  0  0
  8  9  1  0  0  0  0
  9 15  1  0  0  0  0
 10  9  2  0  0  0  0
 10 16  1  0  0  0  0
 11 10  1  0  0  0  0
 12 13  1  0  0  0  0
 12 11  2  0  0  0  0
 13  8  2  0  0  0  0
 16 17  1  0  0  0  0
 16 23  1  0  0  0  0
 17 18  2  0  0  0  0
 18 19  1  0  0  0  0
 18 20  1  0  0  0  0
 20 21  2  0  0  0  0
 22 20  1  0  0  0  0
 22 25  1  0  0  0  0
 23 22  1  0  0  0  0
 24 23  2  0  0  0  0
 26  4  1  0  0  0  0
 26 29  1  0  0  0  0
 27 26  1  0  0  0  0
 28 26  1  0  0  0  0
 29 31  1  0  0  0  0
 29 30  1  0  0  0  0
 32 33  1  0  0  0  0
 33 29  1  0  0  0  0
 33 34  2  0  0  0  0
 34 42  1  0  0  0  0
 35 34  1  0  0  0  0
 35 36  1  0  0  0  0
 36 43  1  0  0  0  0
 37 44  1  0  0  0  0
 37 36  1  0  0  0  0
 38 37  2  0  0  0  0
 39 38  1  0  0  0  0
 39 35  2  0  0  0  0
 40 32  2  0  0  0  0
 40 39  1  0  0  0  0
 41 32  1  0  0  0  0
 45 38  1  0  0  0  0
 46 40  1  0  0  0  0
 47 46  2  0  0  0  0
 48 46  1  0  0  0  0
M  END
>  <minimizedAffinity>
-2.41669202

>  <minimizedRMSD>
9.72186852

$$$$
