
 OpenBabel03252508453D

 46 48  0  0  0  0  0  0  0  0999 V2000
   42.7220   31.5340   42.5830 N   0  0  0  0  0  0  0  0  0  0  0  0
   43.2800   30.6520   42.5250 H   0  0  0  0  0  0  0  0  0  0  0  0
   43.0690   32.5480   41.6430 C   0  0  0  0  0  0  0  0  0  0  0  0
   43.6330   32.1070   40.7700 H   0  0  0  0  0  0  0  0  0  0  0  0
   42.1360   32.9690   41.2290 H   0  0  0  0  0  0  0  0  0  0  0  0
   43.6550   34.9740   41.8830 C   0  0  0  0  0  0  0  0  0  0  0  0
   43.9210   33.6410   42.1890 C   0  0  0  0  0  0  0  0  0  0  0  0
   44.9930   33.3580   43.0100 C   0  0  0  0  0  0  0  0  0  0  0  0
   45.7630   34.3800   43.5000 C   0  0  0  0  0  0  0  0  0  0  0  0
   45.5230   35.6950   43.2160 C   0  0  0  0  0  0  0  0  0  0  0  0
   44.4410   35.9280   42.3910 C   0  0  0  0  0  0  0  0  0  0  0  0
   45.2360   32.3370   43.2720 H   0  0  0  0  0  0  0  0  0  0  0  0
   46.6090   34.1390   44.1500 H   0  0  0  0  0  0  0  0  0  0  0  0
   46.0990   36.5330   43.5770 H   0  0  0  0  0  0  0  0  0  0  0  0
   44.1700   36.9480   42.1080 H   0  0  0  0  0  0  0  0  0  0  0  0
   40.2300   35.7830   40.5190 C   0  0  0  0  0  0  0  0  0  0  0  0
   41.2550   35.5770   41.4490 C   0  0  0  0  0  0  0  0  0  0  0  0
   42.5110   35.2150   41.0120 C   0  0  0  0  0  0  0  0  0  0  0  0
   42.6700   35.0770   39.6640 N   0  0  0  0  0  0  0  0  0  0  0  0
   41.6770   35.2780   38.7720 C   0  0  0  0  0  0  0  0  0  0  0  0
   40.4580   35.6310   39.2150 N   0  0  0  0  0  0  0  0  0  0  0  0
   39.2440   36.0690   40.8670 H   0  0  0  0  0  0  0  0  0  0  0  0
   41.1120   35.6900   42.4960 H   0  0  0  0  0  0  0  0  0  0  0  0
   42.0030   35.1180   37.7390 H   0  0  0  0  0  0  0  0  0  0  0  0
   41.0490   31.1520   42.5520 S   0  0  0  0  0  0  0  0  0  0  0  0
   40.2100   32.4070   42.4790 O   0  0  0  0  0  0  0  0  0  0  0  0
   39.4660   32.6500   43.0810 H   0  0  0  0  0  0  0  0  0  0  0  0
   40.6660   30.3400   43.7400 O   0  0  0  0  0  0  0  0  0  0  0  0
   41.2330   29.5830   44.0890 H   0  0  0  0  0  0  0  0  0  0  0  0
   40.7610   30.2450   41.1660 O   0  0  0  0  0  0  0  0  0  0  0  0
   39.9740   29.1550   41.5260 C   0  0  0  0  0  0  0  0  0  0  0  0
   38.9080   29.4560   41.3400 H   0  0  0  0  0  0  0  0  0  0  0  0
   40.0760   28.8260   42.5560 H   0  0  0  0  0  0  0  0  0  0  0  0
   40.2450   28.0040   40.5390 C   0  0  0  0  0  0  0  0  0  0  0  0
   41.3400   27.9160   40.4010 H   0  0  0  0  0  0  0  0  0  0  0  0
   39.8880   27.0600   40.9670 H   0  0  0  0  0  0  0  0  0  0  0  0
   39.5480   28.2850   39.3010 N   0  0  0  0  0  0  0  0  0  0  0  0
   38.1970   28.3510   39.2940 C   0  0  0  0  0  3  0  0  0  0  0  0
   37.5820   28.6230   38.0790 C   0  0  0  0  0  0  0  0  0  0  0  0
   36.4850   28.6880   38.0130 H   0  0  0  0  0  0  0  0  0  0  0  0
   38.3620   28.8100   36.9560 C   0  0  0  0  0  0  0  0  0  0  0  0
   37.8430   29.0610   35.8200 O   0  0  0  0  0  0  0  0  0  0  0  0
   39.7140   28.7320   37.0210 N   0  0  0  0  0  0  0  0  0  0  0  0
   40.3000   28.4680   38.1990 C   0  0  0  0  0  0  0  0  0  0  0  0
   41.5740   28.3950   38.2630 O   0  0  0  0  0  0  0  0  0  0  0  0
   40.3360   28.8670   36.1940 H   0  0  0  0  0  0  0  0  0  0  0  0
  2  1  1  0  0  0  0
  3  7  1  0  0  0  0
  3  1  1  0  0  0  0
  4  3  1  0  0  0  0
  5  3  1  0  0  0  0
  6  7  2  0  0  0  0
  6 11  1  0  0  0  0
  7  8  1  0  0  0  0
  8 12  1  0  0  0  0
  8  9  2  0  0  0  0
  9 13  1  0  0  0  0
 10  9  1  0  0  0  0
 10 14  1  0  0  0  0
 11 10  2  0  0  0  0
 15 11  1  0  0  0  0
 16 22  1  0  0  0  0
 16 17  1  0  0  0  0
 17 23  1  0  0  0  0
 18 17  2  0  0  0  0
 18  6  1  0  0  0  0
 19 18  1  0  0  0  0
 20 21  1  0  0  0  0
 20 19  2  0  0  0  0
 21 16  2  0  0  0  0
 24 20  1  0  0  0  0
 25  1  1  0  0  0  0
 25 28  1  0  0  0  0
 26 25  1  0  0  0  0
 26 27  1  0  0  0  0
 28 29  1  0  0  0  0
 30 31  1  0  0  0  0
 30 25  1  0  0  0  0
 31 33  1  0  0  0  0
 32 31  1  0  0  0  0
 34 36  1  0  0  0  0
 34 31  1  0  0  0  0
 35 34  1  0  0  0  0
 37 34  1  0  0  0  0
 38 37  1  0  0  0  0
 39 38  2  0  0  0  0
 40 39  1  0  0  0  0
 41 43  1  0  0  0  0
 41 39  1  0  0  0  0
 42 41  2  0  0  0  0
 43 44  1  0  0  0  0
 44 45  2  0  0  0  0
 44 37  1  0  0  0  0
 46 43  1  0  0  0  0
M  END
>  <minimizedAffinity>
-5.04729891

>  <minimizedRMSD>
1.54904914

$$$$
