
 OpenBabel03252507463D

 38 40  0  0  0  0  0  0  0  0999 V2000
   47.1940   34.4310   40.8660 C   0  0  0  0  0  0  0  0  0  0  0  0
   47.3280   35.1960   40.0900 H   0  0  0  0  0  0  0  0  0  0  0  0
   46.5990   33.6110   40.4360 H   0  0  0  0  0  0  0  0  0  0  0  0
   48.5220   33.9770   41.3190 C   0  0  0  0  0  0  0  0  0  0  0  0
   48.9750   32.7740   40.8050 C   0  0  0  0  0  0  0  0  0  0  0  0
   50.2070   32.2510   41.1600 C   0  0  0  0  0  0  0  0  0  0  0  0
   50.9520   32.9930   42.0500 N   0  0  0  0  0  0  0  0  0  0  0  0
   50.4760   34.1580   42.5260 C   0  0  0  0  0  0  0  0  0  0  0  0
   49.2900   34.6380   42.1700 N   0  0  0  0  0  0  0  0  0  0  0  0
   50.5780   31.3230   40.7760 H   0  0  0  0  0  0  0  0  0  0  0  0
   51.0370   34.7690   43.2310 H   0  0  0  0  0  0  0  0  0  0  0  0
   47.9570   31.8310   39.6350 S   0  0  0  0  0  0  0  0  0  0  0  0
   50.9740   28.9720   37.0730 H   0  0  0  0  0  0  0  0  0  0  0  0
   50.5330   29.9180   37.1460 N   0  0  0  0  0  0  0  0  0  0  0  0
   49.7150   30.0970   38.1810 C   0  0  0  0  0  3  0  0  0  0  0  0
   49.1000   31.3110   38.3420 C   0  0  0  0  0  0  0  0  0  0  0  0
   49.3350   32.3330   37.4300 C   0  0  0  0  0  0  0  0  0  0  0  0
   48.8300   33.5050   37.4610 O   0  0  0  0  0  0  0  0  0  0  0  0
   50.1750   32.1220   36.3830 N   0  0  0  0  0  0  0  0  0  0  0  0
   50.7670   30.9110   36.2520 C   0  0  0  0  0  0  0  0  0  0  0  0
   51.5500   30.6540   35.3090 O   0  0  0  0  0  0  0  0  0  0  0  0
   50.3750   32.8700   35.6750 H   0  0  0  0  0  0  0  0  0  0  0  0
   46.3630   35.0190   41.9780 C   0  0  0  0  0  0  0  0  0  0  0  0
   46.6740   34.5820   42.9460 H   0  0  0  0  0  0  0  0  0  0  0  0
   46.6050   36.1110   42.0430 H   0  0  0  0  0  0  0  0  0  0  0  0
   44.9010   34.9540   41.7320 C   0  0  0  0  0  0  0  0  0  0  0  0
   43.9980   35.4530   42.7260 C   0  0  0  0  0  0  0  0  0  0  0  0
   42.3530   35.1580   41.9740 S   0  0  0  0  0  0  0  0  0  0  0  0
   43.1640   34.4040   40.4290 C   0  0  0  0  0  0  0  0  0  0  0  0
   44.2730   34.4880   40.6910 N   0  0  0  0  0  0  0  0  0  0  0  0
   44.2510   35.8920   43.6790 H   0  0  0  0  0  0  0  0  0  0  0  0
   42.4350   33.9230   39.3520 O   0  0  0  0  0  0  0  0  0  0  0  0
   40.4670   34.3430   37.6280 O   0  0  0  0  0  0  0  0  0  0  0  0
   41.5410   35.0590   38.4450 P   0  0  0  0  0  0  0  0  0  0  0  0
   40.7880   36.1080   39.5330 O   0  0  0  0  0  0  0  0  0  0  0  0
   40.2950   36.8000   39.0230 H   0  0  0  0  0  0  0  0  0  0  0  0
   42.5760   35.9350   37.4370 O   0  0  0  0  0  0  0  0  0  0  0  0
   42.6660   35.5100   36.5630 H   0  0  0  0  0  0  0  0  0  0  0  0
  1  4  1  0  0  0  0
  1 23  1  0  0  0  0
  2  1  1  0  0  0  0
  3  1  1  0  0  0  0
  4  9  1  0  0  0  0
  5  6  1  0  0  0  0
  5  4  2  0  0  0  0
  6  7  2  0  0  0  0
  7  8  1  0  0  0  0
  8 11  1  0  0  0  0
  9  8  2  0  0  0  0
 10  6  1  0  0  0  0
 12  5  1  0  0  0  0
 13 14  1  0  0  0  0
 14 15  1  0  0  0  0
 15 16  2  0  0  0  0
 16 12  1  0  0  0  0
 17 18  2  0  0  0  0
 17 16  1  0  0  0  0
 19 17  1  0  0  0  0
 20 19  1  0  0  0  0
 20 14  1  0  0  0  0
 21 20  2  0  0  0  0
 22 19  1  0  0  0  0
 23 25  1  0  0  0  0
 23 24  1  0  0  0  0
 26 23  1  0  0  0  0
 26 27  2  0  0  0  0
 27 31  1  0  0  0  0
 28 27  1  0  0  0  0
 29 30  2  0  0  0  0
 29 28  1  0  0  0  0
 30 26  1  0  0  0  0
 32 29  1  0  0  0  0
 33 34  2  0  0  0  0
 34 32  1  0  0  0  0
 34 35  1  0  0  0  0
 36 35  1  0  0  0  0
 37 34  1  0  0  0  0
 38 37  1  0  0  0  0
M  END
>  <minimizedAffinity>
-5.23309231

>  <minimizedRMSD>
1.43314457

$$$$
