
 OpenBabel03242510103D

 29 31  0  0  0  0  0  0  0  0999 V2000
   38.0090   28.2970   39.1300 Br  0  0  0  0  0  0  0  0  0  0  0  0
   37.6850   28.0180   41.0080 C   0  0  0  0  0  0  0  0  0  0  0  0
   37.5650   26.7430   41.5040 C   0  0  0  0  0  0  0  0  0  0  0  0
   37.3300   26.5200   42.8590 C   0  0  0  0  0  0  0  0  0  0  0  0
   37.2240   27.6060   43.6800 C   0  0  0  0  0  0  0  0  0  0  0  0
   37.3520   28.8670   43.1380 C   0  0  0  0  0  0  0  0  0  0  0  0
   37.5810   29.1160   41.8210 C   0  0  0  0  0  0  0  0  0  0  0  0
   37.2490   25.4800   43.1590 H   0  0  0  0  0  0  0  0  0  0  0  0
   37.0440   27.3780   44.7110 H   0  0  0  0  0  0  0  0  0  0  0  0
   37.2590   29.6840   43.8370 H   0  0  0  0  0  0  0  0  0  0  0  0
   37.7010   30.4530   41.3410 N   0  0  0  0  0  0  0  0  0  0  0  0
   38.9610   30.9360   41.4970 C   0  0  0  0  0  3  0  0  0  0  0  0
   39.2420   32.2350   41.0750 C   0  0  0  0  0  0  0  0  0  0  0  0
   40.2310   32.6600   41.1800 H   0  0  0  0  0  0  0  0  0  0  0  0
   38.1930   32.9400   40.5230 C   0  0  0  0  0  0  0  0  0  0  0  0
   38.4100   34.1350   40.1240 O   0  0  0  0  0  0  0  0  0  0  0  0
   36.9480   32.4520   40.3730 N   0  0  0  0  0  0  0  0  0  0  0  0
   36.7200   31.1930   40.7930 C   0  0  0  0  0  0  0  0  0  0  0  0
   35.6230   30.5640   40.7380 O   0  0  0  0  0  0  0  0  0  0  0  0
   36.1440   32.9510   39.9650 H   0  0  0  0  0  0  0  0  0  0  0  0
   36.6730   24.1100   39.1190 C   0  0  0  0  0  0  0  0  0  0  0  0
   37.9200   23.4880   38.8410 C   0  0  0  0  0  0  0  0  0  0  0  0
   39.0490   23.9930   39.4860 C   0  0  0  0  0  0  0  0  0  0  0  0
   38.8950   25.0390   40.3340 N   0  0  0  0  0  0  0  0  0  0  0  0
   37.6860   25.6150   40.5800 C   0  0  0  0  0  0  0  0  0  0  0  0
   36.5980   25.1360   39.9660 N   0  0  0  0  0  0  0  0  0  0  0  0
   35.7420   23.7910   38.6690 H   0  0  0  0  0  0  0  0  0  0  0  0
   37.9110   22.6630   38.1480 H   0  0  0  0  0  0  0  0  0  0  0  0
   39.9870   23.5310   39.2830 H   0  0  0  0  0  0  0  0  0  0  0  0
  1  2  1  0  0  0  0
  2  3  2  0  0  0  0
  2  7  1  0  0  0  0
  3  4  1  0  0  0  0
  4  8  1  0  0  0  0
  4  5  2  0  0  0  0
  5  9  1  0  0  0  0
  6  5  1  0  0  0  0
  6 10  1  0  0  0  0
  7  6  2  0  0  0  0
 11 12  1  0  0  0  0
 11  7  1  0  0  0  0
 13 14  1  0  0  0  0
 13 12  2  0  0  0  0
 15 13  1  0  0  0  0
 16 15  2  0  0  0  0
 17 15  1  0  0  0  0
 17 18  1  0  0  0  0
 18 11  1  0  0  0  0
 19 18  2  0  0  0  0
 20 17  1  0  0  0  0
 21 26  1  0  0  0  0
 22 21  2  0  0  0  0
 22 23  1  0  0  0  0
 23 24  2  0  0  0  0
 24 25  1  0  0  0  0
 25  3  1  0  0  0  0
 26 25  2  0  0  0  0
 27 21  1  0  0  0  0
 28 22  1  0  0  0  0
 29 23  1  0  0  0  0
M  END
>  <minimizedAffinity>
-5.83819723

$$$$

 OpenBabel03242510103D

 29 31  0  0  0  0  0  0  0  0999 V2000
   39.3320   28.2970   38.8060 Br  0  0  0  0  0  0  0  0  0  0  0  0
   38.0040   29.3630   39.7060 C   0  0  0  0  0  0  0  0  0  0  0  0
   37.0180   28.7550   40.4450 C   0  0  0  0  0  0  0  0  0  0  0  0
   36.0480   29.5080   41.1030 C   0  0  0  0  0  0  0  0  0  0  0  0
   36.1050   30.8670   40.9930 C   0  0  0  0  0  0  0  0  0  0  0  0
   37.1120   31.4330   40.2410 C   0  0  0  0  0  0  0  0  0  0  0  0
   38.0720   30.7260   39.5870 C   0  0  0  0  0  0  0  0  0  0  0  0
   35.3100   28.9410   41.6620 H   0  0  0  0  0  0  0  0  0  0  0  0
   35.3360   31.3970   41.5180 H   0  0  0  0  0  0  0  0  0  0  0  0
   37.1040   32.5120   40.1920 H   0  0  0  0  0  0  0  0  0  0  0  0
   39.0800   31.3910   38.8300 N   0  0  0  0  0  0  0  0  0  0  0  0
   40.1720   31.6800   39.5830 C   0  0  0  0  0  3  0  0  0  0  0  0
   41.2500   32.3330   38.9850 C   0  0  0  0  0  0  0  0  0  0  0  0
   42.1400   32.5820   39.5470 H   0  0  0  0  0  0  0  0  0  0  0  0
   41.1150   32.6390   37.6470 C   0  0  0  0  0  0  0  0  0  0  0  0
   42.0810   33.2380   37.0630 O   0  0  0  0  0  0  0  0  0  0  0  0
   40.0280   32.3490   36.9100 N   0  0  0  0  0  0  0  0  0  0  0  0
   39.0100   31.7180   37.5250 C   0  0  0  0  0  0  0  0  0  0  0  0
   37.9120   31.3640   37.0040 O   0  0  0  0  0  0  0  0  0  0  0  0
   39.8950   32.5640   35.9110 H   0  0  0  0  0  0  0  0  0  0  0  0
   37.5640   25.3540   41.6890 C   0  0  0  0  0  0  0  0  0  0  0  0
   36.9730   24.5420   40.6840 C   0  0  0  0  0  0  0  0  0  0  0  0
   36.3940   25.1880   39.5920 C   0  0  0  0  0  0  0  0  0  0  0  0
   36.4280   26.5430   39.5510 N   0  0  0  0  0  0  0  0  0  0  0  0
   37.0030   27.2940   40.5300 C   0  0  0  0  0  0  0  0  0  0  0  0
   37.5610   26.6820   41.5810 N   0  0  0  0  0  0  0  0  0  0  0  0
   38.0380   24.9460   42.5730 H   0  0  0  0  0  0  0  0  0  0  0  0
   37.0110   23.4750   40.8330 H   0  0  0  0  0  0  0  0  0  0  0  0
   35.9490   24.5860   38.8350 H   0  0  0  0  0  0  0  0  0  0  0  0
  1  2  1  0  0  0  0
  2  3  1  0  0  0  0
  3 25  1  0  0  0  0
  3  4  2  0  0  0  0
  4  8  1  0  0  0  0
  5  4  1  0  0  0  0
  5  9  1  0  0  0  0
  6  5  2  0  0  0  0
  7  2  2  0  0  0  0
  7  6  1  0  0  0  0
 10  6  1  0  0  0  0
 11 12  1  0  0  0  0
 11  7  1  0  0  0  0
 13 14  1  0  0  0  0
 13 12  2  0  0  0  0
 15 13  1  0  0  0  0
 16 15  2  0  0  0  0
 17 18  1  0  0  0  0
 17 15  1  0  0  0  0
 18 11  1  0  0  0  0
 19 18  2  0  0  0  0
 20 17  1  0  0  0  0
 21 27  1  0  0  0  0
 22 28  1  0  0  0  0
 22 21  2  0  0  0  0
 23 22  1  0  0  0  0
 24 23  2  0  0  0  0
 24 25  1  0  0  0  0
 25 26  2  0  0  0  0
 26 21  1  0  0  0  0
 29 23  1  0  0  0  0
M  END
>  <minimizedAffinity>
-5.53607702

$$$$

 OpenBabel03242510103D

 29 31  0  0  0  0  0  0  0  0999 V2000
   40.8920   29.4140   40.4470 Br  0  0  0  0  0  0  0  0  0  0  0  0
   39.1090   30.1060   40.6770 C   0  0  0  0  0  0  0  0  0  0  0  0
   38.2070   29.4350   41.4670 C   0  0  0  0  0  0  0  0  0  0  0  0
   36.9130   29.9190   41.6460 C   0  0  0  0  0  0  0  0  0  0  0  0
   36.5670   31.0790   41.0140 C   0  0  0  0  0  0  0  0  0  0  0  0
   37.5050   31.7180   40.2320 C   0  0  0  0  0  0  0  0  0  0  0  0
   38.7750   31.2700   40.0380 C   0  0  0  0  0  0  0  0  0  0  0  0
   36.2700   29.3230   42.2860 H   0  0  0  0  0  0  0  0  0  0  0  0
   35.5610   31.4060   41.1860 H   0  0  0  0  0  0  0  0  0  0  0  0
   37.1720   32.6300   39.7590 H   0  0  0  0  0  0  0  0  0  0  0  0
   39.6850   31.9930   39.2120 N   0  0  0  0  0  0  0  0  0  0  0  0
   40.4770   32.8250   39.9360 C   0  0  0  0  0  3  0  0  0  0  0  0
   41.4230   33.6040   39.2720 C   0  0  0  0  0  0  0  0  0  0  0  0
   42.0750   34.2790   39.8090 H   0  0  0  0  0  0  0  0  0  0  0  0
   41.4780   33.4630   37.9010 C   0  0  0  0  0  0  0  0  0  0  0  0
   42.3330   34.1600   37.2540 O   0  0  0  0  0  0  0  0  0  0  0  0
   40.6880   32.6370   37.1920 N   0  0  0  0  0  0  0  0  0  0  0  0
   39.7880   31.9020   37.8720 C   0  0  0  0  0  0  0  0  0  0  0  0
   38.9630   31.0750   37.3860 O   0  0  0  0  0  0  0  0  0  0  0  0
   40.7030   32.5080   36.1700 H   0  0  0  0  0  0  0  0  0  0  0  0
   38.3940   25.8940   42.3810 C   0  0  0  0  0  0  0  0  0  0  0  0
   39.4280   25.8650   43.3550 C   0  0  0  0  0  0  0  0  0  0  0  0
   40.0420   27.0740   43.6790 C   0  0  0  0  0  0  0  0  0  0  0  0
   39.6230   28.2000   43.0510 N   0  0  0  0  0  0  0  0  0  0  0  0
   38.6290   28.1970   42.1200 C   0  0  0  0  0  0  0  0  0  0  0  0
   38.0340   27.0400   41.8040 N   0  0  0  0  0  0  0  0  0  0  0  0
   37.8590   25.0080   42.0630 H   0  0  0  0  0  0  0  0  0  0  0  0
   39.6700   24.9050   43.7820 H   0  0  0  0  0  0  0  0  0  0  0  0
   40.8170   27.0600   44.4080 H   0  0  0  0  0  0  0  0  0  0  0  0
  1  2  1  0  0  0  0
  2  3  1  0  0  0  0
  3  4  2  0  0  0  0
  3 25  1  0  0  0  0
  4  8  1  0  0  0  0
  5  9  1  0  0  0  0
  5  4  1  0  0  0  0
  6  5  2  0  0  0  0
  7  6  1  0  0  0  0
  7  2  2  0  0  0  0
 10  6  1  0  0  0  0
 11 12  1  0  0  0  0
 11  7  1  0  0  0  0
 13 14  1  0  0  0  0
 13 12  2  0  0  0  0
 15 13  1  0  0  0  0
 16 15  2  0  0  0  0
 17 18  1  0  0  0  0
 17 15  1  0  0  0  0
 18 11  1  0  0  0  0
 19 18  2  0  0  0  0
 20 17  1  0  0  0  0
 21 22  1  0  0  0  0
 22 23  2  0  0  0  0
 22 28  1  0  0  0  0
 23 29  1  0  0  0  0
 24 23  1  0  0  0  0
 25 24  2  0  0  0  0
 26 25  1  0  0  0  0
 26 21  2  0  0  0  0
 27 21  1  0  0  0  0
M  END
>  <minimizedAffinity>
-5.46662664

$$$$

 OpenBabel03242510103D

 29 31  0  0  0  0  0  0  0  0999 V2000
   38.7000   28.3000   39.3820 Br  0  0  0  0  0  0  0  0  0  0  0  0
   37.9430   28.0250   41.1320 C   0  0  0  0  0  0  0  0  0  0  0  0
   37.5490   26.7680   41.5220 C   0  0  0  0  0  0  0  0  0  0  0  0
   36.9990   26.5490   42.7830 C   0  0  0  0  0  0  0  0  0  0  0  0
   36.8630   27.6190   43.6200 C   0  0  0  0  0  0  0  0  0  0  0  0
   37.2720   28.8620   43.1860 C   0  0  0  0  0  0  0  0  0  0  0  0
   37.8110   29.1070   41.9620 C   0  0  0  0  0  0  0  0  0  0  0  0
   36.7170   25.5240   43.0030 H   0  0  0  0  0  0  0  0  0  0  0  0
   36.4350   27.3950   44.5770 H   0  0  0  0  0  0  0  0  0  0  0  0
   37.1380   29.6670   43.8920 H   0  0  0  0  0  0  0  0  0  0  0  0
   38.2090   30.4250   41.5910 N   0  0  0  0  0  0  0  0  0  0  0  0
   37.2460   31.0640   40.8800 C   0  0  0  0  0  3  0  0  0  0  0  0
   37.4830   32.3670   40.4420 C   0  0  0  0  0  0  0  0  0  0  0  0
   36.7440   32.9140   39.8730 H   0  0  0  0  0  0  0  0  0  0  0  0
   38.7060   32.9110   40.7740 C   0  0  0  0  0  0  0  0  0  0  0  0
   38.9620   34.1030   40.3910 O   0  0  0  0  0  0  0  0  0  0  0  0
   39.6550   32.2680   41.4790 N   0  0  0  0  0  0  0  0  0  0  0  0
   39.3850   31.0130   41.8830 C   0  0  0  0  0  0  0  0  0  0  0  0
   40.1450   30.2520   42.5500 O   0  0  0  0  0  0  0  0  0  0  0  0
   40.5760   32.6460   41.7430 H   0  0  0  0  0  0  0  0  0  0  0  0
   39.0440   23.9410   39.7380 C   0  0  0  0  0  0  0  0  0  0  0  0
   38.0290   23.5630   38.8190 C   0  0  0  0  0  0  0  0  0  0  0  0
   36.8420   24.2960   38.8350 C   0  0  0  0  0  0  0  0  0  0  0  0
   36.7250   25.3180   39.7170 N   0  0  0  0  0  0  0  0  0  0  0  0
   37.7170   25.6570   40.5860 C   0  0  0  0  0  0  0  0  0  0  0  0
   38.8590   24.9590   40.5780 N   0  0  0  0  0  0  0  0  0  0  0  0
   39.9990   23.4340   39.8030 H   0  0  0  0  0  0  0  0  0  0  0  0
   38.2440   22.7320   38.1680 H   0  0  0  0  0  0  0  0  0  0  0  0
   36.0770   24.0180   38.1480 H   0  0  0  0  0  0  0  0  0  0  0  0
  1  2  1  0  0  0  0
  2  3  2  0  0  0  0
  2  7  1  0  0  0  0
  3  4  1  0  0  0  0
  4  8  1  0  0  0  0
  4  5  2  0  0  0  0
  5  9  1  0  0  0  0
  6  5  1  0  0  0  0
  6 10  1  0  0  0  0
  7  6  2  0  0  0  0
 11 18  1  0  0  0  0
 11  7  1  0  0  0  0
 12 11  1  0  0  0  0
 13 15  1  0  0  0  0
 13 12  2  0  0  0  0
 14 13  1  0  0  0  0
 15 17  1  0  0  0  0
 16 15  2  0  0  0  0
 17 20  1  0  0  0  0
 17 18  1  0  0  0  0
 18 19  2  0  0  0  0
 21 27  1  0  0  0  0
 21 26  1  0  0  0  0
 22 23  1  0  0  0  0
 22 21  2  0  0  0  0
 23 24  2  0  0  0  0
 24 25  1  0  0  0  0
 25  3  1  0  0  0  0
 26 25  2  0  0  0  0
 28 22  1  0  0  0  0
 29 23  1  0  0  0  0
M  END
>  <minimizedAffinity>
-5.46358681

$$$$

 OpenBabel03242510103D

 29 31  0  0  0  0  0  0  0  0999 V2000
   40.7890   29.4580   40.4840 Br  0  0  0  0  0  0  0  0  0  0  0  0
   38.9610   30.0150   40.7260 C   0  0  0  0  0  0  0  0  0  0  0  0
   38.5570   31.2570   40.2990 C   0  0  0  0  0  0  0  0  0  0  0  0
   37.2400   31.6780   40.4650 C   0  0  0  0  0  0  0  0  0  0  0  0
   36.3620   30.8220   41.0640 C   0  0  0  0  0  0  0  0  0  0  0  0
   36.8120   29.5860   41.4770 C   0  0  0  0  0  0  0  0  0  0  0  0
   38.0900   29.1470   41.3290 C   0  0  0  0  0  0  0  0  0  0  0  0
   37.0130   32.6740   40.0970 H   0  0  0  0  0  0  0  0  0  0  0  0
   35.3630   31.1960   41.1670 H   0  0  0  0  0  0  0  0  0  0  0  0
   36.0700   28.9550   41.9440 H   0  0  0  0  0  0  0  0  0  0  0  0
   38.4740   27.8510   41.7840 N   0  0  0  0  0  0  0  0  0  0  0  0
   38.8850   27.8700   43.0780 C   0  0  0  0  0  3  0  0  0  0  0  0
   39.2950   26.6770   43.6730 C   0  0  0  0  0  0  0  0  0  0  0  0
   39.6300   26.6450   44.7010 H   0  0  0  0  0  0  0  0  0  0  0  0
   39.2470   25.5490   42.8790 C   0  0  0  0  0  0  0  0  0  0  0  0
   39.6150   24.4350   43.3880 O   0  0  0  0  0  0  0  0  0  0  0  0
   38.8380   25.5420   41.5980 N   0  0  0  0  0  0  0  0  0  0  0  0
   38.4510   26.7150   41.0620 C   0  0  0  0  0  0  0  0  0  0  0  0
   38.0370   26.9090   39.8820 O   0  0  0  0  0  0  0  0  0  0  0  0
   38.7910   24.7190   40.9790 H   0  0  0  0  0  0  0  0  0  0  0  0
   40.7580   32.7300   37.7700 C   0  0  0  0  0  0  0  0  0  0  0  0
   41.3910   33.7930   38.4690 C   0  0  0  0  0  0  0  0  0  0  0  0
   41.0430   33.9800   39.8070 C   0  0  0  0  0  0  0  0  0  0  0  0
   40.1290   33.1450   40.3600 N   0  0  0  0  0  0  0  0  0  0  0  0
   39.5390   32.1350   39.6630 C   0  0  0  0  0  0  0  0  0  0  0  0
   39.8670   31.9490   38.3790 N   0  0  0  0  0  0  0  0  0  0  0  0
   40.9610   32.5060   36.7300 H   0  0  0  0  0  0  0  0  0  0  0  0
   42.1010   34.3860   37.9180 H   0  0  0  0  0  0  0  0  0  0  0  0
   41.5140   34.7730   40.3380 H   0  0  0  0  0  0  0  0  0  0  0  0
  1  2  1  0  0  0  0
  2  7  1  0  0  0  0
  3  4  1  0  0  0  0
  3  2  2  0  0  0  0
  4  5  2  0  0  0  0
  5  9  1  0  0  0  0
  5  6  1  0  0  0  0
  6 10  1  0  0  0  0
  7  6  2  0  0  0  0
  7 11  1  0  0  0  0
  8  4  1  0  0  0  0
 11 12  1  0  0  0  0
 12 13  2  0  0  0  0
 13 14  1  0  0  0  0
 15 16  2  0  0  0  0
 15 13  1  0  0  0  0
 17 15  1  0  0  0  0
 18 17  1  0  0  0  0
 18 11  1  0  0  0  0
 19 18  2  0  0  0  0
 20 17  1  0  0  0  0
 21 26  2  0  0  0  0
 21 22  1  0  0  0  0
 22 23  2  0  0  0  0
 23 29  1  0  0  0  0
 23 24  1  0  0  0  0
 25  3  1  0  0  0  0
 25 24  2  0  0  0  0
 26 25  1  0  0  0  0
 27 21  1  0  0  0  0
 28 22  1  0  0  0  0
M  END
>  <minimizedAffinity>
-5.20487928

$$$$

 OpenBabel03242510103D

 29 31  0  0  0  0  0  0  0  0999 V2000
   40.5150   29.4820   40.6050 Br  0  0  0  0  0  0  0  0  0  0  0  0
   39.1520   30.8030   40.2770 C   0  0  0  0  0  0  0  0  0  0  0  0
   37.8840   30.6230   40.7760 C   0  0  0  0  0  0  0  0  0  0  0  0
   36.8850   31.5670   40.5490 C   0  0  0  0  0  0  0  0  0  0  0  0
   37.2010   32.6750   39.8180 C   0  0  0  0  0  0  0  0  0  0  0  0
   38.4860   32.8140   39.3380 C   0  0  0  0  0  0  0  0  0  0  0  0
   39.4820   31.9110   39.5420 C   0  0  0  0  0  0  0  0  0  0  0  0
   35.9150   31.3400   40.9810 H   0  0  0  0  0  0  0  0  0  0  0  0
   36.3960   33.3690   39.6740 H   0  0  0  0  0  0  0  0  0  0  0  0
   38.6740   33.7110   38.7680 H   0  0  0  0  0  0  0  0  0  0  0  0
   40.7860   32.1310   39.0100 N   0  0  0  0  0  0  0  0  0  0  0  0
   40.8930   31.6880   37.7310 C   0  0  0  0  0  3  0  0  0  0  0  0
   42.1110   31.8320   37.0670 C   0  0  0  0  0  0  0  0  0  0  0  0
   42.2420   31.4930   36.0480 H   0  0  0  0  0  0  0  0  0  0  0  0
   43.1310   32.4250   37.7810 C   0  0  0  0  0  0  0  0  0  0  0  0
   44.2640   32.5750   37.2080 O   0  0  0  0  0  0  0  0  0  0  0  0
   43.0150   32.8600   39.0490 N   0  0  0  0  0  0  0  0  0  0  0  0
   41.8220   32.7030   39.6530 C   0  0  0  0  0  0  0  0  0  0  0  0
   41.5190   33.0460   40.8330 O   0  0  0  0  0  0  0  0  0  0  0  0
   43.7550   33.3070   39.6090 H   0  0  0  0  0  0  0  0  0  0  0  0
   36.8970   27.1970   41.6100 C   0  0  0  0  0  0  0  0  0  0  0  0
   37.0620   27.1460   43.0200 C   0  0  0  0  0  0  0  0  0  0  0  0
   37.5130   28.3010   43.6580 C   0  0  0  0  0  0  0  0  0  0  0  0
   37.7670   29.3980   42.9030 N   0  0  0  0  0  0  0  0  0  0  0  0
   37.5990   29.4170   41.5520 C   0  0  0  0  0  0  0  0  0  0  0  0
   37.1660   28.3120   40.9320 N   0  0  0  0  0  0  0  0  0  0  0  0
   36.5520   26.3530   41.0260 H   0  0  0  0  0  0  0  0  0  0  0  0
   36.8260   26.2130   43.5060 H   0  0  0  0  0  0  0  0  0  0  0  0
   37.6390   28.2700   44.7140 H   0  0  0  0  0  0  0  0  0  0  0  0
  2  1  1  0  0  0  0
  2  3  1  0  0  0  0
  3 25  1  0  0  0  0
  4  3  2  0  0  0  0
  4  8  1  0  0  0  0
  5  4  1  0  0  0  0
  6  7  1  0  0  0  0
  6  5  2  0  0  0  0
  7  2  2  0  0  0  0
  9  5  1  0  0  0  0
 10  6  1  0  0  0  0
 11  7  1  0  0  0  0
 11 18  1  0  0  0  0
 12 11  1  0  0  0  0
 13 12  2  0  0  0  0
 13 15  1  0  0  0  0
 14 13  1  0  0  0  0
 15 17  1  0  0  0  0
 16 15  2  0  0  0  0
 17 20  1  0  0  0  0
 17 18  1  0  0  0  0
 18 19  2  0  0  0  0
 21 22  1  0  0  0  0
 22 28  1  0  0  0  0
 22 23  2  0  0  0  0
 23 29  1  0  0  0  0
 24 23  1  0  0  0  0
 25 24  2  0  0  0  0
 26 25  1  0  0  0  0
 26 21  2  0  0  0  0
 27 21  1  0  0  0  0
M  END
>  <minimizedAffinity>
-5.19966745

$$$$

 OpenBabel03242510103D

 29 31  0  0  0  0  0  0  0  0999 V2000
   39.8410   27.3630   39.8810 Br  0  0  0  0  0  0  0  0  0  0  0  0
   38.6850   27.5120   41.4150 C   0  0  0  0  0  0  0  0  0  0  0  0
   37.4240   28.0400   41.2790 C   0  0  0  0  0  0  0  0  0  0  0  0
   36.5740   28.1560   42.3770 C   0  0  0  0  0  0  0  0  0  0  0  0
   37.0290   27.7290   43.5910 C   0  0  0  0  0  0  0  0  0  0  0  0
   38.3020   27.2060   43.6800 C   0  0  0  0  0  0  0  0  0  0  0  0
   39.1540   27.0800   42.6280 C   0  0  0  0  0  0  0  0  0  0  0  0
   35.5980   28.5850   42.1740 H   0  0  0  0  0  0  0  0  0  0  0  0
   36.3360   27.8410   44.4000 H   0  0  0  0  0  0  0  0  0  0  0  0
   38.6040   26.8860   44.6660 H   0  0  0  0  0  0  0  0  0  0  0  0
   40.4560   26.5260   42.8060 N   0  0  0  0  0  0  0  0  0  0  0  0
   41.3880   27.4860   43.0390 C   0  0  0  0  0  3  0  0  0  0  0  0
   42.7140   27.1040   43.2350 C   0  0  0  0  0  0  0  0  0  0  0  0
   43.4900   27.8350   43.4240 H   0  0  0  0  0  0  0  0  0  0  0  0
   42.9780   25.7520   43.1740 C   0  0  0  0  0  0  0  0  0  0  0  0
   44.1830   25.3610   43.3490 O   0  0  0  0  0  0  0  0  0  0  0  0
   42.0470   24.8090   42.9420 N   0  0  0  0  0  0  0  0  0  0  0  0
   40.7780   25.2200   42.7590 C   0  0  0  0  0  0  0  0  0  0  0  0
   39.7710   24.4890   42.5310 O   0  0  0  0  0  0  0  0  0  0  0  0
   42.2100   23.7930   42.8910 H   0  0  0  0  0  0  0  0  0  0  0  0
   35.9300   28.0030   37.9360 C   0  0  0  0  0  0  0  0  0  0  0  0
   36.1650   29.3210   37.4610 C   0  0  0  0  0  0  0  0  0  0  0  0
   36.8370   30.2010   38.3090 C   0  0  0  0  0  0  0  0  0  0  0  0
   37.2260   29.7530   39.5280 N   0  0  0  0  0  0  0  0  0  0  0  0
   36.9870   28.4820   39.9560 C   0  0  0  0  0  0  0  0  0  0  0  0
   36.3420   27.6320   39.1480 N   0  0  0  0  0  0  0  0  0  0  0  0
   35.4170   27.2490   37.3530 H   0  0  0  0  0  0  0  0  0  0  0  0
   35.8060   29.5550   36.4720 H   0  0  0  0  0  0  0  0  0  0  0  0
   37.0170   31.1900   37.9600 H   0  0  0  0  0  0  0  0  0  0  0  0
  1  2  1  0  0  0  0
  2  7  1  0  0  0  0
  3  2  2  0  0  0  0
  3  4  1  0  0  0  0
  4  5  2  0  0  0  0
  5  6  1  0  0  0  0
  5  9  1  0  0  0  0
  6 10  1  0  0  0  0
  7 11  1  0  0  0  0
  7  6  2  0  0  0  0
  8  4  1  0  0  0  0
 11 12  1  0  0  0  0
 12 13  2  0  0  0  0
 13 14  1  0  0  0  0
 15 13  1  0  0  0  0
 15 16  2  0  0  0  0
 17 15  1  0  0  0  0
 18 11  1  0  0  0  0
 18 17  1  0  0  0  0
 19 18  2  0  0  0  0
 20 17  1  0  0  0  0
 21 26  1  0  0  0  0
 22 21  2  0  0  0  0
 22 23  1  0  0  0  0
 23 24  2  0  0  0  0
 24 25  1  0  0  0  0
 25  3  1  0  0  0  0
 26 25  2  0  0  0  0
 27 21  1  0  0  0  0
 28 22  1  0  0  0  0
 29 23  1  0  0  0  0
M  END
>  <minimizedAffinity>
-5.16852617

$$$$

 OpenBabel03242510103D

 29 31  0  0  0  0  0  0  0  0999 V2000
   40.1080   26.9880   40.5610 Br  0  0  0  0  0  0  0  0  0  0  0  0
   38.7450   27.4330   41.8470 C   0  0  0  0  0  0  0  0  0  0  0  0
   38.7470   28.6650   42.4540 C   0  0  0  0  0  0  0  0  0  0  0  0
   37.7700   29.0060   43.3870 C   0  0  0  0  0  0  0  0  0  0  0  0
   36.8100   28.0810   43.6800 C   0  0  0  0  0  0  0  0  0  0  0  0
   36.8480   26.8570   43.0460 C   0  0  0  0  0  0  0  0  0  0  0  0
   37.7870   26.4960   42.1320 C   0  0  0  0  0  0  0  0  0  0  0  0
   37.8520   30.0000   43.8140 H   0  0  0  0  0  0  0  0  0  0  0  0
   36.0840   28.3940   44.4030 H   0  0  0  0  0  0  0  0  0  0  0  0
   36.0620   26.1680   43.3190 H   0  0  0  0  0  0  0  0  0  0  0  0
   37.7530   25.2080   41.5210 N   0  0  0  0  0  0  0  0  0  0  0  0
   36.9250   25.1780   40.4460 C   0  0  0  0  0  3  0  0  0  0  0  0
   36.7820   23.9860   39.7370 C   0  0  0  0  0  0  0  0  0  0  0  0
   36.1330   23.9160   38.8750 H   0  0  0  0  0  0  0  0  0  0  0  0
   37.5100   22.9090   40.1980 C   0  0  0  0  0  0  0  0  0  0  0  0
   37.4060   21.7970   39.5750 O   0  0  0  0  0  0  0  0  0  0  0  0
   38.3280   22.9480   41.2650 N   0  0  0  0  0  0  0  0  0  0  0  0
   38.4380   24.1190   41.9210 C   0  0  0  0  0  0  0  0  0  0  0  0
   39.1520   24.3530   42.9390 O   0  0  0  0  0  0  0  0  0  0  0  0
   38.8850   22.1640   41.6340 H   0  0  0  0  0  0  0  0  0  0  0  0
   41.9470   30.4450   42.4600 C   0  0  0  0  0  0  0  0  0  0  0  0
   41.7780   31.4210   41.4400 C   0  0  0  0  0  0  0  0  0  0  0  0
   40.5560   31.4450   40.7680 C   0  0  0  0  0  0  0  0  0  0  0  0
   39.6070   30.5440   41.1220 N   0  0  0  0  0  0  0  0  0  0  0  0
   39.7990   29.6200   42.1040 C   0  0  0  0  0  0  0  0  0  0  0  0
   40.9680   29.5900   42.7530 N   0  0  0  0  0  0  0  0  0  0  0  0
   42.8580   30.3480   43.0360 H   0  0  0  0  0  0  0  0  0  0  0  0
   42.6080   32.0820   41.2540 H   0  0  0  0  0  0  0  0  0  0  0  0
   40.4220   32.1730   40.0040 H   0  0  0  0  0  0  0  0  0  0  0  0
  1  2  1  0  0  0  0
  2  7  2  0  0  0  0
  2  3  1  0  0  0  0
  3  4  2  0  0  0  0
  4  5  1  0  0  0  0
  4  8  1  0  0  0  0
  5  9  1  0  0  0  0
  6 10  1  0  0  0  0
  6  5  2  0  0  0  0
  7  6  1  0  0  0  0
 11 18  1  0  0  0  0
 11  7  1  0  0  0  0
 12 11  1  0  0  0  0
 13 15  1  0  0  0  0
 13 12  2  0  0  0  0
 14 13  1  0  0  0  0
 15 17  1  0  0  0  0
 16 15  2  0  0  0  0
 17 20  1  0  0  0  0
 17 18  1  0  0  0  0
 18 19  2  0  0  0  0
 21 26  1  0  0  0  0
 21 27  1  0  0  0  0
 22 21  2  0  0  0  0
 23 24  2  0  0  0  0
 23 22  1  0  0  0  0
 24 25  1  0  0  0  0
 25  3  1  0  0  0  0
 25 26  2  0  0  0  0
 28 22  1  0  0  0  0
 29 23  1  0  0  0  0
M  END
>  <minimizedAffinity>
-5.15709066

$$$$

 OpenBabel03242510103D

 29 31  0  0  0  0  0  0  0  0999 V2000
   39.7780   27.9710   40.9030 Br  0  0  0  0  0  0  0  0  0  0  0  0
   38.1370   28.9790   40.8480 C   0  0  0  0  0  0  0  0  0  0  0  0
   36.9280   28.3270   40.8460 C   0  0  0  0  0  0  0  0  0  0  0  0
   35.7310   29.0380   40.8060 C   0  0  0  0  0  0  0  0  0  0  0  0
   35.7940   30.4010   40.7710 C   0  0  0  0  0  0  0  0  0  0  0  0
   37.0290   31.0120   40.7750 C   0  0  0  0  0  0  0  0  0  0  0  0
   38.2140   30.3460   40.8130 C   0  0  0  0  0  0  0  0  0  0  0  0
   34.8260   28.4380   40.8070 H   0  0  0  0  0  0  0  0  0  0  0  0
   34.8450   30.8980   40.7410 H   0  0  0  0  0  0  0  0  0  0  0  0
   37.0130   32.0910   40.7460 H   0  0  0  0  0  0  0  0  0  0  0  0
   39.4500   31.0560   40.8150 N   0  0  0  0  0  0  0  0  0  0  0  0
   39.8580   31.3690   39.5580 C   0  0  0  0  0  3  0  0  0  0  0  0
   41.0540   32.0660   39.3910 C   0  0  0  0  0  0  0  0  0  0  0  0
   41.4170   32.3360   38.4080 H   0  0  0  0  0  0  0  0  0  0  0  0
   41.7410   32.3880   40.5420 C   0  0  0  0  0  0  0  0  0  0  0  0
   42.8420   33.0280   40.4310 O   0  0  0  0  0  0  0  0  0  0  0  0
   41.3290   32.0740   41.7840 N   0  0  0  0  0  0  0  0  0  0  0  0
   40.1690   31.4010   41.9010 C   0  0  0  0  0  0  0  0  0  0  0  0
   39.6200   31.0180   42.9750 O   0  0  0  0  0  0  0  0  0  0  0  0
   41.8170   32.2990   42.6620 H   0  0  0  0  0  0  0  0  0  0  0  0
   36.7600   24.8370   39.7500 C   0  0  0  0  0  0  0  0  0  0  0  0
   36.8990   24.1080   40.9620 C   0  0  0  0  0  0  0  0  0  0  0  0
   37.0490   24.8410   42.1390 C   0  0  0  0  0  0  0  0  0  0  0  0
   37.0530   26.1940   42.0620 N   0  0  0  0  0  0  0  0  0  0  0  0
   36.9180   26.8640   40.8840 C   0  0  0  0  0  0  0  0  0  0  0  0
   36.7740   26.1690   39.7500 N   0  0  0  0  0  0  0  0  0  0  0  0
   36.6390   24.3580   38.7860 H   0  0  0  0  0  0  0  0  0  0  0  0
   36.8790   23.0330   40.8910 H   0  0  0  0  0  0  0  0  0  0  0  0
   37.1530   24.3020   43.0520 H   0  0  0  0  0  0  0  0  0  0  0  0
  2  1  1  0  0  0  0
  3  2  1  0  0  0  0
  3 25  1  0  0  0  0
  4  8  1  0  0  0  0
  4  3  2  0  0  0  0
  5  6  2  0  0  0  0
  5  4  1  0  0  0  0
  6  7  1  0  0  0  0
  7 11  1  0  0  0  0
  7  2  2  0  0  0  0
  9  5  1  0  0  0  0
 10  6  1  0  0  0  0
 11 18  1  0  0  0  0
 12 11  1  0  0  0  0
 13 12  2  0  0  0  0
 13 15  1  0  0  0  0
 14 13  1  0  0  0  0
 15 17  1  0  0  0  0
 16 15  2  0  0  0  0
 17 18  1  0  0  0  0
 17 20  1  0  0  0  0
 18 19  2  0  0  0  0
 21 26  2  0  0  0  0
 21 22  1  0  0  0  0
 22 23  2  0  0  0  0
 23 29  1  0  0  0  0
 24 23  1  0  0  0  0
 25 24  2  0  0  0  0
 26 25  1  0  0  0  0
 27 21  1  0  0  0  0
 28 22  1  0  0  0  0
M  END
>  <minimizedAffinity>
-5.11510181

$$$$
