
 OpenBabel03252508253D

 42 46  0  0  1  0  0  0  0  0999 V2000
   46.5740   32.4170   45.6920 C   0  0  1  0  0  0  0  0  0  0  0  0
   46.9920   32.7250   47.0670 C   0  0  0  0  0  0  0  0  0  0  0  0
   45.6070   32.0570   46.7080 C   0  0  2  0  0  0  0  0  0  0  0  0
   47.3990   31.7330   45.2760 H   0  0  0  0  0  0  0  0  0  0  0  0
   46.9160   33.7290   47.4930 H   0  0  0  0  0  0  0  0  0  0  0  0
   47.5740   32.0340   47.7050 H   0  0  0  0  0  0  0  0  0  0  0  0
   44.8490   32.7790   47.1480 H   0  0  0  0  0  0  0  0  0  0  0  0
   45.3250   30.6930   47.1650 C   0  0  0  0  0  0  0  0  0  0  0  0
   45.2120   30.2520   48.4470 C   0  0  0  0  0  0  0  0  0  0  0  0
   45.0720   28.9300   48.8420 C   0  0  0  0  0  0  0  0  0  0  0  0
   45.0450   27.9710   47.8180 C   0  0  0  0  0  0  0  0  0  0  0  0
   45.1560   28.3980   46.4950 C   0  0  0  0  0  0  0  0  0  0  0  0
   45.0620   27.4240   45.5210 C   0  0  0  0  0  0  0  0  0  0  0  0
   45.0940   27.8070   44.1810 C   0  0  0  0  0  0  0  0  0  0  0  0
   45.2150   29.1370   43.8260 C   0  0  0  0  0  0  0  0  0  0  0  0
   45.3070   30.0570   44.8450 C   0  0  0  0  0  0  0  0  0  0  0  0
   45.2880   29.7280   46.1900 C   0  0  0  0  0  0  0  0  0  0  0  0
   45.2380   31.0350   49.2080 H   0  0  0  0  0  0  0  0  0  0  0  0
   44.9860   28.6370   49.8590 H   0  0  0  0  0  0  0  0  0  0  0  0
   44.9400   26.9370   48.0890 H   0  0  0  0  0  0  0  0  0  0  0  0
   44.9640   26.3770   45.8220 H   0  0  0  0  0  0  0  0  0  0  0  0
   45.0140   26.9470   43.4970 H   0  0  0  0  0  0  0  0  0  0  0  0
   45.2180   29.2220   42.7700 H   0  0  0  0  0  0  0  0  0  0  0  0
   45.3050   30.9820   44.3410 H   0  0  0  0  0  0  0  0  0  0  0  0
   45.0310   35.4230   44.2030 C   0  0  0  0  0  0  0  0  0  0  0  0
   45.6260   35.4530   42.8930 C   0  0  0  0  0  0  0  0  0  0  0  0
   46.5670   34.4260   42.5650 C   0  0  0  0  0  0  0  0  0  0  0  0
   46.8570   33.4800   43.4840 N   0  0  0  0  0  0  0  0  0  0  0  0
   46.2500   33.5070   44.7230 C   0  0  0  0  0  0  0  0  0  0  0  0
   45.3710   34.4440   45.0660 N   0  0  0  0  0  0  0  0  0  0  0  0
   44.3350   36.2290   44.3690 H   0  0  0  0  0  0  0  0  0  0  0  0
   45.3960   36.2050   42.1610 H   0  0  0  0  0  0  0  0  0  0  0  0
   47.1630   34.4440   41.2750 N   0  0  0  0  0  0  0  0  0  0  0  0
   46.5260   33.7060   40.3450 C   0  0  0  0  0  3  0  0  0  0  0  0
   47.0120   33.6440   39.0530 C   0  0  0  0  0  0  0  0  0  0  0  0
   46.5180   33.0560   38.2840 H   0  0  0  0  0  0  0  0  0  0  0  0
   48.1580   34.3430   38.7080 C   0  0  0  0  0  0  0  0  0  0  0  0
   48.6110   34.2970   37.5330 O   0  0  0  0  0  0  0  0  0  0  0  0
   48.7520   35.0650   39.6790 N   0  0  0  0  0  0  0  0  0  0  0  0
   48.2750   35.1230   40.9410 C   0  0  0  0  0  0  0  0  0  0  0  0
   48.8210   35.7940   41.8570 O   0  0  0  0  0  0  0  0  0  0  0  0
   49.6040   35.5890   39.4350 H   0  0  0  0  0  0  0  0  0  0  0  0
  1  4  1  6  0  0  0
  1  3  1  0  0  0  0
  1  2  1  0  0  0  0
  2  5  1  0  0  0  0
  2  6  1  0  0  0  0
  3  2  1  0  0  0  0
  3  7  1  1  0  0  0
  3  8  1  0  0  0  0
  8  9  1  0  0  0  0
  9 10  2  0  0  0  0
  9 18  1  0  0  0  0
 10 19  1  0  0  0  0
 11 20  1  0  0  0  0
 11 10  1  0  0  0  0
 12 11  2  0  0  0  0
 13 21  1  0  0  0  0
 13 12  1  0  0  0  0
 14 13  2  0  0  0  0
 15 14  1  0  0  0  0
 15 16  2  0  0  0  0
 16 17  1  0  0  0  0
 17 12  1  0  0  0  0
 17  8  2  0  0  0  0
 22 14  1  0  0  0  0
 23 15  1  0  0  0  0
 24 16  1  0  0  0  0
 25 31  1  0  0  0  0
 25 30  1  0  0  0  0
 26 25  2  0  0  0  0
 27 26  1  0  0  0  0
 27 28  2  0  0  0  0
 28 29  1  0  0  0  0
 29 30  2  0  0  0  0
 29  1  1  0  0  0  0
 32 26  1  0  0  0  0
 33 27  1  0  0  0  0
 34 33  1  0  0  0  0
 35 34  2  0  0  0  0
 36 35  1  0  0  0  0
 37 35  1  0  0  0  0
 37 39  1  0  0  0  0
 38 37  2  0  0  0  0
 39 40  1  0  0  0  0
 40 33  1  0  0  0  0
 40 41  2  0  0  0  0
 42 39  1  0  0  0  0
M  END
>  <minimizedAffinity>
-6.34766006

>  <minimizedRMSD>
0.922214031

$$$$
