
 OpenBabel03252508453D

 46 48  0  0  0  0  0  0  0  0999 V2000
   42.2140   31.9140   42.5090 N   0  0  0  0  0  0  0  0  0  0  0  0
   42.4730   30.9450   42.8010 H   0  0  0  0  0  0  0  0  0  0  0  0
   43.0970   32.5340   41.5760 C   0  0  0  0  0  0  0  0  0  0  0  0
   43.8130   31.7780   41.1410 H   0  0  0  0  0  0  0  0  0  0  0  0
   42.4950   32.9130   40.7310 H   0  0  0  0  0  0  0  0  0  0  0  0
   43.6800   34.9620   41.8030 C   0  0  0  0  0  0  0  0  0  0  0  0
   43.9300   33.6330   42.1390 C   0  0  0  0  0  0  0  0  0  0  0  0
   44.9680   33.3590   43.0050 C   0  0  0  0  0  0  0  0  0  0  0  0
   45.7210   34.3860   43.5100 C   0  0  0  0  0  0  0  0  0  0  0  0
   45.4970   35.6970   43.1980 C   0  0  0  0  0  0  0  0  0  0  0  0
   44.4490   35.9210   42.3280 C   0  0  0  0  0  0  0  0  0  0  0  0
   45.1970   32.3410   43.2910 H   0  0  0  0  0  0  0  0  0  0  0  0
   46.5410   34.1530   44.1970 H   0  0  0  0  0  0  0  0  0  0  0  0
   46.0610   36.5380   43.5690 H   0  0  0  0  0  0  0  0  0  0  0  0
   44.1920   36.9380   42.0200 H   0  0  0  0  0  0  0  0  0  0  0  0
   40.3400   35.8490   40.2850 C   0  0  0  0  0  0  0  0  0  0  0  0
   41.3320   35.6650   41.2560 C   0  0  0  0  0  0  0  0  0  0  0  0
   42.5720   35.1920   40.8850 C   0  0  0  0  0  0  0  0  0  0  0  0
   42.7510   34.9290   39.5580 N   0  0  0  0  0  0  0  0  0  0  0  0
   41.7910   35.1090   38.6260 C   0  0  0  0  0  0  0  0  0  0  0  0
   40.5870   35.5710   39.0050 N   0  0  0  0  0  0  0  0  0  0  0  0
   39.3670   36.2220   40.5810 H   0  0  0  0  0  0  0  0  0  0  0  0
   41.1730   35.8770   42.2850 H   0  0  0  0  0  0  0  0  0  0  0  0
   42.1280   34.8410   37.6200 H   0  0  0  0  0  0  0  0  0  0  0  0
   40.5800   31.9340   41.9830 S   0  0  0  0  0  0  0  0  0  0  0  0
   39.8250   33.0830   42.6100 O   0  0  0  0  0  0  0  0  0  0  0  0
   38.9720   33.0240   43.1040 H   0  0  0  0  0  0  0  0  0  0  0  0
   39.9070   30.6420   42.2890 O   0  0  0  0  0  0  0  0  0  0  0  0
   40.3520   29.7480   42.1490 H   0  0  0  0  0  0  0  0  0  0  0  0
   40.5860   32.1550   40.3160 O   0  0  0  0  0  0  0  0  0  0  0  0
   39.2800   31.9970   39.8620 C   0  0  0  0  0  0  0  0  0  0  0  0
   39.0260   32.9290   39.2890 H   0  0  0  0  0  0  0  0  0  0  0  0
   38.5330   31.8390   40.6330 H   0  0  0  0  0  0  0  0  0  0  0  0
   39.2560   30.8640   38.8170 C   0  0  0  0  0  0  0  0  0  0  0  0
   38.6910   31.2200   37.9330 H   0  0  0  0  0  0  0  0  0  0  0  0
   40.2790   30.6440   38.4900 H   0  0  0  0  0  0  0  0  0  0  0  0
   38.6630   29.6910   39.4220 N   0  0  0  0  0  0  0  0  0  0  0  0
   37.3170   29.6080   39.5410 C   0  0  0  0  0  3  0  0  0  0  0  0
   36.8030   28.4600   40.1310 C   0  0  0  0  0  0  0  0  0  0  0  0
   35.7160   28.3380   40.2530 H   0  0  0  0  0  0  0  0  0  0  0  0
   37.6710   27.4770   40.5610 C   0  0  0  0  0  0  0  0  0  0  0  0
   37.2460   26.4080   41.1080 O   0  0  0  0  0  0  0  0  0  0  0  0
   39.0110   27.6130   40.4170 N   0  0  0  0  0  0  0  0  0  0  0  0
   39.5010   28.7260   39.8460 C   0  0  0  0  0  0  0  0  0  0  0  0
   40.7640   28.8570   39.7100 O   0  0  0  0  0  0  0  0  0  0  0  0
   39.6980   26.8930   40.7300 H   0  0  0  0  0  0  0  0  0  0  0  0
  1  2  1  0  0  0  0
  3  7  1  0  0  0  0
  3  1  1  0  0  0  0
  4  3  1  0  0  0  0
  5  3  1  0  0  0  0
  6  7  2  0  0  0  0
  6 11  1  0  0  0  0
  7  8  1  0  0  0  0
  8 12  1  0  0  0  0
  8  9  2  0  0  0  0
  9 13  1  0  0  0  0
 10  9  1  0  0  0  0
 10 14  1  0  0  0  0
 11 10  2  0  0  0  0
 15 11  1  0  0  0  0
 16 22  1  0  0  0  0
 16 17  1  0  0  0  0
 17 23  1  0  0  0  0
 18 17  2  0  0  0  0
 18  6  1  0  0  0  0
 19 18  1  0  0  0  0
 20 21  1  0  0  0  0
 20 19  2  0  0  0  0
 21 16  2  0  0  0  0
 24 20  1  0  0  0  0
 25 28  1  0  0  0  0
 25  1  1  0  0  0  0
 25 26  1  0  0  0  0
 26 27  1  0  0  0  0
 29 28  1  0  0  0  0
 30 25  1  0  0  0  0
 31 30  1  0  0  0  0
 31 33  1  0  0  0  0
 32 31  1  0  0  0  0
 34 37  1  0  0  0  0
 34 31  1  0  0  0  0
 35 34  1  0  0  0  0
 36 34  1  0  0  0  0
 37 38  1  0  0  0  0
 37 44  1  0  0  0  0
 38 39  2  0  0  0  0
 39 40  1  0  0  0  0
 39 41  1  0  0  0  0
 41 42  2  0  0  0  0
 43 41  1  0  0  0  0
 43 46  1  0  0  0  0
 44 43  1  0  0  0  0
 45 44  2  0  0  0  0
M  END
>  <minimizedAffinity>
-5.36614752

>  <minimizedRMSD>
2.66624331

$$$$
