
 OpenBabel03252507073D

 25 26  0  0  0  0  0  0  0  0999 V2000
   44.5940   35.6180   44.6650 C   0  0  0  0  0  0  0  0  0  0  0  0
   45.3340   35.9150   43.4880 C   0  0  0  0  0  0  0  0  0  0  0  0
   46.2210   34.9500   43.0270 C   0  0  0  0  0  0  0  0  0  0  0  0
   46.3390   33.7730   43.7200 N   0  0  0  0  0  0  0  0  0  0  0  0
   45.6140   33.5320   44.8380 C   0  0  0  0  0  0  0  0  0  0  0  0
   44.7460   34.4490   45.3070 N   0  0  0  0  0  0  0  0  0  0  0  0
   43.8980   36.3420   45.0490 H   0  0  0  0  0  0  0  0  0  0  0  0
   45.1690   36.8800   43.0100 H   0  0  0  0  0  0  0  0  0  0  0  0
   45.9200   32.2460   45.3650 N   0  0  0  0  0  0  0  0  0  0  0  0
   45.2680   31.1940   44.8310 C   0  0  0  0  0  3  0  0  0  0  0  0
   45.5590   29.9240   45.3400 C   0  0  0  0  0  0  0  0  0  0  0  0
   45.0470   29.0750   44.9240 H   0  0  0  0  0  0  0  0  0  0  0  0
   46.4920   29.8300   46.3520 C   0  0  0  0  0  0  0  0  0  0  0  0
   46.7610   28.6860   46.8160 O   0  0  0  0  0  0  0  0  0  0  0  0
   47.1210   30.9090   46.8560 N   0  0  0  0  0  0  0  0  0  0  0  0
   46.8260   32.1280   46.3530 C   0  0  0  0  0  0  0  0  0  0  0  0
   47.4360   33.1080   46.8520 O   0  0  0  0  0  0  0  0  0  0  0  0
   47.8230   30.7710   47.6280 H   0  0  0  0  0  0  0  0  0  0  0  0
   46.9460   35.2340   41.8800 O   0  0  0  0  0  0  0  0  0  0  0  0
   48.8280   33.5930   40.9850 O   0  0  0  0  0  0  0  0  0  0  0  0
   48.6200   34.8570   41.8270 P   0  0  0  0  0  0  0  0  0  0  0  0
   49.4390   36.1640   41.1980 O   0  0  0  0  0  0  0  0  0  0  0  0
   49.4030   36.0860   40.2100 H   0  0  0  0  0  0  0  0  0  0  0  0
   49.1020   34.4880   43.4100 O   0  0  0  0  0  0  0  0  0  0  0  0
   49.2180   35.3590   43.8730 H   0  0  0  0  0  0  0  0  0  0  0  0
  1  7  1  0  0  0  0
  1  6  1  0  0  0  0
  2  1  2  0  0  0  0
  3  2  1  0  0  0  0
  3  4  2  0  0  0  0
  4  5  1  0  0  0  0
  5  6  2  0  0  0  0
  5  9  1  0  0  0  0
  8  2  1  0  0  0  0
  9 16  1  0  0  0  0
 10 11  2  0  0  0  0
 10  9  1  0  0  0  0
 11 13  1  0  0  0  0
 12 11  1  0  0  0  0
 13 14  2  0  0  0  0
 13 15  1  0  0  0  0
 15 18  1  0  0  0  0
 16 17  2  0  0  0  0
 16 15  1  0  0  0  0
 19  3  1  0  0  0  0
 20 21  2  0  0  0  0
 21 19  1  0  0  0  0
 21 24  1  0  0  0  0
 22 21  1  0  0  0  0
 23 22  1  0  0  0  0
 24 25  1  0  0  0  0
M  END
>  <minimizedAffinity>
-4.51840544

>  <minimizedRMSD>
0.839976728

$$$$
