
 OpenBabel03242518393D

 40 43  0  0  1  0  0  0  0  0999 V2000
   49.2570   32.8270   41.2010 O   0  0  0  0  0  0  0  0  0  0  0  0
   48.7420   33.1640   39.9230 C   0  0  0  0  0  0  0  0  0  0  0  0
   48.2340   34.3650   39.4170 C   0  0  0  0  0  0  0  0  0  0  0  0
   47.8570   34.1670   38.1010 C   0  0  0  0  0  0  0  0  0  0  0  0
   48.1530   32.8620   37.8680 C   0  0  0  0  0  0  0  0  0  0  0  0
   48.6690   32.2770   38.9330 O   0  0  0  0  0  0  0  0  0  0  0  0
   48.1910   35.2410   40.0440 H   0  0  0  0  0  0  0  0  0  0  0  0
   47.4310   34.9320   37.4660 H   0  0  0  0  0  0  0  0  0  0  0  0
   47.9260   32.1630   36.5840 C   0  0  2  0  0  0  0  0  0  0  0  0
   49.0110   31.4320   35.9300 C   0  0  0  0  0  0  0  0  0  0  0  0
   48.7100   32.7870   35.4000 C   0  0  1  0  0  0  0  0  0  0  0  0
   46.8640   31.9470   36.3960 H   0  0  0  0  0  0  0  0  0  0  0  0
   49.9790   31.2310   36.4440 H   0  0  0  0  0  0  0  0  0  0  0  0
   48.6750   30.5500   35.3120 H   0  0  0  0  0  0  0  0  0  0  0  0
   49.3360   33.6470   35.6190 H   0  0  0  0  0  0  0  0  0  0  0  0
   48.5840   32.9760   32.9270 C   0  0  0  0  0  0  0  0  0  0  0  0
   49.8330   33.1410   32.8160 O   0  0  0  0  0  0  0  0  0  0  0  0
   47.9200   32.8300   34.1710 N   0  0  0  0  0  0  0  0  0  0  0  0
   48.0700   32.9580   31.9750 H   0  0  0  0  0  0  0  0  0  0  0  0
   46.8850   32.7540   34.2180 H   0  0  0  0  0  0  0  0  0  0  0  0
   49.1140   33.7710   42.2600 C   0  0  0  0  0  0  0  0  0  0  0  0
   50.0570   34.5710   42.4310 O   0  0  0  0  0  0  0  0  0  0  0  0
   47.8970   33.6850   43.0000 C   0  0  0  0  0  0  0  0  0  0  0  0
   47.0380   34.7440   42.8510 C   0  0  0  0  0  0  0  0  0  0  0  0
   45.8350   34.7350   43.5360 C   0  0  0  0  0  0  0  0  0  0  0  0
   45.5560   33.6730   44.3300 N   0  0  0  0  0  0  0  0  0  0  0  0
   46.4130   32.6520   44.4580 C   0  0  0  0  0  0  0  0  0  0  0  0
   47.5740   32.6870   43.7810 N   0  0  0  0  0  0  0  0  0  0  0  0
   47.1860   35.6230   42.2410 H   0  0  0  0  0  0  0  0  0  0  0  0
   45.1170   35.5450   43.4570 H   0  0  0  0  0  0  0  0  0  0  0  0
   46.0650   31.5620   45.3080 N   0  0  0  0  0  0  0  0  0  0  0  0
   45.4370   30.4250   44.9430 C   0  0  0  0  0  3  0  0  0  0  0  0
   45.1600   29.4440   45.8730 C   0  0  0  0  0  0  0  0  0  0  0  0
   44.6590   28.5580   45.5360 H   0  0  0  0  0  0  0  0  0  0  0  0
   45.5560   29.6950   47.1740 C   0  0  0  0  0  0  0  0  0  0  0  0
   45.3060   28.7980   48.0430 O   0  0  0  0  0  0  0  0  0  0  0  0
   46.1730   30.8130   47.5340 N   0  0  0  0  0  0  0  0  0  0  0  0
   46.4350   31.7650   46.5910 C   0  0  0  0  0  0  0  0  0  0  0  0
   47.0240   32.7870   47.0370 O   0  0  0  0  0  0  0  0  0  0  0  0
   46.4420   30.9230   48.5470 H   0  0  0  0  0  0  0  0  0  0  0  0
  1 21  1  0  0  0  0
  2  1  1  0  0  0  0
  3  2  2  0  0  0  0
  3  7  1  0  0  0  0
  4  3  1  0  0  0  0
  5  4  2  0  0  0  0
  5  6  1  0  0  0  0
  6  2  1  0  0  0  0
  8  4  1  0  0  0  0
  9 12  1  6  0  0  0
  9  5  1  0  0  0  0
 10 13  1  0  0  0  0
 10  9  1  0  0  0  0
 11 15  1  1  0  0  0
 11 10  1  0  0  0  0
 11  9  1  0  0  0  0
 14 10  1  0  0  0  0
 16 18  1  0  0  0  0
 17 16  2  0  0  0  0
 18 20  1  0  0  0  0
 18 11  1  0  0  0  0
 19 16  1  0  0  0  0
 21 22  2  0  0  0  0
 21 23  1  0  0  0  0
 23 28  1  0  0  0  0
 24 23  2  0  0  0  0
 24 25  1  0  0  0  0
 25 26  2  0  0  0  0
 26 27  1  0  0  0  0
 27 31  1  0  0  0  0
 28 27  2  0  0  0  0
 29 24  1  0  0  0  0
 30 25  1  0  0  0  0
 31 38  1  0  0  0  0
 32 31  1  0  0  0  0
 32 33  2  0  0  0  0
 33 35  1  0  0  0  0
 34 33  1  0  0  0  0
 35 37  1  0  0  0  0
 35 36  2  0  0  0  0
 37 40  1  0  0  0  0
 38 39  2  0  0  0  0
 38 37  1  0  0  0  0
M  END
>  <minimizedAffinity>
-5.88222456

>  <minimizedRMSD>
1.88307369

$$$$
