
     RDKit          3D

 43 47  0  0  0  0  0  0  0  0999 V2000
   46.3808   32.6675   45.8677 C   0  0  1  0  0  0  0  0  0  0  0  0
   46.9666   32.8348   47.2053 C   0  0  0  0  0  0  0  0  0  0  0  0
   45.5410   32.2056   46.9528 C   0  0  2  0  0  0  0  0  0  0  0  0
   45.3001   30.8028   47.3022 C   0  0  0  0  0  0  0  0  0  0  0  0
   45.1754   30.2647   48.5449 C   0  0  0  0  0  0  0  0  0  0  0  0
   45.0758   28.9125   48.8394 C   0  0  0  0  0  0  0  0  0  0  0  0
   45.1089   28.0316   47.7480 C   0  0  0  0  0  0  0  0  0  0  0  0
   45.2330   28.5593   46.4632 C   0  0  0  0  0  0  0  0  0  0  0  0
   45.1977   27.6573   45.4181 C   0  0  0  0  0  0  0  0  0  0  0  0
   45.2460   28.1385   44.1114 C   0  0  0  0  0  0  0  0  0  0  0  0
   45.3254   29.4946   43.8566 C   0  0  0  0  0  0  0  0  0  0  0  0
   45.3592   30.3401   44.9417 C   0  0  0  0  0  0  0  0  0  0  0  0
   45.3224   29.9115   46.2590 C   0  0  0  0  0  0  0  0  0  0  0  0
   44.6015   35.7318   44.8320 C   0  0  0  0  0  0  0  0  0  0  0  0
   45.1440   35.9698   43.5202 C   0  0  0  0  0  0  0  0  0  0  0  0
   46.1327   35.0580   43.0333 C   0  0  0  0  0  0  0  0  0  0  0  0
   46.5150   34.0221   43.8111 N   0  0  0  0  0  0  0  0  0  0  0  0
   45.9552   33.8491   45.0605 C   0  0  0  0  0  0  0  0  0  0  0  0
   45.0342   34.6753   45.5486 N   0  0  0  0  0  0  0  0  0  0  0  0
   47.1406   32.0292   45.2883 H   0  0  0  0  0  0  0  0  0  0  0  0
   46.9562   33.7905   47.7355 H   0  0  0  0  0  0  0  0  0  0  0  0
   47.6140   32.0829   47.6946 H   0  0  0  0  0  0  0  0  0  0  0  0
   44.8513   32.8798   47.5533 H   0  0  0  0  0  0  0  0  0  0  0  0
   45.1551   30.9898   49.3625 H   0  0  0  0  0  0  0  0  0  0  0  0
   44.9790   28.5431   49.8299 H   0  0  0  0  0  0  0  0  0  0  0  0
   45.0373   26.9774   47.9398 H   0  0  0  0  0  0  0  0  0  0  0  0
   45.1325   26.5877   45.6395 H   0  0  0  0  0  0  0  0  0  0  0  0
   45.2142   27.3290   43.3642 H   0  0  0  0  0  0  0  0  0  0  0  0
   45.3481   29.6581   42.8100 H   0  0  0  0  0  0  0  0  0  0  0  0
   45.3332   31.2989   44.5070 H   0  0  0  0  0  0  0  0  0  0  0  0
   43.8649   36.4630   45.1219 H   0  0  0  0  0  0  0  0  0  0  0  0
   44.8407   36.7933   42.8998 H   0  0  0  0  0  0  0  0  0  0  0  0
   46.6779   35.2806   41.7394 N   0  0  0  0  0  0  0  0  0  0  0  0
   46.1476   34.5210   40.7606 C   0  0  0  0  0  0  0  0  0  0  0  0
   46.5968   34.6473   39.4601 C   0  0  0  0  0  0  0  0  0  0  0  0
   46.1864   34.0473   38.6526 H   0  0  0  0  0  0  0  0  0  0  0  0
   47.5974   35.5588   39.1568 C   0  0  0  0  0  0  0  0  0  0  0  0
   48.0159   35.6840   37.9757 O   0  0  0  0  0  0  0  0  0  0  0  0
   48.0891   36.2902   40.1755 N   0  0  0  0  0  0  0  0  0  0  0  0
   47.6485   36.1647   41.4451 C   0  0  0  0  0  0  0  0  0  0  0  0
   48.1010   36.8435   42.4056 O   0  0  0  0  0  0  0  0  0  0  0  0
   45.3557   33.7809   40.9238 H   0  0  0  0  0  0  0  0  0  0  0  0
   48.8331   36.9710   39.9630 H   0  0  0  0  0  0  0  0  0  0  0  0
  1  3  1  0
  1  2  1  0
  3  2  1  0
  3  4  1  0
  4  5  2  0
  5  6  1  0
  7  6  2  0
  8  7  1  0
  9  8  2  0
 10  9  1  0
 11 10  2  0
 11 12  1  0
 12 13  2  0
 13  8  1  0
 13  4  1  0
 14 19  2  0
 15 14  1  0
 16 15  2  0
 16 17  1  0
 17 18  2  0
 18 19  1  0
 18  1  1  0
  1 20  1  6
  2 21  1  0
  2 22  1  0
  3 23  1  1
  5 24  1  0
  6 25  1  0
  7 26  1  0
  9 27  1  0
 10 28  1  0
 11 29  1  0
 12 30  1  0
 14 31  1  0
 15 32  1  0
 33 34  1  0
 34 35  2  0
 35 36  1  0
 35 37  1  0
 37 38  2  0
 37 39  1  0
 39 40  1  0
 40 41  2  0
 40 33  1  0
 34 42  1  0
 39 43  1  0
 16 33  1  0
M  ISO  8  20  13  21  13  22  13  23  13  24  14  25  14  26  14  27  14
M  ISO  6  28  14  29  14  30  14  31  14  32  14  36  16
M  END
>  <DihAtoms>  (1) 
14,15,32,33

>  <DihDeg>  (1) 
-39.67941984760907

$$$$
