
 OpenBabel03252508483D

 46 48  0  0  0  0  0  0  0  0999 V2000
   37.0450   29.6180   42.1770 N   0  0  0  0  0  0  0  0  0  0  0  0
   36.8030   29.6320   43.1930 H   0  0  0  0  0  0  0  0  0  0  0  0
   36.3630   30.5720   41.3660 C   0  0  0  0  0  0  0  0  0  0  0  0
   35.3890   30.8800   41.8450 H   0  0  0  0  0  0  0  0  0  0  0  0
   36.9840   31.4840   41.3100 H   0  0  0  0  0  0  0  0  0  0  0  0
   36.6150   30.6900   38.8740 C   0  0  0  0  0  0  0  0  0  0  0  0
   36.0300   30.1000   39.9920 C   0  0  0  0  0  0  0  0  0  0  0  0
   35.1350   29.0690   39.7980 C   0  0  0  0  0  0  0  0  0  0  0  0
   34.8430   28.6520   38.5260 C   0  0  0  0  0  0  0  0  0  0  0  0
   35.4030   29.2120   37.4130 C   0  0  0  0  0  0  0  0  0  0  0  0
   36.2910   30.2400   37.6570 C   0  0  0  0  0  0  0  0  0  0  0  0
   34.6570   28.5830   40.6380 H   0  0  0  0  0  0  0  0  0  0  0  0
   34.1320   27.8320   38.3880 H   0  0  0  0  0  0  0  0  0  0  0  0
   35.2060   28.9190   36.3930 H   0  0  0  0  0  0  0  0  0  0  0  0
   36.7900   30.7500   36.8290 H   0  0  0  0  0  0  0  0  0  0  0  0
   38.1890   33.9820   39.8380 C   0  0  0  0  0  0  0  0  0  0  0  0
   37.2000   33.0150   39.6210 C   0  0  0  0  0  0  0  0  0  0  0  0
   37.5530   31.7740   39.1380 C   0  0  0  0  0  0  0  0  0  0  0  0
   38.8800   31.5680   38.8980 N   0  0  0  0  0  0  0  0  0  0  0  0
   39.8290   32.5050   39.1100 C   0  0  0  0  0  0  0  0  0  0  0  0
   39.4680   33.7100   39.5810 N   0  0  0  0  0  0  0  0  0  0  0  0
   37.9080   34.9570   40.2180 H   0  0  0  0  0  0  0  0  0  0  0  0
   36.1710   33.1940   39.8150 H   0  0  0  0  0  0  0  0  0  0  0  0
   40.8330   32.1490   38.8560 H   0  0  0  0  0  0  0  0  0  0  0  0
   38.7510   29.6990   41.9970 S   0  0  0  0  0  0  0  0  0  0  0  0
   39.2360   31.1270   42.0930 O   0  0  0  0  0  0  0  0  0  0  0  0
   39.8090   31.5960   41.4390 H   0  0  0  0  0  0  0  0  0  0  0  0
   39.1800   29.0900   40.7080 O   0  0  0  0  0  0  0  0  0  0  0  0
   38.7900   28.2300   40.3550 H   0  0  0  0  0  0  0  0  0  0  0  0
   39.4360   28.8250   43.2590 O   0  0  0  0  0  0  0  0  0  0  0  0
   39.7650   27.5630   42.7730 C   0  0  0  0  0  0  0  0  0  0  0  0
   40.8200   27.3600   43.0990 H   0  0  0  0  0  0  0  0  0  0  0  0
   39.6970   27.4460   41.6960 H   0  0  0  0  0  0  0  0  0  0  0  0
   38.9080   26.5140   43.5090 C   0  0  0  0  0  0  0  0  0  0  0  0
   39.5500   26.0010   44.2510 H   0  0  0  0  0  0  0  0  0  0  0  0
   38.1020   27.0160   44.0570 H   0  0  0  0  0  0  0  0  0  0  0  0
   38.3530   25.6040   42.5290 N   0  0  0  0  0  0  0  0  0  0  0  0
   37.3470   26.0180   41.7250 C   0  0  0  0  0  3  0  0  0  0  0  0
   36.8530   25.1040   40.8040 C   0  0  0  0  0  0  0  0  0  0  0  0
   36.0340   25.3870   40.1250 H   0  0  0  0  0  0  0  0  0  0  0  0
   37.4000   23.8380   40.7530 C   0  0  0  0  0  0  0  0  0  0  0  0
   36.9800   22.9650   39.9250 O   0  0  0  0  0  0  0  0  0  0  0  0
   38.4080   23.4750   41.5830 N   0  0  0  0  0  0  0  0  0  0  0  0
   38.8800   24.3650   42.4700 C   0  0  0  0  0  0  0  0  0  0  0  0
   39.8300   24.0260   43.2530 O   0  0  0  0  0  0  0  0  0  0  0  0
   38.8470   22.5290   41.5730 H   0  0  0  0  0  0  0  0  0  0  0  0
  1  2  1  0  0  0  0
  3  4  1  0  0  0  0
  3  1  1  0  0  0  0
  5  3  1  0  0  0  0
  6 18  1  0  0  0  0
  6  7  1  0  0  0  0
  7  3  1  0  0  0  0
  8  7  2  0  0  0  0
  8 12  1  0  0  0  0
  9  8  1  0  0  0  0
 10 11  1  0  0  0  0
 10  9  2  0  0  0  0
 11  6  2  0  0  0  0
 13  9  1  0  0  0  0
 14 10  1  0  0  0  0
 15 11  1  0  0  0  0
 16 22  1  0  0  0  0
 17 23  1  0  0  0  0
 17 16  1  0  0  0  0
 18 17  2  0  0  0  0
 19 20  2  0  0  0  0
 19 18  1  0  0  0  0
 20 21  1  0  0  0  0
 21 16  2  0  0  0  0
 24 20  1  0  0  0  0
 25 26  1  0  0  0  0
 25  1  1  0  0  0  0
 25 30  1  0  0  0  0
 27 26  1  0  0  0  0
 28 25  1  0  0  0  0
 29 28  1  0  0  0  0
 31 32  1  0  0  0  0
 31 30  1  0  0  0  0
 31 34  1  0  0  0  0
 33 31  1  0  0  0  0
 34 36  1  0  0  0  0
 34 35  1  0  0  0  0
 37 34  1  0  0  0  0
 38 37  1  0  0  0  0
 39 38  2  0  0  0  0
 40 39  1  0  0  0  0
 41 39  1  0  0  0  0
 41 43  1  0  0  0  0
 42 41  2  0  0  0  0
 43 44  1  0  0  0  0
 44 37  1  0  0  0  0
 44 45  2  0  0  0  0
 46 43  1  0  0  0  0
M  END
>  <minimizedAffinity>
-5.89995813

$$$$

 OpenBabel03252508483D

 46 48  0  0  0  0  0  0  0  0999 V2000
   36.9220   29.3900   42.9430 N   0  0  0  0  0  0  0  0  0  0  0  0
   36.0680   28.8010   43.0690 H   0  0  0  0  0  0  0  0  0  0  0  0
   38.1670   28.7230   43.1350 C   0  0  0  0  0  0  0  0  0  0  0  0
   38.9720   29.1870   42.4940 H   0  0  0  0  0  0  0  0  0  0  0  0
   38.4810   28.8720   44.1830 H   0  0  0  0  0  0  0  0  0  0  0  0
   39.3430   26.5710   42.6120 C   0  0  0  0  0  0  0  0  0  0  0  0
   38.1540   27.2680   42.8110 C   0  0  0  0  0  0  0  0  0  0  0  0
   36.9630   26.5810   42.7020 C   0  0  0  0  0  0  0  0  0  0  0  0
   36.9750   25.2440   42.4030 C   0  0  0  0  0  0  0  0  0  0  0  0
   38.1260   24.5360   42.2030 C   0  0  0  0  0  0  0  0  0  0  0  0
   39.2910   25.2670   42.3230 C   0  0  0  0  0  0  0  0  0  0  0  0
   36.0170   27.0840   42.8480 H   0  0  0  0  0  0  0  0  0  0  0  0
   36.0220   24.7120   42.3200 H   0  0  0  0  0  0  0  0  0  0  0  0
   38.1870   23.4850   41.9660 H   0  0  0  0  0  0  0  0  0  0  0  0
   40.2640   24.7870   42.1810 H   0  0  0  0  0  0  0  0  0  0  0  0
   42.7110   27.9000   43.6800 C   0  0  0  0  0  0  0  0  0  0  0  0
   41.5730   27.0840   43.6470 C   0  0  0  0  0  0  0  0  0  0  0  0
   40.5700   27.3470   42.7400 C   0  0  0  0  0  0  0  0  0  0  0  0
   40.7620   28.4160   41.9130 N   0  0  0  0  0  0  0  0  0  0  0  0
   41.8620   29.1980   41.9490 C   0  0  0  0  0  0  0  0  0  0  0  0
   42.8300   28.9270   42.8400 N   0  0  0  0  0  0  0  0  0  0  0  0
   43.4970   27.6890   44.3940 H   0  0  0  0  0  0  0  0  0  0  0  0
   41.4420   26.2560   44.3000 H   0  0  0  0  0  0  0  0  0  0  0  0
   41.8280   30.0030   41.2070 H   0  0  0  0  0  0  0  0  0  0  0  0
   36.8360   30.2010   41.4320 S   0  0  0  0  0  0  0  0  0  0  0  0
   35.5140   30.9190   41.2810 O   0  0  0  0  0  0  0  0  0  0  0  0
   34.8870   30.8370   40.5220 H   0  0  0  0  0  0  0  0  0  0  0  0
   37.0430   29.2520   40.3050 O   0  0  0  0  0  0  0  0  0  0  0  0
   37.7490   28.5310   40.3220 H   0  0  0  0  0  0  0  0  0  0  0  0
   38.0640   31.3490   41.4020 O   0  0  0  0  0  0  0  0  0  0  0  0
   38.8170   31.1360   40.2510 C   0  0  0  0  0  0  0  0  0  0  0  0
   38.2290   30.4230   39.6120 H   0  0  0  0  0  0  0  0  0  0  0  0
   39.8110   30.7310   40.4120 H   0  0  0  0  0  0  0  0  0  0  0  0
   38.8680   32.4490   39.4460 C   0  0  0  0  0  0  0  0  0  0  0  0
   38.4390   32.2570   38.4430 H   0  0  0  0  0  0  0  0  0  0  0  0
   38.2420   33.2040   39.9350 H   0  0  0  0  0  0  0  0  0  0  0  0
   40.2420   32.9000   39.3870 N   0  0  0  0  0  0  0  0  0  0  0  0
   40.8030   33.4790   40.4740 C   0  0  0  0  0  3  0  0  0  0  0  0
   42.1240   33.8940   40.3620 C   0  0  0  0  0  0  0  0  0  0  0  0
   42.6290   34.3710   41.2150 H   0  0  0  0  0  0  0  0  0  0  0  0
   42.7900   33.7000   39.1700 C   0  0  0  0  0  0  0  0  0  0  0  0
   44.0020   34.0630   39.0190 O   0  0  0  0  0  0  0  0  0  0  0  0
   42.1800   33.1140   38.1110 N   0  0  0  0  0  0  0  0  0  0  0  0
   40.9030   32.7160   38.2280 C   0  0  0  0  0  0  0  0  0  0  0  0
   40.3250   32.1630   37.2320 O   0  0  0  0  0  0  0  0  0  0  0  0
   42.6520   32.9500   37.1960 H   0  0  0  0  0  0  0  0  0  0  0  0
  1  2  1  0  0  0  0
  1  3  1  0  0  0  0
  3  5  1  0  0  0  0
  4  3  1  0  0  0  0
  6 18  1  0  0  0  0
  6  7  1  0  0  0  0
  7  3  1  0  0  0  0
  8  7  2  0  0  0  0
  8 12  1  0  0  0  0
  9  8  1  0  0  0  0
 10 11  1  0  0  0  0
 10  9  2  0  0  0  0
 11  6  2  0  0  0  0
 13  9  1  0  0  0  0
 14 10  1  0  0  0  0
 15 11  1  0  0  0  0
 16 22  1  0  0  0  0
 17 16  1  0  0  0  0
 17 23  1  0  0  0  0
 18 17  2  0  0  0  0
 19 20  2  0  0  0  0
 19 18  1  0  0  0  0
 20 21  1  0  0  0  0
 21 16  2  0  0  0  0
 24 20  1  0  0  0  0
 25  1  1  0  0  0  0
 26 25  1  0  0  0  0
 27 26  1  0  0  0  0
 28 29  1  0  0  0  0
 28 25  1  0  0  0  0
 30 25  1  0  0  0  0
 31 33  1  0  0  0  0
 31 30  1  0  0  0  0
 32 31  1  0  0  0  0
 34 36  1  0  0  0  0
 34 31  1  0  0  0  0
 35 34  1  0  0  0  0
 37 34  1  0  0  0  0
 37 38  1  0  0  0  0
 39 38  2  0  0  0  0
 39 40  1  0  0  0  0
 41 39  1  0  0  0  0
 42 41  2  0  0  0  0
 43 44  1  0  0  0  0
 43 41  1  0  0  0  0
 44 37  1  0  0  0  0
 45 44  2  0  0  0  0
 46 43  1  0  0  0  0
M  END
>  <minimizedAffinity>
-5.89632034

$$$$

 OpenBabel03252508483D

 46 48  0  0  0  0  0  0  0  0999 V2000
   37.5000   31.7710   40.6290 N   0  0  0  0  0  0  0  0  0  0  0  0
   36.6430   32.2330   40.2500 H   0  0  0  0  0  0  0  0  0  0  0  0
   37.6500   30.3900   40.3110 C   0  0  0  0  0  0  0  0  0  0  0  0
   36.9200   30.0840   39.5060 H   0  0  0  0  0  0  0  0  0  0  0  0
   38.6590   30.2400   39.8890 H   0  0  0  0  0  0  0  0  0  0  0  0
   36.4970   28.4310   41.3710 C   0  0  0  0  0  0  0  0  0  0  0  0
   37.4340   29.4580   41.4540 C   0  0  0  0  0  0  0  0  0  0  0  0
   38.1590   29.5920   42.6200 C   0  0  0  0  0  0  0  0  0  0  0  0
   37.9430   28.7250   43.6580 C   0  0  0  0  0  0  0  0  0  0  0  0
   37.0310   27.7090   43.6030 C   0  0  0  0  0  0  0  0  0  0  0  0
   36.3310   27.6150   42.4170 C   0  0  0  0  0  0  0  0  0  0  0  0
   38.8960   30.3760   42.7280 H   0  0  0  0  0  0  0  0  0  0  0  0
   38.5260   28.8440   44.5770 H   0  0  0  0  0  0  0  0  0  0  0  0
   36.8260   27.0020   44.3910 H   0  0  0  0  0  0  0  0  0  0  0  0
   35.5790   26.8340   42.2770 H   0  0  0  0  0  0  0  0  0  0  0  0
   34.0210   28.9090   38.5620 C   0  0  0  0  0  0  0  0  0  0  0  0
   34.6480   29.0850   39.8010 C   0  0  0  0  0  0  0  0  0  0  0  0
   35.7610   28.3360   40.1160 C   0  0  0  0  0  0  0  0  0  0  0  0
   36.1860   27.4490   39.1700 N   0  0  0  0  0  0  0  0  0  0  0  0
   35.5770   27.2850   37.9760 C   0  0  0  0  0  0  0  0  0  0  0  0
   34.4920   28.0230   37.6850 N   0  0  0  0  0  0  0  0  0  0  0  0
   33.1460   29.5010   38.3180 H   0  0  0  0  0  0  0  0  0  0  0  0
   34.3020   29.7820   40.5250 H   0  0  0  0  0  0  0  0  0  0  0  0
   36.0670   26.5270   37.3570 H   0  0  0  0  0  0  0  0  0  0  0  0
   38.8810   32.6980   40.2050 S   0  0  0  0  0  0  0  0  0  0  0  0
   39.7610   32.9390   41.4100 O   0  0  0  0  0  0  0  0  0  0  0  0
   40.0930   33.8130   41.7280 H   0  0  0  0  0  0  0  0  0  0  0  0
   38.4850   33.9920   39.5850 O   0  0  0  0  0  0  0  0  0  0  0  0
   37.7400   34.0680   38.9090 H   0  0  0  0  0  0  0  0  0  0  0  0
   39.7610   31.8110   39.0800 O   0  0  0  0  0  0  0  0  0  0  0  0
   41.1060   32.1300   39.2450 C   0  0  0  0  0  0  0  0  0  0  0  0
   41.6740   31.1630   39.1760 H   0  0  0  0  0  0  0  0  0  0  0  0
   41.3570   32.6230   40.1780 H   0  0  0  0  0  0  0  0  0  0  0  0
   41.5700   32.9550   38.0290 C   0  0  0  0  0  0  0  0  0  0  0  0
   40.6780   33.2090   37.4220 H   0  0  0  0  0  0  0  0  0  0  0  0
   42.0160   33.8960   38.3720 H   0  0  0  0  0  0  0  0  0  0  0  0
   42.5440   32.1810   37.2910 N   0  0  0  0  0  0  0  0  0  0  0  0
   42.1780   31.0060   36.7270 C   0  0  0  0  0  3  0  0  0  0  0  0
   43.1540   30.3040   36.0310 C   0  0  0  0  0  0  0  0  0  0  0  0
   42.9110   29.3440   35.5530 H   0  0  0  0  0  0  0  0  0  0  0  0
   44.4280   30.8270   35.9490 C   0  0  0  0  0  0  0  0  0  0  0  0
   45.3560   30.2200   35.3220 O   0  0  0  0  0  0  0  0  0  0  0  0
   44.7410   32.0090   36.5330 N   0  0  0  0  0  0  0  0  0  0  0  0
   43.7920   32.6810   37.2040 C   0  0  0  0  0  0  0  0  0  0  0  0
   44.0840   33.7950   37.7560 O   0  0  0  0  0  0  0  0  0  0  0  0
   45.6920   32.4350   36.4920 H   0  0  0  0  0  0  0  0  0  0  0  0
  2  1  1  0  0  0  0
  3  1  1  0  0  0  0
  3  7  1  0  0  0  0
  4  3  1  0  0  0  0
  5  3  1  0  0  0  0
  6  7  2  0  0  0  0
  6 11  1  0  0  0  0
  7  8  1  0  0  0  0
  8 12  1  0  0  0  0
  8  9  2  0  0  0  0
  9 13  1  0  0  0  0
 10  9  1  0  0  0  0
 10 14  1  0  0  0  0
 11 10  2  0  0  0  0
 15 11  1  0  0  0  0
 16 17  1  0  0  0  0
 17 18  2  0  0  0  0
 17 23  1  0  0  0  0
 18  6  1  0  0  0  0
 19 18  1  0  0  0  0
 20 19  2  0  0  0  0
 21 20  1  0  0  0  0
 21 16  2  0  0  0  0
 22 16  1  0  0  0  0
 24 20  1  0  0  0  0
 25  1  1  0  0  0  0
 25 26  1  0  0  0  0
 26 27  1  0  0  0  0
 28 25  1  0  0  0  0
 29 28  1  0  0  0  0
 30 31  1  0  0  0  0
 30 25  1  0  0  0  0
 31 33  1  0  0  0  0
 32 31  1  0  0  0  0
 34 36  1  0  0  0  0
 34 31  1  0  0  0  0
 35 34  1  0  0  0  0
 37 34  1  0  0  0  0
 38 37  1  0  0  0  0
 39 38  2  0  0  0  0
 40 39  1  0  0  0  0
 41 39  1  0  0  0  0
 41 43  1  0  0  0  0
 42 41  2  0  0  0  0
 43 44  1  0  0  0  0
 44 37  1  0  0  0  0
 44 45  2  0  0  0  0
 46 43  1  0  0  0  0
M  END
>  <minimizedAffinity>
-5.88892031

$$$$

 OpenBabel03252508483D

 46 48  0  0  0  0  0  0  0  0999 V2000
   36.3370   28.4880   42.4640 N   0  0  0  0  0  0  0  0  0  0  0  0
   35.6600   27.8510   41.9870 H   0  0  0  0  0  0  0  0  0  0  0  0
   37.5030   27.8640   42.9960 C   0  0  0  0  0  0  0  0  0  0  0  0
   38.4140   28.5080   42.8240 H   0  0  0  0  0  0  0  0  0  0  0  0
   37.3830   27.7830   44.0900 H   0  0  0  0  0  0  0  0  0  0  0  0
   39.0950   26.2280   41.9570 C   0  0  0  0  0  0  0  0  0  0  0  0
   37.8150   26.5260   42.4180 C   0  0  0  0  0  0  0  0  0  0  0  0
   36.8420   25.5520   42.3290 C   0  0  0  0  0  0  0  0  0  0  0  0
   37.1510   24.3290   41.7940 C   0  0  0  0  0  0  0  0  0  0  0  0
   38.3980   24.0120   41.3350 C   0  0  0  0  0  0  0  0  0  0  0  0
   39.3370   25.0170   41.4460 C   0  0  0  0  0  0  0  0  0  0  0  0
   35.8340   25.7410   42.6740 H   0  0  0  0  0  0  0  0  0  0  0  0
   36.3690   23.5670   41.7290 H   0  0  0  0  0  0  0  0  0  0  0  0
   38.6900   23.0650   40.9070 H   0  0  0  0  0  0  0  0  0  0  0  0
   40.3640   24.8580   41.1060 H   0  0  0  0  0  0  0  0  0  0  0  0
   41.8260   28.5350   43.1680 C   0  0  0  0  0  0  0  0  0  0  0  0
   40.9130   27.4740   43.1620 C   0  0  0  0  0  0  0  0  0  0  0  0
   40.0830   27.2940   42.0780 C   0  0  0  0  0  0  0  0  0  0  0  0
   40.2120   28.1890   41.0560 N   0  0  0  0  0  0  0  0  0  0  0  0
   41.0960   29.2100   41.0670 C   0  0  0  0  0  0  0  0  0  0  0  0
   41.8980   29.3720   42.1330 N   0  0  0  0  0  0  0  0  0  0  0  0
   42.4780   28.6730   44.0230 H   0  0  0  0  0  0  0  0  0  0  0  0
   40.8270   26.7870   43.9680 H   0  0  0  0  0  0  0  0  0  0  0  0
   41.0470   29.8160   40.1570 H   0  0  0  0  0  0  0  0  0  0  0  0
   36.7090   29.8030   41.4260 S   0  0  0  0  0  0  0  0  0  0  0  0
   38.0450   30.4110   41.7820 O   0  0  0  0  0  0  0  0  0  0  0  0
   38.2250   31.3650   41.9640 H   0  0  0  0  0  0  0  0  0  0  0  0
   35.6390   30.8370   41.4730 O   0  0  0  0  0  0  0  0  0  0  0  0
   34.6570   30.6070   41.4750 H   0  0  0  0  0  0  0  0  0  0  0  0
   36.8060   29.2010   39.8590 O   0  0  0  0  0  0  0  0  0  0  0  0
   36.0370   30.0220   39.0390 C   0  0  0  0  0  0  0  0  0  0  0  0
   35.7040   30.8860   39.6750 H   0  0  0  0  0  0  0  0  0  0  0  0
   35.1660   29.5520   38.5930 H   0  0  0  0  0  0  0  0  0  0  0  0
   36.9530   30.6430   37.9660 C   0  0  0  0  0  0  0  0  0  0  0  0
   37.5220   29.8250   37.4820 H   0  0  0  0  0  0  0  0  0  0  0  0
   36.3410   31.1240   37.1940 H   0  0  0  0  0  0  0  0  0  0  0  0
   37.8120   31.6190   38.6030 N   0  0  0  0  0  0  0  0  0  0  0  0
   37.2670   32.7170   39.1750 C   0  0  0  0  0  3  0  0  0  0  0  0
   38.1380   33.6210   39.7710 C   0  0  0  0  0  0  0  0  0  0  0  0
   37.7490   34.5310   40.2510 H   0  0  0  0  0  0  0  0  0  0  0  0
   39.4930   33.3620   39.7500 C   0  0  0  0  0  0  0  0  0  0  0  0
   40.3300   34.1610   40.2830 O   0  0  0  0  0  0  0  0  0  0  0  0
   39.9850   32.2440   39.1620 N   0  0  0  0  0  0  0  0  0  0  0  0
   39.1370   31.3760   38.5890 C   0  0  0  0  0  0  0  0  0  0  0  0
   39.5980   30.3230   38.0340 O   0  0  0  0  0  0  0  0  0  0  0  0
   41.0020   32.0150   39.1280 H   0  0  0  0  0  0  0  0  0  0  0  0
  1  3  1  0  0  0  0
  2  1  1  0  0  0  0
  3  5  1  0  0  0  0
  4  3  1  0  0  0  0
  6 18  1  0  0  0  0
  6  7  1  0  0  0  0
  7  3  1  0  0  0  0
  8  7  2  0  0  0  0
  8 12  1  0  0  0  0
  9  8  1  0  0  0  0
 10 11  1  0  0  0  0
 10  9  2  0  0  0  0
 11  6  2  0  0  0  0
 13  9  1  0  0  0  0
 14 10  1  0  0  0  0
 15 11  1  0  0  0  0
 16 22  1  0  0  0  0
 17 16  1  0  0  0  0
 17 23  1  0  0  0  0
 18 17  2  0  0  0  0
 19 20  2  0  0  0  0
 19 18  1  0  0  0  0
 20 21  1  0  0  0  0
 21 16  2  0  0  0  0
 24 20  1  0  0  0  0
 25 28  1  0  0  0  0
 25 26  1  0  0  0  0
 25  1  1  0  0  0  0
 26 27  1  0  0  0  0
 28 29  1  0  0  0  0
 30 25  1  0  0  0  0
 31 32  1  0  0  0  0
 31 30  1  0  0  0  0
 33 31  1  0  0  0  0
 34 37  1  0  0  0  0
 34 31  1  0  0  0  0
 35 34  1  0  0  0  0
 36 34  1  0  0  0  0
 37 38  1  0  0  0  0
 38 39  2  0  0  0  0
 39 40  1  0  0  0  0
 41 39  1  0  0  0  0
 41 42  2  0  0  0  0
 43 41  1  0  0  0  0
 44 37  1  0  0  0  0
 44 43  1  0  0  0  0
 45 44  2  0  0  0  0
 46 43  1  0  0  0  0
M  END
>  <minimizedAffinity>
-5.83827496

$$$$

 OpenBabel03252508483D

 46 48  0  0  0  0  0  0  0  0999 V2000
   38.8190   30.2530   37.1200 N   0  0  0  0  0  0  0  0  0  0  0  0
   38.8100   29.2710   37.4760 H   0  0  0  0  0  0  0  0  0  0  0  0
   37.6470   31.0200   37.3890 C   0  0  0  0  0  0  0  0  0  0  0  0
   37.9160   32.0030   37.8740 H   0  0  0  0  0  0  0  0  0  0  0  0
   37.1690   31.2690   36.4260 H   0  0  0  0  0  0  0  0  0  0  0  0
   36.5310   30.7560   39.6190 C   0  0  0  0  0  0  0  0  0  0  0  0
   36.6610   30.3580   38.2900 C   0  0  0  0  0  0  0  0  0  0  0  0
   35.8560   29.3390   37.8280 C   0  0  0  0  0  0  0  0  0  0  0  0
   34.9570   28.7460   38.6740 C   0  0  0  0  0  0  0  0  0  0  0  0
   34.8090   29.1160   39.9810 C   0  0  0  0  0  0  0  0  0  0  0  0
   35.6360   30.1390   40.3970 C   0  0  0  0  0  0  0  0  0  0  0  0
   35.9240   28.9990   36.8030 H   0  0  0  0  0  0  0  0  0  0  0  0
   34.3240   27.9380   38.2930 H   0  0  0  0  0  0  0  0  0  0  0  0
   34.1170   28.6800   40.6850 H   0  0  0  0  0  0  0  0  0  0  0  0
   35.5910   30.5060   41.4260 H   0  0  0  0  0  0  0  0  0  0  0  0
   39.2270   32.8050   41.2860 C   0  0  0  0  0  0  0  0  0  0  0  0
   38.4510   31.6930   40.9410 C   0  0  0  0  0  0  0  0  0  0  0  0
   37.4070   31.8370   40.0530 C   0  0  0  0  0  0  0  0  0  0  0  0
   37.1980   33.0910   39.5580 N   0  0  0  0  0  0  0  0  0  0  0  0
   37.9520   34.1600   39.8940 C   0  0  0  0  0  0  0  0  0  0  0  0
   38.9650   34.0020   40.7620 N   0  0  0  0  0  0  0  0  0  0  0  0
   40.0480   32.6870   41.9840 H   0  0  0  0  0  0  0  0  0  0  0  0
   38.6300   30.7230   41.3370 H   0  0  0  0  0  0  0  0  0  0  0  0
   37.6250   35.0770   39.3920 H   0  0  0  0  0  0  0  0  0  0  0  0
   40.2530   31.0360   37.6460 S   0  0  0  0  0  0  0  0  0  0  0  0
   40.0020   32.5020   37.9110 O   0  0  0  0  0  0  0  0  0  0  0  0
   40.5140   33.2610   37.5400 H   0  0  0  0  0  0  0  0  0  0  0  0
   41.3470   30.8690   36.6500 O   0  0  0  0  0  0  0  0  0  0  0  0
   41.5280   29.9950   36.1800 H   0  0  0  0  0  0  0  0  0  0  0  0
   40.7250   30.3140   39.0890 O   0  0  0  0  0  0  0  0  0  0  0  0
   40.2320   29.0120   39.0940 C   0  0  0  0  0  0  0  0  0  0  0  0
   40.7830   28.4590   38.2870 H   0  0  0  0  0  0  0  0  0  0  0  0
   39.1640   28.9180   38.9240 H   0  0  0  0  0  0  0  0  0  0  0  0
   40.6550   28.3310   40.4100 C   0  0  0  0  0  0  0  0  0  0  0  0
   41.2270   27.4170   40.1580 H   0  0  0  0  0  0  0  0  0  0  0  0
   41.3220   28.9960   40.9700 H   0  0  0  0  0  0  0  0  0  0  0  0
   39.4650   28.0490   41.1850 N   0  0  0  0  0  0  0  0  0  0  0  0
   38.4780   27.2970   40.6460 C   0  0  0  0  0  3  0  0  0  0  0  0
   37.3590   27.0580   41.4340 C   0  0  0  0  0  0  0  0  0  0  0  0
   36.5260   26.4540   41.0460 H   0  0  0  0  0  0  0  0  0  0  0  0
   37.3070   27.5890   42.7060 C   0  0  0  0  0  0  0  0  0  0  0  0
   36.3030   27.3980   43.4660 O   0  0  0  0  0  0  0  0  0  0  0  0
   38.3260   28.3360   43.1970 N   0  0  0  0  0  0  0  0  0  0  0  0
   39.4040   28.5620   42.4290 C   0  0  0  0  0  0  0  0  0  0  0  0
   40.3650   29.2660   42.8890 O   0  0  0  0  0  0  0  0  0  0  0  0
   38.3230   28.7530   44.1540 H   0  0  0  0  0  0  0  0  0  0  0  0
  1  3  1  0  0  0  0
  1  2  1  0  0  0  0
  1 25  1  0  0  0  0
  3  4  1  0  0  0  0
  3  7  1  0  0  0  0
  5  3  1  0  0  0  0
  6 18  1  0  0  0  0
  6 11  1  0  0  0  0
  7  6  2  0  0  0  0
  8  7  1  0  0  0  0
  8  9  2  0  0  0  0
  9 10  1  0  0  0  0
 10 11  2  0  0  0  0
 10 14  1  0  0  0  0
 11 15  1  0  0  0  0
 12  8  1  0  0  0  0
 13  9  1  0  0  0  0
 16 22  1  0  0  0  0
 17 16  1  0  0  0  0
 17 23  1  0  0  0  0
 18 17  2  0  0  0  0
 19 20  2  0  0  0  0
 19 18  1  0  0  0  0
 20 21  1  0  0  0  0
 21 16  2  0  0  0  0
 24 20  1  0  0  0  0
 25 26  1  0  0  0  0
 25 30  1  0  0  0  0
 27 26  1  0  0  0  0
 28 25  1  0  0  0  0
 29 28  1  0  0  0  0
 30 31  1  0  0  0  0
 31 34  1  0  0  0  0
 32 31  1  0  0  0  0
 33 31  1  0  0  0  0
 34 36  1  0  0  0  0
 34 37  1  0  0  0  0
 35 34  1  0  0  0  0
 37 44  1  0  0  0  0
 38 37  1  0  0  0  0
 38 39  2  0  0  0  0
 39 41  1  0  0  0  0
 40 39  1  0  0  0  0
 41 43  1  0  0  0  0
 41 42  2  0  0  0  0
 43 46  1  0  0  0  0
 44 45  2  0  0  0  0
 44 43  1  0  0  0  0
M  END
>  <minimizedAffinity>
-5.80275297

$$$$

 OpenBabel03252508483D

 46 48  0  0  0  0  0  0  0  0999 V2000
   37.7260   30.4980   36.5070 N   0  0  0  0  0  0  0  0  0  0  0  0
   38.3260   30.2950   35.6760 H   0  0  0  0  0  0  0  0  0  0  0  0
   37.2370   29.3580   37.2100 C   0  0  0  0  0  0  0  0  0  0  0  0
   37.7010   28.4110   36.8070 H   0  0  0  0  0  0  0  0  0  0  0  0
   37.5580   29.4370   38.2630 H   0  0  0  0  0  0  0  0  0  0  0  0
   34.9920   29.1320   38.3030 C   0  0  0  0  0  0  0  0  0  0  0  0
   35.7600   29.1680   37.1420 C   0  0  0  0  0  0  0  0  0  0  0  0
   35.1220   29.0240   35.9280 C   0  0  0  0  0  0  0  0  0  0  0  0
   33.7640   28.8500   35.8900 C   0  0  0  0  0  0  0  0  0  0  0  0
   32.9870   28.8120   37.0130 C   0  0  0  0  0  0  0  0  0  0  0  0
   33.6700   28.9600   38.2030 C   0  0  0  0  0  0  0  0  0  0  0  0
   35.6800   29.0450   35.0020 H   0  0  0  0  0  0  0  0  0  0  0  0
   33.2710   28.7380   34.9190 H   0  0  0  0  0  0  0  0  0  0  0  0
   31.9160   28.6780   37.0350 H   0  0  0  0  0  0  0  0  0  0  0  0
   33.1340   28.9430   39.1560 H   0  0  0  0  0  0  0  0  0  0  0  0
   36.8710   28.5200   41.5190 C   0  0  0  0  0  0  0  0  0  0  0  0
   36.1830   28.2480   40.3300 C   0  0  0  0  0  0  0  0  0  0  0  0
   35.7180   29.2900   39.5570 C   0  0  0  0  0  0  0  0  0  0  0  0
   35.9670   30.5490   40.0190 N   0  0  0  0  0  0  0  0  0  0  0  0
   36.6320   30.8040   41.1660 C   0  0  0  0  0  0  0  0  0  0  0  0
   37.0780   29.7770   41.9080 N   0  0  0  0  0  0  0  0  0  0  0  0
   37.2350   27.6980   42.1240 H   0  0  0  0  0  0  0  0  0  0  0  0
   35.9990   27.2600   39.9860 H   0  0  0  0  0  0  0  0  0  0  0  0
   36.7290   31.8770   41.3640 H   0  0  0  0  0  0  0  0  0  0  0  0
   38.5340   31.6090   37.5360 S   0  0  0  0  0  0  0  0  0  0  0  0
   37.5560   32.5790   38.1570 O   0  0  0  0  0  0  0  0  0  0  0  0
   37.6200   33.5650   38.1440 H   0  0  0  0  0  0  0  0  0  0  0  0
   39.5960   32.3450   36.7970 O   0  0  0  0  0  0  0  0  0  0  0  0
   40.2180   31.8930   36.1430 H   0  0  0  0  0  0  0  0  0  0  0  0
   39.2540   30.7240   38.7720 O   0  0  0  0  0  0  0  0  0  0  0  0
   40.3740   31.4290   39.2020 C   0  0  0  0  0  0  0  0  0  0  0  0
   40.2590   31.5670   40.3110 H   0  0  0  0  0  0  0  0  0  0  0  0
   40.5220   32.3990   38.7380 H   0  0  0  0  0  0  0  0  0  0  0  0
   41.6150   30.5310   39.0360 C   0  0  0  0  0  0  0  0  0  0  0  0
   41.8480   30.0760   40.0180 H   0  0  0  0  0  0  0  0  0  0  0  0
   41.3880   29.7160   38.3390 H   0  0  0  0  0  0  0  0  0  0  0  0
   42.7020   31.3370   38.5230 N   0  0  0  0  0  0  0  0  0  0  0  0
   43.4590   32.0620   39.3800 C   0  0  0  0  0  3  0  0  0  0  0  0
   44.4890   32.8180   38.8330 C   0  0  0  0  0  0  0  0  0  0  0  0
   45.1350   33.4260   39.4830 H   0  0  0  0  0  0  0  0  0  0  0  0
   44.6870   32.7970   37.4680 C   0  0  0  0  0  0  0  0  0  0  0  0
   45.6170   33.4730   36.9210 O   0  0  0  0  0  0  0  0  0  0  0  0
   43.8980   32.0520   36.6550 N   0  0  0  0  0  0  0  0  0  0  0  0
   42.9050   31.3240   37.1910 C   0  0  0  0  0  0  0  0  0  0  0  0
   42.1600   30.6220   36.4280 O   0  0  0  0  0  0  0  0  0  0  0  0
   44.0180   32.0110   35.6200 H   0  0  0  0  0  0  0  0  0  0  0  0
  1  3  1  0  0  0  0
  1 25  1  0  0  0  0
  2  1  1  0  0  0  0
  3  5  1  0  0  0  0
  4  3  1  0  0  0  0
  6 18  1  0  0  0  0
  7  3  1  0  0  0  0
  7  6  2  0  0  0  0
  8  7  1  0  0  0  0
  9  8  2  0  0  0  0
  9 10  1  0  0  0  0
 10 14  1  0  0  0  0
 10 11  2  0  0  0  0
 11  6  1  0  0  0  0
 11 15  1  0  0  0  0
 12  8  1  0  0  0  0
 13  9  1  0  0  0  0
 16 21  1  0  0  0  0
 16 22  1  0  0  0  0
 17 16  2  0  0  0  0
 18 19  2  0  0  0  0
 18 17  1  0  0  0  0
 19 20  1  0  0  0  0
 20 24  1  0  0  0  0
 20 21  2  0  0  0  0
 23 17  1  0  0  0  0
 25 26  1  0  0  0  0
 25 30  1  0  0  0  0
 27 26  1  0  0  0  0
 28 25  1  0  0  0  0
 29 28  1  0  0  0  0
 30 31  1  0  0  0  0
 31 32  1  0  0  0  0
 33 31  1  0  0  0  0
 34 31  1  0  0  0  0
 34 35  1  0  0  0  0
 36 34  1  0  0  0  0
 37 34  1  0  0  0  0
 37 38  1  0  0  0  0
 39 38  2  0  0  0  0
 39 40  1  0  0  0  0
 41 39  1  0  0  0  0
 42 41  2  0  0  0  0
 43 44  1  0  0  0  0
 43 41  1  0  0  0  0
 44 37  1  0  0  0  0
 45 44  2  0  0  0  0
 46 43  1  0  0  0  0
M  END
>  <minimizedAffinity>
-5.72110271

$$$$

 OpenBabel03252508483D

 46 48  0  0  0  0  0  0  0  0999 V2000
   38.7750   30.0910   37.3010 N   0  0  0  0  0  0  0  0  0  0  0  0
   39.5650   29.7390   36.7140 H   0  0  0  0  0  0  0  0  0  0  0  0
   38.4100   29.2660   38.4050 C   0  0  0  0  0  0  0  0  0  0  0  0
   38.7610   28.2050   38.2440 H   0  0  0  0  0  0  0  0  0  0  0  0
   38.9390   29.6350   39.3010 H   0  0  0  0  0  0  0  0  0  0  0  0
   36.4660   29.0600   39.9740 C   0  0  0  0  0  0  0  0  0  0  0  0
   36.9470   29.1930   38.6740 C   0  0  0  0  0  0  0  0  0  0  0  0
   36.0360   29.2550   37.6400 C   0  0  0  0  0  0  0  0  0  0  0  0
   34.6940   29.1860   37.9110 C   0  0  0  0  0  0  0  0  0  0  0  0
   34.1960   29.0560   39.1760 C   0  0  0  0  0  0  0  0  0  0  0  0
   35.1460   28.9970   40.1760 C   0  0  0  0  0  0  0  0  0  0  0  0
   36.3660   29.3580   36.6150 H   0  0  0  0  0  0  0  0  0  0  0  0
   33.9840   29.2370   37.0800 H   0  0  0  0  0  0  0  0  0  0  0  0
   33.1510   28.9960   39.4400 H   0  0  0  0  0  0  0  0  0  0  0  0
   34.8440   28.8940   41.2220 H   0  0  0  0  0  0  0  0  0  0  0  0
   38.9350   29.9150   42.6980 C   0  0  0  0  0  0  0  0  0  0  0  0
   37.9670   30.0930   41.7030 C   0  0  0  0  0  0  0  0  0  0  0  0
   37.4730   28.9990   41.0270 C   0  0  0  0  0  0  0  0  0  0  0  0
   37.9780   27.7830   41.3840 N   0  0  0  0  0  0  0  0  0  0  0  0
   38.9110   27.6180   42.3460 C   0  0  0  0  0  0  0  0  0  0  0  0
   39.3820   28.6950   42.9960 N   0  0  0  0  0  0  0  0  0  0  0  0
   39.3200   30.7780   43.2280 H   0  0  0  0  0  0  0  0  0  0  0  0
   37.5850   31.0490   41.4380 H   0  0  0  0  0  0  0  0  0  0  0  0
   39.1870   26.5670   42.4860 H   0  0  0  0  0  0  0  0  0  0  0  0
   39.0910   31.7130   37.7670 S   0  0  0  0  0  0  0  0  0  0  0  0
   37.8040   32.4660   38.0070 O   0  0  0  0  0  0  0  0  0  0  0  0
   37.5470   33.3310   37.6040 H   0  0  0  0  0  0  0  0  0  0  0  0
   39.9170   32.4100   36.7430 O   0  0  0  0  0  0  0  0  0  0  0  0
   40.7050   31.9730   36.2880 H   0  0  0  0  0  0  0  0  0  0  0  0
   39.9510   31.6680   39.2110 O   0  0  0  0  0  0  0  0  0  0  0  0
   41.2850   31.9380   38.9210 C   0  0  0  0  0  0  0  0  0  0  0  0
   41.7030   32.4800   39.8120 H   0  0  0  0  0  0  0  0  0  0  0  0
   41.4570   32.5340   38.0300 H   0  0  0  0  0  0  0  0  0  0  0  0
   42.0560   30.6050   38.8630 C   0  0  0  0  0  0  0  0  0  0  0  0
   42.5830   30.4670   39.8280 H   0  0  0  0  0  0  0  0  0  0  0  0
   41.3490   29.7750   38.7500 H   0  0  0  0  0  0  0  0  0  0  0  0
   42.9620   30.6450   37.7350 N   0  0  0  0  0  0  0  0  0  0  0  0
   44.0810   31.4020   37.8010 C   0  0  0  0  0  3  0  0  0  0  0  0
   44.9140   31.4040   36.6890 C   0  0  0  0  0  0  0  0  0  0  0  0
   45.8370   32.0020   36.6890 H   0  0  0  0  0  0  0  0  0  0  0  0
   44.5660   30.6490   35.5880 C   0  0  0  0  0  0  0  0  0  0  0  0
   45.2980   30.6190   34.5450 O   0  0  0  0  0  0  0  0  0  0  0  0
   43.4320   29.9080   35.5750 N   0  0  0  0  0  0  0  0  0  0  0  0
   42.6330   29.9110   36.6540 C   0  0  0  0  0  0  0  0  0  0  0  0
   41.5630   29.2140   36.6440 O   0  0  0  0  0  0  0  0  0  0  0  0
   43.1370   29.3240   34.7620 H   0  0  0  0  0  0  0  0  0  0  0  0
  1 25  1  0  0  0  0
  1  3  1  0  0  0  0
  2  1  1  0  0  0  0
  3  7  1  0  0  0  0
  3  5  1  0  0  0  0
  4  3  1  0  0  0  0
  6 11  1  0  0  0  0
  6 18  1  0  0  0  0
  7  6  2  0  0  0  0
  8  9  2  0  0  0  0
  8  7  1  0  0  0  0
  9 10  1  0  0  0  0
 10 14  1  0  0  0  0
 10 11  2  0  0  0  0
 11 15  1  0  0  0  0
 12  8  1  0  0  0  0
 13  9  1  0  0  0  0
 16 21  1  0  0  0  0
 16 22  1  0  0  0  0
 17 16  2  0  0  0  0
 18 19  2  0  0  0  0
 18 17  1  0  0  0  0
 19 20  1  0  0  0  0
 20 24  1  0  0  0  0
 20 21  2  0  0  0  0
 23 17  1  0  0  0  0
 25 26  1  0  0  0  0
 25 30  1  0  0  0  0
 27 26  1  0  0  0  0
 28 25  1  0  0  0  0
 29 28  1  0  0  0  0
 31 30  1  0  0  0  0
 31 32  1  0  0  0  0
 33 31  1  0  0  0  0
 34 31  1  0  0  0  0
 34 35  1  0  0  0  0
 36 34  1  0  0  0  0
 37 38  1  0  0  0  0
 37 34  1  0  0  0  0
 39 38  2  0  0  0  0
 40 39  1  0  0  0  0
 41 39  1  0  0  0  0
 42 41  2  0  0  0  0
 43 41  1  0  0  0  0
 43 44  1  0  0  0  0
 44 37  1  0  0  0  0
 45 44  2  0  0  0  0
 46 43  1  0  0  0  0
M  END
>  <minimizedAffinity>
-5.60775566

$$$$

 OpenBabel03252508483D

 46 48  0  0  0  0  0  0  0  0999 V2000
   37.0940   28.8180   42.2120 N   0  0  0  0  0  0  0  0  0  0  0  0
   36.3630   28.8380   42.9590 H   0  0  0  0  0  0  0  0  0  0  0  0
   37.2950   27.5570   41.5770 C   0  0  0  0  0  0  0  0  0  0  0  0
   36.3510   26.9390   41.6090 H   0  0  0  0  0  0  0  0  0  0  0  0
   37.5110   27.7380   40.5100 H   0  0  0  0  0  0  0  0  0  0  0  0
   38.5490   25.3960   41.7820 C   0  0  0  0  0  0  0  0  0  0  0  0
   38.3700   26.7190   42.1790 C   0  0  0  0  0  0  0  0  0  0  0  0
   39.2130   27.2350   43.1410 C   0  0  0  0  0  0  0  0  0  0  0  0
   40.1950   26.4460   43.6790 C   0  0  0  0  0  0  0  0  0  0  0  0
   40.3920   25.1460   43.3080 C   0  0  0  0  0  0  0  0  0  0  0  0
   39.5240   24.6740   42.3440 C   0  0  0  0  0  0  0  0  0  0  0  0
   39.1090   28.2580   43.4780 H   0  0  0  0  0  0  0  0  0  0  0  0
   40.8560   26.8700   44.4420 H   0  0  0  0  0  0  0  0  0  0  0  0
   41.1490   24.4860   43.7020 H   0  0  0  0  0  0  0  0  0  0  0  0
   39.6040   23.6460   41.9820 H   0  0  0  0  0  0  0  0  0  0  0  0
   35.6990   23.7250   39.9570 C   0  0  0  0  0  0  0  0  0  0  0  0
   36.5100   24.1430   41.0180 C   0  0  0  0  0  0  0  0  0  0  0  0
   37.6310   24.9030   40.7620 C   0  0  0  0  0  0  0  0  0  0  0  0
   37.8790   25.2020   39.4550 N   0  0  0  0  0  0  0  0  0  0  0  0
   37.0910   24.7960   38.4350 C   0  0  0  0  0  0  0  0  0  0  0  0
   36.0020   24.0560   38.7020 N   0  0  0  0  0  0  0  0  0  0  0  0
   34.8180   23.1280   40.1620 H   0  0  0  0  0  0  0  0  0  0  0  0
   36.3000   23.9000   42.0310 H   0  0  0  0  0  0  0  0  0  0  0  0
   37.4580   25.1380   37.4610 H   0  0  0  0  0  0  0  0  0  0  0  0
   36.7950   30.0810   41.0880 S   0  0  0  0  0  0  0  0  0  0  0  0
   35.5350   30.8350   41.4470 O   0  0  0  0  0  0  0  0  0  0  0  0
   34.7720   31.0180   40.8480 H   0  0  0  0  0  0  0  0  0  0  0  0
   36.7040   29.5490   39.7010 O   0  0  0  0  0  0  0  0  0  0  0  0
   37.3350   28.8480   39.3430 H   0  0  0  0  0  0  0  0  0  0  0  0
   38.0900   31.1500   41.1700 O   0  0  0  0  0  0  0  0  0  0  0  0
   38.9540   30.8510   40.1210 C   0  0  0  0  0  0  0  0  0  0  0  0
   38.3230   30.7950   39.1940 H   0  0  0  0  0  0  0  0  0  0  0  0
   39.5140   29.9280   40.2270 H   0  0  0  0  0  0  0  0  0  0  0  0
   39.8910   32.0550   39.8980 C   0  0  0  0  0  0  0  0  0  0  0  0
   39.2770   32.9150   39.5670 H   0  0  0  0  0  0  0  0  0  0  0  0
   40.3660   32.3320   40.8470 H   0  0  0  0  0  0  0  0  0  0  0  0
   40.8970   31.6810   38.9270 N   0  0  0  0  0  0  0  0  0  0  0  0
   42.1270   31.3040   39.3480 C   0  0  0  0  0  3  0  0  0  0  0  0
   43.0530   30.9560   38.3730 C   0  0  0  0  0  0  0  0  0  0  0  0
   44.0680   30.6430   38.6590 H   0  0  0  0  0  0  0  0  0  0  0  0
   42.6840   31.0120   37.0450 C   0  0  0  0  0  0  0  0  0  0  0  0
   43.4980   30.7030   36.1150 O   0  0  0  0  0  0  0  0  0  0  0  0
   41.4370   31.3970   36.6780 N   0  0  0  0  0  0  0  0  0  0  0  0
   40.5470   31.7310   37.6270 C   0  0  0  0  0  0  0  0  0  0  0  0
   39.3720   32.0940   37.2840 O   0  0  0  0  0  0  0  0  0  0  0  0
   41.1220   31.4500   35.6850 H   0  0  0  0  0  0  0  0  0  0  0  0
  1  2  1  0  0  0  0
  3  4  1  0  0  0  0
  3  7  1  0  0  0  0
  3  1  1  0  0  0  0
  5  3  1  0  0  0  0
  6  7  2  0  0  0  0
  6 11  1  0  0  0  0
  7  8  1  0  0  0  0
  8 12  1  0  0  0  0
  8  9  2  0  0  0  0
  9 13  1  0  0  0  0
 10  9  1  0  0  0  0
 10 14  1  0  0  0  0
 11 10  2  0  0  0  0
 15 11  1  0  0  0  0
 16 22  1  0  0  0  0
 16 17  1  0  0  0  0
 17 23  1  0  0  0  0
 18 17  2  0  0  0  0
 18  6  1  0  0  0  0
 19 18  1  0  0  0  0
 20 21  1  0  0  0  0
 20 19  2  0  0  0  0
 21 16  2  0  0  0  0
 24 20  1  0  0  0  0
 25 30  1  0  0  0  0
 25 26  1  0  0  0  0
 25  1  1  0  0  0  0
 27 26  1  0  0  0  0
 28 25  1  0  0  0  0
 29 28  1  0  0  0  0
 31 33  1  0  0  0  0
 31 30  1  0  0  0  0
 32 31  1  0  0  0  0
 34 31  1  0  0  0  0
 34 36  1  0  0  0  0
 35 34  1  0  0  0  0
 37 38  1  0  0  0  0
 37 34  1  0  0  0  0
 39 40  1  0  0  0  0
 39 38  2  0  0  0  0
 41 39  1  0  0  0  0
 42 41  2  0  0  0  0
 43 41  1  0  0  0  0
 43 44  1  0  0  0  0
 44 37  1  0  0  0  0
 45 44  2  0  0  0  0
 46 43  1  0  0  0  0
M  END
>  <minimizedAffinity>
-5.56528044

$$$$

 OpenBabel03252508483D

 46 48  0  0  0  0  0  0  0  0999 V2000
   38.4330   31.2330   40.7980 N   0  0  0  0  0  0  0  0  0  0  0  0
   39.2080   31.2860   41.4970 H   0  0  0  0  0  0  0  0  0  0  0  0
   37.1810   30.7670   41.2950 C   0  0  0  0  0  0  0  0  0  0  0  0
   36.8370   31.4000   42.1640 H   0  0  0  0  0  0  0  0  0  0  0  0
   36.4260   30.8930   40.5010 H   0  0  0  0  0  0  0  0  0  0  0  0
   36.8250   28.3130   40.9220 C   0  0  0  0  0  0  0  0  0  0  0  0
   37.1850   29.3560   41.7730 C   0  0  0  0  0  0  0  0  0  0  0  0
   37.5460   29.0500   43.0690 C   0  0  0  0  0  0  0  0  0  0  0  0
   37.5420   27.7450   43.4860 C   0  0  0  0  0  0  0  0  0  0  0  0
   37.1940   26.7050   42.6730 C   0  0  0  0  0  0  0  0  0  0  0  0
   36.8400   27.0600   41.3860 C   0  0  0  0  0  0  0  0  0  0  0  0
   37.8320   29.8290   43.7630 H   0  0  0  0  0  0  0  0  0  0  0  0
   37.8310   27.5190   44.5170 H   0  0  0  0  0  0  0  0  0  0  0  0
   37.1750   25.6630   42.9540 H   0  0  0  0  0  0  0  0  0  0  0  0
   36.5470   26.2960   40.6610 H   0  0  0  0  0  0  0  0  0  0  0  0
   34.9200   29.1770   37.7800 C   0  0  0  0  0  0  0  0  0  0  0  0
   35.1580   28.8020   39.1080 C   0  0  0  0  0  0  0  0  0  0  0  0
   36.4540   28.6940   39.5650 C   0  0  0  0  0  0  0  0  0  0  0  0
   37.4420   28.9670   38.6650 N   0  0  0  0  0  0  0  0  0  0  0  0
   37.2060   29.3290   37.3860 C   0  0  0  0  0  0  0  0  0  0  0  0
   35.9370   29.4300   36.9560 N   0  0  0  0  0  0  0  0  0  0  0  0
   33.9000   29.2610   37.4240 H   0  0  0  0  0  0  0  0  0  0  0  0
   34.3750   28.5930   39.7940 H   0  0  0  0  0  0  0  0  0  0  0  0
   38.1280   29.5050   36.8230 H   0  0  0  0  0  0  0  0  0  0  0  0
   38.2990   32.7380   39.9820 S   0  0  0  0  0  0  0  0  0  0  0  0
   36.9400   33.3580   40.2130 O   0  0  0  0  0  0  0  0  0  0  0  0
   36.3170   33.6780   39.5180 H   0  0  0  0  0  0  0  0  0  0  0  0
   38.5560   32.5780   38.5250 O   0  0  0  0  0  0  0  0  0  0  0  0
   39.3000   32.0020   38.1610 H   0  0  0  0  0  0  0  0  0  0  0  0
   39.4630   33.7680   40.6230 O   0  0  0  0  0  0  0  0  0  0  0  0
   40.3710   34.0660   39.6120 C   0  0  0  0  0  0  0  0  0  0  0  0
   40.6250   35.1540   39.7200 H   0  0  0  0  0  0  0  0  0  0  0  0
   40.0210   33.8820   38.6010 H   0  0  0  0  0  0  0  0  0  0  0  0
   41.6880   33.3160   39.8960 C   0  0  0  0  0  0  0  0  0  0  0  0
   42.5150   34.0520   39.8830 H   0  0  0  0  0  0  0  0  0  0  0  0
   41.6510   32.8750   40.8980 H   0  0  0  0  0  0  0  0  0  0  0  0
   41.8500   32.2780   38.9000 N   0  0  0  0  0  0  0  0  0  0  0  0
   42.1420   32.6160   37.6220 C   0  0  0  0  0  3  0  0  0  0  0  0
   42.2870   31.5800   36.7090 C   0  0  0  0  0  0  0  0  0  0  0  0
   42.5240   31.7970   35.6570 H   0  0  0  0  0  0  0  0  0  0  0  0
   42.1270   30.2780   37.1380 C   0  0  0  0  0  0  0  0  0  0  0  0
   42.2500   29.2950   36.3370 O   0  0  0  0  0  0  0  0  0  0  0  0
   41.8350   29.9960   38.4310 N   0  0  0  0  0  0  0  0  0  0  0  0
   41.6970   31.0030   39.3080 C   0  0  0  0  0  0  0  0  0  0  0  0
   41.4220   30.7400   40.5260 O   0  0  0  0  0  0  0  0  0  0  0  0
   41.7090   29.0250   38.7910 H   0  0  0  0  0  0  0  0  0  0  0  0
  1  3  1  0  0  0  0
  1  2  1  0  0  0  0
  3  7  1  0  0  0  0
  3  4  1  0  0  0  0
  5  3  1  0  0  0  0
  6 11  2  0  0  0  0
  6  7  1  0  0  0  0
  7  8  2  0  0  0  0
  8  9  1  0  0  0  0
  8 12  1  0  0  0  0
  9 13  1  0  0  0  0
 10 14  1  0  0  0  0
 10  9  2  0  0  0  0
 11 10  1  0  0  0  0
 15 11  1  0  0  0  0
 16 17  1  0  0  0  0
 17 18  2  0  0  0  0
 17 23  1  0  0  0  0
 18  6  1  0  0  0  0
 19 18  1  0  0  0  0
 20 19  2  0  0  0  0
 21 20  1  0  0  0  0
 21 16  2  0  0  0  0
 22 16  1  0  0  0  0
 24 20  1  0  0  0  0
 25 26  1  0  0  0  0
 25 30  1  0  0  0  0
 25  1  1  0  0  0  0
 27 26  1  0  0  0  0
 28 25  1  0  0  0  0
 29 28  1  0  0  0  0
 31 32  1  0  0  0  0
 31 34  1  0  0  0  0
 31 30  1  0  0  0  0
 33 31  1  0  0  0  0
 34 36  1  0  0  0  0
 35 34  1  0  0  0  0
 37 44  1  0  0  0  0
 37 34  1  0  0  0  0
 38 37  1  0  0  0  0
 39 41  1  0  0  0  0
 39 38  2  0  0  0  0
 40 39  1  0  0  0  0
 41 43  1  0  0  0  0
 42 41  2  0  0  0  0
 43 46  1  0  0  0  0
 43 44  1  0  0  0  0
 44 45  2  0  0  0  0
M  END
>  <minimizedAffinity>
-5.54634523

$$$$
