
 OpenBabel03252501303D

 39 41  0  0  0  0  0  0  0  0999 V2000
   48.4450   27.1020   43.4690 C   0  0  0  0  0  0  0  0  0  0  0  0
   47.8750   28.3010   43.1540 C   0  0  0  0  0  0  0  0  0  0  0  0
   47.2320   29.1070   44.0390 C   0  0  0  0  0  0  0  0  0  0  0  0
   47.1460   28.6980   45.3220 C   0  0  0  0  0  0  0  0  0  0  0  0
   47.7190   27.4690   45.6980 C   0  0  0  0  0  0  0  0  0  0  0  0
   48.3630   26.6840   44.7690 C   0  0  0  0  0  0  0  0  0  0  0  0
   47.9780   28.5790   42.0920 H   0  0  0  0  0  0  0  0  0  0  0  0
   46.8300   30.0240   43.6560 H   0  0  0  0  0  0  0  0  0  0  0  0
   47.5470   27.3180   46.7630 H   0  0  0  0  0  0  0  0  0  0  0  0
   46.4470   29.5940   46.2200 N   0  0  0  0  0  0  0  0  0  0  0  0
   45.8020   28.9220   47.2100 C   0  0  0  0  0  3  0  0  0  0  0  0
   45.0910   29.6400   48.1470 C   0  0  0  0  0  0  0  0  0  0  0  0
   44.5470   29.1550   48.9720 H   0  0  0  0  0  0  0  0  0  0  0  0
   45.0610   31.0290   48.0440 C   0  0  0  0  0  0  0  0  0  0  0  0
   44.4270   31.7140   48.8730 O   0  0  0  0  0  0  0  0  0  0  0  0
   45.7350   31.6280   47.0190 N   0  0  0  0  0  0  0  0  0  0  0  0
   46.4250   30.9240   46.1120 C   0  0  0  0  0  0  0  0  0  0  0  0
   47.0580   31.4400   45.1560 O   0  0  0  0  0  0  0  0  0  0  0  0
   45.7020   32.6540   46.9580 H   0  0  0  0  0  0  0  0  0  0  0  0
   50.0370   25.7320   46.2350 C   0  0  0  0  0  0  0  0  0  0  0  0
   50.9180   26.6410   46.4540 O   0  0  0  0  0  0  0  0  0  0  0  0
   48.8250   25.5390   45.4940 N   0  0  0  0  0  0  0  0  0  0  0  0
   50.5610   25.0270   46.8810 H   0  0  0  0  0  0  0  0  0  0  0  0
   48.4970   24.5710   45.6270 H   0  0  0  0  0  0  0  0  0  0  0  0
   49.1370   26.1410   42.6040 C   0  0  0  0  0  0  0  0  0  0  0  0
   49.7130   25.3840   43.1990 H   0  0  0  0  0  0  0  0  0  0  0  0
   49.8810   26.6940   42.0170 H   0  0  0  0  0  0  0  0  0  0  0  0
   48.1440   25.3680   41.7450 C   0  0  0  0  0  0  0  0  0  0  0  0
   47.1370   25.7720   41.9190 H   0  0  0  0  0  0  0  0  0  0  0  0
   48.1070   24.2840   42.0510 H   0  0  0  0  0  0  0  0  0  0  0  0
   49.0000   26.8690   38.5130 C   0  0  0  0  0  0  0  0  0  0  0  0
   49.2600   25.7450   37.7010 C   0  0  0  0  0  0  0  0  0  0  0  0
   49.1290   24.4910   38.3190 C   0  0  0  0  0  0  0  0  0  0  0  0
   48.7750   24.4080   39.6110 N   0  0  0  0  0  0  0  0  0  0  0  0
   48.5390   25.5290   40.3330 C   0  0  0  0  0  0  0  0  0  0  0  0
   48.6450   26.7300   39.8140 N   0  0  0  0  0  0  0  0  0  0  0  0
   49.0640   27.8940   38.1640 H   0  0  0  0  0  0  0  0  0  0  0  0
   49.5390   25.9260   36.6730 H   0  0  0  0  0  0  0  0  0  0  0  0
   49.3290   23.6310   37.6930 H   0  0  0  0  0  0  0  0  0  0  0  0
  1  6  1  0  0  0  0
  2  1  2  0  0  0  0
  2  3  1  0  0  0  0
  3  4  2  0  0  0  0
  4  5  1  0  0  0  0
  4 10  1  0  0  0  0
  5  9  1  0  0  0  0
  6 22  1  0  0  0  0
  6  5  2  0  0  0  0
  7  2  1  0  0  0  0
  8  3  1  0  0  0  0
 10 11  1  0  0  0  0
 11 12  2  0  0  0  0
 12 13  1  0  0  0  0
 14 12  1  0  0  0  0
 14 15  2  0  0  0  0
 16 14  1  0  0  0  0
 17 10  1  0  0  0  0
 17 16  1  0  0  0  0
 18 17  2  0  0  0  0
 19 16  1  0  0  0  0
 20 21  2  0  0  0  0
 20 23  1  0  0  0  0
 22 24  1  0  0  0  0
 22 20  1  0  0  0  0
 25 26  1  0  0  0  0
 25  1  1  0  0  0  0
 27 25  1  0  0  0  0
 28 29  1  0  0  0  0
 28 30  1  0  0  0  0
 28 25  1  0  0  0  0
 31 36  1  0  0  0  0
 32 33  1  0  0  0  0
 32 31  2  0  0  0  0
 33 34  2  0  0  0  0
 34 35  1  0  0  0  0
 35 28  1  0  0  0  0
 36 35  2  0  0  0  0
 37 31  1  0  0  0  0
 38 32  1  0  0  0  0
 39 33  1  0  0  0  0
M  END
>  <minimizedAffinity>
-1.8396982

>  <minimizedRMSD>
7.42979574

$$$$
