
 OpenBabel03252502533D

 32 34  0  0  0  0  0  0  0  0999 V2000
   46.8040   29.4820   44.7760 Br  0  0  0  0  0  0  0  0  0  0  0  0
   46.1020   30.3910   46.3190 C   0  0  0  0  0  0  0  0  0  0  0  0
   46.3110   31.7450   46.3700 C   0  0  0  0  0  0  0  0  0  0  0  0
   45.7860   32.3770   47.5080 C   0  0  0  0  0  0  0  0  0  0  0  0
   45.1110   31.6850   48.5010 C   0  0  0  0  0  0  0  0  0  0  0  0
   44.9400   30.3370   48.3850 C   0  0  0  0  0  0  0  0  0  0  0  0
   45.4410   29.6650   47.2770 C   0  0  0  0  0  0  0  0  0  0  0  0
   45.8790   33.4430   47.6770 H   0  0  0  0  0  0  0  0  0  0  0  0
   44.7150   32.1940   49.3700 H   0  0  0  0  0  0  0  0  0  0  0  0
   44.4230   29.7440   49.1270 H   0  0  0  0  0  0  0  0  0  0  0  0
   45.2580   28.2590   47.1650 N   0  0  0  0  0  0  0  0  0  0  0  0
   46.0110   27.2490   47.6410 C   0  0  0  0  0  0  0  0  0  0  0  0
   45.6350   25.9490   47.4070 C   0  0  0  0  0  0  0  0  0  0  0  0
   46.2840   25.1880   47.8180 H   0  0  0  0  0  0  0  0  0  0  0  0
   44.4910   25.6620   46.6890 C   0  0  0  0  0  0  0  0  0  0  0  0
   44.1600   24.4650   46.4830 O   0  0  0  0  0  0  0  0  0  0  0  0
   43.7500   26.6970   46.2200 N   0  0  0  0  0  0  0  0  0  0  0  0
   44.1340   27.9780   46.4580 C   0  0  0  0  0  0  0  0  0  0  0  0
   43.3300   28.8070   45.9500 O   0  0  0  0  0  0  0  0  0  0  0  0
   42.9100   26.4110   45.6920 H   0  0  0  0  0  0  0  0  0  0  0  0
   47.0050   32.5800   45.3890 C   0  0  0  0  0  0  0  0  0  0  0  0
   47.9040   33.0090   45.8890 H   0  0  0  0  0  0  0  0  0  0  0  0
   47.3790   31.9960   44.5230 H   0  0  0  0  0  0  0  0  0  0  0  0
   44.5630   35.4110   45.2010 C   0  0  0  0  0  0  0  0  0  0  0  0
   44.7810   35.8810   43.8970 C   0  0  0  0  0  0  0  0  0  0  0  0
   45.7420   35.2300   43.1260 C   0  0  0  0  0  0  0  0  0  0  0  0
   46.4230   34.1850   43.6400 N   0  0  0  0  0  0  0  0  0  0  0  0
   46.1910   33.7450   44.9190 C   0  0  0  0  0  0  0  0  0  0  0  0
   45.2620   34.3760   45.6670 N   0  0  0  0  0  0  0  0  0  0  0  0
   43.8340   35.8650   45.8600 H   0  0  0  0  0  0  0  0  0  0  0  0
   44.1930   36.7200   43.5660 H   0  0  0  0  0  0  0  0  0  0  0  0
   45.9070   35.5960   42.1180 H   0  0  0  0  0  0  0  0  0  0  0  0
  1  2  1  0  0  0  0
  2  3  2  0  0  0  0
  2  7  1  0  0  0  0
  3  4  1  0  0  0  0
  4  8  1  0  0  0  0
  4  5  2  0  0  0  0
  5  9  1  0  0  0  0
  6  5  1  0  0  0  0
  6 10  1  0  0  0  0
  7  6  2  0  0  0  0
 11  7  1  0  0  0  0
 11 12  1  0  0  0  0
 13 12  2  0  0  0  0
 13 14  1  0  0  0  0
 15 13  1  0  0  0  0
 16 15  2  0  0  0  0
 17 18  1  0  0  0  0
 17 15  1  0  0  0  0
 18 11  1  0  0  0  0
 19 18  2  0  0  0  0
 20 17  1  0  0  0  0
 21 22  1  0  0  0  0
 21  3  1  0  0  0  0
 23 21  1  0  0  0  0
 24 29  1  0  0  0  0
 24 30  1  0  0  0  0
 25 24  2  0  0  0  0
 26 27  2  0  0  0  0
 26 25  1  0  0  0  0
 27 28  1  0  0  0  0
 28 21  1  0  0  0  0
 28 29  2  0  0  0  0
 31 25  1  0  0  0  0
 32 26  1  0  0  0  0
M  END
>  <minimizedAffinity>
-5.22858858

>  <minimizedRMSD>
1.37631369

$$$$
