
 OpenBabel03242518423D

 20 21  0  0  0  0  0  0  0  0999 V2000
   44.8380   35.0350   45.5210 C   0  0  0  0  0  0  0  0  0  0  0  0
   44.4710   36.0860   44.6400 C   0  0  0  0  0  0  0  0  0  0  0  0
   45.0950   36.0680   43.3620 C   0  0  0  0  0  0  0  0  0  0  0  0
   45.9720   35.0890   43.0650 N   0  0  0  0  0  0  0  0  0  0  0  0
   46.2740   34.1170   43.9540 C   0  0  0  0  0  0  0  0  0  0  0  0
   45.7110   34.0970   45.1630 N   0  0  0  0  0  0  0  0  0  0  0  0
   43.7700   36.8600   44.8940 H   0  0  0  0  0  0  0  0  0  0  0  0
   44.8650   36.8400   42.6340 H   0  0  0  0  0  0  0  0  0  0  0  0
   47.1930   33.0510   43.7030 N   0  0  0  0  0  0  0  0  0  0  0  0
   46.9000   31.9510   44.4560 C   0  0  0  0  0  0  0  0  0  0  0  0
   47.7220   30.8350   44.3080 C   0  0  0  0  0  0  0  0  0  0  0  0
   47.5200   29.9360   44.8920 H   0  0  0  0  0  0  0  0  0  0  0  0
   48.7660   30.9250   43.4150 C   0  0  0  0  0  0  0  0  0  0  0  0
   49.4830   29.8790   43.3200 O   0  0  0  0  0  0  0  0  0  0  0  0
   49.0360   32.0230   42.6820 N   0  0  0  0  0  0  0  0  0  0  0  0
   48.2270   33.0870   42.8450 C   0  0  0  0  0  0  0  0  0  0  0  0
   48.3790   34.1610   42.2190 O   0  0  0  0  0  0  0  0  0  0  0  0
   49.8300   32.0580   42.0200 H   0  0  0  0  0  0  0  0  0  0  0  0
   44.2400   35.0440   46.7560 O   0  0  0  0  0  0  0  0  0  0  0  0
   44.2310   34.1560   47.2840 H   0  0  0  0  0  0  0  0  0  0  0  0
  1 19  1  0  0  0  0
  2  7  1  0  0  0  0
  2  1  2  0  0  0  0
  3  2  1  0  0  0  0
  4  3  2  0  0  0  0
  4  5  1  0  0  0  0
  5  6  2  0  0  0  0
  6  1  1  0  0  0  0
  8  3  1  0  0  0  0
  9  5  1  0  0  0  0
  9 10  1  0  0  0  0
 11 10  2  0  0  0  0
 11 12  1  0  0  0  0
 13 11  1  0  0  0  0
 14 13  2  0  0  0  0
 15 16  1  0  0  0  0
 15 13  1  0  0  0  0
 16  9  1  0  0  0  0
 17 16  2  0  0  0  0
 18 15  1  0  0  0  0
 19 20  1  0  0  0  0
M  END
>  <minimizedAffinity>
-5.00652218

>  <minimizedRMSD>
5.16184664

$$$$
