
 OpenBabel03252508463D

 46 48  0  0  0  0  0  0  0  0999 V2000
   42.1320   31.8540   42.4880 N   0  0  0  0  0  0  0  0  0  0  0  0
   42.3800   30.8740   42.7520 H   0  0  0  0  0  0  0  0  0  0  0  0
   43.0100   32.4840   41.5570 C   0  0  0  0  0  0  0  0  0  0  0  0
   43.7040   31.7270   41.0880 H   0  0  0  0  0  0  0  0  0  0  0  0
   42.4020   32.8990   40.7350 H   0  0  0  0  0  0  0  0  0  0  0  0
   43.6690   34.8900   41.8140 C   0  0  0  0  0  0  0  0  0  0  0  0
   43.8750   33.5500   42.1370 C   0  0  0  0  0  0  0  0  0  0  0  0
   44.8970   33.2350   43.0070 C   0  0  0  0  0  0  0  0  0  0  0  0
   45.6790   34.2320   43.5270 C   0  0  0  0  0  0  0  0  0  0  0  0
   45.4990   35.5520   43.2280 C   0  0  0  0  0  0  0  0  0  0  0  0
   44.4640   35.8180   42.3540 C   0  0  0  0  0  0  0  0  0  0  0  0
   45.0930   32.2080   43.2840 H   0  0  0  0  0  0  0  0  0  0  0  0
   46.4870   33.9660   44.2160 H   0  0  0  0  0  0  0  0  0  0  0  0
   46.0870   36.3720   43.6110 H   0  0  0  0  0  0  0  0  0  0  0  0
   44.2420   36.8460   42.0540 H   0  0  0  0  0  0  0  0  0  0  0  0
   40.3610   35.8760   40.2870 C   0  0  0  0  0  0  0  0  0  0  0  0
   41.3380   35.6480   41.2630 C   0  0  0  0  0  0  0  0  0  0  0  0
   42.5740   35.1650   40.8910 C   0  0  0  0  0  0  0  0  0  0  0  0
   42.7630   34.9360   39.5600 N   0  0  0  0  0  0  0  0  0  0  0  0
   41.8160   35.1590   38.6230 C   0  0  0  0  0  0  0  0  0  0  0  0
   40.6160   35.6300   39.0030 N   0  0  0  0  0  0  0  0  0  0  0  0
   39.3900   36.2560   40.5830 H   0  0  0  0  0  0  0  0  0  0  0  0
   41.1720   35.8330   42.2960 H   0  0  0  0  0  0  0  0  0  0  0  0
   42.1600   34.9130   37.6130 H   0  0  0  0  0  0  0  0  0  0  0  0
   40.4910   31.9110   41.9870 S   0  0  0  0  0  0  0  0  0  0  0  0
   39.7720   33.0760   42.6260 O   0  0  0  0  0  0  0  0  0  0  0  0
   38.9250   33.0350   43.1330 H   0  0  0  0  0  0  0  0  0  0  0  0
   39.7940   30.6340   42.3020 O   0  0  0  0  0  0  0  0  0  0  0  0
   40.2170   29.7300   42.1540 H   0  0  0  0  0  0  0  0  0  0  0  0
   40.4770   32.1340   40.3200 O   0  0  0  0  0  0  0  0  0  0  0  0
   39.5690   31.2290   39.7780 C   0  0  0  0  0  0  0  0  0  0  0  0
   38.9470   31.8050   39.0400 H   0  0  0  0  0  0  0  0  0  0  0  0
   38.9130   30.7420   40.4920 H   0  0  0  0  0  0  0  0  0  0  0  0
   40.3450   30.2000   38.9330 C   0  0  0  0  0  0  0  0  0  0  0  0
   41.3510   30.6130   38.7210 H   0  0  0  0  0  0  0  0  0  0  0  0
   40.4790   29.2780   39.5090 H   0  0  0  0  0  0  0  0  0  0  0  0
   39.5890   29.9300   37.7280 N   0  0  0  0  0  0  0  0  0  0  0  0
   38.9940   30.9510   37.0690 C   0  0  0  0  0  3  0  0  0  0  0  0
   38.2820   30.6340   35.9180 C   0  0  0  0  0  0  0  0  0  0  0  0
   37.7790   31.4240   35.3420 H   0  0  0  0  0  0  0  0  0  0  0  0
   38.2160   29.3180   35.5090 C   0  0  0  0  0  0  0  0  0  0  0  0
   37.5760   28.9790   34.4610 O   0  0  0  0  0  0  0  0  0  0  0  0
   38.8330   28.3340   36.2090 N   0  0  0  0  0  0  0  0  0  0  0  0
   39.5180   28.6480   37.3190 C   0  0  0  0  0  0  0  0  0  0  0  0
   40.0990   27.7230   37.9800 O   0  0  0  0  0  0  0  0  0  0  0  0
   38.8050   27.3290   35.9310 H   0  0  0  0  0  0  0  0  0  0  0  0
  1  2  1  0  0  0  0
  3  7  1  0  0  0  0
  3  1  1  0  0  0  0
  4  3  1  0  0  0  0
  5  3  1  0  0  0  0
  6  7  2  0  0  0  0
  6 11  1  0  0  0  0
  7  8  1  0  0  0  0
  8 12  1  0  0  0  0
  8  9  2  0  0  0  0
  9 13  1  0  0  0  0
 10  9  1  0  0  0  0
 10 14  1  0  0  0  0
 11 10  2  0  0  0  0
 15 11  1  0  0  0  0
 16 22  1  0  0  0  0
 16 17  1  0  0  0  0
 17 23  1  0  0  0  0
 18 17  2  0  0  0  0
 18  6  1  0  0  0  0
 19 18  1  0  0  0  0
 20 21  1  0  0  0  0
 20 19  2  0  0  0  0
 21 16  2  0  0  0  0
 24 20  1  0  0  0  0
 25 28  1  0  0  0  0
 25  1  1  0  0  0  0
 25 26  1  0  0  0  0
 26 27  1  0  0  0  0
 29 28  1  0  0  0  0
 30 25  1  0  0  0  0
 31 30  1  0  0  0  0
 31 33  1  0  0  0  0
 32 31  1  0  0  0  0
 34 36  1  0  0  0  0
 34 31  1  0  0  0  0
 35 34  1  0  0  0  0
 37 34  1  0  0  0  0
 38 37  1  0  0  0  0
 39 38  2  0  0  0  0
 40 39  1  0  0  0  0
 41 39  1  0  0  0  0
 41 43  1  0  0  0  0
 42 41  2  0  0  0  0
 43 44  1  0  0  0  0
 44 37  1  0  0  0  0
 44 45  2  0  0  0  0
 46 43  1  0  0  0  0
M  END
>  <minimizedAffinity>
-5.17649555

>  <minimizedRMSD>
2.21203375

$$$$
