
 OpenBabel03242511353D

 36 38  0  0  1  0  0  0  0  0999 V2000
   38.8430   31.9310   41.0390 C   0  0  0  0  0  3  0  0  0  0  0  0
   38.9110   32.7180   39.9710 C   0  0  0  0  0  3  0  0  0  0  0  0
   37.8450   30.8760   41.0580 C   0  0  0  0  0  0  0  0  0  0  0  0
   36.5270   31.2310   40.7540 C   0  0  0  0  0  0  0  0  0  0  0  0
   35.5280   30.2350   40.7630 C   0  0  0  0  0  0  0  0  0  0  0  0
   35.9020   28.9570   41.0700 N   0  0  0  0  0  0  0  0  0  0  0  0
   37.1790   28.6590   41.3560 C   0  0  0  0  0  0  0  0  0  0  0  0
   38.1020   29.6060   41.3430 N   0  0  0  0  0  0  0  0  0  0  0  0
   36.1870   32.2410   40.5020 H   0  0  0  0  0  0  0  0  0  0  0  0
   34.4920   30.4690   40.5320 H   0  0  0  0  0  0  0  0  0  0  0  0
   37.6520   27.3600   41.6860 N   0  0  0  0  0  0  0  0  0  0  0  0
   37.1430   26.4240   40.8470 C   0  0  0  0  0  3  0  0  0  0  0  0
   37.4540   25.0860   40.9630 C   0  0  0  0  0  0  0  0  0  0  0  0
   37.0770   24.3120   40.3250 H   0  0  0  0  0  0  0  0  0  0  0  0
   38.3220   24.7180   41.9860 C   0  0  0  0  0  0  0  0  0  0  0  0
   38.6350   23.5180   42.1340 O   0  0  0  0  0  0  0  0  0  0  0  0
   38.8060   25.6810   42.7980 N   0  0  0  0  0  0  0  0  0  0  0  0
   38.4830   26.9770   42.6580 C   0  0  0  0  0  0  0  0  0  0  0  0
   38.8920   27.9190   43.3730 O   0  0  0  0  0  0  0  0  0  0  0  0
   39.4670   25.4480   43.5880 H   0  0  0  0  0  0  0  0  0  0  0  0
   39.8870   33.8130   39.8560 C   0  0  0  0  0  0  0  0  0  0  0  0
   40.0180   34.3730   40.8140 H   0  0  0  0  0  0  0  0  0  0  0  0
   39.5430   34.4960   39.0460 H   0  0  0  0  0  0  0  0  0  0  0  0
   42.6550   33.5340   37.5490 C   0  0  1  0  0  0  0  0  0  0  0  0
   42.0610   34.3480   38.7090 C   0  0  0  0  0  0  0  0  0  0  0  0
   41.2570   33.3060   39.4010 C   0  0  2  0  0  0  0  0  0  0  0  0
   41.1730   32.1970   38.6180 O   0  0  0  0  0  0  0  0  0  0  0  0
   41.5560   32.5170   37.3290 C   0  0  0  0  0  0  0  0  0  0  0  0
   43.5990   33.0520   37.8460 H   0  0  0  0  0  0  0  0  0  0  0  0
   42.9010   34.6860   39.3750 H   0  0  0  0  0  0  0  0  0  0  0  0
   41.4500   35.1790   38.3300 H   0  0  0  0  0  0  0  0  0  0  0  0
   41.7620   33.0000   40.3600 H   0  0  0  0  0  0  0  0  0  0  0  0
   40.7170   33.0100   36.8200 H   0  0  0  0  0  0  0  0  0  0  0  0
   41.9510   31.6760   36.7550 H   0  0  0  0  0  0  0  0  0  0  0  0
   42.8510   34.3450   36.4370 O   0  0  0  0  0  0  0  0  0  0  0  0
   41.9920   34.4670   35.9660 H   0  0  0  0  0  0  0  0  0  0  0  0
  1  3  1  0  0  0  0
  2  1  2  0  0  0  0
  3  8  1  0  0  0  0
  4  5  1  0  0  0  0
  4  3  2  0  0  0  0
  5  6  2  0  0  0  0
  6  7  1  0  0  0  0
  7 11  1  0  0  0  0
  8  7  2  0  0  0  0
  9  4  1  0  0  0  0
 10  5  1  0  0  0  0
 11 18  1  0  0  0  0
 12 13  2  0  0  0  0
 12 11  1  0  0  0  0
 13 15  1  0  0  0  0
 14 13  1  0  0  0  0
 15 16  2  0  0  0  0
 15 17  1  0  0  0  0
 17 20  1  0  0  0  0
 18 17  1  0  0  0  0
 18 19  2  0  0  0  0
 21  2  1  0  0  0  0
 21 22  1  0  0  0  0
 23 21  1  0  0  0  0
 24 29  1  1  0  0  0
 24 25  1  0  0  0  0
 25 30  1  0  0  0  0
 25 26  1  0  0  0  0
 26 21  1  0  0  0  0
 26 32  1  1  0  0  0
 27 26  1  0  0  0  0
 28 24  1  0  0  0  0
 28 27  1  0  0  0  0
 31 25  1  0  0  0  0
 33 28  1  0  0  0  0
 34 28  1  0  0  0  0
 35 24  1  0  0  0  0
 36 35  1  0  0  0  0
M  END
>  <minimizedAffinity>
-5.87676239

$$$$

 OpenBabel03242511353D

 36 38  0  0  1  0  0  0  0  0999 V2000
   37.8890   30.6800   39.8910 C   0  0  0  0  0  3  0  0  0  0  0  0
   37.2660   30.3480   41.0160 C   0  0  0  0  0  3  0  0  0  0  0  0
   38.6170   31.9350   39.8480 C   0  0  0  0  0  0  0  0  0  0  0  0
   38.0230   33.0460   40.4550 C   0  0  0  0  0  0  0  0  0  0  0  0
   38.6990   34.2840   40.4340 C   0  0  0  0  0  0  0  0  0  0  0  0
   39.9150   34.3370   39.8140 N   0  0  0  0  0  0  0  0  0  0  0  0
   40.4510   33.2470   39.2430 C   0  0  0  0  0  0  0  0  0  0  0  0
   39.8020   32.0940   39.2730 N   0  0  0  0  0  0  0  0  0  0  0  0
   37.0520   33.0450   40.9610 H   0  0  0  0  0  0  0  0  0  0  0  0
   38.2720   35.1710   40.8940 H   0  0  0  0  0  0  0  0  0  0  0  0
   41.7070   33.2150   38.5790 N   0  0  0  0  0  0  0  0  0  0  0  0
   42.6570   33.8660   39.2950 C   0  0  0  0  0  3  0  0  0  0  0  0
   43.9600   33.9730   38.8590 C   0  0  0  0  0  0  0  0  0  0  0  0
   44.7440   34.4780   39.3890 H   0  0  0  0  0  0  0  0  0  0  0  0
   44.2780   33.3820   37.6410 C   0  0  0  0  0  0  0  0  0  0  0  0
   45.4450   33.4510   37.2020 O   0  0  0  0  0  0  0  0  0  0  0  0
   43.3030   32.7430   36.9610 N   0  0  0  0  0  0  0  0  0  0  0  0
   42.0420   32.6570   37.4130 C   0  0  0  0  0  0  0  0  0  0  0  0
   41.0900   32.0830   36.8380 O   0  0  0  0  0  0  0  0  0  0  0  0
   43.4980   32.2810   36.0330 H   0  0  0  0  0  0  0  0  0  0  0  0
   36.5030   29.0990   41.1610 C   0  0  0  0  0  0  0  0  0  0  0  0
   36.6720   28.3930   40.3110 H   0  0  0  0  0  0  0  0  0  0  0  0
   35.4240   29.3610   41.2440 H   0  0  0  0  0  0  0  0  0  0  0  0
   38.7370   27.5130   43.5190 C   0  0  1  0  0  0  0  0  0  0  0  0
   38.1140   28.8470   43.0770 C   0  0  0  0  0  0  0  0  0  0  0  0
   36.8430   28.3740   42.4650 C   0  0  2  0  0  0  0  0  0  0  0  0
   36.8800   27.0220   42.3200 O   0  0  0  0  0  0  0  0  0  0  0  0
   38.1820   26.5820   42.4630 C   0  0  0  0  0  0  0  0  0  0  0  0
   38.3960   27.2310   44.5270 H   0  0  0  0  0  0  0  0  0  0  0  0
   37.8900   29.4580   43.9940 H   0  0  0  0  0  0  0  0  0  0  0  0
   38.7670   29.3650   42.3620 H   0  0  0  0  0  0  0  0  0  0  0  0
   35.9750   28.6140   43.1410 H   0  0  0  0  0  0  0  0  0  0  0  0
   38.7220   26.7540   41.5220 H   0  0  0  0  0  0  0  0  0  0  0  0
   38.2730   25.5500   42.8070 H   0  0  0  0  0  0  0  0  0  0  0  0
   40.1240   27.5890   43.4770 O   0  0  0  0  0  0  0  0  0  0  0  0
   40.4300   27.4710   42.5460 H   0  0  0  0  0  0  0  0  0  0  0  0
  1  2  2  0  0  0  0
  2 21  1  0  0  0  0
  3  1  1  0  0  0  0
  3  4  1  0  0  0  0
  4  9  1  0  0  0  0
  5  4  2  0  0  0  0
  5 10  1  0  0  0  0
  6  5  1  0  0  0  0
  7  8  1  0  0  0  0
  7  6  2  0  0  0  0
  8  3  2  0  0  0  0
 11  7  1  0  0  0  0
 11 12  1  0  0  0  0
 13 12  2  0  0  0  0
 13 14  1  0  0  0  0
 15 13  1  0  0  0  0
 16 15  2  0  0  0  0
 17 18  1  0  0  0  0
 17 15  1  0  0  0  0
 18 11  1  0  0  0  0
 19 18  2  0  0  0  0
 20 17  1  0  0  0  0
 21 23  1  0  0  0  0
 21 26  1  0  0  0  0
 22 21  1  0  0  0  0
 24 29  1  1  0  0  0
 25 24  1  0  0  0  0
 25 30  1  0  0  0  0
 26 25  1  0  0  0  0
 26 32  1  1  0  0  0
 27 28  1  0  0  0  0
 27 26  1  0  0  0  0
 28 34  1  0  0  0  0
 28 24  1  0  0  0  0
 31 25  1  0  0  0  0
 33 28  1  0  0  0  0
 35 24  1  0  0  0  0
 36 35  1  0  0  0  0
M  END
>  <minimizedAffinity>
-5.85370731

$$$$

 OpenBabel03242511353D

 36 38  0  0  1  0  0  0  0  0999 V2000
   36.8690   25.9720   40.6310 C   0  0  0  0  0  3  0  0  0  0  0  0
   36.5390   26.2390   39.3730 C   0  0  0  0  0  3  0  0  0  0  0  0
   37.4510   27.0320   41.4340 C   0  0  0  0  0  0  0  0  0  0  0  0
   38.0720   26.6660   42.6320 C   0  0  0  0  0  0  0  0  0  0  0  0
   38.6500   27.6670   43.4410 C   0  0  0  0  0  0  0  0  0  0  0  0
   38.5740   28.9610   43.0080 N   0  0  0  0  0  0  0  0  0  0  0  0
   37.9690   29.2700   41.8500 C   0  0  0  0  0  0  0  0  0  0  0  0
   37.4330   28.3180   41.1050 N   0  0  0  0  0  0  0  0  0  0  0  0
   38.1540   25.6430   43.0140 H   0  0  0  0  0  0  0  0  0  0  0  0
   39.1420   27.4250   44.3790 H   0  0  0  0  0  0  0  0  0  0  0  0
   37.8470   30.5850   41.3270 N   0  0  0  0  0  0  0  0  0  0  0  0
   39.0180   31.2640   41.4240 C   0  0  0  0  0  3  0  0  0  0  0  0
   39.1520   32.5630   40.9840 C   0  0  0  0  0  0  0  0  0  0  0  0
   40.0560   33.1380   41.0400 H   0  0  0  0  0  0  0  0  0  0  0  0
   38.0320   33.1690   40.4260 C   0  0  0  0  0  0  0  0  0  0  0  0
   38.1020   34.3450   40.0120 O   0  0  0  0  0  0  0  0  0  0  0  0
   36.8870   32.4590   40.3490 N   0  0  0  0  0  0  0  0  0  0  0  0
   36.7880   31.1930   40.7870 C   0  0  0  0  0  0  0  0  0  0  0  0
   35.7620   30.4780   40.7470 O   0  0  0  0  0  0  0  0  0  0  0  0
   36.0110   32.8780   39.9340 H   0  0  0  0  0  0  0  0  0  0  0  0
   35.9440   25.2340   38.4790 C   0  0  0  0  0  0  0  0  0  0  0  0
   35.1210   24.6580   38.9700 H   0  0  0  0  0  0  0  0  0  0  0  0
   36.7540   24.5490   38.1420 H   0  0  0  0  0  0  0  0  0  0  0  0
   33.5130   27.0830   36.5460 C   0  0  1  0  0  0  0  0  0  0  0  0
   34.7620   27.1940   37.4340 C   0  0  0  0  0  0  0  0  0  0  0  0
   35.3930   25.8670   37.2000 C   0  0  2  0  0  0  0  0  0  0  0  0
   34.5200   25.0540   36.5460 O   0  0  0  0  0  0  0  0  0  0  0  0
   33.2490   25.5950   36.6190 C   0  0  0  0  0  0  0  0  0  0  0  0
   33.7290   27.4060   35.5160 H   0  0  0  0  0  0  0  0  0  0  0  0
   35.4220   28.0060   37.0230 H   0  0  0  0  0  0  0  0  0  0  0  0
   34.4820   27.3550   38.4840 H   0  0  0  0  0  0  0  0  0  0  0  0
   36.3000   25.9800   36.5430 H   0  0  0  0  0  0  0  0  0  0  0  0
   32.8190   25.3610   37.6020 H   0  0  0  0  0  0  0  0  0  0  0  0
   32.5890   25.3030   35.7990 H   0  0  0  0  0  0  0  0  0  0  0  0
   32.4700   27.8290   37.0810 O   0  0  0  0  0  0  0  0  0  0  0  0
   32.0450   27.3190   37.8130 H   0  0  0  0  0  0  0  0  0  0  0  0
  1  3  1  0  0  0  0
  2  1  2  0  0  0  0
  3  4  1  0  0  0  0
  4  9  1  0  0  0  0
  4  5  2  0  0  0  0
  5 10  1  0  0  0  0
  6  5  1  0  0  0  0
  7  6  2  0  0  0  0
  8  3  2  0  0  0  0
  8  7  1  0  0  0  0
 11 12  1  0  0  0  0
 11  7  1  0  0  0  0
 13 14  1  0  0  0  0
 13 12  2  0  0  0  0
 15 13  1  0  0  0  0
 16 15  2  0  0  0  0
 17 15  1  0  0  0  0
 17 18  1  0  0  0  0
 18 11  1  0  0  0  0
 19 18  2  0  0  0  0
 20 17  1  0  0  0  0
 21 22  1  0  0  0  0
 21  2  1  0  0  0  0
 23 21  1  0  0  0  0
 24 29  1  6  0  0  0
 24 28  1  0  0  0  0
 24 35  1  0  0  0  0
 24 25  1  0  0  0  0
 25 31  1  0  0  0  0
 26 32  1  6  0  0  0
 26 25  1  0  0  0  0
 26 21  1  0  0  0  0
 27 28  1  0  0  0  0
 27 26  1  0  0  0  0
 28 33  1  0  0  0  0
 30 25  1  0  0  0  0
 34 28  1  0  0  0  0
 35 36  1  0  0  0  0
M  END
>  <minimizedAffinity>
-5.84687567

$$$$

 OpenBabel03242511353D

 36 38  0  0  1  0  0  0  0  0999 V2000
   36.7700   26.0150   40.7810 C   0  0  0  0  0  3  0  0  0  0  0  0
   36.9230   24.7610   41.1900 C   0  0  0  0  0  3  0  0  0  0  0  0
   37.3730   27.0780   41.5660 C   0  0  0  0  0  0  0  0  0  0  0  0
   37.9840   26.7200   42.7720 C   0  0  0  0  0  0  0  0  0  0  0  0
   38.5800   27.7250   43.5630 C   0  0  0  0  0  0  0  0  0  0  0  0
   38.5330   29.0110   43.1070 N   0  0  0  0  0  0  0  0  0  0  0  0
   37.9370   29.3110   41.9420 C   0  0  0  0  0  0  0  0  0  0  0  0
   37.3820   28.3570   41.2130 N   0  0  0  0  0  0  0  0  0  0  0  0
   38.0430   25.7030   43.1730 H   0  0  0  0  0  0  0  0  0  0  0  0
   39.0650   27.4890   44.5070 H   0  0  0  0  0  0  0  0  0  0  0  0
   37.8420   30.6200   41.3950 N   0  0  0  0  0  0  0  0  0  0  0  0
   39.0270   31.2750   41.4820 C   0  0  0  0  0  3  0  0  0  0  0  0
   39.1900   32.5630   41.0190 C   0  0  0  0  0  0  0  0  0  0  0  0
   40.1050   33.1200   41.0660 H   0  0  0  0  0  0  0  0  0  0  0  0
   38.0830   33.1820   40.4480 C   0  0  0  0  0  0  0  0  0  0  0  0
   38.1780   34.3490   40.0130 O   0  0  0  0  0  0  0  0  0  0  0  0
   36.9240   32.4940   40.3800 N   0  0  0  0  0  0  0  0  0  0  0  0
   36.7970   31.2400   40.8420 C   0  0  0  0  0  0  0  0  0  0  0  0
   35.7570   30.5450   40.8120 O   0  0  0  0  0  0  0  0  0  0  0  0
   36.0580   32.9240   39.9560 H   0  0  0  0  0  0  0  0  0  0  0  0
   36.3520   23.6160   40.4650 C   0  0  0  0  0  0  0  0  0  0  0  0
   35.4650   23.9000   39.8460 H   0  0  0  0  0  0  0  0  0  0  0  0
   36.0760   22.8380   41.2110 H   0  0  0  0  0  0  0  0  0  0  0  0
   39.5320   23.3990   38.7600 C   0  0  1  0  0  0  0  0  0  0  0  0
   38.7760   23.0800   40.0600 C   0  0  0  0  0  0  0  0  0  0  0  0
   37.3840   22.9510   39.5520 C   0  0  2  0  0  0  0  0  0  0  0  0
   37.3200   23.4040   38.2710 O   0  0  0  0  0  0  0  0  0  0  0  0
   38.4590   24.1350   37.9870 C   0  0  0  0  0  0  0  0  0  0  0  0
   39.8410   22.4760   38.2450 H   0  0  0  0  0  0  0  0  0  0  0  0
   39.1330   22.0870   40.4460 H   0  0  0  0  0  0  0  0  0  0  0  0
   38.8920   23.8930   40.7890 H   0  0  0  0  0  0  0  0  0  0  0  0
   37.0750   21.8680   39.5390 H   0  0  0  0  0  0  0  0  0  0  0  0
   38.3490   25.1430   38.4080 H   0  0  0  0  0  0  0  0  0  0  0  0
   38.7260   24.1570   36.9280 H   0  0  0  0  0  0  0  0  0  0  0  0
   40.6340   24.2030   39.0240 O   0  0  0  0  0  0  0  0  0  0  0  0
   40.3380   25.1390   39.1310 H   0  0  0  0  0  0  0  0  0  0  0  0
  1  2  2  0  0  0  0
  1  3  1  0  0  0  0
  3  4  1  0  0  0  0
  4  9  1  0  0  0  0
  4  5  2  0  0  0  0
  5 10  1  0  0  0  0
  6  5  1  0  0  0  0
  7  6  2  0  0  0  0
  8  3  2  0  0  0  0
  8  7  1  0  0  0  0
 11 12  1  0  0  0  0
 11  7  1  0  0  0  0
 13 14  1  0  0  0  0
 13 12  2  0  0  0  0
 15 13  1  0  0  0  0
 16 15  2  0  0  0  0
 17 15  1  0  0  0  0
 17 18  1  0  0  0  0
 18 11  1  0  0  0  0
 19 18  2  0  0  0  0
 20 17  1  0  0  0  0
 21  2  1  0  0  0  0
 21 23  1  0  0  0  0
 22 21  1  0  0  0  0
 24 29  1  6  0  0  0
 24 35  1  0  0  0  0
 24 25  1  0  0  0  0
 25 30  1  0  0  0  0
 25 31  1  0  0  0  0
 26 32  1  6  0  0  0
 26 25  1  0  0  0  0
 26 21  1  0  0  0  0
 27 26  1  0  0  0  0
 28 27  1  0  0  0  0
 28 33  1  0  0  0  0
 28 24  1  0  0  0  0
 34 28  1  0  0  0  0
 35 36  1  0  0  0  0
M  END
>  <minimizedAffinity>
-5.8049078

$$$$

 OpenBabel03242511353D

 36 38  0  0  1  0  0  0  0  0999 V2000
   35.0550   29.0970   39.8610 C   0  0  0  0  0  3  0  0  0  0  0  0
   35.1200   29.1580   38.5360 C   0  0  0  0  0  3  0  0  0  0  0  0
   36.2300   29.4650   40.6290 C   0  0  0  0  0  0  0  0  0  0  0  0
   36.4680   28.7670   41.8170 C   0  0  0  0  0  0  0  0  0  0  0  0
   37.6010   29.0950   42.5920 C   0  0  0  0  0  0  0  0  0  0  0  0
   38.4190   30.0900   42.1380 N   0  0  0  0  0  0  0  0  0  0  0  0
   38.1550   30.7360   40.9920 C   0  0  0  0  0  0  0  0  0  0  0  0
   37.0880   30.4150   40.2780 N   0  0  0  0  0  0  0  0  0  0  0  0
   35.8380   27.9640   42.2150 H   0  0  0  0  0  0  0  0  0  0  0  0
   37.8210   28.5760   43.5210 H   0  0  0  0  0  0  0  0  0  0  0  0
   38.9510   31.7810   40.4490 N   0  0  0  0  0  0  0  0  0  0  0  0
   40.2710   31.4700   40.5020 C   0  0  0  0  0  3  0  0  0  0  0  0
   41.2450   32.3260   40.0360 C   0  0  0  0  0  0  0  0  0  0  0  0
   42.2990   32.1240   40.0580 H   0  0  0  0  0  0  0  0  0  0  0  0
   40.8290   33.5380   39.4980 C   0  0  0  0  0  0  0  0  0  0  0  0
   41.6730   34.3490   39.0610 O   0  0  0  0  0  0  0  0  0  0  0  0
   39.5060   33.8070   39.4630 N   0  0  0  0  0  0  0  0  0  0  0  0
   38.5810   32.9520   39.9270 C   0  0  0  0  0  0  0  0  0  0  0  0
   37.3430   33.1350   39.9260 O   0  0  0  0  0  0  0  0  0  0  0  0
   39.1440   34.7150   39.0650 H   0  0  0  0  0  0  0  0  0  0  0  0
   33.9840   28.8070   37.6700 C   0  0  0  0  0  0  0  0  0  0  0  0
   33.3280   29.6840   37.4470 H   0  0  0  0  0  0  0  0  0  0  0  0
   33.4040   28.0010   38.1730 H   0  0  0  0  0  0  0  0  0  0  0  0
   36.3260   28.2990   34.9640 C   0  0  1  0  0  0  0  0  0  0  0  0
   35.8840   27.8140   36.3540 C   0  0  0  0  0  0  0  0  0  0  0  0
   34.4480   28.2010   36.3440 C   0  0  2  0  0  0  0  0  0  0  0  0
   34.2000   29.0130   35.2810 O   0  0  0  0  0  0  0  0  0  0  0  0
   35.3980   29.4790   34.7720 C   0  0  0  0  0  0  0  0  0  0  0  0
   36.1570   27.5230   34.2010 H   0  0  0  0  0  0  0  0  0  0  0  0
   35.9760   26.6940   36.3870 H   0  0  0  0  0  0  0  0  0  0  0  0
   36.4580   28.3170   37.1440 H   0  0  0  0  0  0  0  0  0  0  0  0
   33.8010   27.2870   36.2240 H   0  0  0  0  0  0  0  0  0  0  0  0
   35.7510   30.3110   35.3970 H   0  0  0  0  0  0  0  0  0  0  0  0
   35.3630   29.7440   33.7130 H   0  0  0  0  0  0  0  0  0  0  0  0
   37.6620   28.6790   34.9850 O   0  0  0  0  0  0  0  0  0  0  0  0
   37.7390   29.5850   35.3710 H   0  0  0  0  0  0  0  0  0  0  0  0
  1  3  1  0  0  0  0
  2  1  2  0  0  0  0
  3  4  1  0  0  0  0
  4  9  1  0  0  0  0
  4  5  2  0  0  0  0
  5 10  1  0  0  0  0
  6  5  1  0  0  0  0
  7  6  2  0  0  0  0
  8  3  2  0  0  0  0
  8  7  1  0  0  0  0
 11 12  1  0  0  0  0
 11  7  1  0  0  0  0
 13 14  1  0  0  0  0
 13 12  2  0  0  0  0
 15 13  1  0  0  0  0
 16 15  2  0  0  0  0
 17 15  1  0  0  0  0
 17 18  1  0  0  0  0
 18 11  1  0  0  0  0
 19 18  2  0  0  0  0
 20 17  1  0  0  0  0
 21 23  1  0  0  0  0
 21  2  1  0  0  0  0
 22 21  1  0  0  0  0
 24 29  1  6  0  0  0
 24 35  1  0  0  0  0
 24 25  1  0  0  0  0
 25 30  1  0  0  0  0
 25 31  1  0  0  0  0
 26 32  1  6  0  0  0
 26 25  1  0  0  0  0
 26 21  1  0  0  0  0
 27 26  1  0  0  0  0
 28 24  1  0  0  0  0
 28 27  1  0  0  0  0
 28 33  1  0  0  0  0
 34 28  1  0  0  0  0
 35 36  1  0  0  0  0
M  END
>  <minimizedAffinity>
-5.72549343

$$$$

 OpenBabel03242511353D

 36 38  0  0  1  0  0  0  0  0999 V2000
   37.9710   31.0420   38.3890 C   0  0  0  0  0  3  0  0  0  0  0  0
   36.7260   30.7820   38.7710 C   0  0  0  0  0  3  0  0  0  0  0  0
   38.6530   32.1800   38.9790 C   0  0  0  0  0  0  0  0  0  0  0  0
   37.8870   33.0600   39.7510 C   0  0  0  0  0  0  0  0  0  0  0  0
   38.5130   34.1790   40.3410 C   0  0  0  0  0  0  0  0  0  0  0  0
   39.8520   34.3480   40.1290 N   0  0  0  0  0  0  0  0  0  0  0  0
   40.5500   33.4790   39.3810 C   0  0  0  0  0  0  0  0  0  0  0  0
   39.9470   32.4370   38.8350 N   0  0  0  0  0  0  0  0  0  0  0  0
   36.8140   32.9600   39.9450 H   0  0  0  0  0  0  0  0  0  0  0  0
   37.9540   34.8860   40.9480 H   0  0  0  0  0  0  0  0  0  0  0  0
   41.9410   33.5810   39.1100 N   0  0  0  0  0  0  0  0  0  0  0  0
   42.6410   33.8790   40.2340 C   0  0  0  0  0  3  0  0  0  0  0  0
   44.0100   34.0300   40.2280 C   0  0  0  0  0  0  0  0  0  0  0  0
   44.6040   34.2660   41.0900 H   0  0  0  0  0  0  0  0  0  0  0  0
   44.6670   33.8650   39.0140 C   0  0  0  0  0  0  0  0  0  0  0  0
   45.9080   33.9920   38.9550 O   0  0  0  0  0  0  0  0  0  0  0  0
   43.9340   33.5690   37.9200 N   0  0  0  0  0  0  0  0  0  0  0  0
   42.5990   33.4280   37.9580 C   0  0  0  0  0  0  0  0  0  0  0  0
   41.8590   33.1550   36.9870 O   0  0  0  0  0  0  0  0  0  0  0  0
   44.3900   33.4350   36.9770 H   0  0  0  0  0  0  0  0  0  0  0  0
   35.9520   29.6530   38.2320 C   0  0  0  0  0  0  0  0  0  0  0  0
   36.4440   29.1810   37.3460 H   0  0  0  0  0  0  0  0  0  0  0  0
   34.9380   30.0270   37.9650 H   0  0  0  0  0  0  0  0  0  0  0  0
   36.2240   28.2150   41.5370 C   0  0  1  0  0  0  0  0  0  0  0  0
   35.3880   29.1300   40.6270 C   0  0  0  0  0  0  0  0  0  0  0  0
   35.7180   28.5710   39.2880 C   0  0  2  0  0  0  0  0  0  0  0  0
   36.7640   27.7080   39.3970 O   0  0  0  0  0  0  0  0  0  0  0  0
   37.3830   27.8910   40.6190 C   0  0  0  0  0  0  0  0  0  0  0  0
   35.6610   27.3100   41.8140 H   0  0  0  0  0  0  0  0  0  0  0  0
   34.3000   28.9600   40.8530 H   0  0  0  0  0  0  0  0  0  0  0  0
   35.6940   30.1790   40.7410 H   0  0  0  0  0  0  0  0  0  0  0  0
   34.8430   27.9870   38.8860 H   0  0  0  0  0  0  0  0  0  0  0  0
   38.0400   28.7690   40.5580 H   0  0  0  0  0  0  0  0  0  0  0  0
   37.9060   27.0100   40.9950 H   0  0  0  0  0  0  0  0  0  0  0  0
   36.6300   28.9030   42.6740 O   0  0  0  0  0  0  0  0  0  0  0  0
   37.4110   29.4670   42.4540 H   0  0  0  0  0  0  0  0  0  0  0  0
  1  2  2  0  0  0  0
  1  3  1  0  0  0  0
  3  4  1  0  0  0  0
  4  9  1  0  0  0  0
  4  5  2  0  0  0  0
  5 10  1  0  0  0  0
  6  5  1  0  0  0  0
  7  6  2  0  0  0  0
  8  3  2  0  0  0  0
  8  7  1  0  0  0  0
 11  7  1  0  0  0  0
 11 12  1  0  0  0  0
 13 12  2  0  0  0  0
 13 14  1  0  0  0  0
 15 13  1  0  0  0  0
 16 15  2  0  0  0  0
 17 18  1  0  0  0  0
 17 15  1  0  0  0  0
 18 11  1  0  0  0  0
 19 18  2  0  0  0  0
 20 17  1  0  0  0  0
 21  2  1  0  0  0  0
 21 26  1  0  0  0  0
 22 21  1  0  0  0  0
 23 21  1  0  0  0  0
 24 29  1  1  0  0  0
 24 35  1  0  0  0  0
 25 31  1  0  0  0  0
 25 30  1  0  0  0  0
 25 24  1  0  0  0  0
 26 32  1  6  0  0  0
 26 27  1  0  0  0  0
 26 25  1  0  0  0  0
 27 28  1  0  0  0  0
 28 34  1  0  0  0  0
 28 24  1  0  0  0  0
 33 28  1  0  0  0  0
 36 35  1  0  0  0  0
M  END
>  <minimizedAffinity>
-5.71695471

$$$$

 OpenBabel03242511353D

 36 38  0  0  1  0  0  0  0  0999 V2000
   34.2500   28.6470   37.2180 C   0  0  0  0  0  3  0  0  0  0  0  0
   32.9760   29.0210   37.2140 C   0  0  0  0  0  3  0  0  0  0  0  0
   35.1490   29.2640   38.1760 C   0  0  0  0  0  0  0  0  0  0  0  0
   34.7730   29.2370   39.5230 C   0  0  0  0  0  0  0  0  0  0  0  0
   35.6210   29.8260   40.4850 C   0  0  0  0  0  0  0  0  0  0  0  0
   36.7810   30.4000   40.0480 N   0  0  0  0  0  0  0  0  0  0  0  0
   37.1050   30.4050   38.7450 C   0  0  0  0  0  0  0  0  0  0  0  0
   36.2980   29.8470   37.8580 N   0  0  0  0  0  0  0  0  0  0  0  0
   33.8540   28.7870   39.9120 H   0  0  0  0  0  0  0  0  0  0  0  0
   35.3650   29.8260   41.5410 H   0  0  0  0  0  0  0  0  0  0  0  0
   38.2880   30.9790   38.2080 N   0  0  0  0  0  0  0  0  0  0  0  0
   39.3760   30.6430   38.9460 C   0  0  0  0  0  3  0  0  0  0  0  0
   40.6440   31.0790   38.6260 C   0  0  0  0  0  0  0  0  0  0  0  0
   41.5310   30.8410   39.1780 H   0  0  0  0  0  0  0  0  0  0  0  0
   40.7780   31.8880   37.5020 C   0  0  0  0  0  0  0  0  0  0  0  0
   41.9050   32.3090   37.1690 O   0  0  0  0  0  0  0  0  0  0  0  0
   39.6700   32.1970   36.7960 N   0  0  0  0  0  0  0  0  0  0  0  0
   38.4480   31.7560   37.1340 C   0  0  0  0  0  0  0  0  0  0  0  0
   37.3810   32.0030   36.5280 O   0  0  0  0  0  0  0  0  0  0  0  0
   39.7230   32.8080   35.9360 H   0  0  0  0  0  0  0  0  0  0  0  0
   31.9870   28.4550   36.2830 C   0  0  0  0  0  0  0  0  0  0  0  0
   31.6450   27.4350   36.5900 H   0  0  0  0  0  0  0  0  0  0  0  0
   32.4450   28.4260   35.2690 H   0  0  0  0  0  0  0  0  0  0  0  0
   29.7290   31.0700   37.3470 C   0  0  1  0  0  0  0  0  0  0  0  0
   31.0170   30.7580   36.5660 C   0  0  0  0  0  0  0  0  0  0  0  0
   30.7580   29.3550   36.1450 C   0  0  2  0  0  0  0  0  0  0  0  0
   29.6740   28.8700   36.8100 O   0  0  0  0  0  0  0  0  0  0  0  0
   29.3870   29.6960   37.8810 C   0  0  0  0  0  0  0  0  0  0  0  0
   28.9430   31.4510   36.6770 H   0  0  0  0  0  0  0  0  0  0  0  0
   31.0560   31.4250   35.6620 H   0  0  0  0  0  0  0  0  0  0  0  0
   31.8990   30.8560   37.2130 H   0  0  0  0  0  0  0  0  0  0  0  0
   30.5190   29.3180   35.0450 H   0  0  0  0  0  0  0  0  0  0  0  0
   30.0710   29.4590   38.7070 H   0  0  0  0  0  0  0  0  0  0  0  0
   28.3410   29.6790   38.1940 H   0  0  0  0  0  0  0  0  0  0  0  0
   29.9870   31.9800   38.3640 O   0  0  0  0  0  0  0  0  0  0  0  0
   30.3880   31.5070   39.1320 H   0  0  0  0  0  0  0  0  0  0  0  0
  1  3  1  0  0  0  0
  2  1  2  0  0  0  0
  3  4  1  0  0  0  0
  4  9  1  0  0  0  0
  4  5  2  0  0  0  0
  5 10  1  0  0  0  0
  6  5  1  0  0  0  0
  7  6  2  0  0  0  0
  8  3  2  0  0  0  0
  8  7  1  0  0  0  0
 11  7  1  0  0  0  0
 11 12  1  0  0  0  0
 13 12  2  0  0  0  0
 13 14  1  0  0  0  0
 15 13  1  0  0  0  0
 16 15  2  0  0  0  0
 17 18  1  0  0  0  0
 17 15  1  0  0  0  0
 18 11  1  0  0  0  0
 19 18  2  0  0  0  0
 20 17  1  0  0  0  0
 21 22  1  0  0  0  0
 21  2  1  0  0  0  0
 23 21  1  0  0  0  0
 24 29  1  6  0  0  0
 24 28  1  0  0  0  0
 24 35  1  0  0  0  0
 25 31  1  0  0  0  0
 25 24  1  0  0  0  0
 26 32  1  6  0  0  0
 26 21  1  0  0  0  0
 26 25  1  0  0  0  0
 26 27  1  0  0  0  0
 27 28  1  0  0  0  0
 28 34  1  0  0  0  0
 28 33  1  0  0  0  0
 30 25  1  0  0  0  0
 35 36  1  0  0  0  0
M  END
>  <minimizedAffinity>
-5.63915062

$$$$

 OpenBabel03242511353D

 36 38  0  0  1  0  0  0  0  0999 V2000
   37.1780   31.1830   38.6640 C   0  0  0  0  0  3  0  0  0  0  0  0
   37.0660   32.0320   39.6790 C   0  0  0  0  0  3  0  0  0  0  0  0
   36.7420   29.8110   38.8580 C   0  0  0  0  0  0  0  0  0  0  0  0
   35.6780   29.3560   38.0730 C   0  0  0  0  0  0  0  0  0  0  0  0
   35.2260   28.0290   38.2320 C   0  0  0  0  0  0  0  0  0  0  0  0
   35.8570   27.2450   39.1560 N   0  0  0  0  0  0  0  0  0  0  0  0
   36.8760   27.7210   39.8890 C   0  0  0  0  0  0  0  0  0  0  0  0
   37.2860   28.9680   39.7260 N   0  0  0  0  0  0  0  0  0  0  0  0
   35.1470   29.9510   37.3240 H   0  0  0  0  0  0  0  0  0  0  0  0
   34.4020   27.6360   37.6420 H   0  0  0  0  0  0  0  0  0  0  0  0
   37.5860   26.9760   40.8690 N   0  0  0  0  0  0  0  0  0  0  0  0
   37.8940   25.7350   40.4140 C   0  0  0  0  0  3  0  0  0  0  0  0
   38.5830   24.8220   41.1820 C   0  0  0  0  0  0  0  0  0  0  0  0
   38.8480   23.8320   40.8660 H   0  0  0  0  0  0  0  0  0  0  0  0
   38.9600   25.2160   42.4610 C   0  0  0  0  0  0  0  0  0  0  0  0
   39.5860   24.4250   43.1970 O   0  0  0  0  0  0  0  0  0  0  0  0
   38.6340   26.4590   42.8740 N   0  0  0  0  0  0  0  0  0  0  0  0
   37.9620   27.3270   42.1010 C   0  0  0  0  0  0  0  0  0  0  0  0
   37.6270   28.4900   42.4180 O   0  0  0  0  0  0  0  0  0  0  0  0
   38.8990   26.8020   43.8370 H   0  0  0  0  0  0  0  0  0  0  0  0
   37.4790   33.4410   39.5820 C   0  0  0  0  0  0  0  0  0  0  0  0
   36.6390   34.1480   39.7930 H   0  0  0  0  0  0  0  0  0  0  0  0
   37.8880   33.6100   38.5610 H   0  0  0  0  0  0  0  0  0  0  0  0
   40.9590   33.6060   40.5460 C   0  0  1  0  0  0  0  0  0  0  0  0
   39.8100   34.3480   39.8450 C   0  0  0  0  0  0  0  0  0  0  0  0
   38.6310   33.7610   40.5360 C   0  0  2  0  0  0  0  0  0  0  0  0
   39.0200   32.6840   41.2700 O   0  0  0  0  0  0  0  0  0  0  0  0
   40.2840   32.2900   40.8700 C   0  0  0  0  0  0  0  0  0  0  0  0
   41.2730   34.1340   41.4590 H   0  0  0  0  0  0  0  0  0  0  0  0
   39.8900   35.4420   40.0910 H   0  0  0  0  0  0  0  0  0  0  0  0
   39.8170   34.1470   38.7650 H   0  0  0  0  0  0  0  0  0  0  0  0
   38.1890   34.5100   41.2510 H   0  0  0  0  0  0  0  0  0  0  0  0
   40.1980   31.7010   39.9470 H   0  0  0  0  0  0  0  0  0  0  0  0
   40.8560   31.7690   41.6400 H   0  0  0  0  0  0  0  0  0  0  0  0
   42.0340   33.4460   39.6810 O   0  0  0  0  0  0  0  0  0  0  0  0
   41.8560   32.6860   39.0760 H   0  0  0  0  0  0  0  0  0  0  0  0
  1  3  1  0  0  0  0
  1  2  2  0  0  0  0
  3  8  1  0  0  0  0
  4  5  1  0  0  0  0
  4  3  2  0  0  0  0
  5  6  2  0  0  0  0
  6  7  1  0  0  0  0
  7 11  1  0  0  0  0
  8  7  2  0  0  0  0
  9  4  1  0  0  0  0
 10  5  1  0  0  0  0
 11 18  1  0  0  0  0
 12 11  1  0  0  0  0
 12 13  2  0  0  0  0
 13 15  1  0  0  0  0
 14 13  1  0  0  0  0
 15 17  1  0  0  0  0
 15 16  2  0  0  0  0
 17 20  1  0  0  0  0
 18 19  2  0  0  0  0
 18 17  1  0  0  0  0
 21  2  1  0  0  0  0
 21 22  1  0  0  0  0
 21 26  1  0  0  0  0
 23 21  1  0  0  0  0
 24 28  1  0  0  0  0
 24 29  1  1  0  0  0
 25 30  1  0  0  0  0
 25 26  1  0  0  0  0
 25 24  1  0  0  0  0
 26 32  1  1  0  0  0
 26 27  1  0  0  0  0
 28 27  1  0  0  0  0
 28 34  1  0  0  0  0
 31 25  1  0  0  0  0
 33 28  1  0  0  0  0
 35 24  1  0  0  0  0
 36 35  1  0  0  0  0
M  END
>  <minimizedAffinity>
-5.57136393

$$$$

 OpenBabel03242511353D

 36 38  0  0  1  0  0  0  0  0999 V2000
   36.5020   30.2650   41.2700 C   0  0  0  0  0  3  0  0  0  0  0  0
   37.2690   30.9250   40.4100 C   0  0  0  0  0  3  0  0  0  0  0  0
   36.9700   28.9850   41.7730 C   0  0  0  0  0  0  0  0  0  0  0  0
   37.4210   28.9400   43.0960 C   0  0  0  0  0  0  0  0  0  0  0  0
   37.8840   27.7140   43.6210 C   0  0  0  0  0  0  0  0  0  0  0  0
   37.8660   26.6210   42.8030 N   0  0  0  0  0  0  0  0  0  0  0  0
   37.4240   26.7080   41.5390 C   0  0  0  0  0  0  0  0  0  0  0  0
   36.9940   27.8650   41.0630 N   0  0  0  0  0  0  0  0  0  0  0  0
   37.4510   29.7910   43.7830 H   0  0  0  0  0  0  0  0  0  0  0  0
   38.2430   27.6360   44.6440 H   0  0  0  0  0  0  0  0  0  0  0  0
   37.3720   25.6220   40.6230 N   0  0  0  0  0  0  0  0  0  0  0  0
   36.8610   24.5100   41.2080 C   0  0  0  0  0  3  0  0  0  0  0  0
   36.7100   23.3240   40.5230 C   0  0  0  0  0  0  0  0  0  0  0  0
   36.3120   22.4200   40.9430 H   0  0  0  0  0  0  0  0  0  0  0  0
   37.1030   23.3000   39.1890 C   0  0  0  0  0  0  0  0  0  0  0  0
   36.9860   22.2500   38.5240 O   0  0  0  0  0  0  0  0  0  0  0  0
   37.6050   24.4290   38.6460 N   0  0  0  0  0  0  0  0  0  0  0  0
   37.7400   25.5700   39.3410 C   0  0  0  0  0  0  0  0  0  0  0  0
   38.1970   26.6500   38.9030 O   0  0  0  0  0  0  0  0  0  0  0  0
   37.9170   24.4580   37.6380 H   0  0  0  0  0  0  0  0  0  0  0  0
   36.8840   32.2270   39.8440 C   0  0  0  0  0  0  0  0  0  0  0  0
   36.2810   32.8430   40.5560 H   0  0  0  0  0  0  0  0  0  0  0  0
   36.3140   32.0410   38.9070 H   0  0  0  0  0  0  0  0  0  0  0  0
   40.2470   33.4980   40.2240 C   0  0  1  0  0  0  0  0  0  0  0  0
   39.3920   32.3430   39.6800 C   0  0  0  0  0  0  0  0  0  0  0  0
   38.1060   33.0430   39.4170 C   0  0  2  0  0  0  0  0  0  0  0  0
   38.1350   34.2800   39.9810 O   0  0  0  0  0  0  0  0  0  0  0  0
   39.1810   34.3480   40.8830 C   0  0  0  0  0  0  0  0  0  0  0  0
   40.7480   34.0400   39.4070 H   0  0  0  0  0  0  0  0  0  0  0  0
   39.8400   31.9930   38.7100 H   0  0  0  0  0  0  0  0  0  0  0  0
   39.2990   31.5410   40.4250 H   0  0  0  0  0  0  0  0  0  0  0  0
   37.9620   33.1850   38.3090 H   0  0  0  0  0  0  0  0  0  0  0  0
   38.8750   33.8650   41.8210 H   0  0  0  0  0  0  0  0  0  0  0  0
   39.5700   35.3550   41.0450 H   0  0  0  0  0  0  0  0  0  0  0  0
   41.1800   33.0240   41.1380 O   0  0  0  0  0  0  0  0  0  0  0  0
   40.7400   32.8830   42.0110 H   0  0  0  0  0  0  0  0  0  0  0  0
  1  3  1  0  0  0  0
  2  1  2  0  0  0  0
  3  4  1  0  0  0  0
  4  5  2  0  0  0  0
  4  9  1  0  0  0  0
  5 10  1  0  0  0  0
  6  5  1  0  0  0  0
  7  6  2  0  0  0  0
  8  7  1  0  0  0  0
  8  3  2  0  0  0  0
 11 12  1  0  0  0  0
 11  7  1  0  0  0  0
 13 14  1  0  0  0  0
 13 12  2  0  0  0  0
 15 13  1  0  0  0  0
 16 15  2  0  0  0  0
 17 15  1  0  0  0  0
 17 18  1  0  0  0  0
 18 11  1  0  0  0  0
 19 18  2  0  0  0  0
 20 17  1  0  0  0  0
 21  2  1  0  0  0  0
 21 22  1  0  0  0  0
 23 21  1  0  0  0  0
 24 29  1  6  0  0  0
 24 28  1  0  0  0  0
 24 35  1  0  0  0  0
 25 24  1  0  0  0  0
 25 31  1  0  0  0  0
 26 32  1  6  0  0  0
 26 25  1  0  0  0  0
 26 21  1  0  0  0  0
 26 27  1  0  0  0  0
 27 28  1  0  0  0  0
 28 34  1  0  0  0  0
 28 33  1  0  0  0  0
 30 25  1  0  0  0  0
 35 36  1  0  0  0  0
M  END
>  <minimizedAffinity>
-5.36901474

$$$$
