
 OpenBabel03242520203D

 36 38  0  0  0  0  0  0  0  0999 V2000
   41.7280   35.4720   38.9630 C   0  0  0  0  0  0  0  0  0  0  0  0
   41.9650   36.5580   39.0010 H   0  0  0  0  0  0  0  0  0  0  0  0
   41.8190   35.1420   37.8970 H   0  0  0  0  0  0  0  0  0  0  0  0
   44.1180   34.3320   41.6560 C   0  0  0  0  0  0  0  0  0  0  0  0
   43.2270   35.1410   40.9250 C   0  0  0  0  0  0  0  0  0  0  0  0
   42.6790   34.6520   39.7510 C   0  0  0  0  0  0  0  0  0  0  0  0
   43.0420   33.3900   39.3640 N   0  0  0  0  0  0  0  0  0  0  0  0
   43.9130   32.6420   40.1090 C   0  0  0  0  0  0  0  0  0  0  0  0
   44.4340   33.1120   41.2290 N   0  0  0  0  0  0  0  0  0  0  0  0
   42.9980   36.1240   41.3080 H   0  0  0  0  0  0  0  0  0  0  0  0
   44.1540   31.6510   39.7360 H   0  0  0  0  0  0  0  0  0  0  0  0
   44.7090   34.8740   42.9100 C   0  0  0  0  0  0  0  0  0  0  0  0
   46.2040   35.3020   42.7100 C   0  0  0  0  0  0  0  0  0  0  0  0
   45.1220   36.2220   43.0760 C   0  0  0  0  0  0  0  0  0  0  0  0
   44.5650   34.1850   43.7880 H   0  0  0  0  0  0  0  0  0  0  0  0
   46.6130   35.2410   41.6910 H   0  0  0  0  0  0  0  0  0  0  0  0
   46.8740   34.9980   43.5390 H   0  0  0  0  0  0  0  0  0  0  0  0
   44.8340   36.9430   42.2530 H   0  0  0  0  0  0  0  0  0  0  0  0
   45.0880   36.7470   44.0530 H   0  0  0  0  0  0  0  0  0  0  0  0
   40.3150   35.2690   39.4230 C   0  0  0  0  0  0  0  0  0  0  0  0
   40.1040   35.9670   40.2580 H   0  0  0  0  0  0  0  0  0  0  0  0
   39.5660   35.5460   38.6340 H   0  0  0  0  0  0  0  0  0  0  0  0
   39.9360   33.5230   41.1490 C   0  0  0  0  0  0  0  0  0  0  0  0
   39.9490   34.3800   42.0860 O   0  0  0  0  0  0  0  0  0  0  0  0
   40.0180   33.8950   39.7900 N   0  0  0  0  0  0  0  0  0  0  0  0
   39.8790   33.2650   39.0120 H   0  0  0  0  0  0  0  0  0  0  0  0
   41.6430   29.9340   43.3470 H   0  0  0  0  0  0  0  0  0  0  0  0
   40.8500   30.3000   42.7800 N   0  0  0  0  0  0  0  0  0  0  0  0
   40.8580   31.5680   42.3400 C   0  0  0  0  0  3  0  0  0  0  0  0
   39.8310   32.1320   41.5740 C   0  0  0  0  0  0  0  0  0  0  0  0
   38.8490   31.2310   41.3410 C   0  0  0  0  0  0  0  0  0  0  0  0
   37.8650   31.5920   40.6670 O   0  0  0  0  0  0  0  0  0  0  0  0
   38.8080   29.9690   41.7580 N   0  0  0  0  0  0  0  0  0  0  0  0
   39.8230   29.4830   42.4930 C   0  0  0  0  0  0  0  0  0  0  0  0
   39.8600   28.3200   42.9190 O   0  0  0  0  0  0  0  0  0  0  0  0
   38.0280   29.3290   41.5470 H   0  0  0  0  0  0  0  0  0  0  0  0
  1  2  1  0  0  0  0
  1 20  1  0  0  0  0
  1  6  1  0  0  0  0
  3  1  1  0  0  0  0
  4 12  1  0  0  0  0
  5 10  1  0  0  0  0
  5  4  2  0  0  0  0
  6  5  1  0  0  0  0
  7  6  2  0  0  0  0
  7  8  1  0  0  0  0
  8  9  2  0  0  0  0
  9  4  1  0  0  0  0
 11  8  1  0  0  0  0
 12 14  1  0  0  0  0
 12 15  1  0  0  0  0
 13 12  1  0  0  0  0
 13 14  1  0  0  0  0
 13 17  1  0  0  0  0
 14 19  1  0  0  0  0
 16 13  1  0  0  0  0
 18 14  1  0  0  0  0
 20 25  1  0  0  0  0
 20 21  1  0  0  0  0
 22 20  1  0  0  0  0
 23 30  1  0  0  0  0
 23 24  2  0  0  0  0
 25 23  1  0  0  0  0
 26 25  1  0  0  0  0
 28 27  1  0  0  0  0
 29 28  1  0  0  0  0
 30 29  2  0  0  0  0
 31 30  1  0  0  0  0
 31 33  1  0  0  0  0
 32 31  2  0  0  0  0
 33 34  1  0  0  0  0
 34 28  1  0  0  0  0
 34 35  2  0  0  0  0
 36 33  1  0  0  0  0
M  END
>  <minimizedAffinity>
-4.97104692

>  <minimizedRMSD>
2.13534451

$$$$
