
 OpenBabel03252508253D

 42 46  0  0  1  0  0  0  0  0999 V2000
   46.0770   30.0830   46.5710 C   0  0  1  0  0  0  0  0  0  0  0  0
   46.2780   29.9550   48.0210 C   0  0  0  0  0  0  0  0  0  0  0  0
   44.9520   29.5170   47.2840 C   0  0  2  0  0  0  0  0  0  0  0  0
   46.9410   29.4910   46.0980 H   0  0  0  0  0  0  0  0  0  0  0  0
   46.1590   30.7990   48.7070 H   0  0  0  0  0  0  0  0  0  0  0  0
   46.7330   29.0710   48.5060 H   0  0  0  0  0  0  0  0  0  0  0  0
   44.1520   30.1340   47.8010 H   0  0  0  0  0  0  0  0  0  0  0  0
   44.5670   28.1020   47.2740 C   0  0  0  0  0  0  0  0  0  0  0  0
   45.0810   27.0950   48.0300 C   0  0  0  0  0  0  0  0  0  0  0  0
   44.7810   25.7470   47.9010 C   0  0  0  0  0  0  0  0  0  0  0  0
   43.8630   25.4050   46.8970 C   0  0  0  0  0  0  0  0  0  0  0  0
   43.3190   26.4200   46.1100 C   0  0  0  0  0  0  0  0  0  0  0  0
   42.3740   26.0400   45.1770 C   0  0  0  0  0  0  0  0  0  0  0  0
   41.7480   27.0250   44.4150 C   0  0  0  0  0  0  0  0  0  0  0  0
   42.0600   28.3600   44.5860 C   0  0  0  0  0  0  0  0  0  0  0  0
   43.0110   28.6710   45.5290 C   0  0  0  0  0  0  0  0  0  0  0  0
   43.6680   27.7310   46.3060 C   0  0  0  0  0  0  0  0  0  0  0  0
   45.7920   27.4110   48.7980 H   0  0  0  0  0  0  0  0  0  0  0  0
   45.2100   24.9980   48.5200 H   0  0  0  0  0  0  0  0  0  0  0  0
   43.6090   24.3690   46.7680 H   0  0  0  0  0  0  0  0  0  0  0  0
   42.1390   24.9790   45.0590 H   0  0  0  0  0  0  0  0  0  0  0  0
   41.0170   26.6040   43.7050 H   0  0  0  0  0  0  0  0  0  0  0  0
   41.4790   28.9470   43.9210 H   0  0  0  0  0  0  0  0  0  0  0  0
   43.0150   29.7240   45.5370 H   0  0  0  0  0  0  0  0  0  0  0  0
   45.6110   33.7210   46.1440 C   0  0  0  0  0  0  0  0  0  0  0  0
   45.6190   33.8630   44.7120 C   0  0  0  0  0  0  0  0  0  0  0  0
   45.8030   32.6810   43.9270 C   0  0  0  0  0  0  0  0  0  0  0  0
   45.9590   31.4930   44.5500 N   0  0  0  0  0  0  0  0  0  0  0  0
   45.9400   31.4250   45.9280 C   0  0  0  0  0  0  0  0  0  0  0  0
   45.7730   32.5000   46.6930 N   0  0  0  0  0  0  0  0  0  0  0  0
   45.4680   34.6570   46.6590 H   0  0  0  0  0  0  0  0  0  0  0  0
   45.4950   34.8070   44.2150 H   0  0  0  0  0  0  0  0  0  0  0  0
   45.8150   32.8070   42.5110 N   0  0  0  0  0  0  0  0  0  0  0  0
   47.0090   33.1310   41.9790 C   0  0  0  0  0  3  0  0  0  0  0  0
   47.1450   33.2810   40.6120 C   0  0  0  0  0  0  0  0  0  0  0  0
   48.0960   33.5430   40.1560 H   0  0  0  0  0  0  0  0  0  0  0  0
   46.0490   33.0970   39.7810 C   0  0  0  0  0  0  0  0  0  0  0  0
   46.1580   33.2300   38.5340 O   0  0  0  0  0  0  0  0  0  0  0  0
   44.8820   32.7730   40.3700 N   0  0  0  0  0  0  0  0  0  0  0  0
   44.7520   32.6270   41.7050 C   0  0  0  0  0  0  0  0  0  0  0  0
   43.6650   32.3240   42.2670 O   0  0  0  0  0  0  0  0  0  0  0  0
   44.0600   32.6330   39.7630 H   0  0  0  0  0  0  0  0  0  0  0  0
  1  4  1  6  0  0  0
  1  3  1  0  0  0  0
  1  2  1  0  0  0  0
  2  6  1  0  0  0  0
  2  5  1  0  0  0  0
  3  7  1  1  0  0  0
  3  2  1  0  0  0  0
  8  3  1  0  0  0  0
  8  9  1  0  0  0  0
  9 18  1  0  0  0  0
 10  9  2  0  0  0  0
 10 19  1  0  0  0  0
 11 10  1  0  0  0  0
 12 17  1  0  0  0  0
 12 11  2  0  0  0  0
 13 12  1  0  0  0  0
 14 15  1  0  0  0  0
 14 13  2  0  0  0  0
 15 16  2  0  0  0  0
 16 24  1  0  0  0  0
 16 17  1  0  0  0  0
 17  8  2  0  0  0  0
 20 11  1  0  0  0  0
 21 13  1  0  0  0  0
 22 14  1  0  0  0  0
 23 15  1  0  0  0  0
 25 31  1  0  0  0  0
 25 30  1  0  0  0  0
 26 25  2  0  0  0  0
 27 28  2  0  0  0  0
 27 26  1  0  0  0  0
 28 29  1  0  0  0  0
 29  1  1  0  0  0  0
 29 30  2  0  0  0  0
 32 26  1  0  0  0  0
 33 27  1  0  0  0  0
 34 33  1  0  0  0  0
 35 34  2  0  0  0  0
 36 35  1  0  0  0  0
 37 39  1  0  0  0  0
 37 35  1  0  0  0  0
 38 37  2  0  0  0  0
 39 40  1  0  0  0  0
 40 41  2  0  0  0  0
 40 33  1  0  0  0  0
 42 39  1  0  0  0  0
M  END
>  <minimizedAffinity>
-5.05753756

>  <minimizedRMSD>
3.01193547

$$$$
