
 OpenBabel03242518413D

 40 43  0  0  1  0  0  0  0  0999 V2000
   37.9530   30.5870   40.2620 O   0  0  0  0  0  0  0  0  0  0  0  0
   37.9300   31.9930   40.0740 C   0  0  0  0  0  0  0  0  0  0  0  0
   37.1550   32.8030   39.2380 C   0  0  0  0  0  0  0  0  0  0  0  0
   37.5240   34.1220   39.4320 C   0  0  0  0  0  0  0  0  0  0  0  0
   38.5020   34.0530   40.3730 C   0  0  0  0  0  0  0  0  0  0  0  0
   38.7380   32.8100   40.7460 O   0  0  0  0  0  0  0  0  0  0  0  0
   36.4170   32.3600   38.5880 H   0  0  0  0  0  0  0  0  0  0  0  0
   37.0840   34.9620   38.9120 H   0  0  0  0  0  0  0  0  0  0  0  0
   39.2270   35.2210   40.9200 C   0  0  2  0  0  0  0  0  0  0  0  0
   39.7010   36.2870   40.0380 C   0  0  0  0  0  0  0  0  0  0  0  0
   40.7100   35.2870   40.4710 C   0  0  1  0  0  0  0  0  0  0  0  0
   39.0430   35.3730   41.9940 H   0  0  0  0  0  0  0  0  0  0  0  0
   39.3910   36.3480   38.9690 H   0  0  0  0  0  0  0  0  0  0  0  0
   39.7440   37.3070   40.5180 H   0  0  0  0  0  0  0  0  0  0  0  0
   41.0640   34.4980   39.8140 H   0  0  0  0  0  0  0  0  0  0  0  0
   42.8820   35.1090   41.6640 C   0  0  0  0  0  0  0  0  0  0  0  0
   43.2830   34.1720   40.9150 O   0  0  0  0  0  0  0  0  0  0  0  0
   41.6000   35.7060   41.5510 N   0  0  0  0  0  0  0  0  0  0  0  0
   43.6130   35.4100   42.4010 H   0  0  0  0  0  0  0  0  0  0  0  0
   41.2910   36.4340   42.2250 H   0  0  0  0  0  0  0  0  0  0  0  0
   37.0610   30.0170   41.2170 C   0  0  0  0  0  0  0  0  0  0  0  0
   36.0170   30.6560   41.4630 O   0  0  0  0  0  0  0  0  0  0  0  0
   37.4760   28.7720   41.7790 C   0  0  0  0  0  0  0  0  0  0  0  0
   38.0870   28.8520   43.0050 C   0  0  0  0  0  0  0  0  0  0  0  0
   38.5180   27.6880   43.6170 C   0  0  0  0  0  0  0  0  0  0  0  0
   38.3160   26.5110   42.9750 N   0  0  0  0  0  0  0  0  0  0  0  0
   37.7170   26.4620   41.7790 C   0  0  0  0  0  0  0  0  0  0  0  0
   37.3090   27.6090   41.2070 N   0  0  0  0  0  0  0  0  0  0  0  0
   38.2840   29.7450   43.5790 H   0  0  0  0  0  0  0  0  0  0  0  0
   39.0070   27.6890   44.5860 H   0  0  0  0  0  0  0  0  0  0  0  0
   37.5330   25.1960   41.1510 N   0  0  0  0  0  0  0  0  0  0  0  0
   36.7560   24.9330   40.0810 C   0  0  0  0  0  3  0  0  0  0  0  0
   36.6670   23.6540   39.5710 C   0  0  0  0  0  0  0  0  0  0  0  0
   36.0360   23.4960   38.7180 H   0  0  0  0  0  0  0  0  0  0  0  0
   37.4080   22.6800   40.2130 C   0  0  0  0  0  0  0  0  0  0  0  0
   37.3360   21.4950   39.7530 O   0  0  0  0  0  0  0  0  0  0  0  0
   38.1730   22.9370   41.2660 N   0  0  0  0  0  0  0  0  0  0  0  0
   38.2410   24.2120   41.7470 C   0  0  0  0  0  0  0  0  0  0  0  0
   38.9950   24.3490   42.7500 O   0  0  0  0  0  0  0  0  0  0  0  0
   38.7060   22.1350   41.6950 H   0  0  0  0  0  0  0  0  0  0  0  0
  1 21  1  0  0  0  0
  2  1  1  0  0  0  0
  2  6  1  0  0  0  0
  3  4  1  0  0  0  0
  3  2  2  0  0  0  0
  4  5  2  0  0  0  0
  5  6  1  0  0  0  0
  5  9  1  0  0  0  0
  7  3  1  0  0  0  0
  8  4  1  0  0  0  0
  9 12  1  1  0  0  0
 10 11  1  0  0  0  0
 10 14  1  0  0  0  0
 10  9  1  0  0  0  0
 11 15  1  6  0  0  0
 11  9  1  0  0  0  0
 11 18  1  0  0  0  0
 13 10  1  0  0  0  0
 16 19  1  0  0  0  0
 17 16  2  0  0  0  0
 18 16  1  0  0  0  0
 18 20  1  0  0  0  0
 21 22  2  0  0  0  0
 21 23  1  0  0  0  0
 23 24  1  0  0  0  0
 24 29  1  0  0  0  0
 24 25  2  0  0  0  0
 25 30  1  0  0  0  0
 26 25  1  0  0  0  0
 27 26  2  0  0  0  0
 28 27  1  0  0  0  0
 28 23  2  0  0  0  0
 31 38  1  0  0  0  0
 31 27  1  0  0  0  0
 32 31  1  0  0  0  0
 33 32  2  0  0  0  0
 33 35  1  0  0  0  0
 34 33  1  0  0  0  0
 35 37  1  0  0  0  0
 36 35  2  0  0  0  0
 37 40  1  0  0  0  0
 37 38  1  0  0  0  0
 38 39  2  0  0  0  0
M  END
>  <minimizedAffinity>
-7.10828924

$$$$

 OpenBabel03242518413D

 40 43  0  0  1  0  0  0  0  0999 V2000
   37.4880   33.2730   40.5110 O   0  0  0  0  0  0  0  0  0  0  0  0
   38.6740   34.0390   40.3740 C   0  0  0  0  0  0  0  0  0  0  0  0
   38.8740   35.3980   40.1090 C   0  0  0  0  0  0  0  0  0  0  0  0
   40.2340   35.6480   40.0730 C   0  0  0  0  0  0  0  0  0  0  0  0
   40.7960   34.4350   40.3170 C   0  0  0  0  0  0  0  0  0  0  0  0
   39.8850   33.4970   40.4910 O   0  0  0  0  0  0  0  0  0  0  0  0
   38.0280   36.0520   39.9730 H   0  0  0  0  0  0  0  0  0  0  0  0
   40.6720   36.6190   39.8870 H   0  0  0  0  0  0  0  0  0  0  0  0
   42.2520   34.1790   40.3780 C   0  0  2  0  0  0  0  0  0  0  0  0
   42.8070   33.2590   41.3710 C   0  0  0  0  0  0  0  0  0  0  0  0
   42.9140   34.7090   41.6760 C   0  0  1  0  0  0  0  0  0  0  0  0
   42.7700   34.4270   39.4390 H   0  0  0  0  0  0  0  0  0  0  0  0
   42.1580   32.5990   41.9900 H   0  0  0  0  0  0  0  0  0  0  0  0
   43.7480   32.7300   41.0430 H   0  0  0  0  0  0  0  0  0  0  0  0
   42.2650   35.1980   42.3980 H   0  0  0  0  0  0  0  0  0  0  0  0
   45.0270   35.6970   42.5290 C   0  0  0  0  0  0  0  0  0  0  0  0
   44.6570   35.5970   43.7340 O   0  0  0  0  0  0  0  0  0  0  0  0
   44.2170   35.3200   41.4270 N   0  0  0  0  0  0  0  0  0  0  0  0
   46.0250   36.1000   42.4200 H   0  0  0  0  0  0  0  0  0  0  0  0
   44.5400   35.4720   40.4510 H   0  0  0  0  0  0  0  0  0  0  0  0
   37.3240   32.1250   39.6810 C   0  0  0  0  0  0  0  0  0  0  0  0
   37.3000   32.3220   38.4490 O   0  0  0  0  0  0  0  0  0  0  0  0
   37.2060   30.8800   40.3700 C   0  0  0  0  0  0  0  0  0  0  0  0
   35.9710   30.2860   40.3090 C   0  0  0  0  0  0  0  0  0  0  0  0
   35.7760   29.0760   40.9520 C   0  0  0  0  0  0  0  0  0  0  0  0
   36.8210   28.5260   41.6170 N   0  0  0  0  0  0  0  0  0  0  0  0
   38.0160   29.1280   41.6610 C   0  0  0  0  0  0  0  0  0  0  0  0
   38.1770   30.3040   41.0280 N   0  0  0  0  0  0  0  0  0  0  0  0
   35.0920   30.6570   39.8020 H   0  0  0  0  0  0  0  0  0  0  0  0
   34.8220   28.5590   40.9380 H   0  0  0  0  0  0  0  0  0  0  0  0
   39.0780   28.5020   42.3770 N   0  0  0  0  0  0  0  0  0  0  0  0
   40.3840   28.8340   42.3320 C   0  0  0  0  0  3  0  0  0  0  0  0
   41.3140   28.1410   43.0810 C   0  0  0  0  0  0  0  0  0  0  0  0
   42.3400   28.4430   43.0130 H   0  0  0  0  0  0  0  0  0  0  0  0
   40.8310   27.1080   43.8630 C   0  0  0  0  0  0  0  0  0  0  0  0
   41.6780   26.4600   44.5590 O   0  0  0  0  0  0  0  0  0  0  0  0
   39.5460   26.7800   43.9070 N   0  0  0  0  0  0  0  0  0  0  0  0
   38.6510   27.4840   43.1550 C   0  0  0  0  0  0  0  0  0  0  0  0
   37.4560   27.0940   43.2690 O   0  0  0  0  0  0  0  0  0  0  0  0
   39.2640   25.9790   44.5300 H   0  0  0  0  0  0  0  0  0  0  0  0
  2  6  1  0  0  0  0
  2  1  1  0  0  0  0
  3  2  2  0  0  0  0
  4  3  1  0  0  0  0
  4  5  2  0  0  0  0
  5  9  1  0  0  0  0
  5  6  1  0  0  0  0
  7  3  1  0  0  0  0
  8  4  1  0  0  0  0
  9 12  1  6  0  0  0
  9 10  1  0  0  0  0
  9 11  1  0  0  0  0
 10 11  1  0  0  0  0
 10 13  1  0  0  0  0
 11 15  1  1  0  0  0
 14 10  1  0  0  0  0
 16 17  2  0  0  0  0
 18 11  1  0  0  0  0
 18 16  1  0  0  0  0
 19 16  1  0  0  0  0
 20 18  1  0  0  0  0
 21 23  1  0  0  0  0
 21  1  1  0  0  0  0
 22 21  2  0  0  0  0
 23 28  1  0  0  0  0
 24 23  2  0  0  0  0
 24 25  1  0  0  0  0
 25 26  2  0  0  0  0
 26 27  1  0  0  0  0
 27 31  1  0  0  0  0
 28 27  2  0  0  0  0
 29 24  1  0  0  0  0
 30 25  1  0  0  0  0
 31 38  1  0  0  0  0
 32 31  1  0  0  0  0
 32 33  2  0  0  0  0
 33 35  1  0  0  0  0
 34 33  1  0  0  0  0
 35 37  1  0  0  0  0
 35 36  2  0  0  0  0
 37 40  1  0  0  0  0
 38 39  2  0  0  0  0
 38 37  1  0  0  0  0
M  END
>  <minimizedAffinity>
-6.91354942

$$$$

 OpenBabel03242518413D

 40 43  0  0  1  0  0  0  0  0999 V2000
   36.8440   29.8220   38.9530 O   0  0  0  0  0  0  0  0  0  0  0  0
   36.9030   28.6160   39.6980 C   0  0  0  0  0  0  0  0  0  0  0  0
   36.7010   27.2840   39.3230 C   0  0  0  0  0  0  0  0  0  0  0  0
   36.8750   26.4790   40.4350 C   0  0  0  0  0  0  0  0  0  0  0  0
   37.1730   27.3550   41.4300 C   0  0  0  0  0  0  0  0  0  0  0  0
   37.1890   28.6020   40.9990 O   0  0  0  0  0  0  0  0  0  0  0  0
   36.4540   27.0410   38.3030 H   0  0  0  0  0  0  0  0  0  0  0  0
   36.7780   25.4020   40.4310 H   0  0  0  0  0  0  0  0  0  0  0  0
   37.4470   26.9740   42.8330 C   0  0  2  0  0  0  0  0  0  0  0  0
   37.4640   27.9840   43.8910 C   0  0  0  0  0  0  0  0  0  0  0  0
   38.7850   27.5430   43.3730 C   0  0  1  0  0  0  0  0  0  0  0  0
   37.2640   25.9070   43.0300 H   0  0  0  0  0  0  0  0  0  0  0  0
   37.1100   29.0260   43.7170 H   0  0  0  0  0  0  0  0  0  0  0  0
   37.1550   27.6030   44.9070 H   0  0  0  0  0  0  0  0  0  0  0  0
   39.3740   28.1530   42.6930 H   0  0  0  0  0  0  0  0  0  0  0  0
   40.8990   26.4020   44.0040 C   0  0  0  0  0  0  0  0  0  0  0  0
   41.5560   26.9880   43.0950 O   0  0  0  0  0  0  0  0  0  0  0  0
   39.5060   26.5790   44.2010 N   0  0  0  0  0  0  0  0  0  0  0  0
   41.5060   25.7500   44.6170 H   0  0  0  0  0  0  0  0  0  0  0  0
   38.9960   26.0340   44.9240 H   0  0  0  0  0  0  0  0  0  0  0  0
   38.0690   30.4450   38.5750 C   0  0  0  0  0  0  0  0  0  0  0  0
   38.8260   29.7910   37.8280 O   0  0  0  0  0  0  0  0  0  0  0  0
   38.2820   31.7530   39.1050 C   0  0  0  0  0  0  0  0  0  0  0  0
   37.1950   32.5900   39.0670 C   0  0  0  0  0  0  0  0  0  0  0  0
   37.3210   33.8760   39.5620 C   0  0  0  0  0  0  0  0  0  0  0  0
   38.5200   34.2570   40.0670 N   0  0  0  0  0  0  0  0  0  0  0  0
   39.5640   33.4200   40.0910 C   0  0  0  0  0  0  0  0  0  0  0  0
   39.4140   32.1760   39.6030 N   0  0  0  0  0  0  0  0  0  0  0  0
   36.2110   32.3640   38.6840 H   0  0  0  0  0  0  0  0  0  0  0  0
   36.4960   34.5820   39.5590 H   0  0  0  0  0  0  0  0  0  0  0  0
   40.8020   33.8760   40.6330 N   0  0  0  0  0  0  0  0  0  0  0  0
   41.8690   33.1170   40.9510 C   0  0  0  0  0  3  0  0  0  0  0  0
   43.0120   33.6900   41.4710 C   0  0  0  0  0  0  0  0  0  0  0  0
   43.8350   33.0450   41.7080 H   0  0  0  0  0  0  0  0  0  0  0  0
   42.9920   35.0620   41.6430 C   0  0  0  0  0  0  0  0  0  0  0  0
   44.0390   35.6040   42.1220 O   0  0  0  0  0  0  0  0  0  0  0  0
   41.9410   35.8100   41.3310 N   0  0  0  0  0  0  0  0  0  0  0  0
   40.8260   35.2140   40.8170 C   0  0  0  0  0  0  0  0  0  0  0  0
   39.8850   36.0130   40.5540 O   0  0  0  0  0  0  0  0  0  0  0  0
   42.0110   36.8490   41.4930 H   0  0  0  0  0  0  0  0  0  0  0  0
  1  2  1  0  0  0  0
  2  6  1  0  0  0  0
  3  2  2  0  0  0  0
  3  4  1  0  0  0  0
  4  5  2  0  0  0  0
  5  9  1  0  0  0  0
  6  5  1  0  0  0  0
  7  3  1  0  0  0  0
  8  4  1  0  0  0  0
  9 12  1  1  0  0  0
  9 11  1  0  0  0  0
  9 10  1  0  0  0  0
 10 14  1  0  0  0  0
 11 15  1  6  0  0  0
 11 10  1  0  0  0  0
 11 18  1  0  0  0  0
 13 10  1  0  0  0  0
 16 18  1  0  0  0  0
 16 19  1  0  0  0  0
 17 16  2  0  0  0  0
 18 20  1  0  0  0  0
 21  1  1  0  0  0  0
 21 23  1  0  0  0  0
 22 21  2  0  0  0  0
 23 28  1  0  0  0  0
 24 23  2  0  0  0  0
 24 25  1  0  0  0  0
 25 26  2  0  0  0  0
 26 27  1  0  0  0  0
 27 31  1  0  0  0  0
 28 27  2  0  0  0  0
 29 24  1  0  0  0  0
 30 25  1  0  0  0  0
 31 38  1  0  0  0  0
 31 32  1  0  0  0  0
 32 33  2  0  0  0  0
 33 35  1  0  0  0  0
 33 34  1  0  0  0  0
 35 36  2  0  0  0  0
 37 40  1  0  0  0  0
 37 35  1  0  0  0  0
 38 37  1  0  0  0  0
 39 38  2  0  0  0  0
M  END
>  <minimizedAffinity>
-6.82656193

$$$$

 OpenBabel03242518413D

 40 43  0  0  1  0  0  0  0  0999 V2000
   36.4080   31.1330   40.5090 O   0  0  0  0  0  0  0  0  0  0  0  0
   36.6370   29.9050   41.1820 C   0  0  0  0  0  0  0  0  0  0  0  0
   35.8950   28.7200   41.2250 C   0  0  0  0  0  0  0  0  0  0  0  0
   36.5560   27.8120   42.0340 C   0  0  0  0  0  0  0  0  0  0  0  0
   37.6640   28.4840   42.4430 C   0  0  0  0  0  0  0  0  0  0  0  0
   37.7100   29.7050   41.9450 O   0  0  0  0  0  0  0  0  0  0  0  0
   34.9710   28.6400   40.6760 H   0  0  0  0  0  0  0  0  0  0  0  0
   36.2040   26.8110   42.2430 H   0  0  0  0  0  0  0  0  0  0  0  0
   38.7010   27.9300   43.3400 C   0  0  2  0  0  0  0  0  0  0  0  0
   40.1190   28.1920   43.0940 C   0  0  0  0  0  0  0  0  0  0  0  0
   39.6030   26.8710   42.6540 C   0  0  1  0  0  0  0  0  0  0  0  0
   38.3080   27.6570   44.3310 H   0  0  0  0  0  0  0  0  0  0  0  0
   40.4580   28.9430   42.3440 H   0  0  0  0  0  0  0  0  0  0  0  0
   40.7590   28.2130   44.0230 H   0  0  0  0  0  0  0  0  0  0  0  0
   39.3980   26.6460   41.6110 H   0  0  0  0  0  0  0  0  0  0  0  0
   39.6460   24.4240   43.0800 C   0  0  0  0  0  0  0  0  0  0  0  0
   39.1010   24.1610   41.9700 O   0  0  0  0  0  0  0  0  0  0  0  0
   39.9040   25.7430   43.5330 N   0  0  0  0  0  0  0  0  0  0  0  0
   39.8980   23.5410   43.6530 H   0  0  0  0  0  0  0  0  0  0  0  0
   40.3020   25.9140   44.4780 H   0  0  0  0  0  0  0  0  0  0  0  0
   37.1470   31.4020   39.3200 C   0  0  0  0  0  0  0  0  0  0  0  0
   36.8730   30.7080   38.3190 O   0  0  0  0  0  0  0  0  0  0  0  0
   38.1200   32.4420   39.4230 C   0  0  0  0  0  0  0  0  0  0  0  0
   37.7060   33.5740   40.0770 C   0  0  0  0  0  0  0  0  0  0  0  0
   38.5920   34.6290   40.2180 C   0  0  0  0  0  0  0  0  0  0  0  0
   39.8380   34.4950   39.7010 N   0  0  0  0  0  0  0  0  0  0  0  0
   40.2150   33.3780   39.0680 C   0  0  0  0  0  0  0  0  0  0  0  0
   39.3340   32.3690   38.9440 N   0  0  0  0  0  0  0  0  0  0  0  0
   36.7360   33.7580   40.5140 H   0  0  0  0  0  0  0  0  0  0  0  0
   38.3210   35.5490   40.7250 H   0  0  0  0  0  0  0  0  0  0  0  0
   41.5380   33.2950   38.5440 N   0  0  0  0  0  0  0  0  0  0  0  0
   42.1580   32.1860   38.0960 C   0  0  0  0  0  3  0  0  0  0  0  0
   43.4500   32.2460   37.6120 C   0  0  0  0  0  0  0  0  0  0  0  0
   43.9000   31.3360   37.2650 H   0  0  0  0  0  0  0  0  0  0  0  0
   44.0540   33.4890   37.6170 C   0  0  0  0  0  0  0  0  0  0  0  0
   45.2450   33.5590   37.1740 O   0  0  0  0  0  0  0  0  0  0  0  0
   43.4450   34.5820   38.0590 N   0  0  0  0  0  0  0  0  0  0  0  0
   42.1680   34.4900   38.5310 C   0  0  0  0  0  0  0  0  0  0  0  0
   41.6810   35.5850   38.9260 O   0  0  0  0  0  0  0  0  0  0  0  0
   43.9790   35.4900   38.0270 H   0  0  0  0  0  0  0  0  0  0  0  0
  1  2  1  0  0  0  0
  2  3  2  0  0  0  0
  2  6  1  0  0  0  0
  3  4  1  0  0  0  0
  4  8  1  0  0  0  0
  4  5  2  0  0  0  0
  5  9  1  0  0  0  0
  6  5  1  0  0  0  0
  7  3  1  0  0  0  0
  9 12  1  1  0  0  0
 10  9  1  0  0  0  0
 10 14  1  0  0  0  0
 11 15  1  6  0  0  0
 11 10  1  0  0  0  0
 11  9  1  0  0  0  0
 11 18  1  0  0  0  0
 13 10  1  0  0  0  0
 16 18  1  0  0  0  0
 16 19  1  0  0  0  0
 17 16  2  0  0  0  0
 18 20  1  0  0  0  0
 21 23  1  0  0  0  0
 21  1  1  0  0  0  0
 22 21  2  0  0  0  0
 23 24  1  0  0  0  0
 24 25  2  0  0  0  0
 24 29  1  0  0  0  0
 25 30  1  0  0  0  0
 26 25  1  0  0  0  0
 27 26  2  0  0  0  0
 28 27  1  0  0  0  0
 28 23  2  0  0  0  0
 31 27  1  0  0  0  0
 32 31  1  0  0  0  0
 33 35  1  0  0  0  0
 33 32  2  0  0  0  0
 34 33  1  0  0  0  0
 35 37  1  0  0  0  0
 36 35  2  0  0  0  0
 37 38  1  0  0  0  0
 38 31  1  0  0  0  0
 38 39  2  0  0  0  0
 40 37  1  0  0  0  0
M  END
>  <minimizedAffinity>
-6.80994558

$$$$

 OpenBabel03242518413D

 40 43  0  0  1  0  0  0  0  0999 V2000
   36.8670   30.1740   41.5260 O   0  0  0  0  0  0  0  0  0  0  0  0
   37.2550   28.9560   42.1410 C   0  0  0  0  0  0  0  0  0  0  0  0
   38.1570   28.6860   43.1750 C   0  0  0  0  0  0  0  0  0  0  0  0
   38.1760   27.3210   43.4020 C   0  0  0  0  0  0  0  0  0  0  0  0
   37.2880   26.8270   42.5000 C   0  0  0  0  0  0  0  0  0  0  0  0
   36.7520   27.7820   41.7640 O   0  0  0  0  0  0  0  0  0  0  0  0
   38.6960   29.4920   43.6470 H   0  0  0  0  0  0  0  0  0  0  0  0
   38.7870   26.8350   44.1500 H   0  0  0  0  0  0  0  0  0  0  0  0
   36.9550   25.3940   42.3460 C   0  0  2  0  0  0  0  0  0  0  0  0
   38.0090   24.3800   42.3190 C   0  0  0  0  0  0  0  0  0  0  0  0
   37.4500   24.7900   41.0050 C   0  0  1  0  0  0  0  0  0  0  0  0
   35.9140   25.1650   42.6190 H   0  0  0  0  0  0  0  0  0  0  0  0
   39.0640   24.6220   42.5830 H   0  0  0  0  0  0  0  0  0  0  0  0
   37.6990   23.3730   42.7200 H   0  0  0  0  0  0  0  0  0  0  0  0
   37.9830   25.4540   40.3300 H   0  0  0  0  0  0  0  0  0  0  0  0
   35.8200   24.2480   39.2120 C   0  0  0  0  0  0  0  0  0  0  0  0
   35.9770   25.3690   38.6480 O   0  0  0  0  0  0  0  0  0  0  0  0
   36.4770   23.8760   40.4130 N   0  0  0  0  0  0  0  0  0  0  0  0
   35.1320   23.5980   38.6870 H   0  0  0  0  0  0  0  0  0  0  0  0
   36.2740   22.9660   40.8720 H   0  0  0  0  0  0  0  0  0  0  0  0
   37.4620   30.5220   40.2780 C   0  0  0  0  0  0  0  0  0  0  0  0
   37.3860   29.6760   39.3630 O   0  0  0  0  0  0  0  0  0  0  0  0
   38.0770   31.8090   40.2280 C   0  0  0  0  0  0  0  0  0  0  0  0
   37.2570   32.8420   39.8510 C   0  0  0  0  0  0  0  0  0  0  0  0
   37.7790   34.1220   39.7780 C   0  0  0  0  0  0  0  0  0  0  0  0
   39.0870   34.3010   40.0860 N   0  0  0  0  0  0  0  0  0  0  0  0
   39.8650   33.2750   40.4510 C   0  0  0  0  0  0  0  0  0  0  0  0
   39.3320   32.0410   40.5130 N   0  0  0  0  0  0  0  0  0  0  0  0
   36.2100   32.7830   39.5910 H   0  0  0  0  0  0  0  0  0  0  0  0
   37.1790   34.9770   39.4860 H   0  0  0  0  0  0  0  0  0  0  0  0
   41.2340   33.5230   40.7630 N   0  0  0  0  0  0  0  0  0  0  0  0
   42.0900   32.6730   41.3650 C   0  0  0  0  0  3  0  0  0  0  0  0
   43.3970   33.0430   41.6090 C   0  0  0  0  0  0  0  0  0  0  0  0
   44.0390   32.3320   42.0900 H   0  0  0  0  0  0  0  0  0  0  0  0
   43.7640   34.3130   41.2050 C   0  0  0  0  0  0  0  0  0  0  0  0
   44.9670   34.6680   41.4240 O   0  0  0  0  0  0  0  0  0  0  0  0
   42.9230   35.1510   40.6130 N   0  0  0  0  0  0  0  0  0  0  0  0
   41.6370   34.7560   40.3860 C   0  0  0  0  0  0  0  0  0  0  0  0
   40.9200   35.6250   39.8170 O   0  0  0  0  0  0  0  0  0  0  0  0
   43.2860   36.1010   40.3380 H   0  0  0  0  0  0  0  0  0  0  0  0
  1  2  1  0  0  0  0
  2  3  2  0  0  0  0
  3  4  1  0  0  0  0
  3  7  1  0  0  0  0
  4  8  1  0  0  0  0
  5  4  2  0  0  0  0
  6  2  1  0  0  0  0
  6  5  1  0  0  0  0
  9  5  1  0  0  0  0
  9 12  1  1  0  0  0
 10  9  1  0  0  0  0
 10 13  1  0  0  0  0
 10 14  1  0  0  0  0
 11 15  1  6  0  0  0
 11 10  1  0  0  0  0
 11  9  1  0  0  0  0
 16 18  1  0  0  0  0
 17 16  2  0  0  0  0
 18 20  1  0  0  0  0
 18 11  1  0  0  0  0
 19 16  1  0  0  0  0
 21  1  1  0  0  0  0
 22 21  2  0  0  0  0
 23 21  1  0  0  0  0
 23 28  1  0  0  0  0
 24 23  2  0  0  0  0
 25 24  1  0  0  0  0
 25 26  2  0  0  0  0
 26 27  1  0  0  0  0
 27 28  2  0  0  0  0
 27 31  1  0  0  0  0
 29 24  1  0  0  0  0
 30 25  1  0  0  0  0
 31 32  1  0  0  0  0
 32 33  2  0  0  0  0
 33 34  1  0  0  0  0
 35 36  2  0  0  0  0
 35 33  1  0  0  0  0
 37 35  1  0  0  0  0
 38 37  1  0  0  0  0
 38 31  1  0  0  0  0
 39 38  2  0  0  0  0
 40 37  1  0  0  0  0
M  END
>  <minimizedAffinity>
-6.56931782

$$$$

 OpenBabel03242518413D

 40 43  0  0  1  0  0  0  0  0999 V2000
   37.3760   30.0400   42.0680 O   0  0  0  0  0  0  0  0  0  0  0  0
   37.5030   28.6370   42.2390 C   0  0  0  0  0  0  0  0  0  0  0  0
   36.5550   27.6490   42.5240 C   0  0  0  0  0  0  0  0  0  0  0  0
   37.1970   26.4250   42.5920 C   0  0  0  0  0  0  0  0  0  0  0  0
   38.5000   26.7250   42.3460 C   0  0  0  0  0  0  0  0  0  0  0  0
   38.6770   28.0160   42.1410 O   0  0  0  0  0  0  0  0  0  0  0  0
   35.5180   27.9150   42.6500 H   0  0  0  0  0  0  0  0  0  0  0  0
   36.7020   25.4860   42.7980 H   0  0  0  0  0  0  0  0  0  0  0  0
   39.5990   25.7360   42.3120 C   0  0  2  0  0  0  0  0  0  0  0  0
   39.6170   24.6070   43.2430 C   0  0  0  0  0  0  0  0  0  0  0  0
   40.4860   25.7620   43.5850 C   0  0  1  0  0  0  0  0  0  0  0  0
   40.1370   25.7260   41.3530 H   0  0  0  0  0  0  0  0  0  0  0  0
   38.7380   24.3550   43.8790 H   0  0  0  0  0  0  0  0  0  0  0  0
   40.1220   23.6800   42.8440 H   0  0  0  0  0  0  0  0  0  0  0  0
   40.2210   26.4770   44.3580 H   0  0  0  0  0  0  0  0  0  0  0  0
   42.8710   26.1270   44.1750 C   0  0  0  0  0  0  0  0  0  0  0  0
   42.5740   26.7900   45.2110 O   0  0  0  0  0  0  0  0  0  0  0  0
   41.9060   25.6050   43.2770 N   0  0  0  0  0  0  0  0  0  0  0  0
   43.9360   25.9980   44.0410 H   0  0  0  0  0  0  0  0  0  0  0  0
   42.1960   25.1160   42.4070 H   0  0  0  0  0  0  0  0  0  0  0  0
   37.2930   30.5550   40.7420 C   0  0  0  0  0  0  0  0  0  0  0  0
   36.6320   29.8880   39.9190 O   0  0  0  0  0  0  0  0  0  0  0  0
   37.9830   31.7840   40.5150 C   0  0  0  0  0  0  0  0  0  0  0  0
   37.2170   32.8110   40.0250 C   0  0  0  0  0  0  0  0  0  0  0  0
   37.8130   34.0350   39.7790 C   0  0  0  0  0  0  0  0  0  0  0  0
   39.1370   34.1680   40.0350 N   0  0  0  0  0  0  0  0  0  0  0  0
   39.8620   33.1490   40.5130 C   0  0  0  0  0  0  0  0  0  0  0  0
   39.2570   31.9700   40.7430 N   0  0  0  0  0  0  0  0  0  0  0  0
   36.1620   32.7860   39.7960 H   0  0  0  0  0  0  0  0  0  0  0  0
   37.2580   34.8840   39.3920 H   0  0  0  0  0  0  0  0  0  0  0  0
   41.2520   33.3480   40.7630 N   0  0  0  0  0  0  0  0  0  0  0  0
   42.0710   32.5280   41.4520 C   0  0  0  0  0  3  0  0  0  0  0  0
   43.4040   32.8420   41.6200 C   0  0  0  0  0  0  0  0  0  0  0  0
   44.0160   32.1580   42.1750 H   0  0  0  0  0  0  0  0  0  0  0  0
   43.8370   34.0250   41.0500 C   0  0  0  0  0  0  0  0  0  0  0  0
   45.0640   34.3280   41.1980 O   0  0  0  0  0  0  0  0  0  0  0  0
   43.0310   34.8330   40.3730 N   0  0  0  0  0  0  0  0  0  0  0  0
   41.7170   34.4950   40.2230 C   0  0  0  0  0  0  0  0  0  0  0  0
   41.0390   35.3290   39.5630 O   0  0  0  0  0  0  0  0  0  0  0  0
   43.4430   35.7160   39.9710 H   0  0  0  0  0  0  0  0  0  0  0  0
  1  2  1  0  0  0  0
  2  3  2  0  0  0  0
  3  4  1  0  0  0  0
  3  7  1  0  0  0  0
  4  8  1  0  0  0  0
  5  4  2  0  0  0  0
  6  2  1  0  0  0  0
  6  5  1  0  0  0  0
  9 12  1  6  0  0  0
  9  5  1  0  0  0  0
  9 10  1  0  0  0  0
  9 11  1  0  0  0  0
 10 11  1  0  0  0  0
 10 13  1  0  0  0  0
 11 15  1  1  0  0  0
 14 10  1  0  0  0  0
 16 17  2  0  0  0  0
 18 11  1  0  0  0  0
 18 16  1  0  0  0  0
 19 16  1  0  0  0  0
 20 18  1  0  0  0  0
 21  1  1  0  0  0  0
 22 21  2  0  0  0  0
 23 21  1  0  0  0  0
 23 28  1  0  0  0  0
 24 23  2  0  0  0  0
 25 24  1  0  0  0  0
 25 26  2  0  0  0  0
 26 27  1  0  0  0  0
 27 28  2  0  0  0  0
 27 31  1  0  0  0  0
 29 24  1  0  0  0  0
 30 25  1  0  0  0  0
 31 32  1  0  0  0  0
 32 33  2  0  0  0  0
 33 34  1  0  0  0  0
 35 36  2  0  0  0  0
 35 33  1  0  0  0  0
 37 35  1  0  0  0  0
 38 37  1  0  0  0  0
 38 31  1  0  0  0  0
 39 38  2  0  0  0  0
 40 37  1  0  0  0  0
M  END
>  <minimizedAffinity>
-6.4958086

$$$$

 OpenBabel03242518413D

 40 43  0  0  1  0  0  0  0  0999 V2000
   38.6010   33.0290   40.5490 O   0  0  0  0  0  0  0  0  0  0  0  0
   39.5810   33.9780   40.1620 C   0  0  0  0  0  0  0  0  0  0  0  0
   39.8270   35.2850   40.5950 C   0  0  0  0  0  0  0  0  0  0  0  0
   40.9090   35.7880   39.8950 C   0  0  0  0  0  0  0  0  0  0  0  0
   41.2700   34.7690   39.0720 C   0  0  0  0  0  0  0  0  0  0  0  0
   40.4930   33.7130   39.2290 O   0  0  0  0  0  0  0  0  0  0  0  0
   39.2080   35.7280   41.3590 H   0  0  0  0  0  0  0  0  0  0  0  0
   41.3170   36.7810   40.0300 H   0  0  0  0  0  0  0  0  0  0  0  0
   42.3910   34.8200   38.1090 C   0  0  2  0  0  0  0  0  0  0  0  0
   42.8170   33.6170   37.3930 C   0  0  0  0  0  0  0  0  0  0  0  0
   43.6330   34.0130   38.5700 C   0  0  1  0  0  0  0  0  0  0  0  0
   42.5900   35.8370   37.7380 H   0  0  0  0  0  0  0  0  0  0  0  0
   42.2180   32.6780   37.4130 H   0  0  0  0  0  0  0  0  0  0  0  0
   43.2550   33.8110   36.3720 H   0  0  0  0  0  0  0  0  0  0  0  0
   43.5620   33.4980   39.5240 H   0  0  0  0  0  0  0  0  0  0  0  0
   45.9450   34.6500   39.2170 C   0  0  0  0  0  0  0  0  0  0  0  0
   45.8470   34.0890   40.3460 O   0  0  0  0  0  0  0  0  0  0  0  0
   44.8860   34.7030   38.2740 N   0  0  0  0  0  0  0  0  0  0  0  0
   46.9180   35.0870   39.0400 H   0  0  0  0  0  0  0  0  0  0  0  0
   44.9930   35.2240   37.3810 H   0  0  0  0  0  0  0  0  0  0  0  0
   37.5250   32.7630   39.6520 C   0  0  0  0  0  0  0  0  0  0  0  0
   36.7880   33.7270   39.3560 O   0  0  0  0  0  0  0  0  0  0  0  0
   37.4210   31.4140   39.1990 C   0  0  0  0  0  0  0  0  0  0  0  0
   37.3500   31.2510   37.8390 C   0  0  0  0  0  0  0  0  0  0  0  0
   37.2480   29.9710   37.3200 C   0  0  0  0  0  0  0  0  0  0  0  0
   37.2240   28.9280   38.1850 N   0  0  0  0  0  0  0  0  0  0  0  0
   37.2950   29.1150   39.5080 C   0  0  0  0  0  0  0  0  0  0  0  0
   37.3930   30.3690   39.9850 N   0  0  0  0  0  0  0  0  0  0  0  0
   37.3630   32.0260   37.0870 H   0  0  0  0  0  0  0  0  0  0  0  0
   37.1880   29.7810   36.2540 H   0  0  0  0  0  0  0  0  0  0  0  0
   37.2640   27.9790   40.3690 N   0  0  0  0  0  0  0  0  0  0  0  0
   37.5580   27.9580   41.6840 C   0  0  0  0  0  3  0  0  0  0  0  0
   37.4870   26.7820   42.4040 C   0  0  0  0  0  0  0  0  0  0  0  0
   37.7300   26.8160   43.4480 H   0  0  0  0  0  0  0  0  0  0  0  0
   37.1060   25.6520   41.7050 C   0  0  0  0  0  0  0  0  0  0  0  0
   37.0370   24.5600   42.3560 O   0  0  0  0  0  0  0  0  0  0  0  0
   36.8170   25.6720   40.4100 N   0  0  0  0  0  0  0  0  0  0  0  0
   36.8960   26.8500   39.7260 C   0  0  0  0  0  0  0  0  0  0  0  0
   36.6010   26.7600   38.5020 O   0  0  0  0  0  0  0  0  0  0  0  0
   36.5350   24.7640   39.9550 H   0  0  0  0  0  0  0  0  0  0  0  0
  2  1  1  0  0  0  0
  2  3  2  0  0  0  0
  3  7  1  0  0  0  0
  4  8  1  0  0  0  0
  4  3  1  0  0  0  0
  5  6  1  0  0  0  0
  5  4  2  0  0  0  0
  6  2  1  0  0  0  0
  9 12  1  6  0  0  0
  9 11  1  0  0  0  0
  9  5  1  0  0  0  0
 10 13  1  0  0  0  0
 10  9  1  0  0  0  0
 10 11  1  0  0  0  0
 11 15  1  1  0  0  0
 14 10  1  0  0  0  0
 16 17  2  0  0  0  0
 18 11  1  0  0  0  0
 18 16  1  0  0  0  0
 19 16  1  0  0  0  0
 20 18  1  0  0  0  0
 21  1  1  0  0  0  0
 22 21  2  0  0  0  0
 23 21  1  0  0  0  0
 23 28  1  0  0  0  0
 24 23  2  0  0  0  0
 25 24  1  0  0  0  0
 25 26  2  0  0  0  0
 26 27  1  0  0  0  0
 27 28  2  0  0  0  0
 27 31  1  0  0  0  0
 29 24  1  0  0  0  0
 30 25  1  0  0  0  0
 31 32  1  0  0  0  0
 32 33  2  0  0  0  0
 33 34  1  0  0  0  0
 35 36  2  0  0  0  0
 35 33  1  0  0  0  0
 37 35  1  0  0  0  0
 38 31  1  0  0  0  0
 38 37  1  0  0  0  0
 39 38  2  0  0  0  0
 40 37  1  0  0  0  0
M  END
>  <minimizedAffinity>
-6.47129393

$$$$

 OpenBabel03242518413D

 40 43  0  0  1  0  0  0  0  0999 V2000
   37.8380   30.5740   39.4590 O   0  0  0  0  0  0  0  0  0  0  0  0
   38.1730   31.9330   39.6930 C   0  0  0  0  0  0  0  0  0  0  0  0
   37.3880   33.0910   39.7070 C   0  0  0  0  0  0  0  0  0  0  0  0
   38.2020   34.1740   39.9870 C   0  0  0  0  0  0  0  0  0  0  0  0
   39.4380   33.6270   40.1290 C   0  0  0  0  0  0  0  0  0  0  0  0
   39.4190   32.3190   39.9570 O   0  0  0  0  0  0  0  0  0  0  0  0
   36.3290   33.0290   39.5170 H   0  0  0  0  0  0  0  0  0  0  0  0
   37.8560   35.1960   40.0590 H   0  0  0  0  0  0  0  0  0  0  0  0
   40.6670   34.3910   40.4370 C   0  0  2  0  0  0  0  0  0  0  0  0
   40.7790   35.8030   40.0700 C   0  0  0  0  0  0  0  0  0  0  0  0
   41.4490   34.8290   39.1710 C   0  0  1  0  0  0  0  0  0  0  0  0
   41.2670   33.9330   41.2370 H   0  0  0  0  0  0  0  0  0  0  0  0
   39.9030   36.3900   39.7120 H   0  0  0  0  0  0  0  0  0  0  0  0
   41.4380   36.4120   40.7540 H   0  0  0  0  0  0  0  0  0  0  0  0
   41.0320   34.5460   38.2080 H   0  0  0  0  0  0  0  0  0  0  0  0
   43.6540   34.0670   38.3170 C   0  0  0  0  0  0  0  0  0  0  0  0
   43.1410   33.5450   37.2850 O   0  0  0  0  0  0  0  0  0  0  0  0
   42.8950   34.6960   39.3370 N   0  0  0  0  0  0  0  0  0  0  0  0
   44.7320   33.9870   38.3460 H   0  0  0  0  0  0  0  0  0  0  0  0
   43.3540   35.0620   40.1950 H   0  0  0  0  0  0  0  0  0  0  0  0
   36.9400   29.9330   40.3620 C   0  0  0  0  0  0  0  0  0  0  0  0
   35.7790   30.3880   40.4180 O   0  0  0  0  0  0  0  0  0  0  0  0
   37.4850   28.8380   41.0970 C   0  0  0  0  0  0  0  0  0  0  0  0
   36.7100   27.7070   41.1360 C   0  0  0  0  0  0  0  0  0  0  0  0
   37.1690   26.6010   41.8290 C   0  0  0  0  0  0  0  0  0  0  0  0
   38.3750   26.6830   42.4440 N   0  0  0  0  0  0  0  0  0  0  0  0
   39.1110   27.8000   42.3910 C   0  0  0  0  0  0  0  0  0  0  0  0
   38.6400   28.8600   41.7100 N   0  0  0  0  0  0  0  0  0  0  0  0
   35.7440   27.5620   40.6750 H   0  0  0  0  0  0  0  0  0  0  0  0
   36.6000   25.6790   41.8940 H   0  0  0  0  0  0  0  0  0  0  0  0
   40.3710   27.8280   43.0570 N   0  0  0  0  0  0  0  0  0  0  0  0
   41.3350   28.7600   42.9180 C   0  0  0  0  0  3  0  0  0  0  0  0
   42.5150   28.6660   43.6280 C   0  0  0  0  0  0  0  0  0  0  0  0
   43.2510   29.4320   43.4830 H   0  0  0  0  0  0  0  0  0  0  0  0
   42.6430   27.5790   44.4720 C   0  0  0  0  0  0  0  0  0  0  0  0
   43.7260   27.4800   45.1340 O   0  0  0  0  0  0  0  0  0  0  0  0
   41.6950   26.6610   44.6100 N   0  0  0  0  0  0  0  0  0  0  0  0
   40.5390   26.7810   43.8950 C   0  0  0  0  0  0  0  0  0  0  0  0
   39.7040   25.8580   44.0990 O   0  0  0  0  0  0  0  0  0  0  0  0
   41.8740   25.8640   45.2770 H   0  0  0  0  0  0  0  0  0  0  0  0
  1  2  1  0  0  0  0
  1 21  1  0  0  0  0
  2  3  2  0  0  0  0
  2  6  1  0  0  0  0
  3  4  1  0  0  0  0
  4  8  1  0  0  0  0
  4  5  2  0  0  0  0
  5  9  1  0  0  0  0
  6  5  1  0  0  0  0
  7  3  1  0  0  0  0
  9 12  1  1  0  0  0
 10  9  1  0  0  0  0
 10 14  1  0  0  0  0
 11 15  1  6  0  0  0
 11 18  1  0  0  0  0
 11 10  1  0  0  0  0
 11  9  1  0  0  0  0
 13 10  1  0  0  0  0
 16 19  1  0  0  0  0
 16 18  1  0  0  0  0
 17 16  2  0  0  0  0
 18 20  1  0  0  0  0
 21 22  2  0  0  0  0
 21 23  1  0  0  0  0
 23 24  2  0  0  0  0
 23 28  1  0  0  0  0
 24 25  1  0  0  0  0
 25 30  1  0  0  0  0
 25 26  2  0  0  0  0
 27 26  1  0  0  0  0
 27 31  1  0  0  0  0
 28 27  2  0  0  0  0
 29 24  1  0  0  0  0
 31 38  1  0  0  0  0
 32 31  1  0  0  0  0
 32 33  2  0  0  0  0
 33 35  1  0  0  0  0
 34 33  1  0  0  0  0
 35 37  1  0  0  0  0
 35 36  2  0  0  0  0
 37 40  1  0  0  0  0
 38 39  2  0  0  0  0
 38 37  1  0  0  0  0
M  END
>  <minimizedAffinity>
-6.42898703

$$$$

 OpenBabel03242518413D

 40 43  0  0  1  0  0  0  0  0999 V2000
   42.4280   28.4890   42.7240 O   0  0  0  0  0  0  0  0  0  0  0  0
   41.1440   27.9530   42.9990 C   0  0  0  0  0  0  0  0  0  0  0  0
   40.7300   26.6530   43.3090 C   0  0  0  0  0  0  0  0  0  0  0  0
   39.3580   26.6560   43.4880 C   0  0  0  0  0  0  0  0  0  0  0  0
   39.0030   27.9510   43.2810 C   0  0  0  0  0  0  0  0  0  0  0  0
   40.0470   28.7070   42.9950 O   0  0  0  0  0  0  0  0  0  0  0  0
   41.4520   25.8560   43.3710 H   0  0  0  0  0  0  0  0  0  0  0  0
   38.7720   25.7820   43.7370 H   0  0  0  0  0  0  0  0  0  0  0  0
   37.6190   28.4680   43.3580 C   0  0  2  0  0  0  0  0  0  0  0  0
   36.4820   27.6090   43.0310 C   0  0  0  0  0  0  0  0  0  0  0  0
   36.9210   28.5580   41.9760 C   0  0  1  0  0  0  0  0  0  0  0  0
   37.5300   29.3570   44.0000 H   0  0  0  0  0  0  0  0  0  0  0  0
   36.5970   26.5110   42.8830 H   0  0  0  0  0  0  0  0  0  0  0  0
   35.5320   27.8580   43.5870 H   0  0  0  0  0  0  0  0  0  0  0  0
   37.4930   28.2380   41.1100 H   0  0  0  0  0  0  0  0  0  0  0  0
   36.3900   30.6610   40.7650 C   0  0  0  0  0  0  0  0  0  0  0  0
   37.3430   30.5010   39.9490 O   0  0  0  0  0  0  0  0  0  0  0  0
   36.1190   29.7720   41.8360 N   0  0  0  0  0  0  0  0  0  0  0  0
   35.8010   31.5460   40.5660 H   0  0  0  0  0  0  0  0  0  0  0  0
   35.3600   29.9730   42.5170 H   0  0  0  0  0  0  0  0  0  0  0  0
   43.1190   29.1660   43.7720 C   0  0  0  0  0  0  0  0  0  0  0  0
   43.3230   28.5190   44.8200 O   0  0  0  0  0  0  0  0  0  0  0  0
   43.4950   30.5130   43.4900 C   0  0  0  0  0  0  0  0  0  0  0  0
   44.6420   30.9470   44.1040 C   0  0  0  0  0  0  0  0  0  0  0  0
   45.0740   32.2440   43.8810 C   0  0  0  0  0  0  0  0  0  0  0  0
   44.3390   33.0330   43.0600 N   0  0  0  0  0  0  0  0  0  0  0  0
   43.2220   32.5840   42.4740 C   0  0  0  0  0  0  0  0  0  0  0  0
   42.8260   31.3200   42.7090 N   0  0  0  0  0  0  0  0  0  0  0  0
   45.2810   30.3840   44.7680 H   0  0  0  0  0  0  0  0  0  0  0  0
   45.9740   32.6420   44.3380 H   0  0  0  0  0  0  0  0  0  0  0  0
   42.4900   33.4610   41.6210 N   0  0  0  0  0  0  0  0  0  0  0  0
   41.4970   33.1180   40.7770 C   0  0  0  0  0  3  0  0  0  0  0  0
   40.8680   34.0730   40.0030 C   0  0  0  0  0  0  0  0  0  0  0  0
   40.0830   33.7510   39.3480 H   0  0  0  0  0  0  0  0  0  0  0  0
   41.3130   35.3740   40.1450 C   0  0  0  0  0  0  0  0  0  0  0  0
   40.7420   36.2650   39.4380 O   0  0  0  0  0  0  0  0  0  0  0  0
   42.2910   35.7120   40.9750 N   0  0  0  0  0  0  0  0  0  0  0  0
   42.8930   34.7450   41.7270 C   0  0  0  0  0  0  0  0  0  0  0  0
   43.8100   35.1720   42.4830 O   0  0  0  0  0  0  0  0  0  0  0  0
   42.5680   36.7280   41.0220 H   0  0  0  0  0  0  0  0  0  0  0  0
  1  2  1  0  0  0  0
  1 21  1  0  0  0  0
  2  3  2  0  0  0  0
  3  7  1  0  0  0  0
  3  4  1  0  0  0  0
  4  8  1  0  0  0  0
  5  9  1  0  0  0  0
  5  4  2  0  0  0  0
  6  2  1  0  0  0  0
  6  5  1  0  0  0  0
  9 12  1  1  0  0  0
 10  9  1  0  0  0  0
 10 14  1  0  0  0  0
 11 15  1  6  0  0  0
 11 10  1  0  0  0  0
 11  9  1  0  0  0  0
 13 10  1  0  0  0  0
 16 18  1  0  0  0  0
 17 16  2  0  0  0  0
 18 11  1  0  0  0  0
 18 20  1  0  0  0  0
 19 16  1  0  0  0  0
 21 22  2  0  0  0  0
 23 21  1  0  0  0  0
 23 24  1  0  0  0  0
 24 29  1  0  0  0  0
 25 24  2  0  0  0  0
 25 30  1  0  0  0  0
 26 25  1  0  0  0  0
 27 28  1  0  0  0  0
 27 26  2  0  0  0  0
 28 23  2  0  0  0  0
 31 38  1  0  0  0  0
 31 27  1  0  0  0  0
 32 31  1  0  0  0  0
 33 35  1  0  0  0  0
 33 32  2  0  0  0  0
 34 33  1  0  0  0  0
 35 37  1  0  0  0  0
 36 35  2  0  0  0  0
 37 40  1  0  0  0  0
 37 38  1  0  0  0  0
 38 39  2  0  0  0  0
M  END
>  <minimizedAffinity>
-6.34880972

$$$$
