
 OpenBabel03242510203D

 37 40  0  0  1  0  0  0  0  0999 V2000
   37.3820   30.0660   40.7510 N   0  0  0  0  0  0  0  0  0  0  0  0
   37.5900   29.3070   41.8910 C   0  0  0  0  0  0  0  0  0  0  0  0
   38.1740   29.6030   42.9690 O   0  0  0  0  0  0  0  0  0  0  0  0
   37.5770   29.5720   39.8320 H   0  0  0  0  0  0  0  0  0  0  0  0
   37.9520   32.4540   40.4050 C   0  0  1  0  0  0  0  0  0  0  0  0
   36.9920   32.1370   39.4170 C   0  0  0  0  0  0  0  0  0  0  0  0
   36.9350   31.4260   40.7810 C   0  0  1  0  0  0  0  0  0  0  0  0
   37.9170   33.4420   40.9460 H   0  0  0  0  0  0  0  0  0  0  0  0
   36.1320   32.8280   39.1620 H   0  0  0  0  0  0  0  0  0  0  0  0
   37.2200   31.4780   38.5610 H   0  0  0  0  0  0  0  0  0  0  0  0
   35.9570   31.6170   41.2260 H   0  0  0  0  0  0  0  0  0  0  0  0
   40.3100   31.8790   41.2800 C   0  0  0  0  0  0  0  0  0  0  0  0
   39.3850   31.9590   40.2130 C   0  0  0  0  0  0  0  0  0  0  0  0
   39.8200   31.5910   38.9660 C   0  0  0  0  0  0  0  0  0  0  0  0
   41.0960   31.1720   38.8010 N   0  0  0  0  0  0  0  0  0  0  0  0
   41.9750   31.0990   39.8330 C   0  0  0  0  0  0  0  0  0  0  0  0
   41.5640   31.4670   41.1170 N   0  0  0  0  0  0  0  0  0  0  0  0
   40.0250   32.1480   42.2610 H   0  0  0  0  0  0  0  0  0  0  0  0
   39.1480   31.6390   38.1360 H   0  0  0  0  0  0  0  0  0  0  0  0
   42.9910   30.7730   39.7390 H   0  0  0  0  0  0  0  0  0  0  0  0
   37.0640   27.8840   41.9550 C   0  0  2  0  0  0  0  0  0  0  0  0
   36.5570   27.3750   43.3340 C   0  0  0  0  0  0  0  0  0  0  0  0
   37.7840   26.8350   42.6750 C   0  0  1  0  0  0  0  0  0  0  0  0
   36.2660   27.6330   41.2080 H   0  0  0  0  0  0  0  0  0  0  0  0
   35.7080   26.6830   43.3640 H   0  0  0  0  0  0  0  0  0  0  0  0
   36.6080   28.0530   44.1750 H   0  0  0  0  0  0  0  0  0  0  0  0
   38.6310   26.9190   43.3270 H   0  0  0  0  0  0  0  0  0  0  0  0
   37.7630   25.5470   42.0020 N   0  0  0  0  0  0  0  0  0  0  0  0
   36.8840   25.3120   41.0400 C   0  0  0  0  0  3  0  0  0  0  0  0
   36.9310   24.0720   40.4560 C   0  0  0  0  0  0  0  0  0  0  0  0
   36.2810   23.7490   39.6690 H   0  0  0  0  0  0  0  0  0  0  0  0
   37.8600   23.1340   40.8690 C   0  0  0  0  0  0  0  0  0  0  0  0
   37.9370   21.9780   40.3550 O   0  0  0  0  0  0  0  0  0  0  0  0
   38.7220   23.4180   41.8390 N   0  0  0  0  0  0  0  0  0  0  0  0
   38.6910   24.6470   42.4330 C   0  0  0  0  0  0  0  0  0  0  0  0
   39.5110   24.9240   43.3580 O   0  0  0  0  0  0  0  0  0  0  0  0
   39.4320   22.6960   42.1510 H   0  0  0  0  0  0  0  0  0  0  0  0
  1  7  1  0  0  0  0
  1  2  1  0  0  0  0
  2 21  1  0  0  0  0
  2  3  2  0  0  0  0
  4  1  1  0  0  0  0
  5  7  1  0  0  0  0
  5  8  1  1  0  0  0
  6  5  1  0  0  0  0
  6  7  1  0  0  0  0
  7 11  1  1  0  0  0
  9  6  1  0  0  0  0
 10  6  1  0  0  0  0
 12 18  1  0  0  0  0
 13  5  1  0  0  0  0
 13 12  2  0  0  0  0
 14 13  1  0  0  0  0
 15 14  2  0  0  0  0
 15 16  1  0  0  0  0
 16 17  2  0  0  0  0
 17 12  1  0  0  0  0
 19 14  1  0  0  0  0
 20 16  1  0  0  0  0
 21 24  1  6  0  0  0
 21 23  1  0  0  0  0
 21 22  1  0  0  0  0
 22 25  1  0  0  0  0
 22 26  1  0  0  0  0
 23 27  1  1  0  0  0
 23 22  1  0  0  0  0
 28 35  1  0  0  0  0
 28 23  1  0  0  0  0
 29 28  1  0  0  0  0
 30 32  1  0  0  0  0
 30 29  2  0  0  0  0
 31 30  1  0  0  0  0
 32 34  1  0  0  0  0
 33 32  2  0  0  0  0
 34 37  1  0  0  0  0
 34 35  1  0  0  0  0
 35 36  2  0  0  0  0
M  END
>  <minimizedAffinity>
-5.62046385

$$$$

 OpenBabel03242510203D

 37 40  0  0  1  0  0  0  0  0999 V2000
   37.7840   26.0850   39.9080 N   0  0  0  0  0  0  0  0  0  0  0  0
   36.5870   26.3860   39.2790 C   0  0  0  0  0  0  0  0  0  0  0  0
   35.7650   25.6320   38.6890 O   0  0  0  0  0  0  0  0  0  0  0  0
   38.5920   26.7350   39.6840 H   0  0  0  0  0  0  0  0  0  0  0  0
   38.1590   25.3290   42.2390 C   0  0  1  0  0  0  0  0  0  0  0  0
   36.8640   24.8850   41.8900 C   0  0  0  0  0  0  0  0  0  0  0  0
   37.9470   24.9790   40.8010 C   0  0  1  0  0  0  0  0  0  0  0  0
   38.8520   24.6710   42.8370 H   0  0  0  0  0  0  0  0  0  0  0  0
   36.4850   23.8510   42.1500 H   0  0  0  0  0  0  0  0  0  0  0  0
   36.0160   25.5810   41.7600 H   0  0  0  0  0  0  0  0  0  0  0  0
   38.0670   23.9910   40.3520 H   0  0  0  0  0  0  0  0  0  0  0  0
   37.2890   27.6610   42.9140 C   0  0  0  0  0  0  0  0  0  0  0  0
   38.3610   26.8090   42.5580 C   0  0  0  0  0  0  0  0  0  0  0  0
   39.6130   27.3600   42.4860 C   0  0  0  0  0  0  0  0  0  0  0  0
   39.7800   28.6760   42.7520 N   0  0  0  0  0  0  0  0  0  0  0  0
   38.7450   29.4850   43.0920 C   0  0  0  0  0  0  0  0  0  0  0  0
   37.4540   28.9550   43.1750 N   0  0  0  0  0  0  0  0  0  0  0  0
   36.3040   27.2870   42.9860 H   0  0  0  0  0  0  0  0  0  0  0  0
   40.4470   26.7460   42.2200 H   0  0  0  0  0  0  0  0  0  0  0  0
   38.8400   30.5300   43.3080 H   0  0  0  0  0  0  0  0  0  0  0  0
   36.0930   27.8220   39.2460 C   0  0  2  0  0  0  0  0  0  0  0  0
   35.1540   28.2250   38.0740 C   0  0  0  0  0  0  0  0  0  0  0  0
   36.5410   28.7610   38.2180 C   0  0  1  0  0  0  0  0  0  0  0  0
   35.6030   28.1830   40.1880 H   0  0  0  0  0  0  0  0  0  0  0  0
   34.3570   28.9530   38.2590 H   0  0  0  0  0  0  0  0  0  0  0  0
   34.9040   27.4690   37.3410 H   0  0  0  0  0  0  0  0  0  0  0  0
   37.1130   28.5730   37.3310 H   0  0  0  0  0  0  0  0  0  0  0  0
   36.7720   30.1060   38.7190 N   0  0  0  0  0  0  0  0  0  0  0  0
   36.5890   30.3800   40.0010 C   0  0  0  0  0  3  0  0  0  0  0  0
   36.8280   31.6730   40.3920 C   0  0  0  0  0  0  0  0  0  0  0  0
   36.7200   32.0310   41.3950 H   0  0  0  0  0  0  0  0  0  0  0  0
   37.2400   32.6210   39.4730 C   0  0  0  0  0  0  0  0  0  0  0  0
   37.4730   33.8250   39.7930 O   0  0  0  0  0  0  0  0  0  0  0  0
   37.4110   32.2960   38.1960 N   0  0  0  0  0  0  0  0  0  0  0  0
   37.1770   31.0140   37.7870 C   0  0  0  0  0  0  0  0  0  0  0  0
   37.3380   30.6980   36.5710 O   0  0  0  0  0  0  0  0  0  0  0  0
   37.7270   33.0270   37.4970 H   0  0  0  0  0  0  0  0  0  0  0  0
  1  7  1  0  0  0  0
  2  1  1  0  0  0  0
  3  2  2  0  0  0  0
  4  1  1  0  0  0  0
  5 13  1  0  0  0  0
  5  8  1  1  0  0  0
  6  9  1  0  0  0  0
  6  5  1  0  0  0  0
  7 11  1  6  0  0  0
  7  6  1  0  0  0  0
  7  5  1  0  0  0  0
 10  6  1  0  0  0  0
 12 18  1  0  0  0  0
 12 17  1  0  0  0  0
 13 12  2  0  0  0  0
 14 13  1  0  0  0  0
 14 15  2  0  0  0  0
 15 16  1  0  0  0  0
 16 17  2  0  0  0  0
 16 20  1  0  0  0  0
 19 14  1  0  0  0  0
 21  2  1  0  0  0  0
 21 24  1  1  0  0  0
 22 23  1  0  0  0  0
 22 25  1  0  0  0  0
 22 21  1  0  0  0  0
 23 27  1  6  0  0  0
 23 28  1  0  0  0  0
 23 21  1  0  0  0  0
 26 22  1  0  0  0  0
 28 29  1  0  0  0  0
 29 30  2  0  0  0  0
 30 31  1  0  0  0  0
 32 33  2  0  0  0  0
 32 30  1  0  0  0  0
 34 32  1  0  0  0  0
 35 34  1  0  0  0  0
 35 28  1  0  0  0  0
 36 35  2  0  0  0  0
 37 34  1  0  0  0  0
M  END
>  <minimizedAffinity>
-5.5090332

$$$$

 OpenBabel03242510203D

 37 40  0  0  1  0  0  0  0  0999 V2000
   36.3300   28.6880   41.9570 N   0  0  0  0  0  0  0  0  0  0  0  0
   36.0430   29.4830   40.8590 C   0  0  0  0  0  0  0  0  0  0  0  0
   35.9270   30.7360   40.7690 O   0  0  0  0  0  0  0  0  0  0  0  0
   35.7230   27.8230   42.0640 H   0  0  0  0  0  0  0  0  0  0  0  0
   38.4210   27.9440   43.0620 C   0  0  1  0  0  0  0  0  0  0  0  0
   38.7730   29.0670   42.2800 C   0  0  0  0  0  0  0  0  0  0  0  0
   37.3660   28.9890   42.8980 C   0  0  1  0  0  0  0  0  0  0  0  0
   38.8540   27.8000   44.0920 H   0  0  0  0  0  0  0  0  0  0  0  0
   39.4570   29.8830   42.6620 H   0  0  0  0  0  0  0  0  0  0  0  0
   38.7960   29.0350   41.1760 H   0  0  0  0  0  0  0  0  0  0  0  0
   37.2210   29.8670   43.5310 H   0  0  0  0  0  0  0  0  0  0  0  0
   37.0820   25.7740   42.6700 C   0  0  0  0  0  0  0  0  0  0  0  0
   38.1770   26.6110   42.3540 C   0  0  0  0  0  0  0  0  0  0  0  0
   39.0490   26.1810   41.3880 C   0  0  0  0  0  0  0  0  0  0  0  0
   38.8370   24.9910   40.7800 N   0  0  0  0  0  0  0  0  0  0  0  0
   37.7830   24.1950   41.0910 C   0  0  0  0  0  0  0  0  0  0  0  0
   36.8750   24.6040   42.0720 N   0  0  0  0  0  0  0  0  0  0  0  0
   36.3800   26.0590   43.4050 H   0  0  0  0  0  0  0  0  0  0  0  0
   39.8880   26.7890   41.1240 H   0  0  0  0  0  0  0  0  0  0  0  0
   37.5850   23.2470   40.6310 H   0  0  0  0  0  0  0  0  0  0  0  0
   35.8240   28.8400   39.5000 C   0  0  2  0  0  0  0  0  0  0  0  0
   36.2040   27.3400   39.3530 C   0  0  0  0  0  0  0  0  0  0  0  0
   36.9480   28.4320   38.6580 C   0  0  1  0  0  0  0  0  0  0  0  0
   34.7910   28.9520   39.0770 H   0  0  0  0  0  0  0  0  0  0  0  0
   35.6010   26.7020   38.6970 H   0  0  0  0  0  0  0  0  0  0  0  0
   36.6070   26.8310   40.2190 H   0  0  0  0  0  0  0  0  0  0  0  0
   37.9920   28.3890   38.8950 H   0  0  0  0  0  0  0  0  0  0  0  0
   36.7390   28.6930   37.2430 N   0  0  0  0  0  0  0  0  0  0  0  0
   35.5670   29.1350   36.8130 C   0  0  0  0  0  3  0  0  0  0  0  0
   35.4540   29.3550   35.4640 C   0  0  0  0  0  0  0  0  0  0  0  0
   34.5660   29.7110   34.9820 H   0  0  0  0  0  0  0  0  0  0  0  0
   36.5230   29.1210   34.6190 C   0  0  0  0  0  0  0  0  0  0  0  0
   36.4600   29.3120   33.3680 O   0  0  0  0  0  0  0  0  0  0  0  0
   37.6800   28.6770   35.1000 N   0  0  0  0  0  0  0  0  0  0  0  0
   37.8130   28.4510   36.4400 C   0  0  0  0  0  0  0  0  0  0  0  0
   38.9130   28.0280   36.9050 O   0  0  0  0  0  0  0  0  0  0  0  0
   38.4960   28.5000   34.4480 H   0  0  0  0  0  0  0  0  0  0  0  0
  1  4  1  0  0  0  0
  1  7  1  0  0  0  0
  2  1  1  0  0  0  0
  3  2  2  0  0  0  0
  5  8  1  1  0  0  0
  6  9  1  0  0  0  0
  6  7  1  0  0  0  0
  6  5  1  0  0  0  0
  7  5  1  0  0  0  0
  7 11  1  1  0  0  0
 10  6  1  0  0  0  0
 12 18  1  0  0  0  0
 13 12  1  0  0  0  0
 13  5  1  0  0  0  0
 14 13  2  0  0  0  0
 15 16  2  0  0  0  0
 15 14  1  0  0  0  0
 16 17  1  0  0  0  0
 17 12  2  0  0  0  0
 19 14  1  0  0  0  0
 20 16  1  0  0  0  0
 21 24  1  6  0  0  0
 21  2  1  0  0  0  0
 22 21  1  0  0  0  0
 22 26  1  0  0  0  0
 23 27  1  1  0  0  0
 23 22  1  0  0  0  0
 23 21  1  0  0  0  0
 25 22  1  0  0  0  0
 28 23  1  0  0  0  0
 29 28  1  0  0  0  0
 30 29  2  0  0  0  0
 31 30  1  0  0  0  0
 32 34  1  0  0  0  0
 32 30  1  0  0  0  0
 33 32  2  0  0  0  0
 34 35  1  0  0  0  0
 35 36  2  0  0  0  0
 35 28  1  0  0  0  0
 37 34  1  0  0  0  0
M  END
>  <minimizedAffinity>
-5.43563271

$$$$

 OpenBabel03242510203D

 37 40  0  0  1  0  0  0  0  0999 V2000
   38.0220   27.3690   40.5890 N   0  0  0  0  0  0  0  0  0  0  0  0
   37.8660   28.5470   39.8780 C   0  0  0  0  0  0  0  0  0  0  0  0
   36.9570   28.9020   39.0790 O   0  0  0  0  0  0  0  0  0  0  0  0
   38.9980   26.9530   40.5740 H   0  0  0  0  0  0  0  0  0  0  0  0
   37.3350   26.0760   42.5910 C   0  0  1  0  0  0  0  0  0  0  0  0
   36.6900   27.3290   42.6980 C   0  0  0  0  0  0  0  0  0  0  0  0
   36.9560   26.7340   41.3030 C   0  0  1  0  0  0  0  0  0  0  0  0
   36.7960   25.1260   42.8670 H   0  0  0  0  0  0  0  0  0  0  0  0
   35.6090   27.4310   43.0150 H   0  0  0  0  0  0  0  0  0  0  0  0
   37.2420   28.2610   42.9150 H   0  0  0  0  0  0  0  0  0  0  0  0
   36.0000   26.6370   40.7850 H   0  0  0  0  0  0  0  0  0  0  0  0
   39.5540   27.0940   43.4230 C   0  0  0  0  0  0  0  0  0  0  0  0
   38.8290   25.9970   42.9030 C   0  0  0  0  0  0  0  0  0  0  0  0
   39.5180   24.8380   42.6590 C   0  0  0  0  0  0  0  0  0  0  0  0
   40.8440   24.7820   42.9200 N   0  0  0  0  0  0  0  0  0  0  0  0
   41.5310   25.8410   43.4200 C   0  0  0  0  0  0  0  0  0  0  0  0
   40.8580   27.0380   43.6800 N   0  0  0  0  0  0  0  0  0  0  0  0
   39.0710   28.0100   43.6310 H   0  0  0  0  0  0  0  0  0  0  0  0
   39.0020   23.9880   42.2650 H   0  0  0  0  0  0  0  0  0  0  0  0
   42.5800   25.8330   43.6370 H   0  0  0  0  0  0  0  0  0  0  0  0
   38.8960   29.6550   40.0210 C   0  0  2  0  0  0  0  0  0  0  0  0
   38.6890   30.6730   41.1780 C   0  0  0  0  0  0  0  0  0  0  0  0
   38.5620   31.0500   39.7380 C   0  0  1  0  0  0  0  0  0  0  0  0
   39.9630   29.3140   40.0820 H   0  0  0  0  0  0  0  0  0  0  0  0
   39.5680   31.0850   41.6860 H   0  0  0  0  0  0  0  0  0  0  0  0
   37.8250   30.5480   41.8160 H   0  0  0  0  0  0  0  0  0  0  0  0
   37.6050   31.4920   39.5450 H   0  0  0  0  0  0  0  0  0  0  0  0
   39.6240   31.7760   39.0610 N   0  0  0  0  0  0  0  0  0  0  0  0
   40.6710   32.2150   39.7420 C   0  0  0  0  0  3  0  0  0  0  0  0
   41.6270   32.8910   39.0290 C   0  0  0  0  0  0  0  0  0  0  0  0
   42.5210   33.2990   39.4530 H   0  0  0  0  0  0  0  0  0  0  0  0
   41.4810   33.0900   37.6680 C   0  0  0  0  0  0  0  0  0  0  0  0
   42.3410   33.7080   36.9730 O   0  0  0  0  0  0  0  0  0  0  0  0
   40.4110   32.6290   37.0290 N   0  0  0  0  0  0  0  0  0  0  0  0
   39.4470   31.9540   37.7210 C   0  0  0  0  0  0  0  0  0  0  0  0
   38.4250   31.5130   37.1170 O   0  0  0  0  0  0  0  0  0  0  0  0
   40.3050   32.7850   35.9860 H   0  0  0  0  0  0  0  0  0  0  0  0
  1  7  1  0  0  0  0
  2 21  1  0  0  0  0
  2  1  1  0  0  0  0
  3  2  2  0  0  0  0
  4  1  1  0  0  0  0
  5  6  1  0  0  0  0
  5  8  1  1  0  0  0
  5 13  1  0  0  0  0
  6 10  1  0  0  0  0
  6  9  1  0  0  0  0
  7 11  1  6  0  0  0
  7  5  1  0  0  0  0
  7  6  1  0  0  0  0
 12 18  1  0  0  0  0
 12 17  1  0  0  0  0
 13 12  2  0  0  0  0
 14 13  1  0  0  0  0
 14 15  2  0  0  0  0
 15 16  1  0  0  0  0
 16 20  1  0  0  0  0
 16 17  2  0  0  0  0
 19 14  1  0  0  0  0
 21 24  1  6  0  0  0
 21 22  1  0  0  0  0
 22 25  1  0  0  0  0
 22 26  1  0  0  0  0
 23 27  1  6  0  0  0
 23 21  1  0  0  0  0
 23 22  1  0  0  0  0
 28 23  1  0  0  0  0
 28 29  1  0  0  0  0
 30 31  1  0  0  0  0
 30 29  2  0  0  0  0
 32 30  1  0  0  0  0
 33 32  2  0  0  0  0
 34 32  1  0  0  0  0
 34 35  1  0  0  0  0
 35 28  1  0  0  0  0
 36 35  2  0  0  0  0
 37 34  1  0  0  0  0
M  END
>  <minimizedAffinity>
-5.34470224

$$$$

 OpenBabel03242510203D

 37 40  0  0  1  0  0  0  0  0999 V2000
   37.4480   29.6010   40.0990 N   0  0  0  0  0  0  0  0  0  0  0  0
   36.7410   28.8570   41.0290 C   0  0  0  0  0  0  0  0  0  0  0  0
   35.4990   28.6730   41.1490 O   0  0  0  0  0  0  0  0  0  0  0  0
   38.2200   30.2120   40.4960 H   0  0  0  0  0  0  0  0  0  0  0  0
   37.6070   30.7690   37.9180 C   0  0  1  0  0  0  0  0  0  0  0  0
   38.4360   29.6300   37.8090 C   0  0  0  0  0  0  0  0  0  0  0  0
   37.1780   29.5660   38.6940 C   0  0  1  0  0  0  0  0  0  0  0  0
   36.9560   31.0920   37.0570 H   0  0  0  0  0  0  0  0  0  0  0  0
   38.4490   28.9730   36.8870 H   0  0  0  0  0  0  0  0  0  0  0  0
   39.3910   29.5390   38.3570 H   0  0  0  0  0  0  0  0  0  0  0  0
   36.5450   28.7540   38.3300 H   0  0  0  0  0  0  0  0  0  0  0  0
   39.4740   32.1280   39.0670 C   0  0  0  0  0  0  0  0  0  0  0  0
   38.1110   31.9610   38.7300 C   0  0  0  0  0  0  0  0  0  0  0  0
   37.2250   32.9060   39.1780 C   0  0  0  0  0  0  0  0  0  0  0  0
   37.6770   33.9490   39.9130 N   0  0  0  0  0  0  0  0  0  0  0  0
   38.9880   34.0990   40.2300 C   0  0  0  0  0  0  0  0  0  0  0  0
   39.9170   33.1530   39.7900 N   0  0  0  0  0  0  0  0  0  0  0  0
   40.1980   31.4300   38.7450 H   0  0  0  0  0  0  0  0  0  0  0  0
   36.1860   32.8130   38.9430 H   0  0  0  0  0  0  0  0  0  0  0  0
   39.3800   34.9110   40.8100 H   0  0  0  0  0  0  0  0  0  0  0  0
   37.4880   28.0990   42.1130 C   0  0  2  0  0  0  0  0  0  0  0  0
   37.3680   28.6340   43.5670 C   0  0  0  0  0  0  0  0  0  0  0  0
   38.6440   28.6790   42.7930 C   0  0  1  0  0  0  0  0  0  0  0  0
   37.2790   26.9980   42.1590 H   0  0  0  0  0  0  0  0  0  0  0  0
   37.3570   27.9190   44.3970 H   0  0  0  0  0  0  0  0  0  0  0  0
   36.7670   29.5190   43.7350 H   0  0  0  0  0  0  0  0  0  0  0  0
   39.0260   29.6800   42.7490 H   0  0  0  0  0  0  0  0  0  0  0  0
   39.7080   27.7220   43.0530 N   0  0  0  0  0  0  0  0  0  0  0  0
   39.4160   26.4950   43.4570 C   0  0  0  0  0  3  0  0  0  0  0  0
   40.4770   25.6550   43.6800 C   0  0  0  0  0  0  0  0  0  0  0  0
   40.3850   24.6400   44.0080 H   0  0  0  0  0  0  0  0  0  0  0  0
   41.7740   26.0910   43.4830 C   0  0  0  0  0  0  0  0  0  0  0  0
   42.7810   25.3470   43.6770 O   0  0  0  0  0  0  0  0  0  0  0  0
   42.0150   27.3330   43.0760 N   0  0  0  0  0  0  0  0  0  0  0  0
   40.9730   28.1850   42.8490 C   0  0  0  0  0  0  0  0  0  0  0  0
   41.1970   29.3700   42.4610 O   0  0  0  0  0  0  0  0  0  0  0  0
   43.0120   27.6620   42.9270 H   0  0  0  0  0  0  0  0  0  0  0  0
  1  4  1  0  0  0  0
  1  2  1  0  0  0  0
  2  3  2  0  0  0  0
  2 21  1  0  0  0  0
  5  8  1  6  0  0  0
  5  7  1  0  0  0  0
  5 13  1  0  0  0  0
  6  5  1  0  0  0  0
  6 10  1  0  0  0  0
  6  7  1  0  0  0  0
  7 11  1  6  0  0  0
  7  1  1  0  0  0  0
  9  6  1  0  0  0  0
 12 17  1  0  0  0  0
 13 12  2  0  0  0  0
 13 14  1  0  0  0  0
 14 15  2  0  0  0  0
 15 16  1  0  0  0  0
 16 20  1  0  0  0  0
 17 16  2  0  0  0  0
 18 12  1  0  0  0  0
 19 14  1  0  0  0  0
 21 24  1  6  0  0  0
 21 23  1  0  0  0  0
 21 22  1  0  0  0  0
 22 26  1  0  0  0  0
 22 25  1  0  0  0  0
 23 27  1  6  0  0  0
 23 28  1  0  0  0  0
 23 22  1  0  0  0  0
 28 29  1  0  0  0  0
 29 30  2  0  0  0  0
 30 31  1  0  0  0  0
 32 33  2  0  0  0  0
 32 30  1  0  0  0  0
 34 32  1  0  0  0  0
 35 28  1  0  0  0  0
 35 34  1  0  0  0  0
 36 35  2  0  0  0  0
 37 34  1  0  0  0  0
M  END
>  <minimizedAffinity>
-5.3235054

$$$$

 OpenBabel03242510203D

 37 40  0  0  1  0  0  0  0  0999 V2000
   37.6160   30.0820   41.8100 N   0  0  0  0  0  0  0  0  0  0  0  0
   37.6510   28.7520   42.1970 C   0  0  0  0  0  0  0  0  0  0  0  0
   36.8280   28.0800   42.8760 O   0  0  0  0  0  0  0  0  0  0  0  0
   38.5250   30.6170   41.9340 H   0  0  0  0  0  0  0  0  0  0  0  0
   36.6930   31.7770   40.2540 C   0  0  1  0  0  0  0  0  0  0  0  0
   36.2630   30.5230   39.7630 C   0  0  0  0  0  0  0  0  0  0  0  0
   36.4480   30.7170   41.2790 C   0  0  1  0  0  0  0  0  0  0  0  0
   35.9990   32.6650   40.2500 H   0  0  0  0  0  0  0  0  0  0  0  0
   35.2080   30.3440   39.3940 H   0  0  0  0  0  0  0  0  0  0  0  0
   36.9570   29.7990   39.3010 H   0  0  0  0  0  0  0  0  0  0  0  0
   35.4980   30.4990   41.7700 H   0  0  0  0  0  0  0  0  0  0  0  0
   38.7850   33.1790   40.8100 C   0  0  0  0  0  0  0  0  0  0  0  0
   38.1470   32.1870   40.0290 C   0  0  0  0  0  0  0  0  0  0  0  0
   38.8760   31.6000   39.0280 C   0  0  0  0  0  0  0  0  0  0  0  0
   40.1570   31.9830   38.8230 N   0  0  0  0  0  0  0  0  0  0  0  0
   40.7600   32.9360   39.5780 C   0  0  0  0  0  0  0  0  0  0  0  0
   40.0450   33.5540   40.6080 N   0  0  0  0  0  0  0  0  0  0  0  0
   38.2690   33.6600   41.5960 H   0  0  0  0  0  0  0  0  0  0  0  0
   38.4260   30.8460   38.4170 H   0  0  0  0  0  0  0  0  0  0  0  0
   41.7710   33.2640   39.4440 H   0  0  0  0  0  0  0  0  0  0  0  0
   38.8200   27.8770   41.7790 C   0  0  2  0  0  0  0  0  0  0  0  0
   38.4860   26.5230   41.0920 C   0  0  0  0  0  0  0  0  0  0  0  0
   39.1030   26.6090   42.4490 C   0  0  1  0  0  0  0  0  0  0  0  0
   39.5910   28.3800   41.1380 H   0  0  0  0  0  0  0  0  0  0  0  0
   39.1500   26.1480   40.3060 H   0  0  0  0  0  0  0  0  0  0  0  0
   37.4430   26.2700   40.9500 H   0  0  0  0  0  0  0  0  0  0  0  0
   38.5130   26.0750   43.1680 H   0  0  0  0  0  0  0  0  0  0  0  0
   40.5220   26.3550   42.6400 N   0  0  0  0  0  0  0  0  0  0  0  0
   41.4000   27.3340   42.4900 C   0  0  0  0  0  3  0  0  0  0  0  0
   42.7180   27.0110   42.6870 C   0  0  0  0  0  0  0  0  0  0  0  0
   43.5300   27.7030   42.5980 H   0  0  0  0  0  0  0  0  0  0  0  0
   43.0830   25.7210   43.0270 C   0  0  0  0  0  0  0  0  0  0  0  0
   44.2890   25.3810   43.2190 O   0  0  0  0  0  0  0  0  0  0  0  0
   42.1630   24.7720   43.1670 N   0  0  0  0  0  0  0  0  0  0  0  0
   40.8460   25.0740   42.9740 C   0  0  0  0  0  0  0  0  0  0  0  0
   39.9640   24.1740   43.1060 O   0  0  0  0  0  0  0  0  0  0  0  0
   42.4490   23.7860   43.4280 H   0  0  0  0  0  0  0  0  0  0  0  0
  1  4  1  0  0  0  0
  1  2  1  0  0  0  0
  2  3  2  0  0  0  0
  5  8  1  6  0  0  0
  5  7  1  0  0  0  0
  6  5  1  0  0  0  0
  6  7  1  0  0  0  0
  7 11  1  1  0  0  0
  7  1  1  0  0  0  0
  9  6  1  0  0  0  0
 10  6  1  0  0  0  0
 12 18  1  0  0  0  0
 13  5  1  0  0  0  0
 13 12  2  0  0  0  0
 14 13  1  0  0  0  0
 15 14  2  0  0  0  0
 15 16  1  0  0  0  0
 16 17  2  0  0  0  0
 17 12  1  0  0  0  0
 19 14  1  0  0  0  0
 20 16  1  0  0  0  0
 21 24  1  6  0  0  0
 21  2  1  0  0  0  0
 21 23  1  0  0  0  0
 22 21  1  0  0  0  0
 22 23  1  0  0  0  0
 23 28  1  0  0  0  0
 23 27  1  1  0  0  0
 25 22  1  0  0  0  0
 26 22  1  0  0  0  0
 28 35  1  0  0  0  0
 29 28  1  0  0  0  0
 29 30  2  0  0  0  0
 30 32  1  0  0  0  0
 31 30  1  0  0  0  0
 32 34  1  0  0  0  0
 32 33  2  0  0  0  0
 34 37  1  0  0  0  0
 35 36  2  0  0  0  0
 35 34  1  0  0  0  0
M  END
>  <minimizedAffinity>
-5.30863285

$$$$

 OpenBabel03242510203D

 37 40  0  0  1  0  0  0  0  0999 V2000
   37.4100   30.0710   39.5690 N   0  0  0  0  0  0  0  0  0  0  0  0
   36.7970   29.8870   40.7980 C   0  0  0  0  0  0  0  0  0  0  0  0
   36.1030   30.6830   41.4890 O   0  0  0  0  0  0  0  0  0  0  0  0
   38.4070   29.7150   39.5000 H   0  0  0  0  0  0  0  0  0  0  0  0
   37.3320   32.0110   38.0280 C   0  0  1  0  0  0  0  0  0  0  0  0
   37.6800   30.8960   37.2320 C   0  0  0  0  0  0  0  0  0  0  0  0
   36.7660   30.6950   38.4540 C   0  0  1  0  0  0  0  0  0  0  0  0
   36.6110   32.7880   37.6470 H   0  0  0  0  0  0  0  0  0  0  0  0
   37.2220   30.7110   36.2130 H   0  0  0  0  0  0  0  0  0  0  0  0
   38.6640   30.4010   37.3050 H   0  0  0  0  0  0  0  0  0  0  0  0
   35.8280   30.2540   38.1110 H   0  0  0  0  0  0  0  0  0  0  0  0
   39.7820   32.3750   38.7490 C   0  0  0  0  0  0  0  0  0  0  0  0
   38.4010   32.6200   38.9350 C   0  0  0  0  0  0  0  0  0  0  0  0
   38.0330   33.4200   39.9840 C   0  0  0  0  0  0  0  0  0  0  0  0
   38.9840   33.9390   40.7940 N   0  0  0  0  0  0  0  0  0  0  0  0
   40.3070   33.6980   40.6070 C   0  0  0  0  0  0  0  0  0  0  0  0
   40.7170   32.8860   39.5450 N   0  0  0  0  0  0  0  0  0  0  0  0
   40.1200   31.7680   37.9540 H   0  0  0  0  0  0  0  0  0  0  0  0
   36.9980   33.6260   40.1550 H   0  0  0  0  0  0  0  0  0  0  0  0
   41.0870   34.0910   41.2270 H   0  0  0  0  0  0  0  0  0  0  0  0
   36.9120   28.5470   41.5040 C   0  0  2  0  0  0  0  0  0  0  0  0
   37.7610   28.4990   42.8060 C   0  0  0  0  0  0  0  0  0  0  0  0
   38.1740   27.8110   41.5460 C   0  0  1  0  0  0  0  0  0  0  0  0
   35.9370   28.0440   41.7390 H   0  0  0  0  0  0  0  0  0  0  0  0
   37.4520   27.8310   43.6170 H   0  0  0  0  0  0  0  0  0  0  0  0
   38.2300   29.4150   43.1390 H   0  0  0  0  0  0  0  0  0  0  0  0
   39.1540   28.1260   41.2460 H   0  0  0  0  0  0  0  0  0  0  0  0
   38.0150   26.3730   41.3960 N   0  0  0  0  0  0  0  0  0  0  0  0
   37.1910   25.7080   42.1900 C   0  0  0  0  0  3  0  0  0  0  0  0
   37.0990   24.3550   41.9820 C   0  0  0  0  0  0  0  0  0  0  0  0
   36.4730   23.6980   42.5500 H   0  0  0  0  0  0  0  0  0  0  0  0
   37.8390   23.7440   40.9870 C   0  0  0  0  0  0  0  0  0  0  0  0
   37.7820   22.4980   40.7620 O   0  0  0  0  0  0  0  0  0  0  0  0
   38.6530   24.4560   40.2150 N   0  0  0  0  0  0  0  0  0  0  0  0
   38.7580   25.8040   40.4060 C   0  0  0  0  0  0  0  0  0  0  0  0
   39.5320   26.4890   39.6730 O   0  0  0  0  0  0  0  0  0  0  0  0
   39.2170   23.9820   39.4530 H   0  0  0  0  0  0  0  0  0  0  0  0
  1  2  1  0  0  0  0
  2  3  2  0  0  0  0
  2 21  1  0  0  0  0
  4  1  1  0  0  0  0
  5  8  1  6  0  0  0
  5  7  1  0  0  0  0
  5 13  1  0  0  0  0
  6 10  1  0  0  0  0
  6  5  1  0  0  0  0
  6  7  1  0  0  0  0
  7 11  1  6  0  0  0
  7  1  1  0  0  0  0
  9  6  1  0  0  0  0
 12 13  2  0  0  0  0
 12 17  1  0  0  0  0
 13 14  1  0  0  0  0
 14 19  1  0  0  0  0
 14 15  2  0  0  0  0
 16 15  1  0  0  0  0
 16 20  1  0  0  0  0
 17 16  2  0  0  0  0
 18 12  1  0  0  0  0
 21 23  1  0  0  0  0
 21 24  1  1  0  0  0
 21 22  1  0  0  0  0
 22 26  1  0  0  0  0
 22 25  1  0  0  0  0
 23 27  1  6  0  0  0
 23 22  1  0  0  0  0
 28 23  1  0  0  0  0
 28 29  1  0  0  0  0
 30 29  2  0  0  0  0
 30 31  1  0  0  0  0
 32 30  1  0  0  0  0
 33 32  2  0  0  0  0
 34 35  1  0  0  0  0
 34 32  1  0  0  0  0
 35 28  1  0  0  0  0
 36 35  2  0  0  0  0
 37 34  1  0  0  0  0
M  END
>  <minimizedAffinity>
-5.26954651

$$$$

 OpenBabel03242510203D

 37 40  0  0  1  0  0  0  0  0999 V2000
   37.4360   27.8810   41.2190 N   0  0  0  0  0  0  0  0  0  0  0  0
   36.7810   29.0680   40.9350 C   0  0  0  0  0  0  0  0  0  0  0  0
   35.5470   29.3330   40.9200 O   0  0  0  0  0  0  0  0  0  0  0  0
   38.2180   27.6210   40.5500 H   0  0  0  0  0  0  0  0  0  0  0  0
   37.2040   25.5720   42.0920 C   0  0  1  0  0  0  0  0  0  0  0  0
   38.2620   26.1590   42.8230 C   0  0  0  0  0  0  0  0  0  0  0  0
   37.1020   27.0440   42.3310 C   0  0  1  0  0  0  0  0  0  0  0  0
   36.4500   24.9090   42.6020 H   0  0  0  0  0  0  0  0  0  0  0  0
   38.3710   26.0320   43.9420 H   0  0  0  0  0  0  0  0  0  0  0  0
   39.2420   26.3860   42.3670 H   0  0  0  0  0  0  0  0  0  0  0  0
   36.6490   27.5280   43.1980 H   0  0  0  0  0  0  0  0  0  0  0  0
   36.4390   25.0070   39.6940 C   0  0  0  0  0  0  0  0  0  0  0  0
   37.4710   25.1310   40.6530 C   0  0  0  0  0  0  0  0  0  0  0  0
   38.7460   24.8190   40.2590 C   0  0  0  0  0  0  0  0  0  0  0  0
   38.9710   24.4110   38.9890 N   0  0  0  0  0  0  0  0  0  0  0  0
   37.9730   24.2950   38.0760 C   0  0  0  0  0  0  0  0  0  0  0  0
   36.6610   24.6050   38.4450 N   0  0  0  0  0  0  0  0  0  0  0  0
   35.4390   25.2370   39.9450 H   0  0  0  0  0  0  0  0  0  0  0  0
   39.5510   24.9020   40.9570 H   0  0  0  0  0  0  0  0  0  0  0  0
   38.1140   23.9750   37.0630 H   0  0  0  0  0  0  0  0  0  0  0  0
   37.5850   30.3070   40.5820 C   0  0  2  0  0  0  0  0  0  0  0  0
   36.8050   31.6450   40.4400 C   0  0  0  0  0  0  0  0  0  0  0  0
   37.4520   30.9600   39.2810 C   0  0  1  0  0  0  0  0  0  0  0  0
   38.4610   30.5170   41.2510 H   0  0  0  0  0  0  0  0  0  0  0  0
   37.2880   32.5770   40.7540 H   0  0  0  0  0  0  0  0  0  0  0  0
   35.7340   31.6260   40.5930 H   0  0  0  0  0  0  0  0  0  0  0  0
   36.7380   30.7800   38.5020 H   0  0  0  0  0  0  0  0  0  0  0  0
   38.7120   31.4410   38.7390 N   0  0  0  0  0  0  0  0  0  0  0  0
   39.7880   31.5020   39.5090 C   0  0  0  0  0  3  0  0  0  0  0  0
   40.9360   31.9680   38.9210 C   0  0  0  0  0  0  0  0  0  0  0  0
   41.8750   32.0690   39.4250 H   0  0  0  0  0  0  0  0  0  0  0  0
   40.9430   32.3470   37.5910 C   0  0  0  0  0  0  0  0  0  0  0  0
   41.9820   32.7810   37.0100 O   0  0  0  0  0  0  0  0  0  0  0  0
   39.8360   32.2660   36.8600 N   0  0  0  0  0  0  0  0  0  0  0  0
   38.6830   31.8060   37.4270 C   0  0  0  0  0  0  0  0  0  0  0  0
   37.6250   31.7270   36.7350 O   0  0  0  0  0  0  0  0  0  0  0  0
   39.8470   32.5580   35.8410 H   0  0  0  0  0  0  0  0  0  0  0  0
  1  7  1  0  0  0  0
  2  1  1  0  0  0  0
  3  2  2  0  0  0  0
  4  1  1  0  0  0  0
  5  7  1  0  0  0  0
  5  8  1  1  0  0  0
  5  6  1  0  0  0  0
  6  9  1  0  0  0  0
  7  6  1  0  0  0  0
  7 11  1  1  0  0  0
 10  6  1  0  0  0  0
 12 18  1  0  0  0  0
 12 13  1  0  0  0  0
 13  5  1  0  0  0  0
 14 13  2  0  0  0  0
 14 19  1  0  0  0  0
 15 14  1  0  0  0  0
 16 17  1  0  0  0  0
 16 15  2  0  0  0  0
 17 12  2  0  0  0  0
 20 16  1  0  0  0  0
 21  2  1  0  0  0  0
 21 24  1  1  0  0  0
 22 21  1  0  0  0  0
 22 26  1  0  0  0  0
 22 25  1  0  0  0  0
 23 27  1  6  0  0  0
 23 22  1  0  0  0  0
 23 21  1  0  0  0  0
 28 23  1  0  0  0  0
 28 29  1  0  0  0  0
 30 31  1  0  0  0  0
 30 29  2  0  0  0  0
 32 30  1  0  0  0  0
 33 32  2  0  0  0  0
 34 35  1  0  0  0  0
 34 32  1  0  0  0  0
 35 28  1  0  0  0  0
 36 35  2  0  0  0  0
 37 34  1  0  0  0  0
M  END
>  <minimizedAffinity>
-5.22407436

$$$$

 OpenBabel03242510203D

 37 40  0  0  1  0  0  0  0  0999 V2000
   37.4390   29.4830   39.1080 N   0  0  0  0  0  0  0  0  0  0  0  0
   38.1510   30.1770   38.1430 C   0  0  0  0  0  0  0  0  0  0  0  0
   37.7730   30.6500   37.0360 O   0  0  0  0  0  0  0  0  0  0  0  0
   37.9230   28.6240   39.5000 H   0  0  0  0  0  0  0  0  0  0  0  0
   35.8100   29.5220   40.9770 C   0  0  1  0  0  0  0  0  0  0  0  0
   36.1570   30.8710   40.7360 C   0  0  0  0  0  0  0  0  0  0  0  0
   36.1400   29.8750   39.5620 C   0  0  1  0  0  0  0  0  0  0  0  0
   34.7450   29.2340   41.2060 H   0  0  0  0  0  0  0  0  0  0  0  0
   35.3890   31.7020   40.7150 H   0  0  0  0  0  0  0  0  0  0  0  0
   37.1540   31.2780   40.9810 H   0  0  0  0  0  0  0  0  0  0  0  0
   35.4420   30.2460   38.8090 H   0  0  0  0  0  0  0  0  0  0  0  0
   37.7900   29.1550   42.5880 C   0  0  0  0  0  0  0  0  0  0  0  0
   36.8130   28.6320   41.7100 C   0  0  0  0  0  0  0  0  0  0  0  0
   36.7980   27.2770   41.5100 C   0  0  0  0  0  0  0  0  0  0  0  0
   37.7020   26.4980   42.1480 N   0  0  0  0  0  0  0  0  0  0  0  0
   38.6360   27.0100   42.9890 C   0  0  0  0  0  0  0  0  0  0  0  0
   38.6790   28.3890   43.2160 N   0  0  0  0  0  0  0  0  0  0  0  0
   37.8440   30.1920   42.7790 H   0  0  0  0  0  0  0  0  0  0  0  0
   36.0730   26.8470   40.8520 H   0  0  0  0  0  0  0  0  0  0  0  0
   39.3660   26.4240   43.5100 H   0  0  0  0  0  0  0  0  0  0  0  0
   39.6240   30.4760   38.3620 C   0  0  2  0  0  0  0  0  0  0  0  0
   39.9770   31.6710   39.2910 C   0  0  0  0  0  0  0  0  0  0  0  0
   40.2470   31.6830   37.8220 C   0  0  1  0  0  0  0  0  0  0  0  0
   40.2430   29.6070   38.7080 H   0  0  0  0  0  0  0  0  0  0  0  0
   40.8700   31.6050   39.9240 H   0  0  0  0  0  0  0  0  0  0  0  0
   39.1620   32.2310   39.7300 H   0  0  0  0  0  0  0  0  0  0  0  0
   39.7890   32.5350   37.3600 H   0  0  0  0  0  0  0  0  0  0  0  0
   41.5900   31.4650   37.3090 N   0  0  0  0  0  0  0  0  0  0  0  0
   42.0010   30.2410   37.0160 C   0  0  0  0  0  3  0  0  0  0  0  0
   43.2810   30.1220   36.5390 C   0  0  0  0  0  0  0  0  0  0  0  0
   43.7400   29.1950   36.2630 H   0  0  0  0  0  0  0  0  0  0  0  0
   44.0790   31.2400   36.3790 C   0  0  0  0  0  0  0  0  0  0  0  0
   45.2670   31.1730   35.9400 O   0  0  0  0  0  0  0  0  0  0  0  0
   43.6200   32.4480   36.6870 N   0  0  0  0  0  0  0  0  0  0  0  0
   42.3490   32.5870   37.1650 C   0  0  0  0  0  0  0  0  0  0  0  0
   41.9060   33.7370   37.4600 O   0  0  0  0  0  0  0  0  0  0  0  0
   44.2370   33.3010   36.5620 H   0  0  0  0  0  0  0  0  0  0  0  0
  1  4  1  0  0  0  0
  1  7  1  0  0  0  0
  2 21  1  0  0  0  0
  2  1  1  0  0  0  0
  3  2  2  0  0  0  0
  5  8  1  1  0  0  0
  5 13  1  0  0  0  0
  6  5  1  0  0  0  0
  6 10  1  0  0  0  0
  7 11  1  6  0  0  0
  7  6  1  0  0  0  0
  7  5  1  0  0  0  0
  9  6  1  0  0  0  0
 12 18  1  0  0  0  0
 12 17  1  0  0  0  0
 13 12  2  0  0  0  0
 14 13  1  0  0  0  0
 14 15  2  0  0  0  0
 15 16  1  0  0  0  0
 16 17  2  0  0  0  0
 16 20  1  0  0  0  0
 19 14  1  0  0  0  0
 21 24  1  1  0  0  0
 21 22  1  0  0  0  0
 22 26  1  0  0  0  0
 22 25  1  0  0  0  0
 23 27  1  6  0  0  0
 23 21  1  0  0  0  0
 23 22  1  0  0  0  0
 28 23  1  0  0  0  0
 29 28  1  0  0  0  0
 30 29  2  0  0  0  0
 31 30  1  0  0  0  0
 32 30  1  0  0  0  0
 32 34  1  0  0  0  0
 33 32  2  0  0  0  0
 34 35  1  0  0  0  0
 35 28  1  0  0  0  0
 35 36  2  0  0  0  0
 37 34  1  0  0  0  0
M  END
>  <minimizedAffinity>
-5.21123457

$$$$
