
 OpenBabel03242519413D

 30 31  0  0  0  0  0  0  0  0999 V2000
   48.0880   32.6910   41.7000 O   0  0  0  0  0  0  0  0  0  0  0  0
   47.0780   33.7900   41.3600 P   0  0  2  0  0  0  0  0  0  0  0  0
   45.5970   33.4580   42.1640 O   0  0  0  0  0  0  0  0  0  0  0  0
   44.4040   35.8480   44.5810 C   0  0  0  0  0  0  0  0  0  0  0  0
   44.6860   35.2420   43.3380 C   0  0  0  0  0  0  0  0  0  0  0  0
   45.3310   34.0080   43.3720 C   0  0  0  0  0  0  0  0  0  0  0  0
   45.6470   33.4550   44.5610 N   0  0  0  0  0  0  0  0  0  0  0  0
   45.3620   34.0620   45.7280 C   0  0  0  0  0  0  0  0  0  0  0  0
   44.7430   35.2550   45.7430 N   0  0  0  0  0  0  0  0  0  0  0  0
   43.9050   36.8080   44.5990 H   0  0  0  0  0  0  0  0  0  0  0  0
   44.3760   35.7940   42.4650 H   0  0  0  0  0  0  0  0  0  0  0  0
   45.6620   33.5290   46.6160 H   0  0  0  0  0  0  0  0  0  0  0  0
   46.6610   33.8270   39.7490 O   0  0  0  0  0  0  0  0  0  0  0  0
   45.6010   33.3020   39.1210 C   0  0  0  0  0  0  0  0  0  0  0  0
   45.9490   32.2320   38.3610 O   0  0  0  0  0  0  0  0  0  0  0  0
   41.9930   31.5600   36.9520 H   0  0  0  0  0  0  0  0  0  0  0  0
   42.3160   32.2930   37.6460 N   0  0  0  0  0  0  0  0  0  0  0  0
   43.6250   32.3250   37.8970 C   0  0  0  0  0  0  0  0  0  0  0  0
   44.2080   33.1880   38.7520 C   0  0  0  0  0  0  0  0  0  0  0  0
   43.1850   34.0080   39.2950 C   0  0  0  0  0  0  0  0  0  0  0  0
   43.5510   34.9110   40.1520 O   0  0  0  0  0  0  0  0  0  0  0  0
   41.8680   34.0820   39.1350 N   0  0  0  0  0  0  0  0  0  0  0  0
   41.5180   33.1530   38.2620 C   0  0  0  0  0  0  0  0  0  0  0  0
   40.3000   33.0200   37.9380 O   0  0  0  0  0  0  0  0  0  0  0  0
   41.2260   34.7430   39.6040 H   0  0  0  0  0  0  0  0  0  0  0  0
   47.6190   35.2300   41.9650 O   0  0  0  0  0  0  0  0  0  0  0  0
   48.8520   35.5570   41.4280 C   0  0  0  0  0  0  0  0  0  0  0  0
   49.2440   36.8430   41.7790 F   0  0  0  0  0  0  0  0  0  0  0  0
   49.7810   34.6240   41.7680 F   0  0  0  0  0  0  0  0  0  0  0  0
   48.6950   35.5550   40.0540 F   0  0  0  0  0  0  0  0  0  0  0  0
  2  1  2  1  0  0  0
  2 26  1  0  0  0  0
  2  3  1  0  0  0  0
  3  6  1  0  0  0  0
  4 10  1  0  0  0  0
  4  9  1  0  0  0  0
  5  6  1  0  0  0  0
  5  4  2  0  0  0  0
  6  7  2  0  0  0  0
  7  8  1  0  0  0  0
  8  9  2  0  0  0  0
  8 12  1  0  0  0  0
 11  5  1  0  0  0  0
 13  2  1  0  0  0  0
 14 13  1  0  0  0  0
 15 14  2  0  0  0  0
 16 17  1  0  0  0  0
 17 18  1  0  0  0  0
 17 23  1  0  0  0  0
 18 19  2  0  0  0  0
 19 14  1  0  0  0  0
 19 20  1  0  0  0  0
 20 21  2  0  0  0  0
 22 20  1  0  0  0  0
 22 25  1  0  0  0  0
 23 22  1  0  0  0  0
 24 23  2  0  0  0  0
 27 29  1  0  0  0  0
 27 28  1  0  0  0  0
 27 26  1  0  0  0  0
 30 27  1  0  0  0  0
M  END
>  <minimizedAffinity>
-5.72180557

>  <minimizedRMSD>
2.22467661

$$$$
