
 OpenBabel03252506213D

 36 38  0  0  0  0  0  0  0  0999 V2000
   44.4560   35.1800   42.3190 C   0  0  0  0  0  0  0  0  0  0  0  0
   43.2720   35.4600   41.6500 C   0  0  0  0  0  0  0  0  0  0  0  0
   43.1300   34.9650   40.3420 C   0  0  0  0  0  0  0  0  0  0  0  0
   44.1490   34.2420   39.7980 N   0  0  0  0  0  0  0  0  0  0  0  0
   45.2740   33.9980   40.4860 C   0  0  0  0  0  0  0  0  0  0  0  0
   45.4340   34.4610   41.7380 N   0  0  0  0  0  0  0  0  0  0  0  0
   42.4830   36.0250   42.0830 H   0  0  0  0  0  0  0  0  0  0  0  0
   42.2250   35.1430   39.7490 H   0  0  0  0  0  0  0  0  0  0  0  0
   48.0820   35.0850   40.7500 Cl  0  0  0  0  0  0  0  0  0  0  0  0
   47.6350   33.6510   39.9010 C   0  0  0  0  0  0  0  0  0  0  0  0
   46.3300   33.2020   39.8150 C   0  0  0  0  0  0  0  0  0  0  0  0
   45.9400   32.0650   39.1490 C   0  0  0  0  0  0  0  0  0  0  0  0
   46.9370   31.3460   38.5370 C   0  0  0  0  0  0  0  0  0  0  0  0
   48.2780   31.6930   38.5510 C   0  0  0  0  0  0  0  0  0  0  0  0
   48.5620   32.8550   39.2500 C   0  0  0  0  0  0  0  0  0  0  0  0
   44.8990   31.7530   39.1100 H   0  0  0  0  0  0  0  0  0  0  0  0
   46.6360   30.4430   38.0070 H   0  0  0  0  0  0  0  0  0  0  0  0
   49.0620   31.1300   38.0720 H   0  0  0  0  0  0  0  0  0  0  0  0
   49.6130   33.1470   39.2740 H   0  0  0  0  0  0  0  0  0  0  0  0
   44.6300   35.6860   43.6820 C   0  0  0  0  0  3  0  0  0  0  0  0
   44.8840   36.9820   43.8220 C   0  0  0  0  0  3  0  0  0  0  0  0
   45.0890   37.5420   45.2210 C   0  0  0  0  0  0  0  0  0  0  0  0
   44.3290   37.0310   45.8950 H   0  0  0  0  0  0  0  0  0  0  0  0
   46.1030   37.1260   45.5070 H   0  0  0  0  0  0  0  0  0  0  0  0
   44.9930   38.9410   45.1310 N   0  0  0  0  0  0  0  0  0  0  0  0
   45.6200   38.9390   46.0040 H   0  0  0  0  0  0  0  0  0  0  0  0
   44.9280   43.1710   43.5070 H   0  0  0  0  0  0  0  0  0  0  0  0
   44.8360   42.5480   44.3210 N   0  0  0  0  0  0  0  0  0  0  0  0
   44.9990   41.2500   44.0290 C   0  0  0  0  0  3  0  0  0  0  0  0
   44.8960   40.3400   45.0410 C   0  0  0  0  0  0  0  0  0  0  0  0
   44.6290   40.7600   46.3450 C   0  0  0  0  0  0  0  0  0  0  0  0
   44.4930   40.0910   47.4280 O   0  0  0  0  0  0  0  0  0  0  0  0
   44.4640   42.0860   46.6380 N   0  0  0  0  0  0  0  0  0  0  0  0
   44.5810   42.8940   45.5890 C   0  0  0  0  0  0  0  0  0  0  0  0
   44.4520   44.1340   45.7290 O   0  0  0  0  0  0  0  0  0  0  0  0
   44.2630   42.5330   47.5590 H   0  0  0  0  0  0  0  0  0  0  0  0
  1 20  1  0  0  0  0
  2  7  1  0  0  0  0
  2  1  2  0  0  0  0
  3  2  1  0  0  0  0
  4  3  2  0  0  0  0
  4  5  1  0  0  0  0
  5  6  2  0  0  0  0
  6  1  1  0  0  0  0
  8  3  1  0  0  0  0
 10  9  1  0  0  0  0
 11 10  1  0  0  0  0
 11  5  1  0  0  0  0
 12 11  2  0  0  0  0
 13 14  2  0  0  0  0
 13 12  1  0  0  0  0
 14 15  1  0  0  0  0
 15 19  1  0  0  0  0
 15 10  2  0  0  0  0
 16 12  1  0  0  0  0
 17 13  1  0  0  0  0
 18 14  1  0  0  0  0
 20 21  2  0  0  0  0
 21 22  1  0  0  0  0
 22 24  1  0  0  0  0
 22 23  1  0  0  0  0
 25 22  1  0  0  0  0
 25 26  1  0  0  0  0
 27 28  1  0  0  0  0
 28 34  1  0  0  0  0
 29 28  1  0  0  0  0
 29 30  2  0  0  0  0
 30 25  1  0  0  0  0
 30 31  1  0  0  0  0
 31 33  1  0  0  0  0
 31 32  2  0  0  0  0
 33 36  1  0  0  0  0
 34 35  2  0  0  0  0
 34 33  1  0  0  0  0
M  END
>  <minimizedAffinity>
-2.9676528

>  <minimizedRMSD>
2.62974787

$$$$
