
     RDKit          3D

 49 53  0  0  0  0  0  0  0  0999 V2000
   45.7907   30.0489   48.4415 C   0  0  0  0  0  0  0  0  0  0  0  0
   45.0147   27.6507   48.0166 C   0  0  0  0  0  0  0  0  0  0  0  0
   45.0618   28.9994   47.7584 C   0  0  0  0  0  0  0  0  0  0  0  0
   44.2984   29.4498   46.6773 C   0  0  0  0  0  0  0  0  0  0  0  0
   43.5380   28.5854   45.9103 C   0  0  0  0  0  0  0  0  0  0  0  0
   42.7307   28.7242   44.8466 N   0  0  0  0  0  0  0  0  0  0  0  0
   42.2163   27.5582   44.4649 C   0  0  0  0  0  0  0  0  0  0  0  0
   42.7000   26.5682   45.3163 C   0  0  0  0  0  0  0  0  0  0  0  0
   43.5081   27.2469   46.1880 C   0  0  0  0  0  0  0  0  0  0  0  0
   44.2596   26.7959   47.2540 C   0  0  0  0  0  0  0  0  0  0  0  0
   44.2470   25.3674   47.5751 C   0  0  0  0  0  0  0  0  0  0  0  0
   44.9307   24.9237   48.5459 O   0  0  0  0  0  0  0  0  0  0  0  0
   47.1372   30.3888   47.9326 C   0  0  0  0  0  0  0  0  0  0  0  0
   46.5099   32.7107   45.2841 C   0  0  0  0  0  0  0  0  0  0  0  0
   47.2504   31.7204   44.6277 C   0  0  0  0  0  0  0  0  0  0  0  0
   47.5728   30.7486   45.5104 C   0  0  0  0  0  0  0  0  0  0  0  0
   47.0473   31.1274   46.6759 N   0  0  0  0  0  0  0  0  0  0  0  0
   46.4089   32.2964   46.5607 N   0  0  0  0  0  0  0  0  0  0  0  0
   44.5649   35.7490   44.7276 C   0  0  0  0  0  0  0  0  0  0  0  0
   44.9940   36.1830   43.4804 C   0  0  0  0  0  0  0  0  0  0  0  0
   45.9609   35.4155   42.8352 C   0  0  0  0  0  0  0  0  0  0  0  0
   46.4164   34.3010   43.4656 N   0  0  0  0  0  0  0  0  0  0  0  0
   45.9897   33.9112   44.6539 C   0  0  0  0  0  0  0  0  0  0  0  0
   45.0525   34.6465   45.2899 N   0  0  0  0  0  0  0  0  0  0  0  0
   45.1941   30.9979   48.5003 H   0  0  0  0  0  0  0  0  0  0  0  0
   45.8981   29.7381   49.5080 H   0  0  0  0  0  0  0  0  0  0  0  0
   45.6182   27.3407   48.8604 H   0  0  0  0  0  0  0  0  0  0  0  0
   44.2373   30.4845   46.3550 H   0  0  0  0  0  0  0  0  0  0  0  0
   42.5164   29.6320   44.3587 H   0  0  0  0  0  0  0  0  0  0  0  0
   41.5336   27.3218   43.6489 H   0  0  0  0  0  0  0  0  0  0  0  0
   42.4713   25.5106   45.2737 H   0  0  0  0  0  0  0  0  0  0  0  0
   43.6586   24.6701   46.9943 H   0  0  0  0  0  0  0  0  0  0  0  0
   47.6533   30.9967   48.7114 H   0  0  0  0  0  0  0  0  0  0  0  0
   47.7254   29.4806   47.8029 H   0  0  0  0  0  0  0  0  0  0  0  0
   47.5164   31.7488   43.5617 H   0  0  0  0  0  0  0  0  0  0  0  0
   48.1439   29.8672   45.2583 H   0  0  0  0  0  0  0  0  0  0  0  0
   43.8068   36.3799   45.1971 H   0  0  0  0  0  0  0  0  0  0  0  0
   44.6685   37.0532   42.9385 H   0  0  0  0  0  0  0  0  0  0  0  0
   46.5175   35.7166   41.5425 N   0  0  0  0  0  0  0  0  0  0  0  0
   47.5414   36.5671   41.3515 C   0  0  0  0  0  0  0  0  0  0  0  0
   48.0329   36.8150   40.0783 C   0  0  0  0  0  0  0  0  0  0  0  0
   48.8557   37.4993   39.9309 H   0  0  0  0  0  0  0  0  0  0  0  0
   47.4448   36.1669   39.0121 C   0  0  0  0  0  0  0  0  0  0  0  0
   47.8378   36.3427   37.8288 O   0  0  0  0  0  0  0  0  0  0  0  0
   46.4183   35.3236   39.2728 N   0  0  0  0  0  0  0  0  0  0  0  0
   45.9323   35.0775   40.5242 C   0  0  0  0  0  0  0  0  0  0  0  0
   44.9751   34.2640   40.5680 O   0  0  0  0  0  0  0  0  0  0  0  0
   47.9665   37.0503   42.2308 H   0  0  0  0  0  0  0  0  0  0  0  0
   45.9981   34.8488   38.4249 H   0  0  0  0  0  0  0  0  0  0  0  0
  3  2  2  0
  3  1  1  0
  4  3  1  0
  5  9  1  0
  5  4  2  0
  6  5  1  0
  7  6  1  0
  7  8  2  0
  8  9  1  0
  9 10  2  0
 10 11  1  0
 10  2  1  0
 11 12  2  0
 13  1  1  0
 14 18  2  0
 15 14  1  0
 15 16  2  0
 16 17  1  0
 17 13  1  0
 18 17  1  0
 19 24  2  0
 20 19  1  0
 21 22  1  0
 21 20  2  0
 22 23  2  0
 23 14  1  0
 23 24  1  0
  1 25  1  0
  1 26  1  0
  2 27  1  0
  4 28  1  0
  6 29  1  0
  7 30  1  0
  8 31  1  0
 11 32  1  0
 13 33  1  0
 13 34  1  0
 15 35  1  0
 16 36  1  0
 19 37  1  0
 20 38  1  0
 39 40  1  0
 40 41  2  0
 41 42  1  0
 41 43  1  0
 43 44  2  0
 43 45  1  0
 45 46  1  0
 46 47  2  0
 46 39  1  0
 40 48  1  0
 45 49  1  0
 21 39  1  0
M  ISO  8  25   8  26   8  27  14  28  14  29   9  30  14  31  14  32   6
M  ISO  7  33   8  34   8  35  14  36  14  37  14  38  14  42  16
M  END
>  <DihAtoms>  (1) 
21,20,38,39

>  <DihDeg>  (1) 
54.167637257667806

$$$$
