
 OpenBabel03252506253D

 46 50  0  0  0  0  0  0  0  0999 V2000
   45.6430   27.9090   47.7630 C   0  0  0  0  0  0  0  0  0  0  0  0
   45.1830   29.2130   47.8380 C   0  0  0  0  0  0  0  0  0  0  0  0
   44.2290   29.5800   46.8930 C   0  0  0  0  0  0  0  0  0  0  0  0
   43.7600   28.7090   45.9350 C   0  0  0  0  0  0  0  0  0  0  0  0
   42.8750   28.7760   44.9290 N   0  0  0  0  0  0  0  0  0  0  0  0
   42.7900   27.6070   44.2790 C   0  0  0  0  0  0  0  0  0  0  0  0
   43.6530   26.7030   44.8650 C   0  0  0  0  0  0  0  0  0  0  0  0
   44.2330   27.4160   45.8800 C   0  0  0  0  0  0  0  0  0  0  0  0
   45.1820   27.0400   46.8130 C   0  0  0  0  0  0  0  0  0  0  0  0
   46.3890   27.6800   48.5280 H   0  0  0  0  0  0  0  0  0  0  0  0
   43.7790   30.5630   46.8290 H   0  0  0  0  0  0  0  0  0  0  0  0
   42.3090   29.6350   44.6720 H   0  0  0  0  0  0  0  0  0  0  0  0
   42.1420   27.4160   43.4320 H   0  0  0  0  0  0  0  0  0  0  0  0
   43.8490   25.6710   44.6100 H   0  0  0  0  0  0  0  0  0  0  0  0
   45.7050   25.7140   46.8030 N   0  0  0  0  0  0  0  0  0  0  0  0
   46.7530   25.2610   46.0900 C   0  0  0  0  0  3  0  0  0  0  0  0
   47.1150   23.9240   46.2160 C   0  0  0  0  0  0  0  0  0  0  0  0
   47.9610   23.5890   45.6290 H   0  0  0  0  0  0  0  0  0  0  0  0
   46.4150   23.0810   47.0550 C   0  0  0  0  0  0  0  0  0  0  0  0
   46.7390   21.8710   47.1720 O   0  0  0  0  0  0  0  0  0  0  0  0
   45.3610   23.5860   47.7570 N   0  0  0  0  0  0  0  0  0  0  0  0
   45.0270   24.8830   47.6200 C   0  0  0  0  0  0  0  0  0  0  0  0
   44.0260   25.2280   48.3300 O   0  0  0  0  0  0  0  0  0  0  0  0
   44.8480   22.9110   48.3900 H   0  0  0  0  0  0  0  0  0  0  0  0
   45.5390   30.2810   48.7580 C   0  0  0  0  0  0  0  0  0  0  0  0
   44.7090   31.0150   48.8780 H   0  0  0  0  0  0  0  0  0  0  0  0
   45.6230   29.8180   49.7830 H   0  0  0  0  0  0  0  0  0  0  0  0
   46.8200   30.9860   48.5110 C   0  0  0  0  0  0  0  0  0  0  0  0
   46.9120   31.7910   49.2960 H   0  0  0  0  0  0  0  0  0  0  0  0
   47.6560   30.3040   48.6370 H   0  0  0  0  0  0  0  0  0  0  0  0
   46.3930   32.9810   45.5800 C   0  0  0  0  0  0  0  0  0  0  0  0
   47.2160   31.9510   45.1090 C   0  0  0  0  0  0  0  0  0  0  0  0
   47.4720   31.0940   46.1290 C   0  0  0  0  0  0  0  0  0  0  0  0
   46.8300   31.5780   47.1910 N   0  0  0  0  0  0  0  0  0  0  0  0
   46.1750   32.7140   46.8790 N   0  0  0  0  0  0  0  0  0  0  0  0
   47.6110   31.8160   44.1010 H   0  0  0  0  0  0  0  0  0  0  0  0
   48.0770   30.1850   46.1080 H   0  0  0  0  0  0  0  0  0  0  0  0
   44.4880   35.9110   44.5210 C   0  0  0  0  0  0  0  0  0  0  0  0
   45.0010   36.1760   43.2460 C   0  0  0  0  0  0  0  0  0  0  0  0
   45.9990   35.3400   42.7630 C   0  0  0  0  0  0  0  0  0  0  0  0
   46.3990   34.3350   43.5630 N   0  0  0  0  0  0  0  0  0  0  0  0
   45.9040   34.0910   44.7790 C   0  0  0  0  0  0  0  0  0  0  0  0
   44.9470   34.8880   45.2500 N   0  0  0  0  0  0  0  0  0  0  0  0
   43.7100   36.5830   44.8690 H   0  0  0  0  0  0  0  0  0  0  0  0
   44.7010   36.9650   42.5920 H   0  0  0  0  0  0  0  0  0  0  0  0
   46.4750   35.4390   41.7950 H   0  0  0  0  0  0  0  0  0  0  0  0
  1  2  1  0  0  0  0
  1 10  1  0  0  0  0
  2 25  1  0  0  0  0
  3  2  2  0  0  0  0
  4  3  1  0  0  0  0
  5  4  1  0  0  0  0
  6  7  2  0  0  0  0
  6  5  1  0  0  0  0
  7  8  1  0  0  0  0
  8  4  2  0  0  0  0
  8  9  1  0  0  0  0
  9  1  2  0  0  0  0
 11  3  1  0  0  0  0
 12  5  1  0  0  0  0
 13  6  1  0  0  0  0
 14  7  1  0  0  0  0
 15  9  1  0  0  0  0
 15 22  1  0  0  0  0
 16 17  2  0  0  0  0
 16 15  1  0  0  0  0
 17 19  1  0  0  0  0
 18 17  1  0  0  0  0
 19 20  2  0  0  0  0
 19 21  1  0  0  0  0
 21 24  1  0  0  0  0
 22 21  1  0  0  0  0
 22 23  2  0  0  0  0
 25 26  1  0  0  0  0
 25 27  1  0  0  0  0
 28 30  1  0  0  0  0
 28 25  1  0  0  0  0
 28 29  1  0  0  0  0
 31 35  2  0  0  0  0
 32 31  1  0  0  0  0
 32 33  2  0  0  0  0
 33 34  1  0  0  0  0
 34 28  1  0  0  0  0
 35 34  1  0  0  0  0
 36 32  1  0  0  0  0
 37 33  1  0  0  0  0
 38 44  1  0  0  0  0
 38 43  1  0  0  0  0
 39 38  2  0  0  0  0
 40 39  1  0  0  0  0
 40 41  2  0  0  0  0
 41 42  1  0  0  0  0
 42 43  2  0  0  0  0
 42 31  1  0  0  0  0
 45 39  1  0  0  0  0
 46 40  1  0  0  0  0
M  END
>  <minimizedAffinity>
-5.49921703

>  <minimizedRMSD>
1.39825082

$$$$
