
 OpenBabel03252506253D

 46 50  0  0  0  0  0  0  0  0999 V2000
   45.4090   27.8410   47.9670 C   0  0  0  0  0  0  0  0  0  0  0  0
   44.9720   29.1520   47.8690 C   0  0  0  0  0  0  0  0  0  0  0  0
   44.2050   29.4580   46.7480 C   0  0  0  0  0  0  0  0  0  0  0  0
   43.8910   28.5240   45.7860 C   0  0  0  0  0  0  0  0  0  0  0  0
   43.1960   28.5270   44.6390 N   0  0  0  0  0  0  0  0  0  0  0  0
   43.2000   27.3150   44.0670 C   0  0  0  0  0  0  0  0  0  0  0  0
   43.9280   26.4470   44.8570 C   0  0  0  0  0  0  0  0  0  0  0  0
   44.3380   27.2270   45.9050 C   0  0  0  0  0  0  0  0  0  0  0  0
   45.1010   26.9100   47.0140 C   0  0  0  0  0  0  0  0  0  0  0  0
   46.0050   27.6610   48.8650 H   0  0  0  0  0  0  0  0  0  0  0  0
   43.7950   30.4380   46.5380 H   0  0  0  0  0  0  0  0  0  0  0  0
   42.7030   29.3700   44.2270 H   0  0  0  0  0  0  0  0  0  0  0  0
   42.7060   27.0680   43.1350 H   0  0  0  0  0  0  0  0  0  0  0  0
   44.1420   25.3980   44.7120 H   0  0  0  0  0  0  0  0  0  0  0  0
   45.5890   25.5820   47.1890 N   0  0  0  0  0  0  0  0  0  0  0  0
   44.9520   24.5560   47.7830 C   0  0  0  0  0  3  0  0  0  0  0  0
   45.5990   23.3260   47.8570 C   0  0  0  0  0  0  0  0  0  0  0  0
   45.0610   22.5200   48.3410 H   0  0  0  0  0  0  0  0  0  0  0  0
   46.8630   23.1620   47.3330 C   0  0  0  0  0  0  0  0  0  0  0  0
   47.4520   22.0520   47.3980 O   0  0  0  0  0  0  0  0  0  0  0  0
   47.4670   24.2320   46.7410 N   0  0  0  0  0  0  0  0  0  0  0  0
   46.8250   25.4140   46.6790 C   0  0  0  0  0  0  0  0  0  0  0  0
   47.4980   26.3280   46.1020 O   0  0  0  0  0  0  0  0  0  0  0  0
   48.4370   24.0700   46.3500 H   0  0  0  0  0  0  0  0  0  0  0  0
   45.1860   30.2800   48.7600 C   0  0  0  0  0  0  0  0  0  0  0  0
   44.3400   31.0050   48.7170 H   0  0  0  0  0  0  0  0  0  0  0  0
   45.1290   29.8820   49.8140 H   0  0  0  0  0  0  0  0  0  0  0  0
   46.4820   30.9920   48.6510 C   0  0  0  0  0  0  0  0  0  0  0  0
   46.4950   31.7830   49.4540 H   0  0  0  0  0  0  0  0  0  0  0  0
   47.3040   30.3090   48.8450 H   0  0  0  0  0  0  0  0  0  0  0  0
   46.2990   33.0100   45.7100 C   0  0  0  0  0  0  0  0  0  0  0  0
   47.2300   32.0360   45.3320 C   0  0  0  0  0  0  0  0  0  0  0  0
   47.4090   31.1760   46.3660 C   0  0  0  0  0  0  0  0  0  0  0  0
   46.6180   31.6060   47.3470 N   0  0  0  0  0  0  0  0  0  0  0  0
   45.9410   32.7100   46.9700 N   0  0  0  0  0  0  0  0  0  0  0  0
   47.7500   31.9410   44.3770 H   0  0  0  0  0  0  0  0  0  0  0  0
   48.0640   30.3030   46.4090 H   0  0  0  0  0  0  0  0  0  0  0  0
   44.4700   35.9420   44.5270 C   0  0  0  0  0  0  0  0  0  0  0  0
   45.0160   36.1600   43.2560 C   0  0  0  0  0  0  0  0  0  0  0  0
   46.0090   35.2940   42.8190 C   0  0  0  0  0  0  0  0  0  0  0  0
   46.3730   34.3050   43.6560 N   0  0  0  0  0  0  0  0  0  0  0  0
   45.8470   34.1050   44.8670 C   0  0  0  0  0  0  0  0  0  0  0  0
   44.8940   34.9310   45.2940 N   0  0  0  0  0  0  0  0  0  0  0  0
   43.6970   36.6370   44.8380 H   0  0  0  0  0  0  0  0  0  0  0  0
   44.7450   36.9360   42.5740 H   0  0  0  0  0  0  0  0  0  0  0  0
   46.5070   35.3570   41.8600 H   0  0  0  0  0  0  0  0  0  0  0  0
  1 10  1  0  0  0  0
  2  1  1  0  0  0  0
  2 25  1  0  0  0  0
  3  2  2  0  0  0  0
  4  8  2  0  0  0  0
  4  3  1  0  0  0  0
  5  4  1  0  0  0  0
  6  5  1  0  0  0  0
  6  7  2  0  0  0  0
  7  8  1  0  0  0  0
  8  9  1  0  0  0  0
  9 15  1  0  0  0  0
  9  1  2  0  0  0  0
 11  3  1  0  0  0  0
 12  5  1  0  0  0  0
 13  6  1  0  0  0  0
 14  7  1  0  0  0  0
 15 16  1  0  0  0  0
 16 17  2  0  0  0  0
 17 18  1  0  0  0  0
 19 20  2  0  0  0  0
 19 17  1  0  0  0  0
 21 19  1  0  0  0  0
 22 21  1  0  0  0  0
 22 15  1  0  0  0  0
 23 22  2  0  0  0  0
 24 21  1  0  0  0  0
 25 27  1  0  0  0  0
 26 25  1  0  0  0  0
 28 25  1  0  0  0  0
 28 30  1  0  0  0  0
 28 29  1  0  0  0  0
 31 35  2  0  0  0  0
 32 31  1  0  0  0  0
 32 33  2  0  0  0  0
 33 37  1  0  0  0  0
 33 34  1  0  0  0  0
 34 28  1  0  0  0  0
 35 34  1  0  0  0  0
 36 32  1  0  0  0  0
 38 44  1  0  0  0  0
 38 43  1  0  0  0  0
 39 38  2  0  0  0  0
 40 39  1  0  0  0  0
 40 41  2  0  0  0  0
 41 42  1  0  0  0  0
 42 43  2  0  0  0  0
 42 31  1  0  0  0  0
 45 39  1  0  0  0  0
 46 40  1  0  0  0  0
M  END
>  <minimizedAffinity>
-5.45015144

>  <minimizedRMSD>
1.71216989

$$$$
