
 OpenBabel03242521263D

 43 46  0  0  0  0  0  0  0  0999 V2000
   38.2020   30.3880   41.4050 C   0  0  0  0  0  0  0  0  0  0  0  0
   37.3540   31.2890   40.8240 C   0  0  0  0  0  0  0  0  0  0  0  0
   37.7450   32.5180   40.3490 C   0  0  0  0  0  0  0  0  0  0  0  0
   39.0580   32.8120   40.4860 N   0  0  0  0  0  0  0  0  0  0  0  0
   39.8980   31.9250   41.0590 C   0  0  0  0  0  0  0  0  0  0  0  0
   39.5020   30.7160   41.5230 N   0  0  0  0  0  0  0  0  0  0  0  0
   36.2950   31.0630   40.7070 H   0  0  0  0  0  0  0  0  0  0  0  0
   37.0880   33.2420   39.8870 H   0  0  0  0  0  0  0  0  0  0  0  0
   37.0870   27.7500   43.6790 C   0  0  0  0  0  0  0  0  0  0  0  0
   36.8500   26.6910   42.7930 C   0  0  0  0  0  0  0  0  0  0  0  0
   37.0660   26.8700   41.4390 C   0  0  0  0  0  0  0  0  0  0  0  0
   37.5100   28.0950   41.0110 N   0  0  0  0  0  0  0  0  0  0  0  0
   37.7330   29.1070   41.8870 C   0  0  0  0  0  0  0  0  0  0  0  0
   37.5180   28.9200   43.2060 N   0  0  0  0  0  0  0  0  0  0  0  0
   36.9360   27.6720   44.7490 H   0  0  0  0  0  0  0  0  0  0  0  0
   36.4970   25.7450   43.2030 H   0  0  0  0  0  0  0  0  0  0  0  0
   36.8210   25.7950   40.5780 N   0  0  0  0  0  0  0  0  0  0  0  0
   36.4270   26.1800   39.3300 C   0  0  0  0  0  3  0  0  0  0  0  0
   36.1510   25.2010   38.3710 C   0  0  0  0  0  0  0  0  0  0  0  0
   35.8360   25.4290   37.3650 H   0  0  0  0  0  0  0  0  0  0  0  0
   36.3010   23.8890   38.7680 C   0  0  0  0  0  0  0  0  0  0  0  0
   36.0570   22.9810   37.9200 O   0  0  0  0  0  0  0  0  0  0  0  0
   36.6920   23.5590   40.0160 N   0  0  0  0  0  0  0  0  0  0  0  0
   36.9560   24.5160   40.9280 C   0  0  0  0  0  0  0  0  0  0  0  0
   37.3240   24.2400   42.1030 O   0  0  0  0  0  0  0  0  0  0  0  0
   36.7900   22.5390   40.2630 H   0  0  0  0  0  0  0  0  0  0  0  0
   41.3350   32.2590   41.2040 C   0  0  0  0  0  0  0  0  0  0  0  0
   42.0110   31.8620   42.3270 C   0  0  0  0  0  0  0  0  0  0  0  0
   43.3550   32.1200   42.5650 C   0  0  0  0  0  0  0  0  0  0  0  0
   44.0280   32.8300   41.5800 C   0  0  0  0  0  0  0  0  0  0  0  0
   43.3640   33.2280   40.4620 C   0  0  0  0  0  0  0  0  0  0  0  0
   42.0230   32.9600   40.2430 C   0  0  0  0  0  0  0  0  0  0  0  0
   41.5340   31.3040   43.1280 H   0  0  0  0  0  0  0  0  0  0  0  0
   43.8700   31.7970   43.4600 H   0  0  0  0  0  0  0  0  0  0  0  0
   45.0700   33.0870   41.6570 H   0  0  0  0  0  0  0  0  0  0  0  0
   43.8500   33.7870   39.6630 H   0  0  0  0  0  0  0  0  0  0  0  0
   41.3240   33.3520   39.1190 O   0  0  0  0  0  0  0  0  0  0  0  0
   42.4910   31.6090   37.5590 O   0  0  0  0  0  0  0  0  0  0  0  0
   41.5690   32.8260   37.5380 P   0  0  0  0  0  0  0  0  0  0  0  0
   40.1530   32.4640   36.7100 O   0  0  0  0  0  0  0  0  0  0  0  0
   39.3450   32.8920   37.1170 H   0  0  0  0  0  0  0  0  0  0  0  0
   42.3680   34.0440   36.6750 O   0  0  0  0  0  0  0  0  0  0  0  0
   41.9520   34.2330   35.8010 H   0  0  0  0  0  0  0  0  0  0  0  0
  1  6  1  0  0  0  0
  1 13  1  0  0  0  0
  2  1  2  0  0  0  0
  3  4  2  0  0  0  0
  3  2  1  0  0  0  0
  4  5  1  0  0  0  0
  5 27  1  0  0  0  0
  5  6  2  0  0  0  0
  7  2  1  0  0  0  0
  8  3  1  0  0  0  0
  9 15  1  0  0  0  0
 10 16  1  0  0  0  0
 10  9  2  0  0  0  0
 11 10  1  0  0  0  0
 12 11  2  0  0  0  0
 12 13  1  0  0  0  0
 13 14  2  0  0  0  0
 14  9  1  0  0  0  0
 17 24  1  0  0  0  0
 17 11  1  0  0  0  0
 18 17  1  0  0  0  0
 19 21  1  0  0  0  0
 19 18  2  0  0  0  0
 20 19  1  0  0  0  0
 21 23  1  0  0  0  0
 22 21  2  0  0  0  0
 23 26  1  0  0  0  0
 23 24  1  0  0  0  0
 24 25  2  0  0  0  0
 27 28  1  0  0  0  0
 28 29  2  0  0  0  0
 28 33  1  0  0  0  0
 29 34  1  0  0  0  0
 30 35  1  0  0  0  0
 30 29  1  0  0  0  0
 31 30  2  0  0  0  0
 32 31  1  0  0  0  0
 32 27  2  0  0  0  0
 36 31  1  0  0  0  0
 37 32  1  0  0  0  0
 39 38  2  0  0  0  0
 39 37  1  0  0  0  0
 40 41  1  0  0  0  0
 40 39  1  0  0  0  0
 42 39  1  0  0  0  0
 43 42  1  0  0  0  0
M  END
>  <minimizedAffinity>
-7.51342535

$$$$

 OpenBabel03242521263D

 43 46  0  0  0  0  0  0  0  0999 V2000
   37.7630   29.1360   41.7660 C   0  0  0  0  0  0  0  0  0  0  0  0
   37.3170   28.9700   43.0470 C   0  0  0  0  0  0  0  0  0  0  0  0
   36.9830   27.7540   43.5930 C   0  0  0  0  0  0  0  0  0  0  0  0
   37.1210   26.6840   42.7780 N   0  0  0  0  0  0  0  0  0  0  0  0
   37.5600   26.8440   41.5120 C   0  0  0  0  0  0  0  0  0  0  0  0
   37.8870   28.0470   40.9840 N   0  0  0  0  0  0  0  0  0  0  0  0
   37.2030   29.8240   43.7130 H   0  0  0  0  0  0  0  0  0  0  0  0
   36.6290   27.6040   44.6040 H   0  0  0  0  0  0  0  0  0  0  0  0
   37.4160   32.4400   40.2360 C   0  0  0  0  0  0  0  0  0  0  0  0
   38.7370   32.9050   40.2590 C   0  0  0  0  0  0  0  0  0  0  0  0
   39.7350   32.1070   40.7880 C   0  0  0  0  0  0  0  0  0  0  0  0
   39.3860   30.8730   41.2760 N   0  0  0  0  0  0  0  0  0  0  0  0
   38.1000   30.4430   41.2430 C   0  0  0  0  0  0  0  0  0  0  0  0
   37.1350   31.2320   40.7240 N   0  0  0  0  0  0  0  0  0  0  0  0
   36.5920   33.0180   39.8350 H   0  0  0  0  0  0  0  0  0  0  0  0
   38.9420   33.8960   39.8540 H   0  0  0  0  0  0  0  0  0  0  0  0
   41.0450   32.5970   40.7980 N   0  0  0  0  0  0  0  0  0  0  0  0
   41.7930   32.1220   41.8360 C   0  0  0  0  0  3  0  0  0  0  0  0
   43.1220   32.5350   41.9620 C   0  0  0  0  0  0  0  0  0  0  0  0
   43.7740   32.2020   42.7540 H   0  0  0  0  0  0  0  0  0  0  0  0
   43.5890   33.4110   41.0050 C   0  0  0  0  0  0  0  0  0  0  0  0
   44.7900   33.8020   41.0940 O   0  0  0  0  0  0  0  0  0  0  0  0
   42.8090   33.8530   39.9970 N   0  0  0  0  0  0  0  0  0  0  0  0
   41.5290   33.4440   39.8900 C   0  0  0  0  0  0  0  0  0  0  0  0
   40.7740   33.8390   38.9600 O   0  0  0  0  0  0  0  0  0  0  0  0
   43.2200   34.5220   39.2940 H   0  0  0  0  0  0  0  0  0  0  0  0
   37.7060   25.6640   40.6270 C   0  0  0  0  0  0  0  0  0  0  0  0
   36.6200   25.2020   39.9330 C   0  0  0  0  0  0  0  0  0  0  0  0
   36.6440   24.1070   39.0780 C   0  0  0  0  0  0  0  0  0  0  0  0
   37.8650   23.4600   38.9420 C   0  0  0  0  0  0  0  0  0  0  0  0
   38.9480   23.9130   39.6280 C   0  0  0  0  0  0  0  0  0  0  0  0
   38.9040   25.0080   40.4760 C   0  0  0  0  0  0  0  0  0  0  0  0
   35.6420   25.6690   40.0010 H   0  0  0  0  0  0  0  0  0  0  0  0
   35.7740   23.7580   38.5380 H   0  0  0  0  0  0  0  0  0  0  0  0
   38.0020   22.6020   38.3080 H   0  0  0  0  0  0  0  0  0  0  0  0
   39.9260   23.4380   39.5530 H   0  0  0  0  0  0  0  0  0  0  0  0
   39.9870   25.4880   41.1850 O   0  0  0  0  0  0  0  0  0  0  0  0
   40.3090   26.2010   43.6790 O   0  0  0  0  0  0  0  0  0  0  0  0
   40.4780   25.0200   42.7260 P   0  0  0  0  0  0  0  0  0  0  0  0
   39.6690   23.6750   43.3240 O   0  0  0  0  0  0  0  0  0  0  0  0
   39.2380   23.1290   42.6040 H   0  0  0  0  0  0  0  0  0  0  0  0
   42.1290   24.6460   42.6830 O   0  0  0  0  0  0  0  0  0  0  0  0
   42.3410   23.7880   43.1200 H   0  0  0  0  0  0  0  0  0  0  0  0
  1  2  1  0  0  0  0
  2  3  2  0  0  0  0
  2  7  1  0  0  0  0
  3  8  1  0  0  0  0
  4  3  1  0  0  0  0
  5  4  2  0  0  0  0
  6  5  1  0  0  0  0
  6  1  2  0  0  0  0
  9 10  2  0  0  0  0
  9 14  1  0  0  0  0
 10 11  1  0  0  0  0
 11 17  1  0  0  0  0
 11 12  2  0  0  0  0
 13 12  1  0  0  0  0
 13  1  1  0  0  0  0
 14 13  2  0  0  0  0
 15  9  1  0  0  0  0
 16 10  1  0  0  0  0
 17 18  1  0  0  0  0
 18 19  2  0  0  0  0
 19 20  1  0  0  0  0
 21 22  2  0  0  0  0
 21 19  1  0  0  0  0
 23 21  1  0  0  0  0
 24 23  1  0  0  0  0
 24 17  1  0  0  0  0
 25 24  2  0  0  0  0
 26 23  1  0  0  0  0
 27  5  1  0  0  0  0
 28 33  1  0  0  0  0
 28 27  2  0  0  0  0
 29 28  1  0  0  0  0
 30 29  2  0  0  0  0
 30 31  1  0  0  0  0
 31 32  2  0  0  0  0
 32 27  1  0  0  0  0
 32 37  1  0  0  0  0
 34 29  1  0  0  0  0
 35 30  1  0  0  0  0
 36 31  1  0  0  0  0
 37 39  1  0  0  0  0
 39 40  1  0  0  0  0
 39 38  2  0  0  0  0
 41 40  1  0  0  0  0
 42 39  1  0  0  0  0
 42 43  1  0  0  0  0
M  END
>  <minimizedAffinity>
-6.91785431

$$$$

 OpenBabel03242521263D

 43 46  0  0  0  0  0  0  0  0999 V2000
   39.4310   32.0740   40.3730 C   0  0  0  0  0  0  0  0  0  0  0  0
   38.3980   32.8970   40.0240 C   0  0  0  0  0  0  0  0  0  0  0  0
   37.0710   32.5780   40.1890 C   0  0  0  0  0  0  0  0  0  0  0  0
   36.8200   31.3660   40.7330 N   0  0  0  0  0  0  0  0  0  0  0  0
   37.8380   30.5500   41.0780 C   0  0  0  0  0  0  0  0  0  0  0  0
   39.1420   30.8750   40.9120 N   0  0  0  0  0  0  0  0  0  0  0  0
   38.5880   33.8760   39.5860 H   0  0  0  0  0  0  0  0  0  0  0  0
   36.2420   33.2180   39.9190 H   0  0  0  0  0  0  0  0  0  0  0  0
   42.6820   33.6640   40.9020 C   0  0  0  0  0  0  0  0  0  0  0  0
   43.4130   33.1920   39.8040 C   0  0  0  0  0  0  0  0  0  0  0  0
   42.8100   32.3440   38.8930 C   0  0  0  0  0  0  0  0  0  0  0  0
   41.5000   31.9930   39.1050 N   0  0  0  0  0  0  0  0  0  0  0  0
   40.8110   32.4620   40.1760 C   0  0  0  0  0  0  0  0  0  0  0  0
   41.4120   33.2890   41.0570 N   0  0  0  0  0  0  0  0  0  0  0  0
   43.0990   34.3300   41.6490 H   0  0  0  0  0  0  0  0  0  0  0  0
   44.4490   33.5120   39.6980 H   0  0  0  0  0  0  0  0  0  0  0  0
   43.5630   31.8890   37.8060 N   0  0  0  0  0  0  0  0  0  0  0  0
   43.1890   30.6520   37.3680 C   0  0  0  0  0  3  0  0  0  0  0  0
   43.8630   30.0810   36.2850 C   0  0  0  0  0  0  0  0  0  0  0  0
   43.6230   29.1090   35.8830 H   0  0  0  0  0  0  0  0  0  0  0  0
   44.8790   30.8280   35.7280 C   0  0  0  0  0  0  0  0  0  0  0  0
   45.5080   30.3350   34.7450 O   0  0  0  0  0  0  0  0  0  0  0  0
   45.2130   32.0470   36.1990 N   0  0  0  0  0  0  0  0  0  0  0  0
   44.5520   32.5830   37.2440 C   0  0  0  0  0  0  0  0  0  0  0  0
   44.8390   33.7210   37.7070 O   0  0  0  0  0  0  0  0  0  0  0  0
   45.9990   32.5730   35.7330 H   0  0  0  0  0  0  0  0  0  0  0  0
   37.5490   29.2230   41.6730 C   0  0  0  0  0  0  0  0  0  0  0  0
   37.7190   29.0340   43.0180 C   0  0  0  0  0  0  0  0  0  0  0  0
   37.4790   27.8360   43.6780 C   0  0  0  0  0  0  0  0  0  0  0  0
   37.0390   26.7790   42.8920 C   0  0  0  0  0  0  0  0  0  0  0  0
   36.8680   26.9590   41.5550 C   0  0  0  0  0  0  0  0  0  0  0  0
   37.1130   28.1630   40.9160 C   0  0  0  0  0  0  0  0  0  0  0  0
   38.0600   29.8260   43.6800 H   0  0  0  0  0  0  0  0  0  0  0  0
   37.6200   27.7080   44.7430 H   0  0  0  0  0  0  0  0  0  0  0  0
   36.8220   25.8050   43.2950 H   0  0  0  0  0  0  0  0  0  0  0  0
   36.5250   26.1590   40.8990 H   0  0  0  0  0  0  0  0  0  0  0  0
   36.9480   28.3720   39.5610 O   0  0  0  0  0  0  0  0  0  0  0  0
   35.7600   29.7460   37.6800 O   0  0  0  0  0  0  0  0  0  0  0  0
   35.5050   28.6880   38.7520 P   0  0  0  0  0  0  0  0  0  0  0  0
   34.7950   27.3300   38.0650 O   0  0  0  0  0  0  0  0  0  0  0  0
   35.1180   26.4740   38.4720 H   0  0  0  0  0  0  0  0  0  0  0  0
   34.3960   29.3460   39.8490 O   0  0  0  0  0  0  0  0  0  0  0  0
   33.5090   28.9170   39.8050 H   0  0  0  0  0  0  0  0  0  0  0  0
  1  6  1  0  0  0  0
  2  3  1  0  0  0  0
  2  1  2  0  0  0  0
  3  4  2  0  0  0  0
  4  5  1  0  0  0  0
  5 27  1  0  0  0  0
  6  5  2  0  0  0  0
  7  2  1  0  0  0  0
  8  3  1  0  0  0  0
  9 14  1  0  0  0  0
  9 15  1  0  0  0  0
 10  9  2  0  0  0  0
 11 12  2  0  0  0  0
 11 10  1  0  0  0  0
 12 13  1  0  0  0  0
 13  1  1  0  0  0  0
 13 14  2  0  0  0  0
 16 10  1  0  0  0  0
 17 11  1  0  0  0  0
 18 17  1  0  0  0  0
 19 18  2  0  0  0  0
 20 19  1  0  0  0  0
 21 23  1  0  0  0  0
 21 19  1  0  0  0  0
 22 21  2  0  0  0  0
 23 24  1  0  0  0  0
 24 25  2  0  0  0  0
 24 17  1  0  0  0  0
 26 23  1  0  0  0  0
 27 28  1  0  0  0  0
 28 29  2  0  0  0  0
 28 33  1  0  0  0  0
 29 34  1  0  0  0  0
 30 35  1  0  0  0  0
 30 29  1  0  0  0  0
 31 30  2  0  0  0  0
 32 31  1  0  0  0  0
 32 27  2  0  0  0  0
 36 31  1  0  0  0  0
 37 32  1  0  0  0  0
 38 39  2  0  0  0  0
 39 37  1  0  0  0  0
 39 42  1  0  0  0  0
 40 41  1  0  0  0  0
 40 39  1  0  0  0  0
 43 42  1  0  0  0  0
M  END
>  <minimizedAffinity>
-6.84703827

$$$$

 OpenBabel03242521263D

 43 46  0  0  0  0  0  0  0  0999 V2000
   37.3380   29.6040   38.6160 C   0  0  0  0  0  0  0  0  0  0  0  0
   36.1940   29.7720   37.8880 C   0  0  0  0  0  0  0  0  0  0  0  0
   35.2230   28.8090   37.7480 C   0  0  0  0  0  0  0  0  0  0  0  0
   35.4570   27.6400   38.3860 N   0  0  0  0  0  0  0  0  0  0  0  0
   36.5870   27.4690   39.1050 C   0  0  0  0  0  0  0  0  0  0  0  0
   37.5360   28.4260   39.2370 N   0  0  0  0  0  0  0  0  0  0  0  0
   35.9930   30.7090   37.3710 H   0  0  0  0  0  0  0  0  0  0  0  0
   34.3120   28.9250   37.1770 H   0  0  0  0  0  0  0  0  0  0  0  0
   38.9490   32.7430   39.5770 C   0  0  0  0  0  0  0  0  0  0  0  0
   40.1920   32.6330   38.9410 C   0  0  0  0  0  0  0  0  0  0  0  0
   40.4810   31.5050   38.1950 C   0  0  0  0  0  0  0  0  0  0  0  0
   39.5250   30.5260   38.1050 N   0  0  0  0  0  0  0  0  0  0  0  0
   38.3270   30.6550   38.7290 C   0  0  0  0  0  0  0  0  0  0  0  0
   38.0570   31.7600   39.4550 N   0  0  0  0  0  0  0  0  0  0  0  0
   38.6640   33.6010   40.1750 H   0  0  0  0  0  0  0  0  0  0  0  0
   40.9050   33.4490   39.0560 H   0  0  0  0  0  0  0  0  0  0  0  0
   41.7310   31.4220   37.5710 N   0  0  0  0  0  0  0  0  0  0  0  0
   42.1850   30.1420   37.4370 C   0  0  0  0  0  3  0  0  0  0  0  0
   43.4230   29.9190   36.8290 C   0  0  0  0  0  0  0  0  0  0  0  0
   43.8460   28.9370   36.6880 H   0  0  0  0  0  0  0  0  0  0  0  0
   44.1090   31.0360   36.4000 C   0  0  0  0  0  0  0  0  0  0  0  0
   45.2340   30.8640   35.8450 O   0  0  0  0  0  0  0  0  0  0  0  0
   43.6170   32.2820   36.5560 N   0  0  0  0  0  0  0  0  0  0  0  0
   42.4210   32.4790   37.1440 C   0  0  0  0  0  0  0  0  0  0  0  0
   41.9330   33.6310   37.3050 O   0  0  0  0  0  0  0  0  0  0  0  0
   44.1860   33.0980   36.2070 H   0  0  0  0  0  0  0  0  0  0  0  0
   36.8320   26.1830   39.7980 C   0  0  0  0  0  0  0  0  0  0  0  0
   36.9560   25.0330   39.0660 C   0  0  0  0  0  0  0  0  0  0  0  0
   37.1870   23.7760   39.6120 C   0  0  0  0  0  0  0  0  0  0  0  0
   37.2930   23.7180   40.9950 C   0  0  0  0  0  0  0  0  0  0  0  0
   37.1720   24.8560   41.7300 C   0  0  0  0  0  0  0  0  0  0  0  0
   36.9420   26.1000   41.1660 C   0  0  0  0  0  0  0  0  0  0  0  0
   36.8810   25.0210   37.9820 H   0  0  0  0  0  0  0  0  0  0  0  0
   37.2810   22.8800   39.0140 H   0  0  0  0  0  0  0  0  0  0  0  0
   37.4710   22.7990   41.5260 H   0  0  0  0  0  0  0  0  0  0  0  0
   37.2490   24.8590   42.8170 H   0  0  0  0  0  0  0  0  0  0  0  0
   36.8150   27.2700   41.8870 O   0  0  0  0  0  0  0  0  0  0  0  0
   38.7180   27.1040   43.6710 O   0  0  0  0  0  0  0  0  0  0  0  0
   38.0290   28.0830   42.7240 P   0  0  0  0  0  0  0  0  0  0  0  0
   39.1640   28.8250   41.7330 O   0  0  0  0  0  0  0  0  0  0  0  0
   38.8300   28.9730   40.8010 H   0  0  0  0  0  0  0  0  0  0  0  0
   37.3200   29.2880   43.6800 O   0  0  0  0  0  0  0  0  0  0  0  0
   37.7670   30.1630   43.5920 H   0  0  0  0  0  0  0  0  0  0  0  0
  1 13  1  0  0  0  0
  1  6  1  0  0  0  0
  2  1  2  0  0  0  0
  3  2  1  0  0  0  0
  3  4  2  0  0  0  0
  4  5  1  0  0  0  0
  5  6  2  0  0  0  0
  5 27  1  0  0  0  0
  7  2  1  0  0  0  0
  8  3  1  0  0  0  0
  9 15  1  0  0  0  0
 10 16  1  0  0  0  0
 10  9  2  0  0  0  0
 11 10  1  0  0  0  0
 12 11  2  0  0  0  0
 12 13  1  0  0  0  0
 13 14  2  0  0  0  0
 14  9  1  0  0  0  0
 17 11  1  0  0  0  0
 18 17  1  0  0  0  0
 19 18  2  0  0  0  0
 20 19  1  0  0  0  0
 21 23  1  0  0  0  0
 21 19  1  0  0  0  0
 22 21  2  0  0  0  0
 23 24  1  0  0  0  0
 24 25  2  0  0  0  0
 24 17  1  0  0  0  0
 26 23  1  0  0  0  0
 27 32  1  0  0  0  0
 28 29  1  0  0  0  0
 28 27  2  0  0  0  0
 29 30  2  0  0  0  0
 30 35  1  0  0  0  0
 30 31  1  0  0  0  0
 31 36  1  0  0  0  0
 32 31  2  0  0  0  0
 32 37  1  0  0  0  0
 33 28  1  0  0  0  0
 34 29  1  0  0  0  0
 37 39  1  0  0  0  0
 39 38  2  0  0  0  0
 39 42  1  0  0  0  0
 40 39  1  0  0  0  0
 41 40  1  0  0  0  0
 43 42  1  0  0  0  0
M  END
>  <minimizedAffinity>
-6.76237679

$$$$

 OpenBabel03242521263D

 43 46  0  0  0  0  0  0  0  0999 V2000
   37.8680   31.2130   39.1030 C   0  0  0  0  0  0  0  0  0  0  0  0
   37.1200   32.3510   39.2240 C   0  0  0  0  0  0  0  0  0  0  0  0
   37.5430   33.4840   39.8770 C   0  0  0  0  0  0  0  0  0  0  0  0
   38.7810   33.4250   40.4170 N   0  0  0  0  0  0  0  0  0  0  0  0
   39.5230   32.3030   40.3010 C   0  0  0  0  0  0  0  0  0  0  0  0
   39.0960   31.1920   39.6540 N   0  0  0  0  0  0  0  0  0  0  0  0
   36.1220   32.4110   38.7920 H   0  0  0  0  0  0  0  0  0  0  0  0
   36.9650   34.3920   39.9810 H   0  0  0  0  0  0  0  0  0  0  0  0
   36.3840   29.1210   36.4960 C   0  0  0  0  0  0  0  0  0  0  0  0
   36.4350   27.8510   37.0860 C   0  0  0  0  0  0  0  0  0  0  0  0
   36.9680   27.7060   38.3540 C   0  0  0  0  0  0  0  0  0  0  0  0
   37.4310   28.8280   38.9940 N   0  0  0  0  0  0  0  0  0  0  0  0
   37.3710   30.0480   38.4030 C   0  0  0  0  0  0  0  0  0  0  0  0
   36.8490   30.1760   37.1650 N   0  0  0  0  0  0  0  0  0  0  0  0
   35.9780   29.2980   35.5070 H   0  0  0  0  0  0  0  0  0  0  0  0
   36.0490   27.0040   36.5190 H   0  0  0  0  0  0  0  0  0  0  0  0
   37.0070   26.4270   38.9170 N   0  0  0  0  0  0  0  0  0  0  0  0
   38.0490   26.2460   39.7790 C   0  0  0  0  0  3  0  0  0  0  0  0
   38.2030   25.0090   40.4120 C   0  0  0  0  0  0  0  0  0  0  0  0
   39.0010   24.7930   41.1050 H   0  0  0  0  0  0  0  0  0  0  0  0
   37.2670   24.0420   40.1110 C   0  0  0  0  0  0  0  0  0  0  0  0
   37.3820   22.9110   40.6700 O   0  0  0  0  0  0  0  0  0  0  0  0
   36.2540   24.2690   39.2510 N   0  0  0  0  0  0  0  0  0  0  0  0
   36.1200   25.4680   38.6490 C   0  0  0  0  0  0  0  0  0  0  0  0
   35.1840   25.7130   37.8400 O   0  0  0  0  0  0  0  0  0  0  0  0
   35.5680   23.4920   39.0580 H   0  0  0  0  0  0  0  0  0  0  0  0
   40.8780   32.2500   40.8980 C   0  0  0  0  0  0  0  0  0  0  0  0
   41.0760   31.5620   42.0640 C   0  0  0  0  0  0  0  0  0  0  0  0
   42.3010   31.4470   42.7100 C   0  0  0  0  0  0  0  0  0  0  0  0
   43.3750   32.0860   42.1050 C   0  0  0  0  0  0  0  0  0  0  0  0
   43.1870   32.7720   40.9460 C   0  0  0  0  0  0  0  0  0  0  0  0
   41.9570   32.8740   40.3180 C   0  0  0  0  0  0  0  0  0  0  0  0
   40.2710   31.0430   42.5800 H   0  0  0  0  0  0  0  0  0  0  0  0
   42.4350   30.8980   43.6320 H   0  0  0  0  0  0  0  0  0  0  0  0
   44.3700   32.0650   42.5150 H   0  0  0  0  0  0  0  0  0  0  0  0
   44.0000   33.2880   40.4360 H   0  0  0  0  0  0  0  0  0  0  0  0
   41.7370   33.5630   39.1430 O   0  0  0  0  0  0  0  0  0  0  0  0
   42.8290   31.7870   37.5650 O   0  0  0  0  0  0  0  0  0  0  0  0
   41.8480   32.9570   37.5750 P   0  0  0  0  0  0  0  0  0  0  0  0
   40.3770   32.4830   36.9200 O   0  0  0  0  0  0  0  0  0  0  0  0
   39.5920   32.8970   37.3840 H   0  0  0  0  0  0  0  0  0  0  0  0
   42.4920   34.1580   36.5700 O   0  0  0  0  0  0  0  0  0  0  0  0
   41.9810   34.2770   35.7350 H   0  0  0  0  0  0  0  0  0  0  0  0
  1  2  2  0  0  0  0
  1  6  1  0  0  0  0
  2  3  1  0  0  0  0
  3  8  1  0  0  0  0
  3  4  2  0  0  0  0
  5  4  1  0  0  0  0
  5 27  1  0  0  0  0
  6  5  2  0  0  0  0
  7  2  1  0  0  0  0
  9 10  2  0  0  0  0
  9 14  1  0  0  0  0
 10 11  1  0  0  0  0
 11 17  1  0  0  0  0
 11 12  2  0  0  0  0
 13 12  1  0  0  0  0
 13  1  1  0  0  0  0
 14 13  2  0  0  0  0
 15  9  1  0  0  0  0
 16 10  1  0  0  0  0
 17 18  1  0  0  0  0
 18 19  2  0  0  0  0
 19 20  1  0  0  0  0
 21 19  1  0  0  0  0
 21 22  2  0  0  0  0
 23 21  1  0  0  0  0
 24 17  1  0  0  0  0
 24 23  1  0  0  0  0
 25 24  2  0  0  0  0
 26 23  1  0  0  0  0
 27 28  1  0  0  0  0
 28 33  1  0  0  0  0
 28 29  2  0  0  0  0
 29 34  1  0  0  0  0
 30 35  1  0  0  0  0
 30 29  1  0  0  0  0
 31 30  2  0  0  0  0
 32 27  2  0  0  0  0
 32 31  1  0  0  0  0
 36 31  1  0  0  0  0
 37 32  1  0  0  0  0
 38 39  2  0  0  0  0
 39 37  1  0  0  0  0
 40 41  1  0  0  0  0
 40 39  1  0  0  0  0
 42 39  1  0  0  0  0
 43 42  1  0  0  0  0
M  END
>  <minimizedAffinity>
-6.66195583

$$$$

 OpenBabel03242521263D

 43 46  0  0  0  0  0  0  0  0999 V2000
   38.3520   28.9630   41.8390 C   0  0  0  0  0  0  0  0  0  0  0  0
   37.6890   29.1390   43.0200 C   0  0  0  0  0  0  0  0  0  0  0  0
   37.0130   28.1400   43.6800 C   0  0  0  0  0  0  0  0  0  0  0  0
   37.0330   26.9250   43.0860 N   0  0  0  0  0  0  0  0  0  0  0  0
   37.6860   26.7470   41.9190 C   0  0  0  0  0  0  0  0  0  0  0  0
   38.3490   27.7390   41.2780 N   0  0  0  0  0  0  0  0  0  0  0  0
   37.6670   30.1120   43.5080 H   0  0  0  0  0  0  0  0  0  0  0  0
   36.4840   28.2610   44.6150 H   0  0  0  0  0  0  0  0  0  0  0  0
   39.5970   32.3250   41.1170 C   0  0  0  0  0  0  0  0  0  0  0  0
   40.3590   32.1050   39.9620 C   0  0  0  0  0  0  0  0  0  0  0  0
   40.4510   30.8300   39.4340 C   0  0  0  0  0  0  0  0  0  0  0  0
   39.7800   29.8160   40.0710 N   0  0  0  0  0  0  0  0  0  0  0  0
   39.0470   30.0530   41.1880 C   0  0  0  0  0  0  0  0  0  0  0  0
   38.9670   31.3010   41.6940 N   0  0  0  0  0  0  0  0  0  0  0  0
   39.4880   33.3000   41.5770 H   0  0  0  0  0  0  0  0  0  0  0  0
   40.8660   32.9570   39.5080 H   0  0  0  0  0  0  0  0  0  0  0  0
   41.2190   30.6400   38.2810 N   0  0  0  0  0  0  0  0  0  0  0  0
   41.7810   29.3990   38.2030 C   0  0  0  0  0  3  0  0  0  0  0  0
   42.5740   29.0790   37.0980 C   0  0  0  0  0  0  0  0  0  0  0  0
   43.0500   28.1200   36.9680 H   0  0  0  0  0  0  0  0  0  0  0  0
   42.7320   30.0640   36.1470 C   0  0  0  0  0  0  0  0  0  0  0  0
   43.4460   29.8020   35.1340 O   0  0  0  0  0  0  0  0  0  0  0  0
   42.1560   31.2770   36.2690 N   0  0  0  0  0  0  0  0  0  0  0  0
   41.3930   31.5690   37.3420 C   0  0  0  0  0  0  0  0  0  0  0  0
   40.8400   32.6940   37.4860 O   0  0  0  0  0  0  0  0  0  0  0  0
   42.3120   31.9920   35.5100 H   0  0  0  0  0  0  0  0  0  0  0  0
   37.6990   25.4110   41.2780 C   0  0  0  0  0  0  0  0  0  0  0  0
   36.7410   25.0950   40.3530 C   0  0  0  0  0  0  0  0  0  0  0  0
   36.6590   23.8750   39.6930 C   0  0  0  0  0  0  0  0  0  0  0  0
   37.6290   22.9360   40.0150 C   0  0  0  0  0  0  0  0  0  0  0  0
   38.5860   23.2420   40.9320 C   0  0  0  0  0  0  0  0  0  0  0  0
   38.6500   24.4650   41.5800 C   0  0  0  0  0  0  0  0  0  0  0  0
   35.9580   25.7910   40.0630 H   0  0  0  0  0  0  0  0  0  0  0  0
   35.8920   23.6470   38.9650 H   0  0  0  0  0  0  0  0  0  0  0  0
   37.6650   21.9590   39.5670 H   0  0  0  0  0  0  0  0  0  0  0  0
   39.3670   22.5380   41.2170 H   0  0  0  0  0  0  0  0  0  0  0  0
   39.6080   24.8010   42.5150 O   0  0  0  0  0  0  0  0  0  0  0  0
   41.2190   26.8590   42.4690 O   0  0  0  0  0  0  0  0  0  0  0  0
   41.1690   25.3550   42.2130 P   0  0  0  0  0  0  0  0  0  0  0  0
   42.3570   24.5760   43.1090 O   0  0  0  0  0  0  0  0  0  0  0  0
   42.0570   23.6890   43.4640 H   0  0  0  0  0  0  0  0  0  0  0  0
   41.5260   25.1150   40.5750 O   0  0  0  0  0  0  0  0  0  0  0  0
   42.4050   24.6900   40.4300 H   0  0  0  0  0  0  0  0  0  0  0  0
  1  2  1  0  0  0  0
  2  7  1  0  0  0  0
  2  3  2  0  0  0  0
  3  8  1  0  0  0  0
  4  3  1  0  0  0  0
  5  4  2  0  0  0  0
  6  1  2  0  0  0  0
  6  5  1  0  0  0  0
  9 15  1  0  0  0  0
  9 14  1  0  0  0  0
 10  9  2  0  0  0  0
 11 10  1  0  0  0  0
 11 12  2  0  0  0  0
 12 13  1  0  0  0  0
 13 14  2  0  0  0  0
 13  1  1  0  0  0  0
 16 10  1  0  0  0  0
 17 11  1  0  0  0  0
 18 17  1  0  0  0  0
 19 18  2  0  0  0  0
 20 19  1  0  0  0  0
 21 23  1  0  0  0  0
 21 19  1  0  0  0  0
 22 21  2  0  0  0  0
 23 24  1  0  0  0  0
 24 25  2  0  0  0  0
 24 17  1  0  0  0  0
 26 23  1  0  0  0  0
 27 32  1  0  0  0  0
 27  5  1  0  0  0  0
 28 27  2  0  0  0  0
 29 30  2  0  0  0  0
 29 28  1  0  0  0  0
 30 31  1  0  0  0  0
 31 36  1  0  0  0  0
 31 32  2  0  0  0  0
 32 37  1  0  0  0  0
 33 28  1  0  0  0  0
 34 29  1  0  0  0  0
 35 30  1  0  0  0  0
 39 38  2  0  0  0  0
 39 37  1  0  0  0  0
 39 40  1  0  0  0  0
 40 41  1  0  0  0  0
 42 39  1  0  0  0  0
 43 42  1  0  0  0  0
M  END
>  <minimizedAffinity>
-6.62991571

$$$$

 OpenBabel03242521263D

 43 46  0  0  0  0  0  0  0  0999 V2000
   38.0520   30.4630   40.7420 C   0  0  0  0  0  0  0  0  0  0  0  0
   37.1860   31.5160   40.6580 C   0  0  0  0  0  0  0  0  0  0  0  0
   37.4620   32.6880   39.9960 C   0  0  0  0  0  0  0  0  0  0  0  0
   38.6770   32.7590   39.4060 N   0  0  0  0  0  0  0  0  0  0  0  0
   39.5360   31.7220   39.4880 C   0  0  0  0  0  0  0  0  0  0  0  0
   39.2530   30.5710   40.1430 N   0  0  0  0  0  0  0  0  0  0  0  0
   36.2040   31.4700   41.1270 H   0  0  0  0  0  0  0  0  0  0  0  0
   36.7890   33.5310   39.9190 H   0  0  0  0  0  0  0  0  0  0  0  0
   37.2830   28.1640   43.4810 C   0  0  0  0  0  0  0  0  0  0  0  0
   37.0550   26.9660   42.7930 C   0  0  0  0  0  0  0  0  0  0  0  0
   37.1600   26.9380   41.4140 C   0  0  0  0  0  0  0  0  0  0  0  0
   37.4900   28.1020   40.7660 N   0  0  0  0  0  0  0  0  0  0  0  0
   37.7070   29.2510   41.4540 C   0  0  0  0  0  0  0  0  0  0  0  0
   37.6000   29.2650   42.7990 N   0  0  0  0  0  0  0  0  0  0  0  0
   37.2160   28.2500   44.5600 H   0  0  0  0  0  0  0  0  0  0  0  0
   36.7970   26.0800   43.3720 H   0  0  0  0  0  0  0  0  0  0  0  0
   36.9270   25.7280   40.7530 N   0  0  0  0  0  0  0  0  0  0  0  0
   36.4190   25.8860   39.4960 C   0  0  0  0  0  3  0  0  0  0  0  0
   36.1410   24.7530   38.7270 C   0  0  0  0  0  0  0  0  0  0  0  0
   35.7390   24.8000   37.7270 H   0  0  0  0  0  0  0  0  0  0  0  0
   36.4060   23.5320   39.3090 C   0  0  0  0  0  0  0  0  0  0  0  0
   36.1630   22.4880   38.6340 O   0  0  0  0  0  0  0  0  0  0  0  0
   36.9080   23.4270   40.5560 N   0  0  0  0  0  0  0  0  0  0  0  0
   37.1720   24.5300   41.2840 C   0  0  0  0  0  0  0  0  0  0  0  0
   37.6410   24.4660   42.4540 O   0  0  0  0  0  0  0  0  0  0  0  0
   37.0920   22.4660   40.9500 H   0  0  0  0  0  0  0  0  0  0  0  0
   40.8650   31.8120   38.8390 C   0  0  0  0  0  0  0  0  0  0  0  0
   41.0100   31.4170   37.5370 C   0  0  0  0  0  0  0  0  0  0  0  0
   42.2070   31.4580   36.8320 C   0  0  0  0  0  0  0  0  0  0  0  0
   43.3100   31.9380   37.5240 C   0  0  0  0  0  0  0  0  0  0  0  0
   43.1750   32.3330   38.8180 C   0  0  0  0  0  0  0  0  0  0  0  0
   41.9720   32.2840   39.5030 C   0  0  0  0  0  0  0  0  0  0  0  0
   40.1800   31.0340   36.9480 H   0  0  0  0  0  0  0  0  0  0  0  0
   42.2980   31.1400   35.8020 H   0  0  0  0  0  0  0  0  0  0  0  0
   44.2870   32.0150   37.0800 H   0  0  0  0  0  0  0  0  0  0  0  0
   44.0130   32.7160   39.4010 H   0  0  0  0  0  0  0  0  0  0  0  0
   41.8070   32.6770   40.8160 O   0  0  0  0  0  0  0  0  0  0  0  0
   42.7000   30.4160   41.7790 O   0  0  0  0  0  0  0  0  0  0  0  0
   42.0910   31.7540   42.1950 P   0  0  0  0  0  0  0  0  0  0  0  0
   43.0730   32.5050   43.3320 O   0  0  0  0  0  0  0  0  0  0  0  0
   43.1100   33.4990   43.2170 H   0  0  0  0  0  0  0  0  0  0  0  0
   40.6100   31.4170   42.9420 O   0  0  0  0  0  0  0  0  0  0  0  0
   40.6180   31.5910   43.9130 H   0  0  0  0  0  0  0  0  0  0  0  0
  1 13  1  0  0  0  0
  2  1  1  0  0  0  0
  2  7  1  0  0  0  0
  3  2  2  0  0  0  0
  4  5  2  0  0  0  0
  4  3  1  0  0  0  0
  5  6  1  0  0  0  0
  6  1  2  0  0  0  0
  8  3  1  0  0  0  0
  9 15  1  0  0  0  0
 10 16  1  0  0  0  0
 10  9  2  0  0  0  0
 11 10  1  0  0  0  0
 12 11  2  0  0  0  0
 12 13  1  0  0  0  0
 13 14  2  0  0  0  0
 14  9  1  0  0  0  0
 17 24  1  0  0  0  0
 17 11  1  0  0  0  0
 18 17  1  0  0  0  0
 19 21  1  0  0  0  0
 19 18  2  0  0  0  0
 20 19  1  0  0  0  0
 21 23  1  0  0  0  0
 22 21  2  0  0  0  0
 23 26  1  0  0  0  0
 23 24  1  0  0  0  0
 24 25  2  0  0  0  0
 27  5  1  0  0  0  0
 27 32  1  0  0  0  0
 28 27  2  0  0  0  0
 29 30  2  0  0  0  0
 29 28  1  0  0  0  0
 30 31  1  0  0  0  0
 31 36  1  0  0  0  0
 31 32  2  0  0  0  0
 32 37  1  0  0  0  0
 33 28  1  0  0  0  0
 34 29  1  0  0  0  0
 35 30  1  0  0  0  0
 37 39  1  0  0  0  0
 38 39  2  0  0  0  0
 39 42  1  0  0  0  0
 39 40  1  0  0  0  0
 41 40  1  0  0  0  0
 42 43  1  0  0  0  0
M  END
>  <minimizedAffinity>
-6.56798649

$$$$

 OpenBabel03242521263D

 43 46  0  0  0  0  0  0  0  0999 V2000
   38.6270   29.5140   41.6450 C   0  0  0  0  0  0  0  0  0  0  0  0
   38.3480   29.5960   42.9800 C   0  0  0  0  0  0  0  0  0  0  0  0
   37.6360   28.6480   43.6760 C   0  0  0  0  0  0  0  0  0  0  0  0
   37.2050   27.5880   42.9550 N   0  0  0  0  0  0  0  0  0  0  0  0
   37.4770   27.5050   41.6360 C   0  0  0  0  0  0  0  0  0  0  0  0
   38.1810   28.4440   40.9610 N   0  0  0  0  0  0  0  0  0  0  0  0
   38.6910   30.4430   43.5710 H   0  0  0  0  0  0  0  0  0  0  0  0
   37.4070   28.6960   44.7320 H   0  0  0  0  0  0  0  0  0  0  0  0
   39.9230   32.8050   40.7140 C   0  0  0  0  0  0  0  0  0  0  0  0
   40.8080   32.4800   39.6770 C   0  0  0  0  0  0  0  0  0  0  0  0
   40.9640   31.1600   39.2980 C   0  0  0  0  0  0  0  0  0  0  0  0
   40.2340   30.2060   39.9620 N   0  0  0  0  0  0  0  0  0  0  0  0
   39.3820   30.5430   40.9630 C   0  0  0  0  0  0  0  0  0  0  0  0
   39.2400   31.8360   41.3230 N   0  0  0  0  0  0  0  0  0  0  0  0
   39.7590   33.8200   41.0550 H   0  0  0  0  0  0  0  0  0  0  0  0
   41.3560   33.2890   39.1940 H   0  0  0  0  0  0  0  0  0  0  0  0
   41.8540   30.8650   38.2610 N   0  0  0  0  0  0  0  0  0  0  0  0
   42.4280   29.6320   38.3740 C   0  0  0  0  0  3  0  0  0  0  0  0
   43.3390   29.2140   37.4000 C   0  0  0  0  0  0  0  0  0  0  0  0
   43.8320   28.2540   37.4220 H   0  0  0  0  0  0  0  0  0  0  0  0
   43.5940   30.0980   36.3730 C   0  0  0  0  0  0  0  0  0  0  0  0
   44.4160   29.7450   35.4760 O   0  0  0  0  0  0  0  0  0  0  0  0
   43.0000   31.3070   36.3060 N   0  0  0  0  0  0  0  0  0  0  0  0
   42.1240   31.6950   37.2540 C   0  0  0  0  0  0  0  0  0  0  0  0
   41.5520   32.8190   37.2200 O   0  0  0  0  0  0  0  0  0  0  0  0
   43.2340   31.9420   35.4970 H   0  0  0  0  0  0  0  0  0  0  0  0
   36.9980   26.3390   40.8570 C   0  0  0  0  0  0  0  0  0  0  0  0
   37.0230   25.0920   41.4210 C   0  0  0  0  0  0  0  0  0  0  0  0
   36.5990   23.9330   40.7830 C   0  0  0  0  0  0  0  0  0  0  0  0
   36.1250   24.0840   39.4870 C   0  0  0  0  0  0  0  0  0  0  0  0
   36.0960   25.3200   38.9190 C   0  0  0  0  0  0  0  0  0  0  0  0
   36.5230   26.4640   39.5730 C   0  0  0  0  0  0  0  0  0  0  0  0
   37.3840   24.9160   42.4310 H   0  0  0  0  0  0  0  0  0  0  0  0
   36.6280   22.9570   41.2480 H   0  0  0  0  0  0  0  0  0  0  0  0
   35.7710   23.2570   38.8970 H   0  0  0  0  0  0  0  0  0  0  0  0
   35.7320   25.4870   37.9060 H   0  0  0  0  0  0  0  0  0  0  0  0
   36.5060   27.7280   39.0210 O   0  0  0  0  0  0  0  0  0  0  0  0
   35.6020   29.9960   38.0860 O   0  0  0  0  0  0  0  0  0  0  0  0
   35.1630   28.7220   38.8030 P   0  0  0  0  0  0  0  0  0  0  0  0
   33.9020   27.9930   37.9660 O   0  0  0  0  0  0  0  0  0  0  0  0
   33.9550   26.9930   37.9760 H   0  0  0  0  0  0  0  0  0  0  0  0
   34.5710   29.1810   40.3210 O   0  0  0  0  0  0  0  0  0  0  0  0
   33.5940   29.0680   40.4050 H   0  0  0  0  0  0  0  0  0  0  0  0
  1  2  1  0  0  0  0
  2  7  1  0  0  0  0
  2  3  2  0  0  0  0
  3  8  1  0  0  0  0
  4  3  1  0  0  0  0
  5  4  2  0  0  0  0
  6  5  1  0  0  0  0
  6  1  2  0  0  0  0
  9 15  1  0  0  0  0
  9 14  1  0  0  0  0
 10  9  2  0  0  0  0
 11 10  1  0  0  0  0
 11 12  2  0  0  0  0
 12 13  1  0  0  0  0
 13 14  2  0  0  0  0
 13  1  1  0  0  0  0
 16 10  1  0  0  0  0
 17 18  1  0  0  0  0
 17 11  1  0  0  0  0
 19 20  1  0  0  0  0
 19 18  2  0  0  0  0
 21 19  1  0  0  0  0
 22 21  2  0  0  0  0
 23 21  1  0  0  0  0
 23 24  1  0  0  0  0
 24 17  1  0  0  0  0
 25 24  2  0  0  0  0
 26 23  1  0  0  0  0
 27 28  1  0  0  0  0
 27  5  1  0  0  0  0
 28 33  1  0  0  0  0
 29 34  1  0  0  0  0
 29 28  2  0  0  0  0
 30 29  1  0  0  0  0
 31 30  2  0  0  0  0
 31 32  1  0  0  0  0
 32 27  2  0  0  0  0
 35 30  1  0  0  0  0
 36 31  1  0  0  0  0
 37 32  1  0  0  0  0
 38 39  2  0  0  0  0
 39 37  1  0  0  0  0
 39 42  1  0  0  0  0
 40 41  1  0  0  0  0
 40 39  1  0  0  0  0
 42 43  1  0  0  0  0
M  END
>  <minimizedAffinity>
-6.56116962

$$$$

 OpenBabel03242521263D

 43 46  0  0  0  0  0  0  0  0999 V2000
   37.0810   28.3110   41.0090 C   0  0  0  0  0  0  0  0  0  0  0  0
   36.0060   29.1440   40.8690 C   0  0  0  0  0  0  0  0  0  0  0  0
   36.0910   30.5160   40.8770 C   0  0  0  0  0  0  0  0  0  0  0  0
   37.3330   31.0280   41.0340 N   0  0  0  0  0  0  0  0  0  0  0  0
   38.3960   30.2090   41.1730 C   0  0  0  0  0  0  0  0  0  0  0  0
   38.3010   28.8580   41.1630 N   0  0  0  0  0  0  0  0  0  0  0  0
   35.0020   28.7430   40.7410 H   0  0  0  0  0  0  0  0  0  0  0  0
   35.2530   31.1900   40.7680 H   0  0  0  0  0  0  0  0  0  0  0  0
   37.0270   24.8300   42.1320 C   0  0  0  0  0  0  0  0  0  0  0  0
   36.6490   24.1590   40.9620 C   0  0  0  0  0  0  0  0  0  0  0  0
   36.4150   24.8790   39.8040 C   0  0  0  0  0  0  0  0  0  0  0  0
   36.5640   26.2420   39.8490 N   0  0  0  0  0  0  0  0  0  0  0  0
   36.9320   26.8710   40.9930 C   0  0  0  0  0  0  0  0  0  0  0  0
   37.1570   26.1570   42.1160 N   0  0  0  0  0  0  0  0  0  0  0  0
   37.2240   24.3220   43.0690 H   0  0  0  0  0  0  0  0  0  0  0  0
   36.5490   23.0740   40.9990 H   0  0  0  0  0  0  0  0  0  0  0  0
   36.0390   24.1820   38.6510 N   0  0  0  0  0  0  0  0  0  0  0  0
   35.2380   24.9070   37.8170 C   0  0  0  0  0  3  0  0  0  0  0  0
   34.7920   24.3260   36.6280 C   0  0  0  0  0  0  0  0  0  0  0  0
   34.1580   24.8370   35.9200 H   0  0  0  0  0  0  0  0  0  0  0  0
   35.2030   23.0340   36.3800 C   0  0  0  0  0  0  0  0  0  0  0  0
   34.8130   22.4820   35.3080 O   0  0  0  0  0  0  0  0  0  0  0  0
   35.9960   22.3580   37.2360 N   0  0  0  0  0  0  0  0  0  0  0  0
   36.4180   22.9340   38.3790 C   0  0  0  0  0  0  0  0  0  0  0  0
   37.1600   22.3290   39.2020 O   0  0  0  0  0  0  0  0  0  0  0  0
   36.2790   21.3720   36.9940 H   0  0  0  0  0  0  0  0  0  0  0  0
   39.7520   30.7820   41.3450 C   0  0  0  0  0  0  0  0  0  0  0  0
   40.3630   30.7150   42.5680 C   0  0  0  0  0  0  0  0  0  0  0  0
   41.6290   31.2190   42.8410 C   0  0  0  0  0  0  0  0  0  0  0  0
   42.2900   31.8250   41.7810 C   0  0  0  0  0  0  0  0  0  0  0  0
   41.6900   31.8950   40.5630 C   0  0  0  0  0  0  0  0  0  0  0  0
   40.4260   31.3860   40.3110 C   0  0  0  0  0  0  0  0  0  0  0  0
   39.8920   30.2520   43.4310 H   0  0  0  0  0  0  0  0  0  0  0  0
   42.0940   31.1550   43.8150 H   0  0  0  0  0  0  0  0  0  0  0  0
   43.2740   32.2500   41.8760 H   0  0  0  0  0  0  0  0  0  0  0  0
   42.1690   32.3610   39.7030 H   0  0  0  0  0  0  0  0  0  0  0  0
   39.7930   31.4450   39.0860 O   0  0  0  0  0  0  0  0  0  0  0  0
   41.1690   33.3090   37.8760 O   0  0  0  0  0  0  0  0  0  0  0  0
   40.4470   31.9870   37.6320 P   0  0  0  0  0  0  0  0  0  0  0  0
   41.4840   30.8890   36.8970 O   0  0  0  0  0  0  0  0  0  0  0  0
   41.3500   29.9510   37.2200 H   0  0  0  0  0  0  0  0  0  0  0  0
   39.1830   32.3000   36.5490 O   0  0  0  0  0  0  0  0  0  0  0  0
   39.3330   31.9050   35.6570 H   0  0  0  0  0  0  0  0  0  0  0  0
  1  6  1  0  0  0  0
  2  3  1  0  0  0  0
  2  1  2  0  0  0  0
  3  4  2  0  0  0  0
  4  5  1  0  0  0  0
  5 27  1  0  0  0  0
  6  5  2  0  0  0  0
  7  2  1  0  0  0  0
  8  3  1  0  0  0  0
  9 15  1  0  0  0  0
 10 16  1  0  0  0  0
 10  9  2  0  0  0  0
 11 12  2  0  0  0  0
 11 10  1  0  0  0  0
 12 13  1  0  0  0  0
 13  1  1  0  0  0  0
 13 14  2  0  0  0  0
 14  9  1  0  0  0  0
 17 11  1  0  0  0  0
 18 17  1  0  0  0  0
 19 18  2  0  0  0  0
 20 19  1  0  0  0  0
 21 19  1  0  0  0  0
 21 23  1  0  0  0  0
 22 21  2  0  0  0  0
 23 24  1  0  0  0  0
 24 17  1  0  0  0  0
 24 25  2  0  0  0  0
 26 23  1  0  0  0  0
 27 28  1  0  0  0  0
 28 29  2  0  0  0  0
 28 33  1  0  0  0  0
 29 34  1  0  0  0  0
 30 35  1  0  0  0  0
 30 29  1  0  0  0  0
 31 30  2  0  0  0  0
 32 31  1  0  0  0  0
 32 27  2  0  0  0  0
 36 31  1  0  0  0  0
 37 32  1  0  0  0  0
 39 38  2  0  0  0  0
 39 37  1  0  0  0  0
 40 41  1  0  0  0  0
 40 39  1  0  0  0  0
 42 39  1  0  0  0  0
 43 42  1  0  0  0  0
M  END
>  <minimizedAffinity>
-6.50276756

$$$$
