
 OpenBabel03242516493D

 44 47  0  0  1  0  0  0  0  0999 V2000
   47.7920   32.8380   41.7020 C   0  0  1  0  0  0  0  0  0  0  0  0
   47.3790   32.1360   40.4710 C   0  0  0  0  0  0  0  0  0  0  0  0
   48.3680   32.5890   39.3920 C   0  0  0  0  0  0  0  0  0  0  0  0
   48.0390   34.0420   39.1020 C   0  0  0  0  0  0  0  0  0  0  0  0
   48.0840   34.9180   40.3200 C   0  0  0  0  0  0  0  0  0  0  0  0
   47.6360   34.3410   41.5930 C   0  0  1  0  0  0  0  0  0  0  0  0
   48.9080   32.7040   41.8330 H   0  0  0  0  0  0  0  0  0  0  0  0
   46.3620   32.3920   40.1380 H   0  0  0  0  0  0  0  0  0  0  0  0
   47.5240   31.0460   40.6160 H   0  0  0  0  0  0  0  0  0  0  0  0
   49.4060   32.4700   39.7590 H   0  0  0  0  0  0  0  0  0  0  0  0
   48.1620   32.0220   38.4700 H   0  0  0  0  0  0  0  0  0  0  0  0
   47.0290   34.0470   38.6170 H   0  0  0  0  0  0  0  0  0  0  0  0
   48.7570   34.3900   38.3540 H   0  0  0  0  0  0  0  0  0  0  0  0
   47.4670   35.8290   40.0870 H   0  0  0  0  0  0  0  0  0  0  0  0
   49.1350   35.3050   40.3910 H   0  0  0  0  0  0  0  0  0  0  0  0
   48.2920   34.7550   42.4210 H   0  0  0  0  0  0  0  0  0  0  0  0
   46.2790   34.7670   41.9750 C   0  0  0  0  0  0  0  0  0  0  0  0
   45.9100   35.4900   43.1160 C   0  0  0  0  0  0  0  0  0  0  0  0
   44.5630   35.7910   43.2430 C   0  0  0  0  0  0  0  0  0  0  0  0
   43.6980   35.3650   42.2530 C   0  0  0  0  0  0  0  0  0  0  0  0
   44.0680   34.6560   41.1380 C   0  0  0  0  0  0  0  0  0  0  0  0
   45.3910   34.3630   41.0180 N   0  0  0  0  0  0  0  0  0  0  0  0
   46.6970   35.7340   43.7680 H   0  0  0  0  0  0  0  0  0  0  0  0
   44.2750   36.3490   44.1230 H   0  0  0  0  0  0  0  0  0  0  0  0
   42.6630   35.6480   42.4400 H   0  0  0  0  0  0  0  0  0  0  0  0
   43.0890   34.2650   40.1750 N   0  0  0  0  0  0  0  0  0  0  0  0
   43.1930   33.2870   39.2500 C   0  0  0  0  0  0  0  0  0  0  0  0
   42.1300   33.0540   38.3990 C   0  0  0  0  0  0  0  0  0  0  0  0
   42.2770   32.2580   37.6820 H   0  0  0  0  0  0  0  0  0  0  0  0
   40.9780   33.8200   38.5010 C   0  0  0  0  0  0  0  0  0  0  0  0
   40.0290   33.5710   37.6990 O   0  0  0  0  0  0  0  0  0  0  0  0
   40.9220   34.7760   39.4320 N   0  0  0  0  0  0  0  0  0  0  0  0
   41.9530   35.0020   40.2580 C   0  0  0  0  0  0  0  0  0  0  0  0
   41.7370   35.9370   41.0740 O   0  0  0  0  0  0  0  0  0  0  0  0
   40.0160   35.3160   39.4490 H   0  0  0  0  0  0  0  0  0  0  0  0
   45.5060   30.9750   44.0640 C   0  0  0  0  0  0  0  0  0  0  0  0
   46.1280   31.4610   42.9150 C   0  0  0  0  0  0  0  0  0  0  0  0
   47.1880   32.3560   42.9390 C   0  0  0  0  0  0  0  0  0  0  0  0
   47.5960   32.7410   44.1600 N   0  0  0  0  0  0  0  0  0  0  0  0
   47.0020   32.2760   45.2860 C   0  0  0  0  0  0  0  0  0  0  0  0
   45.9890   31.4200   45.2560 N   0  0  0  0  0  0  0  0  0  0  0  0
   44.6840   30.2770   43.9690 H   0  0  0  0  0  0  0  0  0  0  0  0
   45.7470   31.1090   41.9540 H   0  0  0  0  0  0  0  0  0  0  0  0
   47.4360   32.6730   46.1970 H   0  0  0  0  0  0  0  0  0  0  0  0
  1  7  1  1  0  0  0
  1 38  1  0  0  0  0
  2  9  1  0  0  0  0
  2  1  1  0  0  0  0
  3 10  1  0  0  0  0
  3  2  1  0  0  0  0
  4  3  1  0  0  0  0
  4  5  1  0  0  0  0
  5 15  1  0  0  0  0
  5  6  1  0  0  0  0
  6  1  1  0  0  0  0
  6 17  1  0  0  0  0
  6 16  1  1  0  0  0
  8  2  1  0  0  0  0
 11  3  1  0  0  0  0
 12  4  1  0  0  0  0
 13  4  1  0  0  0  0
 14  5  1  0  0  0  0
 17 18  1  0  0  0  0
 18 19  2  0  0  0  0
 18 23  1  0  0  0  0
 19 24  1  0  0  0  0
 20 25  1  0  0  0  0
 20 19  1  0  0  0  0
 21 20  2  0  0  0  0
 22 21  1  0  0  0  0
 22 17  2  0  0  0  0
 26 33  1  0  0  0  0
 26 21  1  0  0  0  0
 27 26  1  0  0  0  0
 28 30  1  0  0  0  0
 28 27  2  0  0  0  0
 29 28  1  0  0  0  0
 30 32  1  0  0  0  0
 31 30  2  0  0  0  0
 32 35  1  0  0  0  0
 32 33  1  0  0  0  0
 33 34  2  0  0  0  0
 36 41  1  0  0  0  0
 37 38  1  0  0  0  0
 37 36  2  0  0  0  0
 38 39  2  0  0  0  0
 39 40  1  0  0  0  0
 40 44  1  0  0  0  0
 41 40  2  0  0  0  0
 42 36  1  0  0  0  0
 43 37  1  0  0  0  0
M  END
>  <minimizedAffinity>
-6.32130241

>  <minimizedRMSD>
0.421340317

$$$$
