
     RDKit          3D

 50 52  0  0  0  0  0  0  0  0999 V2000
   47.1432   34.1481   43.0662 N   0  0  0  0  0  0  0  0  0  0  0  0
   46.6610   35.3586   42.5217 C   0  0  0  0  0  0  0  0  0  0  0  0
   45.1711   35.5766   42.7244 C   0  0  0  0  0  0  0  0  0  0  0  0
   44.6419   35.0404   44.0316 C   0  0  0  0  0  0  0  0  0  0  0  0
   45.7675   34.4941   44.8931 C   0  0  0  0  0  0  0  0  0  0  0  0
   46.4233   33.3963   43.9590 C   0  0  2  0  0  0  0  0  0  0  0  0
   48.1494   33.5020   42.2651 C   0  0  0  0  0  0  0  0  0  0  0  0
   47.4595   32.6488   41.2619 C   0  0  0  0  0  0  0  0  0  0  0  0
   49.3424   32.2778   38.0327 C   0  0  0  0  0  0  0  0  0  0  0  0
   48.8195   32.0205   39.3138 C   0  0  0  0  0  0  0  0  0  0  0  0
   47.9987   32.9420   39.9112 C   0  0  0  0  0  0  0  0  0  0  0  0
   47.7322   34.0610   39.2304 N   0  0  0  0  0  0  0  0  0  0  0  0
   48.2238   34.3163   38.0116 C   0  0  0  0  0  0  0  0  0  0  0  0
   49.0362   33.4286   37.3946 N   0  0  0  0  0  0  0  0  0  0  0  0
   47.2082   32.7182   44.8724 O   0  0  0  0  0  0  0  0  0  0  0  0
   46.0288   30.5418   43.8816 O   0  0  0  0  0  0  0  0  0  0  0  0
   46.6924   31.1438   45.1292 P   0  0  2  0  0  0  0  0  0  0  0  0
   45.3965   31.2649   46.2564 O   0  0  0  0  0  0  0  0  0  0  0  0
   47.8550   30.1523   45.7879 O   0  0  0  0  0  0  0  0  0  0  0  0
   47.7515   28.8951   45.2113 C   0  0  0  0  0  0  0  0  0  0  0  0
   47.1864   36.1959   43.0445 H   0  0  0  0  0  0  0  0  0  0  0  0
   46.8444   35.5140   41.4531 H   0  0  0  0  0  0  0  0  0  0  0  0
   44.5852   35.1968   41.8541 H   0  0  0  0  0  0  0  0  0  0  0  0
   44.9856   36.6726   42.7269 H   0  0  0  0  0  0  0  0  0  0  0  0
   43.9840   34.1757   43.7913 H   0  0  0  0  0  0  0  0  0  0  0  0
   44.0130   35.7595   44.5812 H   0  0  0  0  0  0  0  0  0  0  0  0
   45.3463   34.0053   45.7782 H   0  0  0  0  0  0  0  0  0  0  0  0
   46.5119   35.2606   45.1041 H   0  0  0  0  0  0  0  0  0  0  0  0
   45.5933   32.7977   43.5314 H   0  0  0  0  0  0  0  0  0  0  0  0
   48.7753   32.9128   42.9645 H   0  0  0  0  0  0  0  0  0  0  0  0
   48.7589   34.3084   41.8056 H   0  0  0  0  0  0  0  0  0  0  0  0
   46.3639   32.8719   41.2011 H   0  0  0  0  0  0  0  0  0  0  0  0
   47.5613   31.5827   41.4896 H   0  0  0  0  0  0  0  0  0  0  0  0
   49.9792   31.5024   37.6339 H   0  0  0  0  0  0  0  0  0  0  0  0
   49.0486   31.1026   39.8520 H   0  0  0  0  0  0  0  0  0  0  0  0
   48.0170   35.2174   37.4485 H   0  0  0  0  0  0  0  0  0  0  0  0
   45.7337   31.2292   47.1716 H   0  0  0  0  0  0  0  0  0  0  0  0
   46.7625   28.4218   45.4531 H   0  0  0  0  0  0  0  0  0  0  0  0
   47.8791   28.9371   44.1190 H   0  0  0  0  0  0  0  0  0  0  0  0
   48.7770   28.0572   45.8065 N   0  0  0  0  0  0  0  0  0  0  0  0
   48.5947   27.0918   46.7240 C   0  0  0  0  0  0  0  0  0  0  0  0
   49.6725   26.3674   47.2060 C   0  0  0  0  0  0  0  0  0  0  0  0
   49.4986   25.5981   47.9420 H   0  0  0  0  0  0  0  0  0  0  0  0
   50.9619   26.6196   46.7555 C   0  0  0  0  0  0  0  0  0  0  0  0
   51.9453   25.9694   47.1855 O   0  0  0  0  0  0  0  0  0  0  0  0
   51.0961   27.5910   45.8407 N   0  0  0  0  0  0  0  0  0  0  0  0
   50.0445   28.2910   45.3765 C   0  0  0  0  0  0  0  0  0  0  0  0
   50.3217   29.1649   44.5271 O   0  0  0  0  0  0  0  0  0  0  0  0
   47.5679   26.9405   47.0372 H   0  0  0  0  0  0  0  0  0  0  0  0
   52.0810   27.7548   45.5230 H   0  0  0  0  0  0  0  0  0  0  0  0
  1  6  1  0
  2  3  1  0
  2  1  1  0
  3  4  1  0
  4  5  1  0
  6 15  1  0
  6  5  1  0
  7  1  1  0
  8  7  1  0
  9 10  2  0
 10 11  1  0
 11  8  1  0
 12 11  2  0
 13 12  1  0
 14 13  2  0
 14  9  1  0
 17 15  1  6
 17 16  2  0
 17 19  1  0
 17 18  1  0
 20 19  1  0
  2 21  1  0
  2 22  1  0
  3 23  1  0
  3 24  1  0
  4 25  1  0
  4 26  1  0
  5 27  1  0
  5 28  1  0
  6 29  1  6
  7 30  1  0
  7 31  1  0
  8 32  1  0
  8 33  1  0
  9 34  1  0
 10 35  1  0
 13 36  1  0
 18 37  1  0
 20 38  1  0
 20 39  1  0
 40 41  1  0
 41 42  2  0
 42 43  1  0
 42 44  1  0
 44 45  2  0
 44 46  1  0
 46 47  1  0
 47 48  2  0
 47 40  1  0
 41 49  1  0
 46 50  1  0
 20 40  1  0
M  ISO  8  21  13  22  13  23  13  24  13  25  13  26  13  27  13  28  13
M  ISO  8  29  13  30   8  31   8  32   8  33   8  34  14  35  14  36  14
M  ISO  4  37   3  38   8  39   8  43  16
M  END
>  <DihAtoms>  (1) 
18,19,39,40

>  <DihDeg>  (1) 
90.00133821030201

$$$$
