REMARK  Name = 
REMARK  2 active torsions:
REMARK  status: ('A' for Active; 'I' for Inactive)
REMARK    1  A    between atoms: C_3  and  C_10
REMARK    2  A    between atoms: C_4  and  C_14
REMARK                            x       y       z     vdW  Elec       q    Type
REMARK                         _______ _______ _______ _____ _____    ______ ____
ROOT
ATOM      1 CL   UNL     1      42.602  33.779  41.122  0.00  0.00    +0.000 Cl
ATOM      2  C   UNL     1      44.199  33.633  40.410  0.00  0.00    +0.000 A 
ATOM      3  C   UNL     1      45.309  33.977  41.102  0.00  0.00    +0.000 A 
ATOM      4  C   UNL     1      46.515  33.825  40.449  0.00  0.00    +0.000 A 
ATOM      5  C   UNL     1      46.611  33.354  39.174  0.00  0.00    +0.000 A 
ATOM      6  C   UNL     1      45.477  33.008  38.482  0.00  0.00    +0.000 A 
ATOM      7  C   UNL     1      44.270  33.154  39.117  0.00  0.00    +0.000 A 
ATOM      8  H   UNL     1      47.587  33.255  38.713  0.00  0.00    +0.000 HD
ATOM      9  H   UNL     1      45.512  32.632  37.471  0.00  0.00    +0.000 HD
ATOM     10  H   UNL     1      43.367  32.886  38.586  0.00  0.00    +0.000 HD
ENDROOT
BRANCH   4  11
ATOM     11  C   UNL     1      47.745  34.191  41.175  0.00  0.00    +0.000 A 
ATOM     12  C   UNL     1      48.411  33.147  41.848  0.00  0.00    +0.000 A 
ATOM     13  C   UNL     1      49.539  33.601  42.488  0.00  0.00    +0.000 A 
ATOM     14  C   UNL     1      50.023  34.870  42.521  0.00  0.00    +0.000 A 
ATOM     15  C   UNL     1      49.295  35.827  41.827  0.00  0.00    +0.000 A 
ATOM     16  N   UNL     1      48.172  35.437  41.175  0.00  0.00    +0.000 NA
ATOM     17  H   UNL     1      48.090  32.117  41.869  0.00  0.00    +0.000 HD
ATOM     18  H   UNL     1      50.132  32.855  43.046  0.00  0.00    +0.000 HD
ATOM     19  H   UNL     1      50.904  35.167  43.034  0.00  0.00    +0.000 HD
ATOM     20  N   UNL     1      49.774  37.169  41.840  0.00  0.00    +0.000 N 
ATOM     21  C   UNL     1      51.041  37.585  41.665  0.00  0.00    +0.000 A 
ATOM     22  C   UNL     1      51.324  38.937  41.710  0.00  0.00    +0.000 A 
ATOM     23  H   UNL     1      52.366  39.212  41.561  0.00  0.00    +0.000 HD
ATOM     24  C   UNL     1      50.313  39.856  41.933  0.00  0.00    +0.000 A 
ATOM     25  O   UNL     1      50.623  41.087  41.965  0.00  0.00    +0.000 OA
ATOM     26  N   UNL     1      49.038  39.416  42.108  0.00  0.00    +0.000 N 
ATOM     27  C   UNL     1      48.785  38.081  42.059  0.00  0.00    +0.000 A 
ATOM     28  O   UNL     1      47.572  37.790  42.234  0.00  0.00    +0.000 OA
ATOM     29  H   UNL     1      48.290  40.124  42.274  0.00  0.00    +0.000 HD
ENDBRANCH   4  11
BRANCH   3  32
ATOM     30  C   UNL     1      44.755  36.240  44.092  0.00  0.00    +0.000 A 
ATOM     31  C   UNL     1      44.886  35.781  42.774  0.00  0.00    +0.000 A 
ATOM     32  C   UNL     1      45.169  34.474  42.456  0.00  0.00    +0.000 A 
ATOM     33  N   UNL     1      45.317  33.630  43.532  0.00  0.00    +0.000 NA
ATOM     34  C   UNL     1      45.194  34.061  44.797  0.00  0.00    +0.000 A 
ATOM     35  N   UNL     1      44.916  35.348  45.090  0.00  0.00    +0.000 NA
ATOM     36  H   UNL     1      44.532  37.283  44.267  0.00  0.00    +0.000 HD
ATOM     37  H   UNL     1      44.761  36.484  41.962  0.00  0.00    +0.000 HD
ATOM     38  H   UNL     1      45.333  33.300  45.568  0.00  0.00    +0.000 HD
ENDBRANCH   3  32
TORSDOF 2
