
 OpenBabel03242518393D

 40 43  0  0  1  0  0  0  0  0999 V2000
   48.7060   31.9330   41.4570 O   0  0  0  0  0  0  0  0  0  0  0  0
   48.3760   32.6570   40.2830 C   0  0  0  0  0  0  0  0  0  0  0  0
   48.3160   34.0310   40.0280 C   0  0  0  0  0  0  0  0  0  0  0  0
   47.9370   34.2210   38.7110 C   0  0  0  0  0  0  0  0  0  0  0  0
   47.7850   32.9600   38.2290 C   0  0  0  0  0  0  0  0  0  0  0  0
   48.0410   32.0480   39.1470 O   0  0  0  0  0  0  0  0  0  0  0  0
   48.5490   34.7360   40.8090 H   0  0  0  0  0  0  0  0  0  0  0  0
   47.8120   35.1890   38.2450 H   0  0  0  0  0  0  0  0  0  0  0  0
   47.3780   32.6310   36.8450 C   0  0  2  0  0  0  0  0  0  0  0  0
   47.7990   31.3770   36.2200 C   0  0  0  0  0  0  0  0  0  0  0  0
   48.5670   32.5930   35.8490 C   0  0  1  0  0  0  0  0  0  0  0  0
   46.4930   33.1950   36.5140 H   0  0  0  0  0  0  0  0  0  0  0  0
   48.2830   30.5620   36.8050 H   0  0  0  0  0  0  0  0  0  0  0  0
   47.0760   30.9700   35.4560 H   0  0  0  0  0  0  0  0  0  0  0  0
   49.5550   32.7990   36.2500 H   0  0  0  0  0  0  0  0  0  0  0  0
   48.9620   32.8050   33.4060 C   0  0  0  0  0  0  0  0  0  0  0  0
   49.9480   32.0120   33.4370 O   0  0  0  0  0  0  0  0  0  0  0  0
   48.2320   33.1910   34.5590 N   0  0  0  0  0  0  0  0  0  0  0  0
   48.7320   33.1620   32.4110 H   0  0  0  0  0  0  0  0  0  0  0  0
   47.4640   33.8890   34.4950 H   0  0  0  0  0  0  0  0  0  0  0  0
   48.9090   32.6600   42.6670 C   0  0  0  0  0  0  0  0  0  0  0  0
   50.0210   33.2070   42.8150 O   0  0  0  0  0  0  0  0  0  0  0  0
   47.8020   32.6740   43.5680 C   0  0  0  0  0  0  0  0  0  0  0  0
   47.1370   33.8690   43.6690 C   0  0  0  0  0  0  0  0  0  0  0  0
   46.0510   33.9630   44.5230 C   0  0  0  0  0  0  0  0  0  0  0  0
   45.6900   32.8630   45.2270 N   0  0  0  0  0  0  0  0  0  0  0  0
   46.3570   31.7090   45.1100 C   0  0  0  0  0  0  0  0  0  0  0  0
   47.4090   31.6450   44.2730 N   0  0  0  0  0  0  0  0  0  0  0  0
   47.3600   34.7870   43.1450 H   0  0  0  0  0  0  0  0  0  0  0  0
   45.4860   34.8820   44.6430 H   0  0  0  0  0  0  0  0  0  0  0  0
   45.9320   30.5840   45.8760 N   0  0  0  0  0  0  0  0  0  0  0  0
   44.8760   29.7860   45.6170 C   0  0  0  0  0  3  0  0  0  0  0  0
   44.5750   28.7250   46.4460 C   0  0  0  0  0  0  0  0  0  0  0  0
   43.7250   28.1200   46.1990 H   0  0  0  0  0  0  0  0  0  0  0  0
   45.4040   28.5370   47.5360 C   0  0  0  0  0  0  0  0  0  0  0  0
   45.1370   27.5620   48.3100 O   0  0  0  0  0  0  0  0  0  0  0  0
   46.4430   29.3220   47.7920 N   0  0  0  0  0  0  0  0  0  0  0  0
   46.7170   30.3630   46.9530 C   0  0  0  0  0  0  0  0  0  0  0  0
   47.7240   31.0460   47.2860 O   0  0  0  0  0  0  0  0  0  0  0  0
   47.0240   29.1070   48.6450 H   0  0  0  0  0  0  0  0  0  0  0  0
  1 21  1  0  0  0  0
  2  1  1  0  0  0  0
  3  2  2  0  0  0  0
  3  7  1  0  0  0  0
  4  3  1  0  0  0  0
  5  4  2  0  0  0  0
  5  6  1  0  0  0  0
  6  2  1  0  0  0  0
  8  4  1  0  0  0  0
  9 12  1  6  0  0  0
  9  5  1  0  0  0  0
 10 13  1  0  0  0  0
 10  9  1  0  0  0  0
 11 10  1  0  0  0  0
 11 15  1  1  0  0  0
 11  9  1  0  0  0  0
 14 10  1  0  0  0  0
 16 17  2  0  0  0  0
 16 18  1  0  0  0  0
 18 11  1  0  0  0  0
 19 16  1  0  0  0  0
 20 18  1  0  0  0  0
 21 22  2  0  0  0  0
 21 23  1  0  0  0  0
 23 24  2  0  0  0  0
 23 28  1  0  0  0  0
 24 25  1  0  0  0  0
 25 30  1  0  0  0  0
 25 26  2  0  0  0  0
 27 26  1  0  0  0  0
 27 31  1  0  0  0  0
 28 27  2  0  0  0  0
 29 24  1  0  0  0  0
 31 38  1  0  0  0  0
 32 31  1  0  0  0  0
 32 33  2  0  0  0  0
 33 35  1  0  0  0  0
 34 33  1  0  0  0  0
 35 37  1  0  0  0  0
 35 36  2  0  0  0  0
 37 40  1  0  0  0  0
 38 39  2  0  0  0  0
 38 37  1  0  0  0  0
M  END
>  <minimizedAffinity>
-5.1638732

>  <minimizedRMSD>
2.3664515

$$$$
