
 OpenBabel03252507463D

 38 40  0  0  0  0  0  0  0  0999 V2000
   47.6340   34.8230   41.1120 C   0  0  0  0  0  0  0  0  0  0  0  0
   47.9940   35.7930   40.7460 H   0  0  0  0  0  0  0  0  0  0  0  0
   46.9900   34.3840   40.3350 H   0  0  0  0  0  0  0  0  0  0  0  0
   48.7990   33.9700   41.4160 C   0  0  0  0  0  0  0  0  0  0  0  0
   48.7710   32.6810   40.9130 C   0  0  0  0  0  0  0  0  0  0  0  0
   49.8100   31.7920   41.1370 C   0  0  0  0  0  0  0  0  0  0  0  0
   50.8670   32.2640   41.8850 N   0  0  0  0  0  0  0  0  0  0  0  0
   50.8540   33.5240   42.3560 C   0  0  0  0  0  0  0  0  0  0  0  0
   49.8450   34.3570   42.1280 N   0  0  0  0  0  0  0  0  0  0  0  0
   49.8110   30.7920   40.7580 H   0  0  0  0  0  0  0  0  0  0  0  0
   51.6710   33.9290   42.9520 H   0  0  0  0  0  0  0  0  0  0  0  0
   47.3570   32.1050   39.9310 S   0  0  0  0  0  0  0  0  0  0  0  0
   47.8630   34.7680   35.8710 H   0  0  0  0  0  0  0  0  0  0  0  0
   47.9980   33.8290   36.3120 N   0  0  0  0  0  0  0  0  0  0  0  0
   47.6250   33.7280   37.5850 C   0  0  0  0  0  3  0  0  0  0  0  0
   47.7720   32.5280   38.2290 C   0  0  0  0  0  0  0  0  0  0  0  0
   48.3060   31.4370   37.5510 C   0  0  0  0  0  0  0  0  0  0  0  0
   48.4960   30.2700   38.0300 O   0  0  0  0  0  0  0  0  0  0  0  0
   48.6780   31.5710   36.2510 N   0  0  0  0  0  0  0  0  0  0  0  0
   48.5210   32.7700   35.6420 C   0  0  0  0  0  0  0  0  0  0  0  0
   48.8450   32.9560   34.4470 O   0  0  0  0  0  0  0  0  0  0  0  0
   49.0840   30.7710   35.7080 H   0  0  0  0  0  0  0  0  0  0  0  0
   46.7510   35.0620   42.3090 C   0  0  0  0  0  0  0  0  0  0  0  0
   47.0690   34.4060   43.1430 H   0  0  0  0  0  0  0  0  0  0  0  0
   46.9310   36.1110   42.6610 H   0  0  0  0  0  0  0  0  0  0  0  0
   45.3000   34.9910   42.0090 C   0  0  0  0  0  0  0  0  0  0  0  0
   44.3690   35.6440   42.8790 C   0  0  0  0  0  0  0  0  0  0  0  0
   42.7500   35.2770   42.1010 S   0  0  0  0  0  0  0  0  0  0  0  0
   43.6080   34.2950   40.7180 C   0  0  0  0  0  0  0  0  0  0  0  0
   44.7060   34.3940   41.0150 N   0  0  0  0  0  0  0  0  0  0  0  0
   44.5910   36.2100   43.7710 H   0  0  0  0  0  0  0  0  0  0  0  0
   42.9130   33.6800   39.6870 O   0  0  0  0  0  0  0  0  0  0  0  0
   40.9790   33.8320   37.8820 O   0  0  0  0  0  0  0  0  0  0  0  0
   41.9760   34.6790   38.6700 P   0  0  0  0  0  0  0  0  0  0  0  0
   41.1210   35.7550   39.6520 O   0  0  0  0  0  0  0  0  0  0  0  0
   40.6010   36.3710   39.0770 H   0  0  0  0  0  0  0  0  0  0  0  0
   42.9840   35.5450   37.6250 O   0  0  0  0  0  0  0  0  0  0  0  0
   43.1310   35.0620   36.7910 H   0  0  0  0  0  0  0  0  0  0  0  0
  1  4  1  0  0  0  0
  1 23  1  0  0  0  0
  2  1  1  0  0  0  0
  3  1  1  0  0  0  0
  4  9  1  0  0  0  0
  5  6  1  0  0  0  0
  5  4  2  0  0  0  0
  6  7  2  0  0  0  0
  7  8  1  0  0  0  0
  8 11  1  0  0  0  0
  9  8  2  0  0  0  0
 10  6  1  0  0  0  0
 12  5  1  0  0  0  0
 13 14  1  0  0  0  0
 14 15  1  0  0  0  0
 15 16  2  0  0  0  0
 16 12  1  0  0  0  0
 17 18  2  0  0  0  0
 17 16  1  0  0  0  0
 19 17  1  0  0  0  0
 20 19  1  0  0  0  0
 20 14  1  0  0  0  0
 21 20  2  0  0  0  0
 22 19  1  0  0  0  0
 23 25  1  0  0  0  0
 23 24  1  0  0  0  0
 26 23  1  0  0  0  0
 26 27  2  0  0  0  0
 27 31  1  0  0  0  0
 28 27  1  0  0  0  0
 29 30  2  0  0  0  0
 29 28  1  0  0  0  0
 30 26  1  0  0  0  0
 32 29  1  0  0  0  0
 33 34  2  0  0  0  0
 34 35  1  0  0  0  0
 34 32  1  0  0  0  0
 36 35  1  0  0  0  0
 37 34  1  0  0  0  0
 38 37  1  0  0  0  0
M  END
>  <minimizedAffinity>
-5.38968039

>  <minimizedRMSD>
0.642238617

$$$$
