REMARK  Name = 
REMARK  6 active torsions:
REMARK  status: ('A' for Active; 'I' for Inactive)
REMARK    1  A    between atoms: C_1  and  C_3
REMARK    2  A    between atoms: C_1  and  C_13
REMARK    3  A    between atoms: C_10  and  C_11
REMARK    4  A    between atoms: C_13  and  N_17
REMARK    5  A    between atoms: C_14  and  C_23
REMARK    6  A    between atoms: C_21  and  N_39
REMARK                            x       y       z     vdW  Elec       q    Type
REMARK                         _______ _______ _______ _____ _____    ______ ____
ROOT
ATOM      1  C   UNL     1      46.510  32.711  45.284  0.00  0.00    +0.000 A 
ATOM      2  C   UNL     1      47.250  31.720  44.628  0.00  0.00    +0.000 A 
ATOM      3  C   UNL     1      47.573  30.749  45.510  0.00  0.00    +0.000 A 
ATOM      4  N   UNL     1      47.047  31.127  46.676  0.00  0.00    +0.000 N 
ATOM      5  N   UNL     1      46.409  32.296  46.561  0.00  0.00    +0.000 NA
ATOM      6  H   UNL     1      47.516  31.749  43.562  0.00  0.00    +0.000 HD
ATOM      7  H   UNL     1      48.144  29.867  45.258  0.00  0.00    +0.000 HD
ENDROOT
BRANCH   1  12
ATOM      8  C   UNL     1      44.565  35.749  44.728  0.00  0.00    +0.000 A 
ATOM      9  C   UNL     1      44.994  36.183  43.480  0.00  0.00    +0.000 A 
ATOM     10  C   UNL     1      45.961  35.416  42.835  0.00  0.00    +0.000 A 
ATOM     11  N   UNL     1      46.416  34.301  43.466  0.00  0.00    +0.000 NA
ATOM     12  C   UNL     1      45.990  33.911  44.654  0.00  0.00    +0.000 A 
ATOM     13  N   UNL     1      45.053  34.647  45.290  0.00  0.00    +0.000 NA
ATOM     14  H   UNL     1      43.807  36.380  45.197  0.00  0.00    +0.000 HD
ATOM     15  H   UNL     1      44.669  37.053  42.938  0.00  0.00    +0.000 HD
BRANCH  10  16
ATOM     16  N   UNL     1      46.517  35.717  41.542  0.00  0.00    +0.000 N 
ATOM     17  C   UNL     1      47.081  36.897  41.230  0.00  0.00    +0.000 A 
ATOM     18  C   UNL     1      47.600  37.125  39.964  0.00  0.00    +0.000 A 
ATOM     19  H   UNL     1      48.052  38.075  39.719  0.00  0.00    +0.000 HD
ATOM     20  C   UNL     1      47.524  36.110  39.033  0.00  0.00    +0.000 A 
ATOM     21  O   UNL     1      47.974  36.245  37.865  0.00  0.00    +0.000 OA
ATOM     22  N   UNL     1      46.945  34.947  39.412  0.00  0.00    +0.000 N 
ATOM     23  C   UNL     1      46.433  34.719  40.656  0.00  0.00    +0.000 A 
ATOM     24  O   UNL     1      45.935  33.577  40.821  0.00  0.00    +0.000 OA
ATOM     25  H   UNL     1      46.909  34.197  38.665  0.00  0.00    +0.000 HD
ENDBRANCH  10  16
ENDBRANCH   1  12
BRANCH   4  26
ATOM     26  C   UNL     1      47.137  30.389  47.933  0.00  0.00    +0.000 C 
ATOM     27  H   UNL     1      47.653  30.997  48.711  0.00  0.00    +0.000 HD
ATOM     28  H   UNL     1      47.725  29.481  47.803  0.00  0.00    +0.000 HD
BRANCH  26  29
ATOM     29  C   UNL     1      45.791  30.049  48.441  0.00  0.00    +0.000 C 
ATOM     30  H   UNL     1      45.194  30.998  48.500  0.00  0.00    +0.000 HD
ATOM     31  H   UNL     1      45.898  29.738  49.508  0.00  0.00    +0.000 HD
BRANCH  29  33
ATOM     32  C   UNL     1      45.015  27.651  48.017  0.00  0.00    +0.000 A 
ATOM     33  C   UNL     1      45.062  28.999  47.758  0.00  0.00    +0.000 A 
ATOM     34  C   UNL     1      44.298  29.450  46.677  0.00  0.00    +0.000 A 
ATOM     35  C   UNL     1      43.538  28.585  45.910  0.00  0.00    +0.000 A 
ATOM     36  N   UNL     1      42.731  28.724  44.847  0.00  0.00    +0.000 N 
ATOM     37  C   UNL     1      42.216  27.558  44.465  0.00  0.00    +0.000 A 
ATOM     38  C   UNL     1      42.700  26.568  45.316  0.00  0.00    +0.000 A 
ATOM     39  C   UNL     1      43.508  27.247  46.188  0.00  0.00    +0.000 A 
ATOM     40  C   UNL     1      44.260  26.796  47.254  0.00  0.00    +0.000 A 
ATOM     41  H   UNL     1      45.618  27.341  48.860  0.00  0.00    +0.000 HD
ATOM     42  H   UNL     1      44.237  30.485  46.355  0.00  0.00    +0.000 HD
ATOM     43  H   UNL     1      42.516  29.632  44.359  0.00  0.00    +0.000 HD
ATOM     44  H   UNL     1      41.534  27.322  43.649  0.00  0.00    +0.000 HD
ATOM     45  H   UNL     1      42.471  25.511  45.274  0.00  0.00    +0.000 HD
BRANCH  40  46
ATOM     46  C   UNL     1      44.247  25.367  47.575  0.00  0.00    +0.000 C 
ATOM     47  O   UNL     1      44.931  24.924  48.546  0.00  0.00    +0.000 OA
ATOM     48  H   UNL     1      43.659  24.670  46.994  0.00  0.00    +0.000 HD
ENDBRANCH  40  46
ENDBRANCH  29  33
ENDBRANCH  26  29
ENDBRANCH   4  26
TORSDOF 6
