
 OpenBabel03242519413D

 30 31  0  0  0  0  0  0  0  0999 V2000
   48.1590   32.8650   42.2410 O   0  0  0  0  0  0  0  0  0  0  0  0
   47.2690   33.9050   41.5560 P   0  0  2  0  0  0  0  0  0  0  0  0
   45.6650   33.7510   42.1510 O   0  0  0  0  0  0  0  0  0  0  0  0
   44.3600   35.9660   44.6740 C   0  0  0  0  0  0  0  0  0  0  0  0
   44.7030   35.4510   43.4050 C   0  0  0  0  0  0  0  0  0  0  0  0
   45.3400   34.2120   43.3810 C   0  0  0  0  0  0  0  0  0  0  0  0
   45.5930   33.5710   44.5410 N   0  0  0  0  0  0  0  0  0  0  0  0
   45.2510   34.0930   45.7330 C   0  0  0  0  0  0  0  0  0  0  0  0
   44.6370   35.2870   45.8050 N   0  0  0  0  0  0  0  0  0  0  0  0
   43.8640   36.9260   44.7370 H   0  0  0  0  0  0  0  0  0  0  0  0
   44.4390   36.0680   42.5610 H   0  0  0  0  0  0  0  0  0  0  0  0
   45.5030   33.4940   46.5940 H   0  0  0  0  0  0  0  0  0  0  0  0
   47.1140   33.6630   39.9160 O   0  0  0  0  0  0  0  0  0  0  0  0
   46.0750   33.2000   39.2080 C   0  0  0  0  0  0  0  0  0  0  0  0
   46.4640   32.7450   37.9900 O   0  0  0  0  0  0  0  0  0  0  0  0
   41.9720   33.6320   37.2750 H   0  0  0  0  0  0  0  0  0  0  0  0
   42.5530   33.0670   37.9580 N   0  0  0  0  0  0  0  0  0  0  0  0
   43.8120   33.4720   38.1300 C   0  0  0  0  0  3  0  0  0  0  0  0
   44.6910   32.8700   38.9570 C   0  0  0  0  0  0  0  0  0  0  0  0
   44.0230   31.7760   39.5680 C   0  0  0  0  0  0  0  0  0  0  0  0
   44.7130   31.0640   40.4060 O   0  0  0  0  0  0  0  0  0  0  0  0
   42.7960   31.2730   39.4880 N   0  0  0  0  0  0  0  0  0  0  0  0
   42.1150   32.0120   38.6280 C   0  0  0  0  0  0  0  0  0  0  0  0
   40.9060   31.7290   38.3760 O   0  0  0  0  0  0  0  0  0  0  0  0
   42.4330   30.4520   40.0000 H   0  0  0  0  0  0  0  0  0  0  0  0
   47.7760   35.4200   41.9830 O   0  0  0  0  0  0  0  0  0  0  0  0
   49.0010   35.7090   41.4080 C   0  0  0  0  0  0  0  0  0  0  0  0
   49.4460   36.9800   41.7480 F   0  0  0  0  0  0  0  0  0  0  0  0
   49.9100   34.7450   41.7160 F   0  0  0  0  0  0  0  0  0  0  0  0
   48.8010   35.7150   40.0390 F   0  0  0  0  0  0  0  0  0  0  0  0
  2 26  1  0  0  0  0
  2  3  1  0  0  0  0
  2  1  2  1  0  0  0
  3  6  1  0  0  0  0
  4 10  1  0  0  0  0
  4  9  1  0  0  0  0
  5  4  2  0  0  0  0
  6  5  1  0  0  0  0
  6  7  2  0  0  0  0
  7  8  1  0  0  0  0
  8  9  2  0  0  0  0
  8 12  1  0  0  0  0
 11  5  1  0  0  0  0
 13  2  1  0  0  0  0
 14 13  1  0  0  0  0
 15 14  2  0  0  0  0
 16 17  1  0  0  0  0
 17 18  1  0  0  0  0
 17 23  1  0  0  0  0
 18 19  2  0  0  0  0
 19 14  1  0  0  0  0
 19 20  1  0  0  0  0
 20 21  2  0  0  0  0
 22 20  1  0  0  0  0
 22 25  1  0  0  0  0
 23 22  1  0  0  0  0
 24 23  2  0  0  0  0
 27 29  1  0  0  0  0
 27 28  1  0  0  0  0
 27 26  1  0  0  0  0
 30 27  1  0  0  0  0
M  END
>  <minimizedAffinity>
-5.28747129

>  <minimizedRMSD>
1.92955112

$$$$
