
 OpenBabel03242522213D

 46 49  0  0  0  0  0  0  0  0999 V2000
   36.9470   31.5010   39.1290 C   0  0  0  0  0  0  0  0  0  0  0  0
   36.0240   31.6060   38.5100 H   0  0  0  0  0  0  0  0  0  0  0  0
   36.8860   32.3260   39.8780 H   0  0  0  0  0  0  0  0  0  0  0  0
   36.9370   30.2210   39.7920 C   0  0  0  0  0  0  0  0  0  0  0  0
   36.3860   29.0250   39.3830 C   0  0  0  0  0  0  0  0  0  0  0  0
   36.4080   27.8290   40.0680 C   0  0  0  0  0  0  0  0  0  0  0  0
   37.0530   27.8740   41.2770 C   0  0  0  0  0  0  0  0  0  0  0  0
   37.6080   29.0630   41.6980 C   0  0  0  0  0  0  0  0  0  0  0  0
   37.5620   30.1990   40.9990 N   0  0  0  0  0  0  0  0  0  0  0  0
   35.8910   29.0740   38.4100 H   0  0  0  0  0  0  0  0  0  0  0  0
   35.9500   26.9430   39.6680 H   0  0  0  0  0  0  0  0  0  0  0  0
   38.2800   28.9900   43.0230 C   0  0  0  0  0  0  0  0  0  0  0  0
   39.3660   28.1020   42.9500 F   0  0  0  0  0  0  0  0  0  0  0  0
   37.4270   28.7200   44.0550 F   0  0  0  0  0  0  0  0  0  0  0  0
   38.8600   30.2220   43.3090 F   0  0  0  0  0  0  0  0  0  0  0  0
   37.1250   26.3610   42.2470 S   0  0  0  0  0  0  0  0  0  0  0  0
   36.2250   22.2930   39.7010 H   0  0  0  0  0  0  0  0  0  0  0  0
   36.9590   22.9760   40.0190 N   0  0  0  0  0  0  0  0  0  0  0  0
   36.5230   23.9940   40.7800 C   0  0  0  0  0  3  0  0  0  0  0  0
   37.4200   24.9340   41.2400 C   0  0  0  0  0  0  0  0  0  0  0  0
   38.7600   24.7750   40.8850 C   0  0  0  0  0  0  0  0  0  0  0  0
   39.7080   25.5580   41.2320 O   0  0  0  0  0  0  0  0  0  0  0  0
   39.1620   23.7390   40.1200 N   0  0  0  0  0  0  0  0  0  0  0  0
   38.2530   22.8480   39.6950 C   0  0  0  0  0  0  0  0  0  0  0  0
   38.6490   21.8870   38.9800 O   0  0  0  0  0  0  0  0  0  0  0  0
   40.1690   23.5960   39.8380 H   0  0  0  0  0  0  0  0  0  0  0  0
   38.1250   31.7780   38.2480 C   0  0  0  0  0  0  0  0  0  0  0  0
   37.7760   32.2670   37.3110 H   0  0  0  0  0  0  0  0  0  0  0  0
   38.6450   30.8550   37.9690 H   0  0  0  0  0  0  0  0  0  0  0  0
   40.9350   33.8460   39.5080 C   0  0  0  0  0  0  0  0  0  0  0  0
   40.2380   34.6920   40.3040 C   0  0  0  0  0  0  0  0  0  0  0  0
   38.5170   34.0830   40.0700 S   0  0  0  0  0  0  0  0  0  0  0  0
   39.0570   32.7500   38.8990 C   0  0  0  0  0  0  0  0  0  0  0  0
   40.1780   32.9760   38.9140 N   0  0  0  0  0  0  0  0  0  0  0  0
   40.5680   35.5070   40.9190 H   0  0  0  0  0  0  0  0  0  0  0  0
   44.3920   34.0100   38.0190 C   0  0  0  0  0  0  0  0  0  0  0  0
   42.9920   33.9610   38.1040 C   0  0  0  0  0  0  0  0  0  0  0  0
   42.3940   33.9000   39.3290 C   0  0  0  0  0  0  0  0  0  0  0  0
   43.2410   33.8910   40.4420 N   0  0  0  0  0  0  0  0  0  0  0  0
   44.5770   33.9390   40.3000 C   0  0  0  0  0  0  0  0  0  0  0  0
   45.1550   33.9990   39.0940 N   0  0  0  0  0  0  0  0  0  0  0  0
   44.9060   34.0590   37.0660 H   0  0  0  0  0  0  0  0  0  0  0  0
   45.1510   33.9270   41.2200 H   0  0  0  0  0  0  0  0  0  0  0  0
   42.2670   33.9790   36.8790 N   0  0  0  0  0  0  0  0  0  0  0  0
   42.1010   34.9330   36.5210 H   0  0  0  0  0  0  0  0  0  0  0  0
   41.9170   33.1350   36.3600 H   0  0  0  0  0  0  0  0  0  0  0  0
  1  4  1  0  0  0  0
  1  3  1  0  0  0  0
  2  1  1  0  0  0  0
  4  9  1  0  0  0  0
  5  4  2  0  0  0  0
  5  6  1  0  0  0  0
  6  7  2  0  0  0  0
  7  8  1  0  0  0  0
  7 16  1  0  0  0  0
  8 12  1  0  0  0  0
  9  8  2  0  0  0  0
 10  5  1  0  0  0  0
 11  6  1  0  0  0  0
 12 15  1  0  0  0  0
 12 14  1  0  0  0  0
 13 12  1  0  0  0  0
 17 18  1  0  0  0  0
 18 19  1  0  0  0  0
 19 20  2  0  0  0  0
 20 16  1  0  0  0  0
 21 22  2  0  0  0  0
 21 20  1  0  0  0  0
 23 21  1  0  0  0  0
 24 18  1  0  0  0  0
 24 23  1  0  0  0  0
 25 24  2  0  0  0  0
 26 23  1  0  0  0  0
 27 33  1  0  0  0  0
 27  1  1  0  0  0  0
 28 27  1  0  0  0  0
 29 27  1  0  0  0  0
 30 31  2  0  0  0  0
 31 35  1  0  0  0  0
 32 31  1  0  0  0  0
 33 34  2  0  0  0  0
 33 32  1  0  0  0  0
 34 30  1  0  0  0  0
 36 37  2  0  0  0  0
 36 41  1  0  0  0  0
 37 38  1  0  0  0  0
 38 30  1  0  0  0  0
 38 39  2  0  0  0  0
 40 39  1  0  0  0  0
 40 43  1  0  0  0  0
 41 40  2  0  0  0  0
 42 36  1  0  0  0  0
 44 37  1  0  0  0  0
 45 44  1  0  0  0  0
 46 44  1  0  0  0  0
M  END
>  <minimizedAffinity>
-6.81146383

$$$$

 OpenBabel03242522213D

 46 49  0  0  0  0  0  0  0  0999 V2000
   36.6210   30.5940   39.4250 C   0  0  0  0  0  0  0  0  0  0  0  0
   35.8330   30.0200   38.8800 H   0  0  0  0  0  0  0  0  0  0  0  0
   36.0910   31.4820   39.8460 H   0  0  0  0  0  0  0  0  0  0  0  0
   37.1590   29.7820   40.4860 C   0  0  0  0  0  0  0  0  0  0  0  0
   37.7690   30.1640   41.6630 C   0  0  0  0  0  0  0  0  0  0  0  0
   38.2670   29.3330   42.6430 C   0  0  0  0  0  0  0  0  0  0  0  0
   38.1240   27.9940   42.3840 C   0  0  0  0  0  0  0  0  0  0  0  0
   37.5170   27.5980   41.2120 C   0  0  0  0  0  0  0  0  0  0  0  0
   37.0480   28.4420   40.2900 N   0  0  0  0  0  0  0  0  0  0  0  0
   37.8430   31.2460   41.7910 H   0  0  0  0  0  0  0  0  0  0  0  0
   38.7280   29.7240   43.5310 H   0  0  0  0  0  0  0  0  0  0  0  0
   37.4180   26.1230   41.0410 C   0  0  0  0  0  0  0  0  0  0  0  0
   36.7900   25.5620   42.1660 F   0  0  0  0  0  0  0  0  0  0  0  0
   38.6070   25.5280   40.7310 F   0  0  0  0  0  0  0  0  0  0  0  0
   36.5550   25.8420   39.9870 F   0  0  0  0  0  0  0  0  0  0  0  0
   38.7530   26.8310   43.6030 S   0  0  0  0  0  0  0  0  0  0  0  0
   43.5290   27.8260   43.4040 H   0  0  0  0  0  0  0  0  0  0  0  0
   42.7940   27.0760   43.3500 N   0  0  0  0  0  0  0  0  0  0  0  0
   41.5240   27.4890   43.4990 C   0  0  0  0  0  3  0  0  0  0  0  0
   40.4980   26.5700   43.4420 C   0  0  0  0  0  0  0  0  0  0  0  0
   40.8390   25.2340   43.2280 C   0  0  0  0  0  0  0  0  0  0  0  0
   40.0060   24.2680   43.1500 O   0  0  0  0  0  0  0  0  0  0  0  0
   42.1260   24.8550   43.0830 N   0  0  0  0  0  0  0  0  0  0  0  0
   43.0920   25.7860   43.1460 C   0  0  0  0  0  0  0  0  0  0  0  0
   44.2890   25.4120   43.0070 O   0  0  0  0  0  0  0  0  0  0  0  0
   42.4100   23.8530   42.9200 H   0  0  0  0  0  0  0  0  0  0  0  0
   37.6050   31.0950   38.4140 C   0  0  0  0  0  0  0  0  0  0  0  0
   37.0540   31.5050   37.5370 H   0  0  0  0  0  0  0  0  0  0  0  0
   38.2550   30.2910   38.0530 H   0  0  0  0  0  0  0  0  0  0  0  0
   40.1370   33.5640   39.5320 C   0  0  0  0  0  0  0  0  0  0  0  0
   39.3140   34.4590   40.1280 C   0  0  0  0  0  0  0  0  0  0  0  0
   37.6690   33.6770   39.8670 S   0  0  0  0  0  0  0  0  0  0  0  0
   38.4040   32.2310   38.9680 C   0  0  0  0  0  0  0  0  0  0  0  0
   39.5000   32.5520   39.0290 N   0  0  0  0  0  0  0  0  0  0  0  0
   39.5290   35.3850   40.6270 H   0  0  0  0  0  0  0  0  0  0  0  0
   43.6970   33.7280   38.3070 C   0  0  0  0  0  0  0  0  0  0  0  0
   42.3030   33.5690   38.2950 C   0  0  0  0  0  0  0  0  0  0  0  0
   41.5990   33.7140   39.4560 C   0  0  0  0  0  0  0  0  0  0  0  0
   42.3370   34.0190   40.6040 N   0  0  0  0  0  0  0  0  0  0  0  0
   43.6720   34.1600   40.5560 C   0  0  0  0  0  0  0  0  0  0  0  0
   44.3550   34.0170   39.4130 N   0  0  0  0  0  0  0  0  0  0  0  0
   44.2930   33.6220   37.4070 H   0  0  0  0  0  0  0  0  0  0  0  0
   44.1580   34.3960   41.4970 H   0  0  0  0  0  0  0  0  0  0  0  0
   41.6950   33.2600   37.0450 N   0  0  0  0  0  0  0  0  0  0  0  0
   41.4940   34.0970   36.4750 H   0  0  0  0  0  0  0  0  0  0  0  0
   41.4600   32.2970   36.6990 H   0  0  0  0  0  0  0  0  0  0  0  0
  1  3  1  0  0  0  0
  1  4  1  0  0  0  0
  2  1  1  0  0  0  0
  4  5  1  0  0  0  0
  5 10  1  0  0  0  0
  5  6  2  0  0  0  0
  6 11  1  0  0  0  0
  7  6  1  0  0  0  0
  7 16  1  0  0  0  0
  8  7  2  0  0  0  0
  9  4  2  0  0  0  0
  9  8  1  0  0  0  0
 12  8  1  0  0  0  0
 12 13  1  0  0  0  0
 14 12  1  0  0  0  0
 15 12  1  0  0  0  0
 18 17  1  0  0  0  0
 18 19  1  0  0  0  0
 20 19  2  0  0  0  0
 20 16  1  0  0  0  0
 21 20  1  0  0  0  0
 22 21  2  0  0  0  0
 23 24  1  0  0  0  0
 23 21  1  0  0  0  0
 24 18  1  0  0  0  0
 25 24  2  0  0  0  0
 26 23  1  0  0  0  0
 27 33  1  0  0  0  0
 27  1  1  0  0  0  0
 28 27  1  0  0  0  0
 29 27  1  0  0  0  0
 30 31  2  0  0  0  0
 31 35  1  0  0  0  0
 32 31  1  0  0  0  0
 33 34  2  0  0  0  0
 33 32  1  0  0  0  0
 34 30  1  0  0  0  0
 36 41  1  0  0  0  0
 37 36  2  0  0  0  0
 37 38  1  0  0  0  0
 38 30  1  0  0  0  0
 38 39  2  0  0  0  0
 40 39  1  0  0  0  0
 40 43  1  0  0  0  0
 41 40  2  0  0  0  0
 42 36  1  0  0  0  0
 44 37  1  0  0  0  0
 45 44  1  0  0  0  0
 46 44  1  0  0  0  0
M  END
>  <minimizedAffinity>
-6.66415071

$$$$

 OpenBabel03242522213D

 46 49  0  0  0  0  0  0  0  0999 V2000
   37.6940   28.7610   43.6600 C   0  0  0  0  0  0  0  0  0  0  0  0
   38.4800   28.5570   44.4270 H   0  0  0  0  0  0  0  0  0  0  0  0
   36.8710   29.2660   44.2190 H   0  0  0  0  0  0  0  0  0  0  0  0
   38.2270   29.6390   42.6500 C   0  0  0  0  0  0  0  0  0  0  0  0
   39.4700   30.2310   42.5670 C   0  0  0  0  0  0  0  0  0  0  0  0
   39.9210   31.0690   41.5690 C   0  0  0  0  0  0  0  0  0  0  0  0
   39.0100   31.3150   40.5740 C   0  0  0  0  0  0  0  0  0  0  0  0
   37.7640   30.7300   40.6440 C   0  0  0  0  0  0  0  0  0  0  0  0
   37.3710   29.9230   41.6320 N   0  0  0  0  0  0  0  0  0  0  0  0
   40.1340   29.9850   43.3980 H   0  0  0  0  0  0  0  0  0  0  0  0
   40.9110   31.4860   41.5890 H   0  0  0  0  0  0  0  0  0  0  0  0
   36.8630   31.0690   39.5100 C   0  0  0  0  0  0  0  0  0  0  0  0
   37.3440   30.4700   38.3340 F   0  0  0  0  0  0  0  0  0  0  0  0
   36.6280   32.4080   39.3800 F   0  0  0  0  0  0  0  0  0  0  0  0
   35.6230   30.4750   39.7190 F   0  0  0  0  0  0  0  0  0  0  0  0
   39.5060   32.4040   39.2320 S   0  0  0  0  0  0  0  0  0  0  0  0
   41.6070   28.8910   36.5700 H   0  0  0  0  0  0  0  0  0  0  0  0
   41.6270   29.9080   36.8400 N   0  0  0  0  0  0  0  0  0  0  0  0
   40.6790   30.3020   37.7070 C   0  0  0  0  0  3  0  0  0  0  0  0
   40.6330   31.6190   38.1140 C   0  0  0  0  0  0  0  0  0  0  0  0
   41.5920   32.4890   37.5930 C   0  0  0  0  0  0  0  0  0  0  0  0
   41.6810   33.7320   37.8720 O   0  0  0  0  0  0  0  0  0  0  0  0
   42.5300   32.0570   36.7250 N   0  0  0  0  0  0  0  0  0  0  0  0
   42.5360   30.7660   36.3580 C   0  0  0  0  0  0  0  0  0  0  0  0
   43.4210   30.3810   35.5440 O   0  0  0  0  0  0  0  0  0  0  0  0
   43.2660   32.6930   36.3180 H   0  0  0  0  0  0  0  0  0  0  0  0
   37.1700   27.4440   43.1800 C   0  0  0  0  0  0  0  0  0  0  0  0
   36.5480   27.6040   42.2710 H   0  0  0  0  0  0  0  0  0  0  0  0
   36.5390   26.9620   43.9360 H   0  0  0  0  0  0  0  0  0  0  0  0
   39.5580   25.1040   41.5730 C   0  0  0  0  0  0  0  0  0  0  0  0
   40.5320   25.1130   42.5150 C   0  0  0  0  0  0  0  0  0  0  0  0
   39.8280   26.2680   43.7620 S   0  0  0  0  0  0  0  0  0  0  0  0
   38.2920   26.5470   42.7610 C   0  0  0  0  0  0  0  0  0  0  0  0
   38.5550   25.8660   41.8810 N   0  0  0  0  0  0  0  0  0  0  0  0
   41.4730   24.5970   42.5550 H   0  0  0  0  0  0  0  0  0  0  0  0
   38.9620   22.5310   38.8860 C   0  0  0  0  0  0  0  0  0  0  0  0
   38.8380   23.2260   40.0990 C   0  0  0  0  0  0  0  0  0  0  0  0
   39.6230   24.3190   40.3300 C   0  0  0  0  0  0  0  0  0  0  0  0
   40.5170   24.6770   39.3160 N   0  0  0  0  0  0  0  0  0  0  0  0
   40.5920   23.9730   38.1740 C   0  0  0  0  0  0  0  0  0  0  0  0
   39.8180   22.9030   37.9550 N   0  0  0  0  0  0  0  0  0  0  0  0
   38.3570   21.6590   38.6620 H   0  0  0  0  0  0  0  0  0  0  0  0
   41.3150   24.3260   37.4470 H   0  0  0  0  0  0  0  0  0  0  0  0
   37.8810   22.7380   41.0330 N   0  0  0  0  0  0  0  0  0  0  0  0
   36.9280   23.0950   40.8590 H   0  0  0  0  0  0  0  0  0  0  0  0
   38.0790   22.0830   41.8290 H   0  0  0  0  0  0  0  0  0  0  0  0
  1  3  1  0  0  0  0
  1  2  1  0  0  0  0
  4  1  1  0  0  0  0
  5  4  1  0  0  0  0
  5 10  1  0  0  0  0
  6 11  1  0  0  0  0
  6  5  2  0  0  0  0
  7  8  2  0  0  0  0
  7  6  1  0  0  0  0
  8  9  1  0  0  0  0
  9  4  2  0  0  0  0
 12 15  1  0  0  0  0
 12  8  1  0  0  0  0
 13 12  1  0  0  0  0
 14 12  1  0  0  0  0
 16  7  1  0  0  0  0
 17 18  1  0  0  0  0
 18 19  1  0  0  0  0
 19 20  2  0  0  0  0
 20 16  1  0  0  0  0
 21 22  2  0  0  0  0
 21 20  1  0  0  0  0
 23 21  1  0  0  0  0
 24 23  1  0  0  0  0
 24 18  1  0  0  0  0
 25 24  2  0  0  0  0
 26 23  1  0  0  0  0
 27  1  1  0  0  0  0
 27 29  1  0  0  0  0
 28 27  1  0  0  0  0
 30 34  1  0  0  0  0
 30 31  2  0  0  0  0
 31 35  1  0  0  0  0
 31 32  1  0  0  0  0
 33 27  1  0  0  0  0
 33 32  1  0  0  0  0
 34 33  2  0  0  0  0
 36 37  1  0  0  0  0
 37 38  2  0  0  0  0
 37 44  1  0  0  0  0
 38 30  1  0  0  0  0
 39 38  1  0  0  0  0
 40 39  2  0  0  0  0
 41 40  1  0  0  0  0
 41 36  2  0  0  0  0
 42 36  1  0  0  0  0
 43 40  1  0  0  0  0
 44 46  1  0  0  0  0
 45 44  1  0  0  0  0
M  END
>  <minimizedAffinity>
-6.44710445

$$$$

 OpenBabel03242522213D

 46 49  0  0  0  0  0  0  0  0999 V2000
   36.9710   30.9990   39.4710 C   0  0  0  0  0  0  0  0  0  0  0  0
   37.2710   31.4030   38.4740 H   0  0  0  0  0  0  0  0  0  0  0  0
   35.8590   30.9130   39.4240 H   0  0  0  0  0  0  0  0  0  0  0  0
   37.5670   29.7010   39.6610 C   0  0  0  0  0  0  0  0  0  0  0  0
   38.4670   29.0220   38.8650 C   0  0  0  0  0  0  0  0  0  0  0  0
   39.0010   27.7740   39.1030 C   0  0  0  0  0  0  0  0  0  0  0  0
   38.5680   27.1770   40.2590 C   0  0  0  0  0  0  0  0  0  0  0  0
   37.6700   27.8440   41.0630 C   0  0  0  0  0  0  0  0  0  0  0  0
   37.1790   29.0550   40.7920 N   0  0  0  0  0  0  0  0  0  0  0  0
   38.7590   29.5660   37.9650 H   0  0  0  0  0  0  0  0  0  0  0  0
   39.6990   27.3220   38.4220 H   0  0  0  0  0  0  0  0  0  0  0  0
   37.2740   27.0990   42.2890 C   0  0  0  0  0  0  0  0  0  0  0  0
   38.3310   27.1230   43.2140 F   0  0  0  0  0  0  0  0  0  0  0  0
   36.8030   25.8420   42.0360 F   0  0  0  0  0  0  0  0  0  0  0  0
   36.2420   27.7810   42.9250 F   0  0  0  0  0  0  0  0  0  0  0  0
   39.2060   25.5410   40.6480 S   0  0  0  0  0  0  0  0  0  0  0  0
   43.9290   26.6650   41.1680 H   0  0  0  0  0  0  0  0  0  0  0  0
   43.1030   26.1610   41.5830 N   0  0  0  0  0  0  0  0  0  0  0  0
   41.9590   26.2380   40.8830 C   0  0  0  0  0  3  0  0  0  0  0  0
   40.8280   25.6050   41.3560 C   0  0  0  0  0  0  0  0  0  0  0  0
   40.9350   24.9050   42.5580 C   0  0  0  0  0  0  0  0  0  0  0  0
   39.9820   24.2700   43.1240 O   0  0  0  0  0  0  0  0  0  0  0  0
   42.1020   24.8500   43.2340 N   0  0  0  0  0  0  0  0  0  0  0  0
   43.1770   25.4810   42.7350 C   0  0  0  0  0  0  0  0  0  0  0  0
   44.2590   25.4180   43.3810 O   0  0  0  0  0  0  0  0  0  0  0  0
   42.2090   24.3280   44.1430 H   0  0  0  0  0  0  0  0  0  0  0  0
   37.2990   32.0330   40.5020 C   0  0  0  0  0  0  0  0  0  0  0  0
   37.5500   31.5280   41.4630 H   0  0  0  0  0  0  0  0  0  0  0  0
   36.4490   32.7000   40.6870 H   0  0  0  0  0  0  0  0  0  0  0  0
   40.5290   33.3470   39.2360 C   0  0  0  0  0  0  0  0  0  0  0  0
   40.4300   34.6220   39.6810 C   0  0  0  0  0  0  0  0  0  0  0  0
   38.7920   34.5930   40.5210 S   0  0  0  0  0  0  0  0  0  0  0  0
   38.5190   32.8060   40.1100 C   0  0  0  0  0  0  0  0  0  0  0  0
   39.4980   32.6240   39.5470 N   0  0  0  0  0  0  0  0  0  0  0  0
   41.1050   35.4510   39.5880 H   0  0  0  0  0  0  0  0  0  0  0  0
   42.6960   31.5280   36.7480 C   0  0  0  0  0  0  0  0  0  0  0  0
   41.5480   31.9800   37.4170 C   0  0  0  0  0  0  0  0  0  0  0  0
   41.6780   32.8270   38.4790 C   0  0  0  0  0  0  0  0  0  0  0  0
   42.9800   33.1930   38.8350 N   0  0  0  0  0  0  0  0  0  0  0  0
   44.0430   32.7290   38.1570 C   0  0  0  0  0  0  0  0  0  0  0  0
   43.9070   31.8990   37.1150 N   0  0  0  0  0  0  0  0  0  0  0  0
   42.6360   30.8560   35.8990 H   0  0  0  0  0  0  0  0  0  0  0  0
   45.0130   33.0680   38.5060 H   0  0  0  0  0  0  0  0  0  0  0  0
   40.2910   31.5160   36.9340 N   0  0  0  0  0  0  0  0  0  0  0  0
   39.9240   32.0830   36.1530 H   0  0  0  0  0  0  0  0  0  0  0  0
   39.7590   30.6910   37.3040 H   0  0  0  0  0  0  0  0  0  0  0  0
  1  4  1  0  0  0  0
  1 27  1  0  0  0  0
  2  1  1  0  0  0  0
  3  1  1  0  0  0  0
  4  9  1  0  0  0  0
  5  6  1  0  0  0  0
  5  4  2  0  0  0  0
  6  7  2  0  0  0  0
  7 16  1  0  0  0  0
  7  8  1  0  0  0  0
  8 12  1  0  0  0  0
  9  8  2  0  0  0  0
 10  5  1  0  0  0  0
 11  6  1  0  0  0  0
 12 15  1  0  0  0  0
 12 13  1  0  0  0  0
 14 12  1  0  0  0  0
 16 20  1  0  0  0  0
 17 18  1  0  0  0  0
 18 24  1  0  0  0  0
 19 20  2  0  0  0  0
 19 18  1  0  0  0  0
 20 21  1  0  0  0  0
 21 22  2  0  0  0  0
 21 23  1  0  0  0  0
 23 26  1  0  0  0  0
 24 23  1  0  0  0  0
 24 25  2  0  0  0  0
 27 29  1  0  0  0  0
 27 28  1  0  0  0  0
 30 34  1  0  0  0  0
 30 31  2  0  0  0  0
 31 32  1  0  0  0  0
 33 27  1  0  0  0  0
 33 32  1  0  0  0  0
 34 33  2  0  0  0  0
 35 31  1  0  0  0  0
 36 41  2  0  0  0  0
 36 37  1  0  0  0  0
 37 38  2  0  0  0  0
 38 39  1  0  0  0  0
 38 30  1  0  0  0  0
 40 43  1  0  0  0  0
 40 39  2  0  0  0  0
 41 40  1  0  0  0  0
 42 36  1  0  0  0  0
 44 46  1  0  0  0  0
 44 37  1  0  0  0  0
 45 44  1  0  0  0  0
M  END
>  <minimizedAffinity>
-6.4012661

$$$$

 OpenBabel03242522213D

 46 49  0  0  0  0  0  0  0  0999 V2000
   36.7910   30.8900   39.6330 C   0  0  0  0  0  0  0  0  0  0  0  0
   37.3860   31.0390   38.6990 H   0  0  0  0  0  0  0  0  0  0  0  0
   35.7440   31.1570   39.3530 H   0  0  0  0  0  0  0  0  0  0  0  0
   36.8670   29.5080   40.0320 C   0  0  0  0  0  0  0  0  0  0  0  0
   36.8360   28.3660   39.2580 C   0  0  0  0  0  0  0  0  0  0  0  0
   36.9100   27.0640   39.7030 C   0  0  0  0  0  0  0  0  0  0  0  0
   37.0250   26.9300   41.0630 C   0  0  0  0  0  0  0  0  0  0  0  0
   37.0570   28.0620   41.8490 C   0  0  0  0  0  0  0  0  0  0  0  0
   36.9820   29.3060   41.3710 N   0  0  0  0  0  0  0  0  0  0  0  0
   36.7430   28.5600   38.1870 H   0  0  0  0  0  0  0  0  0  0  0  0
   36.8780   26.2340   39.0220 H   0  0  0  0  0  0  0  0  0  0  0  0
   37.1840   27.7930   43.3060 C   0  0  0  0  0  0  0  0  0  0  0  0
   38.3790   27.0960   43.5520 F   0  0  0  0  0  0  0  0  0  0  0  0
   36.0840   27.1920   43.8490 F   0  0  0  0  0  0  0  0  0  0  0  0
   37.3420   28.9990   43.9810 F   0  0  0  0  0  0  0  0  0  0  0  0
   37.1200   25.2660   41.7380 S   0  0  0  0  0  0  0  0  0  0  0  0
   40.1970   22.6920   38.9540 H   0  0  0  0  0  0  0  0  0  0  0  0
   39.1910   22.8630   39.2110 N   0  0  0  0  0  0  0  0  0  0  0  0
   38.9770   23.8030   40.1460 C   0  0  0  0  0  3  0  0  0  0  0  0
   37.6870   24.0900   40.5410 C   0  0  0  0  0  0  0  0  0  0  0  0
   36.6530   23.3730   39.9380 C   0  0  0  0  0  0  0  0  0  0  0  0
   35.4110   23.5220   40.1950 O   0  0  0  0  0  0  0  0  0  0  0  0
   36.9060   22.4350   39.0020 N   0  0  0  0  0  0  0  0  0  0  0  0
   38.1780   22.1910   38.6480 C   0  0  0  0  0  0  0  0  0  0  0  0
   38.3940   21.3090   37.7710 O   0  0  0  0  0  0  0  0  0  0  0  0
   36.1430   21.8800   38.5300 H   0  0  0  0  0  0  0  0  0  0  0  0
   37.2590   31.8940   40.6390 C   0  0  0  0  0  0  0  0  0  0  0  0
   37.5530   31.3670   41.5750 H   0  0  0  0  0  0  0  0  0  0  0  0
   36.4660   32.6080   40.8930 H   0  0  0  0  0  0  0  0  0  0  0  0
   40.4640   33.0210   39.1510 C   0  0  0  0  0  0  0  0  0  0  0  0
   40.4540   34.3090   39.5700 C   0  0  0  0  0  0  0  0  0  0  0  0
   38.8710   34.3770   40.5070 S   0  0  0  0  0  0  0  0  0  0  0  0
   38.4870   32.5970   40.1560 C   0  0  0  0  0  0  0  0  0  0  0  0
   39.4200   32.3560   39.5400 N   0  0  0  0  0  0  0  0  0  0  0  0
   41.1610   35.1010   39.4170 H   0  0  0  0  0  0  0  0  0  0  0  0
   42.3990   30.9490   36.6680 C   0  0  0  0  0  0  0  0  0  0  0  0
   41.3180   31.4630   37.4010 C   0  0  0  0  0  0  0  0  0  0  0  0
   41.5390   32.4290   38.3390 C   0  0  0  0  0  0  0  0  0  0  0  0
   42.8620   32.8490   38.5080 N   0  0  0  0  0  0  0  0  0  0  0  0
   43.8580   32.3210   37.7770 C   0  0  0  0  0  0  0  0  0  0  0  0
   43.6320   31.3740   36.8580 N   0  0  0  0  0  0  0  0  0  0  0  0
   42.2660   30.1810   35.9140 H   0  0  0  0  0  0  0  0  0  0  0  0
   44.8510   32.7100   37.9780 H   0  0  0  0  0  0  0  0  0  0  0  0
   40.0280   30.9320   37.1130 N   0  0  0  0  0  0  0  0  0  0  0  0
   39.5670   31.3990   36.3170 H   0  0  0  0  0  0  0  0  0  0  0  0
   39.5570   30.1490   37.6310 H   0  0  0  0  0  0  0  0  0  0  0  0
  1  4  1  0  0  0  0
  1 27  1  0  0  0  0
  2  1  1  0  0  0  0
  3  1  1  0  0  0  0
  4  9  1  0  0  0  0
  5  6  1  0  0  0  0
  5  4  2  0  0  0  0
  6  7  2  0  0  0  0
  7 16  1  0  0  0  0
  7  8  1  0  0  0  0
  8 12  1  0  0  0  0
  9  8  2  0  0  0  0
 10  5  1  0  0  0  0
 11  6  1  0  0  0  0
 12 13  1  0  0  0  0
 12 14  1  0  0  0  0
 12 15  1  0  0  0  0
 17 18  1  0  0  0  0
 18 19  1  0  0  0  0
 19 20  2  0  0  0  0
 20 16  1  0  0  0  0
 21 22  2  0  0  0  0
 21 20  1  0  0  0  0
 23 21  1  0  0  0  0
 24 23  1  0  0  0  0
 24 18  1  0  0  0  0
 25 24  2  0  0  0  0
 26 23  1  0  0  0  0
 27 29  1  0  0  0  0
 27 28  1  0  0  0  0
 30 34  1  0  0  0  0
 30 31  2  0  0  0  0
 31 32  1  0  0  0  0
 33 32  1  0  0  0  0
 33 27  1  0  0  0  0
 34 33  2  0  0  0  0
 35 31  1  0  0  0  0
 36 41  2  0  0  0  0
 36 37  1  0  0  0  0
 37 38  2  0  0  0  0
 38 39  1  0  0  0  0
 38 30  1  0  0  0  0
 40 43  1  0  0  0  0
 40 39  2  0  0  0  0
 41 40  1  0  0  0  0
 42 36  1  0  0  0  0
 44 37  1  0  0  0  0
 44 46  1  0  0  0  0
 45 44  1  0  0  0  0
M  END
>  <minimizedAffinity>
-6.39201498

$$$$

 OpenBabel03242522213D

 46 49  0  0  0  0  0  0  0  0999 V2000
   36.9560   24.9960   40.3660 C   0  0  0  0  0  0  0  0  0  0  0  0
   36.0280   24.4630   40.0460 H   0  0  0  0  0  0  0  0  0  0  0  0
   37.7950   24.3660   39.9870 H   0  0  0  0  0  0  0  0  0  0  0  0
   36.9940   26.3010   39.7560 C   0  0  0  0  0  0  0  0  0  0  0  0
   36.1970   27.4020   39.9880 C   0  0  0  0  0  0  0  0  0  0  0  0
   36.2830   28.6290   39.3650 C   0  0  0  0  0  0  0  0  0  0  0  0
   37.2750   28.7250   38.4230 C   0  0  0  0  0  0  0  0  0  0  0  0
   38.0780   27.6320   38.1820 C   0  0  0  0  0  0  0  0  0  0  0  0
   37.9580   26.4610   38.8120 N   0  0  0  0  0  0  0  0  0  0  0  0
   35.4320   27.2430   40.7510 H   0  0  0  0  0  0  0  0  0  0  0  0
   35.6140   29.4330   39.6120 H   0  0  0  0  0  0  0  0  0  0  0  0
   39.1180   27.8530   37.1410 C   0  0  0  0  0  0  0  0  0  0  0  0
   40.0750   28.7630   37.6210 F   0  0  0  0  0  0  0  0  0  0  0  0
   38.6070   28.1970   35.9220 F   0  0  0  0  0  0  0  0  0  0  0  0
   39.8290   26.6740   36.9470 F   0  0  0  0  0  0  0  0  0  0  0  0
   37.4570   30.2870   37.5520 S   0  0  0  0  0  0  0  0  0  0  0  0
   36.6780   33.5670   41.0830 H   0  0  0  0  0  0  0  0  0  0  0  0
   37.3550   33.2090   40.3620 N   0  0  0  0  0  0  0  0  0  0  0  0
   36.9300   32.1700   39.6240 C   0  0  0  0  0  3  0  0  0  0  0  0
   37.7560   31.6390   38.6560 C   0  0  0  0  0  0  0  0  0  0  0  0
   39.0140   32.2200   38.4910 C   0  0  0  0  0  0  0  0  0  0  0  0
   39.8890   31.8440   37.6400 O   0  0  0  0  0  0  0  0  0  0  0  0
   39.4070   33.2640   39.2510 N   0  0  0  0  0  0  0  0  0  0  0  0
   38.5690   33.7480   40.1810 C   0  0  0  0  0  0  0  0  0  0  0  0
   38.9550   34.7240   40.8820 O   0  0  0  0  0  0  0  0  0  0  0  0
   40.3510   33.7210   39.1460 H   0  0  0  0  0  0  0  0  0  0  0  0
   37.0100   24.9650   41.8620 C   0  0  0  0  0  0  0  0  0  0  0  0
   37.0760   23.9080   42.2060 H   0  0  0  0  0  0  0  0  0  0  0  0
   36.1090   25.4050   42.3060 H   0  0  0  0  0  0  0  0  0  0  0  0
   39.7940   27.2200   42.8220 C   0  0  0  0  0  0  0  0  0  0  0  0
   40.5910   26.3210   43.4490 C   0  0  0  0  0  0  0  0  0  0  0  0
   39.6050   24.7750   43.2790 S   0  0  0  0  0  0  0  0  0  0  0  0
   38.2460   25.6420   42.3630 C   0  0  0  0  0  0  0  0  0  0  0  0
   38.7020   26.6910   42.3650 N   0  0  0  0  0  0  0  0  0  0  0  0
   41.5440   26.4420   43.9260 H   0  0  0  0  0  0  0  0  0  0  0  0
   39.5840   30.9750   42.5910 C   0  0  0  0  0  0  0  0  0  0  0  0
   39.1880   29.6370   42.7450 C   0  0  0  0  0  0  0  0  0  0  0  0
   40.1240   28.6460   42.6730 C   0  0  0  0  0  0  0  0  0  0  0  0
   41.4440   29.0440   42.4440 N   0  0  0  0  0  0  0  0  0  0  0  0
   41.7660   30.3410   42.3030 C   0  0  0  0  0  0  0  0  0  0  0  0
   40.8420   31.3080   42.3770 N   0  0  0  0  0  0  0  0  0  0  0  0
   38.8730   31.7920   42.6420 H   0  0  0  0  0  0  0  0  0  0  0  0
   42.8150   30.5530   42.1280 H   0  0  0  0  0  0  0  0  0  0  0  0
   37.8040   29.3930   42.9730 N   0  0  0  0  0  0  0  0  0  0  0  0
   37.5390   29.4700   43.9680 H   0  0  0  0  0  0  0  0  0  0  0  0
   37.0940   29.1550   42.2380 H   0  0  0  0  0  0  0  0  0  0  0  0
  1 27  1  0  0  0  0
  2  1  1  0  0  0  0
  3  1  1  0  0  0  0
  4  5  1  0  0  0  0
  4  1  1  0  0  0  0
  5 10  1  0  0  0  0
  6 11  1  0  0  0  0
  6  5  2  0  0  0  0
  7  6  1  0  0  0  0
  8  7  2  0  0  0  0
  8  9  1  0  0  0  0
  9  4  2  0  0  0  0
 12 13  1  0  0  0  0
 12  8  1  0  0  0  0
 14 12  1  0  0  0  0
 15 12  1  0  0  0  0
 16  7  1  0  0  0  0
 16 20  1  0  0  0  0
 18 17  1  0  0  0  0
 19 18  1  0  0  0  0
 20 19  2  0  0  0  0
 21 20  1  0  0  0  0
 21 23  1  0  0  0  0
 22 21  2  0  0  0  0
 23 24  1  0  0  0  0
 24 18  1  0  0  0  0
 24 25  2  0  0  0  0
 26 23  1  0  0  0  0
 27 28  1  0  0  0  0
 27 29  1  0  0  0  0
 27 33  1  0  0  0  0
 30 31  2  0  0  0  0
 31 35  1  0  0  0  0
 32 31  1  0  0  0  0
 33 34  2  0  0  0  0
 33 32  1  0  0  0  0
 34 30  1  0  0  0  0
 36 42  1  0  0  0  0
 36 37  1  0  0  0  0
 37 44  1  0  0  0  0
 38 37  2  0  0  0  0
 38 30  1  0  0  0  0
 39 38  1  0  0  0  0
 40 41  1  0  0  0  0
 40 39  2  0  0  0  0
 41 36  2  0  0  0  0
 43 40  1  0  0  0  0
 44 45  1  0  0  0  0
 46 44  1  0  0  0  0
M  END
>  <minimizedAffinity>
-6.34213066

$$$$

 OpenBabel03242522213D

 46 49  0  0  0  0  0  0  0  0999 V2000
   37.7090   28.3700   43.5910 C   0  0  0  0  0  0  0  0  0  0  0  0
   37.4360   28.7430   44.6080 H   0  0  0  0  0  0  0  0  0  0  0  0
   36.7500   28.0050   43.1520 H   0  0  0  0  0  0  0  0  0  0  0  0
   38.2380   29.4560   42.8080 C   0  0  0  0  0  0  0  0  0  0  0  0
   39.4470   30.1120   42.9180 C   0  0  0  0  0  0  0  0  0  0  0  0
   39.8960   31.1520   42.1340 C   0  0  0  0  0  0  0  0  0  0  0  0
   39.0230   31.5490   41.1540 C   0  0  0  0  0  0  0  0  0  0  0  0
   37.8120   30.9030   41.0330 C   0  0  0  0  0  0  0  0  0  0  0  0
   37.4190   29.8970   41.8170 N   0  0  0  0  0  0  0  0  0  0  0  0
   40.0830   29.7360   43.7220 H   0  0  0  0  0  0  0  0  0  0  0  0
   40.8580   31.6030   42.2950 H   0  0  0  0  0  0  0  0  0  0  0  0
   36.9490   31.4190   39.9360 C   0  0  0  0  0  0  0  0  0  0  0  0
   37.4440   30.9710   38.6990 F   0  0  0  0  0  0  0  0  0  0  0  0
   36.7530   32.7690   39.9840 F   0  0  0  0  0  0  0  0  0  0  0  0
   35.6890   30.8390   40.0340 F   0  0  0  0  0  0  0  0  0  0  0  0
   39.5200   32.9070   40.0850 S   0  0  0  0  0  0  0  0  0  0  0  0
   41.1310   31.1930   35.8060 H   0  0  0  0  0  0  0  0  0  0  0  0
   41.4010   31.5600   36.7550 N   0  0  0  0  0  0  0  0  0  0  0  0
   40.3850   31.8990   37.5640 C   0  0  0  0  0  3  0  0  0  0  0  0
   40.6520   32.3880   38.8250 C   0  0  0  0  0  0  0  0  0  0  0  0
   41.9900   32.5080   39.2010 C   0  0  0  0  0  0  0  0  0  0  0  0
   42.3980   32.9440   40.3300 O   0  0  0  0  0  0  0  0  0  0  0  0
   42.9860   32.1580   38.3610 N   0  0  0  0  0  0  0  0  0  0  0  0
   42.6780   31.6850   37.1420 C   0  0  0  0  0  0  0  0  0  0  0  0
   43.6230   31.3630   36.3720 O   0  0  0  0  0  0  0  0  0  0  0  0
   44.0050   32.2380   38.6200 H   0  0  0  0  0  0  0  0  0  0  0  0
   38.6050   27.1830   43.7640 C   0  0  0  0  0  0  0  0  0  0  0  0
   38.3470   26.6620   44.7140 H   0  0  0  0  0  0  0  0  0  0  0  0
   39.6580   27.4790   43.8210 H   0  0  0  0  0  0  0  0  0  0  0  0
   37.5890   25.1790   40.8120 C   0  0  0  0  0  0  0  0  0  0  0  0
   38.3740   24.0930   41.0100 C   0  0  0  0  0  0  0  0  0  0  0  0
   39.2540   24.5540   42.5600 S   0  0  0  0  0  0  0  0  0  0  0  0
   38.3800   26.1850   42.6720 C   0  0  0  0  0  0  0  0  0  0  0  0
   37.7390   26.0830   41.7300 N   0  0  0  0  0  0  0  0  0  0  0  0
   38.4800   23.1910   40.4390 H   0  0  0  0  0  0  0  0  0  0  0  0
   35.5310   26.5760   37.9830 C   0  0  0  0  0  0  0  0  0  0  0  0
   36.4320   26.5200   39.0570 C   0  0  0  0  0  0  0  0  0  0  0  0
   36.6610   25.3270   39.6800 C   0  0  0  0  0  0  0  0  0  0  0  0
   35.9630   24.2190   39.1920 N   0  0  0  0  0  0  0  0  0  0  0  0
   35.1100   24.3330   38.1590 C   0  0  0  0  0  0  0  0  0  0  0  0
   34.8920   25.5060   37.5520 N   0  0  0  0  0  0  0  0  0  0  0  0
   35.3210   27.5040   37.4600 H   0  0  0  0  0  0  0  0  0  0  0  0
   34.6140   23.4180   37.8510 H   0  0  0  0  0  0  0  0  0  0  0  0
   37.0660   27.7360   39.4370 N   0  0  0  0  0  0  0  0  0  0  0  0
   37.9120   27.9420   38.8820 H   0  0  0  0  0  0  0  0  0  0  0  0
   36.7430   28.3860   40.1960 H   0  0  0  0  0  0  0  0  0  0  0  0
  1 27  1  0  0  0  0
  1  2  1  0  0  0  0
  3  1  1  0  0  0  0
  4  5  1  0  0  0  0
  4  1  1  0  0  0  0
  5 10  1  0  0  0  0
  6 11  1  0  0  0  0
  6  5  2  0  0  0  0
  7  6  1  0  0  0  0
  8  7  2  0  0  0  0
  8  9  1  0  0  0  0
  9  4  2  0  0  0  0
 12 14  1  0  0  0  0
 12 15  1  0  0  0  0
 12  8  1  0  0  0  0
 13 12  1  0  0  0  0
 16  7  1  0  0  0  0
 17 18  1  0  0  0  0
 18 24  1  0  0  0  0
 18 19  1  0  0  0  0
 19 20  2  0  0  0  0
 20 21  1  0  0  0  0
 20 16  1  0  0  0  0
 21 22  2  0  0  0  0
 23 26  1  0  0  0  0
 23 21  1  0  0  0  0
 24 23  1  0  0  0  0
 25 24  2  0  0  0  0
 27 29  1  0  0  0  0
 27 28  1  0  0  0  0
 30 31  2  0  0  0  0
 30 34  1  0  0  0  0
 31 32  1  0  0  0  0
 32 33  1  0  0  0  0
 33 27  1  0  0  0  0
 34 33  2  0  0  0  0
 35 31  1  0  0  0  0
 36 37  1  0  0  0  0
 37 44  1  0  0  0  0
 37 38  2  0  0  0  0
 38 30  1  0  0  0  0
 39 38  1  0  0  0  0
 40 39  2  0  0  0  0
 41 36  2  0  0  0  0
 41 40  1  0  0  0  0
 42 36  1  0  0  0  0
 43 40  1  0  0  0  0
 44 46  1  0  0  0  0
 45 44  1  0  0  0  0
M  END
>  <minimizedAffinity>
-6.33462334

$$$$

 OpenBabel03242522213D

 46 49  0  0  0  0  0  0  0  0999 V2000
   36.3430   25.1740   37.9860 C   0  0  0  0  0  0  0  0  0  0  0  0
   36.9310   25.2190   37.0380 H   0  0  0  0  0  0  0  0  0  0  0  0
   36.5890   24.1800   38.4310 H   0  0  0  0  0  0  0  0  0  0  0  0
   36.7680   26.2340   38.8640 C   0  0  0  0  0  0  0  0  0  0  0  0
   37.2550   27.4880   38.5550 C   0  0  0  0  0  0  0  0  0  0  0  0
   37.6490   28.4630   39.4470 C   0  0  0  0  0  0  0  0  0  0  0  0
   37.5290   28.1120   40.7670 C   0  0  0  0  0  0  0  0  0  0  0  0
   37.0440   26.8640   41.0890 C   0  0  0  0  0  0  0  0  0  0  0  0
   36.6730   25.9500   40.1890 N   0  0  0  0  0  0  0  0  0  0  0  0
   37.3190   27.6860   37.4830 H   0  0  0  0  0  0  0  0  0  0  0  0
   38.0180   29.4140   39.1120 H   0  0  0  0  0  0  0  0  0  0  0  0
   36.9590   26.5980   42.5500 C   0  0  0  0  0  0  0  0  0  0  0  0
   38.2130   26.8200   43.1420 F   0  0  0  0  0  0  0  0  0  0  0  0
   36.4240   25.3780   42.8530 F   0  0  0  0  0  0  0  0  0  0  0  0
   36.1260   27.5440   43.1390 F   0  0  0  0  0  0  0  0  0  0  0  0
   38.0280   29.3190   42.0040 S   0  0  0  0  0  0  0  0  0  0  0  0
   36.4040   33.3830   39.8370 H   0  0  0  0  0  0  0  0  0  0  0  0
   37.2160   32.9180   40.3190 N   0  0  0  0  0  0  0  0  0  0  0  0
   37.0100   31.6550   40.7270 C   0  0  0  0  0  3  0  0  0  0  0  0
   38.0230   30.9720   41.3670 C   0  0  0  0  0  0  0  0  0  0  0  0
   39.2320   31.6420   41.5600 C   0  0  0  0  0  0  0  0  0  0  0  0
   40.2610   31.1480   42.1330 O   0  0  0  0  0  0  0  0  0  0  0  0
   39.4030   32.9120   41.1360 N   0  0  0  0  0  0  0  0  0  0  0  0
   38.3880   33.5370   40.5170 C   0  0  0  0  0  0  0  0  0  0  0  0
   38.5670   34.7230   40.1280 O   0  0  0  0  0  0  0  0  0  0  0  0
   40.3060   33.4400   41.2680 H   0  0  0  0  0  0  0  0  0  0  0  0
   34.8900   25.1580   37.6250 C   0  0  0  0  0  0  0  0  0  0  0  0
   34.2840   25.3960   38.5280 H   0  0  0  0  0  0  0  0  0  0  0  0
   34.5770   24.1720   37.2630 H   0  0  0  0  0  0  0  0  0  0  0  0
   33.5900   27.9620   35.5740 C   0  0  0  0  0  0  0  0  0  0  0  0
   34.4910   27.9230   34.5630 C   0  0  0  0  0  0  0  0  0  0  0  0
   35.5670   26.5230   35.0830 S   0  0  0  0  0  0  0  0  0  0  0  0
   34.5810   26.2260   36.6250 C   0  0  0  0  0  0  0  0  0  0  0  0
   33.8070   27.0560   36.4760 N   0  0  0  0  0  0  0  0  0  0  0  0
   34.5820   28.5290   33.6820 H   0  0  0  0  0  0  0  0  0  0  0  0
   30.9660   30.3640   36.8140 C   0  0  0  0  0  0  0  0  0  0  0  0
   32.0300   29.4500   36.8270 C   0  0  0  0  0  0  0  0  0  0  0  0
   32.4810   28.9250   35.6500 C   0  0  0  0  0  0  0  0  0  0  0  0
   31.8330   29.3480   34.4850 N   0  0  0  0  0  0  0  0  0  0  0  0
   30.8180   30.2270   34.5340 C   0  0  0  0  0  0  0  0  0  0  0  0
   30.3820   30.7370   35.6920 N   0  0  0  0  0  0  0  0  0  0  0  0
   30.5780   30.8040   37.7270 H   0  0  0  0  0  0  0  0  0  0  0  0
   30.3770   30.4950   33.5790 H   0  0  0  0  0  0  0  0  0  0  0  0
   32.5860   29.1190   38.0960 N   0  0  0  0  0  0  0  0  0  0  0  0
   33.3050   29.7900   38.4090 H   0  0  0  0  0  0  0  0  0  0  0  0
   32.3230   28.2890   38.6830 H   0  0  0  0  0  0  0  0  0  0  0  0
  1  3  1  0  0  0  0
  1  4  1  0  0  0  0
  2  1  1  0  0  0  0
  4  9  1  0  0  0  0
  5  4  2  0  0  0  0
  5  6  1  0  0  0  0
  6  7  2  0  0  0  0
  7  8  1  0  0  0  0
  7 16  1  0  0  0  0
  8 12  1  0  0  0  0
  9  8  2  0  0  0  0
 10  5  1  0  0  0  0
 11  6  1  0  0  0  0
 12 14  1  0  0  0  0
 12 15  1  0  0  0  0
 12 13  1  0  0  0  0
 17 18  1  0  0  0  0
 18 24  1  0  0  0  0
 18 19  1  0  0  0  0
 19 20  2  0  0  0  0
 20 21  1  0  0  0  0
 20 16  1  0  0  0  0
 21 22  2  0  0  0  0
 23 26  1  0  0  0  0
 23 21  1  0  0  0  0
 24 23  1  0  0  0  0
 25 24  2  0  0  0  0
 27  1  1  0  0  0  0
 27 28  1  0  0  0  0
 29 27  1  0  0  0  0
 30 38  1  0  0  0  0
 30 34  1  0  0  0  0
 31 32  1  0  0  0  0
 31 30  2  0  0  0  0
 32 33  1  0  0  0  0
 33 27  1  0  0  0  0
 34 33  2  0  0  0  0
 35 31  1  0  0  0  0
 36 37  1  0  0  0  0
 36 42  1  0  0  0  0
 37 44  1  0  0  0  0
 38 37  2  0  0  0  0
 39 40  2  0  0  0  0
 39 38  1  0  0  0  0
 40 41  1  0  0  0  0
 41 36  2  0  0  0  0
 43 40  1  0  0  0  0
 44 45  1  0  0  0  0
 44 46  1  0  0  0  0
M  END
>  <minimizedAffinity>
-6.24608564

$$$$

 OpenBabel03242522213D

 46 49  0  0  0  0  0  0  0  0999 V2000
   37.2090   24.9890   41.8650 C   0  0  0  0  0  0  0  0  0  0  0  0
   36.3330   24.5770   42.4220 H   0  0  0  0  0  0  0  0  0  0  0  0
   37.1630   24.5070   40.8600 H   0  0  0  0  0  0  0  0  0  0  0  0
   37.0700   26.4180   41.7430 C   0  0  0  0  0  0  0  0  0  0  0  0
   37.2970   27.4050   42.6790 C   0  0  0  0  0  0  0  0  0  0  0  0
   37.1420   28.7630   42.5000 C   0  0  0  0  0  0  0  0  0  0  0  0
   36.7170   29.1310   41.2490 C   0  0  0  0  0  0  0  0  0  0  0  0
   36.4870   28.1550   40.3050 C   0  0  0  0  0  0  0  0  0  0  0  0
   36.6510   26.8480   40.5240 N   0  0  0  0  0  0  0  0  0  0  0  0
   37.6320   27.0290   43.6480 H   0  0  0  0  0  0  0  0  0  0  0  0
   37.3440   29.4620   43.2920 H   0  0  0  0  0  0  0  0  0  0  0  0
   36.0310   28.6720   38.9870 C   0  0  0  0  0  0  0  0  0  0  0  0
   35.7310   27.5940   38.1370 F   0  0  0  0  0  0  0  0  0  0  0  0
   36.8860   29.5800   38.4310 F   0  0  0  0  0  0  0  0  0  0  0  0
   34.8170   29.3320   39.1500 F   0  0  0  0  0  0  0  0  0  0  0  0
   36.4790   30.8840   40.9250 S   0  0  0  0  0  0  0  0  0  0  0  0
   41.0500   32.3150   41.8740 H   0  0  0  0  0  0  0  0  0  0  0  0
   40.2190   32.4210   41.2380 N   0  0  0  0  0  0  0  0  0  0  0  0
   39.1480   31.6700   41.5420 C   0  0  0  0  0  3  0  0  0  0  0  0
   38.0160   31.7490   40.7590 C   0  0  0  0  0  0  0  0  0  0  0  0
   38.0440   32.6220   39.6710 C   0  0  0  0  0  0  0  0  0  0  0  0
   37.0790   32.8070   38.8550 O   0  0  0  0  0  0  0  0  0  0  0  0
   39.1380   33.3620   39.3960 N   0  0  0  0  0  0  0  0  0  0  0  0
   40.2170   33.2520   40.1870 C   0  0  0  0  0  0  0  0  0  0  0  0
   41.2310   33.9520   39.9130 O   0  0  0  0  0  0  0  0  0  0  0  0
   39.1840   34.0300   38.5810 H   0  0  0  0  0  0  0  0  0  0  0  0
   38.4520   24.5020   42.5410 C   0  0  0  0  0  0  0  0  0  0  0  0
   38.4400   23.3890   42.5760 H   0  0  0  0  0  0  0  0  0  0  0  0
   38.5200   24.8680   43.5720 H   0  0  0  0  0  0  0  0  0  0  0  0
   41.6960   25.6920   41.1920 C   0  0  0  0  0  0  0  0  0  0  0  0
   41.5480   25.3030   39.9030 C   0  0  0  0  0  0  0  0  0  0  0  0
   39.8780   24.5290   39.9430 S   0  0  0  0  0  0  0  0  0  0  0  0
   39.6670   24.8770   41.7520 C   0  0  0  0  0  0  0  0  0  0  0  0
   40.6720   25.3940   41.9290 N   0  0  0  0  0  0  0  0  0  0  0  0
   42.2050   25.4030   39.0610 H   0  0  0  0  0  0  0  0  0  0  0  0
   44.7380   26.6350   43.2060 C   0  0  0  0  0  0  0  0  0  0  0  0
   43.6120   25.9180   42.7720 C   0  0  0  0  0  0  0  0  0  0  0  0
   42.8890   26.3810   41.7110 C   0  0  0  0  0  0  0  0  0  0  0  0
   43.3330   27.5660   41.1170 N   0  0  0  0  0  0  0  0  0  0  0  0
   44.4190   28.2100   41.5760 C   0  0  0  0  0  0  0  0  0  0  0  0
   45.1240   27.7490   42.6170 N   0  0  0  0  0  0  0  0  0  0  0  0
   45.3400   26.3010   44.0450 H   0  0  0  0  0  0  0  0  0  0  0  0
   44.6870   29.1210   41.0510 H   0  0  0  0  0  0  0  0  0  0  0  0
   43.2870   24.7270   43.4820 N   0  0  0  0  0  0  0  0  0  0  0  0
   43.8060   23.9010   43.1430 H   0  0  0  0  0  0  0  0  0  0  0  0
   42.6000   24.6510   44.2710 H   0  0  0  0  0  0  0  0  0  0  0  0
  1  2  1  0  0  0  0
  1 27  1  0  0  0  0
  3  1  1  0  0  0  0
  4  1  1  0  0  0  0
  4  5  1  0  0  0  0
  5 10  1  0  0  0  0
  6  5  2  0  0  0  0
  6 11  1  0  0  0  0
  7  6  1  0  0  0  0
  8  9  1  0  0  0  0
  8  7  2  0  0  0  0
  9  4  2  0  0  0  0
 12 15  1  0  0  0  0
 12  8  1  0  0  0  0
 13 12  1  0  0  0  0
 14 12  1  0  0  0  0
 16  7  1  0  0  0  0
 18 19  1  0  0  0  0
 18 17  1  0  0  0  0
 20 16  1  0  0  0  0
 20 19  2  0  0  0  0
 21 20  1  0  0  0  0
 22 21  2  0  0  0  0
 23 21  1  0  0  0  0
 23 24  1  0  0  0  0
 24 18  1  0  0  0  0
 25 24  2  0  0  0  0
 26 23  1  0  0  0  0
 27 28  1  0  0  0  0
 27 29  1  0  0  0  0
 30 38  1  0  0  0  0
 30 34  1  0  0  0  0
 31 32  1  0  0  0  0
 31 30  2  0  0  0  0
 32 33  1  0  0  0  0
 33 34  2  0  0  0  0
 33 27  1  0  0  0  0
 35 31  1  0  0  0  0
 36 42  1  0  0  0  0
 37 36  1  0  0  0  0
 37 44  1  0  0  0  0
 38 37  2  0  0  0  0
 39 40  2  0  0  0  0
 39 38  1  0  0  0  0
 40 41  1  0  0  0  0
 41 36  2  0  0  0  0
 43 40  1  0  0  0  0
 44 46  1  0  0  0  0
 45 44  1  0  0  0  0
M  END
>  <minimizedAffinity>
-6.23996258

$$$$
