
 OpenBabel03252506253D

 46 50  0  0  0  0  0  0  0  0999 V2000
   45.5420   27.8510   47.8050 C   0  0  0  0  0  0  0  0  0  0  0  0
   45.0090   29.1300   47.7900 C   0  0  0  0  0  0  0  0  0  0  0  0
   44.1870   29.4370   46.7090 C   0  0  0  0  0  0  0  0  0  0  0  0
   43.9110   28.5340   45.7070 C   0  0  0  0  0  0  0  0  0  0  0  0
   43.1820   28.5450   44.5810 N   0  0  0  0  0  0  0  0  0  0  0  0
   43.2540   27.3680   43.9450 C   0  0  0  0  0  0  0  0  0  0  0  0
   44.0660   26.5160   44.6660 C   0  0  0  0  0  0  0  0  0  0  0  0
   44.4520   27.2680   45.7430 C   0  0  0  0  0  0  0  0  0  0  0  0
   45.2710   26.9510   46.8120 C   0  0  0  0  0  0  0  0  0  0  0  0
   46.1770   27.6680   48.6750 H   0  0  0  0  0  0  0  0  0  0  0  0
   43.7020   30.3940   46.5640 H   0  0  0  0  0  0  0  0  0  0  0  0
   42.6170   29.3710   44.2290 H   0  0  0  0  0  0  0  0  0  0  0  0
   42.7490   27.1360   43.0150 H   0  0  0  0  0  0  0  0  0  0  0  0
   44.3500   25.4940   44.4590 H   0  0  0  0  0  0  0  0  0  0  0  0
   45.8570   25.6540   46.9010 N   0  0  0  0  0  0  0  0  0  0  0  0
   47.0180   25.2500   46.3500 C   0  0  0  0  0  3  0  0  0  0  0  0
   47.4240   23.9350   46.5510 C   0  0  0  0  0  0  0  0  0  0  0  0
   48.3630   23.6400   46.0960 H   0  0  0  0  0  0  0  0  0  0  0  0
   46.6560   23.0650   47.2950 C   0  0  0  0  0  0  0  0  0  0  0  0
   47.0200   21.8740   47.4790 O   0  0  0  0  0  0  0  0  0  0  0  0
   45.4880   23.5210   47.8310 N   0  0  0  0  0  0  0  0  0  0  0  0
   45.1120   24.7980   47.6260 C   0  0  0  0  0  0  0  0  0  0  0  0
   44.0040   25.0960   48.1800 O   0  0  0  0  0  0  0  0  0  0  0  0
   44.9250   22.8250   48.3960 H   0  0  0  0  0  0  0  0  0  0  0  0
   45.1700   30.2220   48.7350 C   0  0  0  0  0  0  0  0  0  0  0  0
   44.2950   30.9130   48.7190 H   0  0  0  0  0  0  0  0  0  0  0  0
   45.1240   29.7730   49.7680 H   0  0  0  0  0  0  0  0  0  0  0  0
   46.4360   30.9920   48.6690 C   0  0  0  0  0  0  0  0  0  0  0  0
   46.3860   31.7830   49.4710 H   0  0  0  0  0  0  0  0  0  0  0  0
   47.2810   30.3470   48.8920 H   0  0  0  0  0  0  0  0  0  0  0  0
   46.2850   33.0180   45.7310 C   0  0  0  0  0  0  0  0  0  0  0  0
   47.2330   32.0540   45.3670 C   0  0  0  0  0  0  0  0  0  0  0  0
   47.4030   31.1940   46.4030 C   0  0  0  0  0  0  0  0  0  0  0  0
   46.5890   31.6120   47.3700 N   0  0  0  0  0  0  0  0  0  0  0  0
   45.9070   32.7090   46.9840 N   0  0  0  0  0  0  0  0  0  0  0  0
   47.7720   31.9680   44.4220 H   0  0  0  0  0  0  0  0  0  0  0  0
   48.0660   30.3280   46.4550 H   0  0  0  0  0  0  0  0  0  0  0  0
   44.4670   35.9500   44.5350 C   0  0  0  0  0  0  0  0  0  0  0  0
   45.0110   36.1600   43.2630 C   0  0  0  0  0  0  0  0  0  0  0  0
   46.0000   35.2870   42.8290 C   0  0  0  0  0  0  0  0  0  0  0  0
   46.3610   34.3020   43.6710 N   0  0  0  0  0  0  0  0  0  0  0  0
   45.8360   34.1100   44.8830 C   0  0  0  0  0  0  0  0  0  0  0  0
   44.8870   34.9420   45.3070 N   0  0  0  0  0  0  0  0  0  0  0  0
   43.6960   36.6500   44.8440 H   0  0  0  0  0  0  0  0  0  0  0  0
   44.7420   36.9330   42.5770 H   0  0  0  0  0  0  0  0  0  0  0  0
   46.4970   35.3430   41.8680 H   0  0  0  0  0  0  0  0  0  0  0  0
  1 10  1  0  0  0  0
  2  1  1  0  0  0  0
  2 25  1  0  0  0  0
  3  2  2  0  0  0  0
  4  8  2  0  0  0  0
  4  3  1  0  0  0  0
  5  4  1  0  0  0  0
  6  5  1  0  0  0  0
  6  7  2  0  0  0  0
  7  8  1  0  0  0  0
  8  9  1  0  0  0  0
  9 15  1  0  0  0  0
  9  1  2  0  0  0  0
 11  3  1  0  0  0  0
 12  5  1  0  0  0  0
 13  6  1  0  0  0  0
 14  7  1  0  0  0  0
 15 22  1  0  0  0  0
 16 17  2  0  0  0  0
 16 15  1  0  0  0  0
 17 19  1  0  0  0  0
 18 17  1  0  0  0  0
 19 20  2  0  0  0  0
 19 21  1  0  0  0  0
 21 24  1  0  0  0  0
 22 21  1  0  0  0  0
 22 23  2  0  0  0  0
 25 27  1  0  0  0  0
 26 25  1  0  0  0  0
 28 25  1  0  0  0  0
 28 30  1  0  0  0  0
 28 29  1  0  0  0  0
 31 35  2  0  0  0  0
 32 31  1  0  0  0  0
 32 33  2  0  0  0  0
 33 37  1  0  0  0  0
 33 34  1  0  0  0  0
 34 28  1  0  0  0  0
 35 34  1  0  0  0  0
 36 32  1  0  0  0  0
 38 44  1  0  0  0  0
 38 43  1  0  0  0  0
 39 38  2  0  0  0  0
 40 39  1  0  0  0  0
 40 41  2  0  0  0  0
 41 42  1  0  0  0  0
 42 43  2  0  0  0  0
 42 31  1  0  0  0  0
 45 39  1  0  0  0  0
 46 40  1  0  0  0  0
M  END
>  <minimizedAffinity>
-5.47911835

>  <minimizedRMSD>
1.58257735

$$$$
