
 OpenBabel03252508253D

 42 46  0  0  1  0  0  0  0  0999 V2000
   46.2210   29.9750   45.7470 C   0  0  1  0  0  0  0  0  0  0  0  0
   45.7320   30.5990   46.9840 C   0  0  0  0  0  0  0  0  0  0  0  0
   44.9100   29.5270   46.1680 C   0  0  2  0  0  0  0  0  0  0  0  0
   47.2220   29.4900   46.0330 H   0  0  0  0  0  0  0  0  0  0  0  0
   45.2860   31.5970   47.0030 H   0  0  0  0  0  0  0  0  0  0  0  0
   45.9380   30.2050   47.9980 H   0  0  0  0  0  0  0  0  0  0  0  0
   43.9440   30.0710   45.9250 H   0  0  0  0  0  0  0  0  0  0  0  0
   44.6150   28.2270   46.7790 C   0  0  0  0  0  0  0  0  0  0  0  0
   45.4010   27.5070   47.6230 C   0  0  0  0  0  0  0  0  0  0  0  0
   45.1420   26.2220   48.0780 C   0  0  0  0  0  0  0  0  0  0  0  0
   43.9590   25.6240   47.6190 C   0  0  0  0  0  0  0  0  0  0  0  0
   43.1340   26.3430   46.7550 C   0  0  0  0  0  0  0  0  0  0  0  0
   41.9510   25.7370   46.3810 C   0  0  0  0  0  0  0  0  0  0  0  0
   41.0580   26.4420   45.5760 C   0  0  0  0  0  0  0  0  0  0  0  0
   41.3430   27.7280   45.1590 C   0  0  0  0  0  0  0  0  0  0  0  0
   42.5390   28.2740   45.5640 C   0  0  0  0  0  0  0  0  0  0  0  0
   43.4630   27.6130   46.3560 C   0  0  0  0  0  0  0  0  0  0  0  0
   46.3110   28.0140   47.9520 H   0  0  0  0  0  0  0  0  0  0  0  0
   45.7900   25.7020   48.7390 H   0  0  0  0  0  0  0  0  0  0  0  0
   43.7280   24.6280   47.9500 H   0  0  0  0  0  0  0  0  0  0  0  0
   41.7420   24.7190   46.7230 H   0  0  0  0  0  0  0  0  0  0  0  0
   40.1530   25.8580   45.3410 H   0  0  0  0  0  0  0  0  0  0  0  0
   40.5450   28.0920   44.5630 H   0  0  0  0  0  0  0  0  0  0  0  0
   42.4920   29.2630   45.2030 H   0  0  0  0  0  0  0  0  0  0  0  0
   45.3580   32.0260   42.8000 C   0  0  0  0  0  0  0  0  0  0  0  0
   46.6290   32.1540   42.1360 C   0  0  0  0  0  0  0  0  0  0  0  0
   47.7640   31.5310   42.7440 C   0  0  0  0  0  0  0  0  0  0  0  0
   47.6030   30.8540   43.9020 N   0  0  0  0  0  0  0  0  0  0  0  0
   46.3560   30.7670   44.4870 C   0  0  0  0  0  0  0  0  0  0  0  0
   45.2770   31.3330   43.9540 N   0  0  0  0  0  0  0  0  0  0  0  0
   44.5580   32.5230   42.2770 H   0  0  0  0  0  0  0  0  0  0  0  0
   46.7580   32.6920   41.2150 H   0  0  0  0  0  0  0  0  0  0  0  0
   49.0250   31.6500   42.1000 N   0  0  0  0  0  0  0  0  0  0  0  0
   49.3970   30.5760   41.3750 C   0  0  0  0  0  3  0  0  0  0  0  0
   50.6040   30.5730   40.7030 C   0  0  0  0  0  0  0  0  0  0  0  0
   50.9270   29.7210   40.1120 H   0  0  0  0  0  0  0  0  0  0  0  0
   51.4390   31.6780   40.7720 C   0  0  0  0  0  0  0  0  0  0  0  0
   52.5420   31.6890   40.1640 O   0  0  0  0  0  0  0  0  0  0  0  0
   51.0150   32.7210   41.5120 N   0  0  0  0  0  0  0  0  0  0  0  0
   49.8350   32.7210   42.1680 C   0  0  0  0  0  0  0  0  0  0  0  0
   49.4290   33.6910   42.8620 O   0  0  0  0  0  0  0  0  0  0  0  0
   51.6280   33.5480   41.5710 H   0  0  0  0  0  0  0  0  0  0  0  0
  1  4  1  1  0  0  0
  1  3  1  0  0  0  0
  1  2  1  0  0  0  0
  2  5  1  0  0  0  0
  2  6  1  0  0  0  0
  3  7  1  6  0  0  0
  3  8  1  0  0  0  0
  3  2  1  0  0  0  0
  8  9  1  0  0  0  0
  9 18  1  0  0  0  0
  9 10  2  0  0  0  0
 10 19  1  0  0  0  0
 11 20  1  0  0  0  0
 11 10  1  0  0  0  0
 12 11  2  0  0  0  0
 13 21  1  0  0  0  0
 13 12  1  0  0  0  0
 14 13  2  0  0  0  0
 15 16  2  0  0  0  0
 15 14  1  0  0  0  0
 16 17  1  0  0  0  0
 17 12  1  0  0  0  0
 17  8  2  0  0  0  0
 22 14  1  0  0  0  0
 23 15  1  0  0  0  0
 24 16  1  0  0  0  0
 25 30  1  0  0  0  0
 26 27  1  0  0  0  0
 26 25  2  0  0  0  0
 27 28  2  0  0  0  0
 28 29  1  0  0  0  0
 29  1  1  0  0  0  0
 30 29  2  0  0  0  0
 31 25  1  0  0  0  0
 32 26  1  0  0  0  0
 33 40  1  0  0  0  0
 33 27  1  0  0  0  0
 34 33  1  0  0  0  0
 35 37  1  0  0  0  0
 35 34  2  0  0  0  0
 36 35  1  0  0  0  0
 37 39  1  0  0  0  0
 38 37  2  0  0  0  0
 39 42  1  0  0  0  0
 39 40  1  0  0  0  0
 40 41  2  0  0  0  0
M  END
>  <minimizedAffinity>
-5.21167278

>  <minimizedRMSD>
4.01176357

$$$$
