
 OpenBabel03252507463D

 38 40  0  0  0  0  0  0  0  0999 V2000
   47.4160   34.5990   40.9190 C   0  0  0  0  0  0  0  0  0  0  0  0
   47.6560   35.4930   40.3290 H   0  0  0  0  0  0  0  0  0  0  0  0
   46.7890   33.9400   40.2980 H   0  0  0  0  0  0  0  0  0  0  0  0
   48.6760   33.9480   41.3260 C   0  0  0  0  0  0  0  0  0  0  0  0
   48.8810   32.6570   40.8730 C   0  0  0  0  0  0  0  0  0  0  0  0
   50.0270   31.9480   41.1930 C   0  0  0  0  0  0  0  0  0  0  0  0
   50.9470   32.6010   41.9850 N   0  0  0  0  0  0  0  0  0  0  0  0
   50.7090   33.8580   42.4050 C   0  0  0  0  0  0  0  0  0  0  0  0
   49.6010   34.5150   42.0840 N   0  0  0  0  0  0  0  0  0  0  0  0
   50.2080   30.9500   40.8550 H   0  0  0  0  0  0  0  0  0  0  0  0
   51.4130   34.4020   43.0320 H   0  0  0  0  0  0  0  0  0  0  0  0
   47.6400   31.8380   39.8310 S   0  0  0  0  0  0  0  0  0  0  0  0
   50.4920   32.0050   35.8720 H   0  0  0  0  0  0  0  0  0  0  0  0
   49.5520   32.2330   36.2710 N   0  0  0  0  0  0  0  0  0  0  0  0
   49.3690   31.9020   37.5470 C   0  0  0  0  0  3  0  0  0  0  0  0
   48.1630   32.1720   38.1390 C   0  0  0  0  0  0  0  0  0  0  0  0
   47.1520   32.7820   37.4050 C   0  0  0  0  0  0  0  0  0  0  0  0
   45.9880   33.0860   37.8320 O   0  0  0  0  0  0  0  0  0  0  0  0
   47.3670   33.1080   36.1040 N   0  0  0  0  0  0  0  0  0  0  0  0
   48.5710   32.8290   35.5490 C   0  0  0  0  0  0  0  0  0  0  0  0
   48.8310   33.1050   34.3560 O   0  0  0  0  0  0  0  0  0  0  0  0
   46.6270   33.5690   35.5210 H   0  0  0  0  0  0  0  0  0  0  0  0
   46.5630   35.0140   42.0900 C   0  0  0  0  0  0  0  0  0  0  0  0
   46.8740   34.4550   42.9940 H   0  0  0  0  0  0  0  0  0  0  0  0
   46.7820   36.0910   42.3070 H   0  0  0  0  0  0  0  0  0  0  0  0
   45.1050   34.9560   41.8210 C   0  0  0  0  0  0  0  0  0  0  0  0
   44.1920   35.5160   42.7710 C   0  0  0  0  0  0  0  0  0  0  0  0
   42.5560   35.2050   42.0040 S   0  0  0  0  0  0  0  0  0  0  0  0
   43.3850   34.3640   40.5140 C   0  0  0  0  0  0  0  0  0  0  0  0
   44.4900   34.4470   40.7920 N   0  0  0  0  0  0  0  0  0  0  0  0
   44.4330   35.9990   43.7060 H   0  0  0  0  0  0  0  0  0  0  0  0
   42.6680   33.8400   39.4490 O   0  0  0  0  0  0  0  0  0  0  0  0
   40.6740   34.1630   37.7340 O   0  0  0  0  0  0  0  0  0  0  0  0
   41.7360   34.9280   38.5230 P   0  0  0  0  0  0  0  0  0  0  0  0
   40.9660   35.9840   39.5930 O   0  0  0  0  0  0  0  0  0  0  0  0
   40.4500   36.6490   39.0700 H   0  0  0  0  0  0  0  0  0  0  0  0
   42.7390   35.8060   37.4830 O   0  0  0  0  0  0  0  0  0  0  0  0
   42.8320   35.3620   36.6200 H   0  0  0  0  0  0  0  0  0  0  0  0
  1  4  1  0  0  0  0
  1 23  1  0  0  0  0
  2  1  1  0  0  0  0
  3  1  1  0  0  0  0
  4  9  1  0  0  0  0
  5  6  1  0  0  0  0
  5  4  2  0  0  0  0
  6  7  2  0  0  0  0
  7  8  1  0  0  0  0
  8 11  1  0  0  0  0
  9  8  2  0  0  0  0
 10  6  1  0  0  0  0
 12  5  1  0  0  0  0
 13 14  1  0  0  0  0
 14 15  1  0  0  0  0
 15 16  2  0  0  0  0
 16 12  1  0  0  0  0
 17 18  2  0  0  0  0
 17 16  1  0  0  0  0
 19 17  1  0  0  0  0
 20 19  1  0  0  0  0
 20 14  1  0  0  0  0
 21 20  2  0  0  0  0
 22 19  1  0  0  0  0
 23 25  1  0  0  0  0
 23 24  1  0  0  0  0
 26 23  1  0  0  0  0
 26 27  2  0  0  0  0
 27 31  1  0  0  0  0
 28 27  1  0  0  0  0
 29 30  2  0  0  0  0
 29 28  1  0  0  0  0
 30 26  1  0  0  0  0
 32 29  1  0  0  0  0
 33 34  2  0  0  0  0
 34 32  1  0  0  0  0
 34 35  1  0  0  0  0
 36 35  1  0  0  0  0
 37 34  1  0  0  0  0
 38 37  1  0  0  0  0
M  END
>  <minimizedAffinity>
-5.61555576

>  <minimizedRMSD>
0.458808243

$$$$
