REMARK  Name = 
REMARK  4 active torsions:
REMARK  status: ('A' for Active; 'I' for Inactive)
REMARK    1  A    between atoms: C_1  and  C_15
REMARK    2  A    between atoms: C_3  and  C_4
REMARK    3  A    between atoms: C_18  and  C_20
REMARK    4  A    between atoms: C_22  and  N_39
REMARK                            x       y       z     vdW  Elec       q    Type
REMARK                         _______ _______ _______ _____ _____    ______ ____
ROOT
ATOM      1  C   UNL     1      45.546  33.943  45.294  0.00  0.00    +0.000 A 
ATOM      2  C   UNL     1      46.467  33.142  44.537  0.00  0.00    +0.000 A 
ATOM      3  C   UNL     1      47.122  32.127  45.184  0.00  0.00    +0.000 A 
ATOM      4  N   UNL     1      46.854  31.944  46.509  0.00  0.00    +0.000 NA
ATOM      5  C   UNL     1      45.980  32.709  47.212  0.00  0.00    +0.000 A 
ATOM      6  N   UNL     1      45.327  33.709  46.599  0.00  0.00    +0.000 NA
ATOM      7  H   UNL     1      45.050  34.737  44.738  0.00  0.00    +0.000 HD
ATOM      8  H   UNL     1      47.811  31.515  44.654  0.00  0.00    +0.000 HD
ENDROOT
BRANCH   2   9
ATOM      9  C   UNL     1      46.676  33.458  43.093  0.00  0.00    +0.000 C 
ATOM     10  C   UNL     1      46.968  34.825  42.671  0.00  0.00    +0.000 C 
ATOM     11  C   UNL     1      48.089  33.852  42.686  0.00  0.00    +0.000 C 
ATOM     12  H   UNL     1      46.172  32.744  42.418  0.00  0.00    +0.000 HD
ATOM     13  H   UNL     1      46.932  35.594  43.513  0.00  0.00    +0.000 HD
ATOM     14  H   UNL     1      46.436  35.190  41.803  0.00  0.00    +0.000 HD
ATOM     15  H   UNL     1      48.827  33.914  43.519  0.00  0.00    +0.000 HD
BRANCH  11  16
ATOM     16  C   UNL     1      48.523  33.296  41.378  0.00  0.00    +0.000 A 
ATOM     17  C   UNL     1      49.350  32.203  41.229  0.00  0.00    +0.000 A 
ATOM     18  C   UNL     1      49.712  31.750  39.974  0.00  0.00    +0.000 A 
ATOM     19  C   UNL     1      49.252  32.383  38.849  0.00  0.00    +0.000 A 
ATOM     20  N   UNL     1      49.589  31.954  37.603  0.00  0.00    +0.000 NA
ATOM     21  C   UNL     1      49.115  32.600  36.503  0.00  0.00    +0.000 A 
ATOM     22  C   UNL     1      48.263  33.730  36.560  0.00  0.00    +0.000 A 
ATOM     23  C   UNL     1      47.917  34.170  37.814  0.00  0.00    +0.000 A 
ATOM     24  C   UNL     1      48.415  33.492  38.941  0.00  0.00    +0.000 A 
ATOM     25  C   UNL     1      48.076  33.914  40.210  0.00  0.00    +0.000 A 
ATOM     26  H   UNL     1      49.708  31.711  42.108  0.00  0.00    +0.000 HD
ATOM     27  H   UNL     1      50.371  30.879  39.873  0.00  0.00    +0.000 HD
ATOM     28  H   UNL     1      49.384  32.258  35.513  0.00  0.00    +0.000 HD
ATOM     29  H   UNL     1      47.936  34.179  35.638  0.00  0.00    +0.000 HD
ATOM     30  H   UNL     1      47.269  35.029  37.916  0.00  0.00    +0.000 HD
ATOM     31  H   UNL     1      47.431  34.782  40.202  0.00  0.00    +0.000 HD
ENDBRANCH  11  16
ENDBRANCH   2   9
BRANCH   5  32
ATOM     32  C   UNL     1      45.780  32.400  48.650  0.00  0.00    +0.000 C 
ATOM     33  C   UNL     1      46.281  31.171  49.245  0.00  0.00    +0.000 C 
ATOM     34  C   UNL     1      44.810  31.204  48.901  0.00  0.00    +0.000 C 
ATOM     35  H   UNL     1      45.531  33.301  49.250  0.00  0.00    +0.000 HD
ATOM     36  H   UNL     1      46.875  30.446  48.659  0.00  0.00    +0.000 HD
ATOM     37  H   UNL     1      46.604  31.238  50.309  0.00  0.00    +0.000 HD
ATOM     38  H   UNL     1      44.458  30.659  48.025  0.00  0.00    +0.000 HD
BRANCH  34  39
ATOM     39  N   UNL     1      43.947  31.288  50.063  0.00  0.00    +0.000 N 
ATOM     40  C   UNL     1      42.593  31.329  49.937  0.00  0.00    +0.000 A 
ATOM     41  C   UNL     1      41.733  31.410  51.014  0.00  0.00    +0.000 A 
ATOM     42  H   UNL     1      40.664  31.441  50.878  0.00  0.00    +0.000 HD
ATOM     43  C   UNL     1      42.286  31.449  52.277  0.00  0.00    +0.000 A 
ATOM     44  O   UNL     1      41.535  31.521  53.270  0.00  0.00    +0.000 OA
ATOM     45  N   UNL     1      43.623  31.408  52.402  0.00  0.00    +0.000 N 
ATOM     46  C   UNL     1      44.416  31.330  51.324  0.00  0.00    +0.000 A 
ATOM     47  O   UNL     1      45.658  31.296  51.529  0.00  0.00    +0.000 OA
ATOM     48  H   UNL     1      44.051  31.438  53.362  0.00  0.00    +0.000 HD
ENDBRANCH  34  39
ENDBRANCH   5  32
TORSDOF 4
