REMARK  Name = 
REMARK  4 active torsions:
REMARK  status: ('A' for Active; 'I' for Inactive)
REMARK    1  A    between atoms: C_3  and  O_7
REMARK    2  A    between atoms: O_7  and  P_9
REMARK    3  A    between atoms: P_9  and  O_10
REMARK    4  A    between atoms: P_9  and  O_11
REMARK                            x       y       z     vdW  Elec       q    Type
REMARK                         _______ _______ _______ _____ _____    ______ ____
ROOT
ATOM      1  C   UNL     1      44.584  35.987  44.526  0.00  0.00    +0.000 A 
ATOM      2  C   UNL     1      45.223  36.004  43.256  0.00  0.00    +0.000 A 
ATOM      3  C   UNL     1      46.095  34.963  42.962  0.00  0.00    +0.000 A 
ATOM      4  N   UNL     1      46.296  33.982  43.898  0.00  0.00    +0.000 NA
ATOM      5  C   UNL     1      45.666  34.005  45.097  0.00  0.00    +0.000 A 
ATOM      6  N   UNL     1      44.815  35.002  45.408  0.00  0.00    +0.000 NA
ATOM      7  H   UNL     1      43.903  36.777  44.786  0.00  0.00    +0.000 HD
ATOM      8  H   UNL     1      44.997  36.829  42.581  0.00  0.00    +0.000 HD
ATOM      9  N   UNL     1      46.044  32.880  45.882  0.00  0.00    +0.000 N 
ATOM     10  C   UNL     1      47.216  32.961  46.543  0.00  0.00    +0.000 A 
ATOM     11  C   UNL     1      47.599  31.860  47.319  0.00  0.00    +0.000 A 
ATOM     12  H   UNL     1      48.532  31.909  47.852  0.00  0.00    +0.000 HD
ATOM     13  C   UNL     1      46.756  30.770  47.357  0.00  0.00    +0.000 A 
ATOM     14  O   UNL     1      47.096  29.773  48.056  0.00  0.00    +0.000 OA
ATOM     15  N   UNL     1      45.593  30.732  46.680  0.00  0.00    +0.000 N 
ATOM     16  C   UNL     1      45.238  31.803  45.935  0.00  0.00    +0.000 A 
ATOM     17  O   UNL     1      44.144  31.727  45.319  0.00  0.00    +0.000 OA
ATOM     18  H   UNL     1      44.993  29.870  46.750  0.00  0.00    +0.000 HD
ENDROOT
BRANCH   3  19
ATOM     19  O   UNL     1      46.721  34.974  41.725  0.00  0.00    +0.000 OA
BRANCH  19  21
ATOM     20  O   UNL     1      48.658  33.324  40.977  0.00  0.00    +0.000 OA
ATOM     21  P   UNL     1      48.411  34.686  41.634  0.00  0.00    +0.000 P 
BRANCH  21  22
ATOM     22  O   UNL     1      49.116  35.927  40.774  0.00  0.00    +0.000 OA
ATOM     23  H   UNL     1      49.038  35.699  39.812  0.00  0.00    +0.000 HD
ENDBRANCH  21  22
BRANCH  21  24
ATOM     24  O   UNL     1      48.990  34.587  43.225  0.00  0.00    +0.000 OA
ATOM     25  H   UNL     1      49.073  35.523  43.547  0.00  0.00    +0.000 HD
ENDBRANCH  21  24
ENDBRANCH  19  21
ENDBRANCH   3  19
TORSDOF 4
