
 OpenBabel03252509033D

 49 51  0  0  1  0  0  0  0  0999 V2000
   47.0650   34.2650   43.1010 N   0  0  0  0  0  0  0  0  0  0  0  0
   46.5500   35.4470   42.5240 C   0  0  0  0  0  0  0  0  0  0  0  0
   45.0500   35.6160   42.6950 C   0  0  0  0  0  0  0  0  0  0  0  0
   44.5160   35.0850   44.0040 C   0  0  0  0  0  0  0  0  0  0  0  0
   45.6430   34.5960   44.8950 C   0  0  0  0  0  0  0  0  0  0  0  0
   46.3550   33.5040   43.9950 C   0  0  2  0  0  0  0  0  0  0  0  0
   47.0360   36.3120   43.0390 H   0  0  0  0  0  0  0  0  0  0  0  0
   46.7480   35.5880   41.4560 H   0  0  0  0  0  0  0  0  0  0  0  0
   44.4940   35.1990   41.8220 H   0  0  0  0  0  0  0  0  0  0  0  0
   44.8260   36.7040   42.6740 H   0  0  0  0  0  0  0  0  0  0  0  0
   43.8940   34.1940   43.7680 H   0  0  0  0  0  0  0  0  0  0  0  0
   43.8520   35.7920   44.5270 H   0  0  0  0  0  0  0  0  0  0  0  0
   45.2230   34.1090   45.7820 H   0  0  0  0  0  0  0  0  0  0  0  0
   46.3570   35.3930   45.1050 H   0  0  0  0  0  0  0  0  0  0  0  0
   45.5550   32.8690   43.5640 H   0  0  0  0  0  0  0  0  0  0  0  0
   48.1080   33.6400   42.3310 C   0  0  0  0  0  0  0  0  0  0  0  0
   48.7620   33.1180   43.0570 H   0  0  0  0  0  0  0  0  0  0  0  0
   48.6740   34.4570   41.8370 H   0  0  0  0  0  0  0  0  0  0  0  0
   47.4690   32.7060   41.3660 C   0  0  0  0  0  0  0  0  0  0  0  0
   46.3650   32.8710   41.2880 H   0  0  0  0  0  0  0  0  0  0  0  0
   47.6220   31.6590   41.6460 H   0  0  0  0  0  0  0  0  0  0  0  0
   49.3760   32.2640   38.1600 C   0  0  0  0  0  0  0  0  0  0  0  0
   48.8560   32.0420   39.4490 C   0  0  0  0  0  0  0  0  0  0  0  0
   48.0050   32.9610   40.0050 C   0  0  0  0  0  0  0  0  0  0  0  0
   47.7060   34.0420   39.2790 N   0  0  0  0  0  0  0  0  0  0  0  0
   48.1940   34.2630   38.0530 C   0  0  0  0  0  0  0  0  0  0  0  0
   49.0360   33.3780   37.4750 N   0  0  0  0  0  0  0  0  0  0  0  0
   50.0390   31.4930   37.7950 H   0  0  0  0  0  0  0  0  0  0  0  0
   49.1130   31.1550   40.0250 H   0  0  0  0  0  0  0  0  0  0  0  0
   47.9610   35.1330   37.4530 H   0  0  0  0  0  0  0  0  0  0  0  0
   47.1460   32.8720   44.9350 O   0  0  0  0  0  0  0  0  0  0  0  0
   47.5350   30.3730   44.0930 O   0  0  0  0  0  0  0  0  0  0  0  0
   46.7780   31.2460   45.1050 P   0  0  2  0  0  0  0  0  0  0  0  0
   45.1350   31.0950   44.6180 O   0  0  0  0  0  0  0  0  0  0  0  0
   44.5370   31.2360   45.3770 H   0  0  0  0  0  0  0  0  0  0  0  0
   46.9040   30.6850   46.6670 O   0  0  0  0  0  0  0  0  0  0  0  0
   47.9320   29.7550   46.7280 C   0  0  0  0  0  0  0  0  0  0  0  0
   47.5280   28.7080   46.7110 H   0  0  0  0  0  0  0  0  0  0  0  0
   48.6470   29.8840   45.9020 H   0  0  0  0  0  0  0  0  0  0  0  0
   48.6000   29.9280   48.0050 N   0  0  0  0  0  0  0  0  0  0  0  0
   48.7400   31.0760   48.6910 C   0  0  0  0  0  3  0  0  0  0  0  0
   49.4060   31.0930   49.9050 C   0  0  0  0  0  0  0  0  0  0  0  0
   49.5040   32.0280   50.4360 H   0  0  0  0  0  0  0  0  0  0  0  0
   49.9430   29.9300   50.4420 C   0  0  0  0  0  0  0  0  0  0  0  0
   50.5490   29.9340   51.5420 O   0  0  0  0  0  0  0  0  0  0  0  0
   49.7790   28.8090   49.7240 N   0  0  0  0  0  0  0  0  0  0  0  0
   49.1310   28.8000   48.5440 C   0  0  0  0  0  0  0  0  0  0  0  0
   49.0560   27.6830   47.9890 O   0  0  0  0  0  0  0  0  0  0  0  0
   50.1970   27.9520   50.1570 H   0  0  0  0  0  0  0  0  0  0  0  0
  1  6  1  0  0  0  0
  2  3  1  0  0  0  0
  2  7  1  0  0  0  0
  2  1  1  0  0  0  0
  3  4  1  0  0  0  0
  4 12  1  0  0  0  0
  4  5  1  0  0  0  0
  5 14  1  0  0  0  0
  5 13  1  0  0  0  0
  6 15  1  6  0  0  0
  6  5  1  0  0  0  0
  6 31  1  0  0  0  0
  8  2  1  0  0  0  0
  9  3  1  0  0  0  0
 10  3  1  0  0  0  0
 11  4  1  0  0  0  0
 16 17  1  0  0  0  0
 16  1  1  0  0  0  0
 18 16  1  0  0  0  0
 19 21  1  0  0  0  0
 19 16  1  0  0  0  0
 20 19  1  0  0  0  0
 22 23  1  0  0  0  0
 23 24  2  0  0  0  0
 23 29  1  0  0  0  0
 24 19  1  0  0  0  0
 25 24  1  0  0  0  0
 26 25  2  0  0  0  0
 27 26  1  0  0  0  0
 27 22  2  0  0  0  0
 28 22  1  0  0  0  0
 30 26  1  0  0  0  0
 31 33  1  0  0  0  0
 33 32  2  6  0  0  0
 33 36  1  0  0  0  0
 34 33  1  0  0  0  0
 34 35  1  0  0  0  0
 36 37  1  0  0  0  0
 37 40  1  0  0  0  0
 38 37  1  0  0  0  0
 39 37  1  0  0  0  0
 40 47  1  0  0  0  0
 40 41  1  0  0  0  0
 41 42  2  0  0  0  0
 42 43  1  0  0  0  0
 42 44  1  0  0  0  0
 44 45  2  0  0  0  0
 46 49  1  0  0  0  0
 46 44  1  0  0  0  0
 47 46  1  0  0  0  0
 48 47  2  0  0  0  0
M  END
>  <minimizedAffinity>
-4.86277246

>  <minimizedRMSD>
2.51595354

$$$$
