
 OpenBabel03252505303D

 28 29  0  0  0  0  0  0  0  0999 V2000
   47.2550   32.7640   47.6270 O   0  0  0  0  0  0  0  0  0  0  0  0
   45.8470   32.4560   47.1000 P   0  0  1  0  0  0  0  0  0  0  0  0
   44.6950   33.4390   47.8030 O   0  0  0  0  0  0  0  0  0  0  0  0
   43.8910   32.9640   48.1350 H   0  0  0  0  0  0  0  0  0  0  0  0
   45.8930   32.6380   45.4110 O   0  0  0  0  0  0  0  0  0  0  0  0
   44.6190   35.8770   44.7250 C   0  0  0  0  0  0  0  0  0  0  0  0
   45.1240   36.2140   43.4470 C   0  0  0  0  0  0  0  0  0  0  0  0
   45.9400   35.2270   42.8470 C   0  0  0  0  0  0  0  0  0  0  0  0
   46.1740   34.0530   43.5240 N   0  0  0  0  0  0  0  0  0  0  0  0
   45.6560   33.8190   44.7290 C   0  0  0  0  0  0  0  0  0  0  0  0
   44.8860   34.7220   45.3210 N   0  0  0  0  0  0  0  0  0  0  0  0
   43.9820   36.6310   45.2080 H   0  0  0  0  0  0  0  0  0  0  0  0
   44.9110   37.1530   42.9500 H   0  0  0  0  0  0  0  0  0  0  0  0
   46.3670   35.4100   41.8660 H   0  0  0  0  0  0  0  0  0  0  0  0
   45.5070   30.8590   47.5350 O   0  0  0  0  0  0  0  0  0  0  0  0
   45.4650   30.1050   46.3750 C   0  0  0  0  0  0  0  0  0  0  0  0
   44.8560   30.5710   45.5770 H   0  0  0  0  0  0  0  0  0  0  0  0
   46.4540   29.9000   45.9300 H   0  0  0  0  0  0  0  0  0  0  0  0
   44.8550   28.8290   46.7180 N   0  0  0  0  0  0  0  0  0  0  0  0
   45.2110   28.1790   47.8570 C   0  0  0  0  0  0  0  0  0  0  0  0
   44.6060   26.9550   48.1550 C   0  0  0  0  0  0  0  0  0  0  0  0
   44.9110   26.4660   49.0670 H   0  0  0  0  0  0  0  0  0  0  0  0
   43.6690   26.4530   47.2770 C   0  0  0  0  0  0  0  0  0  0  0  0
   43.1690   25.3500   47.6110 O   0  0  0  0  0  0  0  0  0  0  0  0
   43.3140   27.0850   46.1550 N   0  0  0  0  0  0  0  0  0  0  0  0
   43.9300   28.2450   45.9360 C   0  0  0  0  0  0  0  0  0  0  0  0
   43.6410   28.9060   44.8810 O   0  0  0  0  0  0  0  0  0  0  0  0
   42.6030   26.6910   45.5030 H   0  0  0  0  0  0  0  0  0  0  0  0
  2 15  1  0  0  0  0
  2  1  2  1  0  0  0
  2  3  1  0  0  0  0
  3  4  1  0  0  0  0
  5  2  1  0  0  0  0
  6 12  1  0  0  0  0
  6 11  1  0  0  0  0
  7  6  2  0  0  0  0
  8  7  1  0  0  0  0
  8  9  2  0  0  0  0
  9 10  1  0  0  0  0
 10 11  2  0  0  0  0
 10  5  1  0  0  0  0
 13  7  1  0  0  0  0
 14  8  1  0  0  0  0
 16 19  1  0  0  0  0
 16 15  1  0  0  0  0
 17 16  1  0  0  0  0
 18 16  1  0  0  0  0
 19 20  1  0  0  0  0
 20 21  2  0  0  0  0
 21 22  1  0  0  0  0
 23 24  2  0  0  0  0
 23 21  1  0  0  0  0
 25 23  1  0  0  0  0
 26 25  1  0  0  0  0
 26 19  1  0  0  0  0
 27 26  2  0  0  0  0
 28 25  1  0  0  0  0
M  END
>  <minimizedAffinity>
-5.06707573

>  <minimizedRMSD>
0.859680474

$$$$
