
 OpenBabel03252508453D

 46 48  0  0  0  0  0  0  0  0999 V2000
   42.3300   31.6940   42.5570 N   0  0  0  0  0  0  0  0  0  0  0  0
   42.7690   30.7640   42.7440 H   0  0  0  0  0  0  0  0  0  0  0  0
   42.9920   32.5050   41.5890 C   0  0  0  0  0  0  0  0  0  0  0  0
   43.6400   31.8740   40.9140 H   0  0  0  0  0  0  0  0  0  0  0  0
   42.2240   32.9640   40.9420 H   0  0  0  0  0  0  0  0  0  0  0  0
   43.6500   34.9070   41.8750 C   0  0  0  0  0  0  0  0  0  0  0  0
   43.8750   33.5620   42.1570 C   0  0  0  0  0  0  0  0  0  0  0  0
   44.9340   33.2310   42.9770 C   0  0  0  0  0  0  0  0  0  0  0  0
   45.7330   34.2200   43.4880 C   0  0  0  0  0  0  0  0  0  0  0  0
   45.5350   35.5460   43.2270 C   0  0  0  0  0  0  0  0  0  0  0  0
   44.4640   35.8280   42.4030 C   0  0  0  0  0  0  0  0  0  0  0  0
   45.1450   32.1990   43.2220 H   0  0  0  0  0  0  0  0  0  0  0  0
   46.5690   33.9420   44.1370 H   0  0  0  0  0  0  0  0  0  0  0  0
   46.1350   36.3600   43.6050 H   0  0  0  0  0  0  0  0  0  0  0  0
   44.2250   36.8610   42.1370 H   0  0  0  0  0  0  0  0  0  0  0  0
   40.2610   35.8580   40.5130 C   0  0  0  0  0  0  0  0  0  0  0  0
   41.2770   35.6060   41.4430 C   0  0  0  0  0  0  0  0  0  0  0  0
   42.5180   35.1990   41.0040 C   0  0  0  0  0  0  0  0  0  0  0  0
   42.6740   35.0660   39.6550 N   0  0  0  0  0  0  0  0  0  0  0  0
   41.6900   35.3120   38.7640 C   0  0  0  0  0  0  0  0  0  0  0  0
   40.4850   35.7080   39.2080 N   0  0  0  0  0  0  0  0  0  0  0  0
   39.2860   36.1780   40.8620 H   0  0  0  0  0  0  0  0  0  0  0  0
   41.1360   35.7150   42.4900 H   0  0  0  0  0  0  0  0  0  0  0  0
   42.0110   35.1480   37.7300 H   0  0  0  0  0  0  0  0  0  0  0  0
   40.6640   31.4780   42.2080 S   0  0  0  0  0  0  0  0  0  0  0  0
   39.8750   32.7210   42.5490 O   0  0  0  0  0  0  0  0  0  0  0  0
   39.0700   32.7660   43.1190 H   0  0  0  0  0  0  0  0  0  0  0  0
   40.1160   30.3000   42.9340 O   0  0  0  0  0  0  0  0  0  0  0  0
   40.6150   29.4270   43.0130 H   0  0  0  0  0  0  0  0  0  0  0  0
   40.5230   31.2030   40.5550 O   0  0  0  0  0  0  0  0  0  0  0  0
   39.2550   30.6810   40.3160 C   0  0  0  0  0  0  0  0  0  0  0  0
   38.8130   31.2860   39.4800 H   0  0  0  0  0  0  0  0  0  0  0  0
   38.5770   30.6980   41.1640 H   0  0  0  0  0  0  0  0  0  0  0  0
   39.4080   29.2570   39.7460 C   0  0  0  0  0  0  0  0  0  0  0  0
   40.4740   28.9660   39.8240 H   0  0  0  0  0  0  0  0  0  0  0  0
   38.8270   28.5540   40.3530 H   0  0  0  0  0  0  0  0  0  0  0  0
   38.9270   29.2550   38.3810 N   0  0  0  0  0  0  0  0  0  0  0  0
   39.4580   30.1160   37.4830 C   0  0  0  0  0  3  0  0  0  0  0  0
   38.9590   30.0700   36.1870 C   0  0  0  0  0  0  0  0  0  0  0  0
   39.3550   30.7480   35.4160 H   0  0  0  0  0  0  0  0  0  0  0  0
   37.9650   29.1660   35.8810 C   0  0  0  0  0  0  0  0  0  0  0  0
   37.4760   29.0860   34.7080 O   0  0  0  0  0  0  0  0  0  0  0  0
   37.4680   28.3240   36.8210 N   0  0  0  0  0  0  0  0  0  0  0  0
   37.9560   28.3750   38.0710 C   0  0  0  0  0  0  0  0  0  0  0  0
   37.4900   27.5830   38.9580 O   0  0  0  0  0  0  0  0  0  0  0  0
   36.7170   27.6270   36.6270 H   0  0  0  0  0  0  0  0  0  0  0  0
  1  2  1  0  0  0  0
  3  7  1  0  0  0  0
  3  1  1  0  0  0  0
  4  3  1  0  0  0  0
  5  3  1  0  0  0  0
  6  7  2  0  0  0  0
  6 11  1  0  0  0  0
  7  8  1  0  0  0  0
  8 12  1  0  0  0  0
  8  9  2  0  0  0  0
  9 13  1  0  0  0  0
 10  9  1  0  0  0  0
 10 14  1  0  0  0  0
 11 10  2  0  0  0  0
 15 11  1  0  0  0  0
 16 22  1  0  0  0  0
 16 17  1  0  0  0  0
 17 23  1  0  0  0  0
 18 17  2  0  0  0  0
 18  6  1  0  0  0  0
 19 18  1  0  0  0  0
 20 21  1  0  0  0  0
 20 19  2  0  0  0  0
 21 16  2  0  0  0  0
 24 20  1  0  0  0  0
 25 26  1  0  0  0  0
 25  1  1  0  0  0  0
 25 28  1  0  0  0  0
 26 27  1  0  0  0  0
 28 29  1  0  0  0  0
 30 25  1  0  0  0  0
 31 30  1  0  0  0  0
 31 33  1  0  0  0  0
 32 31  1  0  0  0  0
 34 35  1  0  0  0  0
 34 31  1  0  0  0  0
 34 36  1  0  0  0  0
 37 34  1  0  0  0  0
 38 37  1  0  0  0  0
 39 38  2  0  0  0  0
 40 39  1  0  0  0  0
 41 39  1  0  0  0  0
 41 43  1  0  0  0  0
 42 41  2  0  0  0  0
 43 44  1  0  0  0  0
 44 37  1  0  0  0  0
 44 45  2  0  0  0  0
 46 43  1  0  0  0  0
M  END
>  <minimizedAffinity>
-5.23794794

>  <minimizedRMSD>
1.96639013

$$$$
