
 OpenBabel03252509033D

 49 51  0  0  1  0  0  0  0  0999 V2000
   46.7630   34.3440   43.6500 N   0  0  0  0  0  0  0  0  0  0  0  0
   46.3940   35.2430   42.6250 C   0  0  0  0  0  0  0  0  0  0  0  0
   44.8930   35.3760   42.4320 C   0  0  0  0  0  0  0  0  0  0  0  0
   44.0960   35.2760   43.7100 C   0  0  0  0  0  0  0  0  0  0  0  0
   45.0110   35.1670   44.9170 C   0  0  0  0  0  0  0  0  0  0  0  0
   45.8750   33.8810   44.5880 C   0  0  2  0  0  0  0  0  0  0  0  0
   46.7770   36.2530   42.9090 H   0  0  0  0  0  0  0  0  0  0  0  0
   46.8060   35.0360   41.6310 H   0  0  0  0  0  0  0  0  0  0  0  0
   44.5200   34.6670   41.6550 H   0  0  0  0  0  0  0  0  0  0  0  0
   44.6940   36.3840   42.0070 H   0  0  0  0  0  0  0  0  0  0  0  0
   43.5210   34.3240   43.6660 H   0  0  0  0  0  0  0  0  0  0  0  0
   43.3500   36.0790   43.8280 H   0  0  0  0  0  0  0  0  0  0  0  0
   44.4120   34.9760   45.8140 H   0  0  0  0  0  0  0  0  0  0  0  0
   45.6780   36.0260   44.9860 H   0  0  0  0  0  0  0  0  0  0  0  0
   45.1700   33.0980   44.2430 H   0  0  0  0  0  0  0  0  0  0  0  0
   47.9310   33.5580   43.3520 C   0  0  0  0  0  0  0  0  0  0  0  0
   48.3910   33.3010   44.3270 H   0  0  0  0  0  0  0  0  0  0  0  0
   48.6180   34.2130   42.7760 H   0  0  0  0  0  0  0  0  0  0  0  0
   47.4950   32.3570   42.5920 C   0  0  0  0  0  0  0  0  0  0  0  0
   46.4070   32.3930   42.3350 H   0  0  0  0  0  0  0  0  0  0  0  0
   47.6660   31.4320   43.1530 H   0  0  0  0  0  0  0  0  0  0  0  0
   50.0780   31.5570   39.9850 C   0  0  0  0  0  0  0  0  0  0  0  0
   49.3850   31.6140   41.2090 C   0  0  0  0  0  0  0  0  0  0  0  0
   48.2080   32.3110   41.2920 C   0  0  0  0  0  0  0  0  0  0  0  0
   47.7690   32.9120   40.1810 N   0  0  0  0  0  0  0  0  0  0  0  0
   48.4200   32.8650   39.0130 C   0  0  0  0  0  0  0  0  0  0  0  0
   49.5830   32.1870   38.8960 N   0  0  0  0  0  0  0  0  0  0  0  0
   50.9960   30.9890   40.0040 H   0  0  0  0  0  0  0  0  0  0  0  0
   49.7600   31.1180   42.1010 H   0  0  0  0  0  0  0  0  0  0  0  0
   48.0770   33.3470   38.1060 H   0  0  0  0  0  0  0  0  0  0  0  0
   46.4490   33.6360   45.8200 O   0  0  0  0  0  0  0  0  0  0  0  0
   45.5820   31.1750   45.2720 O   0  0  0  0  0  0  0  0  0  0  0  0
   46.1680   32.0760   46.3680 P   0  0  2  0  0  0  0  0  0  0  0  0
   44.8840   32.2150   47.5060 O   0  0  0  0  0  0  0  0  0  0  0  0
   45.2350   32.3900   48.4000 H   0  0  0  0  0  0  0  0  0  0  0  0
   47.4700   31.3890   47.1450 O   0  0  0  0  0  0  0  0  0  0  0  0
   47.9400   30.3300   46.3830 C   0  0  0  0  0  0  0  0  0  0  0  0
   47.0900   29.7640   45.9150 H   0  0  0  0  0  0  0  0  0  0  0  0
   48.6290   30.6700   45.5950 H   0  0  0  0  0  0  0  0  0  0  0  0
   48.6140   29.4110   47.2810 N   0  0  0  0  0  0  0  0  0  0  0  0
   49.8230   29.5800   47.8460 C   0  0  0  0  0  3  0  0  0  0  0  0
   50.3450   28.6140   48.6900 C   0  0  0  0  0  0  0  0  0  0  0  0
   51.3180   28.7740   49.1280 H   0  0  0  0  0  0  0  0  0  0  0  0
   49.6380   27.4530   48.9720 C   0  0  0  0  0  0  0  0  0  0  0  0
   50.1020   26.5720   49.7360 O   0  0  0  0  0  0  0  0  0  0  0  0
   48.4370   27.3280   48.3880 N   0  0  0  0  0  0  0  0  0  0  0  0
   47.9340   28.2700   47.5690 C   0  0  0  0  0  0  0  0  0  0  0  0
   46.8060   28.0170   47.0980 O   0  0  0  0  0  0  0  0  0  0  0  0
   47.9300   26.4420   48.6230 H   0  0  0  0  0  0  0  0  0  0  0  0
  1  6  1  0  0  0  0
  2  7  1  0  0  0  0
  2  1  1  0  0  0  0
  3  2  1  0  0  0  0
  3  4  1  0  0  0  0
  4 12  1  0  0  0  0
  4  5  1  0  0  0  0
  5 14  1  0  0  0  0
  5 13  1  0  0  0  0
  6 15  1  6  0  0  0
  6  5  1  0  0  0  0
  6 31  1  0  0  0  0
  8  2  1  0  0  0  0
  9  3  1  0  0  0  0
 10  3  1  0  0  0  0
 11  4  1  0  0  0  0
 16  1  1  0  0  0  0
 16 17  1  0  0  0  0
 18 16  1  0  0  0  0
 19 21  1  0  0  0  0
 19 16  1  0  0  0  0
 20 19  1  0  0  0  0
 22 28  1  0  0  0  0
 22 23  1  0  0  0  0
 23 24  2  0  0  0  0
 23 29  1  0  0  0  0
 24 19  1  0  0  0  0
 25 24  1  0  0  0  0
 26 25  2  0  0  0  0
 27 26  1  0  0  0  0
 27 22  2  0  0  0  0
 30 26  1  0  0  0  0
 31 33  1  0  0  0  0
 33 32  2  6  0  0  0
 33 36  1  0  0  0  0
 33 34  1  0  0  0  0
 34 35  1  0  0  0  0
 37 36  1  0  0  0  0
 37 40  1  0  0  0  0
 38 37  1  0  0  0  0
 39 37  1  0  0  0  0
 40 47  1  0  0  0  0
 40 41  1  0  0  0  0
 41 42  2  0  0  0  0
 42 44  1  0  0  0  0
 42 43  1  0  0  0  0
 44 45  2  0  0  0  0
 46 49  1  0  0  0  0
 46 44  1  0  0  0  0
 47 46  1  0  0  0  0
 48 47  2  0  0  0  0
M  END
>  <minimizedAffinity>
-4.6717

>  <minimizedRMSD>
1.71514404

$$$$
