
 OpenBabel03252507063D

 25 26  0  0  0  0  0  0  0  0999 V2000
   44.6030   36.0200   44.5160 C   0  0  0  0  0  0  0  0  0  0  0  0
   45.2480   36.0520   43.2500 C   0  0  0  0  0  0  0  0  0  0  0  0
   46.0830   34.9880   42.9270 C   0  0  0  0  0  0  0  0  0  0  0  0
   46.2430   33.9720   43.8330 N   0  0  0  0  0  0  0  0  0  0  0  0
   45.6090   33.9820   45.0300 C   0  0  0  0  0  0  0  0  0  0  0  0
   44.7940   35.0000   45.3690 N   0  0  0  0  0  0  0  0  0  0  0  0
   43.9510   36.8260   44.7980 H   0  0  0  0  0  0  0  0  0  0  0  0
   45.0560   36.9050   42.6000 H   0  0  0  0  0  0  0  0  0  0  0  0
   45.9410   32.8210   45.7810 N   0  0  0  0  0  0  0  0  0  0  0  0
   46.1180   32.9800   47.1080 C   0  0  0  0  0  3  0  0  0  0  0  0
   46.4460   31.8450   47.8590 C   0  0  0  0  0  0  0  0  0  0  0  0
   46.5900   31.9550   48.9190 H   0  0  0  0  0  0  0  0  0  0  0  0
   46.5650   30.6420   47.1950 C   0  0  0  0  0  0  0  0  0  0  0  0
   46.8600   29.6130   47.8680 O   0  0  0  0  0  0  0  0  0  0  0  0
   46.3780   30.5280   45.8670 N   0  0  0  0  0  0  0  0  0  0  0  0
   46.0630   31.6350   45.1580 C   0  0  0  0  0  0  0  0  0  0  0  0
   45.8970   31.4850   43.9200 O   0  0  0  0  0  0  0  0  0  0  0  0
   46.4830   29.5810   45.4190 H   0  0  0  0  0  0  0  0  0  0  0  0
   46.7140   35.0140   41.6930 O   0  0  0  0  0  0  0  0  0  0  0  0
   48.6240   33.3360   40.9360 O   0  0  0  0  0  0  0  0  0  0  0  0
   48.3990   34.6970   41.6030 P   0  0  0  0  0  0  0  0  0  0  0  0
   49.1270   35.9320   40.7540 O   0  0  0  0  0  0  0  0  0  0  0  0
   49.0470   35.7130   39.7900 H   0  0  0  0  0  0  0  0  0  0  0  0
   48.9730   34.5760   43.1940 O   0  0  0  0  0  0  0  0  0  0  0  0
   49.0720   35.5080   43.5240 H   0  0  0  0  0  0  0  0  0  0  0  0
  1  7  1  0  0  0  0
  1  6  1  0  0  0  0
  2  1  2  0  0  0  0
  3  2  1  0  0  0  0
  3  4  2  0  0  0  0
  4  5  1  0  0  0  0
  5  6  2  0  0  0  0
  5  9  1  0  0  0  0
  8  2  1  0  0  0  0
  9 10  1  0  0  0  0
 10 11  2  0  0  0  0
 11 12  1  0  0  0  0
 13 11  1  0  0  0  0
 13 14  2  0  0  0  0
 15 13  1  0  0  0  0
 16  9  1  0  0  0  0
 16 15  1  0  0  0  0
 17 16  2  0  0  0  0
 18 15  1  0  0  0  0
 19  3  1  0  0  0  0
 20 21  2  0  0  0  0
 21 19  1  0  0  0  0
 21 24  1  0  0  0  0
 22 21  1  0  0  0  0
 23 22  1  0  0  0  0
 24 25  1  0  0  0  0
M  END
>  <minimizedAffinity>
-5.89860201

>  <minimizedRMSD>
0.161205411

$$$$
