
     RDKit          3D

 26 27  0  0  0  0  0  0  0  0999 V2000
   44.5840   35.9872   44.5257 C   0  0  0  0  0  0  0  0  0  0  0  0
   45.2230   36.0037   43.2558 C   0  0  0  0  0  0  0  0  0  0  0  0
   46.0953   34.9627   42.9620 C   0  0  0  0  0  0  0  0  0  0  0  0
   46.2957   33.9823   43.8981 N   0  0  0  0  0  0  0  0  0  0  0  0
   45.6659   34.0053   45.0966 C   0  0  0  0  0  0  0  0  0  0  0  0
   44.8153   35.0020   45.4079 N   0  0  0  0  0  0  0  0  0  0  0  0
   46.7209   34.9740   41.7253 O   0  0  0  0  0  0  0  0  0  0  0  0
   48.6576   33.3242   40.9768 O   0  0  0  0  0  0  0  0  0  0  0  0
   48.4110   34.6856   41.6343 P   0  0  0  0  0  0  0  0  0  0  0  0
   49.1164   35.9266   40.7737 O   0  0  0  0  0  0  0  0  0  0  0  0
   48.9898   34.5874   43.2247 O   0  0  0  0  0  0  0  0  0  0  0  0
   43.9029   36.7774   44.7857 H   0  0  0  0  0  0  0  0  0  0  0  0
   44.9968   36.8286   42.5808 H   0  0  0  0  0  0  0  0  0  0  0  0
   49.0383   35.6989   39.8122 H   0  0  0  0  0  0  0  0  0  0  0  0
   49.0731   35.5228   43.5472 H   0  0  0  0  0  0  0  0  0  0  0  0
   46.0440   32.8796   45.8824 N   0  0  0  0  0  0  0  0  0  0  0  0
   47.2157   32.9607   46.5428 C   0  0  0  0  0  0  0  0  0  0  0  0
   47.5988   31.8603   47.3190 C   0  0  0  0  0  0  0  0  0  0  0  0
   48.5315   31.9094   47.8524 H   0  0  0  0  0  0  0  0  0  0  0  0
   46.7561   30.7695   47.3573 C   0  0  0  0  0  0  0  0  0  0  0  0
   47.0961   29.7735   48.0558 O   0  0  0  0  0  0  0  0  0  0  0  0
   45.5930   30.7324   46.6802 N   0  0  0  0  0  0  0  0  0  0  0  0
   45.2382   31.8034   45.9355 C   0  0  0  0  0  0  0  0  0  0  0  0
   44.1443   31.7268   45.3194 O   0  0  0  0  0  0  0  0  0  0  0  0
   47.8199   33.8536   46.4603 H   0  0  0  0  0  0  0  0  0  0  0  0
   44.9927   29.8698   46.7500 H   0  0  0  0  0  0  0  0  0  0  0  0
  1  6  2  0
  2  1  1  0
  3  2  2  0
  3  4  1  0
  4  5  2  0
  5  6  1  0
  7  3  1  0
  8  9  2  0
  9  7  1  0
  9 11  1  0
 10  9  1  0
  1 12  1  0
  2 13  1  0
 10 14  1  0
 11 15  1  0
 16 17  1  0
 17 18  2  0
 18 19  1  0
 18 20  1  0
 20 21  2  0
 20 22  1  0
 22 23  1  0
 23 24  2  0
 23 16  1  0
 17 25  1  0
 22 26  1  0
  5 16  1  0
M  ISO  5  12  14  13  14  14   3  15   3  19  16
M  END
>  <DihAtoms>  (1) 
3,4,15,16

>  <DihDeg>  (1) 
81.09645391317112

$$$$
