
 OpenBabel03252502593D

 23 24  0  0  0  0  0  0  0  0999 V2000
   43.2030   33.8520   41.1270 C   0  0  0  0  0  0  0  0  0  0  0  0
   43.7380   32.9530   40.7360 H   0  0  0  0  0  0  0  0  0  0  0  0
   42.4750   33.5380   41.9070 H   0  0  0  0  0  0  0  0  0  0  0  0
   42.5370   34.5660   40.0270 N   0  0  0  0  0  0  0  0  0  0  0  0
   41.4950   35.3530   40.3210 C   0  0  0  0  0  3  0  0  0  0  0  0
   40.9290   35.9860   39.2170 C   0  0  0  0  0  0  0  0  0  0  0  0
   40.0650   36.6560   39.3560 H   0  0  0  0  0  0  0  0  0  0  0  0
   41.4380   35.7910   37.9290 C   0  0  0  0  0  0  0  0  0  0  0  0
   40.9470   36.3500   36.9200 O   0  0  0  0  0  0  0  0  0  0  0  0
   42.4960   34.9740   37.7470 N   0  0  0  0  0  0  0  0  0  0  0  0
   43.0590   34.3510   38.7960 C   0  0  0  0  0  0  0  0  0  0  0  0
   44.0510   33.5820   38.6370 O   0  0  0  0  0  0  0  0  0  0  0  0
   42.8970   34.8100   36.7910 H   0  0  0  0  0  0  0  0  0  0  0  0
   44.4230   35.0170   41.7820 S   0  0  0  0  0  0  0  0  0  0  0  0
   44.4360   35.4800   44.5250 C   0  0  0  0  0  0  0  0  0  0  0  0
   44.7980   34.6030   43.4840 C   0  0  0  0  0  0  0  0  0  0  0  0
   45.4470   33.4170   43.7810 C   0  0  0  0  0  0  0  0  0  0  0  0
   45.7090   33.1500   45.0940 N   0  0  0  0  0  0  0  0  0  0  0  0
   45.3490   34.0080   46.0600 C   0  0  0  0  0  0  0  0  0  0  0  0
   44.7260   35.1530   45.8120 N   0  0  0  0  0  0  0  0  0  0  0  0
   43.9340   36.3860   44.2300 H   0  0  0  0  0  0  0  0  0  0  0  0
   45.7490   32.7010   43.0050 H   0  0  0  0  0  0  0  0  0  0  0  0
   45.5300   33.8510   47.1190 H   0  0  0  0  0  0  0  0  0  0  0  0
  1 14  1  0  0  0  0
  1  3  1  0  0  0  0
  2  1  1  0  0  0  0
  4  5  1  0  0  0  0
  4  1  1  0  0  0  0
  6  7  1  0  0  0  0
  6  5  2  0  0  0  0
  8  6  1  0  0  0  0
  9  8  2  0  0  0  0
 10  8  1  0  0  0  0
 10 11  1  0  0  0  0
 11  4  1  0  0  0  0
 12 11  2  0  0  0  0
 13 10  1  0  0  0  0
 14 16  1  0  0  0  0
 15 20  1  0  0  0  0
 16 17  1  0  0  0  0
 16 15  2  0  0  0  0
 17 18  2  0  0  0  0
 18 19  1  0  0  0  0
 19 23  1  0  0  0  0
 20 19  2  0  0  0  0
 21 15  1  0  0  0  0
 22 17  1  0  0  0  0
M  END
>  <minimizedAffinity>
-4.42721891

>  <minimizedRMSD>
1.26698899

$$$$
