
 OpenBabel03242510083D

 29 31  0  0  0  0  0  0  0  0999 V2000
   44.8220   32.8720   41.2350 Br  0  0  0  0  0  0  0  0  0  0  0  0
   46.4440   33.8710   40.9510 C   0  0  0  0  0  0  0  0  0  0  0  0
   46.9080   34.7210   41.9250 C   0  0  0  0  0  0  0  0  0  0  0  0
   48.0790   35.4530   41.7380 C   0  0  0  0  0  0  0  0  0  0  0  0
   48.7510   35.3010   40.5600 C   0  0  0  0  0  0  0  0  0  0  0  0
   48.2470   34.4380   39.6110 C   0  0  0  0  0  0  0  0  0  0  0  0
   47.1090   33.7100   39.7640 C   0  0  0  0  0  0  0  0  0  0  0  0
   48.3680   36.0990   42.5620 H   0  0  0  0  0  0  0  0  0  0  0  0
   49.6440   35.8870   40.4690 H   0  0  0  0  0  0  0  0  0  0  0  0
   48.8240   34.3610   38.7010 H   0  0  0  0  0  0  0  0  0  0  0  0
   46.6560   32.8370   38.7320 N   0  0  0  0  0  0  0  0  0  0  0  0
   45.8550   33.4770   37.8410 C   0  0  0  0  0  0  0  0  0  0  0  0
   45.3300   32.7580   36.7680 C   0  0  0  0  0  0  0  0  0  0  0  0
   44.6880   33.2270   36.0350 H   0  0  0  0  0  0  0  0  0  0  0  0
   45.6750   31.4240   36.6980 C   0  0  0  0  0  0  0  0  0  0  0  0
   45.2140   30.7300   35.7290 O   0  0  0  0  0  0  0  0  0  0  0  0
   46.4690   30.7990   37.5860 N   0  0  0  0  0  0  0  0  0  0  0  0
   46.9560   31.5300   38.6060 C   0  0  0  0  0  0  0  0  0  0  0  0
   47.7130   31.1250   39.5350 O   0  0  0  0  0  0  0  0  0  0  0  0
   46.7460   29.8070   37.5620 H   0  0  0  0  0  0  0  0  0  0  0  0
   45.6500   34.0400   45.2960 C   0  0  0  0  0  0  0  0  0  0  0  0
   44.7150   35.0880   45.5110 C   0  0  0  0  0  0  0  0  0  0  0  0
   44.5370   36.0130   44.4830 C   0  0  0  0  0  0  0  0  0  0  0  0
   45.2590   35.8620   43.3460 N   0  0  0  0  0  0  0  0  0  0  0  0
   46.1490   34.8470   43.1690 C   0  0  0  0  0  0  0  0  0  0  0  0
   46.3260   33.9550   44.1510 N   0  0  0  0  0  0  0  0  0  0  0  0
   45.8570   33.2750   46.0330 H   0  0  0  0  0  0  0  0  0  0  0  0
   44.2020   35.0970   46.4590 H   0  0  0  0  0  0  0  0  0  0  0  0
   43.8370   36.8000   44.6370 H   0  0  0  0  0  0  0  0  0  0  0  0
  2  1  1  0  0  0  0
  2  3  1  0  0  0  0
  3 25  1  0  0  0  0
  4  3  2  0  0  0  0
  4  8  1  0  0  0  0
  5  4  1  0  0  0  0
  6  7  1  0  0  0  0
  6  5  2  0  0  0  0
  7  2  2  0  0  0  0
  9  5  1  0  0  0  0
 10  6  1  0  0  0  0
 11  7  1  0  0  0  0
 12 11  1  0  0  0  0
 13 12  2  0  0  0  0
 14 13  1  0  0  0  0
 15 13  1  0  0  0  0
 15 17  1  0  0  0  0
 16 15  2  0  0  0  0
 17 18  1  0  0  0  0
 18 11  1  0  0  0  0
 18 19  2  0  0  0  0
 20 17  1  0  0  0  0
 21 22  1  0  0  0  0
 21 27  1  0  0  0  0
 22 28  1  0  0  0  0
 23 29  1  0  0  0  0
 23 22  2  0  0  0  0
 24 23  1  0  0  0  0
 25 24  2  0  0  0  0
 25 26  1  0  0  0  0
 26 21  2  0  0  0  0
M  END
>  <minimizedAffinity>
-5.3907342

>  <minimizedRMSD>
0.595586121

$$$$
