
     RDKit          3D

 46 49  0  0  0  0  0  0  0  0999 V2000
   45.0007   34.9085   44.9069 C   0  0  0  0  0  0  0  0  0  0  0  0
   45.9045   34.7226   43.8655 C   0  0  0  0  0  0  0  0  0  0  0  0
   46.7884   33.6494   43.9765 C   0  0  0  0  0  0  0  0  0  0  0  0
   46.7646   32.8274   45.0475 N   0  0  0  0  0  0  0  0  0  0  0  0
   45.8681   33.0416   46.0428 C   0  0  0  0  0  0  0  0  0  0  0  0
   44.9909   34.0754   45.9754 N   0  0  0  0  0  0  0  0  0  0  0  0
   47.3232   31.8270   47.6533 C   0  0  2  0  0  0  0  0  0  0  0  0
   45.8707   32.1250   47.1820 C   0  0  1  0  0  0  0  0  0  0  0  0
   45.3693   32.6221   48.3373 O   0  0  0  0  0  0  0  0  0  0  0  0
   45.7483   31.7984   49.3534 C   0  0  0  0  0  0  0  0  0  0  0  0
   46.9493   30.9916   48.8836 C   0  0  2  0  0  0  0  0  0  0  0  0
   47.9138   32.9534   48.0899 O   0  0  0  0  0  0  0  0  0  0  0  0
   47.9654   30.9184   49.8054 O   0  0  0  0  0  0  0  0  0  0  0  0
   45.9180   35.6109   42.7134 C   0  0  0  0  0  0  0  0  0  0  0  0
   44.9372   35.1742   41.7127 C   0  0  0  0  0  0  0  0  0  0  0  0
   43.6602   35.6724   41.5867 C   0  0  0  0  0  0  0  0  0  0  0  0
   42.7732   35.2214   40.6373 C   0  0  0  0  0  0  0  0  0  0  0  0
   43.1913   34.2220   39.7749 C   0  0  0  0  0  0  0  0  0  0  0  0
   44.4850   33.7075   39.8915 C   0  0  0  0  0  0  0  0  0  0  0  0
   45.3710   34.1827   40.8650 C   0  0  0  0  0  0  0  0  0  0  0  0
   44.3202   35.7217   44.8389 H   0  0  0  0  0  0  0  0  0  0  0  0
   47.5310   33.4228   43.2580 H   0  0  0  0  0  0  0  0  0  0  0  0
   47.8480   31.2388   46.8926 H   0  0  0  0  0  0  0  0  0  0  0  0
   45.3990   31.1566   46.9002 H   0  0  0  0  0  0  0  0  0  0  0  0
   46.0909   32.4172   50.2105 H   0  0  0  0  0  0  0  0  0  0  0  0
   44.9432   31.1483   49.7417 H   0  0  0  0  0  0  0  0  0  0  0  0
   46.5595   29.9946   48.5875 H   0  0  0  0  0  0  0  0  0  0  0  0
   48.9079   32.8563   48.0250 H   0  0  0  0  0  0  0  0  0  0  0  0
   47.8081   31.5207   50.5517 H   0  0  0  0  0  0  0  0  0  0  0  0
   45.6180   36.6342   43.0456 H   0  0  0  0  0  0  0  0  0  0  0  0
   46.9396   35.7466   42.3058 H   0  0  0  0  0  0  0  0  0  0  0  0
   43.4588   36.4564   42.3298 H   0  0  0  0  0  0  0  0  0  0  0  0
   41.7946   35.6889   40.6329 H   0  0  0  0  0  0  0  0  0  0  0  0
   42.4219   33.9396   39.0699 H   0  0  0  0  0  0  0  0  0  0  0  0
   44.5963   32.9415   39.1219 H   0  0  0  0  0  0  0  0  0  0  0  0
   46.5627   33.4453   40.6668 N   0  0  0  0  0  0  0  0  0  0  0  0
   46.4686   32.3997   39.7871 C   0  0  0  0  0  0  0  0  0  0  0  0
   47.5352   31.5616   39.4485 C   0  0  0  0  0  0  0  0  0  0  0  0
   47.3769   30.7577   38.7448 H   0  0  0  0  0  0  0  0  0  0  0  0
   48.7227   31.8392   40.0546 C   0  0  0  0  0  0  0  0  0  0  0  0
   49.7262   31.1148   39.7886 O   0  0  0  0  0  0  0  0  0  0  0  0
   48.8380   32.8587   40.9193 N   0  0  0  0  0  0  0  0  0  0  0  0
   47.7875   33.6113   41.1934 C   0  0  0  0  0  0  0  0  0  0  0  0
   47.9017   34.5661   42.0015 O   0  0  0  0  0  0  0  0  0  0  0  0
   45.5248   32.1755   39.3024 H   0  0  0  0  0  0  0  0  0  0  0  0
   49.7454   33.0680   41.3802 H   0  0  0  0  0  0  0  0  0  0  0  0
  1  6  2  0
  2  3  2  0
  2  1  1  0
  3  4  1  0
  4  5  2  0
  5  8  1  0
  6  5  1  0
  7 12  1  0
  7 11  1  0
  8  7  1  0
  8  9  1  0
  9 10  1  0
 11 10  1  0
 11 13  1  0
 14  2  1  0
 15 14  1  0
 16 15  2  0
 17 16  1  0
 18 19  1  0
 18 17  2  0
 19 20  2  0
 20 15  1  0
  1 21  1  0
  3 22  1  0
  7 23  1  6
  8 24  1  6
 10 25  1  0
 10 26  1  0
 11 27  1  6
 12 28  1  0
 13 29  1  0
 14 30  1  0
 14 31  1  0
 16 32  1  0
 17 33  1  0
 18 34  1  0
 19 35  1  0
 36 37  1  0
 37 38  2  0
 38 39  1  0
 38 40  1  0
 40 41  2  0
 40 42  1  0
 42 43  1  0
 43 44  2  0
 43 36  1  0
 37 45  1  0
 42 46  1  0
 20 36  1  0
M  ISO  8  21  14  22  14  23  13  24  13  25  13  26  13  27  13  28   3
M  ISO  8  29   3  30   8  31   8  32  14  33  14  34  14  35  14  39  16
M  END
>  <DihAtoms>  (1) 
18,19,35,36

>  <DihDeg>  (1) 
-69.3025034529852

$$$$
