REMARK  Name = 
REMARK  3 active torsions:
REMARK  status: ('A' for Active; 'I' for Inactive)
REMARK    1  A    between atoms: C_1  and  C_18
REMARK    2  A    between atoms: C_3  and  C_4
REMARK    3  A    between atoms: C_16  and  N_33
REMARK                            x       y       z     vdW  Elec       q    Type
REMARK                         _______ _______ _______ _____ _____    ______ ____
ROOT
ATOM      1  C   UNL     1      46.381  32.667  45.868  0.00  0.00    +0.000 C 
ATOM      2  C   UNL     1      46.967  32.835  47.205  0.00  0.00    +0.000 C 
ATOM      3  C   UNL     1      45.541  32.206  46.953  0.00  0.00    +0.000 C 
ATOM      4  H   UNL     1      47.141  32.029  45.288  0.00  0.00    +0.000 HD
ATOM      5  H   UNL     1      46.956  33.791  47.736  0.00  0.00    +0.000 HD
ATOM      6  H   UNL     1      47.614  32.083  47.695  0.00  0.00    +0.000 HD
ATOM      7  H   UNL     1      44.851  32.880  47.553  0.00  0.00    +0.000 HD
ENDROOT
BRANCH   3   8
ATOM      8  C   UNL     1      45.300  30.803  47.302  0.00  0.00    +0.000 A 
ATOM      9  C   UNL     1      45.175  30.265  48.545  0.00  0.00    +0.000 A 
ATOM     10  C   UNL     1      45.076  28.913  48.839  0.00  0.00    +0.000 A 
ATOM     11  C   UNL     1      45.109  28.032  47.748  0.00  0.00    +0.000 A 
ATOM     12  C   UNL     1      45.233  28.559  46.463  0.00  0.00    +0.000 A 
ATOM     13  C   UNL     1      45.198  27.657  45.418  0.00  0.00    +0.000 A 
ATOM     14  C   UNL     1      45.246  28.139  44.111  0.00  0.00    +0.000 A 
ATOM     15  C   UNL     1      45.325  29.495  43.857  0.00  0.00    +0.000 A 
ATOM     16  C   UNL     1      45.359  30.340  44.942  0.00  0.00    +0.000 A 
ATOM     17  C   UNL     1      45.322  29.912  46.259  0.00  0.00    +0.000 A 
ATOM     18  H   UNL     1      45.155  30.990  49.362  0.00  0.00    +0.000 HD
ATOM     19  H   UNL     1      44.979  28.543  49.830  0.00  0.00    +0.000 HD
ATOM     20  H   UNL     1      45.037  26.977  47.940  0.00  0.00    +0.000 HD
ATOM     21  H   UNL     1      45.133  26.588  45.639  0.00  0.00    +0.000 HD
ATOM     22  H   UNL     1      45.214  27.329  43.364  0.00  0.00    +0.000 HD
ATOM     23  H   UNL     1      45.348  29.658  42.810  0.00  0.00    +0.000 HD
ATOM     24  H   UNL     1      45.333  31.299  44.507  0.00  0.00    +0.000 HD
ENDBRANCH   3   8
BRANCH   1  29
ATOM     25  C   UNL     1      44.602  35.732  44.832  0.00  0.00    +0.000 A 
ATOM     26  C   UNL     1      45.144  35.970  43.520  0.00  0.00    +0.000 A 
ATOM     27  C   UNL     1      46.133  35.058  43.033  0.00  0.00    +0.000 A 
ATOM     28  N   UNL     1      46.515  34.022  43.811  0.00  0.00    +0.000 NA
ATOM     29  C   UNL     1      45.955  33.849  45.060  0.00  0.00    +0.000 A 
ATOM     30  N   UNL     1      45.034  34.675  45.549  0.00  0.00    +0.000 NA
ATOM     31  H   UNL     1      43.865  36.463  45.122  0.00  0.00    +0.000 HD
ATOM     32  H   UNL     1      44.841  36.793  42.900  0.00  0.00    +0.000 HD
BRANCH  27  33
ATOM     33  N   UNL     1      46.678  35.281  41.739  0.00  0.00    +0.000 N 
ATOM     34  C   UNL     1      46.670  34.206  40.927  0.00  0.00    +0.000 A 
ATOM     35  C   UNL     1      47.174  34.299  39.644  0.00  0.00    +0.000 A 
ATOM     36  H   UNL     1      47.180  33.448  38.968  0.00  0.00    +0.000 HD
ATOM     37  C   UNL     1      47.691  35.502  39.187  0.00  0.00    +0.000 A 
ATOM     38  O   UNL     1      48.153  35.601  38.019  0.00  0.00    +0.000 OA
ATOM     39  N   UNL     1      47.672  36.542  40.043  0.00  0.00    +0.000 N 
ATOM     40  C   UNL     1      47.179  36.448  41.296  0.00  0.00    +0.000 A 
ATOM     41  O   UNL     1      47.156  37.413  42.106  0.00  0.00    +0.000 OA
ATOM     42  H   UNL     1      48.053  37.441  39.715  0.00  0.00    +0.000 HD
ENDBRANCH  27  33
ENDBRANCH   1  29
TORSDOF 3
