
 OpenBabel03252509313D

 28 29  0  0  0  0  0  0  0  0999 V2000
   50.5240   32.2990   42.6060 O   0  0  0  0  0  0  0  0  0  0  0  0
   49.5880   33.4370   42.3460 P   0  0  2  0  0  0  0  0  0  0  0  0
   50.1090   34.8870   43.0250 O   0  0  0  0  0  0  0  0  0  0  0  0
   49.9100   34.9430   43.9940 H   0  0  0  0  0  0  0  0  0  0  0  0
   48.0650   33.0920   42.9990 O   0  0  0  0  0  0  0  0  0  0  0  0
   47.2390   34.1780   42.7180 C   0  0  0  0  0  0  0  0  0  0  0  0
   46.6060   33.9770   41.8050 H   0  0  0  0  0  0  0  0  0  0  0  0
   47.7940   35.1150   42.5080 H   0  0  0  0  0  0  0  0  0  0  0  0
   45.4600   33.8990   45.9890 C   0  0  0  0  0  0  0  0  0  0  0  0
   46.3590   33.6180   44.9390 C   0  0  0  0  0  0  0  0  0  0  0  0
   46.3140   34.4430   43.8320 C   0  0  0  0  0  0  0  0  0  0  0  0
   45.4130   35.4790   43.8080 N   0  0  0  0  0  0  0  0  0  0  0  0
   44.5680   35.7180   44.8330 C   0  0  0  0  0  0  0  0  0  0  0  0
   44.5950   34.9300   45.9140 N   0  0  0  0  0  0  0  0  0  0  0  0
   45.4690   33.2800   46.8590 H   0  0  0  0  0  0  0  0  0  0  0  0
   47.0620   32.8040   44.9660 H   0  0  0  0  0  0  0  0  0  0  0  0
   43.9030   36.5610   44.7030 H   0  0  0  0  0  0  0  0  0  0  0  0
   49.3980   33.6080   40.6720 O   0  0  0  0  0  0  0  0  0  0  0  0
   46.0780   31.5820   38.5960 H   0  0  0  0  0  0  0  0  0  0  0  0
   47.1180   31.5900   38.7630 N   0  0  0  0  0  0  0  0  0  0  0  0
   47.5370   32.5650   39.5800 C   0  0  0  0  0  3  0  0  0  0  0  0
   48.9080   32.6330   39.8440 C   0  0  0  0  0  0  0  0  0  0  0  0
   49.7440   31.6960   39.2500 C   0  0  0  0  0  0  0  0  0  0  0  0
   50.9820   31.7300   39.4670 O   0  0  0  0  0  0  0  0  0  0  0  0
   49.2050   30.7570   38.4430 N   0  0  0  0  0  0  0  0  0  0  0  0
   47.8710   30.6740   38.1740 C   0  0  0  0  0  0  0  0  0  0  0  0
   47.4370   29.7730   37.4110 O   0  0  0  0  0  0  0  0  0  0  0  0
   49.8930   30.0680   38.0180 H   0  0  0  0  0  0  0  0  0  0  0  0
  2  1  2  1  0  0  0
  2  5  1  0  0  0  0
  2  3  1  0  0  0  0
  3  4  1  0  0  0  0
  6  5  1  0  0  0  0
  6 11  1  0  0  0  0
  7  6  1  0  0  0  0
  8  6  1  0  0  0  0
  9 15  1  0  0  0  0
 10 16  1  0  0  0  0
 10  9  2  0  0  0  0
 11 10  1  0  0  0  0
 12 11  2  0  0  0  0
 12 13  1  0  0  0  0
 13 14  2  0  0  0  0
 14  9  1  0  0  0  0
 17 13  1  0  0  0  0
 18  2  1  0  0  0  0
 19 20  1  0  0  0  0
 20 21  1  0  0  0  0
 21 22  2  0  0  0  0
 22 18  1  0  0  0  0
 23 24  2  0  0  0  0
 23 22  1  0  0  0  0
 25 23  1  0  0  0  0
 26 25  1  0  0  0  0
 26 20  1  0  0  0  0
 27 26  2  0  0  0  0
 28 25  1  0  0  0  0
M  END
>  <minimizedAffinity>
-4.19010067

>  <minimizedRMSD>
1.2494725

$$$$
