
     RDKit          3D

 39 42  0  0  0  0  0  0  0  0999 V2000
   47.5316   32.8440   43.9069 C   0  0  0  0  0  0  0  0  0  0  0  0
   48.3715   33.3900   43.0162 C   0  0  0  0  0  0  0  0  0  0  0  0
   49.2372   32.4936   42.4159 C   0  0  0  0  0  0  0  0  0  0  0  0
   49.1698   31.1353   42.7793 N   0  0  0  0  0  0  0  0  0  0  0  0
   48.3132   30.6792   43.6704 C   0  0  0  0  0  0  0  0  0  0  0  0
   47.4341   31.5406   44.2875 N   0  0  0  0  0  0  0  0  0  0  0  0
   48.5227   34.7723   42.7340 C   0  0  0  0  0  0  0  0  0  0  0  0
   49.5257   35.3983   42.0602 C   0  0  0  0  0  0  0  0  0  0  0  0
   48.2812   35.2261   41.2332 C   0  0  0  0  0  0  0  0  0  0  0  0
   46.4506   33.5328   44.6228 C   0  0  0  0  0  0  0  0  0  0  0  0
   45.8783   33.8966   45.6189 O   0  0  0  0  0  0  0  0  0  0  0  0
   44.6777   31.6646   42.9283 Cl  0  0  0  0  0  0  0  0  0  0  0  0
   44.6503   33.4227   42.7667 C   0  0  0  0  0  0  0  0  0  0  0  0
   45.5225   34.1246   43.6228 C   0  0  0  0  0  0  0  0  0  0  0  0
   45.4181   35.4885   43.4023 C   0  0  0  0  0  0  0  0  0  0  0  0
   44.6520   36.1685   42.5402 C   0  0  0  0  0  0  0  0  0  0  0  0
   43.8365   35.4135   41.7476 C   0  0  0  0  0  0  0  0  0  0  0  0
   43.8150   34.0628   41.8389 C   0  0  0  0  0  0  0  0  0  0  0  0
   49.9738   32.7678   41.6751 H   0  0  0  0  0  0  0  0  0  0  0  0
   48.3751   29.6106   43.8529 H   0  0  0  0  0  0  0  0  0  0  0  0
   48.0624   35.4311   43.4943 H   0  0  0  0  0  0  0  0  0  0  0  0
   50.3954   34.7966   41.6555 H   0  0  0  0  0  0  0  0  0  0  0  0
   49.8422   36.4645   42.0981 H   0  0  0  0  0  0  0  0  0  0  0  0
   47.5526   36.0568   41.1229 H   0  0  0  0  0  0  0  0  0  0  0  0
   48.2125   34.3811   40.5376 H   0  0  0  0  0  0  0  0  0  0  0  0
   46.0148   36.1916   44.0210 H   0  0  0  0  0  0  0  0  0  0  0  0
   44.6143   37.2372   42.4100 H   0  0  0  0  0  0  0  0  0  0  0  0
   43.1490   35.7801   40.9951 H   0  0  0  0  0  0  0  0  0  0  0  0
   43.0018   33.1544   41.0645 N   0  0  0  0  0  0  0  0  0  0  0  0
   42.6070   31.9122   41.3998 C   0  0  0  0  0  0  0  0  0  0  0  0
   41.8259   31.2125   40.5027 C   0  0  0  0  0  0  0  0  0  0  0  0
   41.5308   30.2181   40.8115 H   0  0  0  0  0  0  0  0  0  0  0  0
   41.4547   31.7628   39.2930 C   0  0  0  0  0  0  0  0  0  0  0  0
   40.7416   31.1066   38.4895 O   0  0  0  0  0  0  0  0  0  0  0  0
   41.8650   33.0072   38.9863 N   0  0  0  0  0  0  0  0  0  0  0  0
   42.6356   33.6847   39.8825 C   0  0  0  0  0  0  0  0  0  0  0  0
   42.9540   34.8497   39.4675 O   0  0  0  0  0  0  0  0  0  0  0  0
   42.9578   31.5867   42.3702 H   0  0  0  0  0  0  0  0  0  0  0  0
   41.5721   33.4042   38.0648 H   0  0  0  0  0  0  0  0  0  0  0  0
  1  6  1  0
  1 10  1  0
  2  1  2  0
  3  4  2  0
  3  2  1  0
  4  5  1  0
  5  6  2  0
  7  2  1  0
  8  7  1  0
  9  8  1  0
  9  7  1  0
 10 11  2  0
 13 12  1  0
 13 14  2  0
 14 10  1  0
 15 14  1  0
 16 15  2  0
 17 18  2  0
 17 16  1  0
 18 13  1  0
  3 19  1  0
  5 20  1  0
  7 21  1  0
  8 22  1  0
  8 23  1  0
  9 24  1  0
  9 25  1  0
 15 26  1  0
 16 27  1  0
 17 28  1  0
 29 30  1  0
 30 31  2  0
 31 32  1  0
 31 33  1  0
 33 34  2  0
 33 35  1  0
 35 36  1  0
 36 37  2  0
 36 29  1  0
 30 38  1  0
 35 39  1  0
 18 29  1  0
M  ISO  8  19  14  20  14  21  13  22  13  23  13  24  13  25  13  26  14
M  ISO  3  27  14  28  14  32  16
M  END
>  <DihAtoms>  (1) 
16,17,28,29

>  <DihDeg>  (1) 
114.6567482889762

$$$$
