
 OpenBabel03242523513D

 44 47  0  0  1  0  0  0  0  0999 V2000
   42.8360   34.3040   38.9540 C   0  0  1  0  0  0  0  0  0  0  0  0
   43.0360   35.1640   40.2040 C   0  0  1  0  0  0  0  0  0  0  0  0
   41.7830   35.6410   40.6340 O   0  0  0  0  0  0  0  0  0  0  0  0
   40.9090   35.9090   39.5760 C   0  0  0  0  0  0  0  0  0  0  0  0
   40.4590   34.6150   38.9140 C   0  0  2  0  0  0  0  0  0  0  0  0
   41.5330   33.5590   39.1950 C   0  0  1  0  0  0  0  0  0  0  0  0
   43.6330   33.5410   38.8600 H   0  0  0  0  0  0  0  0  0  0  0  0
   43.7360   35.9880   40.0490 H   0  0  0  0  0  0  0  0  0  0  0  0
   40.0300   36.3860   40.0480 H   0  0  0  0  0  0  0  0  0  0  0  0
   41.3160   36.6480   38.8750 H   0  0  0  0  0  0  0  0  0  0  0  0
   39.4690   34.3100   39.2680 H   0  0  0  0  0  0  0  0  0  0  0  0
   41.4150   33.3030   40.2690 H   0  0  0  0  0  0  0  0  0  0  0  0
   42.7230   35.1080   37.8210 O   0  0  0  0  0  0  0  0  0  0  0  0
   42.8670   34.5690   37.0190 H   0  0  0  0  0  0  0  0  0  0  0  0
   40.5230   34.8080   37.5210 O   0  0  0  0  0  0  0  0  0  0  0  0
   39.7070   34.5020   37.0710 H   0  0  0  0  0  0  0  0  0  0  0  0
   43.4420   34.2820   41.2140 O   0  0  0  0  0  0  0  0  0  0  0  0
   44.5880   34.3680   41.8960 C   0  0  0  0  0  0  0  0  0  0  0  0
   45.8050   34.5060   41.2340 C   0  0  0  0  0  0  0  0  0  0  0  0
   46.9700   34.5930   41.9820 C   0  0  0  0  0  0  0  0  0  0  0  0
   46.8910   34.5410   43.3570 N   0  0  0  0  0  0  0  0  0  0  0  0
   45.6980   34.4070   43.9680 C   0  0  0  0  0  0  0  0  0  0  0  0
   44.5530   34.3210   43.2500 N   0  0  0  0  0  0  0  0  0  0  0  0
   45.8520   34.5450   40.1570 H   0  0  0  0  0  0  0  0  0  0  0  0
   45.6390   34.3660   45.0500 H   0  0  0  0  0  0  0  0  0  0  0  0
   48.3120   34.7260   41.3160 C   0  0  0  0  0  0  0  0  0  0  0  0
   49.0620   36.0240   41.5160 C   0  0  0  0  0  0  0  0  0  0  0  0
   49.5090   34.6850   42.1140 C   0  0  0  0  0  0  0  0  0  0  0  0
   48.3330   34.3990   40.2570 H   0  0  0  0  0  0  0  0  0  0  0  0
   48.5360   36.7540   42.1360 H   0  0  0  0  0  0  0  0  0  0  0  0
   49.6780   36.4400   40.7020 H   0  0  0  0  0  0  0  0  0  0  0  0
   49.3740   34.6840   43.2350 H   0  0  0  0  0  0  0  0  0  0  0  0
   50.4910   34.3400   41.7960 H   0  0  0  0  0  0  0  0  0  0  0  0
   41.3570   32.4660   38.3780 O   0  0  0  0  0  0  0  0  0  0  0  0
   37.6890   30.2680   37.0520 H   0  0  0  0  0  0  0  0  0  0  0  0
   38.4750   30.3210   37.7220 N   0  0  0  0  0  0  0  0  0  0  0  0
   39.3480   31.3480   37.5730 C   0  0  0  0  0  0  0  0  0  0  0  0
   40.4260   31.4800   38.4360 C   0  0  0  0  0  0  0  0  0  0  0  0
   40.5720   30.5260   39.4490 C   0  0  0  0  0  0  0  0  0  0  0  0
   41.5510   30.6180   40.2590 O   0  0  0  0  0  0  0  0  0  0  0  0
   39.7000   29.5080   39.5910 N   0  0  0  0  0  0  0  0  0  0  0  0
   38.6780   29.4420   38.7180 C   0  0  0  0  0  0  0  0  0  0  0  0
   37.8390   28.4960   38.8220 O   0  0  0  0  0  0  0  0  0  0  0  0
   39.8490   28.8260   40.3560 H   0  0  0  0  0  0  0  0  0  0  0  0
  1  7  1  6  0  0  0
  1  6  1  0  0  0  0
  1  2  1  0  0  0  0
  2  8  1  6  0  0  0
  2  3  1  0  0  0  0
  2 17  1  0  0  0  0
  4  9  1  0  0  0  0
  4  3  1  0  0  0  0
  5  6  1  0  0  0  0
  5 11  1  1  0  0  0
  5  4  1  0  0  0  0
  6 12  1  1  0  0  0
 10  4  1  0  0  0  0
 13  1  1  0  0  0  0
 14 13  1  0  0  0  0
 15  5  1  0  0  0  0
 16 15  1  0  0  0  0
 17 18  1  0  0  0  0
 18 23  1  0  0  0  0
 19 18  2  0  0  0  0
 19 20  1  0  0  0  0
 20 21  2  0  0  0  0
 21 22  1  0  0  0  0
 22 25  1  0  0  0  0
 23 22  2  0  0  0  0
 24 19  1  0  0  0  0
 26 27  1  0  0  0  0
 26 20  1  0  0  0  0
 26 28  1  0  0  0  0
 27 28  1  0  0  0  0
 27 30  1  0  0  0  0
 28 32  1  0  0  0  0
 29 26  1  0  0  0  0
 31 27  1  0  0  0  0
 33 28  1  0  0  0  0
 34 38  1  0  0  0  0
 34  6  1  0  0  0  0
 35 36  1  0  0  0  0
 36 42  1  0  0  0  0
 37 36  1  0  0  0  0
 37 38  2  0  0  0  0
 38 39  1  0  0  0  0
 39 41  1  0  0  0  0
 39 40  2  0  0  0  0
 41 44  1  0  0  0  0
 42 43  2  0  0  0  0
 42 41  1  0  0  0  0
M  END
>  <minimizedAffinity>
-6.12909603

>  <minimizedRMSD>
1.47554052

$$$$
