
 OpenBabel03252504583D

 38 40  0  0  1  0  0  0  0  0999 V2000
   48.0350   34.1140   42.0460 N   0  0  0  0  0  0  0  0  0  0  0  0
   48.0370   35.0530   40.9870 C   0  0  0  0  0  0  0  0  0  0  0  0
   49.1440   35.9590   41.3710 C   0  0  0  0  0  0  0  0  0  0  0  0
   49.7760   35.4490   42.6540 C   0  0  0  0  0  0  0  0  0  0  0  0
   49.2900   33.9890   42.6690 C   0  0  2  0  0  0  0  0  0  0  0  0
   47.5360   35.2790   40.0990 H   0  0  0  0  0  0  0  0  0  0  0  0
   49.5440   36.8170   40.9150 H   0  0  0  0  0  0  0  0  0  0  0  0
   49.4210   36.0010   43.5290 H   0  0  0  0  0  0  0  0  0  0  0  0
   50.8680   35.4500   42.5300 H   0  0  0  0  0  0  0  0  0  0  0  0
   49.2600   33.5520   43.6630 H   0  0  0  0  0  0  0  0  0  0  0  0
   46.8710   33.4650   42.3950 C   0  0  0  0  0  0  0  0  0  0  0  0
   47.1280   32.3980   42.6730 H   0  0  0  0  0  0  0  0  0  0  0  0
   46.1640   33.3120   41.5510 H   0  0  0  0  0  0  0  0  0  0  0  0
   44.6420   35.6800   44.5040 C   0  0  0  0  0  0  0  0  0  0  0  0
   45.3470   35.2190   43.3520 C   0  0  0  0  0  0  0  0  0  0  0  0
   46.1270   34.0650   43.4790 C   0  0  0  0  0  0  0  0  0  0  0  0
   46.1610   33.4630   44.6930 N   0  0  0  0  0  0  0  0  0  0  0  0
   45.4720   33.9260   45.7890 C   0  0  0  0  0  0  0  0  0  0  0  0
   44.7210   35.0220   45.6970 N   0  0  0  0  0  0  0  0  0  0  0  0
   44.0720   36.5580   44.3300 H   0  0  0  0  0  0  0  0  0  0  0  0
   45.3020   35.7140   42.4170 H   0  0  0  0  0  0  0  0  0  0  0  0
   45.5790   33.3590   46.6980 H   0  0  0  0  0  0  0  0  0  0  0  0
   50.1130   33.3030   41.7610 O   0  0  0  0  0  0  0  0  0  0  0  0
   49.3090   31.1590   43.1090 O   0  0  0  0  0  0  0  0  0  0  0  0
   50.1390   31.6530   41.9530 P   0  0  2  0  0  0  0  0  0  0  0  0
   51.7580   31.2260   42.3570 O   0  0  0  0  0  0  0  0  0  0  0  0
   52.3020   31.2590   41.5200 H   0  0  0  0  0  0  0  0  0  0  0  0
   49.8170   30.8290   40.5250 O   0  0  0  0  0  0  0  0  0  0  0  0
   47.0060   32.6280   37.5260 H   0  0  0  0  0  0  0  0  0  0  0  0
   48.0240   32.4430   37.6980 N   0  0  0  0  0  0  0  0  0  0  0  0
   48.1790   31.8270   38.8730 C   0  0  0  0  0  0  0  0  0  0  0  0
   49.3920   31.4500   39.3890 C   0  0  0  0  0  0  0  0  0  0  0  0
   50.4610   31.7830   38.5430 C   0  0  0  0  0  0  0  0  0  0  0  0
   51.6730   31.5460   38.7850 O   0  0  0  0  0  0  0  0  0  0  0  0
   50.3270   32.4010   37.3610 N   0  0  0  0  0  0  0  0  0  0  0  0
   49.0770   32.7410   36.9230 C   0  0  0  0  0  0  0  0  0  0  0  0
   48.6720   33.3150   35.8810 O   0  0  0  0  0  0  0  0  0  0  0  0
   51.0470   32.6860   36.6730 H   0  0  0  0  0  0  0  0  0  0  0  0
  1 11  1  0  0  0  0
  1  5  1  0  0  0  0
  2  3  2  0  0  0  0
  2  1  1  0  0  0  0
  3  4  1  0  0  0  0
  4  5  1  0  0  0  0
  4  8  1  0  0  0  0
  5 10  1  1  0  0  0
  6  2  1  0  0  0  0
  7  3  1  0  0  0  0
  9  4  1  0  0  0  0
 11 12  1  0  0  0  0
 11 16  1  0  0  0  0
 13 11  1  0  0  0  0
 14 19  1  0  0  0  0
 15 16  1  0  0  0  0
 15 14  2  0  0  0  0
 16 17  2  0  0  0  0
 17 18  1  0  0  0  0
 18 22  1  0  0  0  0
 19 18  2  0  0  0  0
 20 14  1  0  0  0  0
 21 15  1  0  0  0  0
 23 25  1  0  0  0  0
 23  5  1  0  0  0  0
 25 26  1  0  0  0  0
 25 24  2  1  0  0  0
 27 26  1  0  0  0  0
 28 25  1  0  0  0  0
 29 30  1  0  0  0  0
 30 31  1  0  0  0  0
 31 32  2  0  0  0  0
 32 28  1  0  0  0  0
 33 34  2  0  0  0  0
 33 32  1  0  0  0  0
 35 33  1  0  0  0  0
 36 35  1  0  0  0  0
 36 30  1  0  0  0  0
 37 36  2  0  0  0  0
 38 35  1  0  0  0  0
M  END
>  <minimizedAffinity>
-5.55898333

>  <minimizedRMSD>
1.95697439

$$$$
