
 OpenBabel03252504273D

 23 24  0  0  0  0  0  0  0  0999 V2000
   44.0180   35.0140   41.2100 C   0  0  0  0  0  0  0  0  0  0  0  0
   43.9630   34.0270   40.7030 H   0  0  0  0  0  0  0  0  0  0  0  0
   44.8110   35.5710   40.6400 H   0  0  0  0  0  0  0  0  0  0  0  0
   44.2920   35.8030   43.4700 C   0  0  0  0  0  0  0  0  0  0  0  0
   44.4400   34.7550   42.5890 C   0  0  0  0  0  0  0  0  0  0  0  0
   44.9640   33.5780   43.0860 C   0  0  0  0  0  0  0  0  0  0  0  0
   45.2970   33.5310   44.3960 N   0  0  0  0  0  0  0  0  0  0  0  0
   45.1420   34.5660   45.2340 C   0  0  0  0  0  0  0  0  0  0  0  0
   44.6240   35.7650   44.7940 N   0  0  0  0  0  0  0  0  0  0  0  0
   43.8830   36.7840   43.1780 H   0  0  0  0  0  0  0  0  0  0  0  0
   45.0750   32.7670   42.3850 H   0  0  0  0  0  0  0  0  0  0  0  0
   45.4850   34.2650   46.2220 H   0  0  0  0  0  0  0  0  0  0  0  0
   42.7700   35.6070   41.1000 O   0  0  0  0  0  0  0  0  0  0  0  0
   41.4380   34.8450   36.8540 H   0  0  0  0  0  0  0  0  0  0  0  0
   41.2580   34.8900   37.8910 N   0  0  0  0  0  0  0  0  0  0  0  0
   42.2000   35.2330   38.7650 C   0  0  0  0  0  3  0  0  0  0  0  0
   41.8670   35.2630   40.1050 C   0  0  0  0  0  0  0  0  0  0  0  0
   40.5640   34.9340   40.4540 C   0  0  0  0  0  0  0  0  0  0  0  0
   40.2610   34.9630   41.6790 O   0  0  0  0  0  0  0  0  0  0  0  0
   39.6270   34.5900   39.5420 N   0  0  0  0  0  0  0  0  0  0  0  0
   39.9960   34.5710   38.2310 C   0  0  0  0  0  0  0  0  0  0  0  0
   39.0770   34.2430   37.4360 O   0  0  0  0  0  0  0  0  0  0  0  0
   38.6470   34.3450   39.8390 H   0  0  0  0  0  0  0  0  0  0  0  0
  1  5  1  0  0  0  0
  2  1  1  0  0  0  0
  3  1  1  0  0  0  0
  4  9  1  0  0  0  0
  5  6  1  0  0  0  0
  5  4  2  0  0  0  0
  6  7  2  0  0  0  0
  7  8  1  0  0  0  0
  8 12  1  0  0  0  0
  9  8  2  0  0  0  0
 10  4  1  0  0  0  0
 11  6  1  0  0  0  0
 13  1  1  0  0  0  0
 14 15  1  0  0  0  0
 15 21  1  0  0  0  0
 15 16  1  0  0  0  0
 16 17  2  0  0  0  0
 17 18  1  0  0  0  0
 17 13  1  0  0  0  0
 18 19  2  0  0  0  0
 20 23  1  0  0  0  0
 20 18  1  0  0  0  0
 21 20  1  0  0  0  0
 22 21  2  0  0  0  0
M  END
>  <minimizedAffinity>
-4.79771757

>  <minimizedRMSD>
1.6142261

$$$$
