
 OpenBabel03252500253D

 38 40  0  0  1  0  0  0  0  0999 V2000
   48.4550   30.1590   48.5810 C   0  0  2  0  0  0  0  0  0  0  0  0
   47.0130   29.8380   48.5200 C   0  0  2  0  0  0  0  0  0  0  0  0
   46.9070   28.9420   47.3400 C   0  0  0  0  0  0  0  0  0  0  0  0
   48.1060   28.2670   47.2190 O   0  0  0  0  0  0  0  0  0  0  0  0
   49.0070   28.8100   48.0780 C   0  0  0  0  0  0  0  0  0  0  0  0
   48.9670   30.8500   47.9860 H   0  0  0  0  0  0  0  0  0  0  0  0
   46.7700   29.3500   49.4910 H   0  0  0  0  0  0  0  0  0  0  0  0
   46.1800   28.1300   47.6500 H   0  0  0  0  0  0  0  0  0  0  0  0
   46.4660   29.3390   46.4330 H   0  0  0  0  0  0  0  0  0  0  0  0
   49.0820   28.2000   49.0260 H   0  0  0  0  0  0  0  0  0  0  0  0
   50.0230   28.8840   47.6920 H   0  0  0  0  0  0  0  0  0  0  0  0
   46.1900   30.9400   48.4330 O   0  0  0  0  0  0  0  0  0  0  0  0
   47.8280   32.8750   48.0060 O   0  0  0  0  0  0  0  0  0  0  0  0
   46.8040   32.0120   47.3170 P   0  0  1  0  0  0  0  0  0  0  0  0
   47.5690   31.1550   46.0720 O   0  0  0  0  0  0  0  0  0  0  0  0
   47.0290   31.1290   45.2480 H   0  0  0  0  0  0  0  0  0  0  0  0
   45.5940   33.0410   46.6770 O   0  0  0  0  0  0  0  0  0  0  0  0
   45.0040   35.4410   44.1050 C   0  0  0  0  0  0  0  0  0  0  0  0
   45.9970   35.1640   43.1300 C   0  0  0  0  0  0  0  0  0  0  0  0
   46.8790   34.1050   43.4140 C   0  0  0  0  0  0  0  0  0  0  0  0
   46.7190   33.4330   44.5790 N   0  0  0  0  0  0  0  0  0  0  0  0
   45.7600   33.7330   45.4740 C   0  0  0  0  0  0  0  0  0  0  0  0
   44.9090   34.7350   45.2290 N   0  0  0  0  0  0  0  0  0  0  0  0
   46.0780   35.7250   42.2300 H   0  0  0  0  0  0  0  0  0  0  0  0
   47.6580   33.8440   42.7120 H   0  0  0  0  0  0  0  0  0  0  0  0
   44.1370   36.4800   43.8300 O   0  0  0  0  0  0  0  0  0  0  0  0
   44.5610   37.4140   43.8010 H   0  0  0  0  0  0  0  0  0  0  0  0
   48.8800   30.4430   49.8700 O   0  0  0  0  0  0  0  0  0  0  0  0
   52.0440   33.6600   50.2520 H   0  0  0  0  0  0  0  0  0  0  0  0
   51.6970   32.7300   50.5740 N   0  0  0  0  0  0  0  0  0  0  0  0
   50.5710   32.3030   49.9860 C   0  0  0  0  0  0  0  0  0  0  0  0
   49.9880   31.0950   50.3030 C   0  0  0  0  0  0  0  0  0  0  0  0
   50.6470   30.3380   51.2790 C   0  0  0  0  0  0  0  0  0  0  0  0
   50.2880   29.1950   51.7260 O   0  0  0  0  0  0  0  0  0  0  0  0
   51.7940   30.7850   51.8700 N   0  0  0  0  0  0  0  0  0  0  0  0
   52.3040   31.9760   51.5090 C   0  0  0  0  0  0  0  0  0  0  0  0
   53.3580   32.4420   52.0170 O   0  0  0  0  0  0  0  0  0  0  0  0
   52.3090   30.2460   52.6010 H   0  0  0  0  0  0  0  0  0  0  0  0
  1  6  1  6  0  0  0
  1 28  1  0  0  0  0
  2  1  1  0  0  0  0
  2  7  1  1  0  0  0
  3  8  1  0  0  0  0
  3  2  1  0  0  0  0
  4  3  1  0  0  0  0
  4  5  1  0  0  0  0
  5  1  1  0  0  0  0
  5 10  1  0  0  0  0
  9  3  1  0  0  0  0
 11  5  1  0  0  0  0
 12  2  1  0  0  0  0
 14 13  2  1  0  0  0
 14 12  1  0  0  0  0
 15 14  1  0  0  0  0
 16 15  1  0  0  0  0
 17 14  1  0  0  0  0
 18 23  1  0  0  0  0
 19 20  1  0  0  0  0
 19 18  2  0  0  0  0
 20 21  2  0  0  0  0
 21 22  1  0  0  0  0
 22 17  1  0  0  0  0
 23 22  2  0  0  0  0
 24 19  1  0  0  0  0
 25 20  1  0  0  0  0
 26 18  1  0  0  0  0
 27 26  1  0  0  0  0
 28 32  1  0  0  0  0
 29 30  1  0  0  0  0
 30 36  1  0  0  0  0
 31 32  2  0  0  0  0
 31 30  1  0  0  0  0
 32 33  1  0  0  0  0
 33 34  2  0  0  0  0
 33 35  1  0  0  0  0
 35 38  1  0  0  0  0
 36 35  1  0  0  0  0
 36 37  2  0  0  0  0
M  END
>  <minimizedAffinity>
-5.49118614

>  <minimizedRMSD>
1.51809645

$$$$
