
 OpenBabel03242518163D

 33 35  0  0  0  0  0  0  0  0999 V2000
   36.4530   28.5490   41.7210 C   0  0  0  0  0  0  0  0  0  0  0  0
   35.5140   28.8050   40.6960 C   0  0  0  0  0  0  0  0  0  0  0  0
   35.5790   29.9300   39.9460 C   0  0  0  0  0  0  0  0  0  0  0  0
   36.6430   30.8390   40.2470 C   0  0  0  0  0  0  0  0  0  0  0  0
   37.5470   30.0780   41.6050 S   0  0  0  0  0  0  0  0  0  0  0  0
   34.8070   28.0240   40.6240 H   0  0  0  0  0  0  0  0  0  0  0  0
   34.8640   30.1260   39.1640 H   0  0  0  0  0  0  0  0  0  0  0  0
   36.7130   27.5240   42.6590 C   0  0  0  0  0  0  0  0  0  0  0  0
   35.7560   27.3330   43.2420 H   0  0  0  0  0  0  0  0  0  0  0  0
   36.8360   26.5460   42.1100 H   0  0  0  0  0  0  0  0  0  0  0  0
   37.8350   27.7010   43.5980 C   0  0  0  0  0  0  0  0  0  0  0  0
   38.2430   28.7520   43.6190 H   0  0  0  0  0  0  0  0  0  0  0  0
   37.4410   27.5360   44.6390 H   0  0  0  0  0  0  0  0  0  0  0  0
   38.8600   26.6830   43.3760 C   0  0  0  0  0  0  0  0  0  0  0  0
   40.1190   26.8160   43.9190 C   0  0  0  0  0  0  0  0  0  0  0  0
   41.0640   25.8110   43.6710 C   0  0  0  0  0  0  0  0  0  0  0  0
   40.6700   24.7690   42.9070 N   0  0  0  0  0  0  0  0  0  0  0  0
   39.4400   24.6680   42.3930 C   0  0  0  0  0  0  0  0  0  0  0  0
   38.5610   25.6150   42.6300 N   0  0  0  0  0  0  0  0  0  0  0  0
   40.3320   27.6880   44.5150 H   0  0  0  0  0  0  0  0  0  0  0  0
   42.0630   25.9110   44.0990 H   0  0  0  0  0  0  0  0  0  0  0  0
   39.2410   23.7870   41.7960 H   0  0  0  0  0  0  0  0  0  0  0  0
   36.8880   31.9590   39.6600 O   0  0  0  0  0  0  0  0  0  0  0  0
   39.7580   31.4680   36.2260 H   0  0  0  0  0  0  0  0  0  0  0  0
   39.5830   31.9080   37.1470 N   0  0  0  0  0  0  0  0  0  0  0  0
   38.3900   31.5980   37.6840 C   0  0  0  0  0  3  0  0  0  0  0  0
   38.0720   32.1460   38.9190 C   0  0  0  0  0  0  0  0  0  0  0  0
   38.9870   32.9840   39.5520 C   0  0  0  0  0  0  0  0  0  0  0  0
   38.8110   33.5380   40.6710 O   0  0  0  0  0  0  0  0  0  0  0  0
   40.1830   33.2640   38.9600 N   0  0  0  0  0  0  0  0  0  0  0  0
   40.4660   32.7210   37.7640 C   0  0  0  0  0  0  0  0  0  0  0  0
   41.5690   32.9470   37.1660 O   0  0  0  0  0  0  0  0  0  0  0  0
   40.9080   33.8730   39.3630 H   0  0  0  0  0  0  0  0  0  0  0  0
  1  8  1  0  0  0  0
  2  1  2  0  0  0  0
  3  4  2  0  0  0  0
  3  2  1  0  0  0  0
  4  5  1  0  0  0  0
  5  1  1  0  0  0  0
  6  2  1  0  0  0  0
  7  3  1  0  0  0  0
  8  9  1  0  0  0  0
  8 11  1  0  0  0  0
 10  8  1  0  0  0  0
 11 12  1  0  0  0  0
 11 13  1  0  0  0  0
 14 11  1  0  0  0  0
 14 15  1  0  0  0  0
 15 20  1  0  0  0  0
 16 15  2  0  0  0  0
 16 21  1  0  0  0  0
 17 16  1  0  0  0  0
 18 19  1  0  0  0  0
 18 17  2  0  0  0  0
 19 14  2  0  0  0  0
 22 18  1  0  0  0  0
 23  4  1  0  0  0  0
 24 25  1  0  0  0  0
 25 26  1  0  0  0  0
 25 31  1  0  0  0  0
 26 27  2  0  0  0  0
 27 28  1  0  0  0  0
 27 23  1  0  0  0  0
 28 29  2  0  0  0  0
 30 33  1  0  0  0  0
 30 28  1  0  0  0  0
 31 30  1  0  0  0  0
 32 31  2  0  0  0  0
M  END
>  <minimizedAffinity>
-5.91761923

$$$$

 OpenBabel03242518163D

 33 35  0  0  0  0  0  0  0  0999 V2000
   37.8920   32.3990   39.8400 C   0  0  0  0  0  0  0  0  0  0  0  0
   37.7010   33.7960   39.9430 C   0  0  0  0  0  0  0  0  0  0  0  0
   38.7510   34.6450   40.0310 C   0  0  0  0  0  0  0  0  0  0  0  0
   40.0550   34.0550   40.0140 C   0  0  0  0  0  0  0  0  0  0  0  0
   39.7720   32.2830   39.8720 S   0  0  0  0  0  0  0  0  0  0  0  0
   36.6740   34.0400   39.9400 H   0  0  0  0  0  0  0  0  0  0  0  0
   38.6070   35.7110   40.1090 H   0  0  0  0  0  0  0  0  0  0  0  0
   37.0820   31.2470   39.7140 C   0  0  0  0  0  0  0  0  0  0  0  0
   36.4300   31.3780   38.7930 H   0  0  0  0  0  0  0  0  0  0  0  0
   37.7280   30.3750   39.4060 H   0  0  0  0  0  0  0  0  0  0  0  0
   36.2440   30.8510   40.8600 C   0  0  0  0  0  0  0  0  0  0  0  0
   35.9810   31.7090   41.5430 H   0  0  0  0  0  0  0  0  0  0  0  0
   35.2520   30.5040   40.4570 H   0  0  0  0  0  0  0  0  0  0  0  0
   36.8300   29.7090   41.5590 C   0  0  0  0  0  0  0  0  0  0  0  0
   36.2610   28.4580   41.4730 C   0  0  0  0  0  0  0  0  0  0  0  0
   36.8630   27.4000   42.1660 C   0  0  0  0  0  0  0  0  0  0  0  0
   37.9750   27.6830   42.8800 N   0  0  0  0  0  0  0  0  0  0  0  0
   38.5040   28.9090   42.9450 C   0  0  0  0  0  0  0  0  0  0  0  0
   37.9330   29.8960   42.2920 N   0  0  0  0  0  0  0  0  0  0  0  0
   35.3720   28.3380   40.8750 H   0  0  0  0  0  0  0  0  0  0  0  0
   36.4170   26.4060   42.1010 H   0  0  0  0  0  0  0  0  0  0  0  0
   39.3960   29.0150   43.5490 H   0  0  0  0  0  0  0  0  0  0  0  0
   41.1820   34.6750   40.0840 O   0  0  0  0  0  0  0  0  0  0  0  0
   43.3000   34.4770   36.1160 H   0  0  0  0  0  0  0  0  0  0  0  0
   43.3490   34.2740   37.1310 N   0  0  0  0  0  0  0  0  0  0  0  0
   42.2460   34.6260   37.8130 C   0  0  0  0  0  3  0  0  0  0  0  0
   42.2250   34.3880   39.1810 C   0  0  0  0  0  0  0  0  0  0  0  0
   43.3320   33.8020   39.7900 C   0  0  0  0  0  0  0  0  0  0  0  0
   43.4290   33.5400   41.0200 O   0  0  0  0  0  0  0  0  0  0  0  0
   44.4250   33.4660   39.0490 N   0  0  0  0  0  0  0  0  0  0  0  0
   44.4190   33.7070   37.7260 C   0  0  0  0  0  0  0  0  0  0  0  0
   45.4130   33.4120   36.9840 O   0  0  0  0  0  0  0  0  0  0  0  0
   45.2790   33.0320   39.4250 H   0  0  0  0  0  0  0  0  0  0  0  0
  1  5  1  0  0  0  0
  1  2  2  0  0  0  0
  2  3  1  0  0  0  0
  3  7  1  0  0  0  0
  4  3  2  0  0  0  0
  4 23  1  0  0  0  0
  5  4  1  0  0  0  0
  6  2  1  0  0  0  0
  8  1  1  0  0  0  0
  8 11  1  0  0  0  0
  9  8  1  0  0  0  0
 10  8  1  0  0  0  0
 11 12  1  0  0  0  0
 11 14  1  0  0  0  0
 13 11  1  0  0  0  0
 14 19  1  0  0  0  0
 15 14  2  0  0  0  0
 15 16  1  0  0  0  0
 16 17  2  0  0  0  0
 17 18  1  0  0  0  0
 18 22  1  0  0  0  0
 19 18  2  0  0  0  0
 20 15  1  0  0  0  0
 21 16  1  0  0  0  0
 24 25  1  0  0  0  0
 25 31  1  0  0  0  0
 25 26  1  0  0  0  0
 26 27  2  0  0  0  0
 27 28  1  0  0  0  0
 27 23  1  0  0  0  0
 28 29  2  0  0  0  0
 30 33  1  0  0  0  0
 30 28  1  0  0  0  0
 31 30  1  0  0  0  0
 32 31  2  0  0  0  0
M  END
>  <minimizedAffinity>
-5.79601812

$$$$

 OpenBabel03242518163D

 33 35  0  0  0  0  0  0  0  0999 V2000
   36.3960   28.5570   41.7310 C   0  0  0  0  0  0  0  0  0  0  0  0
   35.4890   28.7750   40.6680 C   0  0  0  0  0  0  0  0  0  0  0  0
   35.5600   29.8870   39.8990 C   0  0  0  0  0  0  0  0  0  0  0  0
   36.5960   30.8210   40.2200 C   0  0  0  0  0  0  0  0  0  0  0  0
   37.4650   30.1030   41.6230 S   0  0  0  0  0  0  0  0  0  0  0  0
   34.8000   27.9800   40.5870 H   0  0  0  0  0  0  0  0  0  0  0  0
   34.8700   30.0550   39.0890 H   0  0  0  0  0  0  0  0  0  0  0  0
   36.6400   27.5540   42.6980 C   0  0  0  0  0  0  0  0  0  0  0  0
   36.2650   27.9370   43.7000 H   0  0  0  0  0  0  0  0  0  0  0  0
   35.9400   26.6890   42.5140 H   0  0  0  0  0  0  0  0  0  0  0  0
   38.0150   27.0450   42.8460 C   0  0  0  0  0  0  0  0  0  0  0  0
   38.8080   27.8250   42.6540 H   0  0  0  0  0  0  0  0  0  0  0  0
   38.1610   26.7630   43.9260 H   0  0  0  0  0  0  0  0  0  0  0  0
   38.2010   25.8220   42.0690 C   0  0  0  0  0  0  0  0  0  0  0  0
   37.2280   24.8470   42.0390 C   0  0  0  0  0  0  0  0  0  0  0  0
   37.4610   23.6940   41.2790 C   0  0  0  0  0  0  0  0  0  0  0  0
   38.6380   23.6150   40.6190 N   0  0  0  0  0  0  0  0  0  0  0  0
   39.5630   24.5790   40.6680 C   0  0  0  0  0  0  0  0  0  0  0  0
   39.3370   25.6580   41.3840 N   0  0  0  0  0  0  0  0  0  0  0  0
   36.3230   25.0080   42.6010 H   0  0  0  0  0  0  0  0  0  0  0  0
   36.6940   22.9180   41.2510 H   0  0  0  0  0  0  0  0  0  0  0  0
   40.4670   24.4040   40.0990 H   0  0  0  0  0  0  0  0  0  0  0  0
   36.8420   31.9340   39.6190 O   0  0  0  0  0  0  0  0  0  0  0  0
   39.7700   31.4440   36.2350 H   0  0  0  0  0  0  0  0  0  0  0  0
   39.5790   31.8840   37.1530 N   0  0  0  0  0  0  0  0  0  0  0  0
   38.3770   31.5740   37.6690 C   0  0  0  0  0  3  0  0  0  0  0  0
   38.0380   32.1210   38.8990 C   0  0  0  0  0  0  0  0  0  0  0  0
   38.9420   32.9600   39.5470 C   0  0  0  0  0  0  0  0  0  0  0  0
   38.7470   33.5140   40.6630 O   0  0  0  0  0  0  0  0  0  0  0  0
   40.1480   33.2410   38.9760 N   0  0  0  0  0  0  0  0  0  0  0  0
   40.4510   32.6980   37.7840 C   0  0  0  0  0  0  0  0  0  0  0  0
   41.5640   32.9240   37.2050 O   0  0  0  0  0  0  0  0  0  0  0  0
   40.8660   33.8490   39.3910 H   0  0  0  0  0  0  0  0  0  0  0  0
  1  8  1  0  0  0  0
  2  1  2  0  0  0  0
  3  4  2  0  0  0  0
  3  2  1  0  0  0  0
  4  5  1  0  0  0  0
  5  1  1  0  0  0  0
  6  2  1  0  0  0  0
  7  3  1  0  0  0  0
  8 11  1  0  0  0  0
  8  9  1  0  0  0  0
 10  8  1  0  0  0  0
 11 13  1  0  0  0  0
 12 11  1  0  0  0  0
 14 11  1  0  0  0  0
 15 14  1  0  0  0  0
 15 20  1  0  0  0  0
 16 15  2  0  0  0  0
 17 18  2  0  0  0  0
 17 16  1  0  0  0  0
 18 19  1  0  0  0  0
 19 14  2  0  0  0  0
 21 16  1  0  0  0  0
 22 18  1  0  0  0  0
 23  4  1  0  0  0  0
 24 25  1  0  0  0  0
 25 26  1  0  0  0  0
 25 31  1  0  0  0  0
 26 27  2  0  0  0  0
 27 28  1  0  0  0  0
 27 23  1  0  0  0  0
 28 29  2  0  0  0  0
 30 33  1  0  0  0  0
 30 28  1  0  0  0  0
 31 30  1  0  0  0  0
 32 31  2  0  0  0  0
M  END
>  <minimizedAffinity>
-5.63334417

$$$$

 OpenBabel03242518163D

 33 35  0  0  0  0  0  0  0  0999 V2000
   36.5840   28.6720   41.6750 C   0  0  0  0  0  0  0  0  0  0  0  0
   35.5620   29.0890   40.7930 C   0  0  0  0  0  0  0  0  0  0  0  0
   35.7480   30.1210   39.9370 C   0  0  0  0  0  0  0  0  0  0  0  0
   37.0280   30.7600   39.9740 C   0  0  0  0  0  0  0  0  0  0  0  0
   37.9610   29.8800   41.2380 S   0  0  0  0  0  0  0  0  0  0  0  0
   34.6940   28.5000   40.9110 H   0  0  0  0  0  0  0  0  0  0  0  0
   34.9690   30.4400   39.2630 H   0  0  0  0  0  0  0  0  0  0  0  0
   36.7640   27.6690   42.6550 C   0  0  0  0  0  0  0  0  0  0  0  0
   35.7930   27.5710   43.2380 H   0  0  0  0  0  0  0  0  0  0  0  0
   36.8180   26.6630   42.1460 H   0  0  0  0  0  0  0  0  0  0  0  0
   37.8930   27.8010   43.5940 C   0  0  0  0  0  0  0  0  0  0  0  0
   38.3400   28.8360   43.6170 H   0  0  0  0  0  0  0  0  0  0  0  0
   37.4930   27.6490   44.6350 H   0  0  0  0  0  0  0  0  0  0  0  0
   38.8780   26.7460   43.3700 C   0  0  0  0  0  0  0  0  0  0  0  0
   40.1420   26.8300   43.9120 C   0  0  0  0  0  0  0  0  0  0  0  0
   41.0470   25.7910   43.6630 C   0  0  0  0  0  0  0  0  0  0  0  0
   40.6140   24.7650   42.8980 N   0  0  0  0  0  0  0  0  0  0  0  0
   39.3810   24.7110   42.3850 C   0  0  0  0  0  0  0  0  0  0  0  0
   38.5380   25.6900   42.6240 N   0  0  0  0  0  0  0  0  0  0  0  0
   40.3870   27.6930   44.5090 H   0  0  0  0  0  0  0  0  0  0  0  0
   42.0500   25.8520   44.0900 H   0  0  0  0  0  0  0  0  0  0  0  0
   39.1480   23.8390   41.7870 H   0  0  0  0  0  0  0  0  0  0  0  0
   37.4150   31.7520   39.2490 O   0  0  0  0  0  0  0  0  0  0  0  0
   39.6500   34.7440   41.7630 H   0  0  0  0  0  0  0  0  0  0  0  0
   39.6800   34.1180   40.9380 N   0  0  0  0  0  0  0  0  0  0  0  0
   38.5430   33.4300   40.7330 C   0  0  0  0  0  3  0  0  0  0  0  0
   38.4940   32.5650   39.6490 C   0  0  0  0  0  0  0  0  0  0  0  0
   39.6090   32.4410   38.8220 C   0  0  0  0  0  0  0  0  0  0  0  0
   39.6830   31.6910   37.8120 O   0  0  0  0  0  0  0  0  0  0  0  0
   40.7360   33.1640   39.0780 N   0  0  0  0  0  0  0  0  0  0  0  0
   40.7560   33.9940   40.1350 C   0  0  0  0  0  0  0  0  0  0  0  0
   41.7820   34.6950   40.4210 O   0  0  0  0  0  0  0  0  0  0  0  0
   41.5970   33.1270   38.5160 H   0  0  0  0  0  0  0  0  0  0  0  0
  1  8  1  0  0  0  0
  2  6  1  0  0  0  0
  2  1  2  0  0  0  0
  3  4  2  0  0  0  0
  3  2  1  0  0  0  0
  4  5  1  0  0  0  0
  5  1  1  0  0  0  0
  7  3  1  0  0  0  0
  8  9  1  0  0  0  0
  8 11  1  0  0  0  0
 10  8  1  0  0  0  0
 11 12  1  0  0  0  0
 11 13  1  0  0  0  0
 14 11  1  0  0  0  0
 14 15  1  0  0  0  0
 15 20  1  0  0  0  0
 16 15  2  0  0  0  0
 16 21  1  0  0  0  0
 17 16  1  0  0  0  0
 18 19  1  0  0  0  0
 18 17  2  0  0  0  0
 19 14  2  0  0  0  0
 22 18  1  0  0  0  0
 23 27  1  0  0  0  0
 23  4  1  0  0  0  0
 25 24  1  0  0  0  0
 26 25  1  0  0  0  0
 27 26  2  0  0  0  0
 28 30  1  0  0  0  0
 28 27  1  0  0  0  0
 29 28  2  0  0  0  0
 30 31  1  0  0  0  0
 31 32  2  0  0  0  0
 31 25  1  0  0  0  0
 33 30  1  0  0  0  0
M  END
>  <minimizedAffinity>
-5.54594421

$$$$

 OpenBabel03242518163D

 33 35  0  0  0  0  0  0  0  0999 V2000
   39.3400   27.1980   42.8380 C   0  0  0  0  0  0  0  0  0  0  0  0
   38.3710   27.8990   43.5920 C   0  0  0  0  0  0  0  0  0  0  0  0
   37.7210   28.9700   43.0820 C   0  0  0  0  0  0  0  0  0  0  0  0
   38.0670   29.3510   41.7460 C   0  0  0  0  0  0  0  0  0  0  0  0
   39.3240   28.1720   41.2260 S   0  0  0  0  0  0  0  0  0  0  0  0
   38.2540   27.4720   44.5510 H   0  0  0  0  0  0  0  0  0  0  0  0
   36.9820   29.5060   43.6550 H   0  0  0  0  0  0  0  0  0  0  0  0
   40.1760   26.0710   43.0130 C   0  0  0  0  0  0  0  0  0  0  0  0
   40.9170   26.0490   42.1520 H   0  0  0  0  0  0  0  0  0  0  0  0
   40.8620   26.2560   43.8900 H   0  0  0  0  0  0  0  0  0  0  0  0
   39.5460   24.7470   43.1580 C   0  0  0  0  0  0  0  0  0  0  0  0
   40.2750   23.9280   43.4260 H   0  0  0  0  0  0  0  0  0  0  0  0
   38.8470   24.7940   44.0390 H   0  0  0  0  0  0  0  0  0  0  0  0
   38.7240   24.4350   41.9920 C   0  0  0  0  0  0  0  0  0  0  0  0
   37.3520   24.3620   42.0910 C   0  0  0  0  0  0  0  0  0  0  0  0
   36.6130   24.0560   40.9410 C   0  0  0  0  0  0  0  0  0  0  0  0
   37.3060   23.8510   39.7990 N   0  0  0  0  0  0  0  0  0  0  0  0
   38.6390   23.9290   39.7330 C   0  0  0  0  0  0  0  0  0  0  0  0
   39.3240   24.2160   40.8170 N   0  0  0  0  0  0  0  0  0  0  0  0
   36.8970   24.5430   43.0510 H   0  0  0  0  0  0  0  0  0  0  0  0
   35.5260   23.9970   41.0140 H   0  0  0  0  0  0  0  0  0  0  0  0
   39.0820   23.7440   38.7630 H   0  0  0  0  0  0  0  0  0  0  0  0
   37.5720   30.3310   41.0720 O   0  0  0  0  0  0  0  0  0  0  0  0
   40.8570   33.3520   41.6710 H   0  0  0  0  0  0  0  0  0  0  0  0
   40.0230   33.0830   41.1180 N   0  0  0  0  0  0  0  0  0  0  0  0
   39.4510   31.9330   41.5150 C   0  0  0  0  0  3  0  0  0  0  0  0
   38.3250   31.4970   40.8290 C   0  0  0  0  0  0  0  0  0  0  0  0
   37.8350   32.2550   39.7690 C   0  0  0  0  0  0  0  0  0  0  0  0
   36.8250   31.9620   39.0740 O   0  0  0  0  0  0  0  0  0  0  0  0
   38.4570   33.4140   39.4080 N   0  0  0  0  0  0  0  0  0  0  0  0
   39.5450   33.8130   40.0900 C   0  0  0  0  0  0  0  0  0  0  0  0
   40.1640   34.8880   39.7980 O   0  0  0  0  0  0  0  0  0  0  0  0
   38.1560   34.0260   38.6380 H   0  0  0  0  0  0  0  0  0  0  0  0
  1  8  1  0  0  0  0
  1  2  2  0  0  0  0
  2  6  1  0  0  0  0
  3  2  1  0  0  0  0
  3  7  1  0  0  0  0
  4  3  2  0  0  0  0
  5  4  1  0  0  0  0
  5  1  1  0  0  0  0
  8 11  1  0  0  0  0
  8 10  1  0  0  0  0
  9  8  1  0  0  0  0
 11 12  1  0  0  0  0
 11 13  1  0  0  0  0
 14 15  1  0  0  0  0
 14 11  1  0  0  0  0
 15 20  1  0  0  0  0
 16 21  1  0  0  0  0
 16 15  2  0  0  0  0
 17 16  1  0  0  0  0
 18 17  2  0  0  0  0
 18 19  1  0  0  0  0
 19 14  2  0  0  0  0
 22 18  1  0  0  0  0
 23  4  1  0  0  0  0
 25 26  1  0  0  0  0
 25 24  1  0  0  0  0
 27 23  1  0  0  0  0
 27 26  2  0  0  0  0
 28 27  1  0  0  0  0
 29 28  2  0  0  0  0
 30 28  1  0  0  0  0
 30 31  1  0  0  0  0
 31 25  1  0  0  0  0
 32 31  2  0  0  0  0
 33 30  1  0  0  0  0
M  END
>  <minimizedAffinity>
-5.41271353

$$$$

 OpenBabel03242518163D

 33 35  0  0  0  0  0  0  0  0999 V2000
   38.0440   29.2760   42.8590 C   0  0  0  0  0  0  0  0  0  0  0  0
   39.2260   30.0440   42.7580 C   0  0  0  0  0  0  0  0  0  0  0  0
   39.3450   31.0370   41.8470 C   0  0  0  0  0  0  0  0  0  0  0  0
   38.2150   31.2650   40.9980 C   0  0  0  0  0  0  0  0  0  0  0  0
   36.9860   30.0530   41.5080 S   0  0  0  0  0  0  0  0  0  0  0  0
   39.9450   29.7300   43.4650 H   0  0  0  0  0  0  0  0  0  0  0  0
   40.2450   31.6250   41.7690 H   0  0  0  0  0  0  0  0  0  0  0  0
   37.5590   28.2170   43.6620 C   0  0  0  0  0  0  0  0  0  0  0  0
   38.4530   27.7020   44.1370 H   0  0  0  0  0  0  0  0  0  0  0  0
   37.0440   28.6490   44.5680 H   0  0  0  0  0  0  0  0  0  0  0  0
   36.6820   27.2100   43.0370 C   0  0  0  0  0  0  0  0  0  0  0  0
   36.0270   26.6640   43.7760 H   0  0  0  0  0  0  0  0  0  0  0  0
   35.9540   27.7540   42.3720 H   0  0  0  0  0  0  0  0  0  0  0  0
   37.4510   26.3200   42.1710 C   0  0  0  0  0  0  0  0  0  0  0  0
   37.1040   26.1430   40.8510 C   0  0  0  0  0  0  0  0  0  0  0  0
   37.8750   25.2750   40.0670 C   0  0  0  0  0  0  0  0  0  0  0  0
   38.9200   24.6640   40.6680 N   0  0  0  0  0  0  0  0  0  0  0  0
   39.2330   24.8560   41.9530 C   0  0  0  0  0  0  0  0  0  0  0  0
   38.5030   25.6720   42.6810 N   0  0  0  0  0  0  0  0  0  0  0  0
   36.2500   26.6780   40.4680 H   0  0  0  0  0  0  0  0  0  0  0  0
   37.6050   25.1300   39.0190 H   0  0  0  0  0  0  0  0  0  0  0  0
   40.0920   24.3110   42.3240 H   0  0  0  0  0  0  0  0  0  0  0  0
   38.1150   32.1540   40.0710 O   0  0  0  0  0  0  0  0  0  0  0  0
   41.6060   32.0710   37.2300 H   0  0  0  0  0  0  0  0  0  0  0  0
   41.0800   32.6210   37.9330 N   0  0  0  0  0  0  0  0  0  0  0  0
   40.0210   31.9740   38.4510 C   0  0  0  0  0  3  0  0  0  0  0  0
   39.2580   32.6360   39.4030 C   0  0  0  0  0  0  0  0  0  0  0  0
   39.6100   33.9290   39.7830 C   0  0  0  0  0  0  0  0  0  0  0  0
   38.9960   34.6280   40.6340 O   0  0  0  0  0  0  0  0  0  0  0  0
   40.6950   34.5370   39.2240 N   0  0  0  0  0  0  0  0  0  0  0  0
   41.4170   33.8730   38.3040 C   0  0  0  0  0  0  0  0  0  0  0  0
   42.4410   34.3910   37.7500 O   0  0  0  0  0  0  0  0  0  0  0  0
   41.0180   35.4870   39.4510 H   0  0  0  0  0  0  0  0  0  0  0  0
  1  8  1  0  0  0  0
  2  1  2  0  0  0  0
  2  6  1  0  0  0  0
  3  2  1  0  0  0  0
  4  5  1  0  0  0  0
  4  3  2  0  0  0  0
  5  1  1  0  0  0  0
  7  3  1  0  0  0  0
  8  9  1  0  0  0  0
  8 10  1  0  0  0  0
 11  8  1  0  0  0  0
 11 12  1  0  0  0  0
 13 11  1  0  0  0  0
 14 19  1  0  0  0  0
 14 11  1  0  0  0  0
 15 14  2  0  0  0  0
 16 17  2  0  0  0  0
 16 15  1  0  0  0  0
 17 18  1  0  0  0  0
 18 22  1  0  0  0  0
 18 19  2  0  0  0  0
 20 15  1  0  0  0  0
 21 16  1  0  0  0  0
 23  4  1  0  0  0  0
 24 25  1  0  0  0  0
 25 31  1  0  0  0  0
 25 26  1  0  0  0  0
 26 27  2  0  0  0  0
 27 28  1  0  0  0  0
 27 23  1  0  0  0  0
 28 29  2  0  0  0  0
 30 33  1  0  0  0  0
 30 28  1  0  0  0  0
 31 30  1  0  0  0  0
 32 31  2  0  0  0  0
M  END
>  <minimizedAffinity>
-5.40976191

$$$$

 OpenBabel03242518163D

 33 35  0  0  0  0  0  0  0  0999 V2000
   37.7200   26.3210   39.2700 C   0  0  0  0  0  0  0  0  0  0  0  0
   36.4000   26.3260   38.7630 C   0  0  0  0  0  0  0  0  0  0  0  0
   35.8150   27.4680   38.3320 C   0  0  0  0  0  0  0  0  0  0  0  0
   36.6010   28.6610   38.4190 C   0  0  0  0  0  0  0  0  0  0  0  0
   38.1770   28.1420   39.1180 S   0  0  0  0  0  0  0  0  0  0  0  0
   35.9840   25.3560   38.7790 H   0  0  0  0  0  0  0  0  0  0  0  0
   34.8100   27.4730   37.9450 H   0  0  0  0  0  0  0  0  0  0  0  0
   38.6360   25.3680   39.7720 C   0  0  0  0  0  0  0  0  0  0  0  0
   38.6570   24.4900   39.0520 H   0  0  0  0  0  0  0  0  0  0  0  0
   39.6840   25.7720   39.6600 H   0  0  0  0  0  0  0  0  0  0  0  0
   38.4490   24.8740   41.1480 C   0  0  0  0  0  0  0  0  0  0  0  0
   37.6790   24.0530   41.2310 H   0  0  0  0  0  0  0  0  0  0  0  0
   39.4100   24.3850   41.4710 H   0  0  0  0  0  0  0  0  0  0  0  0
   38.2180   25.9840   42.0700 C   0  0  0  0  0  0  0  0  0  0  0  0
   36.9560   26.2540   42.5510 C   0  0  0  0  0  0  0  0  0  0  0  0
   36.7920   27.3320   43.4300 C   0  0  0  0  0  0  0  0  0  0  0  0
   37.8960   28.0420   43.7490 N   0  0  0  0  0  0  0  0  0  0  0  0
   39.1090   27.7560   43.2650 C   0  0  0  0  0  0  0  0  0  0  0  0
   39.2540   26.7430   42.4410 N   0  0  0  0  0  0  0  0  0  0  0  0
   36.1400   25.6250   42.2340 H   0  0  0  0  0  0  0  0  0  0  0  0
   35.7940   27.5510   43.8160 H   0  0  0  0  0  0  0  0  0  0  0  0
   39.9190   28.3960   43.5920 H   0  0  0  0  0  0  0  0  0  0  0  0
   36.2430   29.8460   38.0650 O   0  0  0  0  0  0  0  0  0  0  0  0
   38.9940   33.4100   38.1050 H   0  0  0  0  0  0  0  0  0  0  0  0
   38.3070   32.8450   38.6370 N   0  0  0  0  0  0  0  0  0  0  0  0
   37.8130   31.7990   37.9520 C   0  0  0  0  0  3  0  0  0  0  0  0
   36.8850   30.9860   38.5890 C   0  0  0  0  0  0  0  0  0  0  0  0
   36.5050   31.2770   39.8970 C   0  0  0  0  0  0  0  0  0  0  0  0
   35.6750   30.6140   40.5750 O   0  0  0  0  0  0  0  0  0  0  0  0
   37.0390   32.3510   40.5430 N   0  0  0  0  0  0  0  0  0  0  0  0
   37.9350   33.1230   39.9040 C   0  0  0  0  0  0  0  0  0  0  0  0
   38.4680   34.1380   40.4600 O   0  0  0  0  0  0  0  0  0  0  0  0
   36.8090   32.6310   41.5060 H   0  0  0  0  0  0  0  0  0  0  0  0
  1  8  1  0  0  0  0
  2  6  1  0  0  0  0
  2  1  2  0  0  0  0
  3  4  2  0  0  0  0
  3  2  1  0  0  0  0
  4  5  1  0  0  0  0
  5  1  1  0  0  0  0
  7  3  1  0  0  0  0
  8 11  1  0  0  0  0
  9  8  1  0  0  0  0
 10  8  1  0  0  0  0
 11 12  1  0  0  0  0
 11 13  1  0  0  0  0
 11 14  1  0  0  0  0
 14 19  2  0  0  0  0
 14 15  1  0  0  0  0
 15 16  2  0  0  0  0
 16 17  1  0  0  0  0
 16 21  1  0  0  0  0
 18 22  1  0  0  0  0
 18 17  2  0  0  0  0
 19 18  1  0  0  0  0
 20 15  1  0  0  0  0
 23  4  1  0  0  0  0
 23 27  1  0  0  0  0
 24 25  1  0  0  0  0
 25 31  1  0  0  0  0
 26 27  2  0  0  0  0
 26 25  1  0  0  0  0
 27 28  1  0  0  0  0
 28 30  1  0  0  0  0
 28 29  2  0  0  0  0
 30 33  1  0  0  0  0
 31 32  2  0  0  0  0
 31 30  1  0  0  0  0
M  END
>  <minimizedAffinity>
-5.22006464

$$$$

 OpenBabel03242518163D

 33 35  0  0  0  0  0  0  0  0999 V2000
   36.9300   27.7200   41.5720 C   0  0  0  0  0  0  0  0  0  0  0  0
   36.6600   27.8480   42.9540 C   0  0  0  0  0  0  0  0  0  0  0  0
   37.6140   27.6070   43.8830 C   0  0  0  0  0  0  0  0  0  0  0  0
   38.9010   27.2180   43.3920 C   0  0  0  0  0  0  0  0  0  0  0  0
   38.7390   27.1980   41.6000 S   0  0  0  0  0  0  0  0  0  0  0  0
   35.6590   28.1420   43.1200 H   0  0  0  0  0  0  0  0  0  0  0  0
   37.4100   27.7050   44.9370 H   0  0  0  0  0  0  0  0  0  0  0  0
   36.2300   27.8980   40.3570 C   0  0  0  0  0  0  0  0  0  0  0  0
   36.9840   27.8470   39.5080 H   0  0  0  0  0  0  0  0  0  0  0  0
   35.6060   26.9800   40.1540 H   0  0  0  0  0  0  0  0  0  0  0  0
   35.3910   29.1000   40.2010 C   0  0  0  0  0  0  0  0  0  0  0  0
   34.4880   28.9370   39.5450 H   0  0  0  0  0  0  0  0  0  0  0  0
   34.9590   29.3500   41.2100 H   0  0  0  0  0  0  0  0  0  0  0  0
   36.2020   30.2480   39.8010 C   0  0  0  0  0  0  0  0  0  0  0  0
   36.5600   31.2150   40.7140 C   0  0  0  0  0  0  0  0  0  0  0  0
   37.3360   32.2950   40.2750 C   0  0  0  0  0  0  0  0  0  0  0  0
   37.6830   32.3150   38.9690 N   0  0  0  0  0  0  0  0  0  0  0  0
   37.3200   31.3610   38.1060 C   0  0  0  0  0  0  0  0  0  0  0  0
   36.5920   30.3510   38.5260 N   0  0  0  0  0  0  0  0  0  0  0  0
   36.2300   31.1050   41.7340 H   0  0  0  0  0  0  0  0  0  0  0  0
   37.6230   33.0650   40.9940 H   0  0  0  0  0  0  0  0  0  0  0  0
   37.6580   31.4850   37.0850 H   0  0  0  0  0  0  0  0  0  0  0  0
   39.9440   26.9450   44.0980 O   0  0  0  0  0  0  0  0  0  0  0  0
   42.7500   23.8840   42.3610 H   0  0  0  0  0  0  0  0  0  0  0  0
   42.5970   24.8830   42.5860 N   0  0  0  0  0  0  0  0  0  0  0  0
   41.4080   25.1390   43.1590 C   0  0  0  0  0  3  0  0  0  0  0  0
   41.1190   26.4540   43.4950 C   0  0  0  0  0  0  0  0  0  0  0  0
   42.0570   27.4490   43.2320 C   0  0  0  0  0  0  0  0  0  0  0  0
   41.9080   28.6740   43.4920 O   0  0  0  0  0  0  0  0  0  0  0  0
   43.2480   27.1320   42.6490 N   0  0  0  0  0  0  0  0  0  0  0  0
   43.5030   25.8510   42.3330 C   0  0  0  0  0  0  0  0  0  0  0  0
   44.5990   25.4970   41.7880 O   0  0  0  0  0  0  0  0  0  0  0  0
   43.9890   27.8090   42.4230 H   0  0  0  0  0  0  0  0  0  0  0  0
  1  5  1  0  0  0  0
  1  2  2  0  0  0  0
  2  6  1  0  0  0  0
  2  3  1  0  0  0  0
  3  7  1  0  0  0  0
  4  3  2  0  0  0  0
  4 23  1  0  0  0  0
  5  4  1  0  0  0  0
  8  1  1  0  0  0  0
  9  8  1  0  0  0  0
 10  8  1  0  0  0  0
 11  8  1  0  0  0  0
 11 13  1  0  0  0  0
 12 11  1  0  0  0  0
 14 11  1  0  0  0  0
 14 15  1  0  0  0  0
 15 20  1  0  0  0  0
 16 15  2  0  0  0  0
 16 21  1  0  0  0  0
 17 16  1  0  0  0  0
 18 19  1  0  0  0  0
 18 17  2  0  0  0  0
 19 14  2  0  0  0  0
 22 18  1  0  0  0  0
 24 25  1  0  0  0  0
 25 26  1  0  0  0  0
 26 27  2  0  0  0  0
 27 23  1  0  0  0  0
 28 29  2  0  0  0  0
 28 27  1  0  0  0  0
 30 28  1  0  0  0  0
 31 25  1  0  0  0  0
 31 30  1  0  0  0  0
 32 31  2  0  0  0  0
 33 30  1  0  0  0  0
M  END
>  <minimizedAffinity>
-5.16477871

$$$$

 OpenBabel03242518163D

 33 35  0  0  0  0  0  0  0  0999 V2000
   36.9130   30.0390   39.8420 C   0  0  0  0  0  0  0  0  0  0  0  0
   35.8320   29.5750   40.6250 C   0  0  0  0  0  0  0  0  0  0  0  0
   35.9480   28.4750   41.4060 C   0  0  0  0  0  0  0  0  0  0  0  0
   37.2180   27.8140   41.3930 C   0  0  0  0  0  0  0  0  0  0  0  0
   38.2400   28.7700   40.2620 S   0  0  0  0  0  0  0  0  0  0  0  0
   34.9820   30.1890   40.5030 H   0  0  0  0  0  0  0  0  0  0  0  0
   35.1250   28.1200   42.0040 H   0  0  0  0  0  0  0  0  0  0  0  0
   37.1690   31.1120   38.9580 C   0  0  0  0  0  0  0  0  0  0  0  0
   38.2000   30.9550   38.5070 H   0  0  0  0  0  0  0  0  0  0  0  0
   36.5110   31.0030   38.0480 H   0  0  0  0  0  0  0  0  0  0  0  0
   37.0600   32.4870   39.4750 C   0  0  0  0  0  0  0  0  0  0  0  0
   36.3050   33.1180   38.9230 H   0  0  0  0  0  0  0  0  0  0  0  0
   36.6550   32.4280   40.5240 H   0  0  0  0  0  0  0  0  0  0  0  0
   38.3780   33.1090   39.5740 C   0  0  0  0  0  0  0  0  0  0  0  0
   39.4960   32.4840   39.0680 C   0  0  0  0  0  0  0  0  0  0  0  0
   40.7350   33.1260   39.1930 C   0  0  0  0  0  0  0  0  0  0  0  0
   40.7490   34.3280   39.8090 N   0  0  0  0  0  0  0  0  0  0  0  0
   39.6460   34.9100   40.2900 C   0  0  0  0  0  0  0  0  0  0  0  0
   38.4880   34.3020   40.1690 N   0  0  0  0  0  0  0  0  0  0  0  0
   39.3760   31.5240   38.5940 H   0  0  0  0  0  0  0  0  0  0  0  0
   41.6250   32.6350   38.7930 H   0  0  0  0  0  0  0  0  0  0  0  0
   39.7810   35.8740   40.7640 H   0  0  0  0  0  0  0  0  0  0  0  0
   37.5430   26.7600   42.0580 O   0  0  0  0  0  0  0  0  0  0  0  0
   36.4200   23.5840   39.0710 H   0  0  0  0  0  0  0  0  0  0  0  0
   36.9840   23.8210   39.9070 N   0  0  0  0  0  0  0  0  0  0  0  0
   36.8310   25.0870   40.3300 C   0  0  0  0  0  3  0  0  0  0  0  0
   37.5500   25.4900   41.4470 C   0  0  0  0  0  0  0  0  0  0  0  0
   38.3940   24.5810   42.0820 C   0  0  0  0  0  0  0  0  0  0  0  0
   39.0950   24.8300   43.1000 O   0  0  0  0  0  0  0  0  0  0  0  0
   38.5110   23.3080   41.6080 N   0  0  0  0  0  0  0  0  0  0  0  0
   37.8030   22.9440   40.5250 C   0  0  0  0  0  0  0  0  0  0  0  0
   37.8720   21.7670   40.0400 O   0  0  0  0  0  0  0  0  0  0  0  0
   39.1110   22.5810   42.0200 H   0  0  0  0  0  0  0  0  0  0  0  0
  1  5  1  0  0  0  0
  1  2  2  0  0  0  0
  2  3  1  0  0  0  0
  3  7  1  0  0  0  0
  4  3  2  0  0  0  0
  4 23  1  0  0  0  0
  5  4  1  0  0  0  0
  6  2  1  0  0  0  0
  8 11  1  0  0  0  0
  8  1  1  0  0  0  0
  9  8  1  0  0  0  0
 10  8  1  0  0  0  0
 11 14  1  0  0  0  0
 11 13  1  0  0  0  0
 12 11  1  0  0  0  0
 14 19  1  0  0  0  0
 15 16  1  0  0  0  0
 15 14  2  0  0  0  0
 16 17  2  0  0  0  0
 17 18  1  0  0  0  0
 18 22  1  0  0  0  0
 19 18  2  0  0  0  0
 20 15  1  0  0  0  0
 21 16  1  0  0  0  0
 24 25  1  0  0  0  0
 25 26  1  0  0  0  0
 25 31  1  0  0  0  0
 26 27  2  0  0  0  0
 27 23  1  0  0  0  0
 27 28  1  0  0  0  0
 28 29  2  0  0  0  0
 30 33  1  0  0  0  0
 30 28  1  0  0  0  0
 31 30  1  0  0  0  0
 32 31  2  0  0  0  0
M  END
>  <minimizedAffinity>
-5.10170507

$$$$
