
 OpenBabel03252509323D

 28 29  0  0  0  0  0  0  0  0999 V2000
   51.0330   33.7880   42.4620 O   0  0  0  0  0  0  0  0  0  0  0  0
   49.6210   33.8220   41.9680 P   0  0  2  0  0  0  0  0  0  0  0  0
   49.2190   35.2780   41.2260 O   0  0  0  0  0  0  0  0  0  0  0  0
   49.0090   35.9910   41.8810 H   0  0  0  0  0  0  0  0  0  0  0  0
   48.5530   33.6030   43.2620 O   0  0  0  0  0  0  0  0  0  0  0  0
   47.2710   33.4970   42.7280 C   0  0  0  0  0  0  0  0  0  0  0  0
   46.8990   32.4320   42.7790 H   0  0  0  0  0  0  0  0  0  0  0  0
   47.2100   33.7930   41.6600 H   0  0  0  0  0  0  0  0  0  0  0  0
   45.0050   34.7210   45.4310 C   0  0  0  0  0  0  0  0  0  0  0  0
   45.9240   33.9060   44.7370 C   0  0  0  0  0  0  0  0  0  0  0  0
   46.3120   34.3230   43.4790 C   0  0  0  0  0  0  0  0  0  0  0  0
   45.7950   35.4900   42.9740 N   0  0  0  0  0  0  0  0  0  0  0  0
   44.9160   36.2440   43.6670 C   0  0  0  0  0  0  0  0  0  0  0  0
   44.5270   35.8580   44.8880 N   0  0  0  0  0  0  0  0  0  0  0  0
   44.6850   34.4260   46.4060 H   0  0  0  0  0  0  0  0  0  0  0  0
   46.3260   32.9930   45.1410 H   0  0  0  0  0  0  0  0  0  0  0  0
   44.5760   37.1420   43.1690 H   0  0  0  0  0  0  0  0  0  0  0  0
   49.3930   32.5330   40.8950 O   0  0  0  0  0  0  0  0  0  0  0  0
   49.4280   28.5470   42.7760 H   0  0  0  0  0  0  0  0  0  0  0  0
   49.9050   29.1800   42.0830 N   0  0  0  0  0  0  0  0  0  0  0  0
   49.3410   30.3890   41.9640 C   0  0  0  0  0  3  0  0  0  0  0  0
   49.9240   31.2810   41.0620 C   0  0  0  0  0  0  0  0  0  0  0  0
   51.0420   30.8650   40.3490 C   0  0  0  0  0  0  0  0  0  0  0  0
   51.5920   31.6450   39.5270 O   0  0  0  0  0  0  0  0  0  0  0  0
   51.5230   29.6210   40.5530 N   0  0  0  0  0  0  0  0  0  0  0  0
   50.9690   28.7360   41.4300 C   0  0  0  0  0  0  0  0  0  0  0  0
   51.4680   27.5910   41.5710 O   0  0  0  0  0  0  0  0  0  0  0  0
   52.3800   29.3590   39.9810 H   0  0  0  0  0  0  0  0  0  0  0  0
  2  1  2  1  0  0  0
  2  5  1  0  0  0  0
  3  4  1  0  0  0  0
  3  2  1  0  0  0  0
  6  7  1  0  0  0  0
  6  5  1  0  0  0  0
  6 11  1  0  0  0  0
  8  6  1  0  0  0  0
  9 15  1  0  0  0  0
 10 16  1  0  0  0  0
 10  9  2  0  0  0  0
 11 10  1  0  0  0  0
 12 11  2  0  0  0  0
 12 13  1  0  0  0  0
 13 14  2  0  0  0  0
 14  9  1  0  0  0  0
 17 13  1  0  0  0  0
 18 22  1  0  0  0  0
 18  2  1  0  0  0  0
 20 19  1  0  0  0  0
 21 20  1  0  0  0  0
 22 21  2  0  0  0  0
 23 25  1  0  0  0  0
 23 22  1  0  0  0  0
 24 23  2  0  0  0  0
 25 26  1  0  0  0  0
 26 27  2  0  0  0  0
 26 20  1  0  0  0  0
 28 25  1  0  0  0  0
M  END
>  <minimizedAffinity>
-4.03903913

>  <minimizedRMSD>
3.64664698

$$$$
