
 OpenBabel03252507043D

 48 51  0  0  0  0  0  0  0  0999 V2000
   41.9340   34.0950   40.9970 C   0  0  0  0  0  0  0  0  0  0  0  0
   41.6010   34.0960   42.0580 H   0  0  0  0  0  0  0  0  0  0  0  0
   42.2080   35.1910   40.8120 H   0  0  0  0  0  0  0  0  0  0  0  0
   41.0050   33.6300   40.1540 N   0  0  0  0  0  0  0  0  0  0  0  0
   40.3710   32.3500   40.1850 C   0  0  0  0  0  0  0  0  0  0  0  0
   39.0070   32.7740   40.7100 C   0  0  0  0  0  0  0  0  0  0  0  0
   38.3120   33.7340   39.8710 C   0  0  0  0  0  0  0  0  0  0  0  0
   39.0850   34.5720   38.9820 C   0  0  0  0  0  0  0  0  0  0  0  0
   40.5930   34.5830   39.0980 C   0  0  0  0  0  0  0  0  0  0  0  0
   40.3540   31.7460   39.2950 H   0  0  0  0  0  0  0  0  0  0  0  0
   40.8240   31.7400   40.9970 H   0  0  0  0  0  0  0  0  0  0  0  0
   38.4250   31.8240   40.8680 H   0  0  0  0  0  0  0  0  0  0  0  0
   39.1750   33.1620   41.7350 H   0  0  0  0  0  0  0  0  0  0  0  0
   37.6840   34.3940   40.5250 H   0  0  0  0  0  0  0  0  0  0  0  0
   37.5660   33.1770   39.2300 H   0  0  0  0  0  0  0  0  0  0  0  0
   38.6960   35.2120   38.2540 H   0  0  0  0  0  0  0  0  0  0  0  0
   41.6450   35.5320   38.1230 S   0  0  0  0  0  0  0  0  0  0  0  0
   39.8230   39.8430   38.6040 H   0  0  0  0  0  0  0  0  0  0  0  0
   40.1650   39.0860   37.9730 N   0  0  0  0  0  0  0  0  0  0  0  0
   40.6830   37.8670   38.3050 C   0  0  0  0  0  3  0  0  0  0  0  0
   41.1000   36.9540   37.3180 C   0  0  0  0  0  0  0  0  0  0  0  0
   40.9340   37.4080   36.0360 C   0  0  0  0  0  0  0  0  0  0  0  0
   41.2990   36.5900   35.1660 O   0  0  0  0  0  0  0  0  0  0  0  0
   40.4320   38.5960   35.6720 N   0  0  0  0  0  0  0  0  0  0  0  0
   40.0610   39.4030   36.6730 C   0  0  0  0  0  0  0  0  0  0  0  0
   39.5950   40.5080   36.2780 O   0  0  0  0  0  0  0  0  0  0  0  0
   40.3780   38.7820   34.6500 H   0  0  0  0  0  0  0  0  0  0  0  0
   43.2360   33.3820   40.9140 C   0  0  0  0  0  0  0  0  0  0  0  0
   43.1970   32.3260   41.2450 H   0  0  0  0  0  0  0  0  0  0  0  0
   43.5100   33.3290   39.8250 H   0  0  0  0  0  0  0  0  0  0  0  0
   44.2500   34.1820   41.6260 C   0  0  0  0  0  0  0  0  0  0  0  0
   43.8830   35.3230   42.3060 C   0  0  0  0  0  0  0  0  0  0  0  0
   44.8730   36.0510   42.9520 C   0  0  0  0  0  0  0  0  0  0  0  0
   46.1620   35.5940   42.8800 N   0  0  0  0  0  0  0  0  0  0  0  0
   46.4720   34.4860   42.2150 C   0  0  0  0  0  0  0  0  0  0  0  0
   45.5060   33.7970   41.5970 N   0  0  0  0  0  0  0  0  0  0  0  0
   42.9490   35.8270   42.4910 H   0  0  0  0  0  0  0  0  0  0  0  0
   44.7750   36.9730   43.5330 H   0  0  0  0  0  0  0  0  0  0  0  0
   47.8680   34.0570   42.2190 C   0  0  0  0  0  0  0  0  0  0  0  0
   48.1950   32.7210   41.9990 C   0  0  0  0  0  0  0  0  0  0  0  0
   49.5180   32.3250   42.0200 C   0  0  0  0  0  0  0  0  0  0  0  0
   50.4180   33.3370   42.2680 C   0  0  0  0  0  0  0  0  0  0  0  0
   50.1390   34.6740   42.4920 C   0  0  0  0  0  0  0  0  0  0  0  0
   48.8190   34.9860   42.4550 N   0  0  0  0  0  0  0  0  0  0  0  0
   47.4320   31.9680   41.8070 H   0  0  0  0  0  0  0  0  0  0  0  0
   49.8620   31.3140   41.8620 H   0  0  0  0  0  0  0  0  0  0  0  0
   51.4740   33.0640   42.2950 H   0  0  0  0  0  0  0  0  0  0  0  0
   50.9170   35.3970   42.6780 H   0  0  0  0  0  0  0  0  0  0  0  0
  1  2  1  0  0  0  0
  3  1  1  0  0  0  0
  4  5  1  0  0  0  0
  4  1  1  0  0  0  0
  5  6  1  0  0  0  0
  5 11  1  0  0  0  0
  6 12  1  0  0  0  0
  6 13  1  0  0  0  0
  7 14  1  0  0  0  0
  7  6  1  0  0  0  0
  8  9  2  0  0  0  0
  8  7  1  0  0  0  0
  9  4  1  0  0  0  0
 10  5  1  0  0  0  0
 15  7  1  0  0  0  0
 16  8  1  0  0  0  0
 17  9  1  0  0  0  0
 19 20  1  0  0  0  0
 19 18  1  0  0  0  0
 21 17  1  0  0  0  0
 21 20  2  0  0  0  0
 22 21  1  0  0  0  0
 23 22  2  0  0  0  0
 24 22  1  0  0  0  0
 24 25  1  0  0  0  0
 25 19  1  0  0  0  0
 26 25  2  0  0  0  0
 27 24  1  0  0  0  0
 28  1  1  0  0  0  0
 28 29  1  0  0  0  0
 28 31  1  0  0  0  0
 30 28  1  0  0  0  0
 31 32  1  0  0  0  0
 32 37  1  0  0  0  0
 32 33  2  0  0  0  0
 33 38  1  0  0  0  0
 34 33  1  0  0  0  0
 35 39  1  0  0  0  0
 35 34  2  0  0  0  0
 36 31  2  0  0  0  0
 36 35  1  0  0  0  0
 39 44  1  0  0  0  0
 40 41  1  0  0  0  0
 40 39  2  0  0  0  0
 41 42  2  0  0  0  0
 42 47  1  0  0  0  0
 42 43  1  0  0  0  0
 43 48  1  0  0  0  0
 44 43  2  0  0  0  0
 45 40  1  0  0  0  0
 46 41  1  0  0  0  0
M  END
>  <minimizedAffinity>
-1.60836422

>  <minimizedRMSD>
0.31523326

$$$$
