
 OpenBabel03252509323D

 28 29  0  0  0  0  0  0  0  0999 V2000
   38.2890   30.7420   41.5000 O   0  0  0  0  0  0  0  0  0  0  0  0
   37.1300   30.8990   40.5660 P   0  0  2  0  0  0  0  0  0  0  0  0
   35.6620   31.0930   41.3670 O   0  0  0  0  0  0  0  0  0  0  0  0
   35.2890   30.2330   41.6880 H   0  0  0  0  0  0  0  0  0  0  0  0
   36.9910   29.5280   39.5840 O   0  0  0  0  0  0  0  0  0  0  0  0
   35.9550   28.7520   40.0980 C   0  0  0  0  0  0  0  0  0  0  0  0
   35.2120   28.4860   39.2920 H   0  0  0  0  0  0  0  0  0  0  0  0
   35.3740   29.2620   40.8950 H   0  0  0  0  0  0  0  0  0  0  0  0
   37.2680   26.2030   42.4890 C   0  0  0  0  0  0  0  0  0  0  0  0
   36.7850   27.4320   41.9920 C   0  0  0  0  0  0  0  0  0  0  0  0
   36.4620   27.4860   40.6500 C   0  0  0  0  0  0  0  0  0  0  0  0
   36.6210   26.3610   39.8800 N   0  0  0  0  0  0  0  0  0  0  0  0
   37.0860   25.2010   40.3910 C   0  0  0  0  0  0  0  0  0  0  0  0
   37.4060   25.1280   41.6890 N   0  0  0  0  0  0  0  0  0  0  0  0
   37.5270   26.1290   43.5220 H   0  0  0  0  0  0  0  0  0  0  0  0
   36.6620   28.3090   42.6030 H   0  0  0  0  0  0  0  0  0  0  0  0
   37.1710   24.3820   39.6900 H   0  0  0  0  0  0  0  0  0  0  0  0
   37.4260   32.2230   39.5530 O   0  0  0  0  0  0  0  0  0  0  0  0
   40.2070   31.6580   36.1800 H   0  0  0  0  0  0  0  0  0  0  0  0
   40.0580   32.1330   37.1080 N   0  0  0  0  0  0  0  0  0  0  0  0
   38.8780   31.8630   37.6820 C   0  0  0  0  0  3  0  0  0  0  0  0
   38.6150   32.4610   38.9160 C   0  0  0  0  0  0  0  0  0  0  0  0
   39.5830   33.2900   39.4690 C   0  0  0  0  0  0  0  0  0  0  0  0
   39.3770   33.8440   40.5800 O   0  0  0  0  0  0  0  0  0  0  0  0
   40.7370   33.4890   38.7980 N   0  0  0  0  0  0  0  0  0  0  0  0
   41.0120   32.9140   37.5920 C   0  0  0  0  0  0  0  0  0  0  0  0
   42.1080   33.1420   37.0200 O   0  0  0  0  0  0  0  0  0  0  0  0
   41.4390   34.1320   39.2690 H   0  0  0  0  0  0  0  0  0  0  0  0
  2  3  1  0  0  0  0
  2  1  2  1  0  0  0
  3  4  1  0  0  0  0
  5  6  1  0  0  0  0
  5  2  1  0  0  0  0
  6 11  1  0  0  0  0
  6  8  1  0  0  0  0
  7  6  1  0  0  0  0
  9 15  1  0  0  0  0
 10  9  1  0  0  0  0
 10 16  1  0  0  0  0
 11 10  2  0  0  0  0
 12 13  2  0  0  0  0
 12 11  1  0  0  0  0
 13 14  1  0  0  0  0
 14  9  2  0  0  0  0
 17 13  1  0  0  0  0
 18  2  1  0  0  0  0
 19 20  1  0  0  0  0
 20 26  1  0  0  0  0
 20 21  1  0  0  0  0
 21 22  2  0  0  0  0
 22 23  1  0  0  0  0
 22 18  1  0  0  0  0
 23 24  2  0  0  0  0
 25 28  1  0  0  0  0
 25 23  1  0  0  0  0
 26 25  1  0  0  0  0
 27 26  2  0  0  0  0
M  END
>  <minimizedAffinity>
-5.24406433

$$$$

 OpenBabel03252509323D

 28 29  0  0  0  0  0  0  0  0999 V2000
   37.9660   29.9790   42.4870 O   0  0  0  0  0  0  0  0  0  0  0  0
   36.9700   29.7720   41.3900 P   0  0  2  0  0  0  0  0  0  0  0  0
   35.6850   30.8580   41.4530 O   0  0  0  0  0  0  0  0  0  0  0  0
   35.0030   30.5980   42.1230 H   0  0  0  0  0  0  0  0  0  0  0  0
   36.3190   28.2130   41.4900 O   0  0  0  0  0  0  0  0  0  0  0  0
   36.6080   27.7230   42.7610 C   0  0  0  0  0  0  0  0  0  0  0  0
   35.6660   27.3980   43.2920 H   0  0  0  0  0  0  0  0  0  0  0  0
   37.0920   28.4700   43.4240 H   0  0  0  0  0  0  0  0  0  0  0  0
   37.8640   24.2750   42.0770 C   0  0  0  0  0  0  0  0  0  0  0  0
   36.9940   25.3840   42.1310 C   0  0  0  0  0  0  0  0  0  0  0  0
   37.4890   26.5460   42.6890 C   0  0  0  0  0  0  0  0  0  0  0  0
   38.7800   26.5660   43.1560 N   0  0  0  0  0  0  0  0  0  0  0  0
   39.5830   25.4840   43.0870 C   0  0  0  0  0  0  0  0  0  0  0  0
   39.1240   24.3480   42.5490 N   0  0  0  0  0  0  0  0  0  0  0  0
   37.5120   23.3620   41.6510 H   0  0  0  0  0  0  0  0  0  0  0  0
   35.9840   25.3610   41.7620 H   0  0  0  0  0  0  0  0  0  0  0  0
   40.5800   25.6160   43.4860 H   0  0  0  0  0  0  0  0  0  0  0  0
   37.7710   29.8950   39.9030 O   0  0  0  0  0  0  0  0  0  0  0  0
   41.8440   31.5050   39.3990 H   0  0  0  0  0  0  0  0  0  0  0  0
   40.8150   31.7140   39.3180 N   0  0  0  0  0  0  0  0  0  0  0  0
   40.0160   30.6930   39.6550 C   0  0  0  0  0  3  0  0  0  0  0  0
   38.6390   30.9020   39.5720 C   0  0  0  0  0  0  0  0  0  0  0  0
   38.1830   32.1450   39.1500 C   0  0  0  0  0  0  0  0  0  0  0  0
   36.9470   32.3660   39.0640 O   0  0  0  0  0  0  0  0  0  0  0  0
   39.0830   33.1010   38.8360 N   0  0  0  0  0  0  0  0  0  0  0  0
   40.4310   32.9150   38.9110 C   0  0  0  0  0  0  0  0  0  0  0  0
   41.2150   33.8490   38.6040 O   0  0  0  0  0  0  0  0  0  0  0  0
   38.6750   34.0300   38.5200 H   0  0  0  0  0  0  0  0  0  0  0  0
  2  3  1  0  0  0  0
  2  5  1  0  0  0  0
  2  1  2  1  0  0  0
  3  4  1  0  0  0  0
  5  6  1  0  0  0  0
  6  7  1  0  0  0  0
  6  8  1  0  0  0  0
  9 10  2  0  0  0  0
  9 14  1  0  0  0  0
 10 11  1  0  0  0  0
 11  6  1  0  0  0  0
 11 12  2  0  0  0  0
 13 12  1  0  0  0  0
 13 17  1  0  0  0  0
 14 13  2  0  0  0  0
 15  9  1  0  0  0  0
 16 10  1  0  0  0  0
 18  2  1  0  0  0  0
 20 19  1  0  0  0  0
 20 21  1  0  0  0  0
 22 21  2  0  0  0  0
 22 18  1  0  0  0  0
 23 22  1  0  0  0  0
 24 23  2  0  0  0  0
 25 26  1  0  0  0  0
 25 23  1  0  0  0  0
 26 20  1  0  0  0  0
 27 26  2  0  0  0  0
 28 25  1  0  0  0  0
M  END
>  <minimizedAffinity>
-5.22794056

$$$$

 OpenBabel03252509323D

 28 29  0  0  0  0  0  0  0  0999 V2000
   38.1750   30.5580   41.3890 O   0  0  0  0  0  0  0  0  0  0  0  0
   36.9680   30.7450   40.5240 P   0  0  2  0  0  0  0  0  0  0  0  0
   35.5560   30.9880   41.4100 O   0  0  0  0  0  0  0  0  0  0  0  0
   35.1780   30.1410   41.7580 H   0  0  0  0  0  0  0  0  0  0  0  0
   36.7300   29.3740   39.5620 O   0  0  0  0  0  0  0  0  0  0  0  0
   35.3620   29.1090   39.5490 C   0  0  0  0  0  0  0  0  0  0  0  0
   34.7900   29.9150   40.0920 H   0  0  0  0  0  0  0  0  0  0  0  0
   35.0910   28.1530   40.0430 H   0  0  0  0  0  0  0  0  0  0  0  0
   35.2060   29.1270   35.8180 C   0  0  0  0  0  0  0  0  0  0  0  0
   35.7370   29.1710   37.1250 C   0  0  0  0  0  0  0  0  0  0  0  0
   34.8430   29.0670   38.1720 C   0  0  0  0  0  0  0  0  0  0  0  0
   33.5050   28.9270   37.8960 N   0  0  0  0  0  0  0  0  0  0  0  0
   33.0340   28.8890   36.6320 C   0  0  0  0  0  0  0  0  0  0  0  0
   33.8830   28.9880   35.6030 N   0  0  0  0  0  0  0  0  0  0  0  0
   35.8720   29.2050   34.9870 H   0  0  0  0  0  0  0  0  0  0  0  0
   36.7870   29.2800   37.3330 H   0  0  0  0  0  0  0  0  0  0  0  0
   31.9630   28.7760   36.5360 H   0  0  0  0  0  0  0  0  0  0  0  0
   37.2420   32.0540   39.4870 O   0  0  0  0  0  0  0  0  0  0  0  0
   40.0930   31.6050   36.1550 H   0  0  0  0  0  0  0  0  0  0  0  0
   39.9200   32.0570   37.0900 N   0  0  0  0  0  0  0  0  0  0  0  0
   38.7340   31.7580   37.6360 C   0  0  0  0  0  3  0  0  0  0  0  0
   38.4390   32.3230   38.8780 C   0  0  0  0  0  0  0  0  0  0  0  0
   39.3850   33.1520   39.4680 C   0  0  0  0  0  0  0  0  0  0  0  0
   39.1510   33.6770   40.5880 O   0  0  0  0  0  0  0  0  0  0  0  0
   40.5480   33.3820   38.8240 N   0  0  0  0  0  0  0  0  0  0  0  0
   40.8530   32.8400   37.6100 C   0  0  0  0  0  0  0  0  0  0  0  0
   41.9570   33.0950   37.0650 O   0  0  0  0  0  0  0  0  0  0  0  0
   41.2320   34.0240   39.3230 H   0  0  0  0  0  0  0  0  0  0  0  0
  2  1  2  1  0  0  0
  2  3  1  0  0  0  0
  3  4  1  0  0  0  0
  5  2  1  0  0  0  0
  6  5  1  0  0  0  0
  6  8  1  0  0  0  0
  6  7  1  0  0  0  0
  9 10  1  0  0  0  0
 10 16  1  0  0  0  0
 10 11  2  0  0  0  0
 11  6  1  0  0  0  0
 12 11  1  0  0  0  0
 13 12  2  0  0  0  0
 14  9  2  0  0  0  0
 14 13  1  0  0  0  0
 15  9  1  0  0  0  0
 17 13  1  0  0  0  0
 18  2  1  0  0  0  0
 19 20  1  0  0  0  0
 20 26  1  0  0  0  0
 20 21  1  0  0  0  0
 21 22  2  0  0  0  0
 22 23  1  0  0  0  0
 22 18  1  0  0  0  0
 23 24  2  0  0  0  0
 25 28  1  0  0  0  0
 25 23  1  0  0  0  0
 26 25  1  0  0  0  0
 27 26  2  0  0  0  0
M  END
>  <minimizedAffinity>
-4.99911737

$$$$

 OpenBabel03252509323D

 28 29  0  0  0  0  0  0  0  0999 V2000
   36.9680   28.5180   39.7370 O   0  0  0  0  0  0  0  0  0  0  0  0
   36.1130   28.9390   40.8910 P   0  0  2  0  0  0  0  0  0  0  0  0
   34.5170   29.2450   40.4490 O   0  0  0  0  0  0  0  0  0  0  0  0
   34.4040   30.1390   40.0360 H   0  0  0  0  0  0  0  0  0  0  0  0
   36.7270   30.3580   41.5770 O   0  0  0  0  0  0  0  0  0  0  0  0
   36.6220   31.3620   40.6180 C   0  0  0  0  0  0  0  0  0  0  0  0
   35.7800   32.0720   40.8670 H   0  0  0  0  0  0  0  0  0  0  0  0
   36.4100   30.9800   39.5980 H   0  0  0  0  0  0  0  0  0  0  0  0
   38.9940   34.1610   39.9270 C   0  0  0  0  0  0  0  0  0  0  0  0
   37.7960   33.4180   39.9750 C   0  0  0  0  0  0  0  0  0  0  0  0
   37.8540   32.1640   40.5500 C   0  0  0  0  0  0  0  0  0  0  0  0
   39.0530   31.7090   41.0400 N   0  0  0  0  0  0  0  0  0  0  0  0
   40.1800   32.4490   40.9760 C   0  0  0  0  0  0  0  0  0  0  0  0
   40.1460   33.6670   40.4230 N   0  0  0  0  0  0  0  0  0  0  0  0
   38.9820   35.1340   39.4880 H   0  0  0  0  0  0  0  0  0  0  0  0
   36.8590   33.7820   39.5890 H   0  0  0  0  0  0  0  0  0  0  0  0
   41.0660   31.9890   41.3930 H   0  0  0  0  0  0  0  0  0  0  0  0
   36.1720   27.7320   42.0760 O   0  0  0  0  0  0  0  0  0  0  0  0
   39.9590   27.5710   44.3260 H   0  0  0  0  0  0  0  0  0  0  0  0
   39.3150   27.0470   43.6800 N   0  0  0  0  0  0  0  0  0  0  0  0
   38.2140   27.7260   43.3290 C   0  0  0  0  0  3  0  0  0  0  0  0
   37.3150   27.0890   42.4710 C   0  0  0  0  0  0  0  0  0  0  0  0
   37.6130   25.8030   42.0360 C   0  0  0  0  0  0  0  0  0  0  0  0
   36.8230   25.2010   41.2630 O   0  0  0  0  0  0  0  0  0  0  0  0
   38.7540   25.2180   42.4570 N   0  0  0  0  0  0  0  0  0  0  0  0
   39.6440   25.8230   43.2950 C   0  0  0  0  0  0  0  0  0  0  0  0
   40.6890   25.2200   43.6470 O   0  0  0  0  0  0  0  0  0  0  0  0
   38.9280   24.2350   42.0920 H   0  0  0  0  0  0  0  0  0  0  0  0
  2  1  2  6  0  0  0
  2  5  1  0  0  0  0
  2 18  1  0  0  0  0
  3  2  1  0  0  0  0
  4  3  1  0  0  0  0
  6  7  1  0  0  0  0
  6  5  1  0  0  0  0
  8  6  1  0  0  0  0
  9 10  2  0  0  0  0
  9 14  1  0  0  0  0
 10 11  1  0  0  0  0
 11  6  1  0  0  0  0
 11 12  2  0  0  0  0
 13 12  1  0  0  0  0
 13 17  1  0  0  0  0
 14 13  2  0  0  0  0
 15  9  1  0  0  0  0
 16 10  1  0  0  0  0
 18 22  1  0  0  0  0
 20 19  1  0  0  0  0
 21 20  1  0  0  0  0
 22 21  2  0  0  0  0
 23 25  1  0  0  0  0
 23 22  1  0  0  0  0
 24 23  2  0  0  0  0
 25 26  1  0  0  0  0
 26 27  2  0  0  0  0
 26 20  1  0  0  0  0
 28 25  1  0  0  0  0
M  END
>  <minimizedAffinity>
-4.95276833

$$$$

 OpenBabel03252509323D

 28 29  0  0  0  0  0  0  0  0999 V2000
   37.4330   29.4150   40.1420 O   0  0  0  0  0  0  0  0  0  0  0  0
   37.2200   30.3210   41.3140 P   0  0  2  0  0  0  0  0  0  0  0  0
   35.7150   31.0750   41.2970 O   0  0  0  0  0  0  0  0  0  0  0  0
   35.6890   31.8550   40.6870 H   0  0  0  0  0  0  0  0  0  0  0  0
   38.3940   31.5390   41.3220 O   0  0  0  0  0  0  0  0  0  0  0  0
   38.0590   32.4450   40.3180 C   0  0  0  0  0  0  0  0  0  0  0  0
   37.6890   33.4160   40.7590 H   0  0  0  0  0  0  0  0  0  0  0  0
   37.2520   32.0840   39.6470 H   0  0  0  0  0  0  0  0  0  0  0  0
   40.6560   32.2820   37.6400 C   0  0  0  0  0  0  0  0  0  0  0  0
   39.5300   31.9430   38.4210 C   0  0  0  0  0  0  0  0  0  0  0  0
   39.2270   32.7700   39.4840 C   0  0  0  0  0  0  0  0  0  0  0  0
   40.0210   33.8640   39.7260 N   0  0  0  0  0  0  0  0  0  0  0  0
   41.0900   34.1580   38.9570 C   0  0  0  0  0  0  0  0  0  0  0  0
   41.4010   33.3690   37.9220 N   0  0  0  0  0  0  0  0  0  0  0  0
   40.9160   31.6630   36.8110 H   0  0  0  0  0  0  0  0  0  0  0  0
   38.9130   31.0830   38.2240 H   0  0  0  0  0  0  0  0  0  0  0  0
   41.6420   35.0440   39.2420 H   0  0  0  0  0  0  0  0  0  0  0  0
   37.4100   29.4200   42.7350 O   0  0  0  0  0  0  0  0  0  0  0  0
   41.5020   27.8490   43.2070 H   0  0  0  0  0  0  0  0  0  0  0  0
   40.4820   27.5980   43.1340 N   0  0  0  0  0  0  0  0  0  0  0  0
   39.6640   28.6490   42.9890 C   0  0  0  0  0  3  0  0  0  0  0  0
   38.2970   28.3870   42.8840 C   0  0  0  0  0  0  0  0  0  0  0  0
   37.8710   27.0650   42.9350 C   0  0  0  0  0  0  0  0  0  0  0  0
   36.6450   26.7950   42.8440 O   0  0  0  0  0  0  0  0  0  0  0  0
   38.7890   26.0870   43.0840 N   0  0  0  0  0  0  0  0  0  0  0  0
   40.1280   26.3230   43.1880 C   0  0  0  0  0  0  0  0  0  0  0  0
   40.9290   25.3640   43.3240 O   0  0  0  0  0  0  0  0  0  0  0  0
   38.4040   25.0960   43.1160 H   0  0  0  0  0  0  0  0  0  0  0  0
  2  1  2  6  0  0  0
  2  5  1  0  0  0  0
  2 18  1  0  0  0  0
  3  2  1  0  0  0  0
  4  3  1  0  0  0  0
  6  7  1  0  0  0  0
  6  5  1  0  0  0  0
  8  6  1  0  0  0  0
  9 14  2  0  0  0  0
  9 10  1  0  0  0  0
 10 11  2  0  0  0  0
 11 12  1  0  0  0  0
 11  6  1  0  0  0  0
 13 17  1  0  0  0  0
 13 12  2  0  0  0  0
 14 13  1  0  0  0  0
 15  9  1  0  0  0  0
 16 10  1  0  0  0  0
 18 22  1  0  0  0  0
 20 26  1  0  0  0  0
 20 19  1  0  0  0  0
 21 20  1  0  0  0  0
 22 23  1  0  0  0  0
 22 21  2  0  0  0  0
 23 25  1  0  0  0  0
 24 23  2  0  0  0  0
 25 28  1  0  0  0  0
 25 26  1  0  0  0  0
 26 27  2  0  0  0  0
M  END
>  <minimizedAffinity>
-4.95196724

$$$$

 OpenBabel03252509323D

 28 29  0  0  0  0  0  0  0  0999 V2000
   37.8700   29.9670   42.5770 O   0  0  0  0  0  0  0  0  0  0  0  0
   37.0310   29.7280   41.3620 P   0  0  2  0  0  0  0  0  0  0  0  0
   35.7380   30.7990   41.2330 O   0  0  0  0  0  0  0  0  0  0  0  0
   34.9760   30.5430   41.8120 H   0  0  0  0  0  0  0  0  0  0  0  0
   36.3870   28.1630   41.4040 O   0  0  0  0  0  0  0  0  0  0  0  0
   36.6100   27.6580   42.6830 C   0  0  0  0  0  0  0  0  0  0  0  0
   35.6440   27.3140   43.1540 H   0  0  0  0  0  0  0  0  0  0  0  0
   37.0470   28.4000   43.3820 H   0  0  0  0  0  0  0  0  0  0  0  0
   37.9290   24.2200   42.0610 C   0  0  0  0  0  0  0  0  0  0  0  0
   37.0440   25.3190   42.0830 C   0  0  0  0  0  0  0  0  0  0  0  0
   37.5080   26.4920   42.6440 C   0  0  0  0  0  0  0  0  0  0  0  0
   38.7860   26.5330   43.1430 N   0  0  0  0  0  0  0  0  0  0  0  0
   39.6050   25.4610   43.1050 C   0  0  0  0  0  0  0  0  0  0  0  0
   39.1750   24.3150   42.5660 N   0  0  0  0  0  0  0  0  0  0  0  0
   37.6000   23.2990   41.6340 H   0  0  0  0  0  0  0  0  0  0  0  0
   36.0430   25.2790   41.6890 H   0  0  0  0  0  0  0  0  0  0  0  0
   40.5900   25.6100   43.5280 H   0  0  0  0  0  0  0  0  0  0  0  0
   38.0210   29.8350   39.9920 O   0  0  0  0  0  0  0  0  0  0  0  0
   35.5260   28.2520   36.7200 H   0  0  0  0  0  0  0  0  0  0  0  0
   36.2210   28.9930   36.9970 N   0  0  0  0  0  0  0  0  0  0  0  0
   36.6360   28.9120   38.2690 C   0  0  0  0  0  3  0  0  0  0  0  0
   37.5590   29.8650   38.7030 C   0  0  0  0  0  0  0  0  0  0  0  0
   37.9890   30.8290   37.8000 C   0  0  0  0  0  0  0  0  0  0  0  0
   38.8200   31.7030   38.1590 O   0  0  0  0  0  0  0  0  0  0  0  0
   37.5010   30.8120   36.5410 N   0  0  0  0  0  0  0  0  0  0  0  0
   36.5980   29.8900   36.0990 C   0  0  0  0  0  0  0  0  0  0  0  0
   36.1850   29.9310   34.9120 O   0  0  0  0  0  0  0  0  0  0  0  0
   37.8660   31.5730   35.8960 H   0  0  0  0  0  0  0  0  0  0  0  0
  2  5  1  0  0  0  0
  2  1  2  1  0  0  0
  3  2  1  0  0  0  0
  3  4  1  0  0  0  0
  5  6  1  0  0  0  0
  6  7  1  0  0  0  0
  6  8  1  0  0  0  0
  9 10  2  0  0  0  0
  9 14  1  0  0  0  0
 10 11  1  0  0  0  0
 11  6  1  0  0  0  0
 11 12  2  0  0  0  0
 13 12  1  0  0  0  0
 13 17  1  0  0  0  0
 14 13  2  0  0  0  0
 15  9  1  0  0  0  0
 16 10  1  0  0  0  0
 18  2  1  0  0  0  0
 19 20  1  0  0  0  0
 20 21  1  0  0  0  0
 21 22  2  0  0  0  0
 22 18  1  0  0  0  0
 23 24  2  0  0  0  0
 23 22  1  0  0  0  0
 25 23  1  0  0  0  0
 26 25  1  0  0  0  0
 26 20  1  0  0  0  0
 27 26  2  0  0  0  0
 28 25  1  0  0  0  0
M  END
>  <minimizedAffinity>
-4.91969967

$$$$

 OpenBabel03252509323D

 28 29  0  0  0  0  0  0  0  0999 V2000
   36.5180   27.1540   37.6150 O   0  0  0  0  0  0  0  0  0  0  0  0
   37.3720   28.3820   37.6600 P   0  0  2  0  0  0  0  0  0  0  0  0
   38.1360   28.7060   36.1940 O   0  0  0  0  0  0  0  0  0  0  0  0
   38.9420   28.1480   36.0570 H   0  0  0  0  0  0  0  0  0  0  0  0
   38.5820   28.2010   38.8290 O   0  0  0  0  0  0  0  0  0  0  0  0
   38.1710   27.1920   39.6970 C   0  0  0  0  0  0  0  0  0  0  0  0
   38.9620   26.3910   39.7870 H   0  0  0  0  0  0  0  0  0  0  0  0
   37.2450   26.6760   39.3700 H   0  0  0  0  0  0  0  0  0  0  0  0
   36.7160   27.7080   43.0970 C   0  0  0  0  0  0  0  0  0  0  0  0
   36.9120   27.1810   41.8030 C   0  0  0  0  0  0  0  0  0  0  0  0
   37.9390   27.7190   41.0520 C   0  0  0  0  0  0  0  0  0  0  0  0
   38.7050   28.7230   41.5910 N   0  0  0  0  0  0  0  0  0  0  0  0
   38.4880   29.2020   42.8340 C   0  0  0  0  0  0  0  0  0  0  0  0
   37.4980   28.6940   43.5780 N   0  0  0  0  0  0  0  0  0  0  0  0
   35.9310   27.3130   43.7030 H   0  0  0  0  0  0  0  0  0  0  0  0
   36.3070   26.3940   41.3870 H   0  0  0  0  0  0  0  0  0  0  0  0
   39.1530   29.9920   43.1530 H   0  0  0  0  0  0  0  0  0  0  0  0
   36.4080   29.6950   38.1220 O   0  0  0  0  0  0  0  0  0  0  0  0
   38.8050   33.3940   38.1330 H   0  0  0  0  0  0  0  0  0  0  0  0
   38.1630   32.7780   38.6960 N   0  0  0  0  0  0  0  0  0  0  0  0
   37.7350   31.6880   38.0450 C   0  0  0  0  0  3  0  0  0  0  0  0
   36.8800   30.8260   38.7340 C   0  0  0  0  0  0  0  0  0  0  0  0
   36.5310   31.1440   40.0400 C   0  0  0  0  0  0  0  0  0  0  0  0
   35.7620   30.3870   40.6890 O   0  0  0  0  0  0  0  0  0  0  0  0
   37.0260   32.2710   40.5940 N   0  0  0  0  0  0  0  0  0  0  0  0
   37.8600   33.1260   39.9370 C   0  0  0  0  0  0  0  0  0  0  0  0
   38.2860   34.1590   40.5130 O   0  0  0  0  0  0  0  0  0  0  0  0
   36.7240   32.4630   41.5950 H   0  0  0  0  0  0  0  0  0  0  0  0
  2  1  2  6  0  0  0
  2 18  1  0  0  0  0
  2  5  1  0  0  0  0
  3  2  1  0  0  0  0
  4  3  1  0  0  0  0
  5  6  1  0  0  0  0
  6  7  1  0  0  0  0
  6 11  1  0  0  0  0
  8  6  1  0  0  0  0
  9 14  1  0  0  0  0
  9 15  1  0  0  0  0
 10  9  2  0  0  0  0
 11 12  2  0  0  0  0
 11 10  1  0  0  0  0
 12 13  1  0  0  0  0
 13 17  1  0  0  0  0
 13 14  2  0  0  0  0
 16 10  1  0  0  0  0
 18 22  1  0  0  0  0
 19 20  1  0  0  0  0
 20 26  1  0  0  0  0
 21 20  1  0  0  0  0
 21 22  2  0  0  0  0
 22 23  1  0  0  0  0
 23 25  1  0  0  0  0
 23 24  2  0  0  0  0
 25 28  1  0  0  0  0
 26 27  2  0  0  0  0
 26 25  1  0  0  0  0
M  END
>  <minimizedAffinity>
-4.87262726

$$$$

 OpenBabel03252509323D

 28 29  0  0  0  0  0  0  0  0999 V2000
   37.2460   29.2730   39.7040 O   0  0  0  0  0  0  0  0  0  0  0  0
   36.3960   30.0420   40.6650 P   0  0  2  0  0  0  0  0  0  0  0  0
   34.7630   29.6450   40.5630 O   0  0  0  0  0  0  0  0  0  0  0  0
   34.3120   30.0920   39.8020 H   0  0  0  0  0  0  0  0  0  0  0  0
   36.5320   31.7000   40.3560 O   0  0  0  0  0  0  0  0  0  0  0  0
   37.0860   31.8410   39.0860 C   0  0  0  0  0  0  0  0  0  0  0  0
   36.4350   32.4910   38.4310 H   0  0  0  0  0  0  0  0  0  0  0  0
   37.2040   30.8800   38.5450 H   0  0  0  0  0  0  0  0  0  0  0  0
   40.6840   32.6170   38.4610 C   0  0  0  0  0  0  0  0  0  0  0  0
   39.4300   31.9760   38.3760 C   0  0  0  0  0  0  0  0  0  0  0  0
   38.4070   32.4860   39.1510 C   0  0  0  0  0  0  0  0  0  0  0  0
   38.6550   33.5740   39.9510 N   0  0  0  0  0  0  0  0  0  0  0  0
   39.8690   34.1610   40.0070 C   0  0  0  0  0  0  0  0  0  0  0  0
   40.8730   33.6830   39.2640 N   0  0  0  0  0  0  0  0  0  0  0  0
   41.4950   32.2470   37.8740 H   0  0  0  0  0  0  0  0  0  0  0  0
   39.2440   31.1240   37.7450 H   0  0  0  0  0  0  0  0  0  0  0  0
   39.9470   35.0100   40.6730 H   0  0  0  0  0  0  0  0  0  0  0  0
   36.9690   29.7680   42.2340 O   0  0  0  0  0  0  0  0  0  0  0  0
   37.5220   25.4700   43.0450 H   0  0  0  0  0  0  0  0  0  0  0  0
   37.9910   26.4130   43.0200 N   0  0  0  0  0  0  0  0  0  0  0  0
   37.1850   27.4190   42.6550 C   0  0  0  0  0  3  0  0  0  0  0  0
   37.7420   28.6980   42.6010 C   0  0  0  0  0  0  0  0  0  0  0  0
   39.0840   28.8500   42.9280 C   0  0  0  0  0  0  0  0  0  0  0  0
   39.6170   29.9890   42.8900 O   0  0  0  0  0  0  0  0  0  0  0  0
   39.7990   27.7610   43.2830 N   0  0  0  0  0  0  0  0  0  0  0  0
   39.2730   26.5040   43.3400 C   0  0  0  0  0  0  0  0  0  0  0  0
   39.9950   25.5330   43.6790 O   0  0  0  0  0  0  0  0  0  0  0  0
   40.8190   27.9380   43.5220 H   0  0  0  0  0  0  0  0  0  0  0  0
  2  1  2  6  0  0  0
  2 18  1  0  0  0  0
  3  2  1  0  0  0  0
  4  3  1  0  0  0  0
  5  2  1  0  0  0  0
  6 11  1  0  0  0  0
  6  5  1  0  0  0  0
  7  6  1  0  0  0  0
  8  6  1  0  0  0  0
  9 14  1  0  0  0  0
 10  9  2  0  0  0  0
 10 11  1  0  0  0  0
 11 12  2  0  0  0  0
 12 13  1  0  0  0  0
 13 17  1  0  0  0  0
 14 13  2  0  0  0  0
 15  9  1  0  0  0  0
 16 10  1  0  0  0  0
 18 22  1  0  0  0  0
 20 19  1  0  0  0  0
 20 26  1  0  0  0  0
 21 20  1  0  0  0  0
 22 21  2  0  0  0  0
 22 23  1  0  0  0  0
 23 25  1  0  0  0  0
 24 23  2  0  0  0  0
 25 26  1  0  0  0  0
 25 28  1  0  0  0  0
 26 27  2  0  0  0  0
M  END
>  <minimizedAffinity>
-4.75

$$$$

 OpenBabel03252509323D

 28 29  0  0  0  0  0  0  0  0999 V2000
   36.1730   30.2110   38.7610 O   0  0  0  0  0  0  0  0  0  0  0  0
   36.4430   29.9190   40.2030 P   0  0  2  0  0  0  0  0  0  0  0  0
   35.8040   31.0820   41.2400 O   0  0  0  0  0  0  0  0  0  0  0  0
   36.3710   31.8920   41.2960 H   0  0  0  0  0  0  0  0  0  0  0  0
   38.1120   29.8620   40.4780 O   0  0  0  0  0  0  0  0  0  0  0  0
   38.3810   30.6860   41.5670 C   0  0  0  0  0  0  0  0  0  0  0  0
   39.0230   30.1530   42.3280 H   0  0  0  0  0  0  0  0  0  0  0  0
   37.4710   31.0160   42.1100 H   0  0  0  0  0  0  0  0  0  0  0  0
   41.1750   33.0100   40.7090 C   0  0  0  0  0  0  0  0  0  0  0  0
   40.4980   31.8390   41.1110 C   0  0  0  0  0  0  0  0  0  0  0  0
   39.1190   31.8910   41.1530 C   0  0  0  0  0  0  0  0  0  0  0  0
   38.4840   33.0580   40.8060 N   0  0  0  0  0  0  0  0  0  0  0  0
   39.1650   34.1590   40.4270 C   0  0  0  0  0  0  0  0  0  0  0  0
   40.5020   34.1300   40.3800 N   0  0  0  0  0  0  0  0  0  0  0  0
   42.2410   33.0030   40.6670 H   0  0  0  0  0  0  0  0  0  0  0  0
   41.0030   30.9280   41.3810 H   0  0  0  0  0  0  0  0  0  0  0  0
   38.5600   35.0200   40.1770 H   0  0  0  0  0  0  0  0  0  0  0  0
   35.8120   28.3920   40.5730 O   0  0  0  0  0  0  0  0  0  0  0  0
   37.9630   24.7200   39.4250 H   0  0  0  0  0  0  0  0  0  0  0  0
   37.6990   25.3540   40.2230 N   0  0  0  0  0  0  0  0  0  0  0  0
   36.9570   26.4110   39.8660 C   0  0  0  0  0  3  0  0  0  0  0  0
   36.5720   27.2930   40.8760 C   0  0  0  0  0  0  0  0  0  0  0  0
   36.9740   27.0240   42.1780 C   0  0  0  0  0  0  0  0  0  0  0  0
   36.6430   27.8000   43.1130 O   0  0  0  0  0  0  0  0  0  0  0  0
   37.7210   25.9260   42.4200 N   0  0  0  0  0  0  0  0  0  0  0  0
   38.1080   25.0540   41.4460 C   0  0  0  0  0  0  0  0  0  0  0  0
   38.8040   24.0490   41.7410 O   0  0  0  0  0  0  0  0  0  0  0  0
   37.9990   25.7730   43.4340 H   0  0  0  0  0  0  0  0  0  0  0  0
  2  1  2  6  0  0  0
  2  5  1  0  0  0  0
  2 18  1  0  0  0  0
  2  3  1  0  0  0  0
  3  4  1  0  0  0  0
  5  6  1  0  0  0  0
  6  8  1  0  0  0  0
  6  7  1  0  0  0  0
  9 10  1  0  0  0  0
 10 11  2  0  0  0  0
 10 16  1  0  0  0  0
 11  6  1  0  0  0  0
 12 11  1  0  0  0  0
 13 12  2  0  0  0  0
 14 13  1  0  0  0  0
 14  9  2  0  0  0  0
 15  9  1  0  0  0  0
 17 13  1  0  0  0  0
 18 22  1  0  0  0  0
 19 20  1  0  0  0  0
 20 26  1  0  0  0  0
 21 20  1  0  0  0  0
 21 22  2  0  0  0  0
 22 23  1  0  0  0  0
 23 25  1  0  0  0  0
 23 24  2  0  0  0  0
 25 28  1  0  0  0  0
 26 27  2  0  0  0  0
 26 25  1  0  0  0  0
M  END
>  <minimizedAffinity>
-4.71500969

$$$$
