
 OpenBabel03252509323D

 28 29  0  0  0  0  0  0  0  0999 V2000
   50.7310   32.6670   42.5380 O   0  0  0  0  0  0  0  0  0  0  0  0
   49.6650   33.7080   42.4010 P   0  0  2  0  0  0  0  0  0  0  0  0
   50.1210   35.2030   43.0290 O   0  0  0  0  0  0  0  0  0  0  0  0
   50.0340   35.2410   44.0150 H   0  0  0  0  0  0  0  0  0  0  0  0
   48.2710   33.2190   43.2260 O   0  0  0  0  0  0  0  0  0  0  0  0
   47.2120   33.9830   42.7410 C   0  0  0  0  0  0  0  0  0  0  0  0
   46.6080   33.4010   41.9850 H   0  0  0  0  0  0  0  0  0  0  0  0
   47.5350   34.9120   42.2270 H   0  0  0  0  0  0  0  0  0  0  0  0
   45.3940   34.0060   46.0020 C   0  0  0  0  0  0  0  0  0  0  0  0
   46.2880   33.6130   44.9830 C   0  0  0  0  0  0  0  0  0  0  0  0
   46.2910   34.3640   43.8240 C   0  0  0  0  0  0  0  0  0  0  0  0
   45.4410   35.4370   43.7210 N   0  0  0  0  0  0  0  0  0  0  0  0
   44.5990   35.7820   44.7170 C   0  0  0  0  0  0  0  0  0  0  0  0
   44.5800   35.0680   45.8490 N   0  0  0  0  0  0  0  0  0  0  0  0
   45.3680   33.4460   46.9100 H   0  0  0  0  0  0  0  0  0  0  0  0
   46.9520   32.7710   45.0720 H   0  0  0  0  0  0  0  0  0  0  0  0
   43.9750   36.6450   44.5240 H   0  0  0  0  0  0  0  0  0  0  0  0
   49.2620   33.8570   40.7640 O   0  0  0  0  0  0  0  0  0  0  0  0
   50.1640   29.9530   38.9260 H   0  0  0  0  0  0  0  0  0  0  0  0
   49.4630   30.7360   38.9940 N   0  0  0  0  0  0  0  0  0  0  0  0
   49.8290   31.7350   39.8080 C   0  0  0  0  0  3  0  0  0  0  0  0
   48.9450   32.8060   39.9450 C   0  0  0  0  0  0  0  0  0  0  0  0
   47.7500   32.7730   39.2350 C   0  0  0  0  0  0  0  0  0  0  0  0
   46.9300   33.7230   39.3360 O   0  0  0  0  0  0  0  0  0  0  0  0
   47.4880   31.7120   38.4440 N   0  0  0  0  0  0  0  0  0  0  0  0
   48.3390   30.6560   38.2980 C   0  0  0  0  0  0  0  0  0  0  0  0
   48.0330   29.6980   37.5420 O   0  0  0  0  0  0  0  0  0  0  0  0
   46.5610   31.7420   37.9260 H   0  0  0  0  0  0  0  0  0  0  0  0
  2  1  2  1  0  0  0
  2  3  1  0  0  0  0
  2  5  1  0  0  0  0
  3  4  1  0  0  0  0
  6  5  1  0  0  0  0
  6 11  1  0  0  0  0
  7  6  1  0  0  0  0
  8  6  1  0  0  0  0
  9 15  1  0  0  0  0
 10 16  1  0  0  0  0
 10  9  2  0  0  0  0
 11 10  1  0  0  0  0
 12 11  2  0  0  0  0
 12 13  1  0  0  0  0
 13 14  2  0  0  0  0
 14  9  1  0  0  0  0
 17 13  1  0  0  0  0
 18  2  1  0  0  0  0
 19 20  1  0  0  0  0
 20 21  1  0  0  0  0
 21 22  2  0  0  0  0
 22 18  1  0  0  0  0
 23 24  2  0  0  0  0
 23 22  1  0  0  0  0
 25 23  1  0  0  0  0
 26 25  1  0  0  0  0
 26 20  1  0  0  0  0
 27 26  2  0  0  0  0
 28 25  1  0  0  0  0
M  END
>  <minimizedAffinity>
-4.5213666

>  <minimizedRMSD>
1.28557158

$$$$
