REMARK  Name = 
REMARK  3 active torsions:
REMARK  status: ('A' for Active; 'I' for Inactive)
REMARK    1  A    between atoms: N_1  and  C_9
REMARK    2  A    between atoms: C_6  and  O_13
REMARK    3  A    between atoms: O_13  and  C_29
REMARK                            x       y       z     vdW  Elec       q    Type
REMARK                         _______ _______ _______ _____ _____    ______ ____
ROOT
ATOM      1  N   UNL     1      46.887  34.608  42.226  0.00  0.00    +0.000 N 
ATOM      2  C   UNL     1      48.333  34.780  42.265  0.00  0.00    +0.000 C 
ATOM      3  C   UNL     1      48.636  35.531  40.950  0.00  0.00    +0.000 C 
ATOM      4  C   UNL     1      48.359  34.624  39.795  0.00  0.00    +0.000 C 
ATOM      5  C   UNL     1      47.088  33.853  39.909  0.00  0.00    +0.000 C 
ATOM      6  C   UNL     1      46.168  34.255  41.025  0.00  0.00    +0.000 C 
ATOM      7  H   UNL     1      48.849  33.799  42.249  0.00  0.00    +0.000 HD
ATOM      8  H   UNL     1      48.618  35.434  43.103  0.00  0.00    +0.000 HD
ATOM      9  H   UNL     1      49.729  35.754  41.013  0.00  0.00    +0.000 HD
ATOM     10  H   UNL     1      48.027  36.456  40.962  0.00  0.00    +0.000 HD
ATOM     11  H   UNL     1      49.213  33.891  39.757  0.00  0.00    +0.000 HD
ATOM     12  H   UNL     1      48.460  35.211  38.861  0.00  0.00    +0.000 HD
ATOM     13  H   UNL     1      46.517  34.026  38.949  0.00  0.00    +0.000 HD
ATOM     14  H   UNL     1      47.251  32.754  39.943  0.00  0.00    +0.000 HD
ATOM     15  H   UNL     1      45.652  35.177  40.696  0.00  0.00    +0.000 HD
ENDROOT
BRANCH   1  18
ATOM     16  C   UNL     1      44.508  35.989  44.766  0.00  0.00    +0.000 A 
ATOM     17  C   UNL     1      45.227  35.895  43.568  0.00  0.00    +0.000 A 
ATOM     18  C   UNL     1      46.108  34.791  43.416  0.00  0.00    +0.000 A 
ATOM     19  N   UNL     1      46.200  33.892  44.442  0.00  0.00    +0.000 NA
ATOM     20  C   UNL     1      45.483  34.029  45.579  0.00  0.00    +0.000 A 
ATOM     21  N   UNL     1      44.634  35.086  45.733  0.00  0.00    +0.000 NA
ATOM     22  H   UNL     1      43.891  36.874  44.722  0.00  0.00    +0.000 HD
ATOM     23  H   UNL     1      45.203  36.560  42.727  0.00  0.00    +0.000 HD
ATOM     24  H   UNL     1      45.532  33.345  46.398  0.00  0.00    +0.000 HD
ENDBRANCH   1  18
BRANCH   6  25
ATOM     25  O   UNL     1      45.341  33.182  41.304  0.00  0.00    +0.000 OA
BRANCH  25  29
ATOM     26  H   UNL     1      41.950  30.697  42.552  0.00  0.00    +0.000 HD
ATOM     27  N   UNL     1      42.287  31.542  42.047  0.00  0.00    +0.000 N 
ATOM     28  C   UNL     1      43.600  31.908  41.944  0.00  0.00    +0.000 A 
ATOM     29  C   UNL     1      43.986  33.063  41.246  0.00  0.00    +0.000 A 
ATOM     30  C   UNL     1      42.959  33.790  40.681  0.00  0.00    +0.000 A 
ATOM     31  O   UNL     1      43.398  34.803  40.079  0.00  0.00    +0.000 OA
ATOM     32  N   UNL     1      41.684  33.386  40.812  0.00  0.00    +0.000 N 
ATOM     33  C   UNL     1      41.339  32.290  41.476  0.00  0.00    +0.000 A 
ATOM     34  O   UNL     1      40.108  32.009  41.533  0.00  0.00    +0.000 OA
ATOM     35  H   UNL     1      40.988  34.030  40.333  0.00  0.00    +0.000 HD
ENDBRANCH  25  29
ENDBRANCH   6  25
TORSDOF 3
