
 OpenBabel03252504273D

 23 24  0  0  0  0  0  0  0  0999 V2000
   45.6320   34.4230   41.3250 C   0  0  0  0  0  0  0  0  0  0  0  0
   45.3050   33.6100   40.6410 H   0  0  0  0  0  0  0  0  0  0  0  0
   45.4250   35.3660   40.7480 H   0  0  0  0  0  0  0  0  0  0  0  0
   47.7490   35.3320   42.0280 C   0  0  0  0  0  0  0  0  0  0  0  0
   47.0680   34.2380   41.5430 C   0  0  0  0  0  0  0  0  0  0  0  0
   47.7980   33.0880   41.3120 C   0  0  0  0  0  0  0  0  0  0  0  0
   49.1240   33.1110   41.5760 N   0  0  0  0  0  0  0  0  0  0  0  0
   49.7640   34.1900   42.0490 C   0  0  0  0  0  0  0  0  0  0  0  0
   49.0880   35.3640   42.2970 N   0  0  0  0  0  0  0  0  0  0  0  0
   47.2640   36.2970   42.2470 H   0  0  0  0  0  0  0  0  0  0  0  0
   47.2510   32.2410   40.9320 H   0  0  0  0  0  0  0  0  0  0  0  0
   50.8170   33.9420   42.1720 H   0  0  0  0  0  0  0  0  0  0  0  0
   44.8660   34.3290   42.4770 O   0  0  0  0  0  0  0  0  0  0  0  0
   46.2260   32.8390   46.5160 H   0  0  0  0  0  0  0  0  0  0  0  0
   45.8230   32.6840   45.5540 N   0  0  0  0  0  0  0  0  0  0  0  0
   45.6370   33.6770   44.6890 C   0  0  0  0  0  3  0  0  0  0  0  0
   45.1020   33.3720   43.4530 C   0  0  0  0  0  0  0  0  0  0  0  0
   44.7920   32.0440   43.1930 C   0  0  0  0  0  0  0  0  0  0  0  0
   44.3030   31.7670   42.0630 O   0  0  0  0  0  0  0  0  0  0  0  0
   44.9930   31.0560   44.0940 N   0  0  0  0  0  0  0  0  0  0  0  0
   45.5220   31.3970   45.3010 C   0  0  0  0  0  0  0  0  0  0  0  0
   45.6840   30.4310   46.0920 O   0  0  0  0  0  0  0  0  0  0  0  0
   44.7480   30.0570   43.8660 H   0  0  0  0  0  0  0  0  0  0  0  0
  1  5  1  0  0  0  0
  1 13  1  0  0  0  0
  2  1  1  0  0  0  0
  3  1  1  0  0  0  0
  4 10  1  0  0  0  0
  4  9  1  0  0  0  0
  5  4  2  0  0  0  0
  6  5  1  0  0  0  0
  6  7  2  0  0  0  0
  7  8  1  0  0  0  0
  8 12  1  0  0  0  0
  8  9  2  0  0  0  0
 11  6  1  0  0  0  0
 13 17  1  0  0  0  0
 15 14  1  0  0  0  0
 16 15  1  0  0  0  0
 17 16  2  0  0  0  0
 18 17  1  0  0  0  0
 18 20  1  0  0  0  0
 19 18  2  0  0  0  0
 20 21  1  0  0  0  0
 21 15  1  0  0  0  0
 21 22  2  0  0  0  0
 23 20  1  0  0  0  0
M  END
>  <minimizedAffinity>
-3.40535975

>  <minimizedRMSD>
6.61855793

$$$$
