
     RDKit          3D

 47 49  0  0  0  0  0  0  0  0999 V2000
   47.1739   34.1546   43.0866 N   0  0  0  0  0  0  0  0  0  0  0  0
   46.6635   35.3646   42.5342 C   0  0  0  0  0  0  0  0  0  0  0  0
   45.1919   35.6051   42.7520 C   0  0  0  0  0  0  0  0  0  0  0  0
   44.6461   35.0410   44.0305 C   0  0  0  0  0  0  0  0  0  0  0  0
   45.7452   34.4665   44.8953 C   0  0  0  0  0  0  0  0  0  0  0  0
   46.4061   33.3955   43.9524 C   0  0  2  0  0  0  0  0  0  0  0  0
   48.1490   33.4983   42.2676 C   0  0  0  0  0  0  0  0  0  0  0  0
   47.4389   32.6537   41.2550 C   0  0  0  0  0  0  0  0  0  0  0  0
   49.3402   32.2899   38.0297 C   0  0  0  0  0  0  0  0  0  0  0  0
   48.8178   32.0132   39.3132 C   0  0  0  0  0  0  0  0  0  0  0  0
   47.9900   32.9422   39.9051 C   0  0  0  0  0  0  0  0  0  0  0  0
   47.7163   34.0763   39.2291 N   0  0  0  0  0  0  0  0  0  0  0  0
   48.2301   34.3122   38.0051 C   0  0  0  0  0  0  0  0  0  0  0  0
   49.0378   33.4359   37.3956 N   0  0  0  0  0  0  0  0  0  0  0  0
   47.2058   32.6939   44.8562 O   0  0  0  0  0  0  0  0  0  0  0  0
   45.9956   30.5444   43.8599 O   0  0  0  0  0  0  0  0  0  0  0  0
   46.6543   31.1182   45.1121 P   0  0  2  0  0  0  0  0  0  0  0  0
   45.4107   31.2437   46.2823 O   0  0  0  0  0  0  0  0  0  0  0  0
   47.8428   30.1388   45.7352 O   0  0  0  0  0  0  0  0  0  0  0  0
   47.2027   36.1910   43.0711 H   0  0  0  0  0  0  0  0  0  0  0  0
   46.8757   35.5343   41.4767 H   0  0  0  0  0  0  0  0  0  0  0  0
   44.6011   35.2717   41.8678 H   0  0  0  0  0  0  0  0  0  0  0  0
   45.0193   36.7055   42.8110 H   0  0  0  0  0  0  0  0  0  0  0  0
   43.9827   34.1871   43.7496 H   0  0  0  0  0  0  0  0  0  0  0  0
   43.9821   35.7480   44.5817 H   0  0  0  0  0  0  0  0  0  0  0  0
   46.4830   35.2411   45.1238 H   0  0  0  0  0  0  0  0  0  0  0  0
   45.3134   33.9666   45.7699 H   0  0  0  0  0  0  0  0  0  0  0  0
   45.5907   32.7961   43.5179 H   0  0  0  0  0  0  0  0  0  0  0  0
   48.8023   34.2545   41.8155 H   0  0  0  0  0  0  0  0  0  0  0  0
   48.7562   32.8300   42.9181 H   0  0  0  0  0  0  0  0  0  0  0  0
   47.5260   31.5813   41.4704 H   0  0  0  0  0  0  0  0  0  0  0  0
   46.3555   32.8846   41.2347 H   0  0  0  0  0  0  0  0  0  0  0  0
   49.9800   31.5250   37.6216 H   0  0  0  0  0  0  0  0  0  0  0  0
   49.0399   31.0964   39.8579 H   0  0  0  0  0  0  0  0  0  0  0  0
   48.0145   35.2212   37.4560 H   0  0  0  0  0  0  0  0  0  0  0  0
   45.7295   31.7713   47.0517 H   0  0  0  0  0  0  0  0  0  0  0  0
   49.5778   26.1100   46.1610 H   0  0  0  0  0  0  0  0  0  0  0  0
   48.7394   26.7355   46.2679 N   0  0  0  0  0  0  0  0  0  0  0  0
   48.7510   28.0619   45.9504 C   0  0  0  0  0  0  0  0  0  0  0  0
   47.5953   28.8322   46.1198 C   0  0  0  0  0  0  0  0  0  0  0  0
   46.4745   28.2046   46.6095 C   0  0  0  0  0  0  0  0  0  0  0  0
   45.5064   28.9984   46.7162 O   0  0  0  0  0  0  0  0  0  0  0  0
   46.5197   26.9031   46.9038 N   0  0  0  0  0  0  0  0  0  0  0  0
   47.6238   26.1622   46.7432 C   0  0  0  0  0  0  0  0  0  0  0  0
   47.4839   24.9614   47.0699 O   0  0  0  0  0  0  0  0  0  0  0  0
   49.7169   28.3853   45.5799 H   0  0  0  0  0  0  0  0  0  0  0  0
   45.6023   26.5279   47.2719 H   0  0  0  0  0  0  0  0  0  0  0  0
  1  6  1  0
  2  3  1  0
  2  1  1  0
  3  4  1  0
  4  5  1  0
  6 15  1  0
  6  5  1  0
  7  1  1  0
  8  7  1  0
  9 10  2  0
 10 11  1  0
 11  8  1  0
 12 11  2  0
 13 12  1  0
 14 13  2  0
 14  9  1  0
 17 15  1  6
 16 17  2  0
 17 19  1  0
 17 18  1  0
  2 20  1  0
  2 21  1  0
  3 22  1  0
  3 23  1  0
  4 24  1  0
  4 25  1  0
  5 26  1  0
  5 27  1  0
  6 28  1  6
  7 29  1  0
  7 30  1  0
  8 31  1  0
  8 32  1  0
  9 33  1  0
 10 34  1  0
 13 35  1  0
 18 36  1  0
 37 38  1  0
 38 39  1  0
 39 40  2  0
 40 41  1  0
 41 42  2  0
 41 43  1  0
 43 44  1  0
 44 45  2  0
 44 38  1  0
 39 46  1  0
 43 47  1  0
 19 40  1  0
M  ISO  8  20  13  21  13  22  13  23  13  24  13  25  13  26  13  27  13
M  ISO  8  28  13  29   8  30   8  31   8  32   8  33  14  34  14  35  14
M  ISO  2  36   3  37   9
M  END
>  <DihAtoms>  (1) 
16,18,39,38

>  <DihDeg>  (1) 
-179.98140144098318

$$$$
