
 OpenBabel03252509313D

 28 29  0  0  0  0  0  0  0  0999 V2000
   50.3910   32.3270   42.5010 O   0  0  0  0  0  0  0  0  0  0  0  0
   49.4870   33.5040   42.3100 P   0  0  2  0  0  0  0  0  0  0  0  0
   50.0530   34.8970   43.0670 O   0  0  0  0  0  0  0  0  0  0  0  0
   49.8590   34.9040   44.0390 H   0  0  0  0  0  0  0  0  0  0  0  0
   47.9570   33.1670   42.9500 O   0  0  0  0  0  0  0  0  0  0  0  0
   47.1500   34.2740   42.6990 C   0  0  0  0  0  0  0  0  0  0  0  0
   46.5060   34.1050   41.7870 H   0  0  0  0  0  0  0  0  0  0  0  0
   47.7220   35.2040   42.5030 H   0  0  0  0  0  0  0  0  0  0  0  0
   45.4030   33.9730   45.9850 C   0  0  0  0  0  0  0  0  0  0  0  0
   46.2880   33.6960   44.9220 C   0  0  0  0  0  0  0  0  0  0  0  0
   46.2390   34.5340   43.8250 C   0  0  0  0  0  0  0  0  0  0  0  0
   45.3470   35.5780   43.8220 N   0  0  0  0  0  0  0  0  0  0  0  0
   44.5140   35.8120   44.8580 C   0  0  0  0  0  0  0  0  0  0  0  0
   44.5460   35.0120   45.9300 N   0  0  0  0  0  0  0  0  0  0  0  0
   45.4160   33.3440   46.8470 H   0  0  0  0  0  0  0  0  0  0  0  0
   46.9850   32.8760   44.9320 H   0  0  0  0  0  0  0  0  0  0  0  0
   43.8550   36.6620   44.7450 H   0  0  0  0  0  0  0  0  0  0  0  0
   49.2960   33.7750   40.6490 O   0  0  0  0  0  0  0  0  0  0  0  0
   45.7800   32.2000   38.5070 H   0  0  0  0  0  0  0  0  0  0  0  0
   46.8150   32.0900   38.6690 N   0  0  0  0  0  0  0  0  0  0  0  0
   47.3360   32.9810   39.5230 C   0  0  0  0  0  3  0  0  0  0  0  0
   48.7050   32.8930   39.7830 C   0  0  0  0  0  0  0  0  0  0  0  0
   49.4370   31.8990   39.1460 C   0  0  0  0  0  0  0  0  0  0  0  0
   50.6730   31.7920   39.3590 O   0  0  0  0  0  0  0  0  0  0  0  0
   48.8030   31.0570   38.3030 N   0  0  0  0  0  0  0  0  0  0  0  0
   47.4670   31.1260   38.0370 C   0  0  0  0  0  0  0  0  0  0  0  0
   46.9390   30.3100   37.2400 O   0  0  0  0  0  0  0  0  0  0  0  0
   49.4140   30.3180   37.8460 H   0  0  0  0  0  0  0  0  0  0  0  0
  2  1  2  1  0  0  0
  2  5  1  0  0  0  0
  2  3  1  0  0  0  0
  3  4  1  0  0  0  0
  6  5  1  0  0  0  0
  6 11  1  0  0  0  0
  7  6  1  0  0  0  0
  8  6  1  0  0  0  0
  9 15  1  0  0  0  0
 10 16  1  0  0  0  0
 10  9  2  0  0  0  0
 11 10  1  0  0  0  0
 12 11  2  0  0  0  0
 12 13  1  0  0  0  0
 13 14  2  0  0  0  0
 14  9  1  0  0  0  0
 17 13  1  0  0  0  0
 18  2  1  0  0  0  0
 19 20  1  0  0  0  0
 20 21  1  0  0  0  0
 21 22  2  0  0  0  0
 22 18  1  0  0  0  0
 23 24  2  0  0  0  0
 23 22  1  0  0  0  0
 25 23  1  0  0  0  0
 26 25  1  0  0  0  0
 26 20  1  0  0  0  0
 27 26  2  0  0  0  0
 28 25  1  0  0  0  0
M  END
>  <minimizedAffinity>
-4.26118803

>  <minimizedRMSD>
1.13126111

$$$$
