
     RDKit          3D

 46 49  0  0  0  0  0  0  0  0999 V2000
   47.0618   34.8125   41.9551 C   0  0  2  0  0  0  0  0  0  0  0  0
   46.2994   34.1867   40.7837 C   0  0  0  0  0  0  0  0  0  0  0  0
   47.5016   34.0005   39.8322 C   0  0  0  0  0  0  0  0  0  0  0  0
   48.6450   33.6307   40.7254 C   0  0  1  0  0  0  0  0  0  0  0  0
   48.1354   33.7743   42.1293 C   0  0  0  0  0  0  0  0  0  0  0  0
   44.5441   35.9876   44.4973 C   0  0  0  0  0  0  0  0  0  0  0  0
   45.2817   35.9665   43.3190 C   0  0  0  0  0  0  0  0  0  0  0  0
   46.1937   34.9327   43.1594 C   0  0  0  0  0  0  0  0  0  0  0  0
   46.3471   33.9623   44.1584 N   0  0  0  0  0  0  0  0  0  0  0  0
   45.5981   34.0351   45.2905 C   0  0  0  0  0  0  0  0  0  0  0  0
   44.7026   35.0462   45.4516 N   0  0  0  0  0  0  0  0  0  0  0  0
   49.1300   32.2066   40.5706 C   0  0  2  0  0  0  0  0  0  0  0  0
   49.7700   31.6182   41.7368 C   0  0  0  0  0  0  0  0  0  0  0  0
   50.5572   31.8920   40.4936 C   0  0  1  0  0  0  0  0  0  0  0  0
   50.9306   30.7661   39.7152 O   0  0  0  0  0  0  0  0  0  0  0  0
   52.0210   30.2069   37.4126 O   0  0  0  0  0  0  0  0  0  0  0  0
   51.8784   31.3070   38.4359 P   0  0  1  0  0  0  0  0  0  0  0  0
   51.1110   32.6281   37.6553 O   0  0  0  0  0  0  0  0  0  0  0  0
   53.3921   31.8199   38.8770 O   0  0  0  0  0  0  0  0  0  0  0  0
   47.4906   35.7786   41.6289 H   0  0  0  0  0  0  0  0  0  0  0  0
   45.9355   33.2073   41.1085 H   0  0  0  0  0  0  0  0  0  0  0  0
   45.5603   34.8656   40.3545 H   0  0  0  0  0  0  0  0  0  0  0  0
   47.7156   35.0337   39.4484 H   0  0  0  0  0  0  0  0  0  0  0  0
   47.2690   33.2709   39.0524 H   0  0  0  0  0  0  0  0  0  0  0  0
   49.5206   34.3027   40.6151 H   0  0  0  0  0  0  0  0  0  0  0  0
   47.6762   32.8338   42.4942 H   0  0  0  0  0  0  0  0  0  0  0  0
   48.9262   34.1154   42.8253 H   0  0  0  0  0  0  0  0  0  0  0  0
   43.8171   36.7787   44.6659 H   0  0  0  0  0  0  0  0  0  0  0  0
   45.1718   36.7083   42.5435 H   0  0  0  0  0  0  0  0  0  0  0  0
   45.7485   33.2663   46.0362 H   0  0  0  0  0  0  0  0  0  0  0  0
   48.4399   31.5752   39.9816 H   0  0  0  0  0  0  0  0  0  0  0  0
   49.6314   30.5393   42.0266 H   0  0  0  0  0  0  0  0  0  0  0  0
   49.9419   32.2498   42.6225 H   0  0  0  0  0  0  0  0  0  0  0  0
   51.1857   32.7997   40.3883 H   0  0  0  0  0  0  0  0  0  0  0  0
   51.3427   33.4462   38.1377 H   0  0  0  0  0  0  0  0  0  0  0  0
   55.0603   31.9486   43.0699 H   0  0  0  0  0  0  0  0  0  0  0  0
   55.0615   31.4833   42.1399 N   0  0  0  0  0  0  0  0  0  0  0  0
   54.2361   32.0041   41.2368 C   0  0  0  0  0  0  0  0  0  0  0  0
   54.1546   31.4631   39.9601 C   0  0  0  0  0  0  0  0  0  0  0  0
   54.9694   30.3637   39.6779 C   0  0  0  0  0  0  0  0  0  0  0  0
   55.0613   29.7161   38.5964 O   0  0  0  0  0  0  0  0  0  0  0  0
   55.7999   29.8637   40.6342 N   0  0  0  0  0  0  0  0  0  0  0  0
   55.8354   30.4284   41.8500 C   0  0  0  0  0  0  0  0  0  0  0  0
   56.5864   30.0089   42.7805 O   0  0  0  0  0  0  0  0  0  0  0  0
   53.5601   32.8554   41.3493 H   0  0  0  0  0  0  0  0  0  0  0  0
   56.4365   29.0489   40.5022 H   0  0  0  0  0  0  0  0  0  0  0  0
  1  5  1  0
  1  8  1  0
  2  1  1  0
  3  4  1  0
  3  2  1  0
  4  5  1  0
  6 11  2  0
  7  6  1  0
  8  7  2  0
  8  9  1  0
  9 10  2  0
 10 11  1  0
 12  4  1  0
 12 13  1  0
 14 12  1  0
 14 13  1  0
 15 14  1  0
 16 17  2  0
 17 19  1  1
 17 15  1  0
 18 17  1  0
  1 20  1  6
  2 21  1  0
  2 22  1  0
  3 23  1  0
  3 24  1  0
  4 25  1  1
  5 26  1  0
  5 27  1  0
  6 28  1  0
  7 29  1  0
 10 30  1  0
 12 31  1  6
 13 32  1  0
 13 33  1  0
 14 34  1  1
 18 35  1  0
 36 37  1  0
 37 38  1  0
 38 39  2  0
 39 40  1  0
 40 41  2  0
 40 42  1  0
 42 43  1  0
 43 44  2  0
 43 37  1  0
 38 45  1  0
 42 46  1  0
 19 39  1  0
M  ISO  8  20  13  21  13  22  13  23  13  24  13  25  13  26  13  27  13
M  ISO  8  28  14  29  14  30  14  31  13  32  13  33  13  34  13  35   3
M  ISO  1  36   9
M  END
>  <DihAtoms>  (1) 
16,18,38,37

>  <DihDeg>  (1) 
-0.0005825848171385636

$$$$
