
     RDKit          3D

 36 38  0  0  0  0  0  0  0  0999 V2000
   46.8871   34.6084   42.2257 N   0  0  0  0  0  0  0  0  0  0  0  0
   48.3328   34.7804   42.2650 C   0  0  0  0  0  0  0  0  0  0  0  0
   48.6357   35.5306   40.9499 C   0  0  0  0  0  0  0  0  0  0  0  0
   48.3592   34.6236   39.7947 C   0  0  0  0  0  0  0  0  0  0  0  0
   47.0876   33.8529   39.9090 C   0  0  0  0  0  0  0  0  0  0  0  0
   46.1682   34.2554   41.0248 C   0  0  1  0  0  0  0  0  0  0  0  0
   44.5075   35.9890   44.7660 C   0  0  0  0  0  0  0  0  0  0  0  0
   45.2268   35.8951   43.5679 C   0  0  0  0  0  0  0  0  0  0  0  0
   46.1083   34.7906   43.4159 C   0  0  0  0  0  0  0  0  0  0  0  0
   46.2004   33.8916   44.4423 N   0  0  0  0  0  0  0  0  0  0  0  0
   45.4827   34.0294   45.5790 C   0  0  0  0  0  0  0  0  0  0  0  0
   44.6342   35.0864   45.7335 N   0  0  0  0  0  0  0  0  0  0  0  0
   45.3406   33.1825   41.3043 O   0  0  0  0  0  0  0  0  0  0  0  0
   48.8490   33.7988   42.2492 H   0  0  0  0  0  0  0  0  0  0  0  0
   48.6182   35.4336   43.1026 H   0  0  0  0  0  0  0  0  0  0  0  0
   49.7286   35.7537   41.0129 H   0  0  0  0  0  0  0  0  0  0  0  0
   48.0267   36.4557   40.9624 H   0  0  0  0  0  0  0  0  0  0  0  0
   49.2133   33.8910   39.7569 H   0  0  0  0  0  0  0  0  0  0  0  0
   48.4599   35.2109   38.8609 H   0  0  0  0  0  0  0  0  0  0  0  0
   46.5172   34.0259   38.9487 H   0  0  0  0  0  0  0  0  0  0  0  0
   47.2512   32.7539   39.9429 H   0  0  0  0  0  0  0  0  0  0  0  0
   45.6523   35.1770   40.6962 H   0  0  0  0  0  0  0  0  0  0  0  0
   43.8913   36.8737   44.7225 H   0  0  0  0  0  0  0  0  0  0  0  0
   45.2030   36.5603   42.7270 H   0  0  0  0  0  0  0  0  0  0  0  0
   45.5325   33.3451   46.3977 H   0  0  0  0  0  0  0  0  0  0  0  0
   42.0644   30.3539   40.6032 H   0  0  0  0  0  0  0  0  0  0  0  0
   42.3584   31.3270   40.8248 N   0  0  0  0  0  0  0  0  0  0  0  0
   43.6580   31.7322   40.9448 C   0  0  0  0  0  0  0  0  0  0  0  0
   43.9862   33.0632   41.2461 C   0  0  0  0  0  0  0  0  0  0  0  0
   42.9166   33.9186   41.4096 C   0  0  0  0  0  0  0  0  0  0  0  0
   43.3046   35.0845   41.6760 O   0  0  0  0  0  0  0  0  0  0  0  0
   41.6570   33.4683   41.2807 N   0  0  0  0  0  0  0  0  0  0  0  0
   41.3672   32.2056   40.9952 C   0  0  0  0  0  0  0  0  0  0  0  0
   40.1449   31.8972   40.8984 O   0  0  0  0  0  0  0  0  0  0  0  0
   44.3402   30.8838   40.7737 H   0  0  0  0  0  0  0  0  0  0  0  0
   40.9236   34.2228   41.4298 H   0  0  0  0  0  0  0  0  0  0  0  0
  1  2  1  0
  1  9  1  0
  3  2  1  0
  4  5  1  0
  4  3  1  0
  5  6  1  0
  6 13  1  0
  6  1  1  0
  7 12  2  0
  8  7  1  0
  9  8  2  0
  9 10  1  0
 10 11  2  0
 11 12  1  0
  2 14  1  0
  2 15  1  0
  3 16  1  0
  3 17  1  0
  4 18  1  0
  4 19  1  0
  5 20  1  0
  5 21  1  0
  6 22  1  6
  7 23  1  0
  8 24  1  0
 11 25  1  0
 26 27  1  0
 27 28  1  0
 28 29  2  0
 29 30  1  0
 30 31  2  0
 30 32  1  0
 32 33  1  0
 33 34  2  0
 33 27  1  0
 28 35  1  0
 32 36  1  0
 13 29  1  0
M  ISO  8  14  13  15  13  16  13  17  13  18  13  19  13  20  13  21  13
M  ISO  5  22  13  23  14  24  14  25  14  26   9
M  END
>  <DihAtoms>  (1) 
5,12,28,27

>  <DihDeg>  (1) 
179.99873955598994

$$$$
