
 OpenBabel03252509313D

 28 29  0  0  0  0  0  0  0  0999 V2000
   50.5200   32.7570   42.0890 O   0  0  0  0  0  0  0  0  0  0  0  0
   49.4710   33.8050   42.2920 P   0  0  2  0  0  0  0  0  0  0  0  0
   50.0790   35.2230   42.9660 O   0  0  0  0  0  0  0  0  0  0  0  0
   50.2020   35.1530   43.9470 H   0  0  0  0  0  0  0  0  0  0  0  0
   48.2710   33.2260   43.3350 O   0  0  0  0  0  0  0  0  0  0  0  0
   47.0420   33.6340   42.8210 C   0  0  0  0  0  0  0  0  0  0  0  0
   46.4910   32.7660   42.3560 H   0  0  0  0  0  0  0  0  0  0  0  0
   47.1280   34.4050   42.0270 H   0  0  0  0  0  0  0  0  0  0  0  0
   45.2940   34.0650   46.0920 C   0  0  0  0  0  0  0  0  0  0  0  0
   46.1330   33.5210   45.0970 C   0  0  0  0  0  0  0  0  0  0  0  0
   46.1760   34.1750   43.8810 C   0  0  0  0  0  0  0  0  0  0  0  0
   45.4140   35.3030   43.7030 N   0  0  0  0  0  0  0  0  0  0  0  0
   44.6220   35.7940   44.6790 C   0  0  0  0  0  0  0  0  0  0  0  0
   44.5660   35.1760   45.8640 N   0  0  0  0  0  0  0  0  0  0  0  0
   45.2390   33.5830   47.0420 H   0  0  0  0  0  0  0  0  0  0  0  0
   46.7280   32.6360   45.2450 H   0  0  0  0  0  0  0  0  0  0  0  0
   44.0670   36.6880   44.4250 H   0  0  0  0  0  0  0  0  0  0  0  0
   48.7370   34.1320   40.8020 O   0  0  0  0  0  0  0  0  0  0  0  0
   48.3040   29.9800   39.3840 H   0  0  0  0  0  0  0  0  0  0  0  0
   48.3370   30.9930   39.0970 N   0  0  0  0  0  0  0  0  0  0  0  0
   48.5100   31.8480   40.1140 C   0  0  0  0  0  3  0  0  0  0  0  0
   48.5630   33.2090   39.8040 C   0  0  0  0  0  0  0  0  0  0  0  0
   48.4350   33.5900   38.4750 C   0  0  0  0  0  0  0  0  0  0  0  0
   48.4790   34.8080   38.1610 O   0  0  0  0  0  0  0  0  0  0  0  0
   48.2660   32.6370   37.5330 N   0  0  0  0  0  0  0  0  0  0  0  0
   48.2120   31.3050   37.8160 C   0  0  0  0  0  0  0  0  0  0  0  0
   48.0510   30.4690   36.8900 O   0  0  0  0  0  0  0  0  0  0  0  0
   48.1750   32.9890   36.5350 H   0  0  0  0  0  0  0  0  0  0  0  0
  2  1  2  6  0  0  0
  2  3  1  0  0  0  0
  2  5  1  0  0  0  0
  3  4  1  0  0  0  0
  6  5  1  0  0  0  0
  6 11  1  0  0  0  0
  7  6  1  0  0  0  0
  8  6  1  0  0  0  0
  9 15  1  0  0  0  0
 10 16  1  0  0  0  0
 10  9  2  0  0  0  0
 11 10  1  0  0  0  0
 12 11  2  0  0  0  0
 12 13  1  0  0  0  0
 13 14  2  0  0  0  0
 14  9  1  0  0  0  0
 17 13  1  0  0  0  0
 18  2  1  0  0  0  0
 20 19  1  0  0  0  0
 20 21  1  0  0  0  0
 22 21  2  0  0  0  0
 22 18  1  0  0  0  0
 23 22  1  0  0  0  0
 24 23  2  0  0  0  0
 25 26  1  0  0  0  0
 25 23  1  0  0  0  0
 26 20  1  0  0  0  0
 27 26  2  0  0  0  0
 28 25  1  0  0  0  0
M  END
>  <minimizedAffinity>
-4.75781012

>  <minimizedRMSD>
0.870984972

$$$$
