
 OpenBabel03252504473D

 28 29  0  0  0  0  0  0  0  0999 V2000
   45.0680   30.8270   48.0240 O   0  0  0  0  0  0  0  0  0  0  0  0
   45.8410   31.1290   46.7380 P   0  0  1  0  0  0  0  0  0  0  0  0
   45.0850   30.2090   45.5330 O   0  0  0  0  0  0  0  0  0  0  0  0
   44.1280   30.0650   45.7310 H   0  0  0  0  0  0  0  0  0  0  0  0
   45.7240   32.7930   46.4940 O   0  0  0  0  0  0  0  0  0  0  0  0
   45.6770   35.0350   43.6630 C   0  0  0  0  0  0  0  0  0  0  0  0
   46.8120   34.6140   42.9750 C   0  0  0  0  0  0  0  0  0  0  0  0
   47.5650   33.5620   43.5130 C   0  0  0  0  0  0  0  0  0  0  0  0
   47.1390   33.0170   44.6730 N   0  0  0  0  0  0  0  0  0  0  0  0
   46.0200   33.4590   45.3170 C   0  0  0  0  0  0  0  0  0  0  0  0
   45.2950   34.4750   44.7960 N   0  0  0  0  0  0  0  0  0  0  0  0
   47.1460   35.0530   42.0500 H   0  0  0  0  0  0  0  0  0  0  0  0
   48.4600   33.2030   43.0050 H   0  0  0  0  0  0  0  0  0  0  0  0
   44.8950   36.1620   43.0630 C   0  0  0  0  0  0  0  0  0  0  0  0
   44.4420   35.8970   42.0920 H   0  0  0  0  0  0  0  0  0  0  0  0
   44.1560   36.5340   43.8190 H   0  0  0  0  0  0  0  0  0  0  0  0
   45.6320   36.9700   42.8550 H   0  0  0  0  0  0  0  0  0  0  0  0
   47.4510   30.6700   46.8540 O   0  0  0  0  0  0  0  0  0  0  0  0
   49.7260   28.0620   49.6770 H   0  0  0  0  0  0  0  0  0  0  0  0
   49.3710   29.0080   49.4020 N   0  0  0  0  0  0  0  0  0  0  0  0
   48.6260   29.2180   48.2800 C   0  0  0  0  0  0  0  0  0  0  0  0
   48.1950   30.5130   47.9930 C   0  0  0  0  0  0  0  0  0  0  0  0
   48.5620   31.4840   48.8800 C   0  0  0  0  0  0  0  0  0  0  0  0
   48.1880   32.6450   48.6410 O   0  0  0  0  0  0  0  0  0  0  0  0
   49.2920   31.2820   49.9820 N   0  0  0  0  0  0  0  0  0  0  0  0
   49.7010   30.0180   50.2430 C   0  0  0  0  0  0  0  0  0  0  0  0
   50.3890   29.8290   51.2810 O   0  0  0  0  0  0  0  0  0  0  0  0
   49.5410   32.0540   50.6190 H   0  0  0  0  0  0  0  0  0  0  0  0
  2 18  1  0  0  0  0
  2  1  2  1  0  0  0
  3  4  1  0  0  0  0
  3  2  1  0  0  0  0
  5  2  1  0  0  0  0
  6 11  1  0  0  0  0
  7  8  1  0  0  0  0
  7  6  2  0  0  0  0
  8  9  2  0  0  0  0
  9 10  1  0  0  0  0
 10  5  1  0  0  0  0
 11 10  2  0  0  0  0
 12  7  1  0  0  0  0
 13  8  1  0  0  0  0
 14  6  1  0  0  0  0
 14 16  1  0  0  0  0
 15 14  1  0  0  0  0
 17 14  1  0  0  0  0
 18 22  1  0  0  0  0
 20 19  1  0  0  0  0
 20 26  1  0  0  0  0
 21 20  1  0  0  0  0
 22 21  2  0  0  0  0
 22 23  1  0  0  0  0
 23 25  1  0  0  0  0
 24 23  2  0  0  0  0
 25 26  1  0  0  0  0
 25 28  1  0  0  0  0
 26 27  2  0  0  0  0
M  END
>  <minimizedAffinity>
-5.27361631

>  <minimizedRMSD>
1.83675909

$$$$
