
 OpenBabel03242519393D

 28 29  0  0  0  0  0  0  0  0999 V2000
   48.3480   32.8650   41.3700 O   0  0  0  0  0  0  0  0  0  0  0  0
   47.2720   33.9470   41.2570 P   0  0  2  0  0  0  0  0  0  0  0  0
   45.8620   33.3970   42.0690 O   0  0  0  0  0  0  0  0  0  0  0  0
   44.4070   35.8340   44.4050 C   0  0  0  0  0  0  0  0  0  0  0  0
   44.7870   35.2150   43.1840 C   0  0  0  0  0  0  0  0  0  0  0  0
   45.4890   34.0030   43.2550 C   0  0  0  0  0  0  0  0  0  0  0  0
   45.7640   33.4870   44.4820 N   0  0  0  0  0  0  0  0  0  0  0  0
   45.3870   34.1000   45.6270 C   0  0  0  0  0  0  0  0  0  0  0  0
   44.7120   35.2690   45.5890 N   0  0  0  0  0  0  0  0  0  0  0  0
   43.8720   36.7620   44.2740 H   0  0  0  0  0  0  0  0  0  0  0  0
   44.5450   35.6660   42.2220 H   0  0  0  0  0  0  0  0  0  0  0  0
   45.6060   33.6920   46.6010 H   0  0  0  0  0  0  0  0  0  0  0  0
   46.8920   34.2930   39.6790 O   0  0  0  0  0  0  0  0  0  0  0  0
   45.9460   30.2810   37.7750 H   0  0  0  0  0  0  0  0  0  0  0  0
   46.4420   31.2020   37.7240 N   0  0  0  0  0  0  0  0  0  0  0  0
   46.3010   32.0670   38.7410 C   0  0  0  0  0  0  0  0  0  0  0  0
   46.9350   33.2910   38.7150 C   0  0  0  0  0  0  0  0  0  0  0  0
   47.7180   33.6090   37.6250 C   0  0  0  0  0  0  0  0  0  0  0  0
   48.3810   34.6540   37.3910 O   0  0  0  0  0  0  0  0  0  0  0  0
   47.8370   32.7130   36.6220 N   0  0  0  0  0  0  0  0  0  0  0  0
   47.2150   31.5110   36.6450 C   0  0  0  0  0  0  0  0  0  0  0  0
   47.2940   30.6500   35.7410 O   0  0  0  0  0  0  0  0  0  0  0  0
   48.4030   32.8420   35.7440 H   0  0  0  0  0  0  0  0  0  0  0  0
   47.8380   35.3200   42.0710 O   0  0  0  0  0  0  0  0  0  0  0  0
   49.0430   35.7640   41.5760 C   0  0  0  0  0  0  0  0  0  0  0  0
   49.3100   37.0880   41.9240 F   0  0  0  0  0  0  0  0  0  0  0  0
   50.0510   34.8970   41.9240 F   0  0  0  0  0  0  0  0  0  0  0  0
   48.9270   35.7490   40.1770 F   0  0  0  0  0  0  0  0  0  0  0  0
  2  1  2  1  0  0  0
  2  3  1  0  0  0  0
  2 24  1  0  0  0  0
  3  6  1  0  0  0  0
  4  9  1  0  0  0  0
  5  6  1  0  0  0  0
  5  4  2  0  0  0  0
  6  7  2  0  0  0  0
  7  8  1  0  0  0  0
  8 12  1  0  0  0  0
  9  8  2  0  0  0  0
 10  4  1  0  0  0  0
 11  5  1  0  0  0  0
 13  2  1  0  0  0  0
 15 14  1  0  0  0  0
 15 16  1  0  0  0  0
 17 16  2  0  0  0  0
 17 13  1  0  0  0  0
 18 17  1  0  0  0  0
 19 18  2  0  0  0  0
 20 21  1  0  0  0  0
 20 18  1  0  0  0  0
 21 15  1  0  0  0  0
 22 21  2  0  0  0  0
 23 20  1  0  0  0  0
 25 26  1  0  0  0  0
 25 27  1  0  0  0  0
 25 24  1  0  0  0  0
 28 25  1  0  0  0  0
M  END
>  <minimizedAffinity>
-5.45522404

>  <minimizedRMSD>
1.26613271

$$$$
