
 OpenBabel03252504273D

 23 24  0  0  0  0  0  0  0  0999 V2000
   44.3750   35.0390   41.9940 C   0  0  0  0  0  0  0  0  0  0  0  0
   45.1990   34.7270   41.3160 H   0  0  0  0  0  0  0  0  0  0  0  0
   44.3600   36.1600   41.9100 H   0  0  0  0  0  0  0  0  0  0  0  0
   44.4270   35.4800   44.3620 C   0  0  0  0  0  0  0  0  0  0  0  0
   44.7570   34.6140   43.3430 C   0  0  0  0  0  0  0  0  0  0  0  0
   45.4050   33.4450   43.6880 C   0  0  0  0  0  0  0  0  0  0  0  0
   45.6730   33.2270   44.9960 N   0  0  0  0  0  0  0  0  0  0  0  0
   45.3410   34.0860   45.9710 C   0  0  0  0  0  0  0  0  0  0  0  0
   44.6940   35.2680   45.6850 N   0  0  0  0  0  0  0  0  0  0  0  0
   43.9090   36.4380   44.1970 H   0  0  0  0  0  0  0  0  0  0  0  0
   45.6560   32.7780   42.8800 H   0  0  0  0  0  0  0  0  0  0  0  0
   45.6700   33.6730   46.9220 H   0  0  0  0  0  0  0  0  0  0  0  0
   43.2080   34.4570   41.5230 O   0  0  0  0  0  0  0  0  0  0  0  0
   42.9060   34.8460   37.0350 H   0  0  0  0  0  0  0  0  0  0  0  0
   42.5340   34.9980   38.0090 N   0  0  0  0  0  0  0  0  0  0  0  0
   43.1860   34.5920   39.0950 C   0  0  0  0  0  3  0  0  0  0  0  0
   42.6160   34.8360   40.3280 C   0  0  0  0  0  0  0  0  0  0  0  0
   41.3920   35.4930   40.3540 C   0  0  0  0  0  0  0  0  0  0  0  0
   40.8720   35.7150   41.4830 O   0  0  0  0  0  0  0  0  0  0  0  0
   40.7520   35.8940   39.2340 N   0  0  0  0  0  0  0  0  0  0  0  0
   41.3480   35.6340   38.0370 C   0  0  0  0  0  0  0  0  0  0  0  0
   40.7000   36.0330   37.0350 O   0  0  0  0  0  0  0  0  0  0  0  0
   39.8240   36.3890   39.2870 H   0  0  0  0  0  0  0  0  0  0  0  0
  1  5  1  0  0  0  0
  2  1  1  0  0  0  0
  3  1  1  0  0  0  0
  4  9  1  0  0  0  0
  5  6  1  0  0  0  0
  5  4  2  0  0  0  0
  6  7  2  0  0  0  0
  7  8  1  0  0  0  0
  8 12  1  0  0  0  0
  9  8  2  0  0  0  0
 10  4  1  0  0  0  0
 11  6  1  0  0  0  0
 13  1  1  0  0  0  0
 14 15  1  0  0  0  0
 15 21  1  0  0  0  0
 15 16  1  0  0  0  0
 16 17  2  0  0  0  0
 17 18  1  0  0  0  0
 17 13  1  0  0  0  0
 18 19  2  0  0  0  0
 20 23  1  0  0  0  0
 20 18  1  0  0  0  0
 21 20  1  0  0  0  0
 22 21  2  0  0  0  0
M  END
>  <minimizedAffinity>
-4.55790854

>  <minimizedRMSD>
0.958001196

$$$$
