
 OpenBabel03252500543D

 31 32  0  0  0  0  0  0  0  0999 V2000
   46.3060   34.3260   40.4710 O   0  0  0  0  0  0  0  0  0  0  0  0
   47.4280   33.9650   42.5340 C   0  0  0  0  0  0  0  0  0  0  0  0
   46.2270   34.0670   41.8400 C   0  0  0  0  0  0  0  0  0  0  0  0
   45.0300   33.9010   42.5840 C   0  0  0  0  0  0  0  0  0  0  0  0
   45.1500   33.6560   43.9010 N   0  0  0  0  0  0  0  0  0  0  0  0
   46.3230   33.5630   44.5350 C   0  0  0  0  0  0  0  0  0  0  0  0
   47.4440   33.7190   43.8480 N   0  0  0  0  0  0  0  0  0  0  0  0
   44.1390   33.9870   42.0140 H   0  0  0  0  0  0  0  0  0  0  0  0
   46.2930   33.3640   45.5980 H   0  0  0  0  0  0  0  0  0  0  0  0
   48.7000   34.1260   41.8320 C   0  0  0  0  0  0  0  0  0  0  0  0
   49.3210   33.1910   41.7990 H   0  0  0  0  0  0  0  0  0  0  0  0
   48.5260   34.4400   40.7790 H   0  0  0  0  0  0  0  0  0  0  0  0
   49.4980   35.2210   42.5000 C   0  0  0  0  0  0  0  0  0  0  0  0
   49.5560   34.9620   43.5780 H   0  0  0  0  0  0  0  0  0  0  0  0
   48.9970   36.1960   42.3430 H   0  0  0  0  0  0  0  0  0  0  0  0
   50.5320   35.2920   42.1340 H   0  0  0  0  0  0  0  0  0  0  0  0
   45.9420   31.8090   39.8540 O   0  0  0  0  0  0  0  0  0  0  0  0
   46.1200   33.1920   39.2330 P   0  0  1  0  0  0  0  0  0  0  0  0
   44.7220   33.5830   38.3640 O   0  0  0  0  0  0  0  0  0  0  0  0
   44.8320   34.5560   38.1160 H   0  0  0  0  0  0  0  0  0  0  0  0
   47.4270   33.1910   38.1530 O   0  0  0  0  0  0  0  0  0  0  0  0
   50.9540   30.8940   39.7760 H   0  0  0  0  0  0  0  0  0  0  0  0
   50.2450   30.9890   39.0020 N   0  0  0  0  0  0  0  0  0  0  0  0
   49.3760   32.0160   39.1660 C   0  0  0  0  0  3  0  0  0  0  0  0
   48.4200   32.2250   38.2190 C   0  0  0  0  0  0  0  0  0  0  0  0
   48.3660   31.3780   37.1160 C   0  0  0  0  0  0  0  0  0  0  0  0
   47.5380   31.4510   36.1660 O   0  0  0  0  0  0  0  0  0  0  0  0
   49.2660   30.3610   37.0050 N   0  0  0  0  0  0  0  0  0  0  0  0
   50.2120   30.1690   37.9590 C   0  0  0  0  0  0  0  0  0  0  0  0
   51.0720   29.2730   37.9440 O   0  0  0  0  0  0  0  0  0  0  0  0
   49.2560   29.7060   36.1920 H   0  0  0  0  0  0  0  0  0  0  0  0
  1  3  1  0  0  0  0
  2  7  1  0  0  0  0
  3  2  2  0  0  0  0
  3  4  1  0  0  0  0
  4  5  2  0  0  0  0
  5  6  1  0  0  0  0
  6  9  1  0  0  0  0
  7  6  2  0  0  0  0
  8  4  1  0  0  0  0
 10 13  1  0  0  0  0
 10  2  1  0  0  0  0
 11 10  1  0  0  0  0
 12 10  1  0  0  0  0
 13 14  1  0  0  0  0
 15 13  1  0  0  0  0
 16 13  1  0  0  0  0
 18 17  2  1  0  0  0
 18  1  1  0  0  0  0
 19 18  1  0  0  0  0
 20 19  1  0  0  0  0
 21 25  1  0  0  0  0
 21 18  1  0  0  0  0
 23 24  1  0  0  0  0
 23 22  1  0  0  0  0
 25 24  2  0  0  0  0
 26 25  1  0  0  0  0
 27 26  2  0  0  0  0
 28 26  1  0  0  0  0
 28 29  1  0  0  0  0
 29 23  1  0  0  0  0
 30 29  2  0  0  0  0
 31 28  1  0  0  0  0
M  END
>  <minimizedAffinity>
-3.5339129

>  <minimizedRMSD>
7.73122597

$$$$
