
 OpenBabel03252507043D

 48 51  0  0  0  0  0  0  0  0999 V2000
   41.9320   34.0950   40.9990 C   0  0  0  0  0  0  0  0  0  0  0  0
   41.5960   34.0980   42.0590 H   0  0  0  0  0  0  0  0  0  0  0  0
   42.2070   35.1910   40.8130 H   0  0  0  0  0  0  0  0  0  0  0  0
   41.0040   33.6300   40.1550 N   0  0  0  0  0  0  0  0  0  0  0  0
   40.3700   32.3500   40.1850 C   0  0  0  0  0  0  0  0  0  0  0  0
   39.0050   32.7730   40.7090 C   0  0  0  0  0  0  0  0  0  0  0  0
   38.3110   33.7330   39.8690 C   0  0  0  0  0  0  0  0  0  0  0  0
   39.0840   34.5720   38.9810 C   0  0  0  0  0  0  0  0  0  0  0  0
   40.5920   34.5830   39.0990 C   0  0  0  0  0  0  0  0  0  0  0  0
   40.3550   31.7460   39.2950 H   0  0  0  0  0  0  0  0  0  0  0  0
   40.8220   31.7400   40.9970 H   0  0  0  0  0  0  0  0  0  0  0  0
   38.4240   31.8230   40.8660 H   0  0  0  0  0  0  0  0  0  0  0  0
   39.1720   33.1610   41.7340 H   0  0  0  0  0  0  0  0  0  0  0  0
   37.6820   34.3920   40.5220 H   0  0  0  0  0  0  0  0  0  0  0  0
   37.5650   33.1760   39.2270 H   0  0  0  0  0  0  0  0  0  0  0  0
   38.6960   35.2110   38.2530 H   0  0  0  0  0  0  0  0  0  0  0  0
   41.6450   35.5330   38.1250 S   0  0  0  0  0  0  0  0  0  0  0  0
   39.8230   39.8450   38.6030 H   0  0  0  0  0  0  0  0  0  0  0  0
   40.1640   39.0870   37.9730 N   0  0  0  0  0  0  0  0  0  0  0  0
   40.6810   37.8680   38.3050 C   0  0  0  0  0  3  0  0  0  0  0  0
   41.1000   36.9540   37.3190 C   0  0  0  0  0  0  0  0  0  0  0  0
   40.9340   37.4080   36.0360 C   0  0  0  0  0  0  0  0  0  0  0  0
   41.3000   36.5890   35.1680 O   0  0  0  0  0  0  0  0  0  0  0  0
   40.4330   38.5950   35.6720 N   0  0  0  0  0  0  0  0  0  0  0  0
   40.0610   39.4040   36.6720 C   0  0  0  0  0  0  0  0  0  0  0  0
   39.5960   40.5080   36.2760 O   0  0  0  0  0  0  0  0  0  0  0  0
   40.3780   38.7810   34.6490 H   0  0  0  0  0  0  0  0  0  0  0  0
   43.2330   33.3810   40.9200 C   0  0  0  0  0  0  0  0  0  0  0  0
   43.1920   32.3250   41.2550 H   0  0  0  0  0  0  0  0  0  0  0  0
   43.5080   33.3230   39.8310 H   0  0  0  0  0  0  0  0  0  0  0  0
   44.2470   34.1820   41.6300 C   0  0  0  0  0  0  0  0  0  0  0  0
   43.8800   35.3240   42.3090 C   0  0  0  0  0  0  0  0  0  0  0  0
   44.8700   36.0530   42.9540 C   0  0  0  0  0  0  0  0  0  0  0  0
   46.1590   35.5970   42.8810 N   0  0  0  0  0  0  0  0  0  0  0  0
   46.4690   34.4880   42.2160 C   0  0  0  0  0  0  0  0  0  0  0  0
   45.5030   33.7980   41.6000 N   0  0  0  0  0  0  0  0  0  0  0  0
   42.9450   35.8270   42.4940 H   0  0  0  0  0  0  0  0  0  0  0  0
   44.7720   36.9750   43.5330 H   0  0  0  0  0  0  0  0  0  0  0  0
   47.8660   34.0590   42.2200 C   0  0  0  0  0  0  0  0  0  0  0  0
   48.1920   32.7230   42.0030 C   0  0  0  0  0  0  0  0  0  0  0  0
   49.5160   32.3270   42.0240 C   0  0  0  0  0  0  0  0  0  0  0  0
   50.4150   33.3410   42.2680 C   0  0  0  0  0  0  0  0  0  0  0  0
   50.1370   34.6790   42.4890 C   0  0  0  0  0  0  0  0  0  0  0  0
   48.8160   34.9890   42.4520 N   0  0  0  0  0  0  0  0  0  0  0  0
   47.4300   31.9690   41.8140 H   0  0  0  0  0  0  0  0  0  0  0  0
   49.8600   31.3170   41.8680 H   0  0  0  0  0  0  0  0  0  0  0  0
   51.4720   33.0690   42.2940 H   0  0  0  0  0  0  0  0  0  0  0  0
   50.9140   35.4030   42.6710 H   0  0  0  0  0  0  0  0  0  0  0  0
  1  2  1  0  0  0  0
  3  1  1  0  0  0  0
  4  5  1  0  0  0  0
  4  1  1  0  0  0  0
  5  6  1  0  0  0  0
  5 11  1  0  0  0  0
  6 12  1  0  0  0  0
  6 13  1  0  0  0  0
  7 14  1  0  0  0  0
  7  6  1  0  0  0  0
  8  9  2  0  0  0  0
  8  7  1  0  0  0  0
  9  4  1  0  0  0  0
 10  5  1  0  0  0  0
 15  7  1  0  0  0  0
 16  8  1  0  0  0  0
 17  9  1  0  0  0  0
 19 20  1  0  0  0  0
 19 18  1  0  0  0  0
 21 17  1  0  0  0  0
 21 20  2  0  0  0  0
 22 21  1  0  0  0  0
 23 22  2  0  0  0  0
 24 22  1  0  0  0  0
 24 25  1  0  0  0  0
 25 19  1  0  0  0  0
 26 25  2  0  0  0  0
 27 24  1  0  0  0  0
 28  1  1  0  0  0  0
 28 29  1  0  0  0  0
 28 31  1  0  0  0  0
 30 28  1  0  0  0  0
 31 32  1  0  0  0  0
 32 37  1  0  0  0  0
 32 33  2  0  0  0  0
 33 38  1  0  0  0  0
 34 33  1  0  0  0  0
 35 39  1  0  0  0  0
 35 34  2  0  0  0  0
 36 31  2  0  0  0  0
 36 35  1  0  0  0  0
 39 44  1  0  0  0  0
 40 41  1  0  0  0  0
 40 39  2  0  0  0  0
 41 42  2  0  0  0  0
 42 47  1  0  0  0  0
 42 43  1  0  0  0  0
 43 48  1  0  0  0  0
 44 43  2  0  0  0  0
 45 40  1  0  0  0  0
 46 41  1  0  0  0  0
M  END
>  <minimizedAffinity>
-1.60739195

>  <minimizedRMSD>
0.40471676

$$$$
