
 OpenBabel03252507553D

 45 48  0  0  1  0  0  0  0  0999 V2000
   48.6890   32.2260   40.3900 C   0  0  2  0  0  0  0  0  0  0  0  0
   49.4900   31.5460   41.3960 C   0  0  0  0  0  0  0  0  0  0  0  0
   50.0670   31.8670   40.0530 C   0  0  1  0  0  0  0  0  0  0  0  0
   47.8820   31.6560   39.8950 H   0  0  0  0  0  0  0  0  0  0  0  0
   49.3540   30.4570   41.6470 H   0  0  0  0  0  0  0  0  0  0  0  0
   49.8370   32.1170   42.2720 H   0  0  0  0  0  0  0  0  0  0  0  0
   50.7080   32.7580   39.8890 H   0  0  0  0  0  0  0  0  0  0  0  0
   46.8700   34.8020   42.1330 C   0  0  2  0  0  0  0  0  0  0  0  0
   46.0000   34.3300   40.9640 C   0  0  0  0  0  0  0  0  0  0  0  0
   47.1300   34.1670   39.9220 C   0  0  0  0  0  0  0  0  0  0  0  0
   48.3010   33.6550   40.7010 C   0  0  1  0  0  0  0  0  0  0  0  0
   47.8870   33.6950   42.1430 C   0  0  0  0  0  0  0  0  0  0  0  0
   47.3360   35.7700   41.8660 H   0  0  0  0  0  0  0  0  0  0  0  0
   45.5990   33.3450   41.2240 H   0  0  0  0  0  0  0  0  0  0  0  0
   45.2790   35.0850   40.6470 H   0  0  0  0  0  0  0  0  0  0  0  0
   47.3810   35.2180   39.6170 H   0  0  0  0  0  0  0  0  0  0  0  0
   46.8060   33.5250   39.0980 H   0  0  0  0  0  0  0  0  0  0  0  0
   49.2070   34.2850   40.5930 H   0  0  0  0  0  0  0  0  0  0  0  0
   47.3960   32.7520   42.4530 H   0  0  0  0  0  0  0  0  0  0  0  0
   48.7380   33.9270   42.8120 H   0  0  0  0  0  0  0  0  0  0  0  0
   44.4970   35.8140   44.8770 C   0  0  0  0  0  0  0  0  0  0  0  0
   45.1500   35.8520   43.6500 C   0  0  0  0  0  0  0  0  0  0  0  0
   46.0860   34.8590   43.3980 C   0  0  0  0  0  0  0  0  0  0  0  0
   46.3460   33.8700   44.3560 N   0  0  0  0  0  0  0  0  0  0  0  0
   45.6780   33.8850   45.5410 C   0  0  0  0  0  0  0  0  0  0  0  0
   44.7590   34.8560   45.7920 N   0  0  0  0  0  0  0  0  0  0  0  0
   43.7550   36.5720   45.1180 H   0  0  0  0  0  0  0  0  0  0  0  0
   44.9570   36.6070   42.9050 H   0  0  0  0  0  0  0  0  0  0  0  0
   45.9100   33.1050   46.2520 H   0  0  0  0  0  0  0  0  0  0  0  0
   50.2530   30.7780   39.1620 O   0  0  0  0  0  0  0  0  0  0  0  0
   51.0830   30.3410   36.7290 O   0  0  0  0  0  0  0  0  0  0  0  0
   51.2040   31.3080   37.8810 P   0  0  1  0  0  0  0  0  0  0  0  0
   50.6450   32.8310   37.3250 O   0  0  0  0  0  0  0  0  0  0  0  0
   51.0510   33.5270   37.8800 H   0  0  0  0  0  0  0  0  0  0  0  0
   52.8100   31.4890   38.2530 O   0  0  0  0  0  0  0  0  0  0  0  0
   54.2370   30.0410   42.2840 H   0  0  0  0  0  0  0  0  0  0  0  0
   54.3650   30.0280   41.2520 N   0  0  0  0  0  0  0  0  0  0  0  0
   53.4990   30.7600   40.5570 C   0  0  0  0  0  3  0  0  0  0  0  0
   53.5760   30.8160   39.1710 C   0  0  0  0  0  0  0  0  0  0  0  0
   54.5900   30.0780   38.5560 C   0  0  0  0  0  0  0  0  0  0  0  0
   54.8470   29.9810   37.3220 O   0  0  0  0  0  0  0  0  0  0  0  0
   55.4550   29.3420   39.3080 N   0  0  0  0  0  0  0  0  0  0  0  0
   55.3310   29.3260   40.6430 C   0  0  0  0  0  0  0  0  0  0  0  0
   56.1040   28.6620   41.3960 O   0  0  0  0  0  0  0  0  0  0  0  0
   56.2350   28.7670   38.9250 H   0  0  0  0  0  0  0  0  0  0  0  0
  1  4  1  6  0  0  0
  1 11  1  0  0  0  0
  1  2  1  0  0  0  0
  2  5  1  0  0  0  0
  2  6  1  0  0  0  0
  3  7  1  6  0  0  0
  3  1  1  0  0  0  0
  3  2  1  0  0  0  0
  8 13  1  6  0  0  0
  8 12  1  0  0  0  0
  8 23  1  0  0  0  0
  9 14  1  0  0  0  0
  9  8  1  0  0  0  0
 10 11  1  0  0  0  0
 10  9  1  0  0  0  0
 11 18  1  6  0  0  0
 11 12  1  0  0  0  0
 12 19  1  0  0  0  0
 12 20  1  0  0  0  0
 15  9  1  0  0  0  0
 16 10  1  0  0  0  0
 17 10  1  0  0  0  0
 21 27  1  0  0  0  0
 21 26  1  0  0  0  0
 22 21  2  0  0  0  0
 23 22  1  0  0  0  0
 23 24  2  0  0  0  0
 24 25  1  0  0  0  0
 25 26  2  0  0  0  0
 25 29  1  0  0  0  0
 28 22  1  0  0  0  0
 30  3  1  0  0  0  0
 32 31  2  6  0  0  0
 32 35  1  0  0  0  0
 32 30  1  0  0  0  0
 33 34  1  0  0  0  0
 33 32  1  0  0  0  0
 35 39  1  0  0  0  0
 37 36  1  0  0  0  0
 38 37  1  0  0  0  0
 39 38  2  0  0  0  0
 40 39  1  0  0  0  0
 40 42  1  0  0  0  0
 41 40  2  0  0  0  0
 42 43  1  0  0  0  0
 43 37  1  0  0  0  0
 43 44  2  0  0  0  0
 45 42  1  0  0  0  0
M  END
>  <minimizedAffinity>
-5.34724045

>  <minimizedRMSD>
0.977826774

$$$$
