
 OpenBabel03252500553D

 31 32  0  0  0  0  0  0  0  0999 V2000
   44.7270   35.1790   42.0090 O   0  0  0  0  0  0  0  0  0  0  0  0
   46.8350   34.2620   42.6110 C   0  0  0  0  0  0  0  0  0  0  0  0
   45.5200   34.5430   42.9650 C   0  0  0  0  0  0  0  0  0  0  0  0
   45.1010   34.1600   44.2660 C   0  0  0  0  0  0  0  0  0  0  0  0
   46.0080   33.5550   45.0540 N   0  0  0  0  0  0  0  0  0  0  0  0
   47.2660   33.3000   44.6780 C   0  0  0  0  0  0  0  0  0  0  0  0
   47.6640   33.6550   43.4660 N   0  0  0  0  0  0  0  0  0  0  0  0
   44.0910   34.3950   44.4940 H   0  0  0  0  0  0  0  0  0  0  0  0
   47.9040   32.8070   45.4000 H   0  0  0  0  0  0  0  0  0  0  0  0
   47.3340   34.6280   41.2870 C   0  0  0  0  0  0  0  0  0  0  0  0
   47.5320   33.7480   40.6170 H   0  0  0  0  0  0  0  0  0  0  0  0
   46.6020   35.2800   40.7610 H   0  0  0  0  0  0  0  0  0  0  0  0
   48.6100   35.4230   41.4420 C   0  0  0  0  0  0  0  0  0  0  0  0
   49.2890   34.8160   42.0770 H   0  0  0  0  0  0  0  0  0  0  0  0
   48.3850   36.4020   41.9080 H   0  0  0  0  0  0  0  0  0  0  0  0
   49.1340   35.5960   40.4910 H   0  0  0  0  0  0  0  0  0  0  0  0
   44.2070   33.7690   39.8670 O   0  0  0  0  0  0  0  0  0  0  0  0
   43.5380   34.4470   41.0590 P   0  0  1  0  0  0  0  0  0  0  0  0
   42.7660   33.2660   41.9950 O   0  0  0  0  0  0  0  0  0  0  0  0
   42.4850   33.7440   42.8390 H   0  0  0  0  0  0  0  0  0  0  0  0
   42.3620   35.5480   40.5310 O   0  0  0  0  0  0  0  0  0  0  0  0
   40.4630   34.8390   36.5010 H   0  0  0  0  0  0  0  0  0  0  0  0
   40.3510   34.7950   37.5480 N   0  0  0  0  0  0  0  0  0  0  0  0
   41.4400   35.2050   38.2430 C   0  0  0  0  0  0  0  0  0  0  0  0
   41.3970   35.1860   39.6030 C   0  0  0  0  0  0  0  0  0  0  0  0
   40.2370   34.7460   40.2350 C   0  0  0  0  0  0  0  0  0  0  0  0
   40.0550   34.6750   41.4820 O   0  0  0  0  0  0  0  0  0  0  0  0
   39.1730   34.3460   39.4840 N   0  0  0  0  0  0  0  0  0  0  0  0
   39.2350   34.3720   38.1290 C   0  0  0  0  0  0  0  0  0  0  0  0
   38.3190   34.0280   37.3630 O   0  0  0  0  0  0  0  0  0  0  0  0
   38.2860   34.0110   39.9250 H   0  0  0  0  0  0  0  0  0  0  0  0
  1  3  1  0  0  0  0
  2  3  2  0  0  0  0
  2  7  1  0  0  0  0
  3  4  1  0  0  0  0
  4  8  1  0  0  0  0
  4  5  2  0  0  0  0
  6  5  1  0  0  0  0
  6  9  1  0  0  0  0
  7  6  2  0  0  0  0
 10 13  1  0  0  0  0
 10  2  1  0  0  0  0
 11 10  1  0  0  0  0
 12 10  1  0  0  0  0
 13 15  1  0  0  0  0
 13 14  1  0  0  0  0
 16 13  1  0  0  0  0
 18 17  2  6  0  0  0
 18 19  1  0  0  0  0
 18  1  1  0  0  0  0
 19 20  1  0  0  0  0
 21 18  1  0  0  0  0
 22 23  1  0  0  0  0
 23 29  1  0  0  0  0
 23 24  1  0  0  0  0
 24 25  2  0  0  0  0
 25 26  1  0  0  0  0
 25 21  1  0  0  0  0
 26 27  2  0  0  0  0
 28 31  1  0  0  0  0
 28 26  1  0  0  0  0
 29 28  1  0  0  0  0
 30 29  2  0  0  0  0
M  END
>  <minimizedAffinity>
-5.37563133

>  <minimizedRMSD>
2.01652718

$$$$
