
 OpenBabel03242516433D

 45 47  0  0  1  0  0  0  0  0999 V2000
   49.9570   30.5680   41.0190 O   0  0  0  0  0  0  0  0  0  0  0  0
   50.4500   29.1600   39.1940 C   0  0  1  0  0  0  0  0  0  0  0  0
   50.9850   29.9910   40.3470 C   0  0  2  0  0  0  0  0  0  0  0  0
   51.4860   28.8440   41.2550 C   0  0  0  0  0  0  0  0  0  0  0  0
   50.5460   27.8580   41.1600 O   0  0  0  0  0  0  0  0  0  0  0  0
   49.8900   27.9730   39.9690 C   0  0  0  0  0  0  0  0  0  0  0  0
   51.2790   28.8130   38.5470 H   0  0  0  0  0  0  0  0  0  0  0  0
   51.8300   30.6440   40.0720 H   0  0  0  0  0  0  0  0  0  0  0  0
   51.6880   29.2290   42.2610 H   0  0  0  0  0  0  0  0  0  0  0  0
   52.4380   28.5170   40.7400 H   0  0  0  0  0  0  0  0  0  0  0  0
   50.0900   27.0510   39.3660 H   0  0  0  0  0  0  0  0  0  0  0  0
   48.8020   28.0620   40.1270 H   0  0  0  0  0  0  0  0  0  0  0  0
   49.4880   29.8160   38.4700 O   0  0  0  0  0  0  0  0  0  0  0  0
   46.7650   33.2440   38.2320 H   0  0  0  0  0  0  0  0  0  0  0  0
   47.6910   32.8350   38.0650 N   0  0  0  0  0  0  0  0  0  0  0  0
   48.1060   31.5660   38.3460 C   0  0  0  0  0  0  0  0  0  0  0  0
   49.4050   31.1250   38.0670 C   0  0  0  0  0  0  0  0  0  0  0  0
   50.2450   32.0520   37.4910 C   0  0  0  0  0  0  0  0  0  0  0  0
   51.3820   31.5620   37.2830 O   0  0  0  0  0  0  0  0  0  0  0  0
   49.8130   33.2930   37.2250 N   0  0  0  0  0  0  0  0  0  0  0  0
   48.5680   33.6970   37.4980 C   0  0  0  0  0  0  0  0  0  0  0  0
   48.3000   34.8920   37.1930 O   0  0  0  0  0  0  0  0  0  0  0  0
   50.5790   33.8730   36.7880 H   0  0  0  0  0  0  0  0  0  0  0  0
   50.2460   32.1610   43.0940 O   0  0  0  0  0  0  0  0  0  0  0  0
   50.3610   32.1320   41.5810 P   0  0  1  0  0  0  0  0  0  0  0  0
   51.9070   32.4640   41.0410 O   0  0  0  0  0  0  0  0  0  0  0  0
   52.5740   32.3810   41.7770 H   0  0  0  0  0  0  0  0  0  0  0  0
   49.2920   33.2550   40.9290 O   0  0  0  0  0  0  0  0  0  0  0  0
   49.1420   34.3510   41.7660 C   0  0  0  0  0  0  0  0  0  0  0  0
   49.2550   33.9960   42.8190 H   0  0  0  0  0  0  0  0  0  0  0  0
   49.9790   35.0840   41.6330 H   0  0  0  0  0  0  0  0  0  0  0  0
   47.8050   34.9830   41.5830 C   0  0  0  0  0  0  0  0  0  0  0  0
   47.9720   36.0990   41.6230 H   0  0  0  0  0  0  0  0  0  0  0  0
   47.3550   34.6840   40.6320 H   0  0  0  0  0  0  0  0  0  0  0  0
   44.9450   35.1260   44.0370 C   0  0  0  0  0  0  0  0  0  0  0  0
   45.7560   35.3930   42.9150 C   0  0  0  0  0  0  0  0  0  0  0  0
   46.9530   34.6980   42.7670 C   0  0  0  0  0  0  0  0  0  0  0  0
   47.2870   33.7860   43.7140 N   0  0  0  0  0  0  0  0  0  0  0  0
   46.4900   33.5470   44.7840 C   0  0  0  0  0  0  0  0  0  0  0  0
   45.3370   34.2040   44.9460 N   0  0  0  0  0  0  0  0  0  0  0  0
   43.7370   35.8160   44.2010 N   0  0  0  0  0  0  0  0  0  0  0  0
   45.4860   36.1120   42.1720 H   0  0  0  0  0  0  0  0  0  0  0  0
   46.8120   32.8100   45.5020 H   0  0  0  0  0  0  0  0  0  0  0  0
   43.2010   35.7430   45.0790 H   0  0  0  0  0  0  0  0  0  0  0  0
   43.3650   36.4170   43.4320 H   0  0  0  0  0  0  0  0  0  0  0  0
  1 25  1  0  0  0  0
  2  7  1  6  0  0  0
  2  6  1  0  0  0  0
  2  3  1  0  0  0  0
  3  8  1  6  0  0  0
  3  1  1  0  0  0  0
  3  4  1  0  0  0  0
  4  9  1  0  0  0  0
  5  4  1  0  0  0  0
  6 12  1  0  0  0  0
  6  5  1  0  0  0  0
 10  4  1  0  0  0  0
 11  6  1  0  0  0  0
 13  2  1  0  0  0  0
 15 14  1  0  0  0  0
 15 16  1  0  0  0  0
 17 16  2  0  0  0  0
 17 13  1  0  0  0  0
 18 17  1  0  0  0  0
 19 18  2  0  0  0  0
 20 18  1  0  0  0  0
 20 21  1  0  0  0  0
 21 15  1  0  0  0  0
 22 21  2  0  0  0  0
 23 20  1  0  0  0  0
 25 24  2  1  0  0  0
 26 25  1  0  0  0  0
 26 27  1  0  0  0  0
 28 25  1  0  0  0  0
 28 29  1  0  0  0  0
 29 30  1  0  0  0  0
 31 29  1  0  0  0  0
 32 33  1  0  0  0  0
 32 29  1  0  0  0  0
 32 37  1  0  0  0  0
 34 32  1  0  0  0  0
 35 41  1  0  0  0  0
 35 40  1  0  0  0  0
 36 35  2  0  0  0  0
 37 36  1  0  0  0  0
 37 38  2  0  0  0  0
 38 39  1  0  0  0  0
 39 40  2  0  0  0  0
 39 43  1  0  0  0  0
 41 44  1  0  0  0  0
 42 36  1  0  0  0  0
 45 41  1  0  0  0  0
M  END
>  <minimizedAffinity>
-5.14770412

>  <minimizedRMSD>
2.60423541

$$$$
