
 OpenBabel03242521283D

 36 38  0  0  1  0  0  0  0  0999 V2000
   48.0390   33.4620   42.4840 C   0  0  1  0  0  0  0  0  0  0  0  0
   46.5770   33.7420   42.2300 C   0  0  2  0  0  0  0  0  0  0  0  0
   46.3850   34.6830   41.2390 O   0  0  0  0  0  0  0  0  0  0  0  0
   46.7510   34.0680   40.0510 C   0  0  0  0  0  0  0  0  0  0  0  0
   48.2420   33.9410   40.0160 C   0  0  2  0  0  0  0  0  0  0  0  0
   48.8610   33.3280   41.2460 C   0  0  2  0  0  0  0  0  0  0  0  0
   48.0680   32.4640   43.0150 H   0  0  0  0  0  0  0  0  0  0  0  0
   46.1620   32.7600   41.8740 H   0  0  0  0  0  0  0  0  0  0  0  0
   46.2790   33.0740   39.9270 H   0  0  0  0  0  0  0  0  0  0  0  0
   46.4640   34.7430   39.2280 H   0  0  0  0  0  0  0  0  0  0  0  0
   48.5050   33.3070   39.1490 H   0  0  0  0  0  0  0  0  0  0  0  0
   49.7930   33.9230   41.4190 H   0  0  0  0  0  0  0  0  0  0  0  0
   44.5520   35.7880   44.6960 C   0  0  0  0  0  0  0  0  0  0  0  0
   45.1500   35.3850   43.4940 C   0  0  0  0  0  0  0  0  0  0  0  0
   45.9260   34.1920   43.4690 C   0  0  0  0  0  0  0  0  0  0  0  0
   46.0440   33.5050   44.6270 N   0  0  0  0  0  0  0  0  0  0  0  0
   45.4560   33.9170   45.7750 C   0  0  0  0  0  0  0  0  0  0  0  0
   44.7080   35.0590   45.8150 N   0  0  0  0  0  0  0  0  0  0  0  0
   43.9940   36.7070   44.5750 H   0  0  0  0  0  0  0  0  0  0  0  0
   45.0610   35.9260   42.5650 H   0  0  0  0  0  0  0  0  0  0  0  0
   45.5710   33.3400   46.6970 H   0  0  0  0  0  0  0  0  0  0  0  0
   48.5920   34.3570   43.4040 O   0  0  0  0  0  0  0  0  0  0  0  0
   49.3030   33.9390   43.9490 H   0  0  0  0  0  0  0  0  0  0  0  0
   48.7190   35.2470   39.8000 O   0  0  0  0  0  0  0  0  0  0  0  0
   49.6830   35.1170   39.5380 H   0  0  0  0  0  0  0  0  0  0  0  0
   49.2670   32.0120   41.0180 O   0  0  0  0  0  0  0  0  0  0  0  0
   53.0580   30.4440   42.9280 H   0  0  0  0  0  0  0  0  0  0  0  0
   52.5560   30.6970   42.0510 N   0  0  0  0  0  0  0  0  0  0  0  0
   51.3170   31.1500   42.2490 C   0  0  0  0  0  3  0  0  0  0  0  0
   50.5520   31.5170   41.1620 C   0  0  0  0  0  0  0  0  0  0  0  0
   51.1260   31.3920   39.8910 C   0  0  0  0  0  0  0  0  0  0  0  0
   50.6040   31.6710   38.7640 O   0  0  0  0  0  0  0  0  0  0  0  0
   52.3990   30.9240   39.7340 N   0  0  0  0  0  0  0  0  0  0  0  0
   53.0980   30.5810   40.8270 C   0  0  0  0  0  0  0  0  0  0  0  0
   54.2760   30.1370   40.8330 O   0  0  0  0  0  0  0  0  0  0  0  0
   52.8850   30.8060   38.8360 H   0  0  0  0  0  0  0  0  0  0  0  0
  1  7  1  1  0  0  0
  1 22  1  0  0  0  0
  2  8  1  6  0  0  0
  2  1  1  0  0  0  0
  2 15  1  0  0  0  0
  3  2  1  0  0  0  0
  4  3  1  0  0  0  0
  5 11  1  6  0  0  0
  5  4  1  0  0  0  0
  5  6  1  0  0  0  0
  6 12  1  1  0  0  0
  6  1  1  0  0  0  0
  9  4  1  0  0  0  0
 10  4  1  0  0  0  0
 13 18  1  0  0  0  0
 14 13  2  0  0  0  0
 15 14  1  0  0  0  0
 15 16  2  0  0  0  0
 16 17  1  0  0  0  0
 17 18  2  0  0  0  0
 17 21  1  0  0  0  0
 19 13  1  0  0  0  0
 20 14  1  0  0  0  0
 22 23  1  0  0  0  0
 24  5  1  0  0  0  0
 25 24  1  0  0  0  0
 26 30  1  0  0  0  0
 26  6  1  0  0  0  0
 28 29  1  0  0  0  0
 28 27  1  0  0  0  0
 30 29  2  0  0  0  0
 31 30  1  0  0  0  0
 32 31  2  0  0  0  0
 33 31  1  0  0  0  0
 33 34  1  0  0  0  0
 34 35  2  0  0  0  0
 34 28  1  0  0  0  0
 36 33  1  0  0  0  0
M  END
>  <minimizedAffinity>
-5.8328743

>  <minimizedRMSD>
0.740260422

$$$$
