
 OpenBabel03242523533D

 44 47  0  0  1  0  0  0  0  0999 V2000
   38.5340   32.6930   39.3440 C   0  0  1  0  0  0  0  0  0  0  0  0
   38.0900   31.4080   40.0480 C   0  0  1  0  0  0  0  0  0  0  0  0
   38.6570   30.3050   39.3820 O   0  0  0  0  0  0  0  0  0  0  0  0
   38.7670   30.4970   38.0020 C   0  0  0  0  0  0  0  0  0  0  0  0
   39.8300   31.5390   37.6910 C   0  0  2  0  0  0  0  0  0  0  0  0
   39.9720   32.4330   38.9260 C   0  0  1  0  0  0  0  0  0  0  0  0
   38.5490   33.5490   40.0460 H   0  0  0  0  0  0  0  0  0  0  0  0
   37.0030   31.3090   40.1120 H   0  0  0  0  0  0  0  0  0  0  0  0
   39.1030   29.5210   37.6060 H   0  0  0  0  0  0  0  0  0  0  0  0
   37.7970   30.6980   37.5300 H   0  0  0  0  0  0  0  0  0  0  0  0
   40.7770   31.0690   37.4040 H   0  0  0  0  0  0  0  0  0  0  0  0
   40.4980   31.8090   39.6790 H   0  0  0  0  0  0  0  0  0  0  0  0
   37.7450   32.9310   38.2190 O   0  0  0  0  0  0  0  0  0  0  0  0
   37.8460   33.8600   37.9380 H   0  0  0  0  0  0  0  0  0  0  0  0
   39.3080   32.3960   36.7040 O   0  0  0  0  0  0  0  0  0  0  0  0
   39.9440   32.5460   35.9730 H   0  0  0  0  0  0  0  0  0  0  0  0
   38.7140   31.4230   41.3020 O   0  0  0  0  0  0  0  0  0  0  0  0
   39.2680   30.3640   41.9000 C   0  0  0  0  0  0  0  0  0  0  0  0
   38.4830   29.3030   42.3450 C   0  0  0  0  0  0  0  0  0  0  0  0
   39.1000   28.2230   42.9580 C   0  0  0  0  0  0  0  0  0  0  0  0
   40.4690   28.2280   43.1100 N   0  0  0  0  0  0  0  0  0  0  0  0
   41.2000   29.2700   42.6690 C   0  0  0  0  0  0  0  0  0  0  0  0
   40.6120   30.3310   42.0680 N   0  0  0  0  0  0  0  0  0  0  0  0
   37.4110   29.3120   42.2190 H   0  0  0  0  0  0  0  0  0  0  0  0
   42.2780   29.2710   42.7910 H   0  0  0  0  0  0  0  0  0  0  0  0
   38.2960   27.0600   43.4720 C   0  0  0  0  0  0  0  0  0  0  0  0
   36.9270   26.8400   42.8670 C   0  0  0  0  0  0  0  0  0  0  0  0
   38.1160   25.8980   42.6420 C   0  0  0  0  0  0  0  0  0  0  0  0
   38.2750   26.9680   44.5760 H   0  0  0  0  0  0  0  0  0  0  0  0
   36.6530   27.5700   42.1020 H   0  0  0  0  0  0  0  0  0  0  0  0
   36.0990   26.4620   43.4890 H   0  0  0  0  0  0  0  0  0  0  0  0
   38.4860   25.9710   41.5780 H   0  0  0  0  0  0  0  0  0  0  0  0
   37.9670   24.8740   42.9800 H   0  0  0  0  0  0  0  0  0  0  0  0
   40.6760   33.5740   38.6160 O   0  0  0  0  0  0  0  0  0  0  0  0
   44.5410   33.8140   36.3690 H   0  0  0  0  0  0  0  0  0  0  0  0
   44.0620   33.8840   37.2830 N   0  0  0  0  0  0  0  0  0  0  0  0
   42.7210   33.6800   37.2960 C   0  0  0  0  0  3  0  0  0  0  0  0
   42.0140   33.7600   38.4880 C   0  0  0  0  0  0  0  0  0  0  0  0
   42.7300   34.0540   39.6530 C   0  0  0  0  0  0  0  0  0  0  0  0
   42.1110   34.1350   40.7640 O   0  0  0  0  0  0  0  0  0  0  0  0
   44.0620   34.2560   39.6320 N   0  0  0  0  0  0  0  0  0  0  0  0
   44.6840   34.1640   38.4410 C   0  0  0  0  0  0  0  0  0  0  0  0
   45.9370   34.3480   38.3840 O   0  0  0  0  0  0  0  0  0  0  0  0
   44.5490   34.4720   40.5200 H   0  0  0  0  0  0  0  0  0  0  0  0
  1  7  1  1  0  0  0
  1  2  1  0  0  0  0
  2  8  1  1  0  0  0
  2 17  1  0  0  0  0
  3  2  1  0  0  0  0
  4  3  1  0  0  0  0
  5 11  1  6  0  0  0
  5  4  1  0  0  0  0
  5  6  1  0  0  0  0
  6  1  1  0  0  0  0
  6 12  1  1  0  0  0
  9  4  1  0  0  0  0
 10  4  1  0  0  0  0
 13  1  1  0  0  0  0
 14 13  1  0  0  0  0
 15  5  1  0  0  0  0
 16 15  1  0  0  0  0
 17 18  1  0  0  0  0
 18 23  2  0  0  0  0
 18 19  1  0  0  0  0
 19 20  2  0  0  0  0
 20 21  1  0  0  0  0
 20 26  1  0  0  0  0
 22 25  1  0  0  0  0
 22 21  2  0  0  0  0
 23 22  1  0  0  0  0
 24 19  1  0  0  0  0
 26 29  1  0  0  0  0
 27 26  1  0  0  0  0
 27 31  1  0  0  0  0
 28 27  1  0  0  0  0
 28 33  1  0  0  0  0
 28 26  1  0  0  0  0
 30 27  1  0  0  0  0
 32 28  1  0  0  0  0
 34  6  1  0  0  0  0
 35 36  1  0  0  0  0
 36 37  1  0  0  0  0
 36 42  1  0  0  0  0
 37 38  2  0  0  0  0
 38 34  1  0  0  0  0
 38 39  1  0  0  0  0
 39 40  2  0  0  0  0
 41 39  1  0  0  0  0
 41 44  1  0  0  0  0
 42 41  1  0  0  0  0
 43 42  2  0  0  0  0
M  END
>  <minimizedAffinity>
-6.56756926

$$$$

 OpenBabel03242523533D

 44 47  0  0  1  0  0  0  0  0999 V2000
   39.5080   31.9300   40.7220 C   0  0  1  0  0  0  0  0  0  0  0  0
   37.9880   32.0890   40.6280 C   0  0  1  0  0  0  0  0  0  0  0  0
   37.6950   33.3780   40.1410 O   0  0  0  0  0  0  0  0  0  0  0  0
   38.6040   34.3460   40.5780 C   0  0  0  0  0  0  0  0  0  0  0  0
   39.9590   34.1430   39.9200 C   0  0  2  0  0  0  0  0  0  0  0  0
   40.0560   32.6690   39.5130 C   0  0  1  0  0  0  0  0  0  0  0  0
   39.8060   30.8690   40.6180 H   0  0  0  0  0  0  0  0  0  0  0  0
   37.4790   31.9050   41.5770 H   0  0  0  0  0  0  0  0  0  0  0  0
   38.1830   35.3070   40.2290 H   0  0  0  0  0  0  0  0  0  0  0  0
   38.6480   34.4130   41.6720 H   0  0  0  0  0  0  0  0  0  0  0  0
   40.0960   34.8210   39.0700 H   0  0  0  0  0  0  0  0  0  0  0  0
   39.3760   32.5630   38.6410 H   0  0  0  0  0  0  0  0  0  0  0  0
   39.9880   32.5120   41.8950 O   0  0  0  0  0  0  0  0  0  0  0  0
   40.8870   32.1810   42.0820 H   0  0  0  0  0  0  0  0  0  0  0  0
   40.9420   34.2890   40.9170 O   0  0  0  0  0  0  0  0  0  0  0  0
   41.6720   34.8760   40.6300 H   0  0  0  0  0  0  0  0  0  0  0  0
   37.5760   31.2240   39.6060 O   0  0  0  0  0  0  0  0  0  0  0  0
   37.1310   29.9770   39.7860 C   0  0  0  0  0  0  0  0  0  0  0  0
   37.2740   29.3370   41.0140 C   0  0  0  0  0  0  0  0  0  0  0  0
   36.7960   28.0430   41.1560 C   0  0  0  0  0  0  0  0  0  0  0  0
   36.1920   27.4280   40.0820 N   0  0  0  0  0  0  0  0  0  0  0  0
   36.0690   28.0740   38.9060 C   0  0  0  0  0  0  0  0  0  0  0  0
   36.5310   29.3370   38.7530 N   0  0  0  0  0  0  0  0  0  0  0  0
   37.7490   29.8310   41.8480 H   0  0  0  0  0  0  0  0  0  0  0  0
   35.5940   27.5860   38.0620 H   0  0  0  0  0  0  0  0  0  0  0  0
   36.9420   27.3010   42.4570 C   0  0  0  0  0  0  0  0  0  0  0  0
   38.3230   27.2340   43.0680 C   0  0  0  0  0  0  0  0  0  0  0  0
   37.1670   28.0370   43.6740 C   0  0  0  0  0  0  0  0  0  0  0  0
   36.4340   26.3170   42.4840 H   0  0  0  0  0  0  0  0  0  0  0  0
   39.0960   27.7400   42.4840 H   0  0  0  0  0  0  0  0  0  0  0  0
   38.6470   26.3320   43.6120 H   0  0  0  0  0  0  0  0  0  0  0  0
   37.3540   29.1460   43.5710 H   0  0  0  0  0  0  0  0  0  0  0  0
   36.8720   27.7390   44.6780 H   0  0  0  0  0  0  0  0  0  0  0  0
   41.3540   32.3400   39.2000 O   0  0  0  0  0  0  0  0  0  0  0  0
   41.3960   29.1030   36.1070 H   0  0  0  0  0  0  0  0  0  0  0  0
   41.8580   29.9470   36.4880 N   0  0  0  0  0  0  0  0  0  0  0  0
   41.2800   30.5360   37.5640 C   0  0  0  0  0  3  0  0  0  0  0  0
   41.8460   31.6720   38.1260 C   0  0  0  0  0  0  0  0  0  0  0  0
   43.0150   32.1740   37.5450 C   0  0  0  0  0  0  0  0  0  0  0  0
   43.5600   33.2160   38.0360 O   0  0  0  0  0  0  0  0  0  0  0  0
   43.5820   31.5830   36.4750 N   0  0  0  0  0  0  0  0  0  0  0  0
   42.9800   30.4850   35.9820 C   0  0  0  0  0  0  0  0  0  0  0  0
   43.4870   29.9040   34.9760 O   0  0  0  0  0  0  0  0  0  0  0  0
   44.4480   31.9920   36.0790 H   0  0  0  0  0  0  0  0  0  0  0  0
  1  7  1  6  0  0  0
  1 13  1  0  0  0  0
  2  1  1  0  0  0  0
  2  8  1  1  0  0  0
  3  4  1  0  0  0  0
  3  2  1  0  0  0  0
  4 10  1  0  0  0  0
  5 11  1  6  0  0  0
  5  4  1  0  0  0  0
  5 15  1  0  0  0  0
  6 12  1  6  0  0  0
  6  5  1  0  0  0  0
  6  1  1  0  0  0  0
  9  4  1  0  0  0  0
 13 14  1  0  0  0  0
 16 15  1  0  0  0  0
 17 18  1  0  0  0  0
 17  2  1  0  0  0  0
 18 19  1  0  0  0  0
 19 20  2  0  0  0  0
 19 24  1  0  0  0  0
 20 26  1  0  0  0  0
 21 20  1  0  0  0  0
 22 21  2  0  0  0  0
 23 22  1  0  0  0  0
 23 18  2  0  0  0  0
 25 22  1  0  0  0  0
 26 29  1  0  0  0  0
 26 27  1  0  0  0  0
 26 28  1  0  0  0  0
 27 31  1  0  0  0  0
 27 28  1  0  0  0  0
 28 33  1  0  0  0  0
 30 27  1  0  0  0  0
 32 28  1  0  0  0  0
 34  6  1  0  0  0  0
 35 36  1  0  0  0  0
 36 37  1  0  0  0  0
 37 38  2  0  0  0  0
 38 34  1  0  0  0  0
 39 40  2  0  0  0  0
 39 38  1  0  0  0  0
 41 39  1  0  0  0  0
 42 41  1  0  0  0  0
 42 36  1  0  0  0  0
 43 42  2  0  0  0  0
 44 41  1  0  0  0  0
M  END
>  <minimizedAffinity>
-6.37087584

$$$$

 OpenBabel03242523533D

 44 47  0  0  1  0  0  0  0  0999 V2000
   38.1400   31.9570   40.6170 C   0  0  1  0  0  0  0  0  0  0  0  0
   37.6640   30.5070   40.7350 C   0  0  1  0  0  0  0  0  0  0  0  0
   37.3230   30.0340   39.4530 O   0  0  0  0  0  0  0  0  0  0  0  0
   36.7700   31.0230   38.6350 C   0  0  0  0  0  0  0  0  0  0  0  0
   37.8270   32.0440   38.2420 C   0  0  2  0  0  0  0  0  0  0  0  0
   38.9200   32.0080   39.3140 C   0  0  1  0  0  0  0  0  0  0  0  0
   38.8470   32.2130   41.4300 H   0  0  0  0  0  0  0  0  0  0  0  0
   36.8290   30.3860   41.4310 H   0  0  0  0  0  0  0  0  0  0  0  0
   36.4420   30.4870   37.7250 H   0  0  0  0  0  0  0  0  0  0  0  0
   35.8650   31.4660   39.0700 H   0  0  0  0  0  0  0  0  0  0  0  0
   38.2180   31.8460   37.2390 H   0  0  0  0  0  0  0  0  0  0  0  0
   39.4670   31.0560   39.1410 H   0  0  0  0  0  0  0  0  0  0  0  0
   37.0510   32.8250   40.5550 O   0  0  0  0  0  0  0  0  0  0  0  0
   37.3450   33.7360   40.7510 H   0  0  0  0  0  0  0  0  0  0  0  0
   37.2530   33.3220   38.3790 O   0  0  0  0  0  0  0  0  0  0  0  0
   37.4200   33.8850   37.5950 H   0  0  0  0  0  0  0  0  0  0  0  0
   38.7920   29.7610   41.0980 O   0  0  0  0  0  0  0  0  0  0  0  0
   38.7670   28.5530   41.6690 C   0  0  0  0  0  0  0  0  0  0  0  0
   38.3350   27.4360   40.9590 C   0  0  0  0  0  0  0  0  0  0  0  0
   38.3280   26.2020   41.5900 C   0  0  0  0  0  0  0  0  0  0  0  0
   38.7470   26.1140   42.9000 N   0  0  0  0  0  0  0  0  0  0  0  0
   39.1580   27.2130   43.5600 C   0  0  0  0  0  0  0  0  0  0  0  0
   39.1720   28.4250   42.9560 N   0  0  0  0  0  0  0  0  0  0  0  0
   38.0100   27.5200   39.9330 H   0  0  0  0  0  0  0  0  0  0  0  0
   39.4870   27.1410   44.5910 H   0  0  0  0  0  0  0  0  0  0  0  0
   37.8540   24.9670   40.8730 C   0  0  0  0  0  0  0  0  0  0  0  0
   38.0760   23.6370   41.5580 C   0  0  0  0  0  0  0  0  0  0  0  0
   36.6930   24.2660   41.3550 C   0  0  0  0  0  0  0  0  0  0  0  0
   38.1280   24.9260   39.8000 H   0  0  0  0  0  0  0  0  0  0  0  0
   38.5760   23.7100   42.5270 H   0  0  0  0  0  0  0  0  0  0  0  0
   38.3100   22.7380   40.9640 H   0  0  0  0  0  0  0  0  0  0  0  0
   36.2630   24.6110   42.3410 H   0  0  0  0  0  0  0  0  0  0  0  0
   35.9980   23.6750   40.7620 H   0  0  0  0  0  0  0  0  0  0  0  0
   39.7420   33.1050   39.2000 O   0  0  0  0  0  0  0  0  0  0  0  0
   42.8850   32.6090   36.0500 H   0  0  0  0  0  0  0  0  0  0  0  0
   42.6570   32.9330   37.0060 N   0  0  0  0  0  0  0  0  0  0  0  0
   41.3720   32.7890   37.4170 C   0  0  0  0  0  3  0  0  0  0  0  0
   40.9950   33.2020   38.6870 C   0  0  0  0  0  0  0  0  0  0  0  0
   41.9780   33.7630   39.5090 C   0  0  0  0  0  0  0  0  0  0  0  0
   41.6650   34.1530   40.6820 O   0  0  0  0  0  0  0  0  0  0  0  0
   43.2520   33.9030   39.0930 N   0  0  0  0  0  0  0  0  0  0  0  0
   43.5470   33.4800   37.8490 C   0  0  0  0  0  0  0  0  0  0  0  0
   44.7360   33.5970   37.4260 O   0  0  0  0  0  0  0  0  0  0  0  0
   43.9450   34.3240   39.7380 H   0  0  0  0  0  0  0  0  0  0  0  0
  1  2  1  0  0  0  0
  1  7  1  1  0  0  0
  2 17  1  0  0  0  0
  2  8  1  1  0  0  0
  3  2  1  0  0  0  0
  4 10  1  0  0  0  0
  4  3  1  0  0  0  0
  5 11  1  6  0  0  0
  5 15  1  0  0  0  0
  5  4  1  0  0  0  0
  5  6  1  0  0  0  0
  6 12  1  6  0  0  0
  6  1  1  0  0  0  0
  9  4  1  0  0  0  0
 13  1  1  0  0  0  0
 13 14  1  0  0  0  0
 16 15  1  0  0  0  0
 17 18  1  0  0  0  0
 18 23  1  0  0  0  0
 19 20  1  0  0  0  0
 19 18  2  0  0  0  0
 20 21  2  0  0  0  0
 21 22  1  0  0  0  0
 22 25  1  0  0  0  0
 23 22  2  0  0  0  0
 24 19  1  0  0  0  0
 26 28  1  0  0  0  0
 26 27  1  0  0  0  0
 26 20  1  0  0  0  0
 27 30  1  0  0  0  0
 28 27  1  0  0  0  0
 28 32  1  0  0  0  0
 29 26  1  0  0  0  0
 31 27  1  0  0  0  0
 33 28  1  0  0  0  0
 34  6  1  0  0  0  0
 35 36  1  0  0  0  0
 36 37  1  0  0  0  0
 36 42  1  0  0  0  0
 37 38  2  0  0  0  0
 38 34  1  0  0  0  0
 38 39  1  0  0  0  0
 39 40  2  0  0  0  0
 41 39  1  0  0  0  0
 41 44  1  0  0  0  0
 42 41  1  0  0  0  0
 43 42  2  0  0  0  0
M  END
>  <minimizedAffinity>
-6.32828903

$$$$

 OpenBabel03242523533D

 44 47  0  0  1  0  0  0  0  0999 V2000
   38.4000   32.2900   39.3100 C   0  0  1  0  0  0  0  0  0  0  0  0
   37.8870   30.8920   39.6650 C   0  0  1  0  0  0  0  0  0  0  0  0
   38.6520   29.9360   38.9690 O   0  0  0  0  0  0  0  0  0  0  0  0
   39.0530   30.3740   37.7040 C   0  0  0  0  0  0  0  0  0  0  0  0
   40.0960   31.4740   37.8250 C   0  0  2  0  0  0  0  0  0  0  0  0
   39.9080   32.1360   39.1940 C   0  0  1  0  0  0  0  0  0  0  0  0
   38.2080   33.0070   40.1320 H   0  0  0  0  0  0  0  0  0  0  0  0
   36.8210   30.7630   39.4610 H   0  0  0  0  0  0  0  0  0  0  0  0
   39.5260   29.4910   37.2350 H   0  0  0  0  0  0  0  0  0  0  0  0
   38.2020   30.6380   37.0640 H   0  0  0  0  0  0  0  0  0  0  0  0
   41.1090   31.0810   37.6870 H   0  0  0  0  0  0  0  0  0  0  0  0
   40.2890   31.3970   39.9300 H   0  0  0  0  0  0  0  0  0  0  0  0
   37.8680   32.7110   38.0920 O   0  0  0  0  0  0  0  0  0  0  0  0
   37.9740   33.6770   38.0030 H   0  0  0  0  0  0  0  0  0  0  0  0
   39.7560   32.4850   36.9050 O   0  0  0  0  0  0  0  0  0  0  0  0
   40.5290   32.7740   36.3760 H   0  0  0  0  0  0  0  0  0  0  0  0
   38.2160   30.6940   41.0120 O   0  0  0  0  0  0  0  0  0  0  0  0
   38.0660   29.5480   41.6820 C   0  0  0  0  0  0  0  0  0  0  0  0
   39.1490   28.9400   42.3110 C   0  0  0  0  0  0  0  0  0  0  0  0
   38.9470   27.7520   42.9960 C   0  0  0  0  0  0  0  0  0  0  0  0
   37.6820   27.2060   43.0360 N   0  0  0  0  0  0  0  0  0  0  0  0
   36.6550   27.8180   42.4170 C   0  0  0  0  0  0  0  0  0  0  0  0
   36.8370   28.9790   41.7440 N   0  0  0  0  0  0  0  0  0  0  0  0
   40.1340   29.3790   42.2710 H   0  0  0  0  0  0  0  0  0  0  0  0
   35.6610   27.3850   42.4500 H   0  0  0  0  0  0  0  0  0  0  0  0
   40.0880   27.0460   43.6780 C   0  0  0  0  0  0  0  0  0  0  0  0
   40.0680   25.5340   43.6800 C   0  0  0  0  0  0  0  0  0  0  0  0
   41.0800   26.3690   42.8860 C   0  0  0  0  0  0  0  0  0  0  0  0
   40.3490   27.4540   44.6750 H   0  0  0  0  0  0  0  0  0  0  0  0
   39.2020   25.0970   43.1760 H   0  0  0  0  0  0  0  0  0  0  0  0
   40.4520   24.9750   44.5490 H   0  0  0  0  0  0  0  0  0  0  0  0
   40.8790   26.2900   41.7770 H   0  0  0  0  0  0  0  0  0  0  0  0
   42.1230   26.2060   43.1500 H   0  0  0  0  0  0  0  0  0  0  0  0
   40.5940   33.3270   39.2510 O   0  0  0  0  0  0  0  0  0  0  0  0
   44.1480   33.4480   41.9730 H   0  0  0  0  0  0  0  0  0  0  0  0
   43.7730   33.6260   41.0250 N   0  0  0  0  0  0  0  0  0  0  0  0
   42.4610   33.3510   40.8170 C   0  0  0  0  0  3  0  0  0  0  0  0
   41.8930   33.5650   39.5700 C   0  0  0  0  0  0  0  0  0  0  0  0
   42.7140   34.0670   38.5550 C   0  0  0  0  0  0  0  0  0  0  0  0
   42.2230   34.2760   37.3970 O   0  0  0  0  0  0  0  0  0  0  0  0
   44.0170   34.3370   38.7700 N   0  0  0  0  0  0  0  0  0  0  0  0
   44.5020   34.1050   40.0040 C   0  0  0  0  0  0  0  0  0  0  0  0
   45.7240   34.3480   40.2410 O   0  0  0  0  0  0  0  0  0  0  0  0
   44.5860   34.7070   37.9880 H   0  0  0  0  0  0  0  0  0  0  0  0
  1  2  1  0  0  0  0
  1  7  1  1  0  0  0
  2  8  1  6  0  0  0
  2 17  1  0  0  0  0
  3  2  1  0  0  0  0
  4  5  1  0  0  0  0
  4  3  1  0  0  0  0
  5 11  1  6  0  0  0
  5  6  1  0  0  0  0
  6 34  1  0  0  0  0
  6  1  1  0  0  0  0
  6 12  1  1  0  0  0
  9  4  1  0  0  0  0
 10  4  1  0  0  0  0
 13  1  1  0  0  0  0
 14 13  1  0  0  0  0
 15  5  1  0  0  0  0
 16 15  1  0  0  0  0
 17 18  1  0  0  0  0
 18 23  2  0  0  0  0
 18 19  1  0  0  0  0
 19 20  2  0  0  0  0
 20 21  1  0  0  0  0
 20 26  1  0  0  0  0
 22 25  1  0  0  0  0
 22 21  2  0  0  0  0
 23 22  1  0  0  0  0
 24 19  1  0  0  0  0
 26 27  1  0  0  0  0
 26 29  1  0  0  0  0
 27 31  1  0  0  0  0
 28 33  1  0  0  0  0
 28 26  1  0  0  0  0
 28 27  1  0  0  0  0
 30 27  1  0  0  0  0
 32 28  1  0  0  0  0
 34 38  1  0  0  0  0
 36 35  1  0  0  0  0
 37 36  1  0  0  0  0
 38 37  2  0  0  0  0
 39 41  1  0  0  0  0
 39 38  1  0  0  0  0
 40 39  2  0  0  0  0
 41 42  1  0  0  0  0
 42 43  2  0  0  0  0
 42 36  1  0  0  0  0
 44 41  1  0  0  0  0
M  END
>  <minimizedAffinity>
-6.3236208

$$$$

 OpenBabel03242523533D

 44 47  0  0  1  0  0  0  0  0999 V2000
   40.0260   31.3180   40.3430 C   0  0  1  0  0  0  0  0  0  0  0  0
   41.2620   31.2150   41.2400 C   0  0  1  0  0  0  0  0  0  0  0  0
   41.7370   32.5130   41.5110 O   0  0  0  0  0  0  0  0  0  0  0  0
   41.5630   33.3930   40.4390 C   0  0  0  0  0  0  0  0  0  0  0  0
   40.0890   33.7120   40.2450 C   0  0  2  0  0  0  0  0  0  0  0  0
   39.2850   32.5500   40.8360 C   0  0  1  0  0  0  0  0  0  0  0  0
   39.3510   30.4520   40.4900 H   0  0  0  0  0  0  0  0  0  0  0  0
   42.0510   30.5920   40.8110 H   0  0  0  0  0  0  0  0  0  0  0  0
   42.0860   34.3180   40.7450 H   0  0  0  0  0  0  0  0  0  0  0  0
   42.0660   33.0460   39.5280 H   0  0  0  0  0  0  0  0  0  0  0  0
   39.8260   34.6750   40.6960 H   0  0  0  0  0  0  0  0  0  0  0  0
   39.3850   32.6580   41.9370 H   0  0  0  0  0  0  0  0  0  0  0  0
   40.4020   31.4890   39.0110 O   0  0  0  0  0  0  0  0  0  0  0  0
   39.6460   31.2850   38.4280 H   0  0  0  0  0  0  0  0  0  0  0  0
   39.8200   33.6480   38.8640 O   0  0  0  0  0  0  0  0  0  0  0  0
   39.3100   34.4260   38.5530 H   0  0  0  0  0  0  0  0  0  0  0  0
   40.8010   30.7430   42.4750 O   0  0  0  0  0  0  0  0  0  0  0  0
   40.6700   29.4550   42.8070 C   0  0  0  0  0  0  0  0  0  0  0  0
   39.4200   28.8420   42.8120 C   0  0  0  0  0  0  0  0  0  0  0  0
   39.3310   27.5030   43.1620 C   0  0  0  0  0  0  0  0  0  0  0  0
   40.4790   26.8170   43.4940 N   0  0  0  0  0  0  0  0  0  0  0  0
   41.6730   27.4390   43.4800 C   0  0  0  0  0  0  0  0  0  0  0  0
   41.7760   28.7460   43.1400 N   0  0  0  0  0  0  0  0  0  0  0  0
   38.5290   29.3910   42.5500 H   0  0  0  0  0  0  0  0  0  0  0  0
   42.5750   26.8960   43.7430 H   0  0  0  0  0  0  0  0  0  0  0  0
   38.0020   26.7980   43.1990 C   0  0  0  0  0  0  0  0  0  0  0  0
   36.7850   27.6280   43.5400 C   0  0  0  0  0  0  0  0  0  0  0  0
   37.0430   27.0330   42.1510 C   0  0  0  0  0  0  0  0  0  0  0  0
   38.0090   25.8350   43.7470 H   0  0  0  0  0  0  0  0  0  0  0  0
   37.0010   28.6810   43.7360 H   0  0  0  0  0  0  0  0  0  0  0  0
   35.9610   27.1890   44.1280 H   0  0  0  0  0  0  0  0  0  0  0  0
   37.2900   27.8470   41.4090 H   0  0  0  0  0  0  0  0  0  0  0  0
   36.2850   26.3380   41.7960 H   0  0  0  0  0  0  0  0  0  0  0  0
   37.9740   32.6130   40.4260 O   0  0  0  0  0  0  0  0  0  0  0  0
   34.9750   29.5110   41.6210 H   0  0  0  0  0  0  0  0  0  0  0  0
   35.4930   29.9660   40.8510 N   0  0  0  0  0  0  0  0  0  0  0  0
   36.3570   30.9570   41.1860 C   0  0  0  0  0  3  0  0  0  0  0  0
   37.0850   31.6120   40.2030 C   0  0  0  0  0  0  0  0  0  0  0  0
   36.8930   31.2150   38.8760 C   0  0  0  0  0  0  0  0  0  0  0  0
   37.5460   31.7960   37.9480 O   0  0  0  0  0  0  0  0  0  0  0  0
   36.0330   30.2300   38.5500 N   0  0  0  0  0  0  0  0  0  0  0  0
   35.3600   29.6380   39.5550 C   0  0  0  0  0  0  0  0  0  0  0  0
   34.5420   28.7080   39.2840 O   0  0  0  0  0  0  0  0  0  0  0  0
   35.9240   29.9710   37.5530 H   0  0  0  0  0  0  0  0  0  0  0  0
  1  7  1  1  0  0  0
  1  6  1  0  0  0  0
  1  2  1  0  0  0  0
  2  8  1  6  0  0  0
  2  3  1  0  0  0  0
  2 17  1  0  0  0  0
  4  9  1  0  0  0  0
  4  3  1  0  0  0  0
  5  4  1  0  0  0  0
  5 11  1  1  0  0  0
  5  6  1  0  0  0  0
  6 12  1  1  0  0  0
 10  4  1  0  0  0  0
 13  1  1  0  0  0  0
 14 13  1  0  0  0  0
 15  5  1  0  0  0  0
 16 15  1  0  0  0  0
 17 18  1  0  0  0  0
 18 19  2  0  0  0  0
 18 23  1  0  0  0  0
 19 20  1  0  0  0  0
 20 26  1  0  0  0  0
 20 21  2  0  0  0  0
 22 21  1  0  0  0  0
 22 25  1  0  0  0  0
 23 22  2  0  0  0  0
 24 19  1  0  0  0  0
 26 27  1  0  0  0  0
 26 29  1  0  0  0  0
 27 30  1  0  0  0  0
 27 31  1  0  0  0  0
 28 26  1  0  0  0  0
 28 27  1  0  0  0  0
 32 28  1  0  0  0  0
 33 28  1  0  0  0  0
 34  6  1  0  0  0  0
 36 37  1  0  0  0  0
 36 35  1  0  0  0  0
 38 34  1  0  0  0  0
 38 37  2  0  0  0  0
 39 38  1  0  0  0  0
 40 39  2  0  0  0  0
 41 39  1  0  0  0  0
 41 42  1  0  0  0  0
 42 36  1  0  0  0  0
 43 42  2  0  0  0  0
 44 41  1  0  0  0  0
M  END
>  <minimizedAffinity>
-6.23657131

$$$$

 OpenBabel03242523533D

 44 47  0  0  1  0  0  0  0  0999 V2000
   39.8830   31.0480   40.4410 C   0  0  1  0  0  0  0  0  0  0  0  0
   41.0650   30.9620   41.4100 C   0  0  1  0  0  0  0  0  0  0  0  0
   41.6100   32.2490   41.5780 O   0  0  0  0  0  0  0  0  0  0  0  0
   41.5470   33.0240   40.4170 C   0  0  0  0  0  0  0  0  0  0  0  0
   40.1090   33.4110   40.1110 C   0  0  2  0  0  0  0  0  0  0  0  0
   39.2020   32.3660   40.7690 C   0  0  1  0  0  0  0  0  0  0  0  0
   39.1470   30.2440   40.6350 H   0  0  0  0  0  0  0  0  0  0  0  0
   41.8300   30.2510   41.0890 H   0  0  0  0  0  0  0  0  0  0  0  0
   42.1150   33.9420   40.6580 H   0  0  0  0  0  0  0  0  0  0  0  0
   42.0700   32.5560   39.5730 H   0  0  0  0  0  0  0  0  0  0  0  0
   39.8880   34.4290   40.4500 H   0  0  0  0  0  0  0  0  0  0  0  0
   39.2550   32.5800   41.8580 H   0  0  0  0  0  0  0  0  0  0  0  0
   40.3340   31.0590   39.1210 O   0  0  0  0  0  0  0  0  0  0  0  0
   39.5950   30.8430   38.5200 H   0  0  0  0  0  0  0  0  0  0  0  0
   39.9030   33.2230   38.7300 O   0  0  0  0  0  0  0  0  0  0  0  0
   39.4620   33.9940   38.3170 H   0  0  0  0  0  0  0  0  0  0  0  0
   40.5130   30.6470   42.6590 O   0  0  0  0  0  0  0  0  0  0  0  0
   39.8740   29.5110   42.9540 C   0  0  0  0  0  0  0  0  0  0  0  0
   40.5690   28.3110   43.0760 C   0  0  0  0  0  0  0  0  0  0  0  0
   39.8660   27.1570   43.3860 C   0  0  0  0  0  0  0  0  0  0  0  0
   38.5010   27.2290   43.5650 N   0  0  0  0  0  0  0  0  0  0  0  0
   37.8580   28.4050   43.4400 C   0  0  0  0  0  0  0  0  0  0  0  0
   38.5320   29.5400   43.1380 N   0  0  0  0  0  0  0  0  0  0  0  0
   41.6380   28.2690   42.9330 H   0  0  0  0  0  0  0  0  0  0  0  0
   36.7840   28.4580   43.5810 H   0  0  0  0  0  0  0  0  0  0  0  0
   40.5670   25.8310   43.5120 C   0  0  0  0  0  0  0  0  0  0  0  0
   39.7800   24.5920   43.1500 C   0  0  0  0  0  0  0  0  0  0  0  0
   40.9590   25.1190   42.3240 C   0  0  0  0  0  0  0  0  0  0  0  0
   41.1300   25.6980   44.4570 H   0  0  0  0  0  0  0  0  0  0  0  0
   38.7540   24.7900   42.8310 H   0  0  0  0  0  0  0  0  0  0  0  0
   39.9370   23.6520   43.7060 H   0  0  0  0  0  0  0  0  0  0  0  0
   40.6000   25.5370   41.3390 H   0  0  0  0  0  0  0  0  0  0  0  0
   41.7980   24.4330   42.2250 H   0  0  0  0  0  0  0  0  0  0  0  0
   37.9200   32.4670   40.2820 O   0  0  0  0  0  0  0  0  0  0  0  0
   34.7300   29.5600   41.4760 H   0  0  0  0  0  0  0  0  0  0  0  0
   35.3020   29.9560   40.7100 N   0  0  0  0  0  0  0  0  0  0  0  0
   36.1950   30.9210   41.0410 C   0  0  0  0  0  3  0  0  0  0  0  0
   36.9950   31.4960   40.0640 C   0  0  0  0  0  0  0  0  0  0  0  0
   36.8440   31.0470   38.7480 C   0  0  0  0  0  0  0  0  0  0  0  0
   37.5640   31.5540   37.8260 O   0  0  0  0  0  0  0  0  0  0  0  0
   35.9540   30.0870   38.4280 N   0  0  0  0  0  0  0  0  0  0  0  0
   35.2110   29.5740   39.4260 C   0  0  0  0  0  0  0  0  0  0  0  0
   34.3630   28.6690   39.1600 O   0  0  0  0  0  0  0  0  0  0  0  0
   35.8770   29.7860   37.4400 H   0  0  0  0  0  0  0  0  0  0  0  0
  1  7  1  1  0  0  0
  1  6  1  0  0  0  0
  1  2  1  0  0  0  0
  2  8  1  6  0  0  0
  2  3  1  0  0  0  0
  2 17  1  0  0  0  0
  4  9  1  0  0  0  0
  4  3  1  0  0  0  0
  5  4  1  0  0  0  0
  5 11  1  1  0  0  0
  5  6  1  0  0  0  0
  6 12  1  1  0  0  0
 10  4  1  0  0  0  0
 13  1  1  0  0  0  0
 14 13  1  0  0  0  0
 15  5  1  0  0  0  0
 16 15  1  0  0  0  0
 17 18  1  0  0  0  0
 18 19  2  0  0  0  0
 18 23  1  0  0  0  0
 19 20  1  0  0  0  0
 20 26  1  0  0  0  0
 20 21  2  0  0  0  0
 22 21  1  0  0  0  0
 22 25  1  0  0  0  0
 23 22  2  0  0  0  0
 24 19  1  0  0  0  0
 26 29  1  0  0  0  0
 27 26  1  0  0  0  0
 27 31  1  0  0  0  0
 28 27  1  0  0  0  0
 28 26  1  0  0  0  0
 30 27  1  0  0  0  0
 32 28  1  0  0  0  0
 33 28  1  0  0  0  0
 34  6  1  0  0  0  0
 36 37  1  0  0  0  0
 36 35  1  0  0  0  0
 38 34  1  0  0  0  0
 38 37  2  0  0  0  0
 39 38  1  0  0  0  0
 40 39  2  0  0  0  0
 41 39  1  0  0  0  0
 41 42  1  0  0  0  0
 42 36  1  0  0  0  0
 43 42  2  0  0  0  0
 44 41  1  0  0  0  0
M  END
>  <minimizedAffinity>
-6.18352175

$$$$

 OpenBabel03242523533D

 44 47  0  0  1  0  0  0  0  0999 V2000
   36.7260   30.1350   41.3250 C   0  0  1  0  0  0  0  0  0  0  0  0
   36.3360   28.9410   40.4490 C   0  0  1  0  0  0  0  0  0  0  0  0
   36.5010   29.2960   39.0970 O   0  0  0  0  0  0  0  0  0  0  0  0
   36.2060   30.6390   38.8450 C   0  0  0  0  0  0  0  0  0  0  0  0
   37.2630   31.5430   39.4610 C   0  0  2  0  0  0  0  0  0  0  0  0
   37.9090   30.7720   40.6160 C   0  0  1  0  0  0  0  0  0  0  0  0
   37.0820   29.8030   42.3190 H   0  0  0  0  0  0  0  0  0  0  0  0
   35.3210   28.5850   40.6390 H   0  0  0  0  0  0  0  0  0  0  0  0
   36.2560   30.7380   37.7450 H   0  0  0  0  0  0  0  0  0  0  0  0
   35.1790   30.9010   39.1270 H   0  0  0  0  0  0  0  0  0  0  0  0
   37.9950   31.8680   38.7140 H   0  0  0  0  0  0  0  0  0  0  0  0
   38.5440   30.0000   40.1310 H   0  0  0  0  0  0  0  0  0  0  0  0
   35.6730   31.0450   41.4070 O   0  0  0  0  0  0  0  0  0  0  0  0
   35.8180   31.6490   42.1600 H   0  0  0  0  0  0  0  0  0  0  0  0
   36.5940   32.6090   40.0920 O   0  0  0  0  0  0  0  0  0  0  0  0
   36.9880   33.4770   39.8630 H   0  0  0  0  0  0  0  0  0  0  0  0
   37.3120   27.9630   40.6790 O   0  0  0  0  0  0  0  0  0  0  0  0
   37.0750   26.6560   40.8180 C   0  0  0  0  0  0  0  0  0  0  0  0
   36.6250   25.8930   39.7430 C   0  0  0  0  0  0  0  0  0  0  0  0
   36.3930   24.5390   39.9320 C   0  0  0  0  0  0  0  0  0  0  0  0
   36.6150   23.9860   41.1740 N   0  0  0  0  0  0  0  0  0  0  0  0
   37.0500   24.7510   42.1940 C   0  0  0  0  0  0  0  0  0  0  0  0
   37.2810   26.0740   42.0240 N   0  0  0  0  0  0  0  0  0  0  0  0
   36.4560   26.3400   38.7760 H   0  0  0  0  0  0  0  0  0  0  0  0
   37.2230   24.3120   43.1710 H   0  0  0  0  0  0  0  0  0  0  0  0
   35.8900   23.6750   38.8080 C   0  0  0  0  0  0  0  0  0  0  0  0
   34.5990   22.9210   39.0360 C   0  0  0  0  0  0  0  0  0  0  0  0
   34.7360   24.0900   38.0530 C   0  0  0  0  0  0  0  0  0  0  0  0
   36.6630   23.0330   38.3410 H   0  0  0  0  0  0  0  0  0  0  0  0
   34.1550   23.0810   40.0210 H   0  0  0  0  0  0  0  0  0  0  0  0
   34.4590   21.9160   38.6030 H   0  0  0  0  0  0  0  0  0  0  0  0
   34.1800   24.9960   38.4330 H   0  0  0  0  0  0  0  0  0  0  0  0
   34.5180   23.8500   37.0150 H   0  0  0  0  0  0  0  0  0  0  0  0
   38.6430   31.6210   41.4100 O   0  0  0  0  0  0  0  0  0  0  0  0
   43.1020   31.4750   41.0320 H   0  0  0  0  0  0  0  0  0  0  0  0
   42.2470   32.0570   41.0120 N   0  0  0  0  0  0  0  0  0  0  0  0
   41.0650   31.4280   41.2240 C   0  0  0  0  0  3  0  0  0  0  0  0
   39.8790   32.1480   41.2100 C   0  0  0  0  0  0  0  0  0  0  0  0
   39.9530   33.5240   40.9700 C   0  0  0  0  0  0  0  0  0  0  0  0
   38.8810   34.2140   40.9500 O   0  0  0  0  0  0  0  0  0  0  0  0
   41.1310   34.1420   40.7600 N   0  0  0  0  0  0  0  0  0  0  0  0
   42.2430   33.3820   40.7880 C   0  0  0  0  0  0  0  0  0  0  0  0
   43.3690   33.9310   40.5930 O   0  0  0  0  0  0  0  0  0  0  0  0
   41.1370   35.1630   40.5860 H   0  0  0  0  0  0  0  0  0  0  0  0
  1 13  1  0  0  0  0
  1  7  1  1  0  0  0
  2  8  1  1  0  0  0
  2 17  1  0  0  0  0
  2  1  1  0  0  0  0
  3  2  1  0  0  0  0
  4  3  1  0  0  0  0
  4 10  1  0  0  0  0
  4  5  1  0  0  0  0
  5 11  1  6  0  0  0
  5 15  1  0  0  0  0
  5  6  1  0  0  0  0
  6 12  1  6  0  0  0
  6  1  1  0  0  0  0
  6 34  1  0  0  0  0
  9  4  1  0  0  0  0
 13 14  1  0  0  0  0
 16 15  1  0  0  0  0
 17 18  1  0  0  0  0
 18 23  1  0  0  0  0
 19 20  1  0  0  0  0
 19 18  2  0  0  0  0
 20 21  2  0  0  0  0
 21 22  1  0  0  0  0
 22 25  1  0  0  0  0
 23 22  2  0  0  0  0
 24 19  1  0  0  0  0
 26 27  1  0  0  0  0
 26 20  1  0  0  0  0
 27 30  1  0  0  0  0
 28 32  1  0  0  0  0
 28 26  1  0  0  0  0
 28 27  1  0  0  0  0
 29 26  1  0  0  0  0
 31 27  1  0  0  0  0
 33 28  1  0  0  0  0
 36 35  1  0  0  0  0
 36 37  1  0  0  0  0
 38 37  2  0  0  0  0
 38 34  1  0  0  0  0
 39 38  1  0  0  0  0
 40 39  2  0  0  0  0
 41 42  1  0  0  0  0
 41 39  1  0  0  0  0
 42 36  1  0  0  0  0
 43 42  2  0  0  0  0
 44 41  1  0  0  0  0
M  END
>  <minimizedAffinity>
-6.15250206

$$$$

 OpenBabel03242523533D

 44 47  0  0  1  0  0  0  0  0999 V2000
   37.6890   29.1390   42.1450 C   0  0  1  0  0  0  0  0  0  0  0  0
   37.5130   27.7350   41.5600 C   0  0  1  0  0  0  0  0  0  0  0  0
   36.7190   27.8220   40.4000 O   0  0  0  0  0  0  0  0  0  0  0  0
   35.7360   28.8120   40.4840 C   0  0  0  0  0  0  0  0  0  0  0  0
   36.3680   30.1950   40.4470 C   0  0  2  0  0  0  0  0  0  0  0  0
   37.8120   30.0540   40.9380 C   0  0  1  0  0  0  0  0  0  0  0  0
   38.6360   29.2200   42.7130 H   0  0  0  0  0  0  0  0  0  0  0  0
   37.0880   27.0250   42.2730 H   0  0  0  0  0  0  0  0  0  0  0  0
   35.1230   28.6810   39.5740 H   0  0  0  0  0  0  0  0  0  0  0  0
   35.0580   28.6570   41.3330 H   0  0  0  0  0  0  0  0  0  0  0  0
   36.3090   30.6340   39.4450 H   0  0  0  0  0  0  0  0  0  0  0  0
   38.3530   29.5480   40.1100 H   0  0  0  0  0  0  0  0  0  0  0  0
   36.5740   29.4960   42.9020 O   0  0  0  0  0  0  0  0  0  0  0  0
   36.7970   30.2510   43.4800 H   0  0  0  0  0  0  0  0  0  0  0  0
   35.7430   30.9750   41.4380 O   0  0  0  0  0  0  0  0  0  0  0  0
   35.4750   31.8550   41.0990 H   0  0  0  0  0  0  0  0  0  0  0  0
   38.7780   27.3540   41.0940 O   0  0  0  0  0  0  0  0  0  0  0  0
   39.7550   26.8440   41.8480 C   0  0  0  0  0  0  0  0  0  0  0  0
   40.7700   27.6560   42.3490 C   0  0  0  0  0  0  0  0  0  0  0  0
   41.7630   27.0840   43.1290 C   0  0  0  0  0  0  0  0  0  0  0  0
   41.7200   25.7310   43.3880 N   0  0  0  0  0  0  0  0  0  0  0  0
   40.7250   24.9730   42.8880 C   0  0  0  0  0  0  0  0  0  0  0  0
   39.7480   25.5170   42.1250 N   0  0  0  0  0  0  0  0  0  0  0  0
   40.7910   28.7140   42.1380 H   0  0  0  0  0  0  0  0  0  0  0  0
   40.6950   23.9080   43.0930 H   0  0  0  0  0  0  0  0  0  0  0  0
   42.8910   27.9140   43.6800 C   0  0  0  0  0  0  0  0  0  0  0  0
   43.9480   28.3830   42.7060 C   0  0  0  0  0  0  0  0  0  0  0  0
   42.9460   29.3230   43.3860 C   0  0  0  0  0  0  0  0  0  0  0  0
   43.3390   27.5180   44.6120 H   0  0  0  0  0  0  0  0  0  0  0  0
   43.7840   28.0580   41.6750 H   0  0  0  0  0  0  0  0  0  0  0  0
   45.0010   28.4590   43.0230 H   0  0  0  0  0  0  0  0  0  0  0  0
   42.1970   29.7160   42.6380 H   0  0  0  0  0  0  0  0  0  0  0  0
   43.3870   30.0990   44.0080 H   0  0  0  0  0  0  0  0  0  0  0  0
   38.3450   31.2890   41.2270 O   0  0  0  0  0  0  0  0  0  0  0  0
   42.4200   32.2460   39.6400 H   0  0  0  0  0  0  0  0  0  0  0  0
   41.4260   32.5230   39.7020 N   0  0  0  0  0  0  0  0  0  0  0  0
   40.6020   31.7140   40.4150 C   0  0  0  0  0  3  0  0  0  0  0  0
   39.2560   32.0240   40.5400 C   0  0  0  0  0  0  0  0  0  0  0  0
   38.7920   33.1840   39.9110 C   0  0  0  0  0  0  0  0  0  0  0  0
   37.5600   33.4980   40.0060 O   0  0  0  0  0  0  0  0  0  0  0  0
   39.6160   33.9820   39.2040 N   0  0  0  0  0  0  0  0  0  0  0  0
   40.9110   33.6200   39.1250 C   0  0  0  0  0  0  0  0  0  0  0  0
   41.7140   34.3490   38.4670 O   0  0  0  0  0  0  0  0  0  0  0  0
   39.2270   34.8310   38.7560 H   0  0  0  0  0  0  0  0  0  0  0  0
  1  7  1  1  0  0  0
  1 13  1  0  0  0  0
  2  1  1  0  0  0  0
  2  8  1  1  0  0  0
  3  4  1  0  0  0  0
  3  2  1  0  0  0  0
  4 10  1  0  0  0  0
  5 11  1  6  0  0  0
  5  4  1  0  0  0  0
  5  6  1  0  0  0  0
  5 15  1  0  0  0  0
  6 12  1  6  0  0  0
  6 34  1  0  0  0  0
  6  1  1  0  0  0  0
  9  4  1  0  0  0  0
 13 14  1  0  0  0  0
 16 15  1  0  0  0  0
 17  2  1  0  0  0  0
 17 18  1  0  0  0  0
 18 23  2  0  0  0  0
 18 19  1  0  0  0  0
 19 20  2  0  0  0  0
 20 21  1  0  0  0  0
 20 26  1  0  0  0  0
 22 25  1  0  0  0  0
 22 21  2  0  0  0  0
 23 22  1  0  0  0  0
 24 19  1  0  0  0  0
 26 29  1  0  0  0  0
 27 31  1  0  0  0  0
 27 28  1  0  0  0  0
 27 26  1  0  0  0  0
 28 26  1  0  0  0  0
 28 33  1  0  0  0  0
 30 27  1  0  0  0  0
 32 28  1  0  0  0  0
 35 36  1  0  0  0  0
 36 37  1  0  0  0  0
 37 38  2  0  0  0  0
 38 34  1  0  0  0  0
 39 40  2  0  0  0  0
 39 38  1  0  0  0  0
 41 39  1  0  0  0  0
 42 41  1  0  0  0  0
 42 36  1  0  0  0  0
 43 42  2  0  0  0  0
 44 41  1  0  0  0  0
M  END
>  <minimizedAffinity>
-6.02212811

$$$$

 OpenBabel03242523533D

 44 47  0  0  1  0  0  0  0  0999 V2000
   37.8240   29.4920   41.7070 C   0  0  1  0  0  0  0  0  0  0  0  0
   37.5820   27.9840   41.6030 C   0  0  1  0  0  0  0  0  0  0  0  0
   36.4670   27.7580   40.7740 O   0  0  0  0  0  0  0  0  0  0  0  0
   35.4870   28.7470   40.8950 C   0  0  0  0  0  0  0  0  0  0  0  0
   35.9730   30.0570   40.2930 C   0  0  2  0  0  0  0  0  0  0  0  0
   37.5050   30.0360   40.3250 C   0  0  1  0  0  0  0  0  0  0  0  0
   38.8910   29.7140   41.9050 H   0  0  0  0  0  0  0  0  0  0  0  0
   37.4490   27.5040   42.5770 H   0  0  0  0  0  0  0  0  0  0  0  0
   34.6360   28.3780   40.2930 H   0  0  0  0  0  0  0  0  0  0  0  0
   35.1150   28.8420   41.9220 H   0  0  0  0  0  0  0  0  0  0  0  0
   35.5780   30.2020   39.2820 H   0  0  0  0  0  0  0  0  0  0  0  0
   37.8020   29.3140   39.5350 H   0  0  0  0  0  0  0  0  0  0  0  0
   36.9710   30.0600   42.6520 O   0  0  0  0  0  0  0  0  0  0  0  0
   37.3030   30.9420   42.9070 H   0  0  0  0  0  0  0  0  0  0  0  0
   35.6250   31.0890   41.1850 O   0  0  0  0  0  0  0  0  0  0  0  0
   35.2020   31.8440   40.7250 H   0  0  0  0  0  0  0  0  0  0  0  0
   38.6680   27.4710   40.8830 O   0  0  0  0  0  0  0  0  0  0  0  0
   38.6130   26.4370   40.0370 C   0  0  0  0  0  0  0  0  0  0  0  0
   38.5080   25.1320   40.5100 C   0  0  0  0  0  0  0  0  0  0  0  0
   38.4520   24.0900   39.5970 C   0  0  0  0  0  0  0  0  0  0  0  0
   38.5000   24.3740   38.2490 N   0  0  0  0  0  0  0  0  0  0  0  0
   38.6010   25.6480   37.8240 C   0  0  0  0  0  0  0  0  0  0  0  0
   38.6570   26.6760   38.7040 N   0  0  0  0  0  0  0  0  0  0  0  0
   38.4720   24.9240   41.5680 H   0  0  0  0  0  0  0  0  0  0  0  0
   38.6400   25.8680   36.7620 H   0  0  0  0  0  0  0  0  0  0  0  0
   38.3560   22.6600   40.0560 C   0  0  0  0  0  0  0  0  0  0  0  0
   37.2520   21.8130   39.4640 C   0  0  0  0  0  0  0  0  0  0  0  0
   38.7400   21.6000   39.1610 C   0  0  0  0  0  0  0  0  0  0  0  0
   38.4340   22.5240   41.1520 H   0  0  0  0  0  0  0  0  0  0  0  0
   36.6160   22.3410   38.7490 H   0  0  0  0  0  0  0  0  0  0  0  0
   36.7500   21.0470   40.0780 H   0  0  0  0  0  0  0  0  0  0  0  0
   38.9760   21.8920   38.0960 H   0  0  0  0  0  0  0  0  0  0  0  0
   39.1340   20.6250   39.4400 H   0  0  0  0  0  0  0  0  0  0  0  0
   38.0070   31.2950   40.0920 O   0  0  0  0  0  0  0  0  0  0  0  0
   42.2970   32.3410   39.3500 H   0  0  0  0  0  0  0  0  0  0  0  0
   41.3480   32.2340   38.9530 N   0  0  0  0  0  0  0  0  0  0  0  0
   40.3630   31.8440   39.8000 C   0  0  0  0  0  3  0  0  0  0  0  0
   39.0660   31.6800   39.3340 C   0  0  0  0  0  0  0  0  0  0  0  0
   38.8220   31.9300   37.9800 C   0  0  0  0  0  0  0  0  0  0  0  0
   37.6420   31.7900   37.5200 O   0  0  0  0  0  0  0  0  0  0  0  0
   39.8060   32.3180   37.1450 N   0  0  0  0  0  0  0  0  0  0  0  0
   41.0410   32.4570   37.6640 C   0  0  0  0  0  0  0  0  0  0  0  0
   41.9900   32.8200   36.9060 O   0  0  0  0  0  0  0  0  0  0  0  0
   39.5780   32.4920   36.1500 H   0  0  0  0  0  0  0  0  0  0  0  0
  1  7  1  1  0  0  0
  1 13  1  0  0  0  0
  2  1  1  0  0  0  0
  2  8  1  1  0  0  0
  3  4  1  0  0  0  0
  3  2  1  0  0  0  0
  4 10  1  0  0  0  0
  5 11  1  6  0  0  0
  5  6  1  0  0  0  0
  5  4  1  0  0  0  0
  5 15  1  0  0  0  0
  6 12  1  6  0  0  0
  6  1  1  0  0  0  0
  9  4  1  0  0  0  0
 13 14  1  0  0  0  0
 16 15  1  0  0  0  0
 17  2  1  0  0  0  0
 18 19  1  0  0  0  0
 18 17  1  0  0  0  0
 19 24  1  0  0  0  0
 20 26  1  0  0  0  0
 20 19  2  0  0  0  0
 21 20  1  0  0  0  0
 22 21  2  0  0  0  0
 22 23  1  0  0  0  0
 23 18  2  0  0  0  0
 25 22  1  0  0  0  0
 26 29  1  0  0  0  0
 27 26  1  0  0  0  0
 27 31  1  0  0  0  0
 28 33  1  0  0  0  0
 28 27  1  0  0  0  0
 28 26  1  0  0  0  0
 30 27  1  0  0  0  0
 32 28  1  0  0  0  0
 34  6  1  0  0  0  0
 36 35  1  0  0  0  0
 36 37  1  0  0  0  0
 38 37  2  0  0  0  0
 38 34  1  0  0  0  0
 39 38  1  0  0  0  0
 40 39  2  0  0  0  0
 41 42  1  0  0  0  0
 41 39  1  0  0  0  0
 42 36  1  0  0  0  0
 43 42  2  0  0  0  0
 44 41  1  0  0  0  0
M  END
>  <minimizedAffinity>
-5.98572111

$$$$
