
 OpenBabel03242521293D

 36 38  0  0  1  0  0  0  0  0999 V2000
   48.0720   33.4680   42.5200 C   0  0  1  0  0  0  0  0  0  0  0  0
   46.6160   33.7480   42.2320 C   0  0  2  0  0  0  0  0  0  0  0  0
   46.4460   34.6720   41.2210 O   0  0  0  0  0  0  0  0  0  0  0  0
   46.8340   34.0360   40.0510 C   0  0  0  0  0  0  0  0  0  0  0  0
   48.3250   33.9050   40.0490 C   0  0  2  0  0  0  0  0  0  0  0  0
   48.9180   33.3120   41.3010 C   0  0  2  0  0  0  0  0  0  0  0  0
   48.0880   32.4800   43.0690 H   0  0  0  0  0  0  0  0  0  0  0  0
   46.2050   32.7610   41.8850 H   0  0  0  0  0  0  0  0  0  0  0  0
   46.3630   33.0410   39.9350 H   0  0  0  0  0  0  0  0  0  0  0  0
   46.5650   34.6970   39.2110 H   0  0  0  0  0  0  0  0  0  0  0  0
   48.6040   33.2550   39.1980 H   0  0  0  0  0  0  0  0  0  0  0  0
   49.8480   33.9080   41.4830 H   0  0  0  0  0  0  0  0  0  0  0  0
   44.5550   35.8450   44.6230 C   0  0  0  0  0  0  0  0  0  0  0  0
   45.1750   35.4200   43.4410 C   0  0  0  0  0  0  0  0  0  0  0  0
   45.9410   34.2200   43.4500 C   0  0  0  0  0  0  0  0  0  0  0  0
   46.0280   33.5490   44.6200 N   0  0  0  0  0  0  0  0  0  0  0  0
   45.4180   33.9820   45.7480 C   0  0  0  0  0  0  0  0  0  0  0  0
   44.6790   35.1310   45.7560 N   0  0  0  0  0  0  0  0  0  0  0  0
   44.0070   36.7670   44.4770 H   0  0  0  0  0  0  0  0  0  0  0  0
   45.1120   35.9490   42.5020 H   0  0  0  0  0  0  0  0  0  0  0  0
   45.5080   33.4170   46.6800 H   0  0  0  0  0  0  0  0  0  0  0  0
   48.6090   34.3780   43.4360 O   0  0  0  0  0  0  0  0  0  0  0  0
   49.3080   33.9680   44.0020 H   0  0  0  0  0  0  0  0  0  0  0  0
   48.8110   35.2060   39.8190 O   0  0  0  0  0  0  0  0  0  0  0  0
   49.7790   35.0690   39.5800 H   0  0  0  0  0  0  0  0  0  0  0  0
   49.3250   31.9910   41.1040 O   0  0  0  0  0  0  0  0  0  0  0  0
   50.3940   29.2940   44.5780 H   0  0  0  0  0  0  0  0  0  0  0  0
   50.7250   29.8340   43.7510 N   0  0  0  0  0  0  0  0  0  0  0  0
   49.7520   30.4750   43.0990 C   0  0  0  0  0  3  0  0  0  0  0  0
   50.0680   31.2250   41.9850 C   0  0  0  0  0  0  0  0  0  0  0  0
   51.4120   31.2740   41.5940 C   0  0  0  0  0  0  0  0  0  0  0  0
   51.9190   31.8990   40.6070 O   0  0  0  0  0  0  0  0  0  0  0  0
   52.3750   30.6030   42.2910 N   0  0  0  0  0  0  0  0  0  0  0  0
   52.0110   29.8880   43.3670 C   0  0  0  0  0  0  0  0  0  0  0  0
   52.7880   29.2230   44.1010 O   0  0  0  0  0  0  0  0  0  0  0  0
   53.3790   30.5930   42.0650 H   0  0  0  0  0  0  0  0  0  0  0  0
  1  7  1  1  0  0  0
  1 22  1  0  0  0  0
  2  8  1  6  0  0  0
  2  1  1  0  0  0  0
  2 15  1  0  0  0  0
  3  2  1  0  0  0  0
  4  3  1  0  0  0  0
  5 11  1  6  0  0  0
  5  4  1  0  0  0  0
  5  6  1  0  0  0  0
  6 12  1  1  0  0  0
  6  1  1  0  0  0  0
  9  4  1  0  0  0  0
 10  4  1  0  0  0  0
 13 18  1  0  0  0  0
 14 15  1  0  0  0  0
 14 13  2  0  0  0  0
 15 16  2  0  0  0  0
 16 17  1  0  0  0  0
 17 18  2  0  0  0  0
 17 21  1  0  0  0  0
 19 13  1  0  0  0  0
 20 14  1  0  0  0  0
 22 23  1  0  0  0  0
 24  5  1  0  0  0  0
 25 24  1  0  0  0  0
 26  6  1  0  0  0  0
 26 30  1  0  0  0  0
 28 27  1  0  0  0  0
 29 28  1  0  0  0  0
 30 29  2  0  0  0  0
 31 30  1  0  0  0  0
 31 33  1  0  0  0  0
 32 31  2  0  0  0  0
 33 34  1  0  0  0  0
 34 28  1  0  0  0  0
 34 35  2  0  0  0  0
 36 33  1  0  0  0  0
M  END
>  <minimizedAffinity>
-5.73247862

>  <minimizedRMSD>
1.57074594

$$$$
