
 OpenBabel03252509003D

 46 48  0  0  1  0  0  0  0  0999 V2000
   46.9290   34.3990   43.3250 N   0  0  0  0  0  0  0  0  0  0  0  0
   46.4510   35.5800   42.6860 C   0  0  0  0  0  0  0  0  0  0  0  0
   44.9700   35.8280   42.8120 C   0  0  0  0  0  0  0  0  0  0  0  0
   44.3550   35.3270   44.0850 C   0  0  0  0  0  0  0  0  0  0  0  0
   45.4040   34.7970   45.0350 C   0  0  0  0  0  0  0  0  0  0  0  0
   46.1140   33.6810   44.1830 C   0  0  2  0  0  0  0  0  0  0  0  0
   46.9620   36.4320   43.2110 H   0  0  0  0  0  0  0  0  0  0  0  0
   46.7210   35.6970   41.6350 H   0  0  0  0  0  0  0  0  0  0  0  0
   44.4280   35.4510   41.9140 H   0  0  0  0  0  0  0  0  0  0  0  0
   44.7960   36.9310   42.8070 H   0  0  0  0  0  0  0  0  0  0  0  0
   43.7070   34.4590   43.8100 H   0  0  0  0  0  0  0  0  0  0  0  0
   43.6630   36.0590   44.5640 H   0  0  0  0  0  0  0  0  0  0  0  0
   46.1300   35.5830   45.2650 H   0  0  0  0  0  0  0  0  0  0  0  0
   44.9250   34.3400   45.9080 H   0  0  0  0  0  0  0  0  0  0  0  0
   45.3230   33.0610   43.7350 H   0  0  0  0  0  0  0  0  0  0  0  0
   47.9470   33.7040   42.5930 C   0  0  0  0  0  0  0  0  0  0  0  0
   48.5890   34.4390   42.0920 H   0  0  0  0  0  0  0  0  0  0  0  0
   48.5550   33.1170   43.3160 H   0  0  0  0  0  0  0  0  0  0  0  0
   47.2920   32.7500   41.6430 C   0  0  0  0  0  0  0  0  0  0  0  0
   47.4120   31.7030   41.9520 H   0  0  0  0  0  0  0  0  0  0  0  0
   46.2010   32.9370   41.5810 H   0  0  0  0  0  0  0  0  0  0  0  0
   49.2610   32.1710   38.4920 C   0  0  0  0  0  0  0  0  0  0  0  0
   48.7190   31.9850   39.7830 C   0  0  0  0  0  0  0  0  0  0  0  0
   47.8640   32.9420   40.2850 C   0  0  0  0  0  0  0  0  0  0  0  0
   47.5830   34.0140   39.5170 N   0  0  0  0  0  0  0  0  0  0  0  0
   48.1170   34.1630   38.2870 C   0  0  0  0  0  0  0  0  0  0  0  0
   48.9520   33.2570   37.7640 N   0  0  0  0  0  0  0  0  0  0  0  0
   49.9230   31.3880   38.1570 H   0  0  0  0  0  0  0  0  0  0  0  0
   48.9470   31.1180   40.4020 H   0  0  0  0  0  0  0  0  0  0  0  0
   47.8950   35.0220   37.6650 H   0  0  0  0  0  0  0  0  0  0  0  0
   46.8630   33.0270   45.1620 O   0  0  0  0  0  0  0  0  0  0  0  0
   45.4090   30.9600   44.3290 O   0  0  0  0  0  0  0  0  0  0  0  0
   46.2960   31.4640   45.4640 P   0  0  2  0  0  0  0  0  0  0  0  0
   45.2800   31.5930   46.8350 O   0  0  0  0  0  0  0  0  0  0  0  0
   45.7490   32.0800   47.5530 H   0  0  0  0  0  0  0  0  0  0  0  0
   47.5320   30.4200   45.8420 O   0  0  0  0  0  0  0  0  0  0  0  0
   46.8190   27.4970   49.0640 H   0  0  0  0  0  0  0  0  0  0  0  0
   46.9330   27.6790   48.0340 N   0  0  0  0  0  0  0  0  0  0  0  0
   47.1640   28.9200   47.5160 C   0  0  0  0  0  3  0  0  0  0  0  0
   47.3060   29.0850   46.1340 C   0  0  0  0  0  0  0  0  0  0  0  0
   47.2040   27.9660   45.3410 C   0  0  0  0  0  0  0  0  0  0  0  0
   47.3480   28.2430   44.1240 O   0  0  0  0  0  0  0  0  0  0  0  0
   46.9770   26.7760   45.9030 N   0  0  0  0  0  0  0  0  0  0  0  0
   46.8400   26.6130   47.2250 C   0  0  0  0  0  0  0  0  0  0  0  0
   46.6330   25.4280   47.5740 O   0  0  0  0  0  0  0  0  0  0  0  0
   46.9170   25.9890   45.2000 H   0  0  0  0  0  0  0  0  0  0  0  0
  1  6  1  0  0  0  0
  2  3  1  0  0  0  0
  2  7  1  0  0  0  0
  2  1  1  0  0  0  0
  3  4  1  0  0  0  0
  4 12  1  0  0  0  0
  4  5  1  0  0  0  0
  5 13  1  0  0  0  0
  5 14  1  0  0  0  0
  6 15  1  6  0  0  0
  6  5  1  0  0  0  0
  6 31  1  0  0  0  0
  8  2  1  0  0  0  0
  9  3  1  0  0  0  0
 10  3  1  0  0  0  0
 11  4  1  0  0  0  0
 16 18  1  0  0  0  0
 16  1  1  0  0  0  0
 17 16  1  0  0  0  0
 19 20  1  0  0  0  0
 19 16  1  0  0  0  0
 21 19  1  0  0  0  0
 22 23  1  0  0  0  0
 23 24  2  0  0  0  0
 23 29  1  0  0  0  0
 24 19  1  0  0  0  0
 25 24  1  0  0  0  0
 26 25  2  0  0  0  0
 27 26  1  0  0  0  0
 27 22  2  0  0  0  0
 28 22  1  0  0  0  0
 30 26  1  0  0  0  0
 31 33  1  0  0  0  0
 33 32  2  6  0  0  0
 33 36  1  0  0  0  0
 33 34  1  0  0  0  0
 34 35  1  0  0  0  0
 36 40  1  0  0  0  0
 38 37  1  0  0  0  0
 39 38  1  0  0  0  0
 40 39  2  0  0  0  0
 41 43  1  0  0  0  0
 41 40  1  0  0  0  0
 42 41  2  0  0  0  0
 43 44  1  0  0  0  0
 44 45  2  0  0  0  0
 44 38  1  0  0  0  0
 46 43  1  0  0  0  0
M  END
>  <minimizedAffinity>
-4.28174973

>  <minimizedRMSD>
0.537608624

$$$$
