
 OpenBabel03252500263D

 38 40  0  0  1  0  0  0  0  0999 V2000
   37.8100   27.2760   43.0200 C   0  0  2  0  0  0  0  0  0  0  0  0
   38.0400   28.5640   42.3300 C   0  0  2  0  0  0  0  0  0  0  0  0
   39.3430   29.0230   42.8770 C   0  0  0  0  0  0  0  0  0  0  0  0
   40.0760   27.8990   43.2070 O   0  0  0  0  0  0  0  0  0  0  0  0
   39.2760   26.8060   43.1120 C   0  0  0  0  0  0  0  0  0  0  0  0
   37.4680   27.1440   43.9990 H   0  0  0  0  0  0  0  0  0  0  0  0
   38.0560   28.3260   41.2420 H   0  0  0  0  0  0  0  0  0  0  0  0
   39.9030   29.4490   41.9900 H   0  0  0  0  0  0  0  0  0  0  0  0
   39.3410   29.8410   43.5880 H   0  0  0  0  0  0  0  0  0  0  0  0
   39.4310   26.2740   42.1280 H   0  0  0  0  0  0  0  0  0  0  0  0
   39.4330   26.0530   43.8840 H   0  0  0  0  0  0  0  0  0  0  0  0
   37.0310   29.4860   42.5020 O   0  0  0  0  0  0  0  0  0  0  0  0
   35.3440   29.1160   40.5990 O   0  0  0  0  0  0  0  0  0  0  0  0
   36.4850   30.0050   41.0180 P   0  0  1  0  0  0  0  0  0  0  0  0
   35.9120   31.5930   41.1510 O   0  0  0  0  0  0  0  0  0  0  0  0
   36.5400   32.2520   40.7720 H   0  0  0  0  0  0  0  0  0  0  0  0
   37.6980   29.9070   39.8130 O   0  0  0  0  0  0  0  0  0  0  0  0
   39.7820   32.1400   37.9720 C   0  0  0  0  0  0  0  0  0  0  0  0
   40.3460   32.9900   38.9580 C   0  0  0  0  0  0  0  0  0  0  0  0
   39.9640   32.7480   40.2910 C   0  0  0  0  0  0  0  0  0  0  0  0
   39.0990   31.7330   40.5350 N   0  0  0  0  0  0  0  0  0  0  0  0
   38.5910   30.9520   39.5640 C   0  0  0  0  0  0  0  0  0  0  0  0
   38.9370   31.1620   38.2890 N   0  0  0  0  0  0  0  0  0  0  0  0
   41.0220   33.7730   38.7100 H   0  0  0  0  0  0  0  0  0  0  0  0
   40.3580   33.3600   41.0890 H   0  0  0  0  0  0  0  0  0  0  0  0
   40.1540   32.3750   36.6630 O   0  0  0  0  0  0  0  0  0  0  0  0
   39.8390   33.2680   36.2680 H   0  0  0  0  0  0  0  0  0  0  0  0
   37.0340   26.4060   42.2700 O   0  0  0  0  0  0  0  0  0  0  0  0
   38.2850   22.0900   41.7060 H   0  0  0  0  0  0  0  0  0  0  0  0
   38.0230   22.9920   41.2520 N   0  0  0  0  0  0  0  0  0  0  0  0
   37.7320   23.9940   42.0940 C   0  0  0  0  0  3  0  0  0  0  0  0
   37.3700   25.2480   41.6490 C   0  0  0  0  0  0  0  0  0  0  0  0
   37.3260   25.4110   40.2590 C   0  0  0  0  0  0  0  0  0  0  0  0
   37.0180   26.4800   39.6290 O   0  0  0  0  0  0  0  0  0  0  0  0
   37.6260   24.3820   39.4130 N   0  0  0  0  0  0  0  0  0  0  0  0
   37.9710   23.1850   39.9220 C   0  0  0  0  0  0  0  0  0  0  0  0
   38.2580   22.1980   39.1940 O   0  0  0  0  0  0  0  0  0  0  0  0
   37.6020   24.4710   38.3730 H   0  0  0  0  0  0  0  0  0  0  0  0
  1  5  1  0  0  0  0
  1  6  1  1  0  0  0
  2  7  1  6  0  0  0
  2 12  1  0  0  0  0
  2  3  1  0  0  0  0
  2  1  1  0  0  0  0
  3  4  1  0  0  0  0
  3  9  1  0  0  0  0
  5  4  1  0  0  0  0
  5 11  1  0  0  0  0
  8  3  1  0  0  0  0
 10  5  1  0  0  0  0
 14 13  2  6  0  0  0
 14 15  1  0  0  0  0
 14 12  1  0  0  0  0
 16 15  1  0  0  0  0
 17 14  1  0  0  0  0
 18 23  2  0  0  0  0
 18 19  1  0  0  0  0
 19 20  2  0  0  0  0
 20 21  1  0  0  0  0
 20 25  1  0  0  0  0
 22 17  1  0  0  0  0
 22 21  2  0  0  0  0
 23 22  1  0  0  0  0
 24 19  1  0  0  0  0
 26 18  1  0  0  0  0
 27 26  1  0  0  0  0
 28  1  1  0  0  0  0
 30 29  1  0  0  0  0
 30 31  1  0  0  0  0
 32 31  2  0  0  0  0
 32 28  1  0  0  0  0
 33 32  1  0  0  0  0
 34 33  2  0  0  0  0
 35 36  1  0  0  0  0
 35 33  1  0  0  0  0
 36 30  1  0  0  0  0
 37 36  2  0  0  0  0
 38 35  1  0  0  0  0
M  END
>  <minimizedAffinity>
-5.97389174

$$$$

 OpenBabel03252500263D

 38 40  0  0  1  0  0  0  0  0999 V2000
   38.3540   28.9720   41.7190 C   0  0  2  0  0  0  0  0  0  0  0  0
   36.9350   28.6000   41.9120 C   0  0  2  0  0  0  0  0  0  0  0  0
   37.0000   27.4840   42.8900 C   0  0  0  0  0  0  0  0  0  0  0  0
   38.1160   27.6830   43.6790 O   0  0  0  0  0  0  0  0  0  0  0  0
   38.8560   28.6920   43.1510 C   0  0  0  0  0  0  0  0  0  0  0  0
   39.0570   28.4710   41.1300 H   0  0  0  0  0  0  0  0  0  0  0  0
   36.4310   29.5170   42.2930 H   0  0  0  0  0  0  0  0  0  0  0  0
   36.1400   27.6660   43.6040 H   0  0  0  0  0  0  0  0  0  0  0  0
   36.8180   26.4780   42.5310 H   0  0  0  0  0  0  0  0  0  0  0  0
   38.6520   29.6670   43.6830 H   0  0  0  0  0  0  0  0  0  0  0  0
   39.9340   28.5470   43.2020 H   0  0  0  0  0  0  0  0  0  0  0  0
   36.2770   28.2590   40.7510 O   0  0  0  0  0  0  0  0  0  0  0  0
   34.0900   29.2220   39.8040 O   0  0  0  0  0  0  0  0  0  0  0  0
   35.5120   29.5990   40.1250 P   0  0  1  0  0  0  0  0  0  0  0  0
   35.4960   30.8330   41.2840 O   0  0  0  0  0  0  0  0  0  0  0  0
   36.1560   31.5390   41.0910 H   0  0  0  0  0  0  0  0  0  0  0  0
   36.2490   30.1470   38.6800 O   0  0  0  0  0  0  0  0  0  0  0  0
   37.3980   28.6510   35.6520 C   0  0  0  0  0  0  0  0  0  0  0  0
   38.3240   27.6620   36.0770 C   0  0  0  0  0  0  0  0  0  0  0  0
   38.5270   27.5460   37.4640 C   0  0  0  0  0  0  0  0  0  0  0  0
   37.8330   28.3700   38.2850 N   0  0  0  0  0  0  0  0  0  0  0  0
   36.9640   29.2940   37.8350 C   0  0  0  0  0  0  0  0  0  0  0  0
   36.7540   29.4260   36.5210 N   0  0  0  0  0  0  0  0  0  0  0  0
   38.8410   27.0400   35.3880 H   0  0  0  0  0  0  0  0  0  0  0  0
   39.2180   26.8120   37.8520 H   0  0  0  0  0  0  0  0  0  0  0  0
   37.1970   28.7700   34.2910 O   0  0  0  0  0  0  0  0  0  0  0  0
   38.0050   29.1010   33.7520 H   0  0  0  0  0  0  0  0  0  0  0  0
   38.5080   30.3050   41.3690 O   0  0  0  0  0  0  0  0  0  0  0  0
   41.9090   30.8650   38.4320 H   0  0  0  0  0  0  0  0  0  0  0  0
   41.0360   31.2580   38.8450 N   0  0  0  0  0  0  0  0  0  0  0  0
   40.4480   30.4930   39.7760 C   0  0  0  0  0  3  0  0  0  0  0  0
   39.2870   30.8750   40.4160 C   0  0  0  0  0  0  0  0  0  0  0  0
   38.7600   32.1140   40.0330 C   0  0  0  0  0  0  0  0  0  0  0  0
   37.6990   32.6620   40.4900 O   0  0  0  0  0  0  0  0  0  0  0  0
   39.3690   32.8820   39.0830 N   0  0  0  0  0  0  0  0  0  0  0  0
   40.5000   32.4430   38.5020 C   0  0  0  0  0  0  0  0  0  0  0  0
   41.1080   33.1060   37.6200 O   0  0  0  0  0  0  0  0  0  0  0  0
   39.0010   33.8090   38.7740 H   0  0  0  0  0  0  0  0  0  0  0  0
  1  6  1  6  0  0  0
  1  2  1  0  0  0  0
  1  5  1  0  0  0  0
  2  7  1  1  0  0  0
  2  3  1  0  0  0  0
  3  8  1  0  0  0  0
  3  4  1  0  0  0  0
  5 11  1  0  0  0  0
  5  4  1  0  0  0  0
  5 10  1  0  0  0  0
  9  3  1  0  0  0  0
 12  2  1  0  0  0  0
 14 13  2  6  0  0  0
 14 12  1  0  0  0  0
 14 15  1  0  0  0  0
 16 15  1  0  0  0  0
 17 14  1  0  0  0  0
 18 19  2  0  0  0  0
 18 23  1  0  0  0  0
 19 20  1  0  0  0  0
 20 25  1  0  0  0  0
 20 21  2  0  0  0  0
 22 21  1  0  0  0  0
 22 17  1  0  0  0  0
 23 22  2  0  0  0  0
 24 19  1  0  0  0  0
 26 18  1  0  0  0  0
 27 26  1  0  0  0  0
 28  1  1  0  0  0  0
 29 30  1  0  0  0  0
 30 31  1  0  0  0  0
 31 32  2  0  0  0  0
 32 28  1  0  0  0  0
 33 32  1  0  0  0  0
 33 34  2  0  0  0  0
 35 33  1  0  0  0  0
 36 30  1  0  0  0  0
 36 35  1  0  0  0  0
 37 36  2  0  0  0  0
 38 35  1  0  0  0  0
M  END
>  <minimizedAffinity>
-5.84597731

$$$$

 OpenBabel03252500263D

 38 40  0  0  1  0  0  0  0  0999 V2000
   40.3210   28.0780   41.3520 C   0  0  2  0  0  0  0  0  0  0  0  0
   39.4340   27.9310   42.5260 C   0  0  2  0  0  0  0  0  0  0  0  0
   40.3240   27.3480   43.5630 C   0  0  0  0  0  0  0  0  0  0  0  0
   41.6080   27.7880   43.3060 O   0  0  0  0  0  0  0  0  0  0  0  0
   41.6290   28.4110   42.1000 C   0  0  0  0  0  0  0  0  0  0  0  0
   40.6210   27.3210   40.6970 H   0  0  0  0  0  0  0  0  0  0  0  0
   39.0670   28.9560   42.7590 H   0  0  0  0  0  0  0  0  0  0  0  0
   40.0510   27.8830   44.5220 H   0  0  0  0  0  0  0  0  0  0  0  0
   40.1980   26.3010   43.8160 H   0  0  0  0  0  0  0  0  0  0  0  0
   41.5700   29.5320   42.2210 H   0  0  0  0  0  0  0  0  0  0  0  0
   42.5190   28.2240   41.5010 H   0  0  0  0  0  0  0  0  0  0  0  0
   38.3090   27.1690   42.2930 O   0  0  0  0  0  0  0  0  0  0  0  0
   36.1390   27.1810   43.6700 O   0  0  0  0  0  0  0  0  0  0  0  0
   36.9500   28.0270   42.7250 P   0  0  1  0  0  0  0  0  0  0  0  0
   37.4090   29.4460   43.5290 O   0  0  0  0  0  0  0  0  0  0  0  0
   37.3210   30.2450   42.9590 H   0  0  0  0  0  0  0  0  0  0  0  0
   35.9650   28.3990   41.3740 O   0  0  0  0  0  0  0  0  0  0  0  0
   36.7540   31.6150   40.0480 C   0  0  0  0  0  0  0  0  0  0  0  0
   37.0080   31.3760   38.6720 C   0  0  0  0  0  0  0  0  0  0  0  0
   36.8920   30.0440   38.2330 C   0  0  0  0  0  0  0  0  0  0  0  0
   36.5490   29.0980   39.1400 N   0  0  0  0  0  0  0  0  0  0  0  0
   36.3170   29.3740   40.4370 C   0  0  0  0  0  0  0  0  0  0  0  0
   36.4220   30.6310   40.8800 N   0  0  0  0  0  0  0  0  0  0  0  0
   37.2740   32.1580   38.0020 H   0  0  0  0  0  0  0  0  0  0  0  0
   37.0720   29.7960   37.1970 H   0  0  0  0  0  0  0  0  0  0  0  0
   36.8680   32.9200   40.4830 O   0  0  0  0  0  0  0  0  0  0  0  0
   37.8140   33.3160   40.4490 H   0  0  0  0  0  0  0  0  0  0  0  0
   39.9260   29.1120   40.5170 O   0  0  0  0  0  0  0  0  0  0  0  0
   39.7850   33.1890   42.4840 H   0  0  0  0  0  0  0  0  0  0  0  0
   39.9940   32.6390   41.6230 N   0  0  0  0  0  0  0  0  0  0  0  0
   39.8040   31.3160   41.7260 C   0  0  0  0  0  3  0  0  0  0  0  0
   40.0360   30.4550   40.6740 C   0  0  0  0  0  0  0  0  0  0  0  0
   40.4830   31.0490   39.4880 C   0  0  0  0  0  0  0  0  0  0  0  0
   40.7590   30.4480   38.3940 O   0  0  0  0  0  0  0  0  0  0  0  0
   40.6720   32.3980   39.3970 N   0  0  0  0  0  0  0  0  0  0  0  0
   40.4250   33.1750   40.4660 C   0  0  0  0  0  0  0  0  0  0  0  0
   40.5800   34.4250   40.4440 O   0  0  0  0  0  0  0  0  0  0  0  0
   41.0040   32.8720   38.5280 H   0  0  0  0  0  0  0  0  0  0  0  0
  1  6  1  6  0  0  0
  1  5  1  0  0  0  0
  1  2  1  0  0  0  0
  2  7  1  1  0  0  0
  2  3  1  0  0  0  0
  3  9  1  0  0  0  0
  3  8  1  0  0  0  0
  4  3  1  0  0  0  0
  5 10  1  0  0  0  0
  5  4  1  0  0  0  0
 11  5  1  0  0  0  0
 12  2  1  0  0  0  0
 12 14  1  0  0  0  0
 14 15  1  0  0  0  0
 14 13  2  1  0  0  0
 16 15  1  0  0  0  0
 17 14  1  0  0  0  0
 18 26  1  0  0  0  0
 18 23  1  0  0  0  0
 19 18  2  0  0  0  0
 20 19  1  0  0  0  0
 20 21  2  0  0  0  0
 21 22  1  0  0  0  0
 22 23  2  0  0  0  0
 22 17  1  0  0  0  0
 24 19  1  0  0  0  0
 25 20  1  0  0  0  0
 27 26  1  0  0  0  0
 28 32  1  0  0  0  0
 28  1  1  0  0  0  0
 30 31  1  0  0  0  0
 30 29  1  0  0  0  0
 32 31  2  0  0  0  0
 33 32  1  0  0  0  0
 34 33  2  0  0  0  0
 35 33  1  0  0  0  0
 35 36  1  0  0  0  0
 36 30  1  0  0  0  0
 37 36  2  0  0  0  0
 38 35  1  0  0  0  0
M  END
>  <minimizedAffinity>
-5.80156231

$$$$

 OpenBabel03252500263D

 38 40  0  0  1  0  0  0  0  0999 V2000
   36.2280   30.6910   40.8470 C   0  0  2  0  0  0  0  0  0  0  0  0
   37.2440   29.7020   41.2670 C   0  0  2  0  0  0  0  0  0  0  0  0
   36.4780   28.4320   41.3520 C   0  0  0  0  0  0  0  0  0  0  0  0
   35.4450   28.5060   40.4370 O   0  0  0  0  0  0  0  0  0  0  0  0
   35.3770   29.7710   39.9490 C   0  0  0  0  0  0  0  0  0  0  0  0
   35.5080   31.1440   41.4550 H   0  0  0  0  0  0  0  0  0  0  0  0
   38.0260   29.7150   40.4730 H   0  0  0  0  0  0  0  0  0  0  0  0
   37.1610   27.6440   40.9110 H   0  0  0  0  0  0  0  0  0  0  0  0
   36.2440   28.0400   42.3340 H   0  0  0  0  0  0  0  0  0  0  0  0
   35.8940   29.8490   38.9480 H   0  0  0  0  0  0  0  0  0  0  0  0
   34.3670   30.1490   39.7900 H   0  0  0  0  0  0  0  0  0  0  0  0
   37.8910   30.0180   42.4420 O   0  0  0  0  0  0  0  0  0  0  0  0
   39.7960   29.4200   40.8230 O   0  0  0  0  0  0  0  0  0  0  0  0
   39.5380   29.9100   42.2240 P   0  0  1  0  0  0  0  0  0  0  0  0
   40.2320   31.4450   42.3960 O   0  0  0  0  0  0  0  0  0  0  0  0
   40.6950   31.5530   43.2600 H   0  0  0  0  0  0  0  0  0  0  0  0
   40.2610   28.8020   43.3100 O   0  0  0  0  0  0  0  0  0  0  0  0
   41.3430   25.4140   43.0370 C   0  0  0  0  0  0  0  0  0  0  0  0
   40.1530   24.6830   42.7840 C   0  0  0  0  0  0  0  0  0  0  0  0
   38.9610   25.4270   42.7150 C   0  0  0  0  0  0  0  0  0  0  0  0
   39.0320   26.7690   42.8900 N   0  0  0  0  0  0  0  0  0  0  0  0
   40.1870   27.4180   43.1280 C   0  0  0  0  0  0  0  0  0  0  0  0
   41.3330   26.7340   43.1990 N   0  0  0  0  0  0  0  0  0  0  0  0
   40.1550   23.6280   42.6540 H   0  0  0  0  0  0  0  0  0  0  0  0
   38.0210   24.9300   42.5250 H   0  0  0  0  0  0  0  0  0  0  0  0
   42.5150   24.6870   43.1070 O   0  0  0  0  0  0  0  0  0  0  0  0
   42.5850   24.0360   43.8980 H   0  0  0  0  0  0  0  0  0  0  0  0
   36.7790   31.7450   40.1340 O   0  0  0  0  0  0  0  0  0  0  0  0
   39.1880   30.6930   36.4460 H   0  0  0  0  0  0  0  0  0  0  0  0
   39.1210   31.2680   37.3130 N   0  0  0  0  0  0  0  0  0  0  0  0
   38.0180   31.0710   38.0490 C   0  0  0  0  0  3  0  0  0  0  0  0
   37.7850   31.7550   39.2240 C   0  0  0  0  0  0  0  0  0  0  0  0
   38.7740   32.6700   39.6020 C   0  0  0  0  0  0  0  0  0  0  0  0
   38.7670   33.4090   40.6460 O   0  0  0  0  0  0  0  0  0  0  0  0
   39.8930   32.8610   38.8430 N   0  0  0  0  0  0  0  0  0  0  0  0
   40.0510   32.1570   37.7080 C   0  0  0  0  0  0  0  0  0  0  0  0
   41.0610   32.2880   36.9660 O   0  0  0  0  0  0  0  0  0  0  0  0
   40.6480   33.5360   39.0970 H   0  0  0  0  0  0  0  0  0  0  0  0
  1  2  1  0  0  0  0
  1  6  1  1  0  0  0
  2  7  1  6  0  0  0
  2  3  1  0  0  0  0
  2 12  1  0  0  0  0
  3  9  1  0  0  0  0
  4  3  1  0  0  0  0
  5  4  1  0  0  0  0
  5  1  1  0  0  0  0
  8  3  1  0  0  0  0
 10  5  1  0  0  0  0
 11  5  1  0  0  0  0
 14 13  2  6  0  0  0
 14 15  1  0  0  0  0
 14 12  1  0  0  0  0
 14 17  1  0  0  0  0
 15 16  1  0  0  0  0
 18 26  1  0  0  0  0
 18 23  1  0  0  0  0
 19 18  2  0  0  0  0
 20 19  1  0  0  0  0
 20 21  2  0  0  0  0
 21 22  1  0  0  0  0
 22 23  2  0  0  0  0
 22 17  1  0  0  0  0
 24 19  1  0  0  0  0
 25 20  1  0  0  0  0
 26 27  1  0  0  0  0
 28  1  1  0  0  0  0
 29 30  1  0  0  0  0
 30 36  1  0  0  0  0
 30 31  1  0  0  0  0
 31 32  2  0  0  0  0
 32 33  1  0  0  0  0
 32 28  1  0  0  0  0
 33 34  2  0  0  0  0
 35 38  1  0  0  0  0
 35 33  1  0  0  0  0
 36 35  1  0  0  0  0
 37 36  2  0  0  0  0
M  END
>  <minimizedAffinity>
-5.77312565

$$$$

 OpenBabel03252500263D

 38 40  0  0  1  0  0  0  0  0999 V2000
   36.9580   28.1360   39.0110 C   0  0  2  0  0  0  0  0  0  0  0  0
   37.5700   27.8550   40.3280 C   0  0  2  0  0  0  0  0  0  0  0  0
   38.6430   26.8780   40.0090 C   0  0  0  0  0  0  0  0  0  0  0  0
   39.0720   27.1340   38.7210 O   0  0  0  0  0  0  0  0  0  0  0  0
   38.2300   28.0300   38.1450 C   0  0  0  0  0  0  0  0  0  0  0  0
   36.2810   27.5300   38.4940 H   0  0  0  0  0  0  0  0  0  0  0  0
   37.9380   28.8350   40.7060 H   0  0  0  0  0  0  0  0  0  0  0  0
   39.5260   27.1920   40.6460 H   0  0  0  0  0  0  0  0  0  0  0  0
   38.4910   25.8420   40.2870 H   0  0  0  0  0  0  0  0  0  0  0  0
   38.6550   29.0750   38.1930 H   0  0  0  0  0  0  0  0  0  0  0  0
   38.0130   27.8460   37.0930 H   0  0  0  0  0  0  0  0  0  0  0  0
   36.6850   27.3900   41.2750 O   0  0  0  0  0  0  0  0  0  0  0  0
   36.2010   27.4110   43.8000 O   0  0  0  0  0  0  0  0  0  0  0  0
   37.2970   27.6640   42.7990 P   0  0  1  0  0  0  0  0  0  0  0  0
   38.5650   26.5830   43.1010 O   0  0  0  0  0  0  0  0  0  0  0  0
   39.4490   27.0140   43.0360 H   0  0  0  0  0  0  0  0  0  0  0  0
   37.8290   29.2800   42.9990 O   0  0  0  0  0  0  0  0  0  0  0  0
   40.4930   31.4000   41.9360 C   0  0  0  0  0  0  0  0  0  0  0  0
   41.6520   30.5860   42.0340 C   0  0  0  0  0  0  0  0  0  0  0  0
   41.4580   29.2680   42.4880 C   0  0  0  0  0  0  0  0  0  0  0  0
   40.1980   28.8740   42.7930 N   0  0  0  0  0  0  0  0  0  0  0  0
   39.1290   29.6840   42.6840 C   0  0  0  0  0  0  0  0  0  0  0  0
   39.2850   30.9410   42.2560 N   0  0  0  0  0  0  0  0  0  0  0  0
   42.6190   30.9470   41.7800 H   0  0  0  0  0  0  0  0  0  0  0  0
   42.3000   28.5970   42.5840 H   0  0  0  0  0  0  0  0  0  0  0  0
   40.6790   32.6940   41.4920 O   0  0  0  0  0  0  0  0  0  0  0  0
   41.2190   33.3020   42.1170 H   0  0  0  0  0  0  0  0  0  0  0  0
   36.3950   29.4020   38.9490 O   0  0  0  0  0  0  0  0  0  0  0  0
   38.9350   33.0070   37.9200 H   0  0  0  0  0  0  0  0  0  0  0  0
   38.2800   32.5630   38.5990 N   0  0  0  0  0  0  0  0  0  0  0  0
   37.8440   31.3410   38.2610 C   0  0  0  0  0  3  0  0  0  0  0  0
   36.9740   30.6240   39.0550 C   0  0  0  0  0  0  0  0  0  0  0  0
   36.5740   31.2510   40.2400 C   0  0  0  0  0  0  0  0  0  0  0  0
   35.7770   30.7760   41.1200 O   0  0  0  0  0  0  0  0  0  0  0  0
   37.0250   32.4960   40.5730 N   0  0  0  0  0  0  0  0  0  0  0  0
   37.8730   33.1350   39.7470 C   0  0  0  0  0  0  0  0  0  0  0  0
   38.3240   34.2840   39.9980 O   0  0  0  0  0  0  0  0  0  0  0  0
   36.7450   32.9920   41.4480 H   0  0  0  0  0  0  0  0  0  0  0  0
  1  6  1  6  0  0  0
  1  2  1  0  0  0  0
  2  7  1  1  0  0  0
  2 12  1  0  0  0  0
  3  9  1  0  0  0  0
  3  2  1  0  0  0  0
  3  8  1  0  0  0  0
  4  3  1  0  0  0  0
  5 10  1  0  0  0  0
  5  4  1  0  0  0  0
  5  1  1  0  0  0  0
 11  5  1  0  0  0  0
 12 14  1  0  0  0  0
 14 17  1  0  0  0  0
 14 15  1  0  0  0  0
 14 13  2  1  0  0  0
 16 15  1  0  0  0  0
 18 19  2  0  0  0  0
 18 23  1  0  0  0  0
 19 20  1  0  0  0  0
 20 25  1  0  0  0  0
 20 21  2  0  0  0  0
 22 21  1  0  0  0  0
 22 17  1  0  0  0  0
 23 22  2  0  0  0  0
 24 19  1  0  0  0  0
 26 18  1  0  0  0  0
 26 27  1  0  0  0  0
 28  1  1  0  0  0  0
 28 32  1  0  0  0  0
 29 30  1  0  0  0  0
 30 36  1  0  0  0  0
 31 30  1  0  0  0  0
 31 32  2  0  0  0  0
 32 33  1  0  0  0  0
 33 35  1  0  0  0  0
 33 34  2  0  0  0  0
 35 38  1  0  0  0  0
 36 37  2  0  0  0  0
 36 35  1  0  0  0  0
M  END
>  <minimizedAffinity>
-5.62156963

$$$$

 OpenBabel03252500263D

 38 40  0  0  1  0  0  0  0  0999 V2000
   38.5560   32.2730   39.5100 C   0  0  2  0  0  0  0  0  0  0  0  0
   39.5970   32.6460   40.4920 C   0  0  2  0  0  0  0  0  0  0  0  0
   39.5910   34.1310   40.4570 C   0  0  0  0  0  0  0  0  0  0  0  0
   38.3120   34.5360   40.1260 O   0  0  0  0  0  0  0  0  0  0  0  0
   37.5880   33.4500   39.7520 C   0  0  0  0  0  0  0  0  0  0  0  0
   38.6520   32.2690   38.4690 H   0  0  0  0  0  0  0  0  0  0  0  0
   39.2700   32.2070   41.4620 H   0  0  0  0  0  0  0  0  0  0  0  0
   39.6950   34.4520   41.5380 H   0  0  0  0  0  0  0  0  0  0  0  0
   40.4150   34.6350   39.9660 H   0  0  0  0  0  0  0  0  0  0  0  0
   36.9470   33.0760   40.6040 H   0  0  0  0  0  0  0  0  0  0  0  0
   36.9060   33.6170   38.9190 H   0  0  0  0  0  0  0  0  0  0  0  0
   40.8390   32.1080   40.2320 O   0  0  0  0  0  0  0  0  0  0  0  0
   42.8000   31.3150   41.6920 O   0  0  0  0  0  0  0  0  0  0  0  0
   41.3150   31.1500   41.5080 P   0  0  1  0  0  0  0  0  0  0  0  0
   40.5350   31.6640   42.9210 O   0  0  0  0  0  0  0  0  0  0  0  0
   39.7990   31.0620   43.1840 H   0  0  0  0  0  0  0  0  0  0  0  0
   41.0010   29.4910   41.2230 O   0  0  0  0  0  0  0  0  0  0  0  0
   38.2350   28.6030   43.2930 C   0  0  0  0  0  0  0  0  0  0  0  0
   38.5450   27.2970   43.7530 C   0  0  0  0  0  0  0  0  0  0  0  0
   39.7590   26.7440   43.3060 C   0  0  0  0  0  0  0  0  0  0  0  0
   40.5370   27.4870   42.4830 N   0  0  0  0  0  0  0  0  0  0  0  0
   40.2000   28.7240   42.0730 C   0  0  0  0  0  0  0  0  0  0  0  0
   39.0510   29.2720   42.4830 N   0  0  0  0  0  0  0  0  0  0  0  0
   37.8960   26.7570   44.4010 H   0  0  0  0  0  0  0  0  0  0  0  0
   40.0530   25.7530   43.6210 H   0  0  0  0  0  0  0  0  0  0  0  0
   37.0440   29.1490   43.7280 O   0  0  0  0  0  0  0  0  0  0  0  0
   36.1940   28.6820   43.3910 H   0  0  0  0  0  0  0  0  0  0  0  0
   37.9670   31.0520   39.8010 O   0  0  0  0  0  0  0  0  0  0  0  0
   35.6600   29.0850   36.4370 H   0  0  0  0  0  0  0  0  0  0  0  0
   35.6980   29.3200   37.4520 N   0  0  0  0  0  0  0  0  0  0  0  0
   36.7870   29.9960   37.8450 C   0  0  0  0  0  3  0  0  0  0  0  0
   36.9830   30.3790   39.1550 C   0  0  0  0  0  0  0  0  0  0  0  0
   35.9700   30.0190   40.0530 C   0  0  0  0  0  0  0  0  0  0  0  0
   35.9420   30.2680   41.3060 O   0  0  0  0  0  0  0  0  0  0  0  0
   34.8660   29.3300   39.6390 N   0  0  0  0  0  0  0  0  0  0  0  0
   34.7450   28.9900   38.3430 C   0  0  0  0  0  0  0  0  0  0  0  0
   33.7510   28.3560   37.9000 O   0  0  0  0  0  0  0  0  0  0  0  0
   34.0940   29.0470   40.2820 H   0  0  0  0  0  0  0  0  0  0  0  0
  1  6  1  6  0  0  0
  1  5  1  0  0  0  0
  1 28  1  0  0  0  0
  1  2  1  0  0  0  0
  2  7  1  1  0  0  0
  3  2  1  0  0  0  0
  3  8  1  0  0  0  0
  4  3  1  0  0  0  0
  5  4  1  0  0  0  0
  5 10  1  0  0  0  0
  9  3  1  0  0  0  0
 11  5  1  0  0  0  0
 12  2  1  0  0  0  0
 12 14  1  0  0  0  0
 14 13  2  1  0  0  0
 14 15  1  0  0  0  0
 15 16  1  0  0  0  0
 17 14  1  0  0  0  0
 17 22  1  0  0  0  0
 18 26  1  0  0  0  0
 18 19  1  0  0  0  0
 19 24  1  0  0  0  0
 20 25  1  0  0  0  0
 20 19  2  0  0  0  0
 21 20  1  0  0  0  0
 22 21  2  0  0  0  0
 22 23  1  0  0  0  0
 23 18  2  0  0  0  0
 27 26  1  0  0  0  0
 29 30  1  0  0  0  0
 30 31  1  0  0  0  0
 30 36  1  0  0  0  0
 31 32  2  0  0  0  0
 32 28  1  0  0  0  0
 32 33  1  0  0  0  0
 33 34  2  0  0  0  0
 35 33  1  0  0  0  0
 35 38  1  0  0  0  0
 36 35  1  0  0  0  0
 37 36  2  0  0  0  0
M  END
>  <minimizedAffinity>
-5.52978992

$$$$

 OpenBabel03252500263D

 38 40  0  0  1  0  0  0  0  0999 V2000
   36.1590   29.3700   38.2680 C   0  0  2  0  0  0  0  0  0  0  0  0
   36.5100   28.3280   39.2570 C   0  0  2  0  0  0  0  0  0  0  0  0
   36.2980   27.0590   38.5140 C   0  0  0  0  0  0  0  0  0  0  0  0
   36.5340   27.3130   37.1760 O   0  0  0  0  0  0  0  0  0  0  0  0
   36.6650   28.6530   36.9990 C   0  0  0  0  0  0  0  0  0  0  0  0
   35.1970   29.6700   37.9900 H   0  0  0  0  0  0  0  0  0  0  0  0
   37.5690   28.5240   39.5410 H   0  0  0  0  0  0  0  0  0  0  0  0
   37.1660   26.3950   38.8100 H   0  0  0  0  0  0  0  0  0  0  0  0
   35.4290   26.4600   38.7600 H   0  0  0  0  0  0  0  0  0  0  0  0
   37.7530   28.9530   36.9580 H   0  0  0  0  0  0  0  0  0  0  0  0
   36.2170   29.0410   36.0850 H   0  0  0  0  0  0  0  0  0  0  0  0
   35.7850   28.3920   40.4270 O   0  0  0  0  0  0  0  0  0  0  0  0
   36.9650   30.0590   41.9880 O   0  0  0  0  0  0  0  0  0  0  0  0
   36.8180   28.5850   41.7180 P   0  0  1  0  0  0  0  0  0  0  0  0
   36.1520   27.8480   43.0890 O   0  0  0  0  0  0  0  0  0  0  0  0
   36.5880   26.9900   43.3030 H   0  0  0  0  0  0  0  0  0  0  0  0
   38.3770   27.9520   41.3970 O   0  0  0  0  0  0  0  0  0  0  0  0
   38.6540   24.4810   42.1720 C   0  0  0  0  0  0  0  0  0  0  0  0
   39.7000   24.4160   43.1290 C   0  0  0  0  0  0  0  0  0  0  0  0
   40.3020   25.6370   43.4870 C   0  0  0  0  0  0  0  0  0  0  0  0
   39.8450   26.7710   42.9040 N   0  0  0  0  0  0  0  0  0  0  0  0
   38.8480   26.7830   42.0010 C   0  0  0  0  0  0  0  0  0  0  0  0
   38.2600   25.6360   41.6420 N   0  0  0  0  0  0  0  0  0  0  0  0
   40.0190   23.4960   43.5560 H   0  0  0  0  0  0  0  0  0  0  0  0
   41.1040   25.6550   44.2100 H   0  0  0  0  0  0  0  0  0  0  0  0
   38.0610   23.2850   41.8170 O   0  0  0  0  0  0  0  0  0  0  0  0
   38.6650   22.6260   41.3130 H   0  0  0  0  0  0  0  0  0  0  0  0
   36.8330   30.5610   38.4920 O   0  0  0  0  0  0  0  0  0  0  0  0
   41.3030   30.7060   39.2050 H   0  0  0  0  0  0  0  0  0  0  0  0
   40.5010   31.0060   38.6100 N   0  0  0  0  0  0  0  0  0  0  0  0
   39.2980   30.5600   38.9990 C   0  0  0  0  0  3  0  0  0  0  0  0
   38.1420   30.8720   38.3160 C   0  0  0  0  0  0  0  0  0  0  0  0
   38.3010   31.6870   37.1890 C   0  0  0  0  0  0  0  0  0  0  0  0
   37.3730   32.0980   36.4110 O   0  0  0  0  0  0  0  0  0  0  0  0
   39.5320   32.1340   36.8040 N   0  0  0  0  0  0  0  0  0  0  0  0
   40.6160   31.7880   37.5200 C   0  0  0  0  0  0  0  0  0  0  0  0
   41.7780   32.1690   37.2160 O   0  0  0  0  0  0  0  0  0  0  0  0
   39.6840   32.7420   35.9690 H   0  0  0  0  0  0  0  0  0  0  0  0
  1  6  1  6  0  0  0
  1 28  1  0  0  0  0
  1  2  1  0  0  0  0
  2  7  1  1  0  0  0
  2 12  1  0  0  0  0
  3  9  1  0  0  0  0
  3  8  1  0  0  0  0
  3  2  1  0  0  0  0
  4  3  1  0  0  0  0
  5  4  1  0  0  0  0
  5  1  1  0  0  0  0
 10  5  1  0  0  0  0
 11  5  1  0  0  0  0
 12 14  1  0  0  0  0
 14 13  2  1  0  0  0
 14 15  1  0  0  0  0
 15 16  1  0  0  0  0
 17 14  1  0  0  0  0
 17 22  1  0  0  0  0
 18 19  1  0  0  0  0
 19 20  2  0  0  0  0
 19 24  1  0  0  0  0
 20 25  1  0  0  0  0
 21 20  1  0  0  0  0
 22 21  2  0  0  0  0
 23 22  1  0  0  0  0
 23 18  2  0  0  0  0
 26 18  1  0  0  0  0
 27 26  1  0  0  0  0
 30 31  1  0  0  0  0
 30 29  1  0  0  0  0
 32 28  1  0  0  0  0
 32 31  2  0  0  0  0
 33 32  1  0  0  0  0
 34 33  2  0  0  0  0
 35 33  1  0  0  0  0
 35 36  1  0  0  0  0
 36 30  1  0  0  0  0
 37 36  2  0  0  0  0
 38 35  1  0  0  0  0
M  END
>  <minimizedAffinity>
-5.52809286

$$$$

 OpenBabel03252500263D

 38 40  0  0  1  0  0  0  0  0999 V2000
   36.9320   27.9820   39.2230 C   0  0  2  0  0  0  0  0  0  0  0  0
   37.8890   27.8680   40.3440 C   0  0  2  0  0  0  0  0  0  0  0  0
   38.8730   26.8670   39.8600 C   0  0  0  0  0  0  0  0  0  0  0  0
   38.9260   26.9650   38.4830 O   0  0  0  0  0  0  0  0  0  0  0  0
   37.9240   27.7780   38.0600 C   0  0  0  0  0  0  0  0  0  0  0  0
   36.1640   27.3130   38.9860 H   0  0  0  0  0  0  0  0  0  0  0  0
   38.3060   28.8900   40.4910 H   0  0  0  0  0  0  0  0  0  0  0  0
   39.8820   27.2610   40.1890 H   0  0  0  0  0  0  0  0  0  0  0  0
   38.8430   25.8710   40.2870 H   0  0  0  0  0  0  0  0  0  0  0  0
   38.3040   28.8240   37.8670 H   0  0  0  0  0  0  0  0  0  0  0  0
   37.4380   27.4650   37.1360 H   0  0  0  0  0  0  0  0  0  0  0  0
   37.3130   27.5180   41.5460 O   0  0  0  0  0  0  0  0  0  0  0  0
   39.0720   29.2780   42.1890 O   0  0  0  0  0  0  0  0  0  0  0  0
   38.0550   28.3420   42.7870 P   0  0  1  0  0  0  0  0  0  0  0  0
   36.9040   29.2600   43.6240 O   0  0  0  0  0  0  0  0  0  0  0  0
   36.6600   28.8570   44.4900 H   0  0  0  0  0  0  0  0  0  0  0  0
   38.8760   27.2910   43.8610 O   0  0  0  0  0  0  0  0  0  0  0  0
   42.4180   26.9790   43.5750 C   0  0  0  0  0  0  0  0  0  0  0  0
   42.6120   25.7030   42.9850 C   0  0  0  0  0  0  0  0  0  0  0  0
   41.4530   24.9600   42.6950 C   0  0  0  0  0  0  0  0  0  0  0  0
   40.2500   25.5080   42.9920 N   0  0  0  0  0  0  0  0  0  0  0  0
   40.1160   26.7250   43.5520 C   0  0  0  0  0  0  0  0  0  0  0  0
   41.2020   27.4500   43.8390 N   0  0  0  0  0  0  0  0  0  0  0  0
   43.5820   25.3210   42.7730 H   0  0  0  0  0  0  0  0  0  0  0  0
   41.5330   23.9810   42.2450 H   0  0  0  0  0  0  0  0  0  0  0  0
   43.5530   27.7100   43.8630 O   0  0  0  0  0  0  0  0  0  0  0  0
   44.1600   27.3160   44.5910 H   0  0  0  0  0  0  0  0  0  0  0  0
   36.3230   29.2270   39.1700 O   0  0  0  0  0  0  0  0  0  0  0  0
   38.6990   32.8270   37.7890 H   0  0  0  0  0  0  0  0  0  0  0  0
   38.0910   32.4100   38.5270 N   0  0  0  0  0  0  0  0  0  0  0  0
   37.6770   31.1570   38.2880 C   0  0  0  0  0  3  0  0  0  0  0  0
   36.8690   30.4690   39.1690 C   0  0  0  0  0  0  0  0  0  0  0  0
   36.5080   31.1610   40.3310 C   0  0  0  0  0  0  0  0  0  0  0  0
   35.7700   30.7210   41.2790 O   0  0  0  0  0  0  0  0  0  0  0  0
   36.9370   32.4370   40.5610 N   0  0  0  0  0  0  0  0  0  0  0  0
   37.7230   33.0440   39.6550 C   0  0  0  0  0  0  0  0  0  0  0  0
   38.1510   34.2190   39.8100 O   0  0  0  0  0  0  0  0  0  0  0  0
   36.6850   32.9790   41.4160 H   0  0  0  0  0  0  0  0  0  0  0  0
  1  6  1  1  0  0  0
  1  2  1  0  0  0  0
  2  7  1  1  0  0  0
  2 12  1  0  0  0  0
  3  8  1  0  0  0  0
  3  9  1  0  0  0  0
  3  2  1  0  0  0  0
  4  3  1  0  0  0  0
  5  4  1  0  0  0  0
  5  1  1  0  0  0  0
 10  5  1  0  0  0  0
 11  5  1  0  0  0  0
 12 14  1  0  0  0  0
 14 13  2  6  0  0  0
 14 15  1  0  0  0  0
 14 17  1  0  0  0  0
 15 16  1  0  0  0  0
 18 23  1  0  0  0  0
 18 26  1  0  0  0  0
 19 18  2  0  0  0  0
 20 19  1  0  0  0  0
 20 21  2  0  0  0  0
 21 22  1  0  0  0  0
 22 23  2  0  0  0  0
 22 17  1  0  0  0  0
 24 19  1  0  0  0  0
 25 20  1  0  0  0  0
 26 27  1  0  0  0  0
 28  1  1  0  0  0  0
 29 30  1  0  0  0  0
 30 36  1  0  0  0  0
 31 30  1  0  0  0  0
 31 32  2  0  0  0  0
 32 28  1  0  0  0  0
 32 33  1  0  0  0  0
 33 35  1  0  0  0  0
 33 34  2  0  0  0  0
 35 38  1  0  0  0  0
 36 37  2  0  0  0  0
 36 35  1  0  0  0  0
M  END
>  <minimizedAffinity>
-5.50071383

$$$$

 OpenBabel03252500263D

 38 40  0  0  1  0  0  0  0  0999 V2000
   36.9230   28.0960   42.5060 C   0  0  2  0  0  0  0  0  0  0  0  0
   38.3590   28.4170   42.3630 C   0  0  2  0  0  0  0  0  0  0  0  0
   39.0370   27.2920   43.0570 C   0  0  0  0  0  0  0  0  0  0  0  0
   38.2260   26.1790   42.9400 O   0  0  0  0  0  0  0  0  0  0  0  0
   37.0270   26.5590   42.4260 C   0  0  0  0  0  0  0  0  0  0  0  0
   36.3320   28.2390   43.3570 H   0  0  0  0  0  0  0  0  0  0  0  0
   38.5510   28.4640   41.2670 H   0  0  0  0  0  0  0  0  0  0  0  0
   39.9270   27.0360   42.4050 H   0  0  0  0  0  0  0  0  0  0  0  0
   39.4830   27.4820   44.0260 H   0  0  0  0  0  0  0  0  0  0  0  0
   36.9810   26.3610   41.3150 H   0  0  0  0  0  0  0  0  0  0  0  0
   36.1630   26.0520   42.8530 H   0  0  0  0  0  0  0  0  0  0  0  0
   38.7160   29.6500   42.8640 O   0  0  0  0  0  0  0  0  0  0  0  0
   41.2160   30.2330   42.7310 O   0  0  0  0  0  0  0  0  0  0  0  0
   39.9370   30.3000   41.9390 P   0  0  1  0  0  0  0  0  0  0  0  0
   40.1270   29.3820   40.5280 O   0  0  0  0  0  0  0  0  0  0  0  0
   39.7480   29.8290   39.7360 H   0  0  0  0  0  0  0  0  0  0  0  0
   39.6470   31.9420   41.5480 O   0  0  0  0  0  0  0  0  0  0  0  0
   40.4680   32.7540   38.1730 C   0  0  0  0  0  0  0  0  0  0  0  0
   41.4550   33.7690   38.2850 C   0  0  0  0  0  0  0  0  0  0  0  0
   41.8160   34.1530   39.5890 C   0  0  0  0  0  0  0  0  0  0  0  0
   41.2080   33.5370   40.6310 N   0  0  0  0  0  0  0  0  0  0  0  0
   40.2760   32.5780   40.4750 C   0  0  0  0  0  0  0  0  0  0  0  0
   39.9140   32.1950   39.2460 N   0  0  0  0  0  0  0  0  0  0  0  0
   41.9000   34.2200   37.4310 H   0  0  0  0  0  0  0  0  0  0  0  0
   42.5620   34.9200   39.7420 H   0  0  0  0  0  0  0  0  0  0  0  0
   40.1090   32.3750   36.8950 O   0  0  0  0  0  0  0  0  0  0  0  0
   39.6290   33.0920   36.3390 H   0  0  0  0  0  0  0  0  0  0  0  0
   36.1580   28.6160   41.4720 O   0  0  0  0  0  0  0  0  0  0  0  0
   37.4970   28.4600   37.1490 H   0  0  0  0  0  0  0  0  0  0  0  0
   37.2300   29.0560   37.9620 N   0  0  0  0  0  0  0  0  0  0  0  0
   36.9030   28.3910   39.0790 C   0  0  0  0  0  3  0  0  0  0  0  0
   36.5280   29.0380   40.2380 C   0  0  0  0  0  0  0  0  0  0  0  0
   36.5110   30.4360   40.1760 C   0  0  0  0  0  0  0  0  0  0  0  0
   36.1960   31.2350   41.1240 O   0  0  0  0  0  0  0  0  0  0  0  0
   36.8460   31.1010   39.0310 N   0  0  0  0  0  0  0  0  0  0  0  0
   37.2010   30.4010   37.9390 C   0  0  0  0  0  0  0  0  0  0  0  0
   37.5210   30.9570   36.8550 O   0  0  0  0  0  0  0  0  0  0  0  0
   36.8430   32.1420   38.9530 H   0  0  0  0  0  0  0  0  0  0  0  0
  1  6  1  1  0  0  0
  2  7  1  6  0  0  0
  2  1  1  0  0  0  0
  2 12  1  0  0  0  0
  2  3  1  0  0  0  0
  3  9  1  0  0  0  0
  4  3  1  0  0  0  0
  5  1  1  0  0  0  0
  5 11  1  0  0  0  0
  5  4  1  0  0  0  0
  8  3  1  0  0  0  0
 10  5  1  0  0  0  0
 14 13  2  1  0  0  0
 14 12  1  0  0  0  0
 15 14  1  0  0  0  0
 16 15  1  0  0  0  0
 17 14  1  0  0  0  0
 18 19  2  0  0  0  0
 18 23  1  0  0  0  0
 19 20  1  0  0  0  0
 20 25  1  0  0  0  0
 20 21  2  0  0  0  0
 22 21  1  0  0  0  0
 22 17  1  0  0  0  0
 23 22  2  0  0  0  0
 24 19  1  0  0  0  0
 26 18  1  0  0  0  0
 27 26  1  0  0  0  0
 28  1  1  0  0  0  0
 29 30  1  0  0  0  0
 30 31  1  0  0  0  0
 31 32  2  0  0  0  0
 32 28  1  0  0  0  0
 33 32  1  0  0  0  0
 33 34  2  0  0  0  0
 35 33  1  0  0  0  0
 36 30  1  0  0  0  0
 36 35  1  0  0  0  0
 37 36  2  0  0  0  0
 38 35  1  0  0  0  0
M  END
>  <minimizedAffinity>
-5.44346237

$$$$
