
 OpenBabel03252509313D

 28 29  0  0  0  0  0  0  0  0999 V2000
   47.4830   32.0790   40.6670 O   0  0  0  0  0  0  0  0  0  0  0  0
   48.3230   33.3150   40.5850 P   0  0  2  0  0  0  0  0  0  0  0  0
   49.9740   32.9870   40.5500 O   0  0  0  0  0  0  0  0  0  0  0  0
   50.3400   32.7960   41.4500 H   0  0  0  0  0  0  0  0  0  0  0  0
   48.0320   34.3000   41.9300 O   0  0  0  0  0  0  0  0  0  0  0  0
   46.7550   34.8350   41.7840 C   0  0  0  0  0  0  0  0  0  0  0  0
   46.1210   34.1880   41.1110 H   0  0  0  0  0  0  0  0  0  0  0  0
   46.7480   35.8490   41.3330 H   0  0  0  0  0  0  0  0  0  0  0  0
   45.6030   34.0250   45.2420 C   0  0  0  0  0  0  0  0  0  0  0  0
   46.2830   33.9190   44.0100 C   0  0  0  0  0  0  0  0  0  0  0  0
   46.0610   34.9150   43.0800 C   0  0  0  0  0  0  0  0  0  0  0  0
   45.2060   35.9430   43.3930 N   0  0  0  0  0  0  0  0  0  0  0  0
   44.5730   36.0110   44.5830 C   0  0  0  0  0  0  0  0  0  0  0  0
   44.7740   35.0560   45.4980 N   0  0  0  0  0  0  0  0  0  0  0  0
   45.7530   33.2710   45.9830 H   0  0  0  0  0  0  0  0  0  0  0  0
   46.9520   33.1100   43.7730 H   0  0  0  0  0  0  0  0  0  0  0  0
   43.9230   36.8650   44.7180 H   0  0  0  0  0  0  0  0  0  0  0  0
   47.8690   34.1880   39.2070 O   0  0  0  0  0  0  0  0  0  0  0  0
   49.9250   33.1010   35.4620 H   0  0  0  0  0  0  0  0  0  0  0  0
   49.0010   33.1210   35.9670 N   0  0  0  0  0  0  0  0  0  0  0  0
   49.0620   33.6250   37.2070 C   0  0  0  0  0  0  0  0  0  0  0  0
   47.8710   33.6820   37.9340 C   0  0  0  0  0  0  0  0  0  0  0  0
   46.7070   33.2190   37.3340 C   0  0  0  0  0  0  0  0  0  0  0  0
   45.6170   33.2560   37.9620 O   0  0  0  0  0  0  0  0  0  0  0  0
   46.7670   32.7310   36.0770 N   0  0  0  0  0  0  0  0  0  0  0  0
   47.9200   32.6660   35.3510 C   0  0  0  0  0  0  0  0  0  0  0  0
   47.9060   32.2010   34.1840 O   0  0  0  0  0  0  0  0  0  0  0  0
   45.8460   32.3910   35.6700 H   0  0  0  0  0  0  0  0  0  0  0  0
  2  1  2  1  0  0  0
  2  5  1  0  0  0  0
  3  2  1  0  0  0  0
  3  4  1  0  0  0  0
  6  5  1  0  0  0  0
  6 11  1  0  0  0  0
  7  6  1  0  0  0  0
  8  6  1  0  0  0  0
  9 14  1  0  0  0  0
  9 15  1  0  0  0  0
 10  9  2  0  0  0  0
 11 12  2  0  0  0  0
 11 10  1  0  0  0  0
 12 13  1  0  0  0  0
 13 17  1  0  0  0  0
 13 14  2  0  0  0  0
 16 10  1  0  0  0  0
 18  2  1  0  0  0  0
 19 20  1  0  0  0  0
 20 21  1  0  0  0  0
 21 22  2  0  0  0  0
 22 18  1  0  0  0  0
 23 22  1  0  0  0  0
 23 24  2  0  0  0  0
 25 23  1  0  0  0  0
 26 20  1  0  0  0  0
 26 25  1  0  0  0  0
 27 26  2  0  0  0  0
 28 25  1  0  0  0  0
M  END
>  <minimizedAffinity>
-4.93461561

>  <minimizedRMSD>
2.27660036

$$$$
