
 OpenBabel03252504313D

 34 35  0  0  0  0  0  0  0  0999 V2000
   39.7080   31.0730   40.2200 C   0  0  0  0  0  0  0  0  0  0  0  0
   38.9180   31.2510   39.4500 H   0  0  0  0  0  0  0  0  0  0  0  0
   40.5120   30.4980   39.7210 H   0  0  0  0  0  0  0  0  0  0  0  0
   37.9040   30.1170   41.7390 C   0  0  0  0  0  3  0  0  0  0  0  0
   39.1730   30.1540   41.3080 C   0  0  0  0  0  3  0  0  0  0  0  0
   37.6190   29.2020   42.7450 O   0  0  0  0  0  0  0  0  0  0  0  0
   37.1350   27.9230   42.6020 C   0  0  0  0  0  0  0  0  0  0  0  0
   36.2620   27.8160   43.3180 H   0  0  0  0  0  0  0  0  0  0  0  0
   36.7440   27.7530   41.5970 H   0  0  0  0  0  0  0  0  0  0  0  0
   37.8180   25.6420   42.2960 C   0  0  0  0  0  0  0  0  0  0  0  0
   38.1320   26.8690   42.9110 C   0  0  0  0  0  0  0  0  0  0  0  0
   39.2610   26.9250   43.6730 C   0  0  0  0  0  0  0  0  0  0  0  0
   39.9870   25.8160   43.7790 N   0  0  0  0  0  0  0  0  0  0  0  0
   39.7030   24.6520   43.2050 C   0  0  0  0  0  0  0  0  0  0  0  0
   38.5670   24.5050   42.4090 N   0  0  0  0  0  0  0  0  0  0  0  0
   36.9510   25.4620   41.6660 H   0  0  0  0  0  0  0  0  0  0  0  0
   39.4320   27.8900   44.1080 H   0  0  0  0  0  0  0  0  0  0  0  0
   40.3610   23.8060   43.3550 H   0  0  0  0  0  0  0  0  0  0  0  0
   40.1590   32.2130   40.8450 O   0  0  0  0  0  0  0  0  0  0  0  0
   38.1650   33.2690   39.4400 O   0  0  0  0  0  0  0  0  0  0  0  0
   39.3470   33.5970   40.2990 P   0  0  1  0  0  0  0  0  0  0  0  0
   38.8080   34.4990   41.6270 O   0  0  0  0  0  0  0  0  0  0  0  0
   39.5760   34.8160   42.1610 H   0  0  0  0  0  0  0  0  0  0  0  0
   40.4510   34.5700   39.4490 O   0  0  0  0  0  0  0  0  0  0  0  0
   42.8780   32.9900   36.1340 H   0  0  0  0  0  0  0  0  0  0  0  0
   42.8570   33.3200   37.1250 N   0  0  0  0  0  0  0  0  0  0  0  0
   41.7140   33.7510   37.7320 C   0  0  0  0  0  3  0  0  0  0  0  0
   41.7200   34.1860   39.0610 C   0  0  0  0  0  0  0  0  0  0  0  0
   42.9200   34.1690   39.7540 C   0  0  0  0  0  0  0  0  0  0  0  0
   42.7850   34.5830   40.9310 O   0  0  0  0  0  0  0  0  0  0  0  0
   44.0200   33.7370   39.1160 N   0  0  0  0  0  0  0  0  0  0  0  0
   43.9920   33.3280   37.8540 C   0  0  0  0  0  0  0  0  0  0  0  0
   45.0860   32.9390   37.3420 O   0  0  0  0  0  0  0  0  0  0  0  0
   44.8740   33.7560   39.7020 H   0  0  0  0  0  0  0  0  0  0  0  0
  1 19  1  0  0  0  0
  1  5  1  0  0  0  0
  2  1  1  0  0  0  0
  3  1  1  0  0  0  0
  4  6  1  0  0  0  0
  5  4  2  0  0  0  0
  7  6  1  0  0  0  0
  7 11  1  0  0  0  0
  7  8  1  0  0  0  0
  9  7  1  0  0  0  0
 10 15  2  0  0  0  0
 10 11  1  0  0  0  0
 11 12  2  0  0  0  0
 12 13  1  0  0  0  0
 12 17  1  0  0  0  0
 14 18  1  0  0  0  0
 14 13  2  0  0  0  0
 15 14  1  0  0  0  0
 16 10  1  0  0  0  0
 21 20  2  6  0  0  0
 21 19  1  0  0  0  0
 21 22  1  0  0  0  0
 22 23  1  0  0  0  0
 24 21  1  0  0  0  0
 25 26  1  0  0  0  0
 26 27  1  0  0  0  0
 26 32  1  0  0  0  0
 27 28  2  0  0  0  0
 28 24  1  0  0  0  0
 28 29  1  0  0  0  0
 29 30  2  0  0  0  0
 31 34  1  0  0  0  0
 31 29  1  0  0  0  0
 32 31  1  0  0  0  0
 33 32  2  0  0  0  0
M  END
>  <minimizedAffinity>
-5.26557207

$$$$

 OpenBabel03252504313D

 34 35  0  0  0  0  0  0  0  0999 V2000
   36.0290   29.8910   40.7660 C   0  0  0  0  0  0  0  0  0  0  0  0
   34.9240   29.7770   40.6400 H   0  0  0  0  0  0  0  0  0  0  0  0
   36.4930   29.5320   39.8260 H   0  0  0  0  0  0  0  0  0  0  0  0
   36.8670   27.6610   41.6590 C   0  0  0  0  0  3  0  0  0  0  0  0
   36.5280   28.9450   41.8470 C   0  0  0  0  0  3  0  0  0  0  0  0
   37.3010   26.9660   42.7810 O   0  0  0  0  0  0  0  0  0  0  0  0
   38.2330   27.3680   43.7080 C   0  0  0  0  0  0  0  0  0  0  0  0
   38.2220   28.5030   43.7180 H   0  0  0  0  0  0  0  0  0  0  0  0
   37.9650   27.0390   44.7130 H   0  0  0  0  0  0  0  0  0  0  0  0
   39.6910   25.5140   43.2630 C   0  0  0  0  0  0  0  0  0  0  0  0
   39.6120   26.9120   43.4070 C   0  0  0  0  0  0  0  0  0  0  0  0
   40.7600   27.6300   43.2530 C   0  0  0  0  0  0  0  0  0  0  0  0
   41.8740   26.9590   42.9770 N   0  0  0  0  0  0  0  0  0  0  0  0
   41.9640   25.6410   42.8390 C   0  0  0  0  0  0  0  0  0  0  0  0
   40.8390   24.8290   42.9800 N   0  0  0  0  0  0  0  0  0  0  0  0
   38.8540   24.8270   43.3610 H   0  0  0  0  0  0  0  0  0  0  0  0
   40.6200   28.6860   43.3770 H   0  0  0  0  0  0  0  0  0  0  0  0
   42.9210   25.1900   42.6140 H   0  0  0  0  0  0  0  0  0  0  0  0
   36.4320   31.1570   41.1240 O   0  0  0  0  0  0  0  0  0  0  0  0
   36.8100   31.4210   38.5060 O   0  0  0  0  0  0  0  0  0  0  0  0
   37.2030   31.9610   39.8460 P   0  0  1  0  0  0  0  0  0  0  0  0
   36.8110   33.6080   39.8940 O   0  0  0  0  0  0  0  0  0  0  0  0
   37.1470   34.0170   40.7270 H   0  0  0  0  0  0  0  0  0  0  0  0
   38.8830   31.8410   40.0690 O   0  0  0  0  0  0  0  0  0  0  0  0
   41.8260   31.8260   36.7960 H   0  0  0  0  0  0  0  0  0  0  0  0
   41.3800   32.3680   37.5700 N   0  0  0  0  0  0  0  0  0  0  0  0
   40.4110   31.8390   38.3720 C   0  0  0  0  0  3  0  0  0  0  0  0
   39.8330   32.5890   39.4000 C   0  0  0  0  0  0  0  0  0  0  0  0
   40.2670   33.8920   39.5880 C   0  0  0  0  0  0  0  0  0  0  0  0
   39.6680   34.4500   40.5400 O   0  0  0  0  0  0  0  0  0  0  0  0
   41.2220   34.3710   38.7750 N   0  0  0  0  0  0  0  0  0  0  0  0
   41.7590   33.6400   37.8050 C   0  0  0  0  0  0  0  0  0  0  0  0
   42.6540   34.1860   37.0910 O   0  0  0  0  0  0  0  0  0  0  0  0
   41.4900   35.3500   38.9810 H   0  0  0  0  0  0  0  0  0  0  0  0
  1 19  1  0  0  0  0
  1  5  1  0  0  0  0
  2  1  1  0  0  0  0
  3  1  1  0  0  0  0
  4  5  2  0  0  0  0
  4  6  1  0  0  0  0
  6  7  1  0  0  0  0
  7  8  1  0  0  0  0
  7  9  1  0  0  0  0
 10 16  1  0  0  0  0
 10 11  1  0  0  0  0
 11  7  1  0  0  0  0
 12 17  1  0  0  0  0
 12 11  2  0  0  0  0
 13 12  1  0  0  0  0
 14 13  2  0  0  0  0
 14 15  1  0  0  0  0
 15 10  2  0  0  0  0
 18 14  1  0  0  0  0
 21 20  2  6  0  0  0
 21 22  1  0  0  0  0
 21 24  1  0  0  0  0
 21 19  1  0  0  0  0
 22 23  1  0  0  0  0
 25 26  1  0  0  0  0
 26 32  1  0  0  0  0
 26 27  1  0  0  0  0
 27 28  2  0  0  0  0
 28 29  1  0  0  0  0
 28 24  1  0  0  0  0
 29 30  2  0  0  0  0
 31 34  1  0  0  0  0
 31 29  1  0  0  0  0
 32 31  1  0  0  0  0
 33 32  2  0  0  0  0
M  END
>  <minimizedAffinity>
-5.23750353

$$$$

 OpenBabel03252504313D

 34 35  0  0  0  0  0  0  0  0999 V2000
   37.6290   31.6830   39.6690 C   0  0  0  0  0  0  0  0  0  0  0  0
   38.1030   32.6350   40.0120 H   0  0  0  0  0  0  0  0  0  0  0  0
   36.5390   31.8720   39.6200 H   0  0  0  0  0  0  0  0  0  0  0  0
   36.8360   30.1550   41.5430 C   0  0  0  0  0  3  0  0  0  0  0  0
   37.8020   30.6060   40.7310 C   0  0  0  0  0  3  0  0  0  0  0  0
   37.2000   29.1640   42.4460 O   0  0  0  0  0  0  0  0  0  0  0  0
   38.4630   28.8670   42.9010 C   0  0  0  0  0  0  0  0  0  0  0  0
   39.1950   29.3870   42.2070 H   0  0  0  0  0  0  0  0  0  0  0  0
   38.6330   29.2690   43.9010 H   0  0  0  0  0  0  0  0  0  0  0  0
   39.9190   27.1190   43.6650 C   0  0  0  0  0  0  0  0  0  0  0  0
   38.7690   27.4160   42.9090 C   0  0  0  0  0  0  0  0  0  0  0  0
   38.1150   26.3770   42.3160 C   0  0  0  0  0  0  0  0  0  0  0  0
   38.6110   25.1560   42.4930 N   0  0  0  0  0  0  0  0  0  0  0  0
   39.6950   24.8610   43.2020 C   0  0  0  0  0  0  0  0  0  0  0  0
   40.4240   25.8620   43.8430 N   0  0  0  0  0  0  0  0  0  0  0  0
   40.5310   27.8500   44.1870 H   0  0  0  0  0  0  0  0  0  0  0  0
   37.2510   26.6830   41.7590 H   0  0  0  0  0  0  0  0  0  0  0  0
   40.0160   23.8320   43.2850 H   0  0  0  0  0  0  0  0  0  0  0  0
   38.1490   31.1780   38.4990 O   0  0  0  0  0  0  0  0  0  0  0  0
   40.7730   30.7620   38.4100 O   0  0  0  0  0  0  0  0  0  0  0  0
   39.7010   31.7830   38.1840 P   0  0  1  0  0  0  0  0  0  0  0  0
   39.7900   32.3030   36.5740 O   0  0  0  0  0  0  0  0  0  0  0  0
   39.1610   33.0480   36.4200 H   0  0  0  0  0  0  0  0  0  0  0  0
   39.9580   33.1460   39.1650 O   0  0  0  0  0  0  0  0  0  0  0  0
   42.6010   33.5980   42.6560 H   0  0  0  0  0  0  0  0  0  0  0  0
   42.4720   33.7470   41.6290 N   0  0  0  0  0  0  0  0  0  0  0  0
   41.3330   33.3820   40.9720 C   0  0  0  0  0  3  0  0  0  0  0  0
   41.1900   33.5970   39.5980 C   0  0  0  0  0  0  0  0  0  0  0  0
   42.2370   34.1920   38.9130 C   0  0  0  0  0  0  0  0  0  0  0  0
   41.9800   34.3250   37.6910 O   0  0  0  0  0  0  0  0  0  0  0  0
   43.3380   34.5340   39.6000 N   0  0  0  0  0  0  0  0  0  0  0  0
   43.4530   34.3230   40.9050 C   0  0  0  0  0  0  0  0  0  0  0  0
   44.5350   34.6820   41.4620 O   0  0  0  0  0  0  0  0  0  0  0  0
   44.0730   34.9720   39.0160 H   0  0  0  0  0  0  0  0  0  0  0  0
  1  2  1  0  0  0  0
  1  5  1  0  0  0  0
  3  1  1  0  0  0  0
  4  6  1  0  0  0  0
  5  4  2  0  0  0  0
  6  7  1  0  0  0  0
  7 11  1  0  0  0  0
  7  9  1  0  0  0  0
  8  7  1  0  0  0  0
 10 15  1  0  0  0  0
 10 16  1  0  0  0  0
 11 10  2  0  0  0  0
 12 13  2  0  0  0  0
 12 11  1  0  0  0  0
 13 14  1  0  0  0  0
 14 18  1  0  0  0  0
 14 15  2  0  0  0  0
 17 12  1  0  0  0  0
 19  1  1  0  0  0  0
 21 20  2  1  0  0  0
 21 19  1  0  0  0  0
 21 24  1  0  0  0  0
 22 21  1  0  0  0  0
 23 22  1  0  0  0  0
 24 28  1  0  0  0  0
 26 25  1  0  0  0  0
 27 26  1  0  0  0  0
 28 27  2  0  0  0  0
 29 28  1  0  0  0  0
 29 31  1  0  0  0  0
 30 29  2  0  0  0  0
 31 32  1  0  0  0  0
 32 33  2  0  0  0  0
 32 26  1  0  0  0  0
 34 31  1  0  0  0  0
M  END
>  <minimizedAffinity>
-5.22116947

$$$$

 OpenBabel03252504313D

 34 35  0  0  0  0  0  0  0  0999 V2000
   37.0500   31.4690   40.3630 C   0  0  0  0  0  0  0  0  0  0  0  0
   36.1920   32.1760   40.2540 H   0  0  0  0  0  0  0  0  0  0  0  0
   37.2250   31.0270   39.3620 H   0  0  0  0  0  0  0  0  0  0  0  0
   36.6430   29.0120   40.8840 C   0  0  0  0  0  3  0  0  0  0  0  0
   36.6490   30.3010   41.2520 C   0  0  0  0  0  3  0  0  0  0  0  0
   36.2430   28.0950   41.8490 O   0  0  0  0  0  0  0  0  0  0  0  0
   36.8730   27.7970   43.0340 C   0  0  0  0  0  0  0  0  0  0  0  0
   37.4320   28.7310   43.3560 H   0  0  0  0  0  0  0  0  0  0  0  0
   36.1530   27.5700   43.8230 H   0  0  0  0  0  0  0  0  0  0  0  0
   39.0000   26.9060   43.6980 C   0  0  0  0  0  0  0  0  0  0  0  0
   37.8410   26.6790   42.9320 C   0  0  0  0  0  0  0  0  0  0  0  0
   37.7620   25.5110   42.2340 C   0  0  0  0  0  0  0  0  0  0  0  0
   38.7870   24.6680   42.3250 N   0  0  0  0  0  0  0  0  0  0  0  0
   39.8870   24.8700   43.0430 C   0  0  0  0  0  0  0  0  0  0  0  0
   40.0510   26.0370   43.7890 N   0  0  0  0  0  0  0  0  0  0  0  0
   39.1890   27.7920   44.2990 H   0  0  0  0  0  0  0  0  0  0  0  0
   36.8520   25.4100   41.6760 H   0  0  0  0  0  0  0  0  0  0  0  0
   40.6660   24.1190   43.0510 H   0  0  0  0  0  0  0  0  0  0  0  0
   38.1800   32.0260   40.9180 O   0  0  0  0  0  0  0  0  0  0  0  0
   37.3250   34.1220   39.5260 O   0  0  0  0  0  0  0  0  0  0  0  0
   38.4720   33.5870   40.3260 P   0  0  1  0  0  0  0  0  0  0  0  0
   38.7590   34.6400   41.6200 O   0  0  0  0  0  0  0  0  0  0  0  0
   39.5710   34.3680   42.1100 H   0  0  0  0  0  0  0  0  0  0  0  0
   39.8880   33.5510   39.3880 O   0  0  0  0  0  0  0  0  0  0  0  0
   40.1760   30.6740   36.0680 H   0  0  0  0  0  0  0  0  0  0  0  0
   40.5160   30.9560   37.0150 N   0  0  0  0  0  0  0  0  0  0  0  0
   40.0420   32.0560   37.6680 C   0  0  0  0  0  3  0  0  0  0  0  0
   40.5180   32.4070   38.9350 C   0  0  0  0  0  0  0  0  0  0  0  0
   41.4890   31.6080   39.5180 C   0  0  0  0  0  0  0  0  0  0  0  0
   41.8260   32.0340   40.6490 O   0  0  0  0  0  0  0  0  0  0  0  0
   41.9260   30.5360   38.8380 N   0  0  0  0  0  0  0  0  0  0  0  0
   41.4600   30.2210   37.6360 C   0  0  0  0  0  0  0  0  0  0  0  0
   41.9400   29.1870   37.0770 O   0  0  0  0  0  0  0  0  0  0  0  0
   42.6510   29.9930   39.3410 H   0  0  0  0  0  0  0  0  0  0  0  0
  1 19  1  0  0  0  0
  1  5  1  0  0  0  0
  2  1  1  0  0  0  0
  3  1  1  0  0  0  0
  4  5  2  0  0  0  0
  4  6  1  0  0  0  0
  6  7  1  0  0  0  0
  7  8  1  0  0  0  0
  7  9  1  0  0  0  0
 10 15  1  0  0  0  0
 10 16  1  0  0  0  0
 11  7  1  0  0  0  0
 11 10  2  0  0  0  0
 12 13  2  0  0  0  0
 12 11  1  0  0  0  0
 13 14  1  0  0  0  0
 14 18  1  0  0  0  0
 14 15  2  0  0  0  0
 17 12  1  0  0  0  0
 21 20  2  6  0  0  0
 21 19  1  0  0  0  0
 21 22  1  0  0  0  0
 22 23  1  0  0  0  0
 24 21  1  0  0  0  0
 25 26  1  0  0  0  0
 26 32  1  0  0  0  0
 26 27  1  0  0  0  0
 27 28  2  0  0  0  0
 28 24  1  0  0  0  0
 28 29  1  0  0  0  0
 29 30  2  0  0  0  0
 31 34  1  0  0  0  0
 31 29  1  0  0  0  0
 32 31  1  0  0  0  0
 33 32  2  0  0  0  0
M  END
>  <minimizedAffinity>
-5.19887114

$$$$

 OpenBabel03252504313D

 34 35  0  0  0  0  0  0  0  0999 V2000
   37.8920   33.1250   39.7830 C   0  0  0  0  0  0  0  0  0  0  0  0
   37.2180   33.8680   39.2900 H   0  0  0  0  0  0  0  0  0  0  0  0
   38.4090   32.5790   38.9700 H   0  0  0  0  0  0  0  0  0  0  0  0
   36.5470   30.9710   39.9460 C   0  0  0  0  0  3  0  0  0  0  0  0
   37.0630   32.0740   40.5070 C   0  0  0  0  0  3  0  0  0  0  0  0
   35.8190   30.1350   40.7830 O   0  0  0  0  0  0  0  0  0  0  0  0
   35.7080   28.7670   40.7120 C   0  0  0  0  0  0  0  0  0  0  0  0
   34.6620   28.5000   41.0600 H   0  0  0  0  0  0  0  0  0  0  0  0
   35.8000   28.4120   39.6840 H   0  0  0  0  0  0  0  0  0  0  0  0
   37.1860   28.8460   42.6010 C   0  0  0  0  0  0  0  0  0  0  0  0
   36.6870   28.0430   41.5580 C   0  0  0  0  0  0  0  0  0  0  0  0
   37.1460   26.7620   41.4710 C   0  0  0  0  0  0  0  0  0  0  0  0
   38.0320   26.3620   42.3780 N   0  0  0  0  0  0  0  0  0  0  0  0
   38.5110   27.1080   43.3660 C   0  0  0  0  0  0  0  0  0  0  0  0
   38.0970   28.4300   43.5310 N   0  0  0  0  0  0  0  0  0  0  0  0
   36.9050   29.8800   42.7840 H   0  0  0  0  0  0  0  0  0  0  0  0
   36.7210   26.2150   40.6520 H   0  0  0  0  0  0  0  0  0  0  0  0
   39.2320   26.6870   44.0540 H   0  0  0  0  0  0  0  0  0  0  0  0
   38.7530   33.6660   40.7110 O   0  0  0  0  0  0  0  0  0  0  0  0
   41.1450   34.8170   40.5860 O   0  0  0  0  0  0  0  0  0  0  0  0
   40.3650   33.6020   40.1910 P   0  0  1  0  0  0  0  0  0  0  0  0
   41.1220   32.2420   40.8590 O   0  0  0  0  0  0  0  0  0  0  0  0
   40.6890   31.4150   40.5360 H   0  0  0  0  0  0  0  0  0  0  0  0
   40.3800   33.4040   38.5040 O   0  0  0  0  0  0  0  0  0  0  0  0
   41.3850   29.5830   36.5620 H   0  0  0  0  0  0  0  0  0  0  0  0
   41.6900   30.5550   36.7930 N   0  0  0  0  0  0  0  0  0  0  0  0
   40.9060   31.4240   37.4940 C   0  0  0  0  0  3  0  0  0  0  0  0
   41.3440   32.7190   37.7890 C   0  0  0  0  0  0  0  0  0  0  0  0
   42.6010   33.1040   37.3500 C   0  0  0  0  0  0  0  0  0  0  0  0
   42.8680   34.2850   37.6800 O   0  0  0  0  0  0  0  0  0  0  0  0
   43.3380   32.2160   36.6640 N   0  0  0  0  0  0  0  0  0  0  0  0
   42.9030   30.9910   36.3950 C   0  0  0  0  0  0  0  0  0  0  0  0
   43.6760   30.2280   35.7400 O   0  0  0  0  0  0  0  0  0  0  0  0
   44.2620   32.5810   36.3720 H   0  0  0  0  0  0  0  0  0  0  0  0
  1  5  1  0  0  0  0
  1 19  1  0  0  0  0
  2  1  1  0  0  0  0
  3  1  1  0  0  0  0
  4  5  2  0  0  0  0
  4  6  1  0  0  0  0
  7  6  1  0  0  0  0
  7  8  1  0  0  0  0
  7 11  1  0  0  0  0
  9  7  1  0  0  0  0
 10 16  1  0  0  0  0
 10 15  1  0  0  0  0
 11 10  2  0  0  0  0
 12 11  1  0  0  0  0
 12 13  2  0  0  0  0
 13 14  1  0  0  0  0
 14 15  2  0  0  0  0
 14 18  1  0  0  0  0
 17 12  1  0  0  0  0
 21 20  2  1  0  0  0
 21 19  1  0  0  0  0
 21 22  1  0  0  0  0
 23 22  1  0  0  0  0
 24 21  1  0  0  0  0
 25 26  1  0  0  0  0
 26 27  1  0  0  0  0
 27 28  2  0  0  0  0
 28 24  1  0  0  0  0
 29 30  2  0  0  0  0
 29 28  1  0  0  0  0
 31 29  1  0  0  0  0
 32 31  1  0  0  0  0
 32 26  1  0  0  0  0
 33 32  2  0  0  0  0
 34 31  1  0  0  0  0
M  END
>  <minimizedAffinity>
-5.16292858

$$$$

 OpenBabel03252504313D

 34 35  0  0  0  0  0  0  0  0999 V2000
   36.9420   30.7910   38.7820 C   0  0  0  0  0  0  0  0  0  0  0  0
   37.0790   31.8520   39.1060 H   0  0  0  0  0  0  0  0  0  0  0  0
   35.9950   30.7550   38.2090 H   0  0  0  0  0  0  0  0  0  0  0  0
   37.1780   30.1400   41.2310 C   0  0  0  0  0  3  0  0  0  0  0  0
   36.7090   29.9050   39.9970 C   0  0  0  0  0  3  0  0  0  0  0  0
   36.8510   29.2060   42.2050 O   0  0  0  0  0  0  0  0  0  0  0  0
   36.7390   27.8440   42.0570 C   0  0  0  0  0  0  0  0  0  0  0  0
   35.7820   27.5310   42.5780 H   0  0  0  0  0  0  0  0  0  0  0  0
   36.6360   27.5630   41.0070 H   0  0  0  0  0  0  0  0  0  0  0  0
   37.8810   25.7390   42.2270 C   0  0  0  0  0  0  0  0  0  0  0  0
   37.8680   27.0830   42.6460 C   0  0  0  0  0  0  0  0  0  0  0  0
   38.8530   27.4910   43.4960 C   0  0  0  0  0  0  0  0  0  0  0  0
   39.7560   26.5900   43.8690 N   0  0  0  0  0  0  0  0  0  0  0  0
   39.7810   25.3190   43.4820 C   0  0  0  0  0  0  0  0  0  0  0  0
   38.8120   24.8170   42.6140 N   0  0  0  0  0  0  0  0  0  0  0  0
   37.1570   25.2870   41.5540 H   0  0  0  0  0  0  0  0  0  0  0  0
   38.7760   28.5250   43.7690 H   0  0  0  0  0  0  0  0  0  0  0  0
   40.5620   24.6640   43.8440 H   0  0  0  0  0  0  0  0  0  0  0  0
   38.0140   30.2620   38.1000 O   0  0  0  0  0  0  0  0  0  0  0  0
   40.6260   30.7090   37.9020 O   0  0  0  0  0  0  0  0  0  0  0  0
   39.2860   31.3740   37.9590 P   0  0  1  0  0  0  0  0  0  0  0  0
   39.0830   32.2900   36.5490 O   0  0  0  0  0  0  0  0  0  0  0  0
   38.2520   32.8190   36.6000 H   0  0  0  0  0  0  0  0  0  0  0  0
   39.2080   32.4510   39.2700 O   0  0  0  0  0  0  0  0  0  0  0  0
   42.1710   35.7030   39.4180 H   0  0  0  0  0  0  0  0  0  0  0  0
   41.8170   34.8200   39.8510 N   0  0  0  0  0  0  0  0  0  0  0  0
   40.7470   34.1360   39.3520 C   0  0  0  0  0  3  0  0  0  0  0  0
   40.2980   32.9570   39.9540 C   0  0  0  0  0  0  0  0  0  0  0  0
   40.9660   32.4950   41.0760 C   0  0  0  0  0  0  0  0  0  0  0  0
   40.4610   31.4320   41.5150 O   0  0  0  0  0  0  0  0  0  0  0  0
   42.0130   33.2000   41.5320 N   0  0  0  0  0  0  0  0  0  0  0  0
   42.4240   34.3170   40.9450 C   0  0  0  0  0  0  0  0  0  0  0  0
   43.4230   34.9110   41.4540 O   0  0  0  0  0  0  0  0  0  0  0  0
   42.4560   32.7890   42.3730 H   0  0  0  0  0  0  0  0  0  0  0  0
  1  2  1  0  0  0  0
  1  5  1  0  0  0  0
  3  1  1  0  0  0  0
  4  6  1  0  0  0  0
  5  4  2  0  0  0  0
  7  6  1  0  0  0  0
  7  8  1  0  0  0  0
  7 11  1  0  0  0  0
  9  7  1  0  0  0  0
 10 15  2  0  0  0  0
 10 11  1  0  0  0  0
 11 12  2  0  0  0  0
 12 17  1  0  0  0  0
 12 13  1  0  0  0  0
 14 18  1  0  0  0  0
 14 13  2  0  0  0  0
 15 14  1  0  0  0  0
 16 10  1  0  0  0  0
 19  1  1  0  0  0  0
 21 20  2  6  0  0  0
 21 19  1  0  0  0  0
 21 24  1  0  0  0  0
 22 23  1  0  0  0  0
 22 21  1  0  0  0  0
 24 28  1  0  0  0  0
 25 26  1  0  0  0  0
 26 32  1  0  0  0  0
 27 26  1  0  0  0  0
 27 28  2  0  0  0  0
 28 29  1  0  0  0  0
 29 30  2  0  0  0  0
 29 31  1  0  0  0  0
 31 34  1  0  0  0  0
 32 33  2  0  0  0  0
 32 31  1  0  0  0  0
M  END
>  <minimizedAffinity>
-5.12892962

$$$$

 OpenBabel03252504313D

 34 35  0  0  0  0  0  0  0  0999 V2000
   36.4940   28.5630   42.1440 C   0  0  0  0  0  0  0  0  0  0  0  0
   35.4580   28.6040   42.5620 H   0  0  0  0  0  0  0  0  0  0  0  0
   36.4290   28.0000   41.1930 H   0  0  0  0  0  0  0  0  0  0  0  0
   38.7250   27.7400   43.0480 C   0  0  0  0  0  3  0  0  0  0  0  0
   37.3840   27.7230   43.0480 C   0  0  0  0  0  3  0  0  0  0  0  0
   39.3530   26.8950   43.9550 O   0  0  0  0  0  0  0  0  0  0  0  0
   40.1160   25.7850   43.6760 C   0  0  0  0  0  0  0  0  0  0  0  0
   41.1880   26.1390   43.5640 H   0  0  0  0  0  0  0  0  0  0  0  0
   40.1020   25.0730   44.5030 H   0  0  0  0  0  0  0  0  0  0  0  0
   40.6090   25.3310   41.3720 C   0  0  0  0  0  0  0  0  0  0  0  0
   39.7180   25.0830   42.4320 C   0  0  0  0  0  0  0  0  0  0  0  0
   38.6560   24.2630   42.1880 C   0  0  0  0  0  0  0  0  0  0  0  0
   38.5390   23.7550   40.9650 N   0  0  0  0  0  0  0  0  0  0  0  0
   39.3710   23.9810   39.9550 C   0  0  0  0  0  0  0  0  0  0  0  0
   40.4840   24.8070   40.1160 N   0  0  0  0  0  0  0  0  0  0  0  0
   41.4910   25.9630   41.4310 H   0  0  0  0  0  0  0  0  0  0  0  0
   38.0230   24.1230   43.0430 H   0  0  0  0  0  0  0  0  0  0  0  0
   39.1860   23.5190   38.9950 H   0  0  0  0  0  0  0  0  0  0  0  0
   37.1020   29.7910   42.0110 O   0  0  0  0  0  0  0  0  0  0  0  0
   35.3670   30.1750   40.0340 O   0  0  0  0  0  0  0  0  0  0  0  0
   36.7400   30.5180   40.5230 P   0  0  1  0  0  0  0  0  0  0  0  0
   36.8480   32.2010   40.6750 O   0  0  0  0  0  0  0  0  0  0  0  0
   37.7710   32.4670   40.9010 H   0  0  0  0  0  0  0  0  0  0  0  0
   37.9140   30.0420   39.3910 O   0  0  0  0  0  0  0  0  0  0  0  0
   41.8360   32.0370   39.5040 H   0  0  0  0  0  0  0  0  0  0  0  0
   40.9450   31.8850   38.9790 N   0  0  0  0  0  0  0  0  0  0  0  0
   39.9480   31.0790   39.4450 C   0  0  0  0  0  3  0  0  0  0  0  0
   38.7670   30.8960   38.7180 C   0  0  0  0  0  0  0  0  0  0  0  0
   38.6310   31.5540   37.5070 C   0  0  0  0  0  0  0  0  0  0  0  0
   37.5290   31.3030   36.9610 O   0  0  0  0  0  0  0  0  0  0  0  0
   39.6380   32.3360   37.0880 N   0  0  0  0  0  0  0  0  0  0  0  0
   40.7510   32.4970   37.7940 C   0  0  0  0  0  0  0  0  0  0  0  0
   41.6440   33.2580   37.3100 O   0  0  0  0  0  0  0  0  0  0  0  0
   39.4590   32.7920   36.1750 H   0  0  0  0  0  0  0  0  0  0  0  0
  1  2  1  0  0  0  0
  1  5  1  0  0  0  0
  3  1  1  0  0  0  0
  4  6  1  0  0  0  0
  5  4  2  0  0  0  0
  7  6  1  0  0  0  0
  7  9  1  0  0  0  0
  8  7  1  0  0  0  0
 10 16  1  0  0  0  0
 10 11  1  0  0  0  0
 11  7  1  0  0  0  0
 12 11  2  0  0  0  0
 12 17  1  0  0  0  0
 13 12  1  0  0  0  0
 14 15  1  0  0  0  0
 14 13  2  0  0  0  0
 15 10  2  0  0  0  0
 18 14  1  0  0  0  0
 19  1  1  0  0  0  0
 21 20  2  6  0  0  0
 21 22  1  0  0  0  0
 21 19  1  0  0  0  0
 22 23  1  0  0  0  0
 24 21  1  0  0  0  0
 26 27  1  0  0  0  0
 26 25  1  0  0  0  0
 28 24  1  0  0  0  0
 28 27  2  0  0  0  0
 29 28  1  0  0  0  0
 30 29  2  0  0  0  0
 31 29  1  0  0  0  0
 31 32  1  0  0  0  0
 32 26  1  0  0  0  0
 33 32  2  0  0  0  0
 34 31  1  0  0  0  0
M  END
>  <minimizedAffinity>
-5.0884409

$$$$

 OpenBabel03252504313D

 34 35  0  0  0  0  0  0  0  0999 V2000
   37.1860   28.6070   43.4800 C   0  0  0  0  0  0  0  0  0  0  0  0
   36.8520   29.0110   44.4670 H   0  0  0  0  0  0  0  0  0  0  0  0
   36.3010   28.1260   43.0190 H   0  0  0  0  0  0  0  0  0  0  0  0
   39.5100   27.5720   43.4930 C   0  0  0  0  0  3  0  0  0  0  0  0
   38.1880   27.4820   43.6930 C   0  0  0  0  0  3  0  0  0  0  0  0
   40.2540   26.4270   43.7470 O   0  0  0  0  0  0  0  0  0  0  0  0
   39.9890   25.1450   43.3270 C   0  0  0  0  0  0  0  0  0  0  0  0
   40.6880   24.4580   43.8990 H   0  0  0  0  0  0  0  0  0  0  0  0
   38.9710   24.8440   43.5800 H   0  0  0  0  0  0  0  0  0  0  0  0
   39.0950   24.3270   41.2560 C   0  0  0  0  0  0  0  0  0  0  0  0
   40.2030   24.9350   41.8750 C   0  0  0  0  0  0  0  0  0  0  0  0
   41.2770   25.2410   41.0930 C   0  0  0  0  0  0  0  0  0  0  0  0
   41.2010   24.9430   39.7990 N   0  0  0  0  0  0  0  0  0  0  0  0
   40.1620   24.3700   39.2010 C   0  0  0  0  0  0  0  0  0  0  0  0
   39.0220   24.0240   39.9250 N   0  0  0  0  0  0  0  0  0  0  0  0
   38.1790   24.0330   41.7610 H   0  0  0  0  0  0  0  0  0  0  0  0
   42.0800   25.6990   41.6360 H   0  0  0  0  0  0  0  0  0  0  0  0
   40.2000   24.1690   38.1390 H   0  0  0  0  0  0  0  0  0  0  0  0
   37.7920   29.5330   42.6620 O   0  0  0  0  0  0  0  0  0  0  0  0
   36.2020   28.5550   40.7700 O   0  0  0  0  0  0  0  0  0  0  0  0
   36.9130   29.7880   41.2350 P   0  0  1  0  0  0  0  0  0  0  0  0
   35.7610   31.0040   41.4880 O   0  0  0  0  0  0  0  0  0  0  0  0
   36.2070   31.8590   41.7000 H   0  0  0  0  0  0  0  0  0  0  0  0
   37.9790   30.3510   40.0380 O   0  0  0  0  0  0  0  0  0  0  0  0
   41.5970   32.6640   41.0070 H   0  0  0  0  0  0  0  0  0  0  0  0
   40.6270   32.6760   40.6170 N   0  0  0  0  0  0  0  0  0  0  0  0
   39.8540   31.5560   40.5390 C   0  0  0  0  0  3  0  0  0  0  0  0
   38.5590   31.6050   40.0110 C   0  0  0  0  0  0  0  0  0  0  0  0
   38.0760   32.8240   39.5660 C   0  0  0  0  0  0  0  0  0  0  0  0
   36.9070   32.7280   39.1190 O   0  0  0  0  0  0  0  0  0  0  0  0
   38.8730   33.9010   39.6630 N   0  0  0  0  0  0  0  0  0  0  0  0
   40.0980   33.8330   40.1680 C   0  0  0  0  0  0  0  0  0  0  0  0
   40.7710   34.9070   40.2140 O   0  0  0  0  0  0  0  0  0  0  0  0
   38.4380   34.7720   39.3090 H   0  0  0  0  0  0  0  0  0  0  0  0
  1  5  1  0  0  0  0
  1  2  1  0  0  0  0
  3  1  1  0  0  0  0
  4  5  2  0  0  0  0
  4  6  1  0  0  0  0
  7  9  1  0  0  0  0
  7  6  1  0  0  0  0
  7  8  1  0  0  0  0
 10 16  1  0  0  0  0
 10 11  1  0  0  0  0
 11  7  1  0  0  0  0
 12 17  1  0  0  0  0
 12 11  2  0  0  0  0
 13 12  1  0  0  0  0
 14 13  2  0  0  0  0
 14 15  1  0  0  0  0
 15 10  2  0  0  0  0
 18 14  1  0  0  0  0
 19  1  1  0  0  0  0
 21 20  2  6  0  0  0
 21 22  1  0  0  0  0
 21 19  1  0  0  0  0
 22 23  1  0  0  0  0
 24 21  1  0  0  0  0
 26 25  1  0  0  0  0
 27 26  1  0  0  0  0
 28 24  1  0  0  0  0
 28 27  2  0  0  0  0
 29 31  1  0  0  0  0
 29 28  1  0  0  0  0
 30 29  2  0  0  0  0
 31 32  1  0  0  0  0
 32 33  2  0  0  0  0
 32 26  1  0  0  0  0
 34 31  1  0  0  0  0
M  END
>  <minimizedAffinity>
-5.08806658

$$$$

 OpenBabel03252504313D

 34 35  0  0  0  0  0  0  0  0999 V2000
   36.6700   31.4230   39.5130 C   0  0  0  0  0  0  0  0  0  0  0  0
   35.7060   31.9470   39.7220 H   0  0  0  0  0  0  0  0  0  0  0  0
   36.4250   30.5550   38.8690 H   0  0  0  0  0  0  0  0  0  0  0  0
   36.7030   29.7770   41.4530 C   0  0  0  0  0  3  0  0  0  0  0  0
   37.2240   30.8240   40.7980 C   0  0  0  0  0  3  0  0  0  0  0  0
   37.3620   29.3830   42.6120 O   0  0  0  0  0  0  0  0  0  0  0  0
   37.5710   28.1010   43.0630 C   0  0  0  0  0  0  0  0  0  0  0  0
   37.0090   27.9990   44.0430 H   0  0  0  0  0  0  0  0  0  0  0  0
   37.1510   27.3630   42.3780 H   0  0  0  0  0  0  0  0  0  0  0  0
   39.8610   28.7650   42.7900 C   0  0  0  0  0  0  0  0  0  0  0  0
   38.9980   27.7760   43.3000 C   0  0  0  0  0  0  0  0  0  0  0  0
   39.5620   26.7020   43.9210 C   0  0  0  0  0  0  0  0  0  0  0  0
   40.8890   26.6640   44.0020 N   0  0  0  0  0  0  0  0  0  0  0  0
   41.7150   27.5880   43.5250 C   0  0  0  0  0  0  0  0  0  0  0  0
   41.2240   28.7200   42.8750 N   0  0  0  0  0  0  0  0  0  0  0  0
   39.5430   29.6670   42.2750 H   0  0  0  0  0  0  0  0  0  0  0  0
   38.8420   25.9940   44.2820 H   0  0  0  0  0  0  0  0  0  0  0  0
   42.7840   27.4630   43.6420 H   0  0  0  0  0  0  0  0  0  0  0  0
   37.6550   32.2290   38.9900 O   0  0  0  0  0  0  0  0  0  0  0  0
   38.1210   30.0380   37.5610 O   0  0  0  0  0  0  0  0  0  0  0  0
   38.6670   31.3840   37.9260 P   0  0  1  0  0  0  0  0  0  0  0  0
   38.8700   32.2810   36.5040 O   0  0  0  0  0  0  0  0  0  0  0  0
   39.3200   33.1370   36.7000 H   0  0  0  0  0  0  0  0  0  0  0  0
   40.1990   31.2330   38.6440 O   0  0  0  0  0  0  0  0  0  0  0  0
   41.4060   32.9670   42.5060 H   0  0  0  0  0  0  0  0  0  0  0  0
   41.4460   33.0360   41.4630 N   0  0  0  0  0  0  0  0  0  0  0  0
   40.8290   32.1360   40.6450 C   0  0  0  0  0  3  0  0  0  0  0  0
   40.9000   32.2560   39.2530 C   0  0  0  0  0  0  0  0  0  0  0  0
   41.6160   33.3150   38.7200 C   0  0  0  0  0  0  0  0  0  0  0  0
   41.6000   33.3040   37.4650 O   0  0  0  0  0  0  0  0  0  0  0  0
   42.2080   34.1760   39.5640 N   0  0  0  0  0  0  0  0  0  0  0  0
   42.1270   34.0450   40.8820 C   0  0  0  0  0  0  0  0  0  0  0  0
   42.7220   34.9110   41.5930 O   0  0  0  0  0  0  0  0  0  0  0  0
   42.7230   34.9380   39.0870 H   0  0  0  0  0  0  0  0  0  0  0  0
  1  2  1  0  0  0  0
  1  5  1  0  0  0  0
  3  1  1  0  0  0  0
  4  6  1  0  0  0  0
  5  4  2  0  0  0  0
  6  7  1  0  0  0  0
  7 11  1  0  0  0  0
  7  8  1  0  0  0  0
  9  7  1  0  0  0  0
 10 15  2  0  0  0  0
 10 11  1  0  0  0  0
 11 12  2  0  0  0  0
 12 13  1  0  0  0  0
 12 17  1  0  0  0  0
 14 18  1  0  0  0  0
 14 13  2  0  0  0  0
 15 14  1  0  0  0  0
 16 10  1  0  0  0  0
 19  1  1  0  0  0  0
 21 20  2  6  0  0  0
 21 24  1  0  0  0  0
 21 19  1  0  0  0  0
 22 23  1  0  0  0  0
 22 21  1  0  0  0  0
 24 28  1  0  0  0  0
 26 25  1  0  0  0  0
 27 26  1  0  0  0  0
 28 27  2  0  0  0  0
 29 28  1  0  0  0  0
 29 31  1  0  0  0  0
 30 29  2  0  0  0  0
 31 32  1  0  0  0  0
 32 26  1  0  0  0  0
 32 33  2  0  0  0  0
 34 31  1  0  0  0  0
M  END
>  <minimizedAffinity>
-5.05802107

$$$$
