REMARK  Name = 
REMARK  5 active torsions:
REMARK  status: ('A' for Active; 'I' for Inactive)
REMARK    1  A    between atoms: C_1  and  C_7
REMARK    2  A    between atoms: C_6  and  C_13
REMARK    3  A    between atoms: C_15  and  C_16
REMARK    4  A    between atoms: C_16  and  C_17
REMARK    5  A    between atoms: C_17  and  N_39
REMARK                            x       y       z     vdW  Elec       q    Type
REMARK                         _______ _______ _______ _____ _____    ______ ____
ROOT
ATOM      1  C   UNL     1      47.199  34.114  42.436  0.00  0.00    +0.000 C 
ATOM      2  C   UNL     1      48.572  34.697  42.588  0.00  0.00    +0.000 C 
ATOM      3  C   UNL     1      48.888  35.683  41.533  0.00  0.00    +0.000 C 
ATOM      4  C   UNL     1      48.717  35.134  40.135  0.00  0.00    +0.000 C 
ATOM      5  C   UNL     1      47.514  34.252  39.979  0.00  0.00    +0.000 C 
ATOM      6  C   UNL     1      46.541  34.364  41.130  0.00  0.00    +0.000 C 
ATOM      7  H   UNL     1      47.342  32.995  42.545  0.00  0.00    +0.000 HD
ATOM      8  H   UNL     1      49.370  33.929  42.608  0.00  0.00    +0.000 HD
ATOM      9  H   UNL     1      48.606  35.211  43.568  0.00  0.00    +0.000 HD
ATOM     10  H   UNL     1      49.963  35.966  41.620  0.00  0.00    +0.000 HD
ATOM     11  H   UNL     1      48.256  36.591  41.621  0.00  0.00    +0.000 HD
ATOM     12  H   UNL     1      48.739  35.980  39.438  0.00  0.00    +0.000 HD
ATOM     13  H   UNL     1      49.609  34.509  39.927  0.00  0.00    +0.000 HD
ATOM     14  H   UNL     1      47.785  33.188  39.820  0.00  0.00    +0.000 HD
ATOM     15  H   UNL     1      46.961  34.608  39.066  0.00  0.00    +0.000 HD
ATOM     16  H   UNL     1      46.044  35.336  40.999  0.00  0.00    +0.000 HD
ENDROOT
BRANCH   1  17
ATOM     17  C   UNL     1      46.296  34.481  43.546  0.00  0.00    +0.000 A 
ATOM     18  C   UNL     1      45.607  35.660  43.321  0.00  0.00    +0.000 A 
ATOM     19  C   UNL     1      44.705  36.134  44.289  0.00  0.00    +0.000 A 
ATOM     20  N   UNL     1      44.581  35.341  45.436  0.00  0.00    +0.000 NA
ATOM     21  C   UNL     1      45.278  34.199  45.606  0.00  0.00    +0.000 A 
ATOM     22  N   UNL     1      46.128  33.787  44.651  0.00  0.00    +0.000 NA
ATOM     23  H   UNL     1      45.568  36.400  42.535  0.00  0.00    +0.000 HD
ATOM     24  H   UNL     1      44.092  37.006  44.298  0.00  0.00    +0.000 HD
ATOM     25  H   UNL     1      45.103  33.670  46.527  0.00  0.00    +0.000 HD
ENDBRANCH   1  17
BRANCH   6  26
ATOM     26  C   UNL     1      45.478  33.318  40.937  0.00  0.00    +0.000 C 
ATOM     27  C   UNL     1      44.820  33.230  39.571  0.00  0.00    +0.000 C 
ATOM     28  C   UNL     1      44.057  33.712  40.734  0.00  0.00    +0.000 C 
ATOM     29  H   UNL     1      45.730  32.318  41.348  0.00  0.00    +0.000 HD
ATOM     30  H   UNL     1      45.053  33.945  38.782  0.00  0.00    +0.000 HD
ATOM     31  H   UNL     1      44.517  32.232  39.180  0.00  0.00    +0.000 HD
ATOM     32  H   UNL     1      43.877  34.806  40.845  0.00  0.00    +0.000 HD
BRANCH  28  33
ATOM     33  C   UNL     1      43.104  32.864  41.520  0.00  0.00    +0.000 C 
ATOM     34  H   UNL     1      43.318  31.801  41.286  0.00  0.00    +0.000 HD
ATOM     35  H   UNL     1      43.341  32.994  42.604  0.00  0.00    +0.000 HD
BRANCH  33  36
ATOM     36  C   UNL     1      41.661  33.103  41.208  0.00  0.00    +0.000 C 
ATOM     37  H   UNL     1      41.511  32.834  40.143  0.00  0.00    +0.000 HD
ATOM     38  H   UNL     1      41.076  32.361  41.789  0.00  0.00    +0.000 HD
BRANCH  36  39
ATOM     39  N   UNL     1      41.237  34.460  41.459  0.00  0.00    +0.000 N 
ATOM     40  C   UNL     1      42.089  35.486  41.646  0.00  0.00    +0.000 A 
ATOM     41  C   UNL     1      41.585  36.770  41.884  0.00  0.00    +0.000 A 
ATOM     42  H   UNL     1      42.230  37.622  42.039  0.00  0.00    +0.000 HD
ATOM     43  C   UNL     1      40.188  36.874  41.907  0.00  0.00    +0.000 A 
ATOM     44  O   UNL     1      39.777  38.064  42.128  0.00  0.00    +0.000 OA
ATOM     45  N   UNL     1      39.363  35.827  41.717  0.00  0.00    +0.000 N 
ATOM     46  C   UNL     1      39.899  34.613  41.492  0.00  0.00    +0.000 A 
ATOM     47  O   UNL     1      39.058  33.694  41.325  0.00  0.00    +0.000 OA
ATOM     48  H   UNL     1      38.356  36.109  41.772  0.00  0.00    +0.000 HD
ENDBRANCH  36  39
ENDBRANCH  33  36
ENDBRANCH  28  33
ENDBRANCH   6  26
TORSDOF 5
