
 OpenBabel03242512003D

 48 51  0  0  1  0  0  0  0  0999 V2000
   47.6980   34.1480   42.3550 C   0  0  2  0  0  0  0  0  0  0  0  0
   48.8980   35.0340   42.5120 C   0  0  0  0  0  0  0  0  0  0  0  0
   48.9870   36.0590   41.4500 C   0  0  0  0  0  0  0  0  0  0  0  0
   48.9600   35.4750   40.0560 C   0  0  0  0  0  0  0  0  0  0  0  0
   47.9950   34.3380   39.8990 C   0  0  0  0  0  0  0  0  0  0  0  0
   47.0120   34.2300   41.0420 C   0  0  1  0  0  0  0  0  0  0  0  0
   48.0950   33.0930   42.4750 H   0  0  0  0  0  0  0  0  0  0  0  0
   49.8520   34.4710   42.5440 H   0  0  0  0  0  0  0  0  0  0  0  0
   48.8030   35.5490   43.4870 H   0  0  0  0  0  0  0  0  0  0  0  0
   49.9670   36.5830   41.5420 H   0  0  0  0  0  0  0  0  0  0  0  0
   48.1610   36.7960   41.5250 H   0  0  0  0  0  0  0  0  0  0  0  0
   48.7930   36.2980   39.3520 H   0  0  0  0  0  0  0  0  0  0  0  0
   49.9750   35.0720   39.8600 H   0  0  0  0  0  0  0  0  0  0  0  0
   48.5060   33.3640   39.7520 H   0  0  0  0  0  0  0  0  0  0  0  0
   47.3830   34.5500   38.9790 H   0  0  0  0  0  0  0  0  0  0  0  0
   46.3050   35.0590   40.8990 H   0  0  0  0  0  0  0  0  0  0  0  0
   46.7250   34.3040   43.4550 C   0  0  0  0  0  0  0  0  0  0  0  0
   45.8140   35.3230   43.2360 C   0  0  0  0  0  0  0  0  0  0  0  0
   44.8210   35.5860   44.1960 C   0  0  0  0  0  0  0  0  0  0  0  0
   44.8460   34.7640   45.3290 N   0  0  0  0  0  0  0  0  0  0  0  0
   45.7580   33.7840   45.4930 C   0  0  0  0  0  0  0  0  0  0  0  0
   46.6860   33.5710   44.5470 N   0  0  0  0  0  0  0  0  0  0  0  0
   45.6360   36.0530   42.4610 H   0  0  0  0  0  0  0  0  0  0  0  0
   44.0440   36.3150   44.2080 H   0  0  0  0  0  0  0  0  0  0  0  0
   45.6810   33.2140   46.4030 H   0  0  0  0  0  0  0  0  0  0  0  0
   46.2220   32.9650   40.8510 C   0  0  2  0  0  0  0  0  0  0  0  0
   46.2390   32.3290   39.4720 C   0  0  0  0  0  0  0  0  0  0  0  0
   45.0100   32.9540   39.9870 C   0  0  1  0  0  0  0  0  0  0  0  0
   46.3400   32.2160   41.6610 H   0  0  0  0  0  0  0  0  0  0  0  0
   46.7410   32.8080   38.6320 H   0  0  0  0  0  0  0  0  0  0  0  0
   46.2120   31.2180   39.3880 H   0  0  0  0  0  0  0  0  0  0  0  0
   44.7200   33.9620   39.6120 H   0  0  0  0  0  0  0  0  0  0  0  0
   43.8730   32.1900   40.5950 C   0  0  0  0  0  0  0  0  0  0  0  0
   44.1330   31.1120   40.5700 H   0  0  0  0  0  0  0  0  0  0  0  0
   43.8120   32.4660   41.6760 H   0  0  0  0  0  0  0  0  0  0  0  0
   42.5690   32.3470   39.8800 C   0  0  0  0  0  0  0  0  0  0  0  0
   42.7840   32.2750   38.7950 H   0  0  0  0  0  0  0  0  0  0  0  0
   41.9560   31.4550   40.1240 H   0  0  0  0  0  0  0  0  0  0  0  0
   41.8910   33.5840   40.1890 N   0  0  0  0  0  0  0  0  0  0  0  0
   41.9580   34.1930   41.3870 C   0  0  0  0  0  3  0  0  0  0  0  0
   41.2660   35.3930   41.5950 C   0  0  0  0  0  0  0  0  0  0  0  0
   41.2910   35.9160   42.5390 H   0  0  0  0  0  0  0  0  0  0  0  0
   40.5420   35.8670   40.4940 C   0  0  0  0  0  0  0  0  0  0  0  0
   39.9290   36.9640   40.7320 O   0  0  0  0  0  0  0  0  0  0  0  0
   40.4960   35.2340   39.3070 N   0  0  0  0  0  0  0  0  0  0  0  0
   41.1790   34.0830   39.1600 C   0  0  0  0  0  0  0  0  0  0  0  0
   41.0810   33.5600   38.0220 O   0  0  0  0  0  0  0  0  0  0  0  0
   39.9020   35.7480   38.6130 H   0  0  0  0  0  0  0  0  0  0  0  0
  1  7  1  1  0  0  0
  1  2  1  0  0  0  0
  1 17  1  0  0  0  0
  2  8  1  0  0  0  0
  2  9  1  0  0  0  0
  3 11  1  0  0  0  0
  3 10  1  0  0  0  0
  3  2  1  0  0  0  0
  4  3  1  0  0  0  0
  5  4  1  0  0  0  0
  5  6  1  0  0  0  0
  6 16  1  6  0  0  0
  6  1  1  0  0  0  0
 12  4  1  0  0  0  0
 13  4  1  0  0  0  0
 14  5  1  0  0  0  0
 15  5  1  0  0  0  0
 17 22  1  0  0  0  0
 18 17  2  0  0  0  0
 18 19  1  0  0  0  0
 19 24  1  0  0  0  0
 19 20  2  0  0  0  0
 20 21  1  0  0  0  0
 21 25  1  0  0  0  0
 22 21  2  0  0  0  0
 23 18  1  0  0  0  0
 26  6  1  0  0  0  0
 26 29  1  1  0  0  0
 27 28  1  0  0  0  0
 27 26  1  0  0  0  0
 28 32  1  6  0  0  0
 28 33  1  0  0  0  0
 28 26  1  0  0  0  0
 30 27  1  0  0  0  0
 31 27  1  0  0  0  0
 33 35  1  0  0  0  0
 34 33  1  0  0  0  0
 36 38  1  0  0  0  0
 36 39  1  0  0  0  0
 36 33  1  0  0  0  0
 37 36  1  0  0  0  0
 39 40  1  0  0  0  0
 40 41  2  0  0  0  0
 41 42  1  0  0  0  0
 43 44  2  0  0  0  0
 43 41  1  0  0  0  0
 45 43  1  0  0  0  0
 46 45  1  0  0  0  0
 46 39  1  0  0  0  0
 47 46  2  0  0  0  0
 48 45  1  0  0  0  0
M  END
>  <minimizedAffinity>
-6.20881844

>  <minimizedRMSD>
1.18844783

$$$$
