
 OpenBabel03242512003D

 48 51  0  0  1  0  0  0  0  0999 V2000
   47.2020   34.1000   42.4760 C   0  0  2  0  0  0  0  0  0  0  0  0
   48.5540   34.7410   42.5840 C   0  0  0  0  0  0  0  0  0  0  0  0
   48.8140   35.7000   41.4900 C   0  0  0  0  0  0  0  0  0  0  0  0
   48.6430   35.0940   40.1150 C   0  0  0  0  0  0  0  0  0  0  0  0
   47.4730   34.1610   40.0110 C   0  0  0  0  0  0  0  0  0  0  0  0
   46.5150   34.2770   41.1740 C   0  0  1  0  0  0  0  0  0  0  0  0
   47.3910   32.9920   42.6230 H   0  0  0  0  0  0  0  0  0  0  0  0
   49.3820   34.0060   42.6180 H   0  0  0  0  0  0  0  0  0  0  0  0
   48.5830   35.2910   43.5450 H   0  0  0  0  0  0  0  0  0  0  0  0
   49.8780   36.0270   41.5480 H   0  0  0  0  0  0  0  0  0  0  0  0
   48.1480   36.5850   41.5560 H   0  0  0  0  0  0  0  0  0  0  0  0
   48.6200   35.9150   39.3880 H   0  0  0  0  0  0  0  0  0  0  0  0
   49.5550   34.4970   39.9140 H   0  0  0  0  0  0  0  0  0  0  0  0
   47.7830   33.1030   39.8850 H   0  0  0  0  0  0  0  0  0  0  0  0
   46.8920   34.4620   39.0960 H   0  0  0  0  0  0  0  0  0  0  0  0
   45.9780   35.2230   41.0170 H   0  0  0  0  0  0  0  0  0  0  0  0
   46.3030   34.4710   43.5880 C   0  0  0  0  0  0  0  0  0  0  0  0
   45.5900   35.6330   43.3470 C   0  0  0  0  0  0  0  0  0  0  0  0
   44.6890   36.1080   44.3150 C   0  0  0  0  0  0  0  0  0  0  0  0
   44.5900   35.3350   45.4780 N   0  0  0  0  0  0  0  0  0  0  0  0
   45.3100   34.2100   45.6630 C   0  0  0  0  0  0  0  0  0  0  0  0
   46.1580   33.7950   44.7070 N   0  0  0  0  0  0  0  0  0  0  0  0
   45.5300   36.3570   42.5480 H   0  0  0  0  0  0  0  0  0  0  0  0
   44.0600   36.9690   44.3130 H   0  0  0  0  0  0  0  0  0  0  0  0
   45.1530   33.6950   46.5950 H   0  0  0  0  0  0  0  0  0  0  0  0
   45.4910   33.1840   41.0360 C   0  0  2  0  0  0  0  0  0  0  0  0
   44.8580   32.9830   39.6700 C   0  0  0  0  0  0  0  0  0  0  0  0
   44.0610   33.5140   40.7880 C   0  0  1  0  0  0  0  0  0  0  0  0
   45.7700   32.2220   41.5160 H   0  0  0  0  0  0  0  0  0  0  0  0
   45.0790   33.6520   38.8390 H   0  0  0  0  0  0  0  0  0  0  0  0
   44.5960   31.9510   39.3420 H   0  0  0  0  0  0  0  0  0  0  0  0
   43.8420   34.6060   40.8240 H   0  0  0  0  0  0  0  0  0  0  0  0
   43.1250   32.6870   41.6160 C   0  0  0  0  0  0  0  0  0  0  0  0
   43.5780   31.6830   41.7460 H   0  0  0  0  0  0  0  0  0  0  0  0
   43.0780   33.1380   42.6370 H   0  0  0  0  0  0  0  0  0  0  0  0
   41.7740   32.4850   41.0070 C   0  0  0  0  0  0  0  0  0  0  0  0
   41.7700   31.4730   40.5550 H   0  0  0  0  0  0  0  0  0  0  0  0
   41.0440   32.4430   41.8410 H   0  0  0  0  0  0  0  0  0  0  0  0
   41.4320   33.4870   40.0250 N   0  0  0  0  0  0  0  0  0  0  0  0
   41.1570   34.7690   40.3300 C   0  0  0  0  0  3  0  0  0  0  0  0
   40.8360   35.6710   39.3090 C   0  0  0  0  0  0  0  0  0  0  0  0
   40.6080   36.7070   39.5070 H   0  0  0  0  0  0  0  0  0  0  0  0
   40.8290   35.1360   38.0140 C   0  0  0  0  0  0  0  0  0  0  0  0
   40.5290   35.9980   37.1180 O   0  0  0  0  0  0  0  0  0  0  0  0
   41.1080   33.8480   37.7420 N   0  0  0  0  0  0  0  0  0  0  0  0
   41.4130   33.0230   38.7610 C   0  0  0  0  0  0  0  0  0  0  0  0
   41.6600   31.8390   38.4170 O   0  0  0  0  0  0  0  0  0  0  0  0
   41.0500   33.6450   36.7160 H   0  0  0  0  0  0  0  0  0  0  0  0
  1  2  1  0  0  0  0
  1  7  1  1  0  0  0
  1 17  1  0  0  0  0
  2  8  1  0  0  0  0
  2  9  1  0  0  0  0
  3 10  1  0  0  0  0
  3 11  1  0  0  0  0
  3  2  1  0  0  0  0
  4  3  1  0  0  0  0
  5  4  1  0  0  0  0
  5  6  1  0  0  0  0
  6 16  1  6  0  0  0
  6  1  1  0  0  0  0
 12  4  1  0  0  0  0
 13  4  1  0  0  0  0
 14  5  1  0  0  0  0
 15  5  1  0  0  0  0
 17 22  1  0  0  0  0
 18 17  2  0  0  0  0
 18 19  1  0  0  0  0
 19 20  2  0  0  0  0
 20 21  1  0  0  0  0
 21 25  1  0  0  0  0
 22 21  2  0  0  0  0
 23 18  1  0  0  0  0
 24 19  1  0  0  0  0
 26  6  1  0  0  0  0
 26 29  1  1  0  0  0
 27 28  1  0  0  0  0
 27 26  1  0  0  0  0
 28 32  1  6  0  0  0
 28 26  1  0  0  0  0
 28 33  1  0  0  0  0
 30 27  1  0  0  0  0
 31 27  1  0  0  0  0
 33 34  1  0  0  0  0
 33 35  1  0  0  0  0
 36 33  1  0  0  0  0
 36 38  1  0  0  0  0
 37 36  1  0  0  0  0
 39 40  1  0  0  0  0
 39 36  1  0  0  0  0
 41 42  1  0  0  0  0
 41 40  2  0  0  0  0
 43 41  1  0  0  0  0
 44 43  2  0  0  0  0
 45 43  1  0  0  0  0
 45 46  1  0  0  0  0
 46 39  1  0  0  0  0
 47 46  2  0  0  0  0
 48 45  1  0  0  0  0
M  END
>  <minimizedAffinity>
-6.66039419

>  <minimizedRMSD>
2.05575299

$$$$
