
     RDKit          3D

 49 52  0  0  0  0  0  0  0  0999 V2000
   47.1991   34.1140   42.4361 C   0  0  2  0  0  0  0  0  0  0  0  0
   48.5719   34.6965   42.5878 C   0  0  0  0  0  0  0  0  0  0  0  0
   48.8881   35.6832   41.5335 C   0  0  0  0  0  0  0  0  0  0  0  0
   48.7172   35.1337   40.1345 C   0  0  0  0  0  0  0  0  0  0  0  0
   47.5137   34.2519   39.9787 C   0  0  0  0  0  0  0  0  0  0  0  0
   46.5413   34.3645   41.1302 C   0  0  1  0  0  0  0  0  0  0  0  0
   46.2958   34.4807   43.5459 C   0  0  0  0  0  0  0  0  0  0  0  0
   45.6074   35.6603   43.3207 C   0  0  0  0  0  0  0  0  0  0  0  0
   44.7053   36.1344   44.2886 C   0  0  0  0  0  0  0  0  0  0  0  0
   44.5809   35.3410   45.4364 N   0  0  0  0  0  0  0  0  0  0  0  0
   45.2775   34.1986   45.6058 C   0  0  0  0  0  0  0  0  0  0  0  0
   46.1276   33.7867   44.6512 N   0  0  0  0  0  0  0  0  0  0  0  0
   45.4783   33.3177   40.9369 C   0  0  2  0  0  0  0  0  0  0  0  0
   44.8196   33.2299   39.5714 C   0  0  0  0  0  0  0  0  0  0  0  0
   44.0574   33.7118   40.7342 C   0  0  1  0  0  0  0  0  0  0  0  0
   43.1038   32.8641   41.5204 C   0  0  0  0  0  0  0  0  0  0  0  0
   41.6609   33.1030   41.2076 C   0  0  0  0  0  0  0  0  0  0  0  0
   47.3415   32.9953   42.5450 H   0  0  0  0  0  0  0  0  0  0  0  0
   49.3705   33.9287   42.6076 H   0  0  0  0  0  0  0  0  0  0  0  0
   48.6062   35.2112   43.5684 H   0  0  0  0  0  0  0  0  0  0  0  0
   49.9628   35.9661   41.6198 H   0  0  0  0  0  0  0  0  0  0  0  0
   48.2562   36.5914   41.6215 H   0  0  0  0  0  0  0  0  0  0  0  0
   48.7389   35.9805   39.4379 H   0  0  0  0  0  0  0  0  0  0  0  0
   49.6095   34.5092   39.9266 H   0  0  0  0  0  0  0  0  0  0  0  0
   47.7845   33.1882   39.8203 H   0  0  0  0  0  0  0  0  0  0  0  0
   46.9614   34.6079   39.0658 H   0  0  0  0  0  0  0  0  0  0  0  0
   46.0440   35.3360   40.9995 H   0  0  0  0  0  0  0  0  0  0  0  0
   45.5679   36.4002   42.5354 H   0  0  0  0  0  0  0  0  0  0  0  0
   44.0919   37.0061   44.2979 H   0  0  0  0  0  0  0  0  0  0  0  0
   45.1030   33.6697   46.5272 H   0  0  0  0  0  0  0  0  0  0  0  0
   45.7305   32.3184   41.3484 H   0  0  0  0  0  0  0  0  0  0  0  0
   45.0528   33.9453   38.7821 H   0  0  0  0  0  0  0  0  0  0  0  0
   44.5165   32.2320   39.1798 H   0  0  0  0  0  0  0  0  0  0  0  0
   43.8766   34.8062   40.8447 H   0  0  0  0  0  0  0  0  0  0  0  0
   43.3184   31.8010   41.2861 H   0  0  0  0  0  0  0  0  0  0  0  0
   43.3406   32.9937   42.6041 H   0  0  0  0  0  0  0  0  0  0  0  0
   41.5109   32.8344   40.1426 H   0  0  0  0  0  0  0  0  0  0  0  0
   41.0761   32.3606   41.7892 H   0  0  0  0  0  0  0  0  0  0  0  0
   41.2375   34.4602   41.4592 N   0  0  0  0  0  0  0  0  0  0  0  0
   41.9470   35.3411   42.1888 C   0  0  0  0  0  0  0  0  0  0  0  0
   41.4557   36.6383   42.3793 C   0  0  0  0  0  0  0  0  0  0  0  0
   41.9904   37.3772   42.9564 H   0  0  0  0  0  0  0  0  0  0  0  0
   40.2242   36.9103   41.7702 C   0  0  0  0  0  0  0  0  0  0  0  0
   39.8180   38.1056   41.9727 O   0  0  0  0  0  0  0  0  0  0  0  0
   39.5385   36.0060   41.0459 N   0  0  0  0  0  0  0  0  0  0  0  0
   40.0555   34.7727   40.8933 C   0  0  0  0  0  0  0  0  0  0  0  0
   39.3506   33.9931   40.2035 O   0  0  0  0  0  0  0  0  0  0  0  0
   42.8803   35.0433   42.6169 H   0  0  0  0  0  0  0  0  0  0  0  0
   38.6422   36.4021   40.6749 H   0  0  0  0  0  0  0  0  0  0  0  0
  1  2  1  0
  1  7  1  0
  3  2  1  0
  4  3  1  0
  5  4  1  0
  5  6  1  0
  6  1  1  0
  7 12  1  0
  8  7  2  0
  8  9  1  0
  9 10  2  0
 10 11  1  0
 12 11  2  0
 13  6  1  0
 14 15  1  0
 14 13  1  0
 15 13  1  0
 15 16  1  0
 17 16  1  0
  1 18  1  1
  2 19  1  0
  2 20  1  0
  3 21  1  0
  3 22  1  0
  4 23  1  0
  4 24  1  0
  5 25  1  0
  5 26  1  0
  6 27  1  1
  8 28  1  0
  9 29  1  0
 11 30  1  0
 13 31  1  1
 14 32  1  0
 14 33  1  0
 15 34  1  6
 16 35  1  0
 16 36  1  0
 17 37  1  0
 17 38  1  0
 39 40  1  0
 40 41  2  0
 41 42  1  0
 41 43  1  0
 43 44  2  0
 43 45  1  0
 45 46  1  0
 46 47  2  0
 46 39  1  0
 40 48  1  0
 45 49  1  0
 17 39  1  0
M  ISO  8  18  13  19  13  20  13  21  13  22  13  23  13  24  13  25  13
M  ISO  8  26  13  27  13  28  14  29  14  30  14  31  13  32  13  33  13
M  ISO  6  34  13  35   8  36   8  37   8  38   8  42  16
M  END
>  <DihAtoms>  (1) 
15,16,38,39

>  <DihDeg>  (1) 
89.99627102400528

$$$$
