
 OpenBabel03242512003D

 48 51  0  0  1  0  0  0  0  0999 V2000
   47.0900   34.0670   42.4910 C   0  0  2  0  0  0  0  0  0  0  0  0
   48.4810   34.6120   42.6130 C   0  0  0  0  0  0  0  0  0  0  0  0
   48.8030   35.5860   41.5490 C   0  0  0  0  0  0  0  0  0  0  0  0
   48.5890   35.0380   40.1560 C   0  0  0  0  0  0  0  0  0  0  0  0
   47.3590   34.1880   40.0280 C   0  0  0  0  0  0  0  0  0  0  0  0
   46.4130   34.3310   41.1980 C   0  0  1  0  0  0  0  0  0  0  0  0
   47.2050   32.9450   42.6010 H   0  0  0  0  0  0  0  0  0  0  0  0
   49.2580   33.8230   42.6200 H   0  0  0  0  0  0  0  0  0  0  0  0
   48.5490   35.1280   43.5900 H   0  0  0  0  0  0  0  0  0  0  0  0
   49.8870   35.8400   41.6130 H   0  0  0  0  0  0  0  0  0  0  0  0
   48.1980   36.5110   41.6460 H   0  0  0  0  0  0  0  0  0  0  0  0
   48.6200   35.8800   39.4560 H   0  0  0  0  0  0  0  0  0  0  0  0
   49.4590   34.3880   39.9330 H   0  0  0  0  0  0  0  0  0  0  0  0
   47.5980   33.1170   39.8670 H   0  0  0  0  0  0  0  0  0  0  0  0
   46.7980   34.5570   39.1250 H   0  0  0  0  0  0  0  0  0  0  0  0
   45.9400   35.3160   41.0730 H   0  0  0  0  0  0  0  0  0  0  0  0
   46.2200   34.4620   43.6180 C   0  0  0  0  0  0  0  0  0  0  0  0
   45.5160   35.6290   43.3790 C   0  0  0  0  0  0  0  0  0  0  0  0
   44.6420   36.1270   44.3610 C   0  0  0  0  0  0  0  0  0  0  0  0
   44.5600   35.3690   45.5340 N   0  0  0  0  0  0  0  0  0  0  0  0
   45.2700   34.2370   45.7170 C   0  0  0  0  0  0  0  0  0  0  0  0
   46.0920   33.8010   44.7480 N   0  0  0  0  0  0  0  0  0  0  0  0
   45.4470   36.3450   42.5730 H   0  0  0  0  0  0  0  0  0  0  0  0
   44.0230   36.9950   44.3630 H   0  0  0  0  0  0  0  0  0  0  0  0
   45.1280   33.7350   46.6580 H   0  0  0  0  0  0  0  0  0  0  0  0
   45.3180   33.3140   41.0300 C   0  0  2  0  0  0  0  0  0  0  0  0
   45.0880   32.7530   39.6370 C   0  0  0  0  0  0  0  0  0  0  0  0
   44.0910   33.6440   40.2540 C   0  0  1  0  0  0  0  0  0  0  0  0
   45.2930   32.5250   41.8100 H   0  0  0  0  0  0  0  0  0  0  0  0
   45.6430   33.1270   38.7770 H   0  0  0  0  0  0  0  0  0  0  0  0
   44.7770   31.6900   39.5270 H   0  0  0  0  0  0  0  0  0  0  0  0
   44.0430   34.7080   39.9270 H   0  0  0  0  0  0  0  0  0  0  0  0
   42.8390   33.1630   40.9210 C   0  0  0  0  0  0  0  0  0  0  0  0
   43.0460   32.1680   41.3640 H   0  0  0  0  0  0  0  0  0  0  0  0
   42.6230   33.8440   41.7800 H   0  0  0  0  0  0  0  0  0  0  0  0
   41.6710   33.0020   40.0010 C   0  0  0  0  0  0  0  0  0  0  0  0
   41.8150   32.0450   39.4600 H   0  0  0  0  0  0  0  0  0  0  0  0
   40.7740   32.8530   40.6370 H   0  0  0  0  0  0  0  0  0  0  0  0
   41.5150   34.0970   39.0740 N   0  0  0  0  0  0  0  0  0  0  0  0
   42.3280   35.1700   39.0420 C   0  0  0  0  0  3  0  0  0  0  0  0
   42.0980   36.1860   38.1070 C   0  0  0  0  0  0  0  0  0  0  0  0
   42.7240   37.0640   38.0450 H   0  0  0  0  0  0  0  0  0  0  0  0
   41.0030   35.9850   37.2560 C   0  0  0  0  0  0  0  0  0  0  0  0
   40.8350   36.9380   36.4210 O   0  0  0  0  0  0  0  0  0  0  0  0
   40.2080   34.9000   37.3140 N   0  0  0  0  0  0  0  0  0  0  0  0
   40.4720   33.9520   38.2330 C   0  0  0  0  0  0  0  0  0  0  0  0
   39.6820   32.9750   38.2160 O   0  0  0  0  0  0  0  0  0  0  0  0
   39.4460   34.9360   36.5970 H   0  0  0  0  0  0  0  0  0  0  0  0
  1  7  1  1  0  0  0
  1  2  1  0  0  0  0
  1 17  1  0  0  0  0
  2  8  1  0  0  0  0
  2  9  1  0  0  0  0
  3 10  1  0  0  0  0
  3 11  1  0  0  0  0
  3  2  1  0  0  0  0
  4  3  1  0  0  0  0
  5  4  1  0  0  0  0
  5  6  1  0  0  0  0
  6 16  1  1  0  0  0
  6  1  1  0  0  0  0
 12  4  1  0  0  0  0
 13  4  1  0  0  0  0
 14  5  1  0  0  0  0
 15  5  1  0  0  0  0
 17 22  1  0  0  0  0
 18 17  2  0  0  0  0
 18 19  1  0  0  0  0
 19 24  1  0  0  0  0
 19 20  2  0  0  0  0
 20 21  1  0  0  0  0
 21 25  1  0  0  0  0
 22 21  2  0  0  0  0
 23 18  1  0  0  0  0
 26  6  1  0  0  0  0
 26 29  1  1  0  0  0
 27 28  1  0  0  0  0
 27 26  1  0  0  0  0
 28 32  1  6  0  0  0
 28 33  1  0  0  0  0
 28 26  1  0  0  0  0
 30 27  1  0  0  0  0
 31 27  1  0  0  0  0
 33 34  1  0  0  0  0
 33 35  1  0  0  0  0
 36 38  1  0  0  0  0
 36 33  1  0  0  0  0
 37 36  1  0  0  0  0
 39 36  1  0  0  0  0
 40 39  1  0  0  0  0
 41 40  2  0  0  0  0
 42 41  1  0  0  0  0
 43 45  1  0  0  0  0
 43 41  1  0  0  0  0
 44 43  2  0  0  0  0
 45 46  1  0  0  0  0
 46 39  1  0  0  0  0
 47 46  2  0  0  0  0
 48 45  1  0  0  0  0
M  END
>  <minimizedAffinity>
-6.63413286

>  <minimizedRMSD>
2.29279852

$$$$
