
 OpenBabel03242512013D

 48 51  0  0  1  0  0  0  0  0999 V2000
   48.1980   33.3510   40.8890 C   0  0  2  0  0  0  0  0  0  0  0  0
   47.7450   34.7770   40.9810 C   0  0  0  0  0  0  0  0  0  0  0  0
   48.8650   35.7120   41.2220 C   0  0  0  0  0  0  0  0  0  0  0  0
   49.6850   35.3560   42.4410 C   0  0  0  0  0  0  0  0  0  0  0  0
   49.9120   33.8830   42.6030 C   0  0  0  0  0  0  0  0  0  0  0  0
   49.5810   33.0900   41.3600 C   0  0  1  0  0  0  0  0  0  0  0  0
   47.4880   32.7740   41.5580 H   0  0  0  0  0  0  0  0  0  0  0  0
   46.9730   34.9380   41.7590 H   0  0  0  0  0  0  0  0  0  0  0  0
   47.2750   35.0380   40.0130 H   0  0  0  0  0  0  0  0  0  0  0  0
   48.4460   36.7260   41.4220 H   0  0  0  0  0  0  0  0  0  0  0  0
   49.5520   35.7590   40.3520 H   0  0  0  0  0  0  0  0  0  0  0  0
   50.6100   35.9450   42.4060 H   0  0  0  0  0  0  0  0  0  0  0  0
   49.1080   35.6970   43.3240 H   0  0  0  0  0  0  0  0  0  0  0  0
   49.3650   33.4620   43.4720 H   0  0  0  0  0  0  0  0  0  0  0  0
   51.0130   33.7370   42.7840 H   0  0  0  0  0  0  0  0  0  0  0  0
   50.3970   33.2990   40.6540 H   0  0  0  0  0  0  0  0  0  0  0  0
   47.9940   32.7720   39.5460 C   0  0  0  0  0  0  0  0  0  0  0  0
   48.8340   33.3090   38.5870 C   0  0  0  0  0  0  0  0  0  0  0  0
   48.7590   32.8510   37.2600 C   0  0  0  0  0  0  0  0  0  0  0  0
   47.8040   31.8560   37.0200 N   0  0  0  0  0  0  0  0  0  0  0  0
   47.0070   31.3670   37.9930 C   0  0  0  0  0  0  0  0  0  0  0  0
   47.1180   31.8360   39.2460 N   0  0  0  0  0  0  0  0  0  0  0  0
   49.6060   34.0640   38.5640 H   0  0  0  0  0  0  0  0  0  0  0  0
   49.3120   33.1360   36.3950 H   0  0  0  0  0  0  0  0  0  0  0  0
   46.3090   30.6030   37.6940 H   0  0  0  0  0  0  0  0  0  0  0  0
   49.6860   31.6300   41.7040 C   0  0  2  0  0  0  0  0  0  0  0  0
   50.9740   31.1530   42.3540 C   0  0  0  0  0  0  0  0  0  0  0  0
   50.6410   30.7480   40.9780 C   0  0  1  0  0  0  0  0  0  0  0  0
   48.7860   31.2010   42.1910 H   0  0  0  0  0  0  0  0  0  0  0  0
   51.8200   31.8260   42.4970 H   0  0  0  0  0  0  0  0  0  0  0  0
   50.9280   30.3420   43.1160 H   0  0  0  0  0  0  0  0  0  0  0  0
   51.1560   31.2520   40.1280 H   0  0  0  0  0  0  0  0  0  0  0  0
   50.0440   29.4220   40.6170 C   0  0  0  0  0  0  0  0  0  0  0  0
   49.9560   28.8220   41.5450 H   0  0  0  0  0  0  0  0  0  0  0  0
   48.9990   29.6000   40.2650 H   0  0  0  0  0  0  0  0  0  0  0  0
   50.8550   28.6220   39.6480 C   0  0  0  0  0  0  0  0  0  0  0  0
   51.8390   28.4380   40.1240 H   0  0  0  0  0  0  0  0  0  0  0  0
   50.3720   27.6270   39.5650 H   0  0  0  0  0  0  0  0  0  0  0  0
   51.0170   29.2660   38.3660 N   0  0  0  0  0  0  0  0  0  0  0  0
   52.0830   30.0200   38.0390 C   0  0  0  0  0  3  0  0  0  0  0  0
   52.1530   30.6060   36.7690 C   0  0  0  0  0  0  0  0  0  0  0  0
   52.9880   31.2180   36.4630 H   0  0  0  0  0  0  0  0  0  0  0  0
   51.0660   30.3450   35.9250 C   0  0  0  0  0  0  0  0  0  0  0  0
   51.1760   30.9020   34.7800 O   0  0  0  0  0  0  0  0  0  0  0  0
   50.0140   29.5870   36.2850 N   0  0  0  0  0  0  0  0  0  0  0  0
   49.9960   29.0460   37.5160 C   0  0  0  0  0  0  0  0  0  0  0  0
   48.9770   28.3530   37.7670 O   0  0  0  0  0  0  0  0  0  0  0  0
   49.3060   29.5120   35.5140 H   0  0  0  0  0  0  0  0  0  0  0  0
  1  2  1  0  0  0  0
  1  6  1  0  0  0  0
  1  7  1  1  0  0  0
  2  3  1  0  0  0  0
  2  8  1  0  0  0  0
  3 10  1  0  0  0  0
  3  4  1  0  0  0  0
  4  5  1  0  0  0  0
  4 13  1  0  0  0  0
  5 15  1  0  0  0  0
  5 14  1  0  0  0  0
  6 16  1  6  0  0  0
  6 26  1  0  0  0  0
  6  5  1  0  0  0  0
  9  2  1  0  0  0  0
 11  3  1  0  0  0  0
 12  4  1  0  0  0  0
 17  1  1  0  0  0  0
 18 17  2  0  0  0  0
 19 18  1  0  0  0  0
 20 19  2  0  0  0  0
 20 21  1  0  0  0  0
 21 22  2  0  0  0  0
 22 17  1  0  0  0  0
 23 18  1  0  0  0  0
 24 19  1  0  0  0  0
 25 21  1  0  0  0  0
 26 29  1  1  0  0  0
 26 27  1  0  0  0  0
 27 30  1  0  0  0  0
 27 31  1  0  0  0  0
 28 32  1  6  0  0  0
 28 26  1  0  0  0  0
 28 27  1  0  0  0  0
 33 28  1  0  0  0  0
 33 34  1  0  0  0  0
 35 33  1  0  0  0  0
 36 37  1  0  0  0  0
 36 33  1  0  0  0  0
 38 36  1  0  0  0  0
 39 36  1  0  0  0  0
 40 39  1  0  0  0  0
 41 40  2  0  0  0  0
 42 41  1  0  0  0  0
 43 45  1  0  0  0  0
 43 41  1  0  0  0  0
 44 43  2  0  0  0  0
 45 46  1  0  0  0  0
 46 47  2  0  0  0  0
 46 39  1  0  0  0  0
 48 45  1  0  0  0  0
M  END
>  <minimizedAffinity>
-3.89773631

>  <minimizedRMSD>
8.98628139

$$$$
