
 OpenBabel03252509283D

 22 23  0  0  0  0  0  0  0  0999 V2000
   45.0470   34.5800   42.8840 C   0  0  0  0  0  0  0  0  0  0  0  0
   44.2290   34.0310   42.3650 H   0  0  0  0  0  0  0  0  0  0  0  0
   44.7180   35.6000   43.1300 H   0  0  0  0  0  0  0  0  0  0  0  0
   45.3420   33.9250   44.1610 N   0  0  0  0  0  0  0  0  0  0  0  0
   45.8790   32.6730   44.2600 C   0  0  0  0  0  3  0  0  0  0  0  0
   46.1010   32.1880   45.5220 C   0  0  0  0  0  0  0  0  0  0  0  0
   46.5300   31.1860   45.6030 H   0  0  0  0  0  0  0  0  0  0  0  0
   45.8040   32.9130   46.6690 C   0  0  0  0  0  0  0  0  0  0  0  0
   46.0260   32.4260   47.7870 O   0  0  0  0  0  0  0  0  0  0  0  0
   45.2770   34.1430   46.5670 N   0  0  0  0  0  0  0  0  0  0  0  0
   45.0710   34.5920   45.3150 C   0  0  0  0  0  0  0  0  0  0  0  0
   44.5700   35.7590   45.2030 O   0  0  0  0  0  0  0  0  0  0  0  0
   45.0280   34.7470   47.3780 H   0  0  0  0  0  0  0  0  0  0  0  0
   47.2520   34.0600   39.9300 C   0  0  0  0  0  0  0  0  0  0  0  0
   46.1300   33.9990   40.7750 C   0  0  0  0  0  0  0  0  0  0  0  0
   46.2240   34.6530   42.0140 C   0  0  0  0  0  0  0  0  0  0  0  0
   47.3870   35.3080   42.3330 N   0  0  0  0  0  0  0  0  0  0  0  0
   48.4360   35.3350   41.4810 C   0  0  0  0  0  0  0  0  0  0  0  0
   48.3680   34.7130   40.2840 N   0  0  0  0  0  0  0  0  0  0  0  0
   47.1510   33.5490   38.9840 H   0  0  0  0  0  0  0  0  0  0  0  0
   45.2430   33.4600   40.4560 H   0  0  0  0  0  0  0  0  0  0  0  0
   49.2420   35.8880   41.8980 H   0  0  0  0  0  0  0  0  0  0  0  0
  1  3  1  0  0  0  0
  1  4  1  0  0  0  0
  2  1  1  0  0  0  0
  4  5  1  0  0  0  0
  4 11  1  0  0  0  0
  5  6  2  0  0  0  0
  6  7  1  0  0  0  0
  6  8  1  0  0  0  0
  8  9  2  0  0  0  0
 10  8  1  0  0  0  0
 10 13  1  0  0  0  0
 11 10  1  0  0  0  0
 12 11  2  0  0  0  0
 14 19  2  0  0  0  0
 14 15  1  0  0  0  0
 15 16  2  0  0  0  0
 16 17  1  0  0  0  0
 16  1  1  0  0  0  0
 18 22  1  0  0  0  0
 18 17  2  0  0  0  0
 19 18  1  0  0  0  0
 20 14  1  0  0  0  0
 21 15  1  0  0  0  0
M  END
>  <minimizedAffinity>
-4.67503929

>  <minimizedRMSD>
5.67463636

$$$$
