
 OpenBabel03252504243D

 22 23  0  0  0  0  0  0  0  0999 V2000
   43.2140   34.2250   39.7980 C   0  0  0  0  0  0  0  0  0  0  0  0
   43.6900   34.9260   39.1010 H   0  0  0  0  0  0  0  0  0  0  0  0
   43.5540   34.4830   40.8390 H   0  0  0  0  0  0  0  0  0  0  0  0
   43.6050   32.8440   39.5560 N   0  0  0  0  0  0  0  0  0  0  0  0
   43.2860   31.9070   40.4520 C   0  0  0  0  0  3  0  0  0  0  0  0
   43.6800   30.5990   40.1820 C   0  0  0  0  0  0  0  0  0  0  0  0
   43.4390   29.7970   40.8910 H   0  0  0  0  0  0  0  0  0  0  0  0
   44.3700   30.2830   39.0380 C   0  0  0  0  0  0  0  0  0  0  0  0
   44.7080   29.0890   38.8290 O   0  0  0  0  0  0  0  0  0  0  0  0
   44.6710   31.2650   38.1600 N   0  0  0  0  0  0  0  0  0  0  0  0
   44.2910   32.5490   38.4130 C   0  0  0  0  0  0  0  0  0  0  0  0
   44.6060   33.4070   37.5530 O   0  0  0  0  0  0  0  0  0  0  0  0
   45.1980   31.0210   37.2870 H   0  0  0  0  0  0  0  0  0  0  0  0
   41.2380   34.3620   38.4110 C   0  0  0  0  0  0  0  0  0  0  0  0
   41.7530   34.3170   39.7180 C   0  0  0  0  0  0  0  0  0  0  0  0
   40.8380   34.3640   40.7600 C   0  0  0  0  0  0  0  0  0  0  0  0
   39.5260   34.4490   40.4700 N   0  0  0  0  0  0  0  0  0  0  0  0
   39.0690   34.4900   39.1920 C   0  0  0  0  0  0  0  0  0  0  0  0
   39.9090   34.4490   38.1350 N   0  0  0  0  0  0  0  0  0  0  0  0
   41.8610   34.3320   37.5330 H   0  0  0  0  0  0  0  0  0  0  0  0
   41.2690   34.3270   41.7320 H   0  0  0  0  0  0  0  0  0  0  0  0
   38.0010   34.5590   39.0960 H   0  0  0  0  0  0  0  0  0  0  0  0
  1  3  1  0  0  0  0
  2  1  1  0  0  0  0
  4  1  1  0  0  0  0
  4  5  1  0  0  0  0
  6  5  2  0  0  0  0
  6  7  1  0  0  0  0
  8  6  1  0  0  0  0
  9  8  2  0  0  0  0
 10 11  1  0  0  0  0
 10  8  1  0  0  0  0
 11  4  1  0  0  0  0
 12 11  2  0  0  0  0
 13 10  1  0  0  0  0
 14 15  1  0  0  0  0
 15  1  1  0  0  0  0
 15 16  2  0  0  0  0
 16 21  1  0  0  0  0
 17 16  1  0  0  0  0
 18 17  2  0  0  0  0
 19 14  2  0  0  0  0
 19 18  1  0  0  0  0
 20 14  1  0  0  0  0
 22 18  1  0  0  0  0
M  END
>  <minimizedAffinity>
-2.65125489

>  <minimizedRMSD>
6.06218958

$$$$
