
     RDKit          3D

 23 24  0  0  0  0  0  0  0  0999 V2000
   44.3884   35.7675   44.4315 C   0  0  0  0  0  0  0  0  0  0  0  0
   44.6703   35.0552   43.2526 C   0  0  0  0  0  0  0  0  0  0  0  0
   45.2937   33.8238   43.3925 C   0  0  0  0  0  0  0  0  0  0  0  0
   45.5916   33.3821   44.6279 N   0  0  0  0  0  0  0  0  0  0  0  0
   45.3019   34.1022   45.7426 C   0  0  0  0  0  0  0  0  0  0  0  0
   44.6963   35.3066   45.6732 N   0  0  0  0  0  0  0  0  0  0  0  0
   44.2567   35.7285   42.0167 C   0  0  0  0  0  0  0  0  0  0  0  0
   43.9074   36.7313   44.4342 H   0  0  0  0  0  0  0  0  0  0  0  0
   45.4889   33.3182   42.4772 H   0  0  0  0  0  0  0  0  0  0  0  0
   45.5917   33.6377   46.6676 H   0  0  0  0  0  0  0  0  0  0  0  0
   44.3664   36.8156   42.1066 H   0  0  0  0  0  0  0  0  0  0  0  0
   44.9041   35.3819   41.1635 H   0  0  0  0  0  0  0  0  0  0  0  0
   42.8942   35.3261   41.7037 N   0  0  0  0  0  0  0  0  0  0  0  0
   42.4669   34.1170   42.0735 C   0  0  0  0  0  0  0  0  0  0  0  0
   41.1561   33.7708   41.7547 C   0  0  0  0  0  0  0  0  0  0  0  0
   40.7638   32.7877   42.0392 H   0  0  0  0  0  0  0  0  0  0  0  0
   40.3329   34.6424   41.0840 C   0  0  0  0  0  0  0  0  0  0  0  0
   39.1540   34.2940   40.8132 O   0  0  0  0  0  0  0  0  0  0  0  0
   40.8092   35.8562   40.7296 N   0  0  0  0  0  0  0  0  0  0  0  0
   42.0899   36.2048   41.0366 C   0  0  0  0  0  0  0  0  0  0  0  0
   42.4626   37.3482   40.6756 O   0  0  0  0  0  0  0  0  0  0  0  0
   43.0754   33.3988   42.6012 H   0  0  0  0  0  0  0  0  0  0  0  0
   40.1773   36.5187   40.2175 H   0  0  0  0  0  0  0  0  0  0  0  0
  1  6  2  0
  2  3  2  0
  2  1  1  0
  3  4  1  0
  4  5  2  0
  6  5  1  0
  7  2  1  0
  1  8  1  0
  3  9  1  0
  5 10  1  0
  7 11  1  0
  7 12  1  0
 13 14  1  0
 14 15  2  0
 15 16  1  0
 15 17  1  0
 17 18  2  0
 17 19  1  0
 19 20  1  0
 20 21  2  0
 20 13  1  0
 14 22  1  0
 19 23  1  0
  7 13  1  0
M  ISO  6   8  14   9  14  10  14  11   8  12   8  16  16
M  END
>  <DihAtoms>  (1) 
1,6,12,13

>  <DihDeg>  (1) 
89.99953610129455

$$$$
