
 OpenBabel03252509303D

 22 23  0  0  0  0  0  0  0  0999 V2000
   36.9080   27.3580   43.0060 C   0  0  0  0  0  0  0  0  0  0  0  0
   37.4500   27.6980   43.9170 H   0  0  0  0  0  0  0  0  0  0  0  0
   35.8880   27.0440   43.2720 H   0  0  0  0  0  0  0  0  0  0  0  0
   36.7630   28.4790   42.0740 N   0  0  0  0  0  0  0  0  0  0  0  0
   35.8550   28.4990   41.0550 C   0  0  0  0  0  3  0  0  0  0  0  0
   35.8330   29.6160   40.2610 C   0  0  0  0  0  0  0  0  0  0  0  0
   35.1060   29.6340   39.4450 H   0  0  0  0  0  0  0  0  0  0  0  0
   36.6840   30.6960   40.4590 C   0  0  0  0  0  0  0  0  0  0  0  0
   36.6220   31.6820   39.7110 O   0  0  0  0  0  0  0  0  0  0  0  0
   37.5750   30.6710   41.4610 N   0  0  0  0  0  0  0  0  0  0  0  0
   37.5720   29.5620   42.2230 C   0  0  0  0  0  0  0  0  0  0  0  0
   38.4150   29.5250   43.1800 O   0  0  0  0  0  0  0  0  0  0  0  0
   38.2460   31.4400   41.6740 H   0  0  0  0  0  0  0  0  0  0  0  0
   37.5330   23.9580   41.6250 C   0  0  0  0  0  0  0  0  0  0  0  0
   36.8670   25.0540   42.2030 C   0  0  0  0  0  0  0  0  0  0  0  0
   37.6150   26.2240   42.4030 C   0  0  0  0  0  0  0  0  0  0  0  0
   38.9370   26.2410   42.0320 N   0  0  0  0  0  0  0  0  0  0  0  0
   39.5270   25.1570   41.4810 C   0  0  0  0  0  0  0  0  0  0  0  0
   38.8260   24.0200   41.2780 N   0  0  0  0  0  0  0  0  0  0  0  0
   36.9330   23.0700   41.4820 H   0  0  0  0  0  0  0  0  0  0  0  0
   35.8190   24.9670   42.4720 H   0  0  0  0  0  0  0  0  0  0  0  0
   40.5460   25.3580   41.2600 H   0  0  0  0  0  0  0  0  0  0  0  0
  1  3  1  0  0  0  0
  1  2  1  0  0  0  0
  4 11  1  0  0  0  0
  4  1  1  0  0  0  0
  5  4  1  0  0  0  0
  6  8  1  0  0  0  0
  6  5  2  0  0  0  0
  7  6  1  0  0  0  0
  8 10  1  0  0  0  0
  9  8  2  0  0  0  0
 10 13  1  0  0  0  0
 10 11  1  0  0  0  0
 11 12  2  0  0  0  0
 14 15  1  0  0  0  0
 15 16  2  0  0  0  0
 15 21  1  0  0  0  0
 16  1  1  0  0  0  0
 17 16  1  0  0  0  0
 18 17  2  0  0  0  0
 19 18  1  0  0  0  0
 19 14  2  0  0  0  0
 20 14  1  0  0  0  0
 22 18  1  0  0  0  0
M  END
>  <minimizedAffinity>
-4.29421186

$$$$

 OpenBabel03252509303D

 22 23  0  0  0  0  0  0  0  0999 V2000
   37.4870   28.7490   40.1790 C   0  0  0  0  0  0  0  0  0  0  0  0
   36.3900   28.5560   40.1840 H   0  0  0  0  0  0  0  0  0  0  0  0
   37.9380   28.3270   39.2680 H   0  0  0  0  0  0  0  0  0  0  0  0
   37.7310   30.1920   40.1270 N   0  0  0  0  0  0  0  0  0  0  0  0
   38.9390   30.7410   39.8080 C   0  0  0  0  0  3  0  0  0  0  0  0
   39.0200   32.1090   39.8000 C   0  0  0  0  0  0  0  0  0  0  0  0
   39.9870   32.5500   39.5450 H   0  0  0  0  0  0  0  0  0  0  0  0
   37.9380   32.9280   40.0980 C   0  0  0  0  0  0  0  0  0  0  0  0
   38.0670   34.1610   40.0750 O   0  0  0  0  0  0  0  0  0  0  0  0
   36.7530   32.3840   40.4110 N   0  0  0  0  0  0  0  0  0  0  0  0
   36.7050   31.0400   40.4100 C   0  0  0  0  0  0  0  0  0  0  0  0
   35.5840   30.5080   40.7060 O   0  0  0  0  0  0  0  0  0  0  0  0
   35.8970   32.9300   40.6460 H   0  0  0  0  0  0  0  0  0  0  0  0
   37.9430   27.5600   43.6760 C   0  0  0  0  0  0  0  0  0  0  0  0
   37.3620   28.1550   42.5430 C   0  0  0  0  0  0  0  0  0  0  0  0
   38.1050   28.1240   41.3520 C   0  0  0  0  0  0  0  0  0  0  0  0
   39.3390   27.5240   41.3530 N   0  0  0  0  0  0  0  0  0  0  0  0
   39.8500   26.9660   42.4730 C   0  0  0  0  0  0  0  0  0  0  0  0
   39.1530   26.9840   43.6310 N   0  0  0  0  0  0  0  0  0  0  0  0
   37.3500   27.5980   44.5790 H   0  0  0  0  0  0  0  0  0  0  0  0
   36.3800   28.6130   42.6170 H   0  0  0  0  0  0  0  0  0  0  0  0
   40.8090   26.5520   42.2810 H   0  0  0  0  0  0  0  0  0  0  0  0
  1  2  1  0  0  0  0
  1 16  1  0  0  0  0
  3  1  1  0  0  0  0
  4  1  1  0  0  0  0
  4 11  1  0  0  0  0
  5  4  1  0  0  0  0
  6  5  2  0  0  0  0
  6  8  1  0  0  0  0
  7  6  1  0  0  0  0
  8 10  1  0  0  0  0
  9  8  2  0  0  0  0
 10 13  1  0  0  0  0
 11 10  1  0  0  0  0
 11 12  2  0  0  0  0
 14 20  1  0  0  0  0
 15 21  1  0  0  0  0
 15 14  2  0  0  0  0
 16 17  2  0  0  0  0
 16 15  1  0  0  0  0
 17 18  1  0  0  0  0
 18 19  2  0  0  0  0
 19 14  1  0  0  0  0
 22 18  1  0  0  0  0
M  END
>  <minimizedAffinity>
-4.29148769

$$$$

 OpenBabel03252509303D

 22 23  0  0  0  0  0  0  0  0999 V2000
   37.4320   28.4120   43.4640 C   0  0  0  0  0  0  0  0  0  0  0  0
   37.5600   28.6810   44.5370 H   0  0  0  0  0  0  0  0  0  0  0  0
   36.3610   28.3420   43.2200 H   0  0  0  0  0  0  0  0  0  0  0  0
   37.9760   29.4800   42.6220 N   0  0  0  0  0  0  0  0  0  0  0  0
   39.1910   30.0650   42.8380 C   0  0  0  0  0  3  0  0  0  0  0  0
   39.5710   31.0530   41.9680 C   0  0  0  0  0  0  0  0  0  0  0  0
   40.5430   31.5230   42.1400 H   0  0  0  0  0  0  0  0  0  0  0  0
   38.7770   31.4640   40.9040 C   0  0  0  0  0  0  0  0  0  0  0  0
   39.1700   32.3640   40.1470 O   0  0  0  0  0  0  0  0  0  0  0  0
   37.5850   30.8870   40.6960 N   0  0  0  0  0  0  0  0  0  0  0  0
   37.2400   29.9200   41.5660 C   0  0  0  0  0  0  0  0  0  0  0  0
   36.1090   29.3620   41.3800 O   0  0  0  0  0  0  0  0  0  0  0  0
   36.9350   31.1380   39.9220 H   0  0  0  0  0  0  0  0  0  0  0  0
   37.9480   24.9740   42.1330 C   0  0  0  0  0  0  0  0  0  0  0  0
   37.3490   26.2190   42.3960 C   0  0  0  0  0  0  0  0  0  0  0  0
   38.0690   27.1190   43.1980 C   0  0  0  0  0  0  0  0  0  0  0  0
   39.3000   26.7450   43.6780 N   0  0  0  0  0  0  0  0  0  0  0  0
   39.8280   25.5340   43.3930 C   0  0  0  0  0  0  0  0  0  0  0  0
   39.1530   24.6520   42.6230 N   0  0  0  0  0  0  0  0  0  0  0  0
   37.3730   24.3020   41.5130 H   0  0  0  0  0  0  0  0  0  0  0  0
   36.3710   26.4450   41.9830 H   0  0  0  0  0  0  0  0  0  0  0  0
   40.7810   25.4260   43.8490 H   0  0  0  0  0  0  0  0  0  0  0  0
  1  2  1  0  0  0  0
  3  1  1  0  0  0  0
  4  5  1  0  0  0  0
  4  1  1  0  0  0  0
  6  7  1  0  0  0  0
  6  5  2  0  0  0  0
  8  6  1  0  0  0  0
  9  8  2  0  0  0  0
 10  8  1  0  0  0  0
 10 11  1  0  0  0  0
 11  4  1  0  0  0  0
 12 11  2  0  0  0  0
 13 10  1  0  0  0  0
 14 15  2  0  0  0  0
 14 19  1  0  0  0  0
 15 16  1  0  0  0  0
 16  1  1  0  0  0  0
 16 17  2  0  0  0  0
 18 17  1  0  0  0  0
 18 22  1  0  0  0  0
 19 18  2  0  0  0  0
 20 14  1  0  0  0  0
 21 15  1  0  0  0  0
M  END
>  <minimizedAffinity>
-4.20941544

$$$$

 OpenBabel03252509303D

 22 23  0  0  0  0  0  0  0  0999 V2000
   35.7210   28.8810   40.9890 C   0  0  0  0  0  0  0  0  0  0  0  0
   35.1270   28.1570   40.3870 H   0  0  0  0  0  0  0  0  0  0  0  0
   35.0760   29.3650   41.7380 H   0  0  0  0  0  0  0  0  0  0  0  0
   36.7530   28.1630   41.7400 N   0  0  0  0  0  0  0  0  0  0  0  0
   37.3520   28.6590   42.8630 C   0  0  0  0  0  3  0  0  0  0  0  0
   38.3020   27.8750   43.4620 C   0  0  0  0  0  0  0  0  0  0  0  0
   38.7830   28.2710   44.3600 H   0  0  0  0  0  0  0  0  0  0  0  0
   38.6630   26.6250   42.9730 C   0  0  0  0  0  0  0  0  0  0  0  0
   39.5300   25.9570   43.5550 O   0  0  0  0  0  0  0  0  0  0  0  0
   38.0730   26.1410   41.8700 N   0  0  0  0  0  0  0  0  0  0  0  0
   37.1430   26.9340   41.3050 C   0  0  0  0  0  0  0  0  0  0  0  0
   36.5740   26.4870   40.2560 O   0  0  0  0  0  0  0  0  0  0  0  0
   38.2870   25.2160   41.4430 H   0  0  0  0  0  0  0  0  0  0  0  0
   37.0420   32.1690   39.8500 C   0  0  0  0  0  0  0  0  0  0  0  0
   36.4970   31.1740   40.6800 C   0  0  0  0  0  0  0  0  0  0  0  0
   36.2890   29.9080   40.1110 C   0  0  0  0  0  0  0  0  0  0  0  0
   36.6200   29.7080   38.7940 N   0  0  0  0  0  0  0  0  0  0  0  0
   37.1410   30.7020   38.0400 C   0  0  0  0  0  0  0  0  0  0  0  0
   37.3510   31.9280   38.5680 N   0  0  0  0  0  0  0  0  0  0  0  0
   37.1920   33.1330   40.3140 H   0  0  0  0  0  0  0  0  0  0  0  0
   36.2590   31.4050   41.7140 H   0  0  0  0  0  0  0  0  0  0  0  0
   37.3330   30.3610   37.0530 H   0  0  0  0  0  0  0  0  0  0  0  0
  1  3  1  0  0  0  0
  1  4  1  0  0  0  0
  2  1  1  0  0  0  0
  4  5  1  0  0  0  0
  5  6  2  0  0  0  0
  6  7  1  0  0  0  0
  8  6  1  0  0  0  0
  8  9  2  0  0  0  0
 10  8  1  0  0  0  0
 11  4  1  0  0  0  0
 11 10  1  0  0  0  0
 12 11  2  0  0  0  0
 13 10  1  0  0  0  0
 14 20  1  0  0  0  0
 14 15  1  0  0  0  0
 15 21  1  0  0  0  0
 16 15  2  0  0  0  0
 16  1  1  0  0  0  0
 17 16  1  0  0  0  0
 18 19  1  0  0  0  0
 18 17  2  0  0  0  0
 19 14  2  0  0  0  0
 22 18  1  0  0  0  0
M  END
>  <minimizedAffinity>
-4.19977951

$$$$

 OpenBabel03252509303D

 22 23  0  0  0  0  0  0  0  0999 V2000
   36.5910   30.7570   40.4520 C   0  0  0  0  0  0  0  0  0  0  0  0
   36.2580   31.6910   40.9590 H   0  0  0  0  0  0  0  0  0  0  0  0
   35.7730   30.3500   39.8390 H   0  0  0  0  0  0  0  0  0  0  0  0
   37.6830   31.0640   39.5260 N   0  0  0  0  0  0  0  0  0  0  0  0
   38.2860   30.1290   38.7330 C   0  0  0  0  0  3  0  0  0  0  0  0
   39.2960   30.5630   37.9150 C   0  0  0  0  0  0  0  0  0  0  0  0
   39.7790   29.8150   37.2800 H   0  0  0  0  0  0  0  0  0  0  0  0
   39.7120   31.8880   37.8710 C   0  0  0  0  0  0  0  0  0  0  0  0
   40.6310   32.2260   37.1110 O   0  0  0  0  0  0  0  0  0  0  0  0
   39.1170   32.8030   38.6510 N   0  0  0  0  0  0  0  0  0  0  0  0
   38.1290   32.3470   39.4420 C   0  0  0  0  0  0  0  0  0  0  0  0
   37.5540   33.2060   40.1900 O   0  0  0  0  0  0  0  0  0  0  0  0
   39.3710   33.8130   38.6740 H   0  0  0  0  0  0  0  0  0  0  0  0
   36.5970   27.6050   42.4320 C   0  0  0  0  0  0  0  0  0  0  0  0
   36.2360   28.5700   41.4760 C   0  0  0  0  0  0  0  0  0  0  0  0
   36.9790   29.7600   41.4550 C   0  0  0  0  0  0  0  0  0  0  0  0
   38.0040   29.9210   42.3540 N   0  0  0  0  0  0  0  0  0  0  0  0
   38.3080   28.9590   43.2530 C   0  0  0  0  0  0  0  0  0  0  0  0
   37.6060   27.8050   43.2910 N   0  0  0  0  0  0  0  0  0  0  0  0
   36.0080   26.6980   42.4260 H   0  0  0  0  0  0  0  0  0  0  0  0
   35.4120   28.3740   40.7960 H   0  0  0  0  0  0  0  0  0  0  0  0
   39.1260   29.2600   43.8600 H   0  0  0  0  0  0  0  0  0  0  0  0
  1  2  1  0  0  0  0
  1 16  1  0  0  0  0
  3  1  1  0  0  0  0
  4  1  1  0  0  0  0
  5  4  1  0  0  0  0
  6  5  2  0  0  0  0
  7  6  1  0  0  0  0
  8  6  1  0  0  0  0
  8 10  1  0  0  0  0
  9  8  2  0  0  0  0
 10 13  1  0  0  0  0
 10 11  1  0  0  0  0
 11  4  1  0  0  0  0
 11 12  2  0  0  0  0
 14 19  1  0  0  0  0
 15 14  2  0  0  0  0
 16 15  1  0  0  0  0
 16 17  2  0  0  0  0
 17 18  1  0  0  0  0
 18 19  2  0  0  0  0
 18 22  1  0  0  0  0
 20 14  1  0  0  0  0
 21 15  1  0  0  0  0
M  END
>  <minimizedAffinity>
-4.19418859

$$$$

 OpenBabel03252509303D

 22 23  0  0  0  0  0  0  0  0999 V2000
   39.3620   29.5420   40.8300 C   0  0  0  0  0  0  0  0  0  0  0  0
   39.7760   28.9950   39.9530 H   0  0  0  0  0  0  0  0  0  0  0  0
   40.1810   29.9030   41.4690 H   0  0  0  0  0  0  0  0  0  0  0  0
   38.6450   30.7340   40.3700 N   0  0  0  0  0  0  0  0  0  0  0  0
   37.5850   30.6910   39.5090 C   0  0  0  0  0  3  0  0  0  0  0  0
   37.0120   31.8870   39.1650 C   0  0  0  0  0  0  0  0  0  0  0  0
   36.1640   31.8540   38.4760 H   0  0  0  0  0  0  0  0  0  0  0  0
   37.4660   33.1060   39.6530 C   0  0  0  0  0  0  0  0  0  0  0  0
   36.9100   34.1590   39.3090 O   0  0  0  0  0  0  0  0  0  0  0  0
   38.5070   33.1440   40.4980 N   0  0  0  0  0  0  0  0  0  0  0  0
   39.0480   31.9530   40.8180 C   0  0  0  0  0  0  0  0  0  0  0  0
   40.0390   31.9740   41.6200 O   0  0  0  0  0  0  0  0  0  0  0  0
   38.9040   34.0160   40.9070 H   0  0  0  0  0  0  0  0  0  0  0  0
   37.3670   28.2110   43.6770 C   0  0  0  0  0  0  0  0  0  0  0  0
   38.1900   29.0600   42.9160 C   0  0  0  0  0  0  0  0  0  0  0  0
   38.5040   28.6470   41.6120 C   0  0  0  0  0  0  0  0  0  0  0  0
   38.0010   27.4550   41.1520 N   0  0  0  0  0  0  0  0  0  0  0  0
   37.2140   26.6770   41.9280 C   0  0  0  0  0  0  0  0  0  0  0  0
   36.8990   27.0550   43.1870 N   0  0  0  0  0  0  0  0  0  0  0  0
   37.1410   28.5540   44.6770 H   0  0  0  0  0  0  0  0  0  0  0  0
   38.5520   29.9890   43.3460 H   0  0  0  0  0  0  0  0  0  0  0  0
   36.9220   25.8000   41.4040 H   0  0  0  0  0  0  0  0  0  0  0  0
  1  3  1  0  0  0  0
  1 16  1  0  0  0  0
  2  1  1  0  0  0  0
  4 11  1  0  0  0  0
  4  1  1  0  0  0  0
  5  4  1  0  0  0  0
  6  5  2  0  0  0  0
  6  8  1  0  0  0  0
  7  6  1  0  0  0  0
  8 10  1  0  0  0  0
  9  8  2  0  0  0  0
 10 11  1  0  0  0  0
 10 13  1  0  0  0  0
 11 12  2  0  0  0  0
 14 20  1  0  0  0  0
 15 21  1  0  0  0  0
 15 14  2  0  0  0  0
 16 15  1  0  0  0  0
 17 16  2  0  0  0  0
 17 18  1  0  0  0  0
 18 19  2  0  0  0  0
 19 14  1  0  0  0  0
 22 18  1  0  0  0  0
M  END
>  <minimizedAffinity>
-4.09446716

$$$$

 OpenBabel03252509303D

 22 23  0  0  0  0  0  0  0  0999 V2000
   38.3100   28.8300   43.1470 C   0  0  0  0  0  0  0  0  0  0  0  0
   37.6120   28.8820   44.0130 H   0  0  0  0  0  0  0  0  0  0  0  0
   39.3470   28.9580   43.4920 H   0  0  0  0  0  0  0  0  0  0  0  0
   38.2410   27.4990   42.5410 N   0  0  0  0  0  0  0  0  0  0  0  0
   39.2110   26.9910   41.7250 C   0  0  0  0  0  3  0  0  0  0  0  0
   39.0110   25.7290   41.2290 C   0  0  0  0  0  0  0  0  0  0  0  0
   39.7860   25.3210   40.5750 H   0  0  0  0  0  0  0  0  0  0  0  0
   37.8820   24.9750   41.5250 C   0  0  0  0  0  0  0  0  0  0  0  0
   37.7520   23.8380   41.0490 O   0  0  0  0  0  0  0  0  0  0  0  0
   36.9320   25.4780   42.3270 N   0  0  0  0  0  0  0  0  0  0  0  0
   37.1570   26.7180   42.7980 C   0  0  0  0  0  0  0  0  0  0  0  0
   36.2620   27.2090   43.5620 O   0  0  0  0  0  0  0  0  0  0  0  0
   36.0600   24.9750   42.5960 H   0  0  0  0  0  0  0  0  0  0  0  0
   38.7510   31.7690   40.9060 C   0  0  0  0  0  0  0  0  0  0  0  0
   39.0430   30.7450   41.8240 C   0  0  0  0  0  0  0  0  0  0  0  0
   37.9900   29.8930   42.1890 C   0  0  0  0  0  0  0  0  0  0  0  0
   36.7480   30.0970   41.6420 N   0  0  0  0  0  0  0  0  0  0  0  0
   36.5220   31.0980   40.7620 C   0  0  0  0  0  0  0  0  0  0  0  0
   37.5220   31.9310   40.3960 N   0  0  0  0  0  0  0  0  0  0  0  0
   39.5800   32.4100   40.6420 H   0  0  0  0  0  0  0  0  0  0  0  0
   40.0510   30.6450   42.2170 H   0  0  0  0  0  0  0  0  0  0  0  0
   35.5080   31.0980   40.4480 H   0  0  0  0  0  0  0  0  0  0  0  0
  1  3  1  0  0  0  0
  1  2  1  0  0  0  0
  4 11  1  0  0  0  0
  4  1  1  0  0  0  0
  5  4  1  0  0  0  0
  6  8  1  0  0  0  0
  6  5  2  0  0  0  0
  7  6  1  0  0  0  0
  8 10  1  0  0  0  0
  9  8  2  0  0  0  0
 10 13  1  0  0  0  0
 10 11  1  0  0  0  0
 11 12  2  0  0  0  0
 14 15  1  0  0  0  0
 15 16  2  0  0  0  0
 15 21  1  0  0  0  0
 16  1  1  0  0  0  0
 17 16  1  0  0  0  0
 18 17  2  0  0  0  0
 19 18  1  0  0  0  0
 19 14  2  0  0  0  0
 20 14  1  0  0  0  0
 22 18  1  0  0  0  0
M  END
>  <minimizedAffinity>
-4.09233618

$$$$

 OpenBabel03252509303D

 22 23  0  0  0  0  0  0  0  0999 V2000
   38.4600   27.1230   43.5240 C   0  0  0  0  0  0  0  0  0  0  0  0
   37.6900   27.2150   44.3230 H   0  0  0  0  0  0  0  0  0  0  0  0
   39.4530   26.9740   43.9740 H   0  0  0  0  0  0  0  0  0  0  0  0
   38.1910   25.9290   42.7190 N   0  0  0  0  0  0  0  0  0  0  0  0
   37.0820   25.7820   41.9350 C   0  0  0  0  0  3  0  0  0  0  0  0
   36.9630   24.6090   41.2370 C   0  0  0  0  0  0  0  0  0  0  0  0
   36.0760   24.4900   40.6090 H   0  0  0  0  0  0  0  0  0  0  0  0
   37.9110   23.5960   41.3030 C   0  0  0  0  0  0  0  0  0  0  0  0
   37.7530   22.5540   40.6490 O   0  0  0  0  0  0  0  0  0  0  0  0
   38.9980   23.7440   42.0730 N   0  0  0  0  0  0  0  0  0  0  0  0
   39.0880   24.9060   42.7460 C   0  0  0  0  0  0  0  0  0  0  0  0
   40.1160   25.0610   43.4830 O   0  0  0  0  0  0  0  0  0  0  0  0
   39.7520   23.0320   42.1740 H   0  0  0  0  0  0  0  0  0  0  0  0
   39.7550   29.8800   41.3830 C   0  0  0  0  0  0  0  0  0  0  0  0
   39.7200   28.7100   42.1630 C   0  0  0  0  0  0  0  0  0  0  0  0
   38.4810   28.3450   42.7130 C   0  0  0  0  0  0  0  0  0  0  0  0
   37.3850   29.1330   42.4670 N   0  0  0  0  0  0  0  0  0  0  0  0
   37.4760   30.2480   41.7090 C   0  0  0  0  0  0  0  0  0  0  0  0
   38.6580   30.6190   41.1690 N   0  0  0  0  0  0  0  0  0  0  0  0
   40.7210   30.1380   40.9720 H   0  0  0  0  0  0  0  0  0  0  0  0
   40.6290   28.1370   42.3160 H   0  0  0  0  0  0  0  0  0  0  0  0
   36.5300   30.7240   41.6290 H   0  0  0  0  0  0  0  0  0  0  0  0
  1  3  1  0  0  0  0
  1  2  1  0  0  0  0
  4 11  1  0  0  0  0
  4  1  1  0  0  0  0
  5  4  1  0  0  0  0
  6  8  1  0  0  0  0
  6  5  2  0  0  0  0
  7  6  1  0  0  0  0
  8 10  1  0  0  0  0
  9  8  2  0  0  0  0
 10 13  1  0  0  0  0
 10 11  1  0  0  0  0
 11 12  2  0  0  0  0
 14 15  1  0  0  0  0
 15 21  1  0  0  0  0
 15 16  2  0  0  0  0
 16  1  1  0  0  0  0
 17 16  1  0  0  0  0
 18 17  2  0  0  0  0
 19 14  2  0  0  0  0
 19 18  1  0  0  0  0
 20 14  1  0  0  0  0
 22 18  1  0  0  0  0
M  END
>  <minimizedAffinity>
-4.04120302

$$$$

 OpenBabel03252509303D

 22 23  0  0  0  0  0  0  0  0999 V2000
   37.4170   31.2630   39.5270 C   0  0  0  0  0  0  0  0  0  0  0  0
   37.0180   32.0540   40.2020 H   0  0  0  0  0  0  0  0  0  0  0  0
   36.7240   31.1000   38.6880 H   0  0  0  0  0  0  0  0  0  0  0  0
   38.6790   31.7140   38.9360 N   0  0  0  0  0  0  0  0  0  0  0  0
   39.7780   32.0520   39.6720 C   0  0  0  0  0  3  0  0  0  0  0  0
   40.8900   32.4570   38.9810 C   0  0  0  0  0  0  0  0  0  0  0  0
   41.7710   32.7290   39.5690 H   0  0  0  0  0  0  0  0  0  0  0  0
   40.9290   32.5320   37.5950 C   0  0  0  0  0  0  0  0  0  0  0  0
   41.9620   32.9060   37.0210 O   0  0  0  0  0  0  0  0  0  0  0  0
   39.8470   32.1990   36.8760 N   0  0  0  0  0  0  0  0  0  0  0  0
   38.7710   31.8050   37.5810 C   0  0  0  0  0  0  0  0  0  0  0  0
   37.7340   31.4850   36.9110 O   0  0  0  0  0  0  0  0  0  0  0  0
   39.7980   32.2280   35.8350 H   0  0  0  0  0  0  0  0  0  0  0  0
   37.3480   28.8390   42.3520 C   0  0  0  0  0  0  0  0  0  0  0  0
   37.2050   30.0350   41.6260 C   0  0  0  0  0  0  0  0  0  0  0  0
   37.5710   30.0090   40.2710 C   0  0  0  0  0  0  0  0  0  0  0  0
   38.0420   28.8380   39.7310 N   0  0  0  0  0  0  0  0  0  0  0  0
   38.1580   27.7160   40.4760 C   0  0  0  0  0  0  0  0  0  0  0  0
   37.8120   27.7180   41.7820 N   0  0  0  0  0  0  0  0  0  0  0  0
   37.0590   28.8880   43.3920 H   0  0  0  0  0  0  0  0  0  0  0  0
   36.8270   30.9250   42.1200 H   0  0  0  0  0  0  0  0  0  0  0  0
   38.5360   26.9160   39.8890 H   0  0  0  0  0  0  0  0  0  0  0  0
  1  2  1  0  0  0  0
  1 16  1  0  0  0  0
  3  1  1  0  0  0  0
  4  1  1  0  0  0  0
  4  5  1  0  0  0  0
  6  7  1  0  0  0  0
  6  5  2  0  0  0  0
  8  6  1  0  0  0  0
  9  8  2  0  0  0  0
 10 11  1  0  0  0  0
 10  8  1  0  0  0  0
 11  4  1  0  0  0  0
 12 11  2  0  0  0  0
 13 10  1  0  0  0  0
 14 20  1  0  0  0  0
 15 21  1  0  0  0  0
 15 14  2  0  0  0  0
 16 15  1  0  0  0  0
 17 16  2  0  0  0  0
 17 18  1  0  0  0  0
 18 19  2  0  0  0  0
 19 14  1  0  0  0  0
 22 18  1  0  0  0  0
M  END
>  <minimizedAffinity>
-4.02906084

$$$$
