REMARK  Name = 
REMARK  2 active torsions:
REMARK  status: ('A' for Active; 'I' for Inactive)
REMARK    1  A    between atoms: C_2  and  C_7
REMARK    2  A    between atoms: C_7  and  N_13
REMARK                            x       y       z     vdW  Elec       q    Type
REMARK                         _______ _______ _______ _____ _____    ______ ____
ROOT
ATOM      1  C   UNL     1      44.257  35.728  42.017  0.00  0.00    +0.000 C 
ATOM      2  H   UNL     1      44.366  36.816  42.107  0.00  0.00    +0.000 HD
ATOM      3  H   UNL     1      44.904  35.382  41.163  0.00  0.00    +0.000 HD
ENDROOT
BRANCH   1   4
ATOM      4  N   UNL     1      42.894  35.326  41.704  0.00  0.00    +0.000 N 
ATOM      5  C   UNL     1      41.979  35.302  42.675  0.00  0.00    +0.000 A 
ATOM      6  C   UNL     1      40.687  34.911  42.333  0.00  0.00    +0.000 A 
ATOM      7  H   UNL     1      39.903  34.877  43.099  0.00  0.00    +0.000 HD
ATOM      8  C   UNL     1      40.366  34.563  41.044  0.00  0.00    +0.000 A 
ATOM      9  O   UNL     1      39.187  34.215  40.773  0.00  0.00    +0.000 OA
ATOM     10  N   UNL     1      41.326  34.602  40.093  0.00  0.00    +0.000 N 
ATOM     11  C   UNL     1      42.593  34.983  40.417  0.00  0.00    +0.000 A 
ATOM     12  O   UNL     1      43.431  34.995  39.482  0.00  0.00    +0.000 OA
ATOM     13  H   UNL     1      41.077  34.335  39.110  0.00  0.00    +0.000 HD
ENDBRANCH   1   4
BRANCH   1  15
ATOM     14  C   UNL     1      44.388  35.767  44.431  0.00  0.00    +0.000 A 
ATOM     15  C   UNL     1      44.670  35.055  43.253  0.00  0.00    +0.000 A 
ATOM     16  C   UNL     1      45.294  33.824  43.392  0.00  0.00    +0.000 A 
ATOM     17  N   UNL     1      45.592  33.382  44.628  0.00  0.00    +0.000 NA
ATOM     18  C   UNL     1      45.302  34.102  45.743  0.00  0.00    +0.000 A 
ATOM     19  N   UNL     1      44.696  35.307  45.673  0.00  0.00    +0.000 NA
ATOM     20  H   UNL     1      43.907  36.731  44.434  0.00  0.00    +0.000 HD
ATOM     21  H   UNL     1      45.489  33.318  42.477  0.00  0.00    +0.000 HD
ATOM     22  H   UNL     1      45.592  33.638  46.668  0.00  0.00    +0.000 HD
ENDBRANCH   1  15
TORSDOF 2
