REMARK  Name = 
REMARK  2 active torsions:
REMARK  status: ('A' for Active; 'I' for Inactive)
REMARK    1  A    between atoms: C_3  and  C_7
REMARK    2  A    between atoms: C_7  and  N_13
REMARK                            x       y       z     vdW  Elec       q    Type
REMARK                         _______ _______ _______ _____ _____    ______ ____
ROOT
ATOM      1  C   UNL     1      46.959  34.781  41.921  0.00  0.00    +0.000 C 
ATOM      2  H   UNL     1      46.349  35.190  41.084  0.00  0.00    +0.000 HD
ATOM      3  H   UNL     1      47.218  33.731  41.719  0.00  0.00    +0.000 HD
ENDROOT
BRANCH   1   4
ATOM      4  N   UNL     1      48.228  35.508  42.003  0.00  0.00    +0.000 N 
ATOM      5  C   UNL     1      48.364  36.826  41.675  0.00  0.00    +0.000 A 
ATOM      6  C   UNL     1      49.614  37.375  41.801  0.00  0.00    +0.000 A 
ATOM      7  H   UNL     1      49.724  38.430  41.538  0.00  0.00    +0.000 HD
ATOM      8  C   UNL     1      50.713  36.649  42.240  0.00  0.00    +0.000 A 
ATOM      9  O   UNL     1      51.821  37.194  42.336  0.00  0.00    +0.000 OA
ATOM     10  N   UNL     1      50.575  35.353  42.561  0.00  0.00    +0.000 N 
ATOM     11  C   UNL     1      49.336  34.844  42.427  0.00  0.00    +0.000 A 
ATOM     12  O   UNL     1      49.190  33.614  42.729  0.00  0.00    +0.000 OA
ATOM     13  H   UNL     1      51.349  34.743  42.897  0.00  0.00    +0.000 HD
ENDBRANCH   1   4
BRANCH   1  16
ATOM     14  C   UNL     1      44.563  36.010  44.491  0.00  0.00    +0.000 A 
ATOM     15  C   UNL     1      45.301  35.927  43.297  0.00  0.00    +0.000 A 
ATOM     16  C   UNL     1      46.197  34.854  43.171  0.00  0.00    +0.000 A 
ATOM     17  N   UNL     1      46.307  33.954  44.202  0.00  0.00    +0.000 NA
ATOM     18  C   UNL     1      45.572  34.082  45.329  0.00  0.00    +0.000 A 
ATOM     19  N   UNL     1      44.703  35.107  45.472  0.00  0.00    +0.000 NA
ATOM     20  H   UNL     1      43.881  36.845  44.561  0.00  0.00    +0.000 HD
ATOM     21  H   UNL     1      45.162  36.677  42.524  0.00  0.00    +0.000 HD
ATOM     22  H   UNL     1      45.791  33.296  46.009  0.00  0.00    +0.000 HD
ENDBRANCH   1  16
TORSDOF 2
