
 OpenBabel03252509293D

 22 23  0  0  0  0  0  0  0  0999 V2000
   46.6860   34.8820   42.8640 C   0  0  0  0  0  0  0  0  0  0  0  0
   47.5540   34.6350   42.2120 H   0  0  0  0  0  0  0  0  0  0  0  0
   46.8060   35.8920   43.2830 H   0  0  0  0  0  0  0  0  0  0  0  0
   45.4630   34.9150   42.0590 N   0  0  0  0  0  0  0  0  0  0  0  0
   44.3050   35.5090   42.4720 C   0  0  0  0  0  3  0  0  0  0  0  0
   43.2380   35.4620   41.6130 C   0  0  0  0  0  0  0  0  0  0  0  0
   42.3100   35.9370   41.9430 H   0  0  0  0  0  0  0  0  0  0  0  0
   43.3010   34.8470   40.3690 C   0  0  0  0  0  0  0  0  0  0  0  0
   42.3070   34.8350   39.6300 O   0  0  0  0  0  0  0  0  0  0  0  0
   44.4410   34.2660   39.9660 N   0  0  0  0  0  0  0  0  0  0  0  0
   45.4700   34.3280   40.8330 C   0  0  0  0  0  0  0  0  0  0  0  0
   46.5600   33.7790   40.4630 O   0  0  0  0  0  0  0  0  0  0  0  0
   44.5680   33.7860   39.0510 H   0  0  0  0  0  0  0  0  0  0  0  0
   47.2060   31.7620   44.8260 C   0  0  0  0  0  0  0  0  0  0  0  0
   47.2790   32.7000   43.7810 C   0  0  0  0  0  0  0  0  0  0  0  0
   46.6000   33.9150   43.9620 C   0  0  0  0  0  0  0  0  0  0  0  0
   45.9100   34.1240   45.1300 N   0  0  0  0  0  0  0  0  0  0  0  0
   45.8730   33.1870   46.1030 C   0  0  0  0  0  0  0  0  0  0  0  0
   46.5190   32.0100   45.9500 N   0  0  0  0  0  0  0  0  0  0  0  0
   47.7380   30.8360   44.6610 H   0  0  0  0  0  0  0  0  0  0  0  0
   47.8440   32.4640   42.8840 H   0  0  0  0  0  0  0  0  0  0  0  0
   45.2940   33.5260   46.9260 H   0  0  0  0  0  0  0  0  0  0  0  0
  1  3  1  0  0  0  0
  1 16  1  0  0  0  0
  2  1  1  0  0  0  0
  4  5  1  0  0  0  0
  4  1  1  0  0  0  0
  6  7  1  0  0  0  0
  6  5  2  0  0  0  0
  8  6  1  0  0  0  0
  9  8  2  0  0  0  0
 10  8  1  0  0  0  0
 10 11  1  0  0  0  0
 11  4  1  0  0  0  0
 12 11  2  0  0  0  0
 13 10  1  0  0  0  0
 14 19  1  0  0  0  0
 15 16  1  0  0  0  0
 15 14  2  0  0  0  0
 16 17  2  0  0  0  0
 17 18  1  0  0  0  0
 18 22  1  0  0  0  0
 19 18  2  0  0  0  0
 20 14  1  0  0  0  0
 21 15  1  0  0  0  0
M  END
>  <minimizedAffinity>
-4.10967207

>  <minimizedRMSD>
4.9741888

$$$$
