
 OpenBabel03252500403D

 22 23  0  0  0  0  0  0  0  0999 V2000
   36.8280   27.3130   43.0180 C   0  0  0  0  0  0  0  0  0  0  0  0
   35.8010   27.0070   43.2980 H   0  0  0  0  0  0  0  0  0  0  0  0
   37.3480   27.5380   43.9700 H   0  0  0  0  0  0  0  0  0  0  0  0
   36.8280   28.4880   42.1630 N   0  0  0  0  0  0  0  0  0  0  0  0
   35.9250   28.4840   41.1380 C   0  0  0  0  0  3  0  0  0  0  0  0
   35.8040   29.5320   40.2370 C   0  0  0  0  0  0  0  0  0  0  0  0
   35.0770   29.4920   39.4390 H   0  0  0  0  0  0  0  0  0  0  0  0
   36.6540   30.6160   40.4140 C   0  0  0  0  0  0  0  0  0  0  0  0
   36.5780   31.5870   39.6190 O   0  0  0  0  0  0  0  0  0  0  0  0
   37.5300   30.5700   41.4430 N   0  0  0  0  0  0  0  0  0  0  0  0
   37.6350   29.5520   42.3040 C   0  0  0  0  0  0  0  0  0  0  0  0
   38.4490   29.5360   43.2420 O   0  0  0  0  0  0  0  0  0  0  0  0
   38.1730   31.3880   41.5780 H   0  0  0  0  0  0  0  0  0  0  0  0
   37.5550   26.1690   42.3920 C   0  0  0  0  0  0  0  0  0  0  0  0
   36.8150   25.0120   42.1180 C   0  0  0  0  0  0  0  0  0  0  0  0
   37.4940   23.9320   41.5290 C   0  0  0  0  0  0  0  0  0  0  0  0
   38.8190   24.0810   41.2630 N   0  0  0  0  0  0  0  0  0  0  0  0
   39.4950   25.2260   41.5460 C   0  0  0  0  0  0  0  0  0  0  0  0
   38.8510   26.2660   42.1120 N   0  0  0  0  0  0  0  0  0  0  0  0
   35.7820   24.8740   42.3180 H   0  0  0  0  0  0  0  0  0  0  0  0
   36.9650   23.0210   41.3010 H   0  0  0  0  0  0  0  0  0  0  0  0
   40.5520   25.2820   41.3100 H   0  0  0  0  0  0  0  0  0  0  0  0
  1  2  1  0  0  0  0
  1  3  1  0  0  0  0
  4 11  1  0  0  0  0
  4  1  1  0  0  0  0
  5  4  1  0  0  0  0
  6  8  1  0  0  0  0
  6  5  2  0  0  0  0
  7  6  1  0  0  0  0
  8 10  1  0  0  0  0
  9  8  2  0  0  0  0
 10 13  1  0  0  0  0
 10 11  1  0  0  0  0
 11 12  2  0  0  0  0
 14  1  1  0  0  0  0
 15 20  1  0  0  0  0
 15 14  1  0  0  0  0
 16 15  2  0  0  0  0
 17 16  1  0  0  0  0
 17 18  2  0  0  0  0
 18 19  1  0  0  0  0
 19 14  2  0  0  0  0
 21 16  1  0  0  0  0
 22 18  1  0  0  0  0
M  END
>  <minimizedAffinity>
-4.31222153

$$$$

 OpenBabel03252500403D

 22 23  0  0  0  0  0  0  0  0999 V2000
   35.6260   28.9460   40.9420 C   0  0  0  0  0  0  0  0  0  0  0  0
   34.8980   29.3300   41.6840 H   0  0  0  0  0  0  0  0  0  0  0  0
   35.0330   28.3630   40.2080 H   0  0  0  0  0  0  0  0  0  0  0  0
   36.6290   28.0950   41.5580 N   0  0  0  0  0  0  0  0  0  0  0  0
   37.1670   28.5530   42.7270 C   0  0  0  0  0  3  0  0  0  0  0  0
   38.1340   27.8550   43.4350 C   0  0  0  0  0  0  0  0  0  0  0  0
   38.5360   28.2490   44.3570 H   0  0  0  0  0  0  0  0  0  0  0  0
   38.5520   26.6410   42.9020 C   0  0  0  0  0  0  0  0  0  0  0  0
   39.4280   25.9770   43.5120 O   0  0  0  0  0  0  0  0  0  0  0  0
   37.9880   26.2340   41.7420 N   0  0  0  0  0  0  0  0  0  0  0  0
   37.0560   26.9180   41.0720 C   0  0  0  0  0  0  0  0  0  0  0  0
   36.5540   26.5200   40.0070 O   0  0  0  0  0  0  0  0  0  0  0  0
   38.3020   25.3180   41.3390 H   0  0  0  0  0  0  0  0  0  0  0  0
   36.2430   30.0790   40.1900 C   0  0  0  0  0  0  0  0  0  0  0  0
   36.4950   29.8830   38.8270 C   0  0  0  0  0  0  0  0  0  0  0  0
   37.0750   30.9460   38.1150 C   0  0  0  0  0  0  0  0  0  0  0  0
   37.3520   32.0910   38.7930 N   0  0  0  0  0  0  0  0  0  0  0  0
   37.0890   32.2350   40.1190 C   0  0  0  0  0  0  0  0  0  0  0  0
   36.5330   31.2200   40.8090 N   0  0  0  0  0  0  0  0  0  0  0  0
   36.2870   28.9980   38.2780 H   0  0  0  0  0  0  0  0  0  0  0  0
   37.2870   30.8400   37.0630 H   0  0  0  0  0  0  0  0  0  0  0  0
   37.3330   33.1740   40.6030 H   0  0  0  0  0  0  0  0  0  0  0  0
  1  4  1  0  0  0  0
  1  2  1  0  0  0  0
  3  1  1  0  0  0  0
  4  5  1  0  0  0  0
  5  6  2  0  0  0  0
  6  7  1  0  0  0  0
  8  6  1  0  0  0  0
  8  9  2  0  0  0  0
 10  8  1  0  0  0  0
 11  4  1  0  0  0  0
 11 10  1  0  0  0  0
 12 11  2  0  0  0  0
 13 10  1  0  0  0  0
 14 19  1  0  0  0  0
 14  1  1  0  0  0  0
 15 14  2  0  0  0  0
 16 17  2  0  0  0  0
 16 15  1  0  0  0  0
 17 18  1  0  0  0  0
 18 22  1  0  0  0  0
 18 19  2  0  0  0  0
 20 15  1  0  0  0  0
 21 16  1  0  0  0  0
M  END
>  <minimizedAffinity>
-4.27505207

$$$$

 OpenBabel03252500403D

 22 23  0  0  0  0  0  0  0  0999 V2000
   37.5870   28.7250   40.1290 C   0  0  0  0  0  0  0  0  0  0  0  0
   38.0580   28.3170   39.2130 H   0  0  0  0  0  0  0  0  0  0  0  0
   36.5290   28.3920   40.1000 H   0  0  0  0  0  0  0  0  0  0  0  0
   37.6510   30.1750   40.1710 N   0  0  0  0  0  0  0  0  0  0  0  0
   38.8650   30.7300   39.8820 C   0  0  0  0  0  3  0  0  0  0  0  0
   39.0860   32.1000   39.8810 C   0  0  0  0  0  0  0  0  0  0  0  0
   40.0610   32.5010   39.6470 H   0  0  0  0  0  0  0  0  0  0  0  0
   38.0030   32.9130   40.1920 C   0  0  0  0  0  0  0  0  0  0  0  0
   38.1600   34.1600   40.2020 O   0  0  0  0  0  0  0  0  0  0  0  0
   36.8230   32.3130   40.4710 N   0  0  0  0  0  0  0  0  0  0  0  0
   36.6260   30.9910   40.4680 C   0  0  0  0  0  0  0  0  0  0  0  0
   35.5310   30.4660   40.7280 O   0  0  0  0  0  0  0  0  0  0  0  0
   36.0050   32.9260   40.7060 H   0  0  0  0  0  0  0  0  0  0  0  0
   38.1970   28.1050   41.3430 C   0  0  0  0  0  0  0  0  0  0  0  0
   37.4660   28.1730   42.5350 C   0  0  0  0  0  0  0  0  0  0  0  0
   38.0360   27.5910   43.6800 C   0  0  0  0  0  0  0  0  0  0  0  0
   39.2550   27.0020   43.5550 N   0  0  0  0  0  0  0  0  0  0  0  0
   39.9280   26.9610   42.3750 C   0  0  0  0  0  0  0  0  0  0  0  0
   39.3880   27.5170   41.2720 N   0  0  0  0  0  0  0  0  0  0  0  0
   36.5140   28.6280   42.6540 H   0  0  0  0  0  0  0  0  0  0  0  0
   37.5090   27.6200   44.6200 H   0  0  0  0  0  0  0  0  0  0  0  0
   40.8980   26.4760   42.3410 H   0  0  0  0  0  0  0  0  0  0  0  0
  1  4  1  0  0  0  0
  1 14  1  0  0  0  0
  2  1  1  0  0  0  0
  3  1  1  0  0  0  0
  4 11  1  0  0  0  0
  5  4  1  0  0  0  0
  6  5  2  0  0  0  0
  6  8  1  0  0  0  0
  7  6  1  0  0  0  0
  8  9  2  0  0  0  0
  8 10  1  0  0  0  0
 10 13  1  0  0  0  0
 11 10  1  0  0  0  0
 11 12  2  0  0  0  0
 14 15  1  0  0  0  0
 15 20  1  0  0  0  0
 15 16  2  0  0  0  0
 16 21  1  0  0  0  0
 17 16  1  0  0  0  0
 18 17  2  0  0  0  0
 19 14  2  0  0  0  0
 19 18  1  0  0  0  0
 22 18  1  0  0  0  0
M  END
>  <minimizedAffinity>
-4.20645142

$$$$

 OpenBabel03252500403D

 22 23  0  0  0  0  0  0  0  0999 V2000
   36.5560   30.9030   40.3860 C   0  0  0  0  0  0  0  0  0  0  0  0
   35.7040   30.5210   39.7900 H   0  0  0  0  0  0  0  0  0  0  0  0
   36.1640   31.7680   40.9570 H   0  0  0  0  0  0  0  0  0  0  0  0
   37.6620   31.3240   39.5430 N   0  0  0  0  0  0  0  0  0  0  0  0
   38.2020   30.3620   38.7380 C   0  0  0  0  0  3  0  0  0  0  0  0
   39.2620   30.6080   37.8770 C   0  0  0  0  0  0  0  0  0  0  0  0
   39.6620   29.8210   37.2550 H   0  0  0  0  0  0  0  0  0  0  0  0
   39.7710   31.9010   37.8590 C   0  0  0  0  0  0  0  0  0  0  0  0
   40.7320   32.1660   37.0940 O   0  0  0  0  0  0  0  0  0  0  0  0
   39.2010   32.8150   38.6760 N   0  0  0  0  0  0  0  0  0  0  0  0
   38.1790   32.5620   39.5010 C   0  0  0  0  0  0  0  0  0  0  0  0
   37.6740   33.4220   40.2410 O   0  0  0  0  0  0  0  0  0  0  0  0
   39.5850   33.7910   38.6640 H   0  0  0  0  0  0  0  0  0  0  0  0
   36.9800   29.8830   41.3910 C   0  0  0  0  0  0  0  0  0  0  0  0
   36.2600   28.6830   41.4300 C   0  0  0  0  0  0  0  0  0  0  0  0
   36.6550   27.7200   42.3730 C   0  0  0  0  0  0  0  0  0  0  0  0
   37.7060   28.0150   43.1840 N   0  0  0  0  0  0  0  0  0  0  0  0
   38.3750   29.1960   43.1100 C   0  0  0  0  0  0  0  0  0  0  0  0
   38.0020   30.1250   42.2070 N   0  0  0  0  0  0  0  0  0  0  0  0
   35.4380   28.4320   40.8070 H   0  0  0  0  0  0  0  0  0  0  0  0
   36.1300   26.7800   42.4390 H   0  0  0  0  0  0  0  0  0  0  0  0
   39.2050   29.3710   43.7850 H   0  0  0  0  0  0  0  0  0  0  0  0
  1  3  1  0  0  0  0
  1 14  1  0  0  0  0
  2  1  1  0  0  0  0
  4  1  1  0  0  0  0
  5  4  1  0  0  0  0
  6  5  2  0  0  0  0
  7  6  1  0  0  0  0
  8  6  1  0  0  0  0
  8 10  1  0  0  0  0
  9  8  2  0  0  0  0
 10 11  1  0  0  0  0
 11  4  1  0  0  0  0
 11 12  2  0  0  0  0
 13 10  1  0  0  0  0
 14 15  2  0  0  0  0
 14 19  1  0  0  0  0
 15 16  1  0  0  0  0
 16 21  1  0  0  0  0
 16 17  2  0  0  0  0
 18 17  1  0  0  0  0
 18 22  1  0  0  0  0
 19 18  2  0  0  0  0
 20 15  1  0  0  0  0
M  END
>  <minimizedAffinity>
-4.19124794

$$$$

 OpenBabel03252500403D

 22 23  0  0  0  0  0  0  0  0999 V2000
   39.4180   30.2400   40.4900 C   0  0  0  0  0  0  0  0  0  0  0  0
   39.6870   29.7780   39.5200 H   0  0  0  0  0  0  0  0  0  0  0  0
   40.3730   30.3790   41.0360 H   0  0  0  0  0  0  0  0  0  0  0  0
   38.5240   29.3950   41.2630 N   0  0  0  0  0  0  0  0  0  0  0  0
   38.5320   29.5910   42.6140 C   0  0  0  0  0  3  0  0  0  0  0  0
   37.7350   28.8630   43.4860 C   0  0  0  0  0  0  0  0  0  0  0  0
   37.7700   29.0470   44.5500 H   0  0  0  0  0  0  0  0  0  0  0  0
   36.9040   27.9010   42.9250 C   0  0  0  0  0  0  0  0  0  0  0  0
   36.1660   27.2190   43.6800 O   0  0  0  0  0  0  0  0  0  0  0  0
   36.9340   27.7470   41.5820 N   0  0  0  0  0  0  0  0  0  0  0  0
   37.7080   28.4570   40.7550 C   0  0  0  0  0  0  0  0  0  0  0  0
   37.7150   28.2950   39.5230 O   0  0  0  0  0  0  0  0  0  0  0  0
   36.3070   27.0210   41.1570 H   0  0  0  0  0  0  0  0  0  0  0  0
   38.8470   31.6020   40.2720 C   0  0  0  0  0  0  0  0  0  0  0  0
   39.5030   32.6780   40.8810 C   0  0  0  0  0  0  0  0  0  0  0  0
   38.9700   33.9620   40.6780 C   0  0  0  0  0  0  0  0  0  0  0  0
   37.8560   34.0750   39.9070 N   0  0  0  0  0  0  0  0  0  0  0  0
   37.2530   33.0000   39.3360 C   0  0  0  0  0  0  0  0  0  0  0  0
   37.7580   31.7650   39.5260 N   0  0  0  0  0  0  0  0  0  0  0  0
   40.3730   32.6130   41.4860 H   0  0  0  0  0  0  0  0  0  0  0  0
   39.4430   34.8210   41.1280 H   0  0  0  0  0  0  0  0  0  0  0  0
   36.3660   33.1560   38.7310 H   0  0  0  0  0  0  0  0  0  0  0  0
  1  3  1  0  0  0  0
  1  4  1  0  0  0  0
  2  1  1  0  0  0  0
  4  5  1  0  0  0  0
  5  6  2  0  0  0  0
  6  7  1  0  0  0  0
  8  6  1  0  0  0  0
  8  9  2  0  0  0  0
 10  8  1  0  0  0  0
 11  4  1  0  0  0  0
 11 10  1  0  0  0  0
 12 11  2  0  0  0  0
 13 10  1  0  0  0  0
 14  1  1  0  0  0  0
 14 15  1  0  0  0  0
 15 20  1  0  0  0  0
 16 15  2  0  0  0  0
 16 21  1  0  0  0  0
 17 16  1  0  0  0  0
 18 19  1  0  0  0  0
 18 17  2  0  0  0  0
 19 14  2  0  0  0  0
 22 18  1  0  0  0  0
M  END
>  <minimizedAffinity>
-4.12161112

$$$$

 OpenBabel03252500403D

 22 23  0  0  0  0  0  0  0  0999 V2000
   38.3830   28.9190   43.1190 C   0  0  0  0  0  0  0  0  0  0  0  0
   39.4290   29.0540   43.4600 H   0  0  0  0  0  0  0  0  0  0  0  0
   37.7480   29.0890   44.0120 H   0  0  0  0  0  0  0  0  0  0  0  0
   38.1530   27.5860   42.5920 N   0  0  0  0  0  0  0  0  0  0  0  0
   39.1140   27.1000   41.7510 C   0  0  0  0  0  3  0  0  0  0  0  0
   39.0380   25.8430   41.1670 C   0  0  0  0  0  0  0  0  0  0  0  0
   39.8190   25.4940   40.5080 H   0  0  0  0  0  0  0  0  0  0  0  0
   37.9230   25.0730   41.4730 C   0  0  0  0  0  0  0  0  0  0  0  0
   37.8150   23.9280   40.9640 O   0  0  0  0  0  0  0  0  0  0  0  0
   37.0010   25.6010   42.3090 N   0  0  0  0  0  0  0  0  0  0  0  0
   37.0880   26.8140   42.8640 C   0  0  0  0  0  0  0  0  0  0  0  0
   36.2260   27.2750   43.6310 O   0  0  0  0  0  0  0  0  0  0  0  0
   36.1580   25.0210   42.5400 H   0  0  0  0  0  0  0  0  0  0  0  0
   38.0230   29.9780   42.1300 C   0  0  0  0  0  0  0  0  0  0  0  0
   39.0440   30.8400   41.7120 C   0  0  0  0  0  0  0  0  0  0  0  0
   38.7100   31.8380   40.7810 C   0  0  0  0  0  0  0  0  0  0  0  0
   37.4230   31.9020   40.3490 N   0  0  0  0  0  0  0  0  0  0  0  0
   36.4650   31.0410   40.7830 C   0  0  0  0  0  0  0  0  0  0  0  0
   36.7760   30.0810   41.6770 N   0  0  0  0  0  0  0  0  0  0  0  0
   40.0540   30.8090   42.0370 H   0  0  0  0  0  0  0  0  0  0  0  0
   39.4650   32.5250   40.4320 H   0  0  0  0  0  0  0  0  0  0  0  0
   35.4550   31.1440   40.4000 H   0  0  0  0  0  0  0  0  0  0  0  0
  1  2  1  0  0  0  0
  1  3  1  0  0  0  0
  4 11  1  0  0  0  0
  4  1  1  0  0  0  0
  5  4  1  0  0  0  0
  6  8  1  0  0  0  0
  6  5  2  0  0  0  0
  7  6  1  0  0  0  0
  8 10  1  0  0  0  0
  9  8  2  0  0  0  0
 10 13  1  0  0  0  0
 10 11  1  0  0  0  0
 11 12  2  0  0  0  0
 14  1  1  0  0  0  0
 15 20  1  0  0  0  0
 15 14  1  0  0  0  0
 16 15  2  0  0  0  0
 17 16  1  0  0  0  0
 17 18  2  0  0  0  0
 18 19  1  0  0  0  0
 19 14  2  0  0  0  0
 21 16  1  0  0  0  0
 22 18  1  0  0  0  0
M  END
>  <minimizedAffinity>
-4.10482788

$$$$

 OpenBabel03252500403D

 22 23  0  0  0  0  0  0  0  0999 V2000
   36.5440   31.1250   40.8760 C   0  0  0  0  0  0  0  0  0  0  0  0
   35.6280   31.1430   40.2520 H   0  0  0  0  0  0  0  0  0  0  0  0
   36.3030   31.7110   41.7860 H   0  0  0  0  0  0  0  0  0  0  0  0
   37.6780   31.7180   40.1890 N   0  0  0  0  0  0  0  0  0  0  0  0
   38.6610   32.2300   40.9870 C   0  0  0  0  0  3  0  0  0  0  0  0
   39.8060   32.8280   40.4820 C   0  0  0  0  0  0  0  0  0  0  0  0
   40.5620   33.2220   41.1450 H   0  0  0  0  0  0  0  0  0  0  0  0
   39.9250   32.8920   39.0980 C   0  0  0  0  0  0  0  0  0  0  0  0
   40.9470   33.4270   38.5990 O   0  0  0  0  0  0  0  0  0  0  0  0
   38.9240   32.3710   38.3540 N   0  0  0  0  0  0  0  0  0  0  0  0
   37.8250   31.7970   38.8570 C   0  0  0  0  0  0  0  0  0  0  0  0
   36.9200   31.3260   38.1490 O   0  0  0  0  0  0  0  0  0  0  0  0
   39.0120   32.4190   37.3100 H   0  0  0  0  0  0  0  0  0  0  0  0
   36.8330   29.7320   41.3280 C   0  0  0  0  0  0  0  0  0  0  0  0
   36.5120   28.6920   40.4470 C   0  0  0  0  0  0  0  0  0  0  0  0
   36.7830   27.3790   40.8670 C   0  0  0  0  0  0  0  0  0  0  0  0
   37.3360   27.2040   42.0960 N   0  0  0  0  0  0  0  0  0  0  0  0
   37.6310   28.2460   42.9180 C   0  0  0  0  0  0  0  0  0  0  0  0
   37.3740   29.5090   42.5220 N   0  0  0  0  0  0  0  0  0  0  0  0
   36.0800   28.8050   39.4840 H   0  0  0  0  0  0  0  0  0  0  0  0
   36.5520   26.5470   40.2210 H   0  0  0  0  0  0  0  0  0  0  0  0
   38.0710   28.0410   43.8870 H   0  0  0  0  0  0  0  0  0  0  0  0
  1 14  1  0  0  0  0
  1  3  1  0  0  0  0
  2  1  1  0  0  0  0
  4  1  1  0  0  0  0
  4  5  1  0  0  0  0
  6  5  2  0  0  0  0
  6  7  1  0  0  0  0
  8  6  1  0  0  0  0
  9  8  2  0  0  0  0
 10 11  1  0  0  0  0
 10  8  1  0  0  0  0
 11  4  1  0  0  0  0
 12 11  2  0  0  0  0
 13 10  1  0  0  0  0
 14 19  1  0  0  0  0
 15 16  1  0  0  0  0
 15 14  2  0  0  0  0
 16 17  2  0  0  0  0
 17 18  1  0  0  0  0
 18 22  1  0  0  0  0
 19 18  2  0  0  0  0
 20 15  1  0  0  0  0
 21 16  1  0  0  0  0
M  END
>  <minimizedAffinity>
-4.0760026

$$$$

 OpenBabel03252500403D

 22 23  0  0  0  0  0  0  0  0999 V2000
   37.0280   32.3480   39.7150 C   0  0  0  0  0  0  0  0  0  0  0  0
   36.2520   32.3940   38.9250 H   0  0  0  0  0  0  0  0  0  0  0  0
   36.7770   33.1530   40.4350 H   0  0  0  0  0  0  0  0  0  0  0  0
   38.3610   32.5600   39.1770 N   0  0  0  0  0  0  0  0  0  0  0  0
   38.7100   31.7750   38.1160 C   0  0  0  0  0  3  0  0  0  0  0  0
   39.9470   31.8580   37.4930 C   0  0  0  0  0  0  0  0  0  0  0  0
   40.1870   31.2200   36.6550 H   0  0  0  0  0  0  0  0  0  0  0  0
   40.8450   32.7910   37.9970 C   0  0  0  0  0  0  0  0  0  0  0  0
   41.9780   32.8990   37.4620 O   0  0  0  0  0  0  0  0  0  0  0  0
   40.4500   33.5430   39.0500 N   0  0  0  0  0  0  0  0  0  0  0  0
   39.2530   33.4510   39.6390 C   0  0  0  0  0  0  0  0  0  0  0  0
   38.9150   34.1540   40.6060 O   0  0  0  0  0  0  0  0  0  0  0  0
   41.1260   34.2470   39.4320 H   0  0  0  0  0  0  0  0  0  0  0  0
   36.9270   31.0590   40.4610 C   0  0  0  0  0  0  0  0  0  0  0  0
   35.8590   30.2120   40.1380 C   0  0  0  0  0  0  0  0  0  0  0  0
   35.7600   28.9980   40.8370 C   0  0  0  0  0  0  0  0  0  0  0  0
   36.7040   28.7240   41.7770 N   0  0  0  0  0  0  0  0  0  0  0  0
   37.7240   29.5780   42.0560 C   0  0  0  0  0  0  0  0  0  0  0  0
   37.8260   30.7460   41.3900 N   0  0  0  0  0  0  0  0  0  0  0  0
   35.1120   30.4060   39.4100 H   0  0  0  0  0  0  0  0  0  0  0  0
   34.9540   28.3150   40.6220 H   0  0  0  0  0  0  0  0  0  0  0  0
   38.4450   29.3020   42.8170 H   0  0  0  0  0  0  0  0  0  0  0  0
  1  3  1  0  0  0  0
  1 14  1  0  0  0  0
  2  1  1  0  0  0  0
  4 11  1  0  0  0  0
  4  1  1  0  0  0  0
  5  4  1  0  0  0  0
  6  8  1  0  0  0  0
  6  5  2  0  0  0  0
  7  6  1  0  0  0  0
  8 10  1  0  0  0  0
  9  8  2  0  0  0  0
 10 13  1  0  0  0  0
 10 11  1  0  0  0  0
 11 12  2  0  0  0  0
 14 19  1  0  0  0  0
 15 14  2  0  0  0  0
 15 16  1  0  0  0  0
 16 17  2  0  0  0  0
 17 18  1  0  0  0  0
 18 22  1  0  0  0  0
 19 18  2  0  0  0  0
 20 15  1  0  0  0  0
 21 16  1  0  0  0  0
M  END
>  <minimizedAffinity>
-4.0336318

$$$$

 OpenBabel03252500403D

 22 23  0  0  0  0  0  0  0  0999 V2000
   38.0830   30.6940   39.3680 C   0  0  0  0  0  0  0  0  0  0  0  0
   37.1370   30.9620   38.8570 H   0  0  0  0  0  0  0  0  0  0  0  0
   38.6880   30.1450   38.6180 H   0  0  0  0  0  0  0  0  0  0  0  0
   37.8510   29.8540   40.5300 N   0  0  0  0  0  0  0  0  0  0  0  0
   38.7850   28.8860   40.7660 C   0  0  0  0  0  3  0  0  0  0  0  0
   38.7040   28.0060   41.8360 C   0  0  0  0  0  0  0  0  0  0  0  0
   39.4630   27.2530   41.9890 H   0  0  0  0  0  0  0  0  0  0  0  0
   37.6120   28.1430   42.6830 C   0  0  0  0  0  0  0  0  0  0  0  0
   37.5000   27.3650   43.6640 O   0  0  0  0  0  0  0  0  0  0  0  0
   36.7160   29.1160   42.4050 N   0  0  0  0  0  0  0  0  0  0  0  0
   36.8080   29.9580   41.3690 C   0  0  0  0  0  0  0  0  0  0  0  0
   35.9700   30.8450   41.1370 O   0  0  0  0  0  0  0  0  0  0  0  0
   35.8900   29.2220   43.0430 H   0  0  0  0  0  0  0  0  0  0  0  0
   38.8480   31.9270   39.7170 C   0  0  0  0  0  0  0  0  0  0  0  0
   40.2450   31.8570   39.6490 C   0  0  0  0  0  0  0  0  0  0  0  0
   40.9700   33.0160   39.9750 C   0  0  0  0  0  0  0  0  0  0  0  0
   40.2700   34.1240   40.3340 N   0  0  0  0  0  0  0  0  0  0  0  0
   38.9120   34.1450   40.3850 C   0  0  0  0  0  0  0  0  0  0  0  0
   38.2100   33.0380   40.0740 N   0  0  0  0  0  0  0  0  0  0  0  0
   40.8110   31.0020   39.3720 H   0  0  0  0  0  0  0  0  0  0  0  0
   42.0470   33.0070   39.9370 H   0  0  0  0  0  0  0  0  0  0  0  0
   38.4130   35.0620   40.6790 H   0  0  0  0  0  0  0  0  0  0  0  0
  1 14  1  0  0  0  0
  1  4  1  0  0  0  0
  2  1  1  0  0  0  0
  3  1  1  0  0  0  0
  4  5  1  0  0  0  0
  4 11  1  0  0  0  0
  5  6  2  0  0  0  0
  6  7  1  0  0  0  0
  6  8  1  0  0  0  0
  8  9  2  0  0  0  0
 10  8  1  0  0  0  0
 10 13  1  0  0  0  0
 11 10  1  0  0  0  0
 12 11  2  0  0  0  0
 14 19  1  0  0  0  0
 15 14  2  0  0  0  0
 15 16  1  0  0  0  0
 16 17  2  0  0  0  0
 17 18  1  0  0  0  0
 18 22  1  0  0  0  0
 19 18  2  0  0  0  0
 20 15  1  0  0  0  0
 21 16  1  0  0  0  0
M  END
>  <minimizedAffinity>
-4.01293468

$$$$
