
 OpenBabel03252504243D

 22 23  0  0  0  0  0  0  0  0999 V2000
   43.8890   35.7020   41.5050 C   0  0  0  0  0  0  0  0  0  0  0  0
   43.7950   36.7890   41.6160 H   0  0  0  0  0  0  0  0  0  0  0  0
   44.6150   35.4980   40.6690 H   0  0  0  0  0  0  0  0  0  0  0  0
   42.6320   35.0670   41.1380 N   0  0  0  0  0  0  0  0  0  0  0  0
   41.5140   35.4040   41.7840 C   0  0  0  0  0  3  0  0  0  0  0  0
   40.3340   34.7720   41.4020 C   0  0  0  0  0  0  0  0  0  0  0  0
   39.3920   35.0180   41.9060 H   0  0  0  0  0  0  0  0  0  0  0  0
   40.3200   33.8360   40.3970 C   0  0  0  0  0  0  0  0  0  0  0  0
   39.2330   33.2860   40.0790 O   0  0  0  0  0  0  0  0  0  0  0  0
   41.4770   33.5260   39.7700 N   0  0  0  0  0  0  0  0  0  0  0  0
   42.6380   34.1380   40.1360 C   0  0  0  0  0  0  0  0  0  0  0  0
   43.6720   33.8000   39.5100 O   0  0  0  0  0  0  0  0  0  0  0  0
   41.4630   32.8110   39.0030 H   0  0  0  0  0  0  0  0  0  0  0  0
   44.3570   35.9340   43.8660 C   0  0  0  0  0  0  0  0  0  0  0  0
   44.3770   35.0880   42.7440 C   0  0  0  0  0  0  0  0  0  0  0  0
   44.8480   33.7970   42.9350 C   0  0  0  0  0  0  0  0  0  0  0  0
   45.2540   33.4280   44.1640 N   0  0  0  0  0  0  0  0  0  0  0  0
   45.2180   34.2770   45.2230 C   0  0  0  0  0  0  0  0  0  0  0  0
   44.7720   35.5460   45.1010 N   0  0  0  0  0  0  0  0  0  0  0  0
   44.0120   36.9540   43.8260 H   0  0  0  0  0  0  0  0  0  0  0  0
   44.8460   33.1900   42.0620 H   0  0  0  0  0  0  0  0  0  0  0  0
   45.5700   33.8600   46.1490 H   0  0  0  0  0  0  0  0  0  0  0  0
  1  2  1  0  0  0  0
  1 15  1  0  0  0  0
  3  1  1  0  0  0  0
  4  1  1  0  0  0  0
  4  5  1  0  0  0  0
  6  5  2  0  0  0  0
  6  7  1  0  0  0  0
  8  6  1  0  0  0  0
  9  8  2  0  0  0  0
 10 11  1  0  0  0  0
 10  8  1  0  0  0  0
 11  4  1  0  0  0  0
 12 11  2  0  0  0  0
 13 10  1  0  0  0  0
 14 19  1  0  0  0  0
 15 16  1  0  0  0  0
 15 14  2  0  0  0  0
 16 17  2  0  0  0  0
 17 18  1  0  0  0  0
 18 22  1  0  0  0  0
 19 18  2  0  0  0  0
 20 14  1  0  0  0  0
 21 16  1  0  0  0  0
M  END
>  <minimizedAffinity>
-4.22460032

>  <minimizedRMSD>
0.851641953

$$$$
