
     RDKit          3D

 23 24  0  0  0  0  0  0  0  0999 V2000
   44.3884   35.7675   44.4315 C   0  0  0  0  0  0  0  0  0  0  0  0
   44.6703   35.0552   43.2526 C   0  0  0  0  0  0  0  0  0  0  0  0
   45.2937   33.8238   43.3925 C   0  0  0  0  0  0  0  0  0  0  0  0
   45.5916   33.3821   44.6279 N   0  0  0  0  0  0  0  0  0  0  0  0
   45.3019   34.1022   45.7426 C   0  0  0  0  0  0  0  0  0  0  0  0
   44.6963   35.3066   45.6732 N   0  0  0  0  0  0  0  0  0  0  0  0
   44.2567   35.7285   42.0167 C   0  0  0  0  0  0  0  0  0  0  0  0
   43.9074   36.7313   44.4342 H   0  0  0  0  0  0  0  0  0  0  0  0
   45.4889   33.3182   42.4772 H   0  0  0  0  0  0  0  0  0  0  0  0
   45.5917   33.6377   46.6676 H   0  0  0  0  0  0  0  0  0  0  0  0
   44.3664   36.8156   42.1066 H   0  0  0  0  0  0  0  0  0  0  0  0
   44.9041   35.3819   41.1635 H   0  0  0  0  0  0  0  0  0  0  0  0
   42.8942   35.3261   41.7037 N   0  0  0  0  0  0  0  0  0  0  0  0
   42.3667   34.2654   42.3186 C   0  0  0  0  0  0  0  0  0  0  0  0
   41.0598   33.9136   41.9905 C   0  0  0  0  0  0  0  0  0  0  0  0
   40.5872   33.0494   42.4714 H   0  0  0  0  0  0  0  0  0  0  0  0
   40.3396   34.6324   41.0675 C   0  0  0  0  0  0  0  0  0  0  0  0
   39.1607   34.2840   40.7968 O   0  0  0  0  0  0  0  0  0  0  0  0
   40.9152   35.6991   40.4703 N   0  0  0  0  0  0  0  0  0  0  0  0
   42.1931   36.0517   40.7840 C   0  0  0  0  0  0  0  0  0  0  0  0
   42.6614   37.0535   40.1891 O   0  0  0  0  0  0  0  0  0  0  0  0
   42.8922   33.6703   43.0495 H   0  0  0  0  0  0  0  0  0  0  0  0
   40.3618   36.2452   39.7659 H   0  0  0  0  0  0  0  0  0  0  0  0
  1  6  2  0
  2  3  2  0
  2  1  1  0
  3  4  1  0
  4  5  2  0
  6  5  1  0
  7  2  1  0
  1  8  1  0
  3  9  1  0
  5 10  1  0
  7 11  1  0
  7 12  1  0
 13 14  1  0
 14 15  2  0
 15 16  1  0
 15 17  1  0
 17 18  2  0
 17 19  1  0
 19 20  1  0
 20 21  2  0
 20 13  1  0
 14 22  1  0
 19 23  1  0
  7 13  1  0
M  ISO  6   8  14   9  14  10  14  11   8  12   8  16  16
M  END
>  <DihAtoms>  (1) 
1,6,12,13

>  <DihDeg>  (1) 
89.99953610129455

$$$$
