
     RDKit          3D

 23 24  0  0  0  0  0  0  0  0999 V2000
   44.5631   36.0101   44.4906 C   0  0  0  0  0  0  0  0  0  0  0  0
   45.3012   35.9271   43.2971 C   0  0  0  0  0  0  0  0  0  0  0  0
   46.1969   34.8542   43.1713 C   0  0  0  0  0  0  0  0  0  0  0  0
   46.3072   33.9536   44.2015 N   0  0  0  0  0  0  0  0  0  0  0  0
   45.5715   34.0819   45.3291 C   0  0  0  0  0  0  0  0  0  0  0  0
   44.7027   35.1068   45.4725 N   0  0  0  0  0  0  0  0  0  0  0  0
   46.9593   34.7813   41.9209 C   0  0  0  0  0  0  0  0  0  0  0  0
   43.8813   36.8454   44.5609 H   0  0  0  0  0  0  0  0  0  0  0  0
   45.1618   36.6766   42.5240 H   0  0  0  0  0  0  0  0  0  0  0  0
   45.7912   33.2964   46.0090 H   0  0  0  0  0  0  0  0  0  0  0  0
   46.3495   35.1899   41.0841 H   0  0  0  0  0  0  0  0  0  0  0  0
   47.2175   33.7312   41.7190 H   0  0  0  0  0  0  0  0  0  0  0  0
   48.2284   35.5080   42.0029 N   0  0  0  0  0  0  0  0  0  0  0  0
   48.3151   36.8455   42.2618 C   0  0  0  0  0  0  0  0  0  0  0  0
   49.5712   37.3916   42.3089 C   0  0  0  0  0  0  0  0  0  0  0  0
   49.6423   38.4626   42.5161 H   0  0  0  0  0  0  0  0  0  0  0  0
   50.7238   36.6442   42.1065 C   0  0  0  0  0  0  0  0  0  0  0  0
   51.8359   37.1888   42.1601 O   0  0  0  0  0  0  0  0  0  0  0  0
   50.6339   35.3301   41.8524 N   0  0  0  0  0  0  0  0  0  0  0  0
   49.3877   34.8234   41.8126 C   0  0  0  0  0  0  0  0  0  0  0  0
   49.2866   33.5755   41.5720 O   0  0  0  0  0  0  0  0  0  0  0  0
   47.3912   37.3905   42.4134 H   0  0  0  0  0  0  0  0  0  0  0  0
   51.4499   34.7034   41.6898 H   0  0  0  0  0  0  0  0  0  0  0  0
  1  6  2  0
  2  1  1  0
  3  2  2  0
  3  4  1  0
  4  5  2  0
  5  6  1  0
  7  3  1  0
  1  8  1  0
  2  9  1  0
  5 10  1  0
  7 11  1  0
  7 12  1  0
 13 14  1  0
 14 15  2  0
 15 16  1  0
 15 17  1  0
 17 18  2  0
 17 19  1  0
 19 20  1  0
 20 21  2  0
 20 13  1  0
 14 22  1  0
 19 23  1  0
  7 13  1  0
M  ISO  6   8  14   9  14  10  14  11   8  12   8  16  16
M  END
>  <DihAtoms>  (1) 
2,6,12,13

>  <DihDeg>  (1) 
-89.99992649872942

$$$$
