
 OpenBabel03252506453D

 37 39  0  0  1  0  0  0  0  0999 V2000
   49.4670   33.4100   41.3990 N   0  0  1  0  0  0  0  0  0  0  0  0
   50.6970   33.1020   42.0910 C   0  0  0  0  0  0  0  0  0  0  0  0
   51.2980   31.7770   41.7290 C   0  0  0  0  0  0  0  0  0  0  0  0
   50.3660   30.6700   42.1740 C   0  0  0  0  0  0  0  0  0  0  0  0
   48.9320   31.0880   42.0310 C   0  0  0  0  0  0  0  0  0  0  0  0
   48.8280   32.2060   41.0010 C   0  0  2  0  0  0  0  0  0  0  0  0
   50.4350   33.0340   43.1800 H   0  0  0  0  0  0  0  0  0  0  0  0
   51.4200   33.9320   41.9620 H   0  0  0  0  0  0  0  0  0  0  0  0
   51.6490   31.6880   40.7030 H   0  0  0  0  0  0  0  0  0  0  0  0
   52.2260   31.6920   42.3570 H   0  0  0  0  0  0  0  0  0  0  0  0
   50.5660   29.8160   41.4660 H   0  0  0  0  0  0  0  0  0  0  0  0
   50.5860   30.3300   43.2090 H   0  0  0  0  0  0  0  0  0  0  0  0
   48.2890   30.2760   41.6550 H   0  0  0  0  0  0  0  0  0  0  0  0
   48.5610   31.4850   42.9840 H   0  0  0  0  0  0  0  0  0  0  0  0
   47.7190   32.3960   40.9380 H   0  0  0  0  0  0  0  0  0  0  0  0
   47.3000   34.6790   41.9640 C   0  0  1  0  0  0  0  0  0  0  0  0
   48.4130   35.6270   41.7290 C   0  0  0  0  0  0  0  0  0  0  0  0
   48.7040   34.2660   42.2250 C   0  0  2  0  0  0  0  0  0  0  0  0
   46.7910   34.2450   41.0750 H   0  0  0  0  0  0  0  0  0  0  0  0
   48.6160   35.9030   40.6640 H   0  0  0  0  0  0  0  0  0  0  0  0
   48.4580   36.5110   42.4120 H   0  0  0  0  0  0  0  0  0  0  0  0
   48.9470   34.2080   43.3160 H   0  0  0  0  0  0  0  0  0  0  0  0
   45.5510   36.0450   43.1260 C   0  0  0  0  0  0  0  0  0  0  0  0
   46.3690   34.9030   43.0880 C   0  0  0  0  0  0  0  0  0  0  0  0
   46.2710   33.9780   44.1370 C   0  0  0  0  0  0  0  0  0  0  0  0
   45.3930   34.2330   45.1340 N   0  0  0  0  0  0  0  0  0  0  0  0
   44.6150   35.3370   45.1540 C   0  0  0  0  0  0  0  0  0  0  0  0
   44.6880   36.2490   44.1530 N   0  0  0  0  0  0  0  0  0  0  0  0
   45.6580   36.7320   42.2980 H   0  0  0  0  0  0  0  0  0  0  0  0
   46.8960   33.0810   44.1310 H   0  0  0  0  0  0  0  0  0  0  0  0
   43.9160   35.5200   45.9650 H   0  0  0  0  0  0  0  0  0  0  0  0
   49.2370   31.6970   39.7230 N   0  0  0  0  0  0  0  0  0  0  0  0
   50.2300   31.9570   39.4840 H   0  0  0  0  0  0  0  0  0  0  0  0
   48.1600   32.3230   38.5160 S   0  0  0  0  0  0  0  0  0  0  0  0
   48.0750   31.3220   37.0780 C   0  0  0  0  0  1  0  0  0  0  0  0
   46.7930   32.4120   39.1610 O   0  0  0  0  0  0  0  0  0  0  0  0
   48.5830   33.7120   38.1550 O   0  0  0  0  0  0  0  0  0  0  0  0
  1  2  1  1  0  0  0
  1 18  1  0  0  0  0
  2  7  1  0  0  0  0
  3  2  1  0  0  0  0
  3  4  1  0  0  0  0
  3 10  1  0  0  0  0
  4 12  1  0  0  0  0
  5  4  1  0  0  0  0
  5 14  1  0  0  0  0
  6 15  1  6  0  0  0
  6  1  1  0  0  0  0
  6  5  1  0  0  0  0
  8  2  1  0  0  0  0
  9  3  1  0  0  0  0
 11  4  1  0  0  0  0
 13  5  1  0  0  0  0
 16 19  1  6  0  0  0
 16 18  1  0  0  0  0
 16 24  1  0  0  0  0
 17 16  1  0  0  0  0
 17 18  1  0  0  0  0
 17 21  1  0  0  0  0
 18 22  1  1  0  0  0
 20 17  1  0  0  0  0
 23 28  1  0  0  0  0
 24 23  2  0  0  0  0
 24 25  1  0  0  0  0
 25 26  2  0  0  0  0
 26 27  1  0  0  0  0
 27 31  1  0  0  0  0
 28 27  2  0  0  0  0
 29 23  1  0  0  0  0
 30 25  1  0  0  0  0
 32  6  1  0  0  0  0
 33 32  1  0  0  0  0
 34 36  2  0  0  0  0
 34 32  1  0  0  0  0
 35 34  1  0  0  0  0
 37 34  2  0  0  0  0
M  END
>  <minimizedAffinity>
-4.6854105

>  <minimizedRMSD>
1.02710104

$$$$
