
     RDKit          3D

 40 42  0  0  0  0  0  0  0  0999 V2000
   49.3257   33.2164   41.4917 N   0  0  0  0  0  0  0  0  0  0  0  0
   50.6592   33.1241   42.0390 C   0  0  0  0  0  0  0  0  0  0  0  0
   51.3398   31.8096   41.7966 C   0  0  0  0  0  0  0  0  0  0  0  0
   50.5910   30.7187   42.5313 C   0  0  0  0  0  0  0  0  0  0  0  0
   49.1150   30.9914   42.5334 C   0  0  0  0  0  0  0  0  0  0  0  0
   48.7673   31.9163   41.3726 C   0  0  2  0  0  0  0  0  0  0  0  0
   47.1892   34.5502   42.0233 C   0  0  1  0  0  0  0  0  0  0  0  0
   48.3113   35.4648   41.7122 C   0  0  0  0  0  0  0  0  0  0  0  0
   48.5923   34.1295   42.2805 C   0  0  2  0  0  0  0  0  0  0  0  0
   45.5162   36.0293   43.1574 C   0  0  0  0  0  0  0  0  0  0  0  0
   46.2848   34.8535   43.1495 C   0  0  0  0  0  0  0  0  0  0  0  0
   46.1631   33.9718   44.2338 C   0  0  0  0  0  0  0  0  0  0  0  0
   45.3110   34.2987   45.2322 N   0  0  0  0  0  0  0  0  0  0  0  0
   44.5797   35.4348   45.2215 C   0  0  0  0  0  0  0  0  0  0  0  0
   44.6767   36.3064   44.1869 N   0  0  0  0  0  0  0  0  0  0  0  0
   49.0577   31.2415   40.1411 N   0  0  0  0  0  0  0  0  0  0  0  0
   50.5483   33.2117   43.1520 H   0  0  0  0  0  0  0  0  0  0  0  0
   51.2721   33.9770   41.6846 H   0  0  0  0  0  0  0  0  0  0  0  0
   51.5643   31.5837   40.7560 H   0  0  0  0  0  0  0  0  0  0  0  0
   52.3451   31.9028   42.2922 H   0  0  0  0  0  0  0  0  0  0  0  0
   50.7837   29.7796   41.9370 H   0  0  0  0  0  0  0  0  0  0  0  0
   50.9753   30.5685   43.5634 H   0  0  0  0  0  0  0  0  0  0  0  0
   48.5154   30.0797   42.3793 H   0  0  0  0  0  0  0  0  0  0  0  0
   48.8305   31.5067   43.4593 H   0  0  0  0  0  0  0  0  0  0  0  0
   47.6452   32.0035   41.4420 H   0  0  0  0  0  0  0  0  0  0  0  0
   46.6561   34.0728   41.1713 H   0  0  0  0  0  0  0  0  0  0  0  0
   48.4966   35.6754   40.6290 H   0  0  0  0  0  0  0  0  0  0  0  0
   48.3835   36.3857   42.3412 H   0  0  0  0  0  0  0  0  0  0  0  0
   48.8568   34.1316   43.3680 H   0  0  0  0  0  0  0  0  0  0  0  0
   45.6399   36.6815   42.3033 H   0  0  0  0  0  0  0  0  0  0  0  0
   46.7500   33.0494   44.2532 H   0  0  0  0  0  0  0  0  0  0  0  0
   43.9014   35.6771   46.0343 H   0  0  0  0  0  0  0  0  0  0  0  0
   49.6352   31.8298   39.4843 H   0  0  0  0  0  0  0  0  0  0  0  0
   47.5556   30.8178   39.3824 S   0  0  0  0  0  0  0  0  0  0  0  0
   46.2649   31.9587   39.7150 C   0  0  0  0  0  0  0  0  0  0  0  0
   47.8235   30.7656   37.8936 O   0  0  0  0  0  0  0  0  0  0  0  0
   47.1576   29.4430   39.8204 O   0  0  0  0  0  0  0  0  0  0  0  0
   45.6379   31.5340   40.5288 H   0  0  0  0  0  0  0  0  0  0  0  0
   46.6307   32.9707   39.9108 H   0  0  0  0  0  0  0  0  0  0  0  0
   45.6108   31.9799   38.8170 H   0  0  0  0  0  0  0  0  0  0  0  0
  1  2  1  0
  1  9  1  0
  3  2  1  0
  3  4  1  0
  5  4  1  0
  6  1  1  0
  6  5  1  0
  7  9  1  0
  7 11  1  0
  8  7  1  0
  8  9  1  0
 10 15  2  0
 11 10  1  0
 11 12  2  0
 12 13  1  0
 14 13  2  0
 15 14  1  0
 16  6  1  0
  2 17  1  0
  2 18  1  0
  3 19  1  0
  3 20  1  0
  4 21  1  0
  4 22  1  0
  5 23  1  0
  5 24  1  0
  6 25  1  6
  7 26  1  6
  8 27  1  0
  8 28  1  0
  9 29  1  1
 10 30  1  0
 12 31  1  0
 14 32  1  0
 16 33  1  0
 34 35  1  0
 34 36  2  0
 34 37  2  0
 35 38  1  0
 35 39  1  0
 35 40  1  0
 16 34  1  0
M  ISO  8  17  13  18  13  19  13  20  13  21  13  22  13  23  13  24  13
M  ISO  8  25  13  26  13  27  13  28  13  29  13  30  14  31  14  32  14
M  ISO  1  33   5
M  END
>  <DihAtoms>  (1) 
5,15,33,34

>  <DihDeg>  (1) 
61.63430549974717

$$$$
