
 OpenBabel03252506453D

 37 39  0  0  1  0  0  0  0  0999 V2000
   49.4350   33.3560   41.4210 N   0  0  1  0  0  0  0  0  0  0  0  0
   50.6940   33.1020   42.0790 C   0  0  0  0  0  0  0  0  0  0  0  0
   51.3130   31.7770   41.7450 C   0  0  0  0  0  0  0  0  0  0  0  0
   50.4240   30.6680   42.2640 C   0  0  0  0  0  0  0  0  0  0  0  0
   48.9760   31.0480   42.1560 C   0  0  0  0  0  0  0  0  0  0  0  0
   48.8110   32.1240   41.0900 C   0  0  2  0  0  0  0  0  0  0  0  0
   50.4730   33.0690   43.1790 H   0  0  0  0  0  0  0  0  0  0  0  0
   51.3940   33.9410   41.8930 H   0  0  0  0  0  0  0  0  0  0  0  0
   51.6300   31.6570   40.7110 H   0  0  0  0  0  0  0  0  0  0  0  0
   52.2640   31.7360   42.3430 H   0  0  0  0  0  0  0  0  0  0  0  0
   50.6180   29.7920   41.5810 H   0  0  0  0  0  0  0  0  0  0  0  0
   50.6870   30.3710   43.3020 H   0  0  0  0  0  0  0  0  0  0  0  0
   48.3390   30.2080   41.8350 H   0  0  0  0  0  0  0  0  0  0  0  0
   48.6290   31.4730   43.1070 H   0  0  0  0  0  0  0  0  0  0  0  0
   47.6950   32.2880   41.0610 H   0  0  0  0  0  0  0  0  0  0  0  0
   47.2820   34.6550   41.9760 C   0  0  1  0  0  0  0  0  0  0  0  0
   48.4080   35.5880   41.7380 C   0  0  0  0  0  0  0  0  0  0  0  0
   48.6810   34.2250   42.2420 C   0  0  2  0  0  0  0  0  0  0  0  0
   46.7690   34.2230   41.0890 H   0  0  0  0  0  0  0  0  0  0  0  0
   48.6160   35.8550   40.6720 H   0  0  0  0  0  0  0  0  0  0  0  0
   48.4630   36.4750   42.4160 H   0  0  0  0  0  0  0  0  0  0  0  0
   48.9230   34.1710   43.3330 H   0  0  0  0  0  0  0  0  0  0  0  0
   45.5460   36.0450   43.1270 C   0  0  0  0  0  0  0  0  0  0  0  0
   46.3540   34.8960   43.0980 C   0  0  0  0  0  0  0  0  0  0  0  0
   46.2470   33.9810   44.1550 C   0  0  0  0  0  0  0  0  0  0  0  0
   45.3710   34.2510   45.1490 N   0  0  0  0  0  0  0  0  0  0  0  0
   44.6020   35.3620   45.1600 C   0  0  0  0  0  0  0  0  0  0  0  0
   44.6840   36.2650   44.1520 N   0  0  0  0  0  0  0  0  0  0  0  0
   45.6590   36.7250   42.2930 H   0  0  0  0  0  0  0  0  0  0  0  0
   46.8640   33.0780   44.1570 H   0  0  0  0  0  0  0  0  0  0  0  0
   43.9050   35.5590   45.9690 H   0  0  0  0  0  0  0  0  0  0  0  0
   49.1860   31.5760   39.8190 N   0  0  0  0  0  0  0  0  0  0  0  0
   49.7940   32.2320   39.2600 H   0  0  0  0  0  0  0  0  0  0  0  0
   47.7400   31.2170   38.9300 S   0  0  0  0  0  0  0  0  0  0  0  0
   46.3020   31.9510   39.6190 C   0  0  0  0  0  1  0  0  0  0  0  0
   47.9570   31.7330   37.5240 O   0  0  0  0  0  0  0  0  0  0  0  0
   47.5740   29.7320   38.8470 O   0  0  0  0  0  0  0  0  0  0  0  0
  1  2  1  1  0  0  0
  1 18  1  0  0  0  0
  2  7  1  0  0  0  0
  3  2  1  0  0  0  0
  3  4  1  0  0  0  0
  3 10  1  0  0  0  0
  4 12  1  0  0  0  0
  5  4  1  0  0  0  0
  5 14  1  0  0  0  0
  6 15  1  6  0  0  0
  6  1  1  0  0  0  0
  6  5  1  0  0  0  0
  8  2  1  0  0  0  0
  9  3  1  0  0  0  0
 11  4  1  0  0  0  0
 13  5  1  0  0  0  0
 16 19  1  6  0  0  0
 16 18  1  0  0  0  0
 16 24  1  0  0  0  0
 17 16  1  0  0  0  0
 17 18  1  0  0  0  0
 17 21  1  0  0  0  0
 18 22  1  1  0  0  0
 20 17  1  0  0  0  0
 23 28  1  0  0  0  0
 24 23  2  0  0  0  0
 24 25  1  0  0  0  0
 25 30  1  0  0  0  0
 25 26  2  0  0  0  0
 26 27  1  0  0  0  0
 27 31  1  0  0  0  0
 28 27  2  0  0  0  0
 29 23  1  0  0  0  0
 32  6  1  0  0  0  0
 33 32  1  0  0  0  0
 34 35  1  0  0  0  0
 34 32  1  0  0  0  0
 36 34  2  0  0  0  0
 37 34  2  0  0  0  0
M  END
>  <minimizedAffinity>
-4.50176144

>  <minimizedRMSD>
0.364417225

$$$$
