
 OpenBabel03252506453D

 37 39  0  0  1  0  0  0  0  0999 V2000
   49.4010   33.3200   41.4920 N   0  0  1  0  0  0  0  0  0  0  0  0
   50.6780   33.1310   42.1380 C   0  0  0  0  0  0  0  0  0  0  0  0
   51.3240   31.8060   41.8610 C   0  0  0  0  0  0  0  0  0  0  0  0
   50.4730   30.7040   42.4540 C   0  0  0  0  0  0  0  0  0  0  0  0
   49.0140   31.0430   42.3550 C   0  0  0  0  0  0  0  0  0  0  0  0
   48.8030   32.0570   41.2380 C   0  0  2  0  0  0  0  0  0  0  0  0
   50.4770   33.1500   43.2420 H   0  0  0  0  0  0  0  0  0  0  0  0
   51.3530   33.9770   41.8950 H   0  0  0  0  0  0  0  0  0  0  0  0
   51.6260   31.6400   40.8290 H   0  0  0  0  0  0  0  0  0  0  0  0
   52.2870   31.8200   42.4420 H   0  0  0  0  0  0  0  0  0  0  0  0
   50.6780   29.7990   41.8140 H   0  0  0  0  0  0  0  0  0  0  0  0
   50.7620   30.4690   43.5010 H   0  0  0  0  0  0  0  0  0  0  0  0
   48.3940   30.1720   42.0900 H   0  0  0  0  0  0  0  0  0  0  0  0
   48.6740   31.5090   43.2880 H   0  0  0  0  0  0  0  0  0  0  0  0
   47.6830   32.1910   41.2210 H   0  0  0  0  0  0  0  0  0  0  0  0
   47.2280   34.5960   42.0170 C   0  0  1  0  0  0  0  0  0  0  0  0
   48.3270   35.5410   41.7140 C   0  0  0  0  0  0  0  0  0  0  0  0
   48.6400   34.2120   42.2800 C   0  0  2  0  0  0  0  0  0  0  0  0
   46.7110   34.1080   41.1610 H   0  0  0  0  0  0  0  0  0  0  0  0
   48.5130   35.7590   40.6320 H   0  0  0  0  0  0  0  0  0  0  0  0
   48.3730   36.4620   42.3460 H   0  0  0  0  0  0  0  0  0  0  0  0
   48.9000   34.2180   43.3690 H   0  0  0  0  0  0  0  0  0  0  0  0
   45.5240   36.0360   43.1560 C   0  0  0  0  0  0  0  0  0  0  0  0
   46.3110   34.8730   43.1410 C   0  0  0  0  0  0  0  0  0  0  0  0
   46.1950   33.9770   44.2140 C   0  0  0  0  0  0  0  0  0  0  0  0
   45.3310   34.2800   45.2090 N   0  0  0  0  0  0  0  0  0  0  0  0
   44.5830   35.4050   45.2060 C   0  0  0  0  0  0  0  0  0  0  0  0
   44.6740   36.2890   44.1830 N   0  0  0  0  0  0  0  0  0  0  0  0
   45.6440   36.7000   42.3100 H   0  0  0  0  0  0  0  0  0  0  0  0
   46.7960   33.0630   44.2270 H   0  0  0  0  0  0  0  0  0  0  0  0
   43.8950   35.6270   46.0170 H   0  0  0  0  0  0  0  0  0  0  0  0
   49.1690   31.4520   39.9900 N   0  0  0  0  0  0  0  0  0  0  0  0
   49.8740   32.0260   39.4540 H   0  0  0  0  0  0  0  0  0  0  0  0
   47.7330   31.2520   39.0370 S   0  0  0  0  0  0  0  0  0  0  0  0
   47.9660   31.6360   37.3420 C   0  0  0  0  0  1  0  0  0  0  0  0
   47.3170   29.8040   39.1830 O   0  0  0  0  0  0  0  0  0  0  0  0
   46.6410   32.0980   39.6150 O   0  0  0  0  0  0  0  0  0  0  0  0
  1  2  1  1  0  0  0
  1 18  1  0  0  0  0
  2  7  1  0  0  0  0
  3  2  1  0  0  0  0
  3 10  1  0  0  0  0
  3  4  1  0  0  0  0
  4 12  1  0  0  0  0
  5  4  1  0  0  0  0
  5 14  1  0  0  0  0
  6 15  1  6  0  0  0
  6  1  1  0  0  0  0
  6  5  1  0  0  0  0
  8  2  1  0  0  0  0
  9  3  1  0  0  0  0
 11  4  1  0  0  0  0
 13  5  1  0  0  0  0
 16 19  1  6  0  0  0
 16 18  1  0  0  0  0
 16 24  1  0  0  0  0
 17 16  1  0  0  0  0
 17 18  1  0  0  0  0
 17 21  1  0  0  0  0
 18 22  1  1  0  0  0
 20 17  1  0  0  0  0
 23 28  1  0  0  0  0
 24 23  2  0  0  0  0
 24 25  1  0  0  0  0
 25 30  1  0  0  0  0
 25 26  2  0  0  0  0
 27 26  1  0  0  0  0
 27 31  1  0  0  0  0
 28 27  2  0  0  0  0
 29 23  1  0  0  0  0
 32  6  1  0  0  0  0
 33 32  1  0  0  0  0
 34 36  2  0  0  0  0
 34 37  2  0  0  0  0
 34 32  1  0  0  0  0
 35 34  1  0  0  0  0
M  END
>  <minimizedAffinity>
-4.47973537

>  <minimizedRMSD>
0.320968658

$$$$
