
 OpenBabel03252506453D

 37 39  0  0  1  0  0  0  0  0999 V2000
   49.4610   33.4620   41.3190 N   0  0  1  0  0  0  0  0  0  0  0  0
   50.6550   33.0530   42.0200 C   0  0  0  0  0  0  0  0  0  0  0  0
   51.2090   31.7310   41.5810 C   0  0  0  0  0  0  0  0  0  0  0  0
   50.2190   30.6380   41.9220 C   0  0  0  0  0  0  0  0  0  0  0  0
   48.8080   31.1280   41.7700 C   0  0  0  0  0  0  0  0  0  0  0  0
   48.7830   32.3190   40.8190 C   0  0  2  0  0  0  0  0  0  0  0  0
   50.3580   32.9210   43.0940 H   0  0  0  0  0  0  0  0  0  0  0  0
   51.4160   33.8570   41.9690 H   0  0  0  0  0  0  0  0  0  0  0  0
   51.5870   31.6970   40.5610 H   0  0  0  0  0  0  0  0  0  0  0  0
   52.1140   31.5610   42.2270 H   0  0  0  0  0  0  0  0  0  0  0  0
   50.4030   29.8270   41.1600 H   0  0  0  0  0  0  0  0  0  0  0  0
   50.3920   30.2170   42.9350 H   0  0  0  0  0  0  0  0  0  0  0  0
   48.1430   30.3730   41.3210 H   0  0  0  0  0  0  0  0  0  0  0  0
   48.4260   31.4750   42.7380 H   0  0  0  0  0  0  0  0  0  0  0  0
   47.6850   32.5620   40.7400 H   0  0  0  0  0  0  0  0  0  0  0  0
   47.3150   34.7440   41.9360 C   0  0  1  0  0  0  0  0  0  0  0  0
   48.4470   35.6810   41.7510 C   0  0  0  0  0  0  0  0  0  0  0  0
   48.7100   34.2920   42.1820 C   0  0  2  0  0  0  0  0  0  0  0  0
   46.8020   34.3630   41.0250 H   0  0  0  0  0  0  0  0  0  0  0  0
   48.6600   36.0040   40.7010 H   0  0  0  0  0  0  0  0  0  0  0  0
   48.5060   36.5300   42.4760 H   0  0  0  0  0  0  0  0  0  0  0  0
   48.9480   34.1770   43.2690 H   0  0  0  0  0  0  0  0  0  0  0  0
   45.5440   36.0560   43.1250 C   0  0  0  0  0  0  0  0  0  0  0  0
   46.3840   34.9310   43.0660 C   0  0  0  0  0  0  0  0  0  0  0  0
   46.3070   33.9880   44.1010 C   0  0  0  0  0  0  0  0  0  0  0  0
   45.4280   34.2090   45.1040 N   0  0  0  0  0  0  0  0  0  0  0  0
   44.6280   35.2970   45.1440 C   0  0  0  0  0  0  0  0  0  0  0  0
   44.6800   36.2260   44.1580 N   0  0  0  0  0  0  0  0  0  0  0  0
   45.6350   36.7590   42.3080 H   0  0  0  0  0  0  0  0  0  0  0  0
   46.9500   33.1030   44.0790 H   0  0  0  0  0  0  0  0  0  0  0  0
   43.9280   35.4540   45.9600 H   0  0  0  0  0  0  0  0  0  0  0  0
   49.2080   31.8820   39.5200 N   0  0  0  0  0  0  0  0  0  0  0  0
   50.1940   32.1820   39.2950 H   0  0  0  0  0  0  0  0  0  0  0  0
   48.1150   32.5320   38.3400 S   0  0  0  0  0  0  0  0  0  0  0  0
   46.4580   32.6260   38.9090 C   0  0  0  0  0  1  0  0  0  0  0  0
   48.6200   33.9160   37.9990 O   0  0  0  0  0  0  0  0  0  0  0  0
   48.1880   31.7020   37.0970 O   0  0  0  0  0  0  0  0  0  0  0  0
  1  2  1  1  0  0  0
  1 18  1  0  0  0  0
  2  7  1  0  0  0  0
  3  4  1  0  0  0  0
  3  2  1  0  0  0  0
  3 10  1  0  0  0  0
  4 12  1  0  0  0  0
  5  4  1  0  0  0  0
  5 14  1  0  0  0  0
  6 15  1  6  0  0  0
  6  1  1  0  0  0  0
  6  5  1  0  0  0  0
  8  2  1  0  0  0  0
  9  3  1  0  0  0  0
 11  4  1  0  0  0  0
 13  5  1  0  0  0  0
 16 19  1  6  0  0  0
 16 18  1  0  0  0  0
 16 24  1  0  0  0  0
 17 16  1  0  0  0  0
 17 18  1  0  0  0  0
 17 21  1  0  0  0  0
 18 22  1  1  0  0  0
 20 17  1  0  0  0  0
 23 28  1  0  0  0  0
 24 23  2  0  0  0  0
 24 25  1  0  0  0  0
 25 26  2  0  0  0  0
 26 27  1  0  0  0  0
 27 31  1  0  0  0  0
 28 27  2  0  0  0  0
 29 23  1  0  0  0  0
 30 25  1  0  0  0  0
 32  6  1  0  0  0  0
 33 32  1  0  0  0  0
 34 35  1  0  0  0  0
 34 32  1  0  0  0  0
 36 34  2  0  0  0  0
 37 34  2  0  0  0  0
M  END
>  <minimizedAffinity>
-4.69215536

>  <minimizedRMSD>
1.1934216

$$$$
