
 OpenBabel03252506453D

 37 39  0  0  1  0  0  0  0  0999 V2000
   49.4220   33.3550   41.4600 N   0  0  1  0  0  0  0  0  0  0  0  0
   50.6810   33.1210   42.1280 C   0  0  0  0  0  0  0  0  0  0  0  0
   51.3090   31.7950   41.8220 C   0  0  0  0  0  0  0  0  0  0  0  0
   50.4250   30.6900   42.3590 C   0  0  0  0  0  0  0  0  0  0  0  0
   48.9750   31.0580   42.2390 C   0  0  0  0  0  0  0  0  0  0  0  0
   48.8070   32.1120   41.1510 C   0  0  2  0  0  0  0  0  0  0  0  0
   50.4550   33.1090   43.2270 H   0  0  0  0  0  0  0  0  0  0  0  0
   51.3750   33.9620   41.9280 H   0  0  0  0  0  0  0  0  0  0  0  0
   51.6310   31.6560   40.7910 H   0  0  0  0  0  0  0  0  0  0  0  0
   52.2580   31.7720   42.4240 H   0  0  0  0  0  0  0  0  0  0  0  0
   50.6280   29.8020   41.6940 H   0  0  0  0  0  0  0  0  0  0  0  0
   50.6860   30.4160   43.4040 H   0  0  0  0  0  0  0  0  0  0  0  0
   48.3450   30.2090   41.9310 H   0  0  0  0  0  0  0  0  0  0  0  0
   48.6220   31.5000   43.1790 H   0  0  0  0  0  0  0  0  0  0  0  0
   47.6910   32.2680   41.1140 H   0  0  0  0  0  0  0  0  0  0  0  0
   47.2490   34.6270   41.9980 C   0  0  1  0  0  0  0  0  0  0  0  0
   48.3520   35.5740   41.7150 C   0  0  0  0  0  0  0  0  0  0  0  0
   48.6600   34.2350   42.2600 C   0  0  2  0  0  0  0  0  0  0  0  0
   46.7350   34.1540   41.1320 H   0  0  0  0  0  0  0  0  0  0  0  0
   48.5420   35.8100   40.6390 H   0  0  0  0  0  0  0  0  0  0  0  0
   48.3960   36.4840   42.3630 H   0  0  0  0  0  0  0  0  0  0  0  0
   48.9150   34.2210   43.3500 H   0  0  0  0  0  0  0  0  0  0  0  0
   45.5300   36.0420   43.1450 C   0  0  0  0  0  0  0  0  0  0  0  0
   46.3280   34.8850   43.1220 C   0  0  0  0  0  0  0  0  0  0  0  0
   46.2190   33.9810   44.1880 C   0  0  0  0  0  0  0  0  0  0  0  0
   45.3510   34.2670   45.1840 N   0  0  0  0  0  0  0  0  0  0  0  0
   44.5920   35.3850   45.1890 C   0  0  0  0  0  0  0  0  0  0  0  0
   44.6760   36.2780   44.1720 N   0  0  0  0  0  0  0  0  0  0  0  0
   45.6450   36.7130   42.3050 H   0  0  0  0  0  0  0  0  0  0  0  0
   46.8290   33.0720   44.1950 H   0  0  0  0  0  0  0  0  0  0  0  0
   43.9000   35.5940   46.0000 H   0  0  0  0  0  0  0  0  0  0  0  0
   49.1910   31.5420   39.8920 N   0  0  0  0  0  0  0  0  0  0  0  0
   49.8590   32.1570   39.3570 H   0  0  0  0  0  0  0  0  0  0  0  0
   47.7570   31.2780   38.9520 S   0  0  0  0  0  0  0  0  0  0  0  0
   47.2410   29.6000   38.9320 C   0  0  0  0  0  1  0  0  0  0  0  0
   46.6730   32.1400   39.5650 O   0  0  0  0  0  0  0  0  0  0  0  0
   47.9900   31.7640   37.5560 O   0  0  0  0  0  0  0  0  0  0  0  0
  1  2  1  1  0  0  0
  1 18  1  0  0  0  0
  2  7  1  0  0  0  0
  3  2  1  0  0  0  0
  3  4  1  0  0  0  0
  3 10  1  0  0  0  0
  4 12  1  0  0  0  0
  5  4  1  0  0  0  0
  5 14  1  0  0  0  0
  6 15  1  6  0  0  0
  6  1  1  0  0  0  0
  6  5  1  0  0  0  0
  8  2  1  0  0  0  0
  9  3  1  0  0  0  0
 11  4  1  0  0  0  0
 13  5  1  0  0  0  0
 16 19  1  6  0  0  0
 16 18  1  0  0  0  0
 16 24  1  0  0  0  0
 17 16  1  0  0  0  0
 17 18  1  0  0  0  0
 17 21  1  0  0  0  0
 18 22  1  1  0  0  0
 20 17  1  0  0  0  0
 23 28  1  0  0  0  0
 24 23  2  0  0  0  0
 24 25  1  0  0  0  0
 25 30  1  0  0  0  0
 25 26  2  0  0  0  0
 26 27  1  0  0  0  0
 27 31  1  0  0  0  0
 28 27  2  0  0  0  0
 29 23  1  0  0  0  0
 32  6  1  0  0  0  0
 33 32  1  0  0  0  0
 34 36  2  0  0  0  0
 34 32  1  0  0  0  0
 35 34  1  0  0  0  0
 37 34  2  0  0  0  0
M  END
>  <minimizedAffinity>
-4.50567389

>  <minimizedRMSD>
0.365458429

$$$$
