
     RDKit          3D

 30 31  0  0  0  0  0  0  0  0999 V2000
   47.1552   34.2435   42.3799 N   0  0  0  0  0  0  0  0  0  0  0  0
   48.0050   35.0541   41.5314 C   0  0  0  0  0  0  0  0  0  0  0  0
   47.7152   34.3829   40.2201 C   0  0  2  0  0  0  0  0  0  0  0  0
   47.9345   32.9287   40.5772 C   0  0  0  0  0  0  0  0  0  0  0  0
   47.3487   32.8542   41.9774 C   0  0  0  0  0  0  0  0  0  0  0  0
   44.5970   35.9382   44.4731 C   0  0  0  0  0  0  0  0  0  0  0  0
   45.4109   35.6927   43.3758 C   0  0  0  0  0  0  0  0  0  0  0  0
   46.2758   34.6091   43.4182 C   0  0  0  0  0  0  0  0  0  0  0  0
   46.2708   33.8417   44.5543 N   0  0  0  0  0  0  0  0  0  0  0  0
   45.4766   34.0916   45.6098 C   0  0  0  0  0  0  0  0  0  0  0  0
   44.6268   35.1610   45.5612 N   0  0  0  0  0  0  0  0  0  0  0  0
   48.6344   34.7433   39.2016 N   0  0  0  0  0  0  0  0  0  0  0  0
   47.6668   36.1180   41.5700 H   0  0  0  0  0  0  0  0  0  0  0  0
   49.0371   34.8899   41.8317 H   0  0  0  0  0  0  0  0  0  0  0  0
   46.6575   34.5261   39.9243 H   0  0  0  0  0  0  0  0  0  0  0  0
   47.4017   32.2333   39.8962 H   0  0  0  0  0  0  0  0  0  0  0  0
   49.0092   32.7004   40.6448 H   0  0  0  0  0  0  0  0  0  0  0  0
   48.0457   32.4089   42.7023 H   0  0  0  0  0  0  0  0  0  0  0  0
   46.3621   32.3488   41.9728 H   0  0  0  0  0  0  0  0  0  0  0  0
   43.9219   36.7914   44.4291 H   0  0  0  0  0  0  0  0  0  0  0  0
   45.4093   36.3098   42.4722 H   0  0  0  0  0  0  0  0  0  0  0  0
   45.5531   33.4223   46.4561 H   0  0  0  0  0  0  0  0  0  0  0  0
   49.4702   34.1676   39.0814 H   0  0  0  0  0  0  0  0  0  0  0  0
   47.9204   35.3137   37.7552 S   0  0  0  0  0  0  0  0  0  0  0  0
   48.7865   34.5537   36.3981 C   0  0  0  0  0  0  0  0  0  0  0  0
   46.5002   34.8706   37.6787 O   0  0  0  0  0  0  0  0  0  0  0  0
   48.0799   36.7883   37.5764 O   0  0  0  0  0  0  0  0  0  0  0  0
   48.7911   33.4465   36.4550 H   0  0  0  0  0  0  0  0  0  0  0  0
   49.8541   34.9057   36.3468 H   0  0  0  0  0  0  0  0  0  0  0  0
   48.3024   34.8643   35.4338 H   0  0  0  0  0  0  0  0  0  0  0  0
  1  8  1  0
  2  1  1  0
  3  4  1  0
  3  2  1  0
  4  5  1  0
  5  1  1  0
  6 11  2  0
  7  8  2  0
  7  6  1  0
  8  9  1  0
  9 10  2  0
 11 10  1  0
 12  3  1  0
  2 13  1  0
  2 14  1  0
  3 15  1  6
  4 16  1  0
  4 17  1  0
  5 18  1  0
  5 19  1  0
  6 20  1  0
  7 21  1  0
 10 22  1  0
 12 23  1  0
 24 25  1  0
 24 26  2  0
 24 27  2  0
 25 28  1  0
 25 29  1  0
 25 30  1  0
 12 24  1  0
M  ISO  8  13  13  14  13  15  13  16  13  17  13  18  13  19  13  20  14
M  ISO  3  21  14  22  14  23   5
M  END
>  <DihAtoms>  (1) 
2,11,23,24

>  <DihDeg>  (1) 
-61.53649481899676

$$$$
