REMARK  Name = 
REMARK  5 active torsions:
REMARK  status: ('A' for Active; 'I' for Inactive)
REMARK    1  A    between atoms: C_2  and  C_13
REMARK    2  A    between atoms: C_3  and  C_7
REMARK    3  A    between atoms: C_13  and  N_14
REMARK    4  A    between atoms: N_14  and  S_25
REMARK    5  A    between atoms: S_25  and  C_26
REMARK                            x       y       z     vdW  Elec       q    Type
REMARK                         _______ _______ _______ _____ _____    ______ ____
ROOT
ATOM      1  C   UNL     1      44.730  35.204  45.075  0.00  0.00    +0.000 A 
ATOM      2  C   UNL     1      45.360  35.337  43.841  0.00  0.00    +0.000 A 
ATOM      3  C   UNL     1      46.408  34.475  43.550  0.00  0.00    +0.000 A 
ATOM      4  N   UNL     1      46.755  33.553  44.488  0.00  0.00    +0.000 NA
ATOM      5  C   UNL     1      46.117  33.457  45.674  0.00  0.00    +0.000 A 
ATOM      6  N   UNL     1      45.089  34.288  45.982  0.00  0.00    +0.000 NA
ATOM      7  H   UNL     1      43.904  35.846  45.364  0.00  0.00    +0.000 HD
ATOM      8  H   UNL     1      46.398  32.719  46.418  0.00  0.00    +0.000 HD
ENDROOT
BRANCH   3   9
ATOM      9  C   UNL     1      47.085  34.589  42.272  0.00  0.00    +0.000 A 
ATOM     10  C   UNL     1      48.172  35.358  41.952  0.00  0.00    +0.000 A 
ATOM     11  C   UNL     1      48.675  35.328  40.664  0.00  0.00    +0.000 A 
ATOM     12  C   UNL     1      48.083  34.526  39.705  0.00  0.00    +0.000 A 
ATOM     13  C   UNL     1      46.991  33.750  40.016  0.00  0.00    +0.000 A 
ATOM     14  C   UNL     1      46.498  33.789  41.307  0.00  0.00    +0.000 A 
ATOM     15  H   UNL     1      48.565  35.949  42.763  0.00  0.00    +0.000 HD
ATOM     16  H   UNL     1      49.535  35.947  40.441  0.00  0.00    +0.000 HD
ATOM     17  H   UNL     1      48.470  34.494  38.685  0.00  0.00    +0.000 HD
ATOM     18  H   UNL     1      46.562  33.139  39.232  0.00  0.00    +0.000 HD
ATOM     19  H   UNL     1      45.633  33.138  41.446  0.00  0.00    +0.000 HD
ENDBRANCH   3   9
BRANCH   2  20
ATOM     20  C   UNL     1      44.887  36.383  42.906  0.00  0.00    +0.000 C 
ATOM     21  H   UNL     1      43.870  36.230  42.542  0.00  0.00    +0.000 HD
ATOM     22  H   UNL     1      45.580  36.469  42.051  0.00  0.00    +0.000 HD
BRANCH  20  23
ATOM     23  N   UNL     1      45.010  37.640  43.657  0.00  0.00    +0.000 NA
ATOM     24  H   UNL     1      45.966  37.799  43.982  0.00  0.00    +0.000 HD
BRANCH  23  25
ATOM     25  S   UNL     1      44.473  38.957  42.639  0.00  0.00    +0.000 S 
ATOM     26  C   UNL     1      45.806  39.581  41.682  0.00  0.00    +0.000 C 
ATOM     27  O   UNL     1      43.893  40.040  43.516  0.00  0.00    +0.000 OA
ATOM     28  O   UNL     1      43.352  38.451  41.789  0.00  0.00    +0.000 OA
ENDBRANCH  23  25
ENDBRANCH  20  23
ENDBRANCH   2  20
TORSDOF 4
