
 OpenBabel03252501583D

 28 29  0  0  0  0  0  0  0  0999 V2000
   44.7250   35.4290   45.3760 C   0  0  0  0  0  0  0  0  0  0  0  0
   45.4280   35.6120   44.1880 C   0  0  0  0  0  0  0  0  0  0  0  0
   46.2620   34.5880   43.7620 C   0  0  0  0  0  0  0  0  0  0  0  0
   46.3410   33.4690   44.5310 N   0  0  0  0  0  0  0  0  0  0  0  0
   45.6420   33.3310   45.6770 C   0  0  0  0  0  0  0  0  0  0  0  0
   44.8190   34.3180   46.1150 N   0  0  0  0  0  0  0  0  0  0  0  0
   44.0560   36.1910   45.7640 H   0  0  0  0  0  0  0  0  0  0  0  0
   45.7090   32.4350   46.2850 H   0  0  0  0  0  0  0  0  0  0  0  0
   47.0080   34.7490   42.5290 C   0  0  0  0  0  0  0  0  0  0  0  0
   48.1700   35.4450   42.3230 C   0  0  0  0  0  0  0  0  0  0  0  0
   48.7310   35.4790   41.0590 C   0  0  0  0  0  0  0  0  0  0  0  0
   48.1220   34.8140   40.0100 C   0  0  0  0  0  0  0  0  0  0  0  0
   46.9560   34.1130   40.2060 C   0  0  0  0  0  0  0  0  0  0  0  0
   46.4050   34.0870   41.4740 C   0  0  0  0  0  0  0  0  0  0  0  0
   48.5700   35.9290   43.1980 H   0  0  0  0  0  0  0  0  0  0  0  0
   49.6500   36.0370   40.9280 H   0  0  0  0  0  0  0  0  0  0  0  0
   48.5550   34.8340   39.0080 H   0  0  0  0  0  0  0  0  0  0  0  0
   46.5160   33.6100   39.3540 H   0  0  0  0  0  0  0  0  0  0  0  0
   45.4830   33.5040   41.5190 H   0  0  0  0  0  0  0  0  0  0  0  0
   45.2550   36.8800   43.4430 C   0  0  0  0  0  0  0  0  0  0  0  0
   44.5220   36.8270   42.6360 H   0  0  0  0  0  0  0  0  0  0  0  0
   46.2260   37.2210   43.0440 H   0  0  0  0  0  0  0  0  0  0  0  0
   44.8670   37.8640   44.4630 N   0  0  0  0  0  0  0  0  0  0  0  0
   45.1950   37.5990   45.3940 H   0  0  0  0  0  0  0  0  0  0  0  0
   45.5000   39.4280   44.0040 S   0  0  0  0  0  0  0  0  0  0  0  0
   45.1230   39.7780   42.3250 C   0  0  0  0  0  1  0  0  0  0  0  0
   46.9920   39.4320   44.2280 O   0  0  0  0  0  0  0  0  0  0  0  0
   44.9260   40.4460   44.9370 O   0  0  0  0  0  0  0  0  0  0  0  0
  1  7  1  0  0  0  0
  1  6  1  0  0  0  0
  2  1  2  0  0  0  0
  3  2  1  0  0  0  0
  3  4  2  0  0  0  0
  4  5  1  0  0  0  0
  5  6  2  0  0  0  0
  5  8  1  0  0  0  0
  9  3  1  0  0  0  0
 10  9  1  0  0  0  0
 10 15  1  0  0  0  0
 11 10  2  0  0  0  0
 12 13  2  0  0  0  0
 12 11  1  0  0  0  0
 13 14  1  0  0  0  0
 14 19  1  0  0  0  0
 14  9  2  0  0  0  0
 16 11  1  0  0  0  0
 17 12  1  0  0  0  0
 18 13  1  0  0  0  0
 20  2  1  0  0  0  0
 20 23  1  0  0  0  0
 21 20  1  0  0  0  0
 22 20  1  0  0  0  0
 23 24  1  0  0  0  0
 25 27  2  0  0  0  0
 25 23  1  0  0  0  0
 25 28  2  0  0  0  0
 26 25  1  0  0  0  0
M  END
>  <minimizedAffinity>
-2.64731503

>  <minimizedRMSD>
1.10605013

$$$$
