
 OpenBabel03252501583D

 28 29  0  0  0  0  0  0  0  0999 V2000
   44.9660   34.8330   44.9970 C   0  0  0  0  0  0  0  0  0  0  0  0
   46.0970   34.1240   44.6030 C   0  0  0  0  0  0  0  0  0  0  0  0
   46.6820   34.4540   43.3890 C   0  0  0  0  0  0  0  0  0  0  0  0
   46.1140   35.4500   42.6570 N   0  0  0  0  0  0  0  0  0  0  0  0
   45.0150   36.1140   43.0760 C   0  0  0  0  0  0  0  0  0  0  0  0
   44.4260   35.8100   44.2600 N   0  0  0  0  0  0  0  0  0  0  0  0
   44.4620   34.6250   45.9350 H   0  0  0  0  0  0  0  0  0  0  0  0
   44.5670   36.9090   42.4880 H   0  0  0  0  0  0  0  0  0  0  0  0
   47.8620   33.7320   42.9510 C   0  0  0  0  0  0  0  0  0  0  0  0
   47.9820   32.4000   42.6570 C   0  0  0  0  0  0  0  0  0  0  0  0
   49.2060   31.8980   42.2520 C   0  0  0  0  0  0  0  0  0  0  0  0
   50.3000   32.7370   42.1440 C   0  0  0  0  0  0  0  0  0  0  0  0
   50.1900   34.0760   42.4370 C   0  0  0  0  0  0  0  0  0  0  0  0
   48.9610   34.5650   42.8410 C   0  0  0  0  0  0  0  0  0  0  0  0
   47.0770   31.8260   42.7700 H   0  0  0  0  0  0  0  0  0  0  0  0
   49.2700   30.8410   42.0270 H   0  0  0  0  0  0  0  0  0  0  0  0
   51.2710   32.3530   41.8260 H   0  0  0  0  0  0  0  0  0  0  0  0
   51.0740   34.6920   42.3380 H   0  0  0  0  0  0  0  0  0  0  0  0
   48.9830   35.6370   43.0470 H   0  0  0  0  0  0  0  0  0  0  0  0
   46.6180   33.0590   45.4910 C   0  0  0  0  0  0  0  0  0  0  0  0
   47.5110   33.3420   46.0510 H   0  0  0  0  0  0  0  0  0  0  0  0
   46.8180   32.1430   44.9080 H   0  0  0  0  0  0  0  0  0  0  0  0
   45.4980   32.7360   46.3850 N   0  0  0  0  0  0  0  0  0  0  0  0
   44.7550   32.2290   45.8990 H   0  0  0  0  0  0  0  0  0  0  0  0
   46.1070   31.8030   47.7330 S   0  0  0  0  0  0  0  0  0  0  0  0
   45.3880   30.2010   47.7500 C   0  0  0  0  0  0  0  0  0  0  0  0
   45.7960   32.5410   49.0120 O   0  0  0  0  0  0  0  0  0  0  0  0
   47.5970   31.7550   47.6210 O   0  0  0  0  0  0  0  0  0  0  0  0
  1  7  1  0  0  0  0
  2  1  1  0  0  0  0
  2 20  1  0  0  0  0
  3  2  2  0  0  0  0
  4  5  2  0  0  0  0
  4  3  1  0  0  0  0
  5  6  1  0  0  0  0
  6  1  2  0  0  0  0
  8  5  1  0  0  0  0
  9  3  1  0  0  0  0
 10 15  1  0  0  0  0
 10  9  2  0  0  0  0
 11 10  1  0  0  0  0
 12 11  2  0  0  0  0
 12 13  1  0  0  0  0
 13 14  2  0  0  0  0
 14  9  1  0  0  0  0
 14 19  1  0  0  0  0
 16 11  1  0  0  0  0
 17 12  1  0  0  0  0
 18 13  1  0  0  0  0
 20 21  1  0  0  0  0
 20 23  1  0  0  0  0
 22 20  1  0  0  0  0
 23 25  1  0  0  0  0
 24 23  1  0  0  0  0
 25 26  1  0  0  0  0
 25 27  2  0  0  0  0
 28 25  2  0  0  0  0
M  END
>  <minimizedAffinity>
-5.30073214

>  <minimizedRMSD>
5.47932243

$$$$
