
 OpenBabel03242519033D

 27 28  0  0  1  0  0  0  0  0999 V2000
   45.5590   34.3180   43.2190 N   0  0  0  0  0  0  0  0  0  0  0  0
   46.6530   33.9340   44.0880 C   0  0  0  0  0  0  0  0  0  0  0  0
   45.8580   33.6230   45.3230 C   0  0  2  0  0  0  0  0  0  0  0  0
   45.0100   34.8690   45.4500 C   0  0  0  0  0  0  0  0  0  0  0  0
   44.6720   35.1730   44.0010 C   0  0  0  0  0  0  0  0  0  0  0  0
   47.1760   33.0440   43.6610 H   0  0  0  0  0  0  0  0  0  0  0  0
   47.2840   34.8060   44.2410 H   0  0  0  0  0  0  0  0  0  0  0  0
   45.1950   32.7500   45.1610 H   0  0  0  0  0  0  0  0  0  0  0  0
   44.0840   34.7030   46.0380 H   0  0  0  0  0  0  0  0  0  0  0  0
   45.6040   35.7090   45.8440 H   0  0  0  0  0  0  0  0  0  0  0  0
   44.9070   36.2110   43.7220 H   0  0  0  0  0  0  0  0  0  0  0  0
   43.6240   34.8990   43.7670 H   0  0  0  0  0  0  0  0  0  0  0  0
   45.8640   33.3470   39.6460 C   0  0  0  0  0  0  0  0  0  0  0  0
   46.2640   33.6450   40.9420 C   0  0  0  0  0  0  0  0  0  0  0  0
   45.2970   33.9930   41.8740 C   0  0  0  0  0  0  0  0  0  0  0  0
   43.9940   34.0220   41.4490 N   0  0  0  0  0  0  0  0  0  0  0  0
   43.6210   33.7320   40.1910 C   0  0  0  0  0  0  0  0  0  0  0  0
   44.5790   33.3890   39.2780 N   0  0  0  0  0  0  0  0  0  0  0  0
   46.6310   33.0750   38.9240 H   0  0  0  0  0  0  0  0  0  0  0  0
   47.3070   33.6200   41.2730 H   0  0  0  0  0  0  0  0  0  0  0  0
   42.5640   33.7840   39.9630 H   0  0  0  0  0  0  0  0  0  0  0  0
   46.6660   33.5030   46.4820 N   0  0  0  0  0  0  0  0  0  0  0  0
   46.9130   34.3560   46.9880 H   0  0  0  0  0  0  0  0  0  0  0  0
   46.3240   32.1420   47.4610 S   0  0  0  0  0  0  0  0  0  0  0  0
   47.8460   31.6570   48.2490 C   0  0  0  0  0  1  0  0  0  0  0  0
   45.3670   32.5170   48.5390 O   0  0  0  0  0  0  0  0  0  0  0  0
   45.8730   30.9600   46.6680 O   0  0  0  0  0  0  0  0  0  0  0  0
  1  5  1  0  0  0  0
  1  2  1  0  0  0  0
  2  7  1  0  0  0  0
  2  3  1  0  0  0  0
  3  8  1  6  0  0  0
  3  4  1  0  0  0  0
  3 22  1  0  0  0  0
  4 10  1  0  0  0  0
  4  9  1  0  0  0  0
  5  4  1  0  0  0  0
  6  2  1  0  0  0  0
 11  5  1  0  0  0  0
 12  5  1  0  0  0  0
 13 14  1  0  0  0  0
 14 20  1  0  0  0  0
 14 15  2  0  0  0  0
 15  1  1  0  0  0  0
 16 15  1  0  0  0  0
 17 16  2  0  0  0  0
 18 13  2  0  0  0  0
 18 17  1  0  0  0  0
 19 13  1  0  0  0  0
 21 17  1  0  0  0  0
 22 23  1  0  0  0  0
 22 24  1  0  0  0  0
 24 25  1  0  0  0  0
 24 26  2  0  0  0  0
 27 24  2  0  0  0  0
M  END
>  <minimizedAffinity>
-4.26144123

>  <minimizedRMSD>
7.04211044

$$$$
