
 OpenBabel03252501583D

 28 29  0  0  0  0  0  0  0  0999 V2000
   44.9260   35.0480   45.2840 C   0  0  0  0  0  0  0  0  0  0  0  0
   45.5650   35.2960   44.0720 C   0  0  0  0  0  0  0  0  0  0  0  0
   46.5010   34.3720   43.6300 C   0  0  0  0  0  0  0  0  0  0  0  0
   46.7380   33.2810   44.4080 N   0  0  0  0  0  0  0  0  0  0  0  0
   46.0960   33.0780   45.5780 C   0  0  0  0  0  0  0  0  0  0  0  0
   45.1750   33.9670   46.0310 N   0  0  0  0  0  0  0  0  0  0  0  0
   44.1830   35.7300   45.6850 H   0  0  0  0  0  0  0  0  0  0  0  0
   46.2880   32.2060   46.1940 H   0  0  0  0  0  0  0  0  0  0  0  0
   47.1840   34.6020   42.3710 C   0  0  0  0  0  0  0  0  0  0  0  0
   48.2720   35.3980   42.1280 C   0  0  0  0  0  0  0  0  0  0  0  0
   48.7810   35.4860   40.8450 C   0  0  0  0  0  0  0  0  0  0  0  0
   48.1950   34.7740   39.8140 C   0  0  0  0  0  0  0  0  0  0  0  0
   47.1020   33.9720   40.0480 C   0  0  0  0  0  0  0  0  0  0  0  0
   46.6030   33.8930   41.3350 C   0  0  0  0  0  0  0  0  0  0  0  0
   48.6600   35.9140   42.9910 H   0  0  0  0  0  0  0  0  0  0  0  0
   49.6410   36.1240   40.6830 H   0  0  0  0  0  0  0  0  0  0  0  0
   48.5870   34.8350   38.7970 H   0  0  0  0  0  0  0  0  0  0  0  0
   46.6780   33.4340   39.2090 H   0  0  0  0  0  0  0  0  0  0  0  0
   45.7380   33.2310   41.4100 H   0  0  0  0  0  0  0  0  0  0  0  0
   45.2180   36.5230   43.3190 C   0  0  0  0  0  0  0  0  0  0  0  0
   44.3810   36.4020   42.6290 H   0  0  0  0  0  0  0  0  0  0  0  0
   46.1020   36.8940   42.7720 H   0  0  0  0  0  0  0  0  0  0  0  0
   44.9280   37.5260   44.3520 N   0  0  0  0  0  0  0  0  0  0  0  0
   45.3420   37.2790   45.2530 H   0  0  0  0  0  0  0  0  0  0  0  0
   45.5140   39.0810   43.8050 S   0  0  0  0  0  0  0  0  0  0  0  0
   47.2600   39.0510   43.6200 C   0  0  0  0  0  1  0  0  0  0  0  0
   45.1000   40.1330   44.8050 O   0  0  0  0  0  0  0  0  0  0  0  0
   44.8140   39.4110   42.5250 O   0  0  0  0  0  0  0  0  0  0  0  0
  1  7  1  0  0  0  0
  1  6  1  0  0  0  0
  2  1  2  0  0  0  0
  3  2  1  0  0  0  0
  3  4  2  0  0  0  0
  4  5  1  0  0  0  0
  5  6  2  0  0  0  0
  5  8  1  0  0  0  0
  9  3  1  0  0  0  0
 10  9  1  0  0  0  0
 10 15  1  0  0  0  0
 11 10  2  0  0  0  0
 12 13  2  0  0  0  0
 12 11  1  0  0  0  0
 13 14  1  0  0  0  0
 14 19  1  0  0  0  0
 14  9  2  0  0  0  0
 16 11  1  0  0  0  0
 17 12  1  0  0  0  0
 18 13  1  0  0  0  0
 20  2  1  0  0  0  0
 20 23  1  0  0  0  0
 21 20  1  0  0  0  0
 22 20  1  0  0  0  0
 23 24  1  0  0  0  0
 25 23  1  0  0  0  0
 25 27  2  0  0  0  0
 26 25  1  0  0  0  0
 28 25  2  0  0  0  0
M  END
>  <minimizedAffinity>
-2.72694325

>  <minimizedRMSD>
0.996568382

$$$$
