
 OpenBabel03242522333D

 21 22  0  0  0  0  0  0  0  0999 V2000
   46.6250   33.2250   45.6890 C   0  0  0  0  0  0  0  0  0  0  0  0
   45.9300   33.7480   46.4120 H   0  0  0  0  0  0  0  0  0  0  0  0
   47.6270   33.6060   45.9380 H   0  0  0  0  0  0  0  0  0  0  0  0
   44.6660   34.0160   42.6090 C   0  0  0  0  0  0  0  0  0  0  0  0
   45.6390   34.5990   41.7930 C   0  0  0  0  0  0  0  0  0  0  0  0
   46.9270   34.7110   42.3030 C   0  0  0  0  0  0  0  0  0  0  0  0
   47.1940   34.2560   43.5550 N   0  0  0  0  0  0  0  0  0  0  0  0
   46.2130   33.6880   44.3300 C   0  0  0  0  0  0  0  0  0  0  0  0
   44.9700   33.5850   43.8290 N   0  0  0  0  0  0  0  0  0  0  0  0
   43.6280   33.8870   42.2880 H   0  0  0  0  0  0  0  0  0  0  0  0
   45.3470   34.9350   40.8070 H   0  0  0  0  0  0  0  0  0  0  0  0
   47.6920   35.1570   41.6930 H   0  0  0  0  0  0  0  0  0  0  0  0
   45.1760   32.0640   48.2460 Br  0  0  0  0  0  0  0  0  0  0  0  0
   46.0270   31.0420   46.8520 C   0  0  0  0  0  0  0  0  0  0  0  0
   46.5990   31.7680   45.8280 C   0  0  0  0  0  0  0  0  0  0  0  0
   47.2040   30.9830   44.8410 C   0  0  0  0  0  0  0  0  0  0  0  0
   47.6750   31.5130   44.0000 H   0  0  0  0  0  0  0  0  0  0  0  0
   47.2370   29.6050   44.8700 C   0  0  0  0  0  0  0  0  0  0  0  0
   47.7340   29.1060   44.0490 H   0  0  0  0  0  0  0  0  0  0  0  0
   46.6440   28.9570   45.9250 C   0  0  0  0  0  3  0  0  0  0  0  0
   46.0250   29.6670   46.9410 C   0  0  0  0  0  3  0  0  0  0  0  0
  1 15  1  0  0  0  0
  1  3  1  0  0  0  0
  1  2  1  0  0  0  0
  4  9  1  0  0  0  0
  5  6  1  0  0  0  0
  5  4  2  0  0  0  0
  6  7  2  0  0  0  0
  7  8  1  0  0  0  0
  8  1  1  0  0  0  0
  9  8  2  0  0  0  0
 10  4  1  0  0  0  0
 11  5  1  0  0  0  0
 12  6  1  0  0  0  0
 14 21  1  0  0  0  0
 14 13  1  0  0  0  0
 15 14  2  0  0  0  0
 16 18  2  0  0  0  0
 16 15  1  0  0  0  0
 17 16  1  0  0  0  0
 18 20  1  0  0  0  0
 19 18  1  0  0  0  0
 20 21  2  0  0  0  0
M  END
>  <minimizedAffinity>
-3.43613124

>  <minimizedRMSD>
2.11630678

$$$$
