
 OpenBabel03242510573D

 36 38  0  0  0  0  0  0  0  0999 V2000
   45.6880   31.4410   47.0180 C   0  0  0  0  0  0  0  0  0  0  0  0
   45.7510   31.8220   48.3650 C   0  0  0  0  0  0  0  0  0  0  0  0
   45.5370   30.9490   49.4110 C   0  0  0  0  0  0  0  0  0  0  0  0
   45.2480   29.6400   49.0940 C   0  0  0  0  0  0  0  0  0  0  0  0
   45.1840   29.2580   47.7510 C   0  0  0  0  0  0  0  0  0  0  0  0
   45.4020   30.1590   46.7980 N   0  0  0  0  0  0  0  0  0  0  0  0
   45.9820   32.8630   48.5660 H   0  0  0  0  0  0  0  0  0  0  0  0
   45.6090   31.3410   50.3960 H   0  0  0  0  0  0  0  0  0  0  0  0
   45.0860   28.9860   49.9390 H   0  0  0  0  0  0  0  0  0  0  0  0
   44.7740   36.5320   43.9010 C   0  0  0  0  0  0  0  0  0  0  0  0
   45.6810   36.2780   42.8620 C   0  0  0  0  0  0  0  0  0  0  0  0
   46.3470   35.0520   42.8540 C   0  0  0  0  0  0  0  0  0  0  0  0
   46.0980   34.1520   43.8470 N   0  0  0  0  0  0  0  0  0  0  0  0
   45.2130   34.4400   44.8320 C   0  0  0  0  0  0  0  0  0  0  0  0
   44.5470   35.6350   44.8630 N   0  0  0  0  0  0  0  0  0  0  0  0
   45.9270   32.4260   45.9730 C   0  0  0  0  0  0  0  0  0  0  0  0
   46.9420   32.2960   45.2420 O   0  0  0  0  0  0  0  0  0  0  0  0
   44.9750   33.4870   45.8510 N   0  0  0  0  0  0  0  0  0  0  0  0
   44.2960   37.5080   43.8390 H   0  0  0  0  0  0  0  0  0  0  0  0
   45.9380   36.9220   42.0430 H   0  0  0  0  0  0  0  0  0  0  0  0
   47.0740   34.7620   42.0830 H   0  0  0  0  0  0  0  0  0  0  0  0
   44.1610   33.5270   46.4920 H   0  0  0  0  0  0  0  0  0  0  0  0
   44.8960   27.8770   47.4440 C   0  0  0  0  0  3  0  0  0  0  0  0
   44.1560   27.1510   48.2490 C   0  0  0  0  0  3  0  0  0  0  0  0
   43.7670   25.7250   48.1140 C   0  0  0  0  0  0  0  0  0  0  0  0
   42.8970   25.4550   48.7420 H   0  0  0  0  0  0  0  0  0  0  0  0
   43.6080   25.4800   47.0350 H   0  0  0  0  0  0  0  0  0  0  0  0
   44.5960   23.7720   45.8820 Br  0  0  0  0  0  0  0  0  0  0  0  0
   45.4150   23.9920   47.6020 C   0  0  0  0  0  0  0  0  0  0  0  0
   44.9460   24.9200   48.5360 C   0  0  0  0  0  0  0  0  0  0  0  0
   45.6130   25.0090   49.7660 C   0  0  0  0  0  0  0  0  0  0  0  0
   45.2040   25.7470   50.4460 H   0  0  0  0  0  0  0  0  0  0  0  0
   46.6940   24.1830   49.9980 C   0  0  0  0  0  0  0  0  0  0  0  0
   47.1890   24.2850   50.9770 H   0  0  0  0  0  0  0  0  0  0  0  0
   47.1380   23.2740   49.0610 C   0  0  0  0  0  3  0  0  0  0  0  0
   46.4930   23.1670   47.8320 C   0  0  0  0  0  3  0  0  0  0  0  0
  1  2  1  0  0  0  0
  2  7  1  0  0  0  0
  2  3  2  0  0  0  0
  3  8  1  0  0  0  0
  4  3  1  0  0  0  0
  4  9  1  0  0  0  0
  5  4  2  0  0  0  0
  6  1  2  0  0  0  0
  6  5  1  0  0  0  0
 10 15  1  0  0  0  0
 11 10  2  0  0  0  0
 12 11  1  0  0  0  0
 12 13  2  0  0  0  0
 13 14  1  0  0  0  0
 14 15  2  0  0  0  0
 14 18  1  0  0  0  0
 16  1  1  0  0  0  0
 17 16  2  0  0  0  0
 18 16  1  0  0  0  0
 18 22  1  0  0  0  0
 19 10  1  0  0  0  0
 20 11  1  0  0  0  0
 21 12  1  0  0  0  0
 23  5  1  0  0  0  0
 23 24  2  0  0  0  0
 25 24  1  0  0  0  0
 25 30  1  0  0  0  0
 25 26  1  0  0  0  0
 27 25  1  0  0  0  0
 28 29  1  0  0  0  0
 29 36  2  0  0  0  0
 29 30  1  0  0  0  0
 30 31  2  0  0  0  0
 31 33  1  0  0  0  0
 31 32  1  0  0  0  0
 33 34  1  0  0  0  0
 35 33  2  0  0  0  0
 36 35  1  0  0  0  0
M  END
>  <minimizedAffinity>
-5.57259703

>  <minimizedRMSD>
1.61234009

$$$$
