
 OpenBabel03242515173D

 37 39  0  0  0  0  0  0  0  0999 V2000
   45.3870   30.5940   47.1910 C   0  0  0  0  0  0  0  0  0  0  0  0
   45.4110   29.9280   45.9870 C   0  0  0  0  0  0  0  0  0  0  0  0
   45.1500   28.5940   46.2560 C   0  0  0  0  0  0  0  0  0  0  0  0
   44.9790   28.4700   47.5640 N   0  0  0  0  0  0  0  0  0  0  0  0
   45.1230   29.6810   48.1140 N   0  0  0  0  0  0  0  0  0  0  0  0
   45.6090   30.4570   45.0650 H   0  0  0  0  0  0  0  0  0  0  0  0
   42.3550   28.3730   45.1440 Br  0  0  0  0  0  0  0  0  0  0  0  0
   43.9190   27.4460   44.5030 C   0  0  0  0  0  0  0  0  0  0  0  0
   45.1530   27.6780   45.1350 C   0  0  0  0  0  0  0  0  0  0  0  0
   46.1490   26.9370   44.5480 C   0  0  0  0  0  0  0  0  0  0  0  0
   47.1320   27.0320   44.9750 H   0  0  0  0  0  0  0  0  0  0  0  0
   45.9840   26.0820   43.4880 C   0  0  0  0  0  0  0  0  0  0  0  0
   46.8510   25.5550   43.1170 H   0  0  0  0  0  0  0  0  0  0  0  0
   44.7520   25.9110   42.9270 C   0  0  0  0  0  0  0  0  0  0  0  0
   43.6880   26.6100   43.4460 C   0  0  0  0  0  0  0  0  0  0  0  0
   44.7030   27.2380   48.3000 C   0  0  0  0  0  0  0  0  0  0  0  0
   44.2980   27.5670   49.6140 F   0  0  0  0  0  0  0  0  0  0  0  0
   45.7990   26.4220   48.3160 F   0  0  0  0  0  0  0  0  0  0  0  0
   43.6380   26.6030   47.7330 F   0  0  0  0  0  0  0  0  0  0  0  0
   45.5980   32.0180   47.4750 C   0  0  0  0  0  0  0  0  0  0  0  0
   44.6420   32.5450   47.3200 H   0  0  0  0  0  0  0  0  0  0  0  0
   45.8620   32.1770   48.5450 H   0  0  0  0  0  0  0  0  0  0  0  0
   46.5920   32.6360   46.5170 C   0  0  0  0  0  0  0  0  0  0  0  0
   47.4060   33.0770   47.1620 H   0  0  0  0  0  0  0  0  0  0  0  0
   47.0460   31.8200   45.9740 H   0  0  0  0  0  0  0  0  0  0  0  0
   44.5770   35.4130   45.0670 C   0  0  0  0  0  0  0  0  0  0  0  0
   45.1170   35.4700   43.7560 C   0  0  0  0  0  0  0  0  0  0  0  0
   46.1220   34.5700   43.4520 C   0  0  0  0  0  0  0  0  0  0  0  0
   46.4870   33.7290   44.4320 N   0  0  0  0  0  0  0  0  0  0  0  0
   45.9760   33.6810   45.6590 C   0  0  0  0  0  0  0  0  0  0  0  0
   45.0160   34.5350   45.9640 N   0  0  0  0  0  0  0  0  0  0  0  0
   43.7770   36.1180   45.3320 H   0  0  0  0  0  0  0  0  0  0  0  0
   44.6990   36.2130   43.1010 H   0  0  0  0  0  0  0  0  0  0  0  0
   46.6690   34.6430   42.1050 C   0  0  0  0  0  0  0  0  0  0  0  0
   47.4460   33.5080   41.8650 F   0  0  0  0  0  0  0  0  0  0  0  0
   47.5800   35.7020   42.1120 F   0  0  0  0  0  0  0  0  0  0  0  0
   45.7150   34.7540   41.1390 F   0  0  0  0  0  0  0  0  0  0  0  0
  1 20  1  0  0  0  0
  1  5  2  0  0  0  0
  2  3  2  0  0  0  0
  2  1  1  0  0  0  0
  3  4  1  0  0  0  0
  4  5  1  0  0  0  0
  4 16  1  0  0  0  0
  6  2  1  0  0  0  0
  8  9  1  0  0  0  0
  8  7  1  0  0  0  0
  9  3  1  0  0  0  0
 10 11  1  0  0  0  0
 10  9  2  0  0  0  0
 12 10  1  0  0  0  0
 13 12  1  0  0  0  0
 14 15  1  0  0  0  0
 14 12  2  0  0  0  0
 15  8  2  0  0  0  0
 16 18  1  0  0  0  0
 16 17  1  0  0  0  0
 19 16  1  0  0  0  0
 20 22  1  0  0  0  0
 21 20  1  0  0  0  0
 23 24  1  0  0  0  0
 23 20  1  0  0  0  0
 25 23  1  0  0  0  0
 26 32  1  0  0  0  0
 26 31  1  0  0  0  0
 27 26  2  0  0  0  0
 28 27  1  0  0  0  0
 28 29  2  0  0  0  0
 29 30  1  0  0  0  0
 30 31  2  0  0  0  0
 30 23  1  0  0  0  0
 33 27  1  0  0  0  0
 34 36  1  0  0  0  0
 34 28  1  0  0  0  0
 35 34  1  0  0  0  0
 37 34  1  0  0  0  0
M  END
>  <minimizedAffinity>
-5.42147446

>  <minimizedRMSD>
0.630916059

$$$$
