
 OpenBabel03242510573D

 36 38  0  0  0  0  0  0  0  0999 V2000
   45.7380   31.7110   47.0570 C   0  0  0  0  0  0  0  0  0  0  0  0
   45.6070   32.1640   48.3770 C   0  0  0  0  0  0  0  0  0  0  0  0
   45.4050   31.3240   49.4510 C   0  0  0  0  0  0  0  0  0  0  0  0
   45.3290   29.9740   49.1930 C   0  0  0  0  0  0  0  0  0  0  0  0
   45.4590   29.5190   47.8780 C   0  0  0  0  0  0  0  0  0  0  0  0
   45.6520   30.3920   46.8940 N   0  0  0  0  0  0  0  0  0  0  0  0
   45.6740   33.2370   48.5310 H   0  0  0  0  0  0  0  0  0  0  0  0
   45.3200   31.7730   50.4110 H   0  0  0  0  0  0  0  0  0  0  0  0
   45.1690   29.3470   50.0590 H   0  0  0  0  0  0  0  0  0  0  0  0
   44.7340   36.7020   43.8090 C   0  0  0  0  0  0  0  0  0  0  0  0
   45.6200   36.4210   42.7600 C   0  0  0  0  0  0  0  0  0  0  0  0
   46.2920   35.1990   42.7750 C   0  0  0  0  0  0  0  0  0  0  0  0
   46.0680   34.3270   43.7990 N   0  0  0  0  0  0  0  0  0  0  0  0
   45.2020   34.6410   44.7940 C   0  0  0  0  0  0  0  0  0  0  0  0
   44.5310   35.8340   44.8020 N   0  0  0  0  0  0  0  0  0  0  0  0
   45.9500   32.6650   45.9790 C   0  0  0  0  0  0  0  0  0  0  0  0
   46.9500   32.5180   45.2310 O   0  0  0  0  0  0  0  0  0  0  0  0
   44.9900   33.7180   45.8450 N   0  0  0  0  0  0  0  0  0  0  0  0
   44.2500   37.6730   43.7290 H   0  0  0  0  0  0  0  0  0  0  0  0
   45.8570   37.0420   41.9170 H   0  0  0  0  0  0  0  0  0  0  0  0
   47.0050   34.8890   41.9980 H   0  0  0  0  0  0  0  0  0  0  0  0
   44.1900   33.7730   46.5010 H   0  0  0  0  0  0  0  0  0  0  0  0
   45.3930   28.0970   47.6340 C   0  0  0  0  0  3  0  0  0  0  0  0
   44.2560   27.4500   47.7400 C   0  0  0  0  0  3  0  0  0  0  0  0
   43.9920   26.0030   47.5470 C   0  0  0  0  0  0  0  0  0  0  0  0
   43.0260   25.6790   47.9780 H   0  0  0  0  0  0  0  0  0  0  0  0
   44.0840   25.7470   46.4620 H   0  0  0  0  0  0  0  0  0  0  0  0
   43.6300   26.0820   50.6030 Br  0  0  0  0  0  0  0  0  0  0  0  0
   45.0460   25.2460   49.6190 C   0  0  0  0  0  0  0  0  0  0  0  0
   45.1010   25.2750   48.2230 C   0  0  0  0  0  0  0  0  0  0  0  0
   46.1760   24.6320   47.5930 C   0  0  0  0  0  0  0  0  0  0  0  0
   46.1630   24.6890   46.5120 H   0  0  0  0  0  0  0  0  0  0  0  0
   47.1260   24.0040   48.3740 C   0  0  0  0  0  0  0  0  0  0  0  0
   47.9520   23.5100   47.8390 H   0  0  0  0  0  0  0  0  0  0  0  0
   47.0510   23.9880   49.7510 C   0  0  0  0  0  3  0  0  0  0  0  0
   45.9930   24.6190   50.3990 C   0  0  0  0  0  3  0  0  0  0  0  0
  1  2  1  0  0  0  0
  2  7  1  0  0  0  0
  2  3  2  0  0  0  0
  3  8  1  0  0  0  0
  4  3  1  0  0  0  0
  4  9  1  0  0  0  0
  5  4  2  0  0  0  0
  6  1  2  0  0  0  0
  6  5  1  0  0  0  0
 10 15  1  0  0  0  0
 11 12  1  0  0  0  0
 11 10  2  0  0  0  0
 12 13  2  0  0  0  0
 13 14  1  0  0  0  0
 14 15  2  0  0  0  0
 14 18  1  0  0  0  0
 16  1  1  0  0  0  0
 17 16  2  0  0  0  0
 18 16  1  0  0  0  0
 18 22  1  0  0  0  0
 19 10  1  0  0  0  0
 20 11  1  0  0  0  0
 21 12  1  0  0  0  0
 23 24  2  0  0  0  0
 23  5  1  0  0  0  0
 25 24  1  0  0  0  0
 25 26  1  0  0  0  0
 25 30  1  0  0  0  0
 27 25  1  0  0  0  0
 29 36  1  0  0  0  0
 29 28  1  0  0  0  0
 30 29  2  0  0  0  0
 31 30  1  0  0  0  0
 31 33  2  0  0  0  0
 32 31  1  0  0  0  0
 33 35  1  0  0  0  0
 34 33  1  0  0  0  0
 35 36  2  0  0  0  0
M  END
>  <minimizedAffinity>
-5.82293558

>  <minimizedRMSD>
1.22274065

$$$$
