
     RDKit          3D

 27 29  0  0  0  0  0  0  0  0999 V2000
   44.5555   35.8772   44.4073 C   0  0  0  0  0  0  0  0  0  0  0  0
   45.2964   35.5992   43.2471 C   0  0  0  0  0  0  0  0  0  0  0  0
   46.1993   34.5173   43.2860 C   0  0  0  0  0  0  0  0  0  0  0  0
   46.3107   33.7976   44.4368 N   0  0  0  0  0  0  0  0  0  0  0  0
   45.5793   34.0965   45.5344 C   0  0  0  0  0  0  0  0  0  0  0  0
   44.7008   35.1322   45.5296 N   0  0  0  0  0  0  0  0  0  0  0  0
   45.7289   33.3007   46.7462 C   0  0  0  0  0  0  0  0  0  0  0  0
   46.8633   32.5495   47.0760 C   0  0  0  0  0  0  0  0  0  0  0  0
   46.6263   31.9515   48.2731 C   0  0  0  0  0  0  0  0  0  0  0  0
   45.3973   32.3165   48.6682 N   0  0  0  0  0  0  0  0  0  0  0  0
   44.8573   33.1330   47.7415 N   0  0  0  0  0  0  0  0  0  0  0  0
   43.8438   36.6794   44.4753 H   0  0  0  0  0  0  0  0  0  0  0  0
   45.1528   36.2117   42.3797 H   0  0  0  0  0  0  0  0  0  0  0  0
   46.7782   34.2882   42.4025 H   0  0  0  0  0  0  0  0  0  0  0  0
   47.7631   32.4647   46.4808 H   0  0  0  0  0  0  0  0  0  0  0  0
   47.2381   31.2993   48.8652 H   0  0  0  0  0  0  0  0  0  0  0  0
   43.4567   29.9801   48.2228 Br  0  0  0  0  0  0  0  0  0  0  0  0
   43.7362   30.9579   49.8510 C   0  0  0  0  0  0  0  0  0  0  0  0
   44.6639   31.9802   49.8332 C   0  0  0  0  0  0  0  0  0  0  0  0
   44.8680   32.6845   50.9987 C   0  0  0  0  0  0  0  0  0  0  0  0
   45.5798   33.4986   51.0577 H   0  0  0  0  0  0  0  0  0  0  0  0
   44.1478   32.3500   52.1322 C   0  0  0  0  0  0  0  0  0  0  0  0
   44.3122   32.9081   53.0487 H   0  0  0  0  0  0  0  0  0  0  0  0
   43.2198   31.3364   52.1721 C   0  0  0  0  0  0  0  0  0  0  0  0
   43.0315   30.6404   50.9845 C   0  0  0  0  0  0  0  0  0  0  0  0
   42.6776   31.1077   53.0818 H   0  0  0  0  0  0  0  0  0  0  0  0
   42.3041   29.8290   50.9743 H   0  0  0  0  0  0  0  0  0  0  0  0
  1  6  2  0
  2  3  2  0
  2  1  1  0
  3  4  1  0
  4  5  2  0
  5  7  1  0
  6  5  1  0
  7  8  1  0
  7 11  2  0
  8  9  2  0
  9 10  1  0
 11 10  1  0
  1 12  1  0
  2 13  1  0
  3 14  1  0
  8 15  1  0
  9 16  1  0
 17 18  1  0
 18 19  2  0
 19 20  1  0
 20 21  1  0
 20 22  2  0
 22 23  1  0
 22 24  1  0
 24 25  2  0
 25 18  1  0
 24 26  1  0
 25 27  1  0
 10 19  1  0
M  ISO  7  12  14  13  14  14  14  15  14  16  14  21  15  23  16
M  END
>  <DihAtoms>  (1) 
8,9,18,17

>  <DihDeg>  (1) 
143.74386315522693

$$$$
