
 OpenBabel03242523403D

 37 41  0  0  1  0  0  0  0  0999 V2000
   46.8030   32.9170   44.5140 C   0  0  2  0  0  0  0  0  0  0  0  0
   47.4250   31.8010   44.4580 N   0  0  2  0  0  4  0  0  0  0  0  0
   47.4550   30.5640   44.2440 C   0  0  0  0  0  0  0  0  0  0  0  0
   47.7830   30.4530   45.5670 N   0  0  0  0  0  0  0  0  0  0  0  0
   46.9650   31.2210   46.3560 C   0  0  2  0  0  3  0  0  0  0  0  0
   46.7030   30.6950   47.6550 C   0  0  0  0  0  0  0  0  0  0  0  0
   45.8670   31.3960   48.4320 C   0  0  0  0  0  0  0  0  0  0  0  0
   45.2670   32.5560   48.0670 C   0  0  0  0  0  0  0  0  0  0  0  0
   45.6160   32.9490   46.7770 C   0  0  0  0  0  0  0  0  0  0  0  0
   46.4450   32.4050   45.7950 C   0  0  1  0  0  0  0  0  0  0  0  0
   47.6570   33.6760   44.8920 H   0  0  0  0  0  0  0  0  0  0  0  0
   48.2890   32.0640   43.8130 H   0  0  0  0  0  0  0  0  0  0  0  0
   48.2000   29.9810   43.6160 H   0  0  0  0  0  0  0  0  0  0  0  0
   46.5060   30.0440   43.9900 H   0  0  0  0  0  0  0  0  0  0  0  0
   48.5820   29.8330   45.9250 H   0  0  0  0  0  0  0  0  0  0  0  0
   47.1410   29.7880   48.0200 H   0  0  0  0  0  0  0  0  0  0  0  0
   45.6720   30.9800   49.4380 H   0  0  0  0  0  0  0  0  0  0  0  0
   44.6220   33.0480   48.7330 H   0  0  0  0  0  0  0  0  0  0  0  0
   45.0680   33.8860   46.6390 H   0  0  0  0  0  0  0  0  0  0  0  0
   44.4710   35.7910   44.3520 C   0  0  0  0  0  0  0  0  0  0  0  0
   44.0670   35.5890   43.0240 C   0  0  0  0  0  0  0  0  0  0  0  0
   44.6120   34.5070   42.3560 C   0  0  0  0  0  0  0  0  0  0  0  0
   45.4910   33.7390   43.0470 N   0  0  0  0  0  0  0  0  0  0  0  0
   45.8720   33.9500   44.3310 C   0  0  0  0  0  0  0  0  0  0  0  0
   45.3210   34.9560   44.8540 N   0  0  0  0  0  0  0  0  0  0  0  0
   44.1010   36.6080   44.9600 H   0  0  0  0  0  0  0  0  0  0  0  0
   43.3610   36.2630   42.5750 H   0  0  0  0  0  0  0  0  0  0  0  0
   44.1170   34.2310   40.6830 S   0  0  0  0  0  0  0  0  0  0  0  0
   42.3390   32.0930   39.1460 Br  0  0  0  0  0  0  0  0  0  0  0  0
   41.5960   33.7080   39.8720 C   0  0  0  0  0  0  0  0  0  0  0  0
   42.3840   34.6450   40.5470 C   0  0  0  0  0  0  0  0  0  0  0  0
   41.7610   35.7930   41.0440 C   0  0  0  0  0  0  0  0  0  0  0  0
   42.4210   36.4570   41.5440 H   0  0  0  0  0  0  0  0  0  0  0  0
   40.4150   35.9380   40.8430 C   0  0  0  0  0  0  0  0  0  0  0  0
   39.9700   36.8510   41.2480 H   0  0  0  0  0  0  0  0  0  0  0  0
   39.6390   35.0130   40.1760 C   0  0  0  0  0  3  0  0  0  0  0  0
   40.2520   33.8860   39.6890 C   0  0  0  0  0  3  0  0  0  0  0  0
  1 11  1  1  0  0  0
  1 10  1  0  0  0  0
  2 12  1  1  0  0  0
  2  1  1  0  0  0  0
  2 10  1  0  0  0  0
  3  2  1  0  0  0  0
  3  4  1  0  0  0  0
  4 15  1  0  0  0  0
  4  5  1  0  0  0  0
  5  6  1  6  0  0  0
  6 16  1  0  0  0  0
  6  7  2  0  0  0  0
  7 17  1  0  0  0  0
  8  7  1  0  0  0  0
  8 18  1  0  0  0  0
  9  8  2  0  0  0  0
 10  5  1  0  0  0  0
 10  9  1  6  0  0  0
 13  3  1  0  0  0  0
 14  3  1  0  0  0  0
 19  9  1  0  0  0  0
 20 25  1  0  0  0  0
 20 26  1  0  0  0  0
 21 20  2  0  0  0  0
 22 21  1  0  0  0  0
 22 23  2  0  0  0  0
 23 24  1  0  0  0  0
 24  1  1  0  0  0  0
 24 25  2  0  0  0  0
 27 21  1  0  0  0  0
 28 22  1  0  0  0  0
 29 30  1  0  0  0  0
 30 31  1  0  0  0  0
 31 28  1  0  0  0  0
 31 32  2  0  0  0  0
 32 33  1  0  0  0  0
 34 32  1  0  0  0  0
 34 35  1  0  0  0  0
 36 34  2  0  0  0  0
 37 30  2  0  0  0  0
 37 36  1  0  0  0  0
M  END
>  <minimizedAffinity>
-6.20640373

>  <minimizedRMSD>
1.66851413

$$$$
