REMARK  Name = 
REMARK  3 active torsions:
REMARK  status: ('A' for Active; 'I' for Inactive)
REMARK    1  A    between atoms: C_1  and  C_15
REMARK    2  A    between atoms: C_13  and  S_17
REMARK    3  A    between atoms: S_17  and  C_31
REMARK                            x       y       z     vdW  Elec       q    Type
REMARK                         _______ _______ _______ _____ _____    ______ ____
ROOT
ATOM      1  C   UNL     1      46.738  32.575  45.063  0.00  0.00    +0.000 C 
ATOM      2  N   UNL     1      47.345  31.458  44.929  0.00  0.00    +0.000 NA
ATOM      3  C   UNL     1      47.347  30.223  44.703  0.00  0.00    +0.000 C 
ATOM      4  N   UNL     1      47.819  30.099  45.980  0.00  0.00    +0.000 N 
ATOM      5  C   UNL     1      47.096  30.862  46.862  0.00  0.00    +0.000 A 
ATOM      6  C   UNL     1      46.977  30.325  48.177  0.00  0.00    +0.000 A 
ATOM      7  C   UNL     1      46.235  31.022  49.048  0.00  0.00    +0.000 A 
ATOM      8  C   UNL     1      45.602  32.186  48.761  0.00  0.00    +0.000 A 
ATOM      9  C   UNL     1      45.808  32.590  47.444  0.00  0.00    +0.000 A 
ATOM     10  C   UNL     1      46.521  32.053  46.372  0.00  0.00    +0.000 A 
ATOM     11  H   UNL     1      47.631  33.328  45.351  0.00  0.00    +0.000 HD
ATOM     12  H   UNL     1      48.134  31.724  44.195  0.00  0.00    +0.000 HD
ATOM     13  H   UNL     1      48.016  29.643  43.991  0.00  0.00    +0.000 HD
ATOM     14  H   UNL     1      46.374  29.708  44.551  0.00  0.00    +0.000 HD
ATOM     15  H   UNL     1      48.650  29.474  46.243  0.00  0.00    +0.000 HD
ATOM     16  H   UNL     1      47.449  29.414  48.483  0.00  0.00    +0.000 HD
ATOM     17  H   UNL     1      46.150  30.597  50.065  0.00  0.00    +0.000 HD
ATOM     18  H   UNL     1      45.037  32.674  49.499  0.00  0.00    +0.000 HD
ATOM     19  H   UNL     1      45.252  33.530  47.375  0.00  0.00    +0.000 HD
ENDROOT
BRANCH   1  24
ATOM     20  C   UNL     1      44.316  35.373  45.243  0.00  0.00    +0.000 A 
ATOM     21  C   UNL     1      44.143  35.518  43.859  0.00  0.00    +0.000 A 
ATOM     22  C   UNL     1      44.845  34.651  43.040  0.00  0.00    +0.000 A 
ATOM     23  N   UNL     1      45.639  33.738  43.652  0.00  0.00    +0.000 NA
ATOM     24  C   UNL     1      45.796  33.612  44.993  0.00  0.00    +0.000 A 
ATOM     25  N   UNL     1      45.116  34.444  45.653  0.00  0.00    +0.000 NA
ATOM     26  H   UNL     1      43.811  36.001  45.967  0.00  0.00    +0.000 HD
ATOM     27  H   UNL     1      43.485  36.280  43.483  0.00  0.00    +0.000 HD
BRANCH  22  28
ATOM     28  S   UNL     1      44.642  34.814  41.293  0.00  0.00    +0.000 S 
BRANCH  28  31
ATOM     29 BR   UNL     1      42.403  34.214  39.122  0.00  0.00    +0.000 Br
ATOM     30  C   UNL     1      42.510  35.897  40.040  0.00  0.00    +0.000 A 
ATOM     31  C   UNL     1      43.499  36.154  40.995  0.00  0.00    +0.000 A 
ATOM     32  C   UNL     1      43.504  37.406  41.616  0.00  0.00    +0.000 A 
ATOM     33  H   UNL     1      44.282  37.529  42.328  0.00  0.00    +0.000 HD
ATOM     34  C   UNL     1      42.542  38.312  41.257  0.00  0.00    +0.000 A 
ATOM     35  H   UNL     1      42.584  39.277  41.768  0.00  0.00    +0.000 HD
ATOM     36  C   UNL     1      41.568  38.055  40.315  0.00  0.00    +0.000 A 
ATOM     37  C   UNL     1      41.564  36.825  39.706  0.00  0.00    +0.000 A 
ENDBRANCH  28  31
ENDBRANCH  22  28
ENDBRANCH   1  24
TORSDOF 3
