
     RDKit          3D

 38 41  0  0  0  0  0  0  0  0999 V2000
   45.2146   36.1709   43.4972 C   0  0  0  0  0  0  0  0  0  0  0  0
   45.8667   34.9688   43.1661 C   0  0  0  0  0  0  0  0  0  0  0  0
   45.8161   33.9966   44.1371 C   0  0  0  0  0  0  0  0  0  0  0  0
   45.1885   34.1868   45.3137 N   0  0  0  0  0  0  0  0  0  0  0  0
   44.5753   35.3650   45.5826 C   0  0  0  0  0  0  0  0  0  0  0  0
   44.5930   36.3476   44.6729 N   0  0  0  0  0  0  0  0  0  0  0  0
   46.4477   32.7532   43.8916 C   0  0  0  0  0  0  0  0  0  0  0  0
   47.7154   32.2746   44.0148 C   0  0  0  0  0  0  0  0  0  0  0  0
   48.0223   31.0338   43.7015 C   0  0  0  0  0  0  0  0  0  0  0  0
   47.0291   30.2388   43.2480 C   0  0  0  0  0  0  0  0  0  0  0  0
   45.5708   31.3332   43.2721 S   0  0  0  0  0  0  0  0  0  0  0  0
   46.5094   34.8299   41.9114 C   0  0  0  0  0  0  0  0  0  0  0  0
   47.7126   35.2525   41.8577 O   0  0  0  0  0  0  0  0  0  0  0  0
   45.7895   34.2212   40.7472 C   0  0  0  0  0  0  0  0  0  0  0  0
   44.4365   34.3244   40.4945 C   0  0  0  0  0  0  0  0  0  0  0  0
   44.2391   33.6300   39.3567 N   0  0  0  0  0  0  0  0  0  0  0  0
   45.4156   33.1279   38.9365 C   0  0  0  0  0  0  0  0  0  0  0  0
   46.3820   33.4907   39.7943 N   0  0  0  0  0  0  0  0  0  0  0  0
   45.7358   32.3281   37.7931 N   0  0  0  0  0  0  0  0  0  0  0  0
   45.1902   37.0074   42.8074 H   0  0  0  0  0  0  0  0  0  0  0  0
   44.0889   35.4593   46.5416 H   0  0  0  0  0  0  0  0  0  0  0  0
   48.4448   33.0175   44.3964 H   0  0  0  0  0  0  0  0  0  0  0  0
   49.0017   30.5790   43.7708 H   0  0  0  0  0  0  0  0  0  0  0  0
   47.0002   29.1816   42.9193 H   0  0  0  0  0  0  0  0  0  0  0  0
   43.6903   34.8359   41.0605 H   0  0  0  0  0  0  0  0  0  0  0  0
   46.3514   31.4898   37.9189 H   0  0  0  0  0  0  0  0  0  0  0  0
   45.3096   32.6607   36.8829 H   0  0  0  0  0  0  0  0  0  0  0  0
   43.6231   30.6506   38.7242 Br  0  0  0  0  0  0  0  0  0  0  0  0
   42.5577   32.1545   38.2533 C   0  0  0  0  0  0  0  0  0  0  0  0
   43.0250   33.4061   38.6388 C   0  0  0  0  0  0  0  0  0  0  0  0
   42.3003   34.5401   38.3289 C   0  0  0  0  0  0  0  0  0  0  0  0
   42.6111   35.5402   38.6009 H   0  0  0  0  0  0  0  0  0  0  0  0
   41.1146   34.4087   37.6360 C   0  0  0  0  0  0  0  0  0  0  0  0
   40.4910   35.2555   37.3572 H   0  0  0  0  0  0  0  0  0  0  0  0
   40.6129   33.1737   37.2324 C   0  0  0  0  0  0  0  0  0  0  0  0
   41.3667   32.0423   37.5592 C   0  0  0  0  0  0  0  0  0  0  0  0
   39.6839   33.0794   36.6902 H   0  0  0  0  0  0  0  0  0  0  0  0
   41.0217   31.0559   37.2687 H   0  0  0  0  0  0  0  0  0  0  0  0
  1  6  2  0
  2  1  1  0
  2  3  2  0
  3  4  1  0
  4  5  2  0
  6  5  1  0
  7  8  2  0
  7  3  1  0
  9  8  1  0
 10 11  1  0
 10  9  2  0
 11  7  1  0
 12  2  1  0
 13 12  2  0
 14 12  1  0
 15 14  2  0
 16 15  1  0
 17 16  1  0
 17 18  2  0
 18 14  1  0
 19 17  1  0
  1 20  1  0
  5 21  1  0
  8 22  1  0
  9 23  1  0
 10 24  1  0
 15 25  1  0
 19 26  1  0
 19 27  1  0
 28 29  1  0
 29 30  2  0
 30 31  1  0
 31 32  1  0
 31 33  2  0
 33 34  1  0
 33 35  1  0
 35 36  2  0
 36 29  1  0
 35 37  1  0
 36 38  1  0
 16 30  1  0
M  ISO  8  20  14  21  14  22  14  23  14  24  14  25  14  32  15  34  16
M  END
>  <DihAtoms>  (1) 
14,15,29,28

>  <DihDeg>  (1) 
-112.59075730842625

$$$$
