REMARK  Name = 
REMARK  5 active torsions:
REMARK  status: ('A' for Active; 'I' for Inactive)
REMARK    1  A    between atoms: C_1  and  C_6
REMARK    2  A    between atoms: C_1  and  C_12
REMARK    3  A    between atoms: C_4  and  C_8
REMARK    4  A    between atoms: C_12  and  C_13
REMARK    5  A    between atoms: N_16  and  C_28
REMARK                            x       y       z     vdW  Elec       q    Type
REMARK                         _______ _______ _______ _____ _____    ______ ____
ROOT
ATOM      1  C   UNL     1      45.347  32.775  47.551  0.00  0.00    +0.000 C 
ATOM      2  H   UNL     1      45.763  33.382  48.398  0.00  0.00    +0.000 HD
ATOM      3  H   UNL     1      44.333  33.192  47.334  0.00  0.00    +0.000 HD
ENDROOT
BRANCH   1   4
ATOM      4  C   UNL     1      45.279  31.344  47.919  0.00  0.00    +0.000 A 
ATOM      5  C   UNL     1      45.308  30.227  47.129  0.00  0.00    +0.000 A 
ATOM      6  C   UNL     1      45.215  29.139  47.951  0.00  0.00    +0.000 A 
ATOM      7  N   UNL     1      45.131  29.575  49.214  0.00  0.00    +0.000 N 
ATOM      8  N   UNL     1      45.172  30.919  49.170  0.00  0.00    +0.000 NA
ATOM      9  H   UNL     1      45.389  30.215  46.066  0.00  0.00    +0.000 HD
ATOM     10  H   UNL     1      45.203  28.081  47.722  0.00  0.00    +0.000 HD
BRANCH   7  13
ATOM     11 BR   UNL     1      44.390  26.705  48.667  0.00  0.00    +0.000 Br
ATOM     12  C   UNL     1      44.676  27.584  50.347  0.00  0.00    +0.000 A 
ATOM     13  C   UNL     1      45.017  28.925  50.473  0.00  0.00    +0.000 A 
ATOM     14  C   UNL     1      45.204  29.477  51.725  0.00  0.00    +0.000 A 
ATOM     15  H   UNL     1      45.469  30.534  51.721  0.00  0.00    +0.000 HD
ATOM     16  C   UNL     1      45.049  28.685  52.852  0.00  0.00    +0.000 A 
ATOM     17  H   UNL     1      45.208  29.173  53.804  0.00  0.00    +0.000 HD
ATOM     18  C   UNL     1      44.709  27.351  52.713  0.00  0.00    +0.000 A 
ATOM     19  C   UNL     1      44.519  26.785  51.465  0.00  0.00    +0.000 A 
ENDBRANCH   7  13
ENDBRANCH   1   4
BRANCH   1  20
ATOM     20  C   UNL     1      46.308  32.993  46.417  0.00  0.00    +0.000 C 
ATOM     21  H   UNL     1      47.311  33.319  46.720  0.00  0.00    +0.000 HD
ATOM     22  H   UNL     1      46.424  32.005  45.908  0.00  0.00    +0.000 HD
BRANCH  20  27
ATOM     23  C   UNL     1      44.534  35.775  44.616  0.00  0.00    +0.000 A 
ATOM     24  C   UNL     1      45.200  35.720  43.367  0.00  0.00    +0.000 A 
ATOM     25  C   UNL     1      46.195  34.753  43.223  0.00  0.00    +0.000 A 
ATOM     26  N   UNL     1      46.447  33.945  44.282  0.00  0.00    +0.000 NA
ATOM     27  C   UNL     1      45.794  34.024  45.455  0.00  0.00    +0.000 A 
ATOM     28  N   UNL     1      44.833  34.948  45.616  0.00  0.00    +0.000 NA
ATOM     29  H   UNL     1      43.765  36.486  44.798  0.00  0.00    +0.000 HD
ATOM     30  H   UNL     1      44.865  36.438  42.652  0.00  0.00    +0.000 HD
BRANCH  25  31
ATOM     31  C   UNL     1      46.870  34.709  41.935  0.00  0.00    +0.000 C 
ATOM     32  F   UNL     1      47.666  33.564  41.867  0.00  0.00    +0.000 F 
ATOM     33  F   UNL     1      47.767  35.768  41.920  0.00  0.00    +0.000 F 
ATOM     34  F   UNL     1      46.008  34.722  40.871  0.00  0.00    +0.000 F 
ENDBRANCH  25  31
ENDBRANCH  20  27
ENDBRANCH   1  20
TORSDOF 5
