
     RDKit          3D

 32 34  0  0  0  0  0  0  0  0999 V2000
   44.6730   35.3705   45.1475 C   0  0  0  0  0  0  0  0  0  0  0  0
   45.1280   35.6943   43.8381 C   0  0  0  0  0  0  0  0  0  0  0  0
   46.0727   34.8609   43.3391 C   0  0  0  0  0  0  0  0  0  0  0  0
   46.5627   33.7748   44.0526 N   0  0  0  0  0  0  0  0  0  0  0  0
   46.0887   33.5196   45.2983 C   0  0  0  0  0  0  0  0  0  0  0  0
   45.1390   34.3278   45.8379 N   0  0  0  0  0  0  0  0  0  0  0  0
   46.5755   35.0681   41.9277 C   0  0  1  0  0  0  0  0  0  0  0  0
   48.1109   35.2928   41.9270 C   0  0  0  0  0  0  0  0  0  0  0  0
   47.3622   34.0840   41.3081 C   0  0  2  0  0  0  0  0  0  0  0  0
   47.3827   33.9022   39.8083 C   0  0  0  0  0  0  0  0  0  0  0  0
   44.6625   36.8119   43.1244 N   0  0  0  0  0  0  0  0  0  0  0  0
   43.9158   36.0032   45.5945 H   0  0  0  0  0  0  0  0  0  0  0  0
   46.5686   32.6457   45.7161 H   0  0  0  0  0  0  0  0  0  0  0  0
   46.0126   35.8466   41.3723 H   0  0  0  0  0  0  0  0  0  0  0  0
   48.4408   36.0714   41.2113 H   0  0  0  0  0  0  0  0  0  0  0  0
   48.6713   35.1285   42.8552 H   0  0  0  0  0  0  0  0  0  0  0  0
   47.6323   33.1186   41.8401 H   0  0  0  0  0  0  0  0  0  0  0  0
   46.3530   33.7363   39.4067 H   0  0  0  0  0  0  0  0  0  0  0  0
   47.7669   34.8313   39.3587 H   0  0  0  0  0  0  0  0  0  0  0  0
   44.0371   36.4760   42.3649 H   0  0  0  0  0  0  0  0  0  0  0  0
   44.9556   37.7940   43.3904 H   0  0  0  0  0  0  0  0  0  0  0  0
   49.1556   34.7772   37.4812 Br  0  0  0  0  0  0  0  0  0  0  0  0
   49.1467   33.0958   38.3692 C   0  0  0  0  0  0  0  0  0  0  0  0
   48.2882   32.8071   39.4270 C   0  0  0  0  0  0  0  0  0  0  0  0
   48.3415   31.5691   40.0177 C   0  0  0  0  0  0  0  0  0  0  0  0
   47.6395   31.4241   40.8346 H   0  0  0  0  0  0  0  0  0  0  0  0
   49.1957   30.5539   39.6460 C   0  0  0  0  0  0  0  0  0  0  0  0
   49.2112   29.6044   40.1252 H   0  0  0  0  0  0  0  0  0  0  0  0
   50.0441   30.8671   38.5860 C   0  0  0  0  0  0  0  0  0  0  0  0
   50.0245   32.0930   37.9659 C   0  0  0  0  0  0  0  0  0  0  0  0
   50.7343   30.0938   38.2605 H   0  0  0  0  0  0  0  0  0  0  0  0
   50.7301   32.2221   37.1543 H   0  0  0  0  0  0  0  0  0  0  0  0
  1  6  2  0
  2  1  1  0
  3  2  2  0
  3  4  1  0
  4  5  2  0
  5  6  1  0
  7  3  1  0
  8  7  1  0
  9  8  1  0
  9  7  1  0
 10  9  1  0
 11  2  1  0
  1 12  1  0
  5 13  1  0
  7 14  1  6
  8 15  1  0
  8 16  1  0
  9 17  1  1
 10 18  1  0
 10 19  1  0
 11 20  1  0
 11 21  1  0
 22 23  1  0
 23 24  2  0
 24 25  1  0
 25 26  1  0
 25 27  2  0
 27 28  1  0
 27 29  1  0
 29 30  2  0
 30 23  1  0
 29 31  1  0
 30 32  1  0
 10 24  1  0
M  ISO  8  12  14  13  14  14  13  15  13  16  13  17  13  18   8  19   8
M  ISO  2  26  15  28  16
M  END
>  <DihAtoms>  (1) 
8,9,23,22

>  <DihDeg>  (1) 
76.11019508688375

$$$$
