
 OpenBabel03242515463D

 41 44  0  0  1  0  0  0  0  0999 V2000
   40.2230   34.9120   40.7820 C   0  0  0  0  0  0  0  0  0  0  0  0
   41.3510   34.2090   41.2080 C   0  0  0  0  0  0  0  0  0  0  0  0
   41.3070   32.8460   41.4230 C   0  0  0  0  0  0  0  0  0  0  0  0
   40.1420   32.1510   41.2190 C   0  0  0  0  0  0  0  0  0  0  0  0
   39.0150   32.8270   40.7980 C   0  0  0  0  0  0  0  0  0  0  0  0
   39.0270   34.1800   40.5760 C   0  0  0  0  0  0  0  0  0  0  0  0
   37.9960   31.8590   40.6790 O   0  0  0  0  0  0  0  0  0  0  0  0
   38.4200   30.7100   41.2970 C   0  0  2  0  0  0  0  0  0  0  0  0
   39.8270   30.7960   41.3570 O   0  0  0  0  0  0  0  0  0  0  0  0
   40.1750   35.9760   40.5920 H   0  0  0  0  0  0  0  0  0  0  0  0
   42.2330   32.3980   41.7520 H   0  0  0  0  0  0  0  0  0  0  0  0
   38.1440   34.7110   40.2460 H   0  0  0  0  0  0  0  0  0  0  0  0
   38.0840   30.7660   42.3730 H   0  0  0  0  0  0  0  0  0  0  0  0
   38.6420   30.5620   38.1700 Br  0  0  0  0  0  0  0  0  0  0  0  0
   37.9620   29.2170   39.3560 C   0  0  0  0  0  0  0  0  0  0  0  0
   37.9330   29.4440   40.7350 C   0  0  0  0  0  0  0  0  0  0  0  0
   37.4310   28.4330   41.5280 C   0  0  0  0  0  0  0  0  0  0  0  0
   37.3760   28.5300   42.5990 H   0  0  0  0  0  0  0  0  0  0  0  0
   36.9710   27.2330   40.9860 C   0  0  0  0  0  0  0  0  0  0  0  0
   36.5790   26.4470   41.6250 H   0  0  0  0  0  0  0  0  0  0  0  0
   37.0000   27.0110   39.6330 C   0  0  0  0  0  3  0  0  0  0  0  0
   37.5020   28.0240   38.8420 C   0  0  0  0  0  3  0  0  0  0  0  0
   42.7810   35.2710   41.4010 S   0  0  0  0  0  0  0  0  0  0  0  0
   44.2390   34.4800   40.6390 C   0  0  0  0  0  0  0  0  0  0  0  0
   44.0410   33.9330   39.4250 C   0  0  0  0  0  0  0  0  0  0  0  0
   45.1570   33.3150   38.8610 C   0  0  0  0  0  0  0  0  0  0  0  0
   46.3410   33.2800   39.5000 N   0  0  0  0  0  0  0  0  0  0  0  0
   46.4870   33.8450   40.7160 C   0  0  0  0  0  0  0  0  0  0  0  0
   45.4160   34.4330   41.2490 N   0  0  0  0  0  0  0  0  0  0  0  0
   45.0590   32.6770   37.5710 N   0  0  0  0  0  0  0  0  0  0  0  0
   44.8300   33.1420   36.6420 H   0  0  0  0  0  0  0  0  0  0  0  0
   45.2320   31.6550   37.5650 H   0  0  0  0  0  0  0  0  0  0  0  0
   42.8780   33.8410   38.4870 C   0  0  0  0  0  0  0  0  0  0  0  0
   42.2040   34.6710   38.7840 H   0  0  0  0  0  0  0  0  0  0  0  0
   42.4160   32.8590   38.6220 H   0  0  0  0  0  0  0  0  0  0  0  0
   43.1780   34.0800   37.4440 H   0  0  0  0  0  0  0  0  0  0  0  0
   47.6570   33.8620   41.4460 O   0  0  0  0  0  0  0  0  0  0  0  0
   48.4990   34.9940   41.3110 C   0  0  0  0  0  0  0  0  0  0  0  0
   49.7550   34.7420   41.7730 F   0  0  0  0  0  0  0  0  0  0  0  0
   48.5050   35.3280   39.9470 F   0  0  0  0  0  0  0  0  0  0  0  0
   47.9710   36.0190   42.0670 F   0  0  0  0  0  0  0  0  0  0  0  0
  1  2  1  0  0  0  0
  2 23  1  0  0  0  0
  2  3  2  0  0  0  0
  3 11  1  0  0  0  0
  4  9  1  0  0  0  0
  4  3  1  0  0  0  0
  5  4  2  0  0  0  0
  6  1  2  0  0  0  0
  6  5  1  0  0  0  0
  7  5  1  0  0  0  0
  7  8  1  0  0  0  0
  8  9  1  0  0  0  0
  8 13  1  1  0  0  0
 10  1  1  0  0  0  0
 12  6  1  0  0  0  0
 14 15  1  0  0  0  0
 15 16  1  0  0  0  0
 16  8  1  0  0  0  0
 16 17  2  0  0  0  0
 17 18  1  0  0  0  0
 19 17  1  0  0  0  0
 19 20  1  0  0  0  0
 21 19  2  0  0  0  0
 22 15  2  0  0  0  0
 22 21  1  0  0  0  0
 24 29  1  0  0  0  0
 24 23  1  0  0  0  0
 25 24  2  0  0  0  0
 26 25  1  0  0  0  0
 26 27  2  0  0  0  0
 27 28  1  0  0  0  0
 28 29  2  0  0  0  0
 28 37  1  0  0  0  0
 30 26  1  0  0  0  0
 31 30  1  0  0  0  0
 32 30  1  0  0  0  0
 33 35  1  0  0  0  0
 33 34  1  0  0  0  0
 33 25  1  0  0  0  0
 36 33  1  0  0  0  0
 38 37  1  0  0  0  0
 38 39  1  0  0  0  0
 38 41  1  0  0  0  0
 40 38  1  0  0  0  0
M  END
>  <minimizedAffinity>
-6.39522123

>  <minimizedRMSD>
0.9392941

$$$$
