
 OpenBabel03252504543D

 21 22  0  0  0  0  0  0  0  0999 V2000
   45.6480   35.7300   42.6160 C   0  0  0  0  0  0  0  0  0  0  0  0
   46.4790   36.4820   42.6930 H   0  0  0  0  0  0  0  0  0  0  0  0
   44.6730   36.2280   42.4510 H   0  0  0  0  0  0  0  0  0  0  0  0
   44.6710   34.7670   46.0710 C   0  0  0  0  0  0  0  0  0  0  0  0
   44.6990   35.4770   44.8560 C   0  0  0  0  0  0  0  0  0  0  0  0
   45.5990   35.0130   43.8930 C   0  0  0  0  0  0  0  0  0  0  0  0
   46.3850   33.9280   44.1700 N   0  0  0  0  0  0  0  0  0  0  0  0
   46.3110   33.2890   45.3590 C   0  0  0  0  0  0  0  0  0  0  0  0
   45.4580   33.7100   46.3000 N   0  0  0  0  0  0  0  0  0  0  0  0
   43.9790   35.1070   46.8380 H   0  0  0  0  0  0  0  0  0  0  0  0
   44.0560   36.3340   44.6780 H   0  0  0  0  0  0  0  0  0  0  0  0
   47.0130   32.4580   45.3760 H   0  0  0  0  0  0  0  0  0  0  0  0
   43.0020   34.5680   41.3540 Br  0  0  0  0  0  0  0  0  0  0  0  0
   44.8310   34.2650   40.8560 C   0  0  0  0  0  0  0  0  0  0  0  0
   45.9460   34.8190   41.4780 C   0  0  0  0  0  0  0  0  0  0  0  0
   47.1970   34.5060   41.0130 C   0  0  0  0  0  0  0  0  0  0  0  0
   48.0430   34.9550   41.5210 H   0  0  0  0  0  0  0  0  0  0  0  0
   47.3020   33.6420   39.9320 C   0  0  0  0  0  0  0  0  0  0  0  0
   48.3080   33.4120   39.5820 H   0  0  0  0  0  0  0  0  0  0  0  0
   46.2230   33.0820   39.2990 C   0  0  0  0  0  3  0  0  0  0  0  0
   44.9520   33.4000   39.7700 C   0  0  0  0  0  3  0  0  0  0  0  0
  1  2  1  0  0  0  0
  1  6  1  0  0  0  0
  3  1  1  0  0  0  0
  4  9  1  0  0  0  0
  4 10  1  0  0  0  0
  5  4  2  0  0  0  0
  6  7  2  0  0  0  0
  6  5  1  0  0  0  0
  7  8  1  0  0  0  0
  8 12  1  0  0  0  0
  8  9  2  0  0  0  0
 11  5  1  0  0  0  0
 14 13  1  0  0  0  0
 14 15  1  0  0  0  0
 15  1  1  0  0  0  0
 16 15  2  0  0  0  0
 16 17  1  0  0  0  0
 18 16  1  0  0  0  0
 19 18  1  0  0  0  0
 20 21  1  0  0  0  0
 20 18  2  0  0  0  0
 21 14  2  0  0  0  0
M  END
>  <minimizedAffinity>
-4.08431768

>  <minimizedRMSD>
1.48387897

$$$$
