
 OpenBabel03252509263D

 30 32  0  0  1  0  0  0  0  0999 V2000
   46.4660   34.9920   41.9680 C   0  0  1  0  0  0  0  0  0  0  0  0
   47.9900   35.2860   41.9680 C   0  0  0  0  0  0  0  0  0  0  0  0
   47.3050   34.0000   41.4360 C   0  0  2  0  0  0  0  0  0  0  0  0
   45.8780   35.6990   41.3470 H   0  0  0  0  0  0  0  0  0  0  0  0
   48.2960   36.0210   41.1970 H   0  0  0  0  0  0  0  0  0  0  0  0
   48.5420   35.2200   42.9120 H   0  0  0  0  0  0  0  0  0  0  0  0
   47.6100   33.0920   42.0440 H   0  0  0  0  0  0  0  0  0  0  0  0
   44.6050   35.5530   45.1780 C   0  0  0  0  0  0  0  0  0  0  0  0
   45.0830   35.7970   43.8580 C   0  0  0  0  0  0  0  0  0  0  0  0
   45.9520   34.8710   43.3850 C   0  0  0  0  0  0  0  0  0  0  0  0
   46.3500   33.7700   44.1320 N   0  0  0  0  0  0  0  0  0  0  0  0
   45.8590   33.5940   45.3840 C   0  0  0  0  0  0  0  0  0  0  0  0
   44.9830   34.4960   45.8990 N   0  0  0  0  0  0  0  0  0  0  0  0
   43.9060   36.2610   45.6040 H   0  0  0  0  0  0  0  0  0  0  0  0
   46.2640   32.6960   45.8290 H   0  0  0  0  0  0  0  0  0  0  0  0
   44.7120   36.9280   43.1110 N   0  0  0  0  0  0  0  0  0  0  0  0
   44.0580   36.6230   42.3620 H   0  0  0  0  0  0  0  0  0  0  0  0
   45.0890   37.8890   43.3460 H   0  0  0  0  0  0  0  0  0  0  0  0
   47.3570   33.7040   39.9550 C   0  0  0  0  0  0  0  0  0  0  0  0
   46.3720   33.3290   39.5830 H   0  0  0  0  0  0  0  0  0  0  0  0
   47.5730   34.6460   39.4280 H   0  0  0  0  0  0  0  0  0  0  0  0
   48.2640   34.0560   37.0600 Br  0  0  0  0  0  0  0  0  0  0  0  0
   48.9320   32.8270   38.3480 C   0  0  0  0  0  0  0  0  0  0  0  0
   48.4390   32.7560   39.6490 C   0  0  0  0  0  0  0  0  0  0  0  0
   48.9750   31.8410   40.5210 C   0  0  0  0  0  0  0  0  0  0  0  0
   48.5340   31.8500   41.5160 H   0  0  0  0  0  0  0  0  0  0  0  0
   49.9870   30.9590   40.2170 C   0  0  0  0  0  0  0  0  0  0  0  0
   50.3800   30.2620   40.9180 H   0  0  0  0  0  0  0  0  0  0  0  0
   50.4640   31.0500   38.9110 C   0  0  0  0  0  3  0  0  0  0  0  0
   49.9570   31.9490   38.0050 C   0  0  0  0  0  3  0  0  0  0  0  0
  1  4  1  6  0  0  0
  1 10  1  0  0  0  0
  2  1  1  0  0  0  0
  2  6  1  0  0  0  0
  3  2  1  0  0  0  0
  3  1  1  0  0  0  0
  3  7  1  1  0  0  0
  5  2  1  0  0  0  0
  8 14  1  0  0  0  0
  8 13  1  0  0  0  0
  9  8  2  0  0  0  0
 10  9  1  0  0  0  0
 10 11  2  0  0  0  0
 11 12  1  0  0  0  0
 12 15  1  0  0  0  0
 12 13  2  0  0  0  0
 16 18  1  0  0  0  0
 16  9  1  0  0  0  0
 17 16  1  0  0  0  0
 19  3  1  0  0  0  0
 20 19  1  0  0  0  0
 21 19  1  0  0  0  0
 22 23  1  0  0  0  0
 23 24  1  0  0  0  0
 24 19  1  0  0  0  0
 24 25  2  0  0  0  0
 25 26  1  0  0  0  0
 27 25  1  0  0  0  0
 27 28  1  0  0  0  0
 29 27  2  0  0  0  0
 30 23  2  0  0  0  0
 30 29  1  0  0  0  0
M  END
>  <minimizedAffinity>
-5.07406282

>  <minimizedRMSD>
0.666439116

$$$$
