
 OpenBabel03252509293D

 21 22  0  0  0  0  0  0  0  0999 V2000
   47.0980   34.3770   40.8780 C   0  0  0  0  0  0  0  0  0  0  0  0
   47.8760   35.1860   40.9490 H   0  0  0  0  0  0  0  0  0  0  0  0
   46.7280   34.2680   39.8410 H   0  0  0  0  0  0  0  0  0  0  0  0
   43.6410   35.0890   42.0450 C   0  0  0  0  0  0  0  0  0  0  0  0
   44.6950   34.6970   41.1980 C   0  0  0  0  0  0  0  0  0  0  0  0
   45.9810   34.7820   41.7360 C   0  0  0  0  0  0  0  0  0  0  0  0
   46.1490   35.2270   43.0190 N   0  0  0  0  0  0  0  0  0  0  0  0
   45.0940   35.5880   43.7830 C   0  0  0  0  0  0  0  0  0  0  0  0
   43.8500   35.5180   43.2950 N   0  0  0  0  0  0  0  0  0  0  0  0
   42.6290   35.0330   41.6510 H   0  0  0  0  0  0  0  0  0  0  0  0
   44.5160   34.3490   40.1850 H   0  0  0  0  0  0  0  0  0  0  0  0
   45.4410   35.9080   44.7640 H   0  0  0  0  0  0  0  0  0  0  0  0
   49.7970   34.8840   42.4290 Br  0  0  0  0  0  0  0  0  0  0  0  0
   48.9080   33.2310   42.0310 C   0  0  0  0  0  0  0  0  0  0  0  0
   47.7120   33.0990   41.3290 C   0  0  0  0  0  0  0  0  0  0  0  0
   47.1960   31.8470   41.1150 C   0  0  0  0  0  0  0  0  0  0  0  0
   46.2640   31.7810   40.5650 H   0  0  0  0  0  0  0  0  0  0  0  0
   47.8910   30.7530   41.6100 C   0  0  0  0  0  0  0  0  0  0  0  0
   47.4570   29.7700   41.4270 H   0  0  0  0  0  0  0  0  0  0  0  0
   49.0690   30.8520   42.3050 C   0  0  0  0  0  3  0  0  0  0  0  0
   49.5940   32.1230   42.5220 C   0  0  0  0  0  3  0  0  0  0  0  0
  1  2  1  0  0  0  0
  1 15  1  0  0  0  0
  1  6  1  0  0  0  0
  3  1  1  0  0  0  0
  4  9  1  0  0  0  0
  5  6  1  0  0  0  0
  5  4  2  0  0  0  0
  6  7  2  0  0  0  0
  7  8  1  0  0  0  0
  8 12  1  0  0  0  0
  9  8  2  0  0  0  0
 10  4  1  0  0  0  0
 11  5  1  0  0  0  0
 14 13  1  0  0  0  0
 14 21  1  0  0  0  0
 15 14  2  0  0  0  0
 16 15  1  0  0  0  0
 16 18  2  0  0  0  0
 17 16  1  0  0  0  0
 18 20  1  0  0  0  0
 19 18  1  0  0  0  0
 20 21  2  0  0  0  0
M  END
>  <minimizedAffinity>
-3.54183912

>  <minimizedRMSD>
3.42225218

$$$$
