REMARK  Name = 
REMARK  4 active torsions:
REMARK  status: ('A' for Active; 'I' for Inactive)
REMARK    1  A    between atoms: C_1  and  C_14
REMARK    2  A    between atoms: C_5  and  C_9
REMARK    3  A    between atoms: C_15  and  C_16
REMARK    4  A    between atoms: C_16  and  C_29
REMARK                            x       y       z     vdW  Elec       q    Type
REMARK                         _______ _______ _______ _____ _____    ______ ____
ROOT
ATOM      1  C   UNL     1      45.213  36.121  43.006  0.00  0.00    +0.000 A 
ATOM      2  C   UNL     1      44.213  35.786  42.086  0.00  0.00    +0.000 A 
ATOM      3  C   UNL     1      44.475  34.701  41.242  0.00  0.00    +0.000 A 
ATOM      4  N   UNL     1      45.646  34.048  41.354  0.00  0.00    +0.000 NA
ATOM      5  C   UNL     1      46.589  34.399  42.254  0.00  0.00    +0.000 A 
ATOM      6  N   UNL     1      46.363  35.445  43.084  0.00  0.00    +0.000 NA
ATOM      7  H   UNL     1      43.292  36.309  42.011  0.00  0.00    +0.000 HD
ATOM      8  H   UNL     1      43.738  34.374  40.493  0.00  0.00    +0.000 HD
ENDROOT
BRANCH   5  11
ATOM      9 CL   UNL     1      49.051  35.923  41.385  0.00  0.00    +0.000 Cl
ATOM     10  C   UNL     1      49.008  34.278  41.908  0.00  0.00    +0.000 A 
ATOM     11  C   UNL     1      47.826  33.628  42.298  0.00  0.00    +0.000 A 
ATOM     12  C   UNL     1      47.775  32.329  42.715  0.00  0.00    +0.000 A 
ATOM     13  C   UNL     1      48.958  31.633  42.748  0.00  0.00    +0.000 A 
ATOM     14  C   UNL     1      50.188  32.169  42.386  0.00  0.00    +0.000 A 
ATOM     15  C   UNL     1      50.153  33.489  41.976  0.00  0.00    +0.000 A 
ATOM     16  H   UNL     1      46.848  31.858  43.010  0.00  0.00    +0.000 HD
ATOM     17  H   UNL     1      48.977  30.595  43.074  0.00  0.00    +0.000 HD
ATOM     18  H   UNL     1      51.118  31.642  42.406  0.00  0.00    +0.000 HD
ATOM     19  H   UNL     1      51.076  34.007  41.668  0.00  0.00    +0.000 HD
ENDBRANCH   5  11
BRANCH   1  20
ATOM     20  C   UNL     1      44.956  37.271  43.906  0.00  0.00    +0.000 C 
ATOM     21  C   UNL     1      45.523  38.422  43.615  0.00  0.00    +0.000 C 
BRANCH  21  22
ATOM     22  C   UNL     1      45.267  39.592  44.508  0.00  0.00    +0.000 C 
ATOM     23  H   UNL     1      44.772  40.366  43.892  0.00  0.00    +0.000 HD
ATOM     24  H   UNL     1      46.202  40.011  44.910  0.00  0.00    +0.000 HD
BRANCH  22  27
ATOM     25 BR   UNL     1      42.684  41.326  44.705  0.00  0.00    +0.000 Br
ATOM     26  C   UNL     1      43.152  39.902  45.888  0.00  0.00    +0.000 A 
ATOM     27  C   UNL     1      44.357  39.267  45.612  0.00  0.00    +0.000 A 
ATOM     28  C   UNL     1      44.720  38.221  46.468  0.00  0.00    +0.000 A 
ATOM     29  H   UNL     1      45.664  37.692  46.284  0.00  0.00    +0.000 HD
ATOM     30  C   UNL     1      43.928  37.837  47.529  0.00  0.00    +0.000 A 
ATOM     31  H   UNL     1      44.275  37.013  48.155  0.00  0.00    +0.000 HD
ATOM     32  C   UNL     1      42.737  38.501  47.764  0.00  0.00    +0.000 A 
ATOM     33  C   UNL     1      42.322  39.556  46.939  0.00  0.00    +0.000 A 
ENDBRANCH  22  27
ENDBRANCH  21  22
ENDBRANCH   1  20
TORSDOF 4
