REMARK  Name = 
REMARK  3 active torsions:
REMARK  status: ('A' for Active; 'I' for Inactive)
REMARK    1  A    between atoms: C_1  and  C_7
REMARK    2  A    between atoms: C_11  and  C_13
REMARK    3  A    between atoms: N_16  and  C_34
REMARK                            x       y       z     vdW  Elec       q    Type
REMARK                         _______ _______ _______ _____ _____    ______ ____
ROOT
ATOM      1  C   UNL     1      47.865  33.696  42.899  0.00  0.00    +0.000 A 
ATOM      2  C   UNL     1      48.588  34.903  42.727  0.00  0.00    +0.000 A 
ATOM      3  C   UNL     1      49.951  34.867  42.400  0.00  0.00    +0.000 A 
ATOM      4  N   UNL     1      50.506  33.620  42.266  0.00  0.00    +0.000 NA
ATOM      5  C   UNL     1      49.781  32.471  42.439  0.00  0.00    +0.000 A 
ATOM      6  N   UNL     1      48.493  32.530  42.748  0.00  0.00    +0.000 NA
ATOM      7  H   UNL     1      48.226  35.917  42.815  0.00  0.00    +0.000 HD
ATOM      8  H   UNL     1      50.553  35.728  42.256  0.00  0.00    +0.000 HD
ENDROOT
BRANCH   1   9
ATOM      9  C   UNL     1      46.447  33.862  43.245  0.00  0.00    +0.000 C 
ATOM     10  C   UNL     1      45.745  34.851  42.429  0.00  0.00    +0.000 C 
ATOM     11  C   UNL     1      45.326  36.071  43.166  0.00  0.00    +0.000 C 
ATOM     12  C   UNL     1      44.550  35.770  44.444  0.00  0.00    +0.000 C 
ATOM     13  C   UNL     1      44.988  34.529  45.156  0.00  0.00    +0.000 C 
ATOM     14  C   UNL     1      46.402  34.159  44.754  0.00  0.00    +0.000 C 
ATOM     15  H   UNL     1      45.950  32.850  43.165  0.00  0.00    +0.000 HD
ATOM     16  H   UNL     1      46.405  35.178  41.606  0.00  0.00    +0.000 HD
ATOM     17  H   UNL     1      44.857  34.399  41.922  0.00  0.00    +0.000 HD
ATOM     18  H   UNL     1      44.555  36.572  42.507  0.00  0.00    +0.000 HD
ATOM     19  H   UNL     1      46.081  36.838  43.334  0.00  0.00    +0.000 HD
ATOM     20  H   UNL     1      44.745  36.619  45.147  0.00  0.00    +0.000 HD
ATOM     21  H   UNL     1      43.459  35.738  44.292  0.00  0.00    +0.000 HD
ATOM     22  H   UNL     1      44.333  33.700  44.812  0.00  0.00    +0.000 HD
ATOM     23  H   UNL     1      44.928  34.591  46.244  0.00  0.00    +0.000 HD
ATOM     24  H   UNL     1      46.683  33.214  45.266  0.00  0.00    +0.000 HD
ATOM     25  H   UNL     1      47.135  34.927  45.045  0.00  0.00    +0.000 HD
ENDBRANCH   1   9
BRANCH   5  26
ATOM     26  C   UNL     1      50.527  31.235  42.265  0.00  0.00    +0.000 A 
ATOM     27  N   UNL     1      51.572  31.256  41.391  0.00  0.00    +0.000 NA
ATOM     28  C   UNL     1      52.139  30.027  41.365  0.00  0.00    +0.000 A 
ATOM     29  N   UNL     1      51.430  29.238  42.239  0.00  0.00    +0.000 N 
ATOM     30  N   UNL     1      50.461  29.983  42.772  0.00  0.00    +0.000 NA
ATOM     31  H   UNL     1      52.984  29.664  40.796  0.00  0.00    +0.000 HD
BRANCH  29  34
ATOM     32 BR   UNL     1      54.088  28.562  43.751  0.00  0.00    +0.000 Br
ATOM     33  C   UNL     1      52.696  27.357  43.258  0.00  0.00    +0.000 A 
ATOM     34  C   UNL     1      51.602  27.870  42.591  0.00  0.00    +0.000 A 
ATOM     35  C   UNL     1      50.596  26.962  42.243  0.00  0.00    +0.000 A 
ATOM     36  H   UNL     1      49.692  27.263  41.715  0.00  0.00    +0.000 HD
ATOM     37  C   UNL     1      50.752  25.619  42.582  0.00  0.00    +0.000 A 
ATOM     38  H   UNL     1      49.976  24.902  42.317  0.00  0.00    +0.000 HD
ATOM     39  C   UNL     1      51.839  25.137  43.240  0.00  0.00    +0.000 A 
ATOM     40  C   UNL     1      52.825  26.028  43.581  0.00  0.00    +0.000 A 
ENDBRANCH  29  34
ENDBRANCH   5  26
TORSDOF 3
