REMARK  Name = 
REMARK  5 active torsions:
REMARK  status: ('A' for Active; 'I' for Inactive)
REMARK    1  A    between atoms: C_1  and  C_14
REMARK    2  A    between atoms: C_3  and  C_8
REMARK    3  A    between atoms: C_7  and  O_12
REMARK    4  A    between atoms: C_11  and  O_13
REMARK    5  A    between atoms: C_14  and  C_28
REMARK                            x       y       z     vdW  Elec       q    Type
REMARK                         _______ _______ _______ _____ _____    ______ ____
ROOT
ATOM      1  C   UNL     1      45.282  35.341  43.678  0.00  0.00    +0.000 A 
ATOM      2  C   UNL     1      46.371  34.603  43.174  0.00  0.00    +0.000 A 
ATOM      3  C   UNL     1      46.958  33.638  43.994  0.00  0.00    +0.000 A 
ATOM      4  N   UNL     1      46.454  33.460  45.225  0.00  0.00    +0.000 NA
ATOM      5  C   UNL     1      45.402  34.185  45.688  0.00  0.00    +0.000 A 
ATOM      6  N   UNL     1      44.826  35.123  44.902  0.00  0.00    +0.000 NA
ATOM      7  H   UNL     1      46.675  34.844  42.172  0.00  0.00    +0.000 HD
ATOM      8  H   UNL     1      45.032  33.997  46.701  0.00  0.00    +0.000 HD
ENDROOT
BRANCH   3  10
ATOM      9  C   UNL     1      49.009  33.720  42.591  0.00  0.00    +0.000 C 
ATOM     10  C   UNL     1      48.078  32.899  43.436  0.00  0.00    +0.000 C 
ATOM     11  O   UNL     1      47.714  31.896  42.517  0.00  0.00    +0.000 OA
ATOM     12  C   UNL     1      48.920  31.459  42.016  0.00  0.00    +0.000 C 
ATOM     13  C   UNL     1      49.919  32.586  42.081  0.00  0.00    +0.000 C 
ATOM     14  H   UNL     1      48.505  34.109  41.685  0.00  0.00    +0.000 HD
ATOM     15  H   UNL     1      48.693  32.394  44.237  0.00  0.00    +0.000 HD
ATOM     16  H   UNL     1      48.774  31.200  40.946  0.00  0.00    +0.000 HD
ATOM     17  H   UNL     1      49.302  30.552  42.532  0.00  0.00    +0.000 HD
ATOM     18  H   UNL     1      50.701  32.421  42.841  0.00  0.00    +0.000 HD
BRANCH   9  19
ATOM     19  O   UNL     1      49.683  34.685  43.298  0.00  0.00    +0.000 OA
ATOM     20  H   UNL     1      49.594  35.584  42.885  0.00  0.00    +0.000 HD
ENDBRANCH   9  19
BRANCH  13  21
ATOM     21  O   UNL     1      50.449  32.937  40.852  0.00  0.00    +0.000 OA
ATOM     22  H   UNL     1      50.782  33.865  40.921  0.00  0.00    +0.000 HD
ENDBRANCH  13  21
ENDBRANCH   3  10
BRANCH   1  23
ATOM     23  C   UNL     1      44.658  36.389  42.797  0.00  0.00    +0.000 C 
ATOM     24  H   UNL     1      45.486  36.826  42.211  0.00  0.00    +0.000 HD
ATOM     25  H   UNL     1      44.215  37.194  43.443  0.00  0.00    +0.000 HD
BRANCH  23  28
ATOM     26 BR   UNL     1      45.045  33.357  42.020  0.00  0.00    +0.000 Br
ATOM     27  C   UNL     1      43.617  34.496  41.492  0.00  0.00    +0.000 A 
ATOM     28  C   UNL     1      43.607  35.800  41.928  0.00  0.00    +0.000 A 
ATOM     29  C   UNL     1      42.537  36.598  41.514  0.00  0.00    +0.000 A 
ATOM     30  H   UNL     1      42.464  37.642  41.822  0.00  0.00    +0.000 HD
ATOM     31  C   UNL     1      41.524  36.123  40.706  0.00  0.00    +0.000 A 
ATOM     32  H   UNL     1      40.711  36.801  40.415  0.00  0.00    +0.000 HD
ATOM     33  C   UNL     1      41.567  34.792  40.282  0.00  0.00    +0.000 A 
ATOM     34  C   UNL     1      42.629  33.980  40.686  0.00  0.00    +0.000 A 
ENDBRANCH  23  28
ENDBRANCH   1  23
TORSDOF 5
