
     RDKit          3D

 30 32  0  0  0  0  0  0  0  0999 V2000
   45.5367   34.1463   44.4148 C   0  0  0  0  0  0  0  0  0  0  0  0
   46.5069   33.6041   43.5334 C   0  0  0  0  0  0  0  0  0  0  0  0
   47.3932   32.6753   44.0610 C   0  0  0  0  0  0  0  0  0  0  0  0
   47.2819   32.3456   45.3693 N   0  0  0  0  0  0  0  0  0  0  0  0
   46.3392   32.8884   46.1785 C   0  0  0  0  0  0  0  0  0  0  0  0
   45.4588   33.7987   45.6911 N   0  0  0  0  0  0  0  0  0  0  0  0
   46.3946   32.3876   47.5907 C   0  0  0  0  0  0  0  0  0  0  0  0
   45.3890   32.9164   48.3574 F   0  0  0  0  0  0  0  0  0  0  0  0
   47.6183   32.7381   48.1637 F   0  0  0  0  0  0  0  0  0  0  0  0
   46.3803   30.9981   47.5724 F   0  0  0  0  0  0  0  0  0  0  0  0
   44.5679   35.1561   43.8867 C   0  0  1  0  0  0  0  0  0  0  0  0
   44.8775   36.6012   44.3116 C   0  0  0  0  0  0  0  0  0  0  0  0
   44.9737   36.1611   42.8974 C   0  0  2  0  0  0  0  0  0  0  0  0
   46.5639   33.8904   42.5034 H   0  0  0  0  0  0  0  0  0  0  0  0
   48.1632   32.2053   43.4815 H   0  0  0  0  0  0  0  0  0  0  0  0
   43.5318   34.8204   43.9894 H   0  0  0  0  0  0  0  0  0  0  0  0
   44.0004   37.0890   44.7295 H   0  0  0  0  0  0  0  0  0  0  0  0
   45.7916   36.7576   44.9210 H   0  0  0  0  0  0  0  0  0  0  0  0
   46.0503   36.1622   42.5311 H   0  0  0  0  0  0  0  0  0  0  0  0
   45.1275   35.2224   39.8135 Br  0  0  0  0  0  0  0  0  0  0  0  0
   43.7766   36.3022   40.5558 C   0  0  0  0  0  0  0  0  0  0  0  0
   43.9454   36.5380   41.8987 C   0  0  0  0  0  0  0  0  0  0  0  0
   42.9804   37.3206   42.5512 C   0  0  0  0  0  0  0  0  0  0  0  0
   42.9219   37.6254   43.5985 H   0  0  0  0  0  0  0  0  0  0  0  0
   41.8832   37.8427   41.8523 C   0  0  0  0  0  0  0  0  0  0  0  0
   41.1037   38.4501   42.2819 H   0  0  0  0  0  0  0  0  0  0  0  0
   41.7339   37.5944   40.5059 C   0  0  0  0  0  0  0  0  0  0  0  0
   42.6983   36.8215   39.8919 C   0  0  0  0  0  0  0  0  0  0  0  0
   40.9002   37.9783   39.9236 H   0  0  0  0  0  0  0  0  0  0  0  0
   42.6748   36.5654   38.8300 H   0  0  0  0  0  0  0  0  0  0  0  0
  1  6  2  0
  2  3  2  0
  2  1  1  0
  3  4  1  0
  4  5  2  0
  5  7  1  0
  6  5  1  0
  7  9  1  0
  7  8  1  0
 10  7  1  0
 11 12  1  0
 11  1  1  0
 13 11  1  0
 13 12  1  0
  2 14  1  0
  3 15  1  0
 11 16  1  6
 12 17  1  0
 12 18  1  0
 13 19  1  6
 20 21  1  0
 21 22  2  0
 22 23  1  0
 23 24  1  0
 23 25  2  0
 25 26  1  0
 25 27  1  0
 27 28  2  0
 28 21  1  0
 27 29  1  0
 28 30  1  0
 13 22  1  0
M  ISO  8  14  14  15  14  16  13  17  13  18  13  19  13  24  15  26  16
M  END
>  <DihAtoms>  (1) 
10,12,21,20

>  <DihDeg>  (1) 
101.68947378114183

$$$$
