REMARK  Name = 
REMARK  7 active torsions:
REMARK  status: ('A' for Active; 'I' for Inactive)
REMARK    1  A    between atoms: C_1  and  C_11
REMARK    2  A    between atoms: C_6  and  N_13
REMARK    3  A    between atoms: N_13  and  S_14
REMARK    4  A    between atoms: S_14  and  O_15
REMARK    5  A    between atoms: S_14  and  O_16
REMARK    6  A    between atoms: S_14  and  O_17
REMARK    7  A    between atoms: O_17  and  C_30
REMARK                            x       y       z     vdW  Elec       q    Type
REMARK                         _______ _______ _______ _____ _____    ______ ____
ROOT
ATOM      1  C   UNL     1      45.602  33.902  45.597  0.00  0.00    +0.000 A 
ATOM      2  C   UNL     1      44.793  35.001  45.722  0.00  0.00    +0.000 A 
ATOM      3  C   UNL     1      44.454  35.846  44.693  0.00  0.00    +0.000 A 
ATOM      4  C   UNL     1      44.959  35.575  43.444  0.00  0.00    +0.000 A 
ATOM      5  C   UNL     1      45.775  34.481  43.271  0.00  0.00    +0.000 A 
ATOM      6  C   UNL     1      46.089  33.657  44.345  0.00  0.00    +0.000 A 
ATOM      7  H   UNL     1      44.380  35.242  46.694  0.00  0.00    +0.000 HD
ATOM      8  H   UNL     1      43.816  36.713  44.793  0.00  0.00    +0.000 HD
ATOM      9  H   UNL     1      44.711  36.223  42.602  0.00  0.00    +0.000 HD
ATOM     10  H   UNL     1      46.143  34.318  42.266  0.00  0.00    +0.000 HD
ENDROOT
BRANCH   1  15
ATOM     11  C   UNL     1      47.565  31.848  47.901  0.00  0.00    +0.000 A 
ATOM     12  C   UNL     1      46.629  31.440  48.850  0.00  0.00    +0.000 A 
ATOM     13  C   UNL     1      45.307  31.874  48.700  0.00  0.00    +0.000 A 
ATOM     14  N   UNL     1      44.970  32.673  47.645  0.00  0.00    +0.000 NA
ATOM     15  C   UNL     1      45.917  33.054  46.731  0.00  0.00    +0.000 A 
ATOM     16  N   UNL     1      47.184  32.629  46.889  0.00  0.00    +0.000 NA
ATOM     17  H   UNL     1      48.602  31.541  47.970  0.00  0.00    +0.000 HD
ATOM     18  H   UNL     1      46.919  30.804  49.682  0.00  0.00    +0.000 HD
ATOM     19  H   UNL     1      44.544  31.582  49.414  0.00  0.00    +0.000 HD
ENDBRANCH   1  15
BRANCH   6  20
ATOM     20  N   UNL     1      46.933  32.581  44.013  0.00  0.00    +0.000 N 
ATOM     21  H   UNL     1      46.680  31.714  44.552  0.00  0.00    +0.000 HD
BRANCH  20  22
ATOM     22  S   UNL     1      48.247  32.415  42.938  0.00  0.00    +0.000 S 
BRANCH  22  23
ATOM     23  O   UNL     1      47.700  32.195  41.536  0.00  0.00    +0.000 OA
ATOM     24  H   UNL     1      48.167  32.340  40.692  0.00  0.00    +0.000 HD
ENDBRANCH  22  23
BRANCH  22  25
ATOM     25  O   UNL     1      49.159  33.596  42.895  0.00  0.00    +0.000 OA
ATOM     26  H   UNL     1      49.073  34.282  43.633  0.00  0.00    +0.000 HD
ENDBRANCH  22  25
BRANCH  22  27
ATOM     27  O   UNL     1      49.061  30.997  43.345  0.00  0.00    +0.000 OA
BRANCH  27  30
ATOM     28 BR   UNL     1      51.851  29.637  43.043  0.00  0.00    +0.000 Br
ATOM     29  C   UNL     1      50.258  29.173  42.120  0.00  0.00    +0.000 A 
ATOM     30  C   UNL     1      49.165  29.947  42.451  0.00  0.00    +0.000 A 
ATOM     31  C   UNL     1      47.933  29.708  41.844  0.00  0.00    +0.000 A 
ATOM     32  H   UNL     1      47.005  30.232  42.007  0.00  0.00    +0.000 HD
ATOM     33  C   UNL     1      47.783  28.690  40.897  0.00  0.00    +0.000 A 
ATOM     34  H   UNL     1      46.868  28.451  40.391  0.00  0.00    +0.000 HD
ATOM     35  C   UNL     1      48.898  27.923  40.579  0.00  0.00    +0.000 A 
ATOM     36  C   UNL     1      50.111  28.168  41.186  0.00  0.00    +0.000 A 
ENDBRANCH  27  30
ENDBRANCH  22  27
ENDBRANCH  20  22
ENDBRANCH   6  20
TORSDOF 7
