
     RDKit          3D

 36 38  0  0  0  0  0  0  0  0999 V2000
   45.2819   35.3413   43.6783 C   0  0  0  0  0  0  0  0  0  0  0  0
   46.3707   34.6032   43.1738 C   0  0  0  0  0  0  0  0  0  0  0  0
   46.9581   33.6375   43.9939 C   0  0  0  0  0  0  0  0  0  0  0  0
   46.4539   33.4600   45.2246 N   0  0  0  0  0  0  0  0  0  0  0  0
   45.4018   34.1848   45.6881 C   0  0  0  0  0  0  0  0  0  0  0  0
   44.8260   35.1235   44.9017 N   0  0  0  0  0  0  0  0  0  0  0  0
   49.0093   33.7203   42.5910 C   0  0  2  0  0  0  0  0  0  0  0  0
   48.0779   32.8991   43.4364 C   0  0  2  0  0  0  0  0  0  0  0  0
   47.7138   31.8960   42.5173 O   0  0  0  0  0  0  0  0  0  0  0  0
   48.9204   31.4589   42.0156 C   0  0  0  0  0  0  0  0  0  0  0  0
   49.9190   32.5862   42.0815 C   0  0  1  0  0  0  0  0  0  0  0  0
   49.6830   34.6849   43.2977 O   0  0  0  0  0  0  0  0  0  0  0  0
   50.4485   32.9367   40.8520 O   0  0  0  0  0  0  0  0  0  0  0  0
   44.6577   36.3895   42.7970 C   0  0  0  0  0  0  0  0  0  0  0  0
   46.6745   34.8440   42.1721 H   0  0  0  0  0  0  0  0  0  0  0  0
   45.0322   33.9967   46.7006 H   0  0  0  0  0  0  0  0  0  0  0  0
   48.5045   34.1090   41.6846 H   0  0  0  0  0  0  0  0  0  0  0  0
   48.6927   32.3939   44.2375 H   0  0  0  0  0  0  0  0  0  0  0  0
   48.7739   31.2000   40.9460 H   0  0  0  0  0  0  0  0  0  0  0  0
   49.3023   30.5520   42.5315 H   0  0  0  0  0  0  0  0  0  0  0  0
   50.7006   32.4206   42.8406 H   0  0  0  0  0  0  0  0  0  0  0  0
   49.5937   35.5840   42.8847 H   0  0  0  0  0  0  0  0  0  0  0  0
   50.7821   33.8647   40.9208 H   0  0  0  0  0  0  0  0  0  0  0  0
   45.4861   36.8262   42.2108 H   0  0  0  0  0  0  0  0  0  0  0  0
   44.2155   37.1942   43.4427 H   0  0  0  0  0  0  0  0  0  0  0  0
   45.0450   33.3572   42.0200 Br  0  0  0  0  0  0  0  0  0  0  0  0
   43.6173   34.4960   41.4924 C   0  0  0  0  0  0  0  0  0  0  0  0
   43.6072   35.8005   41.9278 C   0  0  0  0  0  0  0  0  0  0  0  0
   42.5369   36.5979   41.5139 C   0  0  0  0  0  0  0  0  0  0  0  0
   42.4636   37.6421   41.8220 H   0  0  0  0  0  0  0  0  0  0  0  0
   41.5244   36.1227   40.7059 C   0  0  0  0  0  0  0  0  0  0  0  0
   40.7114   36.8012   40.4152 H   0  0  0  0  0  0  0  0  0  0  0  0
   41.5669   34.7916   40.2823 C   0  0  0  0  0  0  0  0  0  0  0  0
   42.6290   33.9795   40.6859 C   0  0  0  0  0  0  0  0  0  0  0  0
   40.7336   34.4875   39.6463 H   0  0  0  0  0  0  0  0  0  0  0  0
   42.5864   32.9776   40.3189 H   0  0  0  0  0  0  0  0  0  0  0  0
  1  6  1  0
  2  1  2  0
  2  3  1  0
  3  4  2  0
  4  5  1  0
  6  5  2  0
  7 12  1  0
  7  8  1  0
  8  3  1  0
  9  8  1  0
 10 11  1  0
 10  9  1  0
 11 13  1  0
 11  7  1  0
 14  1  1  0
  2 15  1  0
  5 16  1  0
  7 17  1  6
  8 18  1  1
 10 19  1  0
 10 20  1  0
 11 21  1  1
 12 22  1  0
 13 23  1  0
 14 24  1  0
 14 25  1  0
 26 27  1  0
 27 28  2  0
 28 29  1  0
 29 30  1  0
 29 31  2  0
 31 32  1  0
 31 33  1  0
 33 34  2  0
 34 27  1  0
 33 35  1  0
 34 36  1  0
 14 28  1  0
M  ISO  8  15  14  16  14  17  13  18  13  19  13  20  13  21  13  22   3
M  ISO  5  23   3  24   8  25   8  30  15  32  16
M  END
>  <DihAtoms>  (1) 
0,13,27,26

>  <DihDeg>  (1) 
76.04581305604229

$$$$
