
 OpenBabel03242520023D

 25 27  0  0  0  0  0  0  0  0999 V2000
   46.8040   32.4970   44.5400 C   0  0  0  0  0  0  0  0  0  0  0  0
   47.5410   31.9370   43.4900 C   0  0  0  0  0  0  0  0  0  0  0  0
   48.0780   30.7720   43.9400 C   0  0  0  0  0  0  0  0  0  0  0  0
   47.6900   30.6170   45.2150 N   0  0  0  0  0  0  0  0  0  0  0  0
   46.9200   31.6630   45.5750 N   0  0  0  0  0  0  0  0  0  0  0  0
   47.6580   32.3600   42.5010 H   0  0  0  0  0  0  0  0  0  0  0  0
   48.7020   30.0510   43.4490 H   0  0  0  0  0  0  0  0  0  0  0  0
   44.6470   35.3170   45.4760 C   0  0  0  0  0  0  0  0  0  0  0  0
   44.6800   36.1240   44.3280 C   0  0  0  0  0  0  0  0  0  0  0  0
   45.4520   35.6810   43.2350 C   0  0  0  0  0  0  0  0  0  0  0  0
   46.1260   34.5030   43.3430 N   0  0  0  0  0  0  0  0  0  0  0  0
   46.0680   33.7530   44.4660 C   0  0  0  0  0  0  0  0  0  0  0  0
   45.3340   34.1500   45.5370 N   0  0  0  0  0  0  0  0  0  0  0  0
   44.0870   35.5690   46.3580 H   0  0  0  0  0  0  0  0  0  0  0  0
   44.1240   37.0400   44.3200 H   0  0  0  0  0  0  0  0  0  0  0  0
   45.4910   36.2890   42.3420 H   0  0  0  0  0  0  0  0  0  0  0  0
   45.3950   28.5950   45.4690 Br  0  0  0  0  0  0  0  0  0  0  0  0
   47.0680   28.5720   46.4110 C   0  0  0  0  0  0  0  0  0  0  0  0
   47.9670   29.5850   46.1450 C   0  0  0  0  0  0  0  0  0  0  0  0
   49.1680   29.5710   46.8180 C   0  0  0  0  0  0  0  0  0  0  0  0
   49.9200   30.3340   46.6600 H   0  0  0  0  0  0  0  0  0  0  0  0
   49.4310   28.5590   47.7250 C   0  0  0  0  0  0  0  0  0  0  0  0
   50.3790   28.5540   48.2540 H   0  0  0  0  0  0  0  0  0  0  0  0
   48.5490   27.5410   48.0040 C   0  0  0  0  0  3  0  0  0  0  0  0
   47.3450   27.5760   47.3130 C   0  0  0  0  0  3  0  0  0  0  0  0
  1  5  2  0  0  0  0
  2  3  2  0  0  0  0
  2  1  1  0  0  0  0
  3  4  1  0  0  0  0
  4  5  1  0  0  0  0
  4 19  1  0  0  0  0
  6  2  1  0  0  0  0
  7  3  1  0  0  0  0
  8 13  1  0  0  0  0
  8 14  1  0  0  0  0
  9  8  2  0  0  0  0
 10 11  2  0  0  0  0
 10  9  1  0  0  0  0
 11 12  1  0  0  0  0
 12  1  1  0  0  0  0
 12 13  2  0  0  0  0
 15  9  1  0  0  0  0
 16 10  1  0  0  0  0
 17 18  1  0  0  0  0
 18 25  1  0  0  0  0
 19 18  2  0  0  0  0
 19 20  1  0  0  0  0
 20 22  2  0  0  0  0
 21 20  1  0  0  0  0
 22 24  1  0  0  0  0
 22 23  1  0  0  0  0
 25 24  2  0  0  0  0
M  END
>  <minimizedAffinity>
-3.90886283

>  <minimizedRMSD>
4.57540894

$$$$
