REMARK  Name = 
REMARK  2 active torsions:
REMARK  status: ('A' for Active; 'I' for Inactive)
REMARK    1  A    between atoms: C_3  and  C_7
REMARK    2  A    between atoms: C_7  and  C_15
REMARK                            x       y       z     vdW  Elec       q    Type
REMARK                         _______ _______ _______ _____ _____    ______ ____
ROOT
ATOM      1  C   UNL     1      46.962  34.767  41.932  0.00  0.00    +0.000 C 
ATOM      2  H   UNL     1      47.931  34.259  42.188  0.00  0.00    +0.000 HD
ATOM      3  H   UNL     1      47.137  35.788  41.541  0.00  0.00    +0.000 HD
ENDROOT
BRANCH   1   6
ATOM      4  C   UNL     1      44.567  36.002  44.493  0.00  0.00    +0.000 A 
ATOM      5  C   UNL     1      45.299  35.935  43.292  0.00  0.00    +0.000 A 
ATOM      6  C   UNL     1      46.189  34.865  43.173  0.00  0.00    +0.000 A 
ATOM      7  N   UNL     1      46.303  33.964  44.196  0.00  0.00    +0.000 NA
ATOM      8  C   UNL     1      45.571  34.084  45.326  0.00  0.00    +0.000 A 
ATOM      9  N   UNL     1      44.710  35.098  45.469  0.00  0.00    +0.000 NA
ATOM     10  H   UNL     1      43.867  36.826  44.612  0.00  0.00    +0.000 HD
ATOM     11  H   UNL     1      45.176  36.673  42.505  0.00  0.00    +0.000 HD
ATOM     12  H   UNL     1      45.809  33.270  46.008  0.00  0.00    +0.000 HD
ENDBRANCH   1   6
BRANCH   1  15
ATOM     13 BR   UNL     1      44.495  36.312  40.719  0.00  0.00    +0.000 Br
ATOM     14  C   UNL     1      45.162  34.559  40.310  0.00  0.00    +0.000 A 
ATOM     15  C   UNL     1      46.263  33.949  40.904  0.00  0.00    +0.000 A 
ATOM     16  C   UNL     1      46.620  32.685  40.512  0.00  0.00    +0.000 A 
ATOM     17  H   UNL     1      47.483  32.240  40.996  0.00  0.00    +0.000 HD
ATOM     18  C   UNL     1      45.866  32.060  39.530  0.00  0.00    +0.000 A 
ATOM     19  H   UNL     1      46.173  31.057  39.236  0.00  0.00    +0.000 HD
ATOM     20  C   UNL     1      44.778  32.636  38.926  0.00  0.00    +0.000 A 
ATOM     21  C   UNL     1      44.414  33.919  39.324  0.00  0.00    +0.000 A 
ENDBRANCH   1  15
TORSDOF 2
