
 OpenBabel03242521423D

 34 36  0  0  1  0  0  0  0  0999 V2000
   45.2800   34.3470   42.1260 C   0  0  0  0  0  0  0  0  0  0  0  0
   46.5590   33.7580   42.0880 C   0  0  0  0  0  0  0  0  0  0  0  0
   47.2550   33.5990   43.2870 C   0  0  0  0  0  0  0  0  0  0  0  0
   46.6690   34.0140   44.4200 N   0  0  0  0  0  0  0  0  0  0  0  0
   45.4330   34.5790   44.4310 C   0  0  0  0  0  0  0  0  0  0  0  0
   44.7500   34.7390   43.2750 N   0  0  0  0  0  0  0  0  0  0  0  0
   46.9120   33.4690   41.1140 H   0  0  0  0  0  0  0  0  0  0  0  0
   45.0040   34.8990   45.3860 H   0  0  0  0  0  0  0  0  0  0  0  0
   49.6130   33.8360   42.5330 C   0  0  2  0  0  0  0  0  0  0  0  0
   48.5710   32.9870   43.2030 C   0  0  2  0  0  0  0  0  0  0  0  0
   48.6260   31.8310   42.4010 O   0  0  0  0  0  0  0  0  0  0  0  0
   49.9700   31.5360   42.3450 C   0  0  0  0  0  0  0  0  0  0  0  0
   50.7610   32.8090   42.5020 C   0  0  1  0  0  0  0  0  0  0  0  0
   49.3680   34.0210   41.4690 H   0  0  0  0  0  0  0  0  0  0  0  0
   48.9660   32.6930   44.2190 H   0  0  0  0  0  0  0  0  0  0  0  0
   50.1890   31.1250   41.3370 H   0  0  0  0  0  0  0  0  0  0  0  0
   50.2790   30.7750   43.0930 H   0  0  0  0  0  0  0  0  0  0  0  0
   51.2870   32.8700   43.4690 H   0  0  0  0  0  0  0  0  0  0  0  0
   49.9200   34.9780   43.2300 O   0  0  0  0  0  0  0  0  0  0  0  0
   49.8570   35.7920   42.6640 H   0  0  0  0  0  0  0  0  0  0  0  0
   51.5970   33.0850   41.4340 O   0  0  0  0  0  0  0  0  0  0  0  0
   51.7820   34.0560   41.4380 H   0  0  0  0  0  0  0  0  0  0  0  0
   44.5360   34.5290   40.8310 C   0  0  0  0  0  0  0  0  0  0  0  0
   44.9230   33.7530   40.1460 H   0  0  0  0  0  0  0  0  0  0  0  0
   44.7860   35.5380   40.4040 H   0  0  0  0  0  0  0  0  0  0  0  0
   43.3620   31.6030   40.8160 Br  0  0  0  0  0  0  0  0  0  0  0  0
   42.3910   33.2190   41.0570 C   0  0  0  0  0  0  0  0  0  0  0  0
   43.0700   34.4150   41.0360 C   0  0  0  0  0  0  0  0  0  0  0  0
   42.3130   35.5760   41.2180 C   0  0  0  0  0  0  0  0  0  0  0  0
   42.7850   36.5600   41.2140 H   0  0  0  0  0  0  0  0  0  0  0  0
   40.9470   35.5500   41.4120 C   0  0  0  0  0  0  0  0  0  0  0  0
   40.4110   36.4990   41.5490 H   0  0  0  0  0  0  0  0  0  0  0  0
   40.2900   34.3170   41.4290 C   0  0  0  0  0  0  0  0  0  0  0  0
   41.0300   33.1470   41.2480 C   0  0  0  0  0  0  0  0  0  0  0  0
  1  6  1  0  0  0  0
  2  1  2  0  0  0  0
  2  3  1  0  0  0  0
  3  4  2  0  0  0  0
  4  5  1  0  0  0  0
  5  8  1  0  0  0  0
  6  5  2  0  0  0  0
  7  2  1  0  0  0  0
  9 14  1  6  0  0  0
  9 10  1  0  0  0  0
  9 19  1  0  0  0  0
 10  3  1  0  0  0  0
 10 15  1  1  0  0  0
 11 10  1  0  0  0  0
 12 11  1  0  0  0  0
 12 13  1  0  0  0  0
 12 17  1  0  0  0  0
 13  9  1  0  0  0  0
 13 18  1  1  0  0  0
 16 12  1  0  0  0  0
 20 19  1  0  0  0  0
 21 22  1  0  0  0  0
 21 13  1  0  0  0  0
 23 28  1  0  0  0  0
 23  1  1  0  0  0  0
 24 23  1  0  0  0  0
 25 23  1  0  0  0  0
 26 27  1  0  0  0  0
 27 34  1  0  0  0  0
 28 27  2  0  0  0  0
 28 29  1  0  0  0  0
 29 31  2  0  0  0  0
 30 29  1  0  0  0  0
 31 33  1  0  0  0  0
 31 32  1  0  0  0  0
 34 33  2  0  0  0  0
M  END
>  <minimizedAffinity>
-5.69121885

>  <minimizedRMSD>
1.53344059

$$$$
