REMARK  Name = 
REMARK  2 active torsions:
REMARK  status: ('A' for Active; 'I' for Inactive)
REMARK    1  A    between atoms: C_3  and  C_7
REMARK    2  A    between atoms: C_7  and  C_15
REMARK                            x       y       z     vdW  Elec       q    Type
REMARK                         _______ _______ _______ _____ _____    ______ ____
ROOT
ATOM      1  C   UNL     1      46.962  34.767  41.932  0.00  0.00    +0.000 C 
ATOM      2  H   UNL     1      47.931  34.259  42.188  0.00  0.00    +0.000 HD
ATOM      3  H   UNL     1      47.137  35.788  41.541  0.00  0.00    +0.000 HD
ENDROOT
BRANCH   1   6
ATOM      4  C   UNL     1      44.567  36.002  44.493  0.00  0.00    +0.000 A 
ATOM      5  C   UNL     1      45.299  35.935  43.292  0.00  0.00    +0.000 A 
ATOM      6  C   UNL     1      46.189  34.865  43.173  0.00  0.00    +0.000 A 
ATOM      7  N   UNL     1      46.303  33.964  44.196  0.00  0.00    +0.000 NA
ATOM      8  C   UNL     1      45.571  34.084  45.326  0.00  0.00    +0.000 A 
ATOM      9  N   UNL     1      44.710  35.098  45.469  0.00  0.00    +0.000 NA
ATOM     10  H   UNL     1      43.867  36.826  44.612  0.00  0.00    +0.000 HD
ATOM     11  H   UNL     1      45.176  36.673  42.505  0.00  0.00    +0.000 HD
ATOM     12  H   UNL     1      45.809  33.270  46.008  0.00  0.00    +0.000 HD
ENDBRANCH   1   6
BRANCH   1  15
ATOM     13 BR   UNL     1      47.226  31.685  42.546  0.00  0.00    +0.000 Br
ATOM     14  C   UNL     1      46.323  32.572  41.103  0.00  0.00    +0.000 A 
ATOM     15  C   UNL     1      46.263  33.949  40.904  0.00  0.00    +0.000 A 
ATOM     16  C   UNL     1      45.583  34.440  39.821  0.00  0.00    +0.000 A 
ATOM     17  H   UNL     1      45.556  35.516  39.697  0.00  0.00    +0.000 HD
ATOM     18  C   UNL     1      44.976  33.538  38.958  0.00  0.00    +0.000 A 
ATOM     19  H   UNL     1      44.441  33.956  38.105  0.00  0.00    +0.000 HD
ATOM     20  C   UNL     1      45.018  32.178  39.128  0.00  0.00    +0.000 A 
ATOM     21  C   UNL     1      45.709  31.679  40.228  0.00  0.00    +0.000 A 
ENDBRANCH   1  15
TORSDOF 2
