
 OpenBabel03242510583D

 36 38  0  0  0  0  0  0  0  0999 V2000
   39.9330   32.7040   40.4220 C   0  0  0  0  0  0  0  0  0  0  0  0
   38.9720   33.6660   40.0860 C   0  0  0  0  0  0  0  0  0  0  0  0
   37.6340   33.3760   39.9210 C   0  0  0  0  0  0  0  0  0  0  0  0
   37.2440   32.0680   40.0980 C   0  0  0  0  0  0  0  0  0  0  0  0
   38.2010   31.1050   40.4320 C   0  0  0  0  0  0  0  0  0  0  0  0
   39.4730   31.4630   40.5740 N   0  0  0  0  0  0  0  0  0  0  0  0
   39.3270   34.6840   39.9570 H   0  0  0  0  0  0  0  0  0  0  0  0
   36.9880   34.1810   39.6660 H   0  0  0  0  0  0  0  0  0  0  0  0
   36.1880   31.8780   39.9590 H   0  0  0  0  0  0  0  0  0  0  0  0
   44.5820   35.8490   42.6500 C   0  0  0  0  0  0  0  0  0  0  0  0
   45.5750   35.3370   41.8030 C   0  0  0  0  0  0  0  0  0  0  0  0
   45.1900   34.4450   40.8010 C   0  0  0  0  0  0  0  0  0  0  0  0
   43.8760   34.1040   40.6820 N   0  0  0  0  0  0  0  0  0  0  0  0
   42.9490   34.6230   41.5240 C   0  0  0  0  0  0  0  0  0  0  0  0
   43.3010   35.5000   42.5140 N   0  0  0  0  0  0  0  0  0  0  0  0
   41.3270   33.0930   40.5780 C   0  0  0  0  0  0  0  0  0  0  0  0
   42.2130   32.4040   40.0120 O   0  0  0  0  0  0  0  0  0  0  0  0
   41.5930   34.2500   41.3770 N   0  0  0  0  0  0  0  0  0  0  0  0
   44.9590   36.5350   43.4060 H   0  0  0  0  0  0  0  0  0  0  0  0
   46.6270   35.5480   41.8210 H   0  0  0  0  0  0  0  0  0  0  0  0
   45.8940   33.9920   40.0900 H   0  0  0  0  0  0  0  0  0  0  0  0
   40.8070   34.7680   41.8120 H   0  0  0  0  0  0  0  0  0  0  0  0
   37.7650   29.7430   40.6290 C   0  0  0  0  0  3  0  0  0  0  0  0
   37.0910   29.4020   41.7020 C   0  0  0  0  0  3  0  0  0  0  0  0
   36.5760   28.0640   42.0860 C   0  0  0  0  0  0  0  0  0  0  0  0
   35.7990   28.1110   42.8730 H   0  0  0  0  0  0  0  0  0  0  0  0
   36.2280   27.5200   41.1730 H   0  0  0  0  0  0  0  0  0  0  0  0
   36.9980   25.5250   40.4000 Br  0  0  0  0  0  0  0  0  0  0  0  0
   38.0320   26.1070   41.9050 C   0  0  0  0  0  0  0  0  0  0  0  0
   37.7420   27.2890   42.5930 C   0  0  0  0  0  0  0  0  0  0  0  0
   38.5570   27.6340   43.6800 C   0  0  0  0  0  0  0  0  0  0  0  0
   38.2840   28.5590   44.1720 H   0  0  0  0  0  0  0  0  0  0  0  0
   39.6000   26.7960   44.0210 C   0  0  0  0  0  0  0  0  0  0  0  0
   40.2170   27.1060   44.8810 H   0  0  0  0  0  0  0  0  0  0  0  0
   39.8670   25.6350   43.3270 C   0  0  0  0  0  3  0  0  0  0  0  0
   39.0720   25.2720   42.2440 C   0  0  0  0  0  3  0  0  0  0  0  0
  1  6  1  0  0  0  0
  1 16  1  0  0  0  0
  2  1  2  0  0  0  0
  3  2  1  0  0  0  0
  3  4  2  0  0  0  0
  4  5  1  0  0  0  0
  5  6  2  0  0  0  0
  5 23  1  0  0  0  0
  7  2  1  0  0  0  0
  8  3  1  0  0  0  0
  9  4  1  0  0  0  0
 10 19  1  0  0  0  0
 11 20  1  0  0  0  0
 11 10  2  0  0  0  0
 12 11  1  0  0  0  0
 13 12  2  0  0  0  0
 13 14  1  0  0  0  0
 14 15  2  0  0  0  0
 15 10  1  0  0  0  0
 16 18  1  0  0  0  0
 17 16  2  0  0  0  0
 18 14  1  0  0  0  0
 18 22  1  0  0  0  0
 21 12  1  0  0  0  0
 23 24  2  0  0  0  0
 24 25  1  0  0  0  0
 25 30  1  0  0  0  0
 25 26  1  0  0  0  0
 27 25  1  0  0  0  0
 28 29  1  0  0  0  0
 29 36  2  0  0  0  0
 29 30  1  0  0  0  0
 30 31  2  0  0  0  0
 31 33  1  0  0  0  0
 31 32  1  0  0  0  0
 33 34  1  0  0  0  0
 35 33  2  0  0  0  0
 36 35  1  0  0  0  0
M  END
>  <minimizedAffinity>
-6.8885169

$$$$

 OpenBabel03242510583D

 36 38  0  0  0  0  0  0  0  0999 V2000
   37.2150   30.8830   38.9890 C   0  0  0  0  0  0  0  0  0  0  0  0
   36.6950   30.6380   37.7120 C   0  0  0  0  0  0  0  0  0  0  0  0
   36.1100   29.4440   37.3470 C   0  0  0  0  0  0  0  0  0  0  0  0
   36.0430   28.4550   38.3020 C   0  0  0  0  0  0  0  0  0  0  0  0
   36.5610   28.6960   39.5780 C   0  0  0  0  0  0  0  0  0  0  0  0
   37.1120   29.8740   39.8530 N   0  0  0  0  0  0  0  0  0  0  0  0
   36.7710   31.4480   36.9920 H   0  0  0  0  0  0  0  0  0  0  0  0
   35.7470   29.3630   36.3510 H   0  0  0  0  0  0  0  0  0  0  0  0
   35.5780   27.5330   37.9800 H   0  0  0  0  0  0  0  0  0  0  0  0
   41.6050   34.6840   40.6480 C   0  0  0  0  0  0  0  0  0  0  0  0
   40.8270   35.8490   40.7120 C   0  0  0  0  0  0  0  0  0  0  0  0
   39.4560   35.7380   40.4780 C   0  0  0  0  0  0  0  0  0  0  0  0
   38.9240   34.5150   40.1980 N   0  0  0  0  0  0  0  0  0  0  0  0
   39.7140   33.4150   40.1470 C   0  0  0  0  0  0  0  0  0  0  0  0
   41.0620   33.4960   40.3720 N   0  0  0  0  0  0  0  0  0  0  0  0
   37.8190   32.1720   39.2930 C   0  0  0  0  0  0  0  0  0  0  0  0
   37.1620   33.2170   39.0510 O   0  0  0  0  0  0  0  0  0  0  0  0
   39.1350   32.1580   39.8540 N   0  0  0  0  0  0  0  0  0  0  0  0
   42.6630   34.8500   40.8400 H   0  0  0  0  0  0  0  0  0  0  0  0
   41.1570   36.8470   40.9240 H   0  0  0  0  0  0  0  0  0  0  0  0
   38.7660   36.5930   40.5050 H   0  0  0  0  0  0  0  0  0  0  0  0
   39.6130   31.2540   40.0250 H   0  0  0  0  0  0  0  0  0  0  0  0
   36.4640   27.6490   40.5670 C   0  0  0  0  0  3  0  0  0  0  0  0
   36.9310   27.8270   41.7800 C   0  0  0  0  0  3  0  0  0  0  0  0
   36.9390   26.8750   42.9190 C   0  0  0  0  0  0  0  0  0  0  0  0
   36.5760   27.3260   43.8610 H   0  0  0  0  0  0  0  0  0  0  0  0
   36.3720   25.9520   42.6390 H   0  0  0  0  0  0  0  0  0  0  0  0
   37.3760   24.1050   41.6500 Br  0  0  0  0  0  0  0  0  0  0  0  0
   38.6710   25.1850   42.5610 C   0  0  0  0  0  0  0  0  0  0  0  0
   38.3510   26.4360   43.0960 C   0  0  0  0  0  0  0  0  0  0  0  0
   39.3670   27.1540   43.7420 C   0  0  0  0  0  0  0  0  0  0  0  0
   39.0590   28.1150   44.1350 H   0  0  0  0  0  0  0  0  0  0  0  0
   40.6270   26.5960   43.8220 C   0  0  0  0  0  0  0  0  0  0  0  0
   41.3970   27.1950   44.3380 H   0  0  0  0  0  0  0  0  0  0  0  0
   40.9190   25.3600   43.2870 C   0  0  0  0  0  3  0  0  0  0  0  0
   39.9280   24.6290   42.6400 C   0  0  0  0  0  3  0  0  0  0  0  0
  1 16  1  0  0  0  0
  1  6  1  0  0  0  0
  2  1  2  0  0  0  0
  3  2  1  0  0  0  0
  3  4  2  0  0  0  0
  4  5  1  0  0  0  0
  5  6  2  0  0  0  0
  5 23  1  0  0  0  0
  7  2  1  0  0  0  0
  8  3  1  0  0  0  0
  9  4  1  0  0  0  0
 10 11  1  0  0  0  0
 10 19  1  0  0  0  0
 11 20  1  0  0  0  0
 12 21  1  0  0  0  0
 12 11  2  0  0  0  0
 13 12  1  0  0  0  0
 14 13  2  0  0  0  0
 14 15  1  0  0  0  0
 15 10  2  0  0  0  0
 16 18  1  0  0  0  0
 17 16  2  0  0  0  0
 18 22  1  0  0  0  0
 18 14  1  0  0  0  0
 23 24  2  0  0  0  0
 24 25  1  0  0  0  0
 25 30  1  0  0  0  0
 25 26  1  0  0  0  0
 27 25  1  0  0  0  0
 28 29  1  0  0  0  0
 29 36  2  0  0  0  0
 29 30  1  0  0  0  0
 30 31  2  0  0  0  0
 31 33  1  0  0  0  0
 31 32  1  0  0  0  0
 33 34  1  0  0  0  0
 35 33  2  0  0  0  0
 36 35  1  0  0  0  0
M  END
>  <minimizedAffinity>
-6.67758322

$$$$

 OpenBabel03242510583D

 36 38  0  0  0  0  0  0  0  0999 V2000
   39.6510   32.1610   40.5700 C   0  0  0  0  0  0  0  0  0  0  0  0
   38.7310   32.8270   39.7490 C   0  0  0  0  0  0  0  0  0  0  0  0
   37.3920   32.5060   39.6950 C   0  0  0  0  0  0  0  0  0  0  0  0
   36.9550   31.4750   40.4950 C   0  0  0  0  0  0  0  0  0  0  0  0
   37.8700   30.8080   41.3150 C   0  0  0  0  0  0  0  0  0  0  0  0
   39.1480   31.1760   41.3120 N   0  0  0  0  0  0  0  0  0  0  0  0
   39.1220   33.6340   39.1360 H   0  0  0  0  0  0  0  0  0  0  0  0
   36.7800   33.0760   39.0380 H   0  0  0  0  0  0  0  0  0  0  0  0
   35.9000   31.2510   40.4250 H   0  0  0  0  0  0  0  0  0  0  0  0
   44.4730   35.4240   42.1740 C   0  0  0  0  0  0  0  0  0  0  0  0
   45.3800   34.8770   41.2570 C   0  0  0  0  0  0  0  0  0  0  0  0
   44.9050   33.9370   40.3410 C   0  0  0  0  0  0  0  0  0  0  0  0
   43.5880   33.5860   40.3690 N   0  0  0  0  0  0  0  0  0  0  0  0
   42.7460   34.1410   41.2740 C   0  0  0  0  0  0  0  0  0  0  0  0
   43.1870   35.0650   42.1830 N   0  0  0  0  0  0  0  0  0  0  0  0
   41.0500   32.5620   40.5680 C   0  0  0  0  0  0  0  0  0  0  0  0
   41.8810   31.8500   39.9490 O   0  0  0  0  0  0  0  0  0  0  0  0
   41.3850   33.7570   41.2810 N   0  0  0  0  0  0  0  0  0  0  0  0
   44.9170   36.1480   42.8550 H   0  0  0  0  0  0  0  0  0  0  0  0
   46.4270   35.0920   41.1600 H   0  0  0  0  0  0  0  0  0  0  0  0
   45.5390   33.4530   39.5850 H   0  0  0  0  0  0  0  0  0  0  0  0
   40.6420   34.2920   41.7680 H   0  0  0  0  0  0  0  0  0  0  0  0
   37.3860   29.7400   42.1570 C   0  0  0  0  0  3  0  0  0  0  0  0
   38.2200   29.0060   42.8560 C   0  0  0  0  0  3  0  0  0  0  0  0
   37.9180   27.8660   43.7570 C   0  0  0  0  0  0  0  0  0  0  0  0
   38.6220   27.7900   44.6070 H   0  0  0  0  0  0  0  0  0  0  0  0
   36.8520   27.9220   44.0890 H   0  0  0  0  0  0  0  0  0  0  0  0
   40.7250   26.6250   43.9860 Br  0  0  0  0  0  0  0  0  0  0  0  0
   39.2480   25.9790   42.9490 C   0  0  0  0  0  0  0  0  0  0  0  0
   38.0130   26.6330   42.9280 C   0  0  0  0  0  0  0  0  0  0  0  0
   36.9920   26.0830   42.1410 C   0  0  0  0  0  0  0  0  0  0  0  0
   36.0590   26.6320   42.1660 H   0  0  0  0  0  0  0  0  0  0  0  0
   37.2500   24.9300   41.4270 C   0  0  0  0  0  0  0  0  0  0  0  0
   36.4190   24.5310   40.8220 H   0  0  0  0  0  0  0  0  0  0  0  0
   38.4770   24.3030   41.4630 C   0  0  0  0  0  3  0  0  0  0  0  0
   39.5060   24.8290   42.2380 C   0  0  0  0  0  3  0  0  0  0  0  0
  1  6  1  0  0  0  0
  2  1  2  0  0  0  0
  3  2  1  0  0  0  0
  3  4  2  0  0  0  0
  4  5  1  0  0  0  0
  5 23  1  0  0  0  0
  6  5  2  0  0  0  0
  7  2  1  0  0  0  0
  8  3  1  0  0  0  0
  9  4  1  0  0  0  0
 10 15  1  0  0  0  0
 10 19  1  0  0  0  0
 11 10  2  0  0  0  0
 12 13  2  0  0  0  0
 12 11  1  0  0  0  0
 13 14  1  0  0  0  0
 14 18  1  0  0  0  0
 14 15  2  0  0  0  0
 16  1  1  0  0  0  0
 16 18  1  0  0  0  0
 17 16  2  0  0  0  0
 18 22  1  0  0  0  0
 20 11  1  0  0  0  0
 21 12  1  0  0  0  0
 23 24  2  0  0  0  0
 24 25  1  0  0  0  0
 25 27  1  0  0  0  0
 25 26  1  0  0  0  0
 29 28  1  0  0  0  0
 30 29  1  0  0  0  0
 30 25  1  0  0  0  0
 31 32  1  0  0  0  0
 31 30  2  0  0  0  0
 33 35  2  0  0  0  0
 33 31  1  0  0  0  0
 34 33  1  0  0  0  0
 35 36  1  0  0  0  0
 36 29  2  0  0  0  0
M  END
>  <minimizedAffinity>
-6.67745495

$$$$

 OpenBabel03242510583D

 36 38  0  0  0  0  0  0  0  0999 V2000
   40.7950   33.5930   38.9550 C   0  0  0  0  0  0  0  0  0  0  0  0
   40.8520   34.8460   39.5780 C   0  0  0  0  0  0  0  0  0  0  0  0
   39.8060   35.3840   40.2970 C   0  0  0  0  0  0  0  0  0  0  0  0
   38.6540   34.6360   40.3940 C   0  0  0  0  0  0  0  0  0  0  0  0
   38.5930   33.3860   39.7730 C   0  0  0  0  0  0  0  0  0  0  0  0
   39.6450   32.9350   39.0960 N   0  0  0  0  0  0  0  0  0  0  0  0
   41.7810   35.3980   39.4740 H   0  0  0  0  0  0  0  0  0  0  0  0
   39.9550   36.3430   40.7310 H   0  0  0  0  0  0  0  0  0  0  0  0
   37.8560   35.0910   40.9640 H   0  0  0  0  0  0  0  0  0  0  0  0
   43.8150   29.9070   35.2450 C   0  0  0  0  0  0  0  0  0  0  0  0
   45.0930   30.4480   35.4460 C   0  0  0  0  0  0  0  0  0  0  0  0
   45.2330   31.4750   36.3800 C   0  0  0  0  0  0  0  0  0  0  0  0
   44.1350   31.9140   37.0580 N   0  0  0  0  0  0  0  0  0  0  0  0
   42.9180   31.3620   36.8310 C   0  0  0  0  0  0  0  0  0  0  0  0
   42.7540   30.3530   35.9200 N   0  0  0  0  0  0  0  0  0  0  0  0
   41.9450   33.0960   38.2140 C   0  0  0  0  0  0  0  0  0  0  0  0
   42.9960   33.7880   38.1960 O   0  0  0  0  0  0  0  0  0  0  0  0
   41.7960   31.8380   37.5490 N   0  0  0  0  0  0  0  0  0  0  0  0
   43.7850   29.1130   34.5020 H   0  0  0  0  0  0  0  0  0  0  0  0
   46.0080   30.1670   34.9630 H   0  0  0  0  0  0  0  0  0  0  0  0
   46.1920   31.9610   36.6070 H   0  0  0  0  0  0  0  0  0  0  0  0
   40.8970   31.3260   37.6090 H   0  0  0  0  0  0  0  0  0  0  0  0
   37.3810   32.6140   39.9020 C   0  0  0  0  0  3  0  0  0  0  0  0
   37.3150   31.6030   40.7370 C   0  0  0  0  0  3  0  0  0  0  0  0
   36.1740   30.6890   40.9960 C   0  0  0  0  0  0  0  0  0  0  0  0
   35.4640   31.0880   41.7440 H   0  0  0  0  0  0  0  0  0  0  0  0
   35.6760   30.4280   40.0300 H   0  0  0  0  0  0  0  0  0  0  0  0
   35.5750   28.3810   39.0500 Br  0  0  0  0  0  0  0  0  0  0  0  0
   36.5460   28.2900   40.7000 C   0  0  0  0  0  0  0  0  0  0  0  0
   36.7570   29.4150   41.5020 C   0  0  0  0  0  0  0  0  0  0  0  0
   37.4810   29.2500   42.6900 C   0  0  0  0  0  0  0  0  0  0  0  0
   37.6120   30.1570   43.2680 H   0  0  0  0  0  0  0  0  0  0  0  0
   37.9490   27.9920   43.0140 C   0  0  0  0  0  0  0  0  0  0  0  0
   38.5150   27.9070   43.9570 H   0  0  0  0  0  0  0  0  0  0  0  0
   37.7290   26.8960   42.2080 C   0  0  0  0  0  3  0  0  0  0  0  0
   37.0130   27.0360   41.0220 C   0  0  0  0  0  3  0  0  0  0  0  0
  1  6  2  0  0  0  0
  1  2  1  0  0  0  0
  2  3  2  0  0  0  0
  3  4  1  0  0  0  0
  3  8  1  0  0  0  0
  4  9  1  0  0  0  0
  5 23  1  0  0  0  0
  5  4  2  0  0  0  0
  6  5  1  0  0  0  0
  7  2  1  0  0  0  0
 10 11  2  0  0  0  0
 10 15  1  0  0  0  0
 11 12  1  0  0  0  0
 12 21  1  0  0  0  0
 12 13  2  0  0  0  0
 14 13  1  0  0  0  0
 14 18  1  0  0  0  0
 15 14  2  0  0  0  0
 16  1  1  0  0  0  0
 17 16  2  0  0  0  0
 18 22  1  0  0  0  0
 18 16  1  0  0  0  0
 19 10  1  0  0  0  0
 20 11  1  0  0  0  0
 23 24  2  0  0  0  0
 24 25  1  0  0  0  0
 25 30  1  0  0  0  0
 25 26  1  0  0  0  0
 27 25  1  0  0  0  0
 28 29  1  0  0  0  0
 29 36  2  0  0  0  0
 29 30  1  0  0  0  0
 30 31  2  0  0  0  0
 31 33  1  0  0  0  0
 31 32  1  0  0  0  0
 33 34  1  0  0  0  0
 35 33  2  0  0  0  0
 36 35  1  0  0  0  0
M  END
>  <minimizedAffinity>
-6.66081953

$$$$

 OpenBabel03242510583D

 36 38  0  0  0  0  0  0  0  0999 V2000
   39.3340   32.1540   40.2290 C   0  0  0  0  0  0  0  0  0  0  0  0
   38.4370   32.6900   39.2960 C   0  0  0  0  0  0  0  0  0  0  0  0
   37.1230   32.2880   39.1900 C   0  0  0  0  0  0  0  0  0  0  0  0
   36.6890   31.3080   40.0530 C   0  0  0  0  0  0  0  0  0  0  0  0
   37.5810   30.7710   40.9850 C   0  0  0  0  0  0  0  0  0  0  0  0
   38.8350   31.2100   41.0270 N   0  0  0  0  0  0  0  0  0  0  0  0
   38.8250   33.4600   38.6370 H   0  0  0  0  0  0  0  0  0  0  0  0
   36.5270   32.7610   38.4460 H   0  0  0  0  0  0  0  0  0  0  0  0
   35.6530   31.0180   39.9400 H   0  0  0  0  0  0  0  0  0  0  0  0
   44.7330   33.2380   42.7070 C   0  0  0  0  0  0  0  0  0  0  0  0
   45.2730   33.9890   41.6540 C   0  0  0  0  0  0  0  0  0  0  0  0
   44.4550   34.2680   40.5580 C   0  0  0  0  0  0  0  0  0  0  0  0
   43.1730   33.8050   40.5480 N   0  0  0  0  0  0  0  0  0  0  0  0
   42.6930   33.0820   41.5890 C   0  0  0  0  0  0  0  0  0  0  0  0
   43.4750   32.7940   42.6750 N   0  0  0  0  0  0  0  0  0  0  0  0
   40.7070   32.6340   40.2770 C   0  0  0  0  0  0  0  0  0  0  0  0
   41.2430   33.0360   39.2120 O   0  0  0  0  0  0  0  0  0  0  0  0
   41.3590   32.6130   41.5500 N   0  0  0  0  0  0  0  0  0  0  0  0
   45.4310   33.0600   43.5240 H   0  0  0  0  0  0  0  0  0  0  0  0
   46.2640   34.3940   41.5760 H   0  0  0  0  0  0  0  0  0  0  0  0
   44.7880   34.8490   39.6860 H   0  0  0  0  0  0  0  0  0  0  0  0
   40.8510   32.2660   42.3850 H   0  0  0  0  0  0  0  0  0  0  0  0
   37.0980   29.7560   41.8910 C   0  0  0  0  0  3  0  0  0  0  0  0
   37.1930   28.4830   41.5850 C   0  0  0  0  0  3  0  0  0  0  0  0
   36.7440   27.3060   42.3700 C   0  0  0  0  0  0  0  0  0  0  0  0
   36.1560   27.5830   43.2650 H   0  0  0  0  0  0  0  0  0  0  0  0
   36.1970   26.5960   41.7010 H   0  0  0  0  0  0  0  0  0  0  0  0
   36.8250   24.4890   41.1330 Br  0  0  0  0  0  0  0  0  0  0  0  0
   38.1220   25.2860   42.2970 C   0  0  0  0  0  0  0  0  0  0  0  0
   37.9750   26.5840   42.7950 C   0  0  0  0  0  0  0  0  0  0  0  0
   38.9780   27.0820   43.6380 C   0  0  0  0  0  0  0  0  0  0  0  0
   38.8090   28.0910   43.9920 H   0  0  0  0  0  0  0  0  0  0  0  0
   40.0570   26.2740   43.9370 C   0  0  0  0  0  0  0  0  0  0  0  0
   40.8240   26.7050   44.6020 H   0  0  0  0  0  0  0  0  0  0  0  0
   40.1800   24.9970   43.4330 C   0  0  0  0  0  3  0  0  0  0  0  0
   39.1980   24.4810   42.5930 C   0  0  0  0  0  3  0  0  0  0  0  0
  1 16  1  0  0  0  0
  1  6  1  0  0  0  0
  2  1  2  0  0  0  0
  3  2  1  0  0  0  0
  3  4  2  0  0  0  0
  4  5  1  0  0  0  0
  5  6  2  0  0  0  0
  5 23  1  0  0  0  0
  7  2  1  0  0  0  0
  8  3  1  0  0  0  0
  9  4  1  0  0  0  0
 10 19  1  0  0  0  0
 11 10  2  0  0  0  0
 12 11  1  0  0  0  0
 13 12  2  0  0  0  0
 13 14  1  0  0  0  0
 14 15  2  0  0  0  0
 15 10  1  0  0  0  0
 16 18  1  0  0  0  0
 17 16  2  0  0  0  0
 18 14  1  0  0  0  0
 18 22  1  0  0  0  0
 20 11  1  0  0  0  0
 21 12  1  0  0  0  0
 24 23  2  0  0  0  0
 24 25  1  0  0  0  0
 25 30  1  0  0  0  0
 25 26  1  0  0  0  0
 27 25  1  0  0  0  0
 28 29  1  0  0  0  0
 29 36  2  0  0  0  0
 29 30  1  0  0  0  0
 30 31  2  0  0  0  0
 31 33  1  0  0  0  0
 31 32  1  0  0  0  0
 33 34  1  0  0  0  0
 35 33  2  0  0  0  0
 36 35  1  0  0  0  0
M  END
>  <minimizedAffinity>
-6.49451399

$$$$

 OpenBabel03242510583D

 36 38  0  0  0  0  0  0  0  0999 V2000
   38.4890   30.2390   41.8970 C   0  0  0  0  0  0  0  0  0  0  0  0
   38.8360   29.3910   42.9570 C   0  0  0  0  0  0  0  0  0  0  0  0
   38.0980   28.2820   43.3140 C   0  0  0  0  0  0  0  0  0  0  0  0
   36.9660   28.0120   42.5780 C   0  0  0  0  0  0  0  0  0  0  0  0
   36.6180   28.8560   41.5200 C   0  0  0  0  0  0  0  0  0  0  0  0
   37.3800   29.9080   41.2370 N   0  0  0  0  0  0  0  0  0  0  0  0
   39.7370   29.6450   43.5080 H   0  0  0  0  0  0  0  0  0  0  0  0
   38.4510   27.7060   44.1350 H   0  0  0  0  0  0  0  0  0  0  0  0
   36.4140   27.1360   42.8870 H   0  0  0  0  0  0  0  0  0  0  0  0
   39.6940   35.8480   40.0120 C   0  0  0  0  0  0  0  0  0  0  0  0
   41.0930   35.7590   40.0450 C   0  0  0  0  0  0  0  0  0  0  0  0
   41.6660   34.5320   40.3830 C   0  0  0  0  0  0  0  0  0  0  0  0
   40.8550   33.4730   40.6660 N   0  0  0  0  0  0  0  0  0  0  0  0
   39.5070   33.6060   40.6220 C   0  0  0  0  0  0  0  0  0  0  0  0
   38.9200   34.7980   40.2940 N   0  0  0  0  0  0  0  0  0  0  0  0
   39.3230   31.3910   41.5850 C   0  0  0  0  0  0  0  0  0  0  0  0
   40.5380   31.3620   41.9090 O   0  0  0  0  0  0  0  0  0  0  0  0
   38.6910   32.4900   40.9220 N   0  0  0  0  0  0  0  0  0  0  0  0
   39.3230   36.8350   39.7420 H   0  0  0  0  0  0  0  0  0  0  0  0
   41.8050   36.5330   39.8370 H   0  0  0  0  0  0  0  0  0  0  0  0
   42.7500   34.3640   40.4360 H   0  0  0  0  0  0  0  0  0  0  0  0
   37.6820   32.4400   40.6870 H   0  0  0  0  0  0  0  0  0  0  0  0
   35.4350   28.5430   40.7530 C   0  0  0  0  0  3  0  0  0  0  0  0
   35.1500   29.2080   39.6580 C   0  0  0  0  0  3  0  0  0  0  0  0
   33.9850   29.0450   38.7530 C   0  0  0  0  0  0  0  0  0  0  0  0
   33.4490   28.0900   38.9090 H   0  0  0  0  0  0  0  0  0  0  0  0
   33.3120   29.9330   38.8460 H   0  0  0  0  0  0  0  0  0  0  0  0
   31.6770   29.1480   36.7190 Br  0  0  0  0  0  0  0  0  0  0  0  0
   33.5580   29.1370   36.3470 C   0  0  0  0  0  0  0  0  0  0  0  0
   34.5160   29.0910   37.3640 C   0  0  0  0  0  0  0  0  0  0  0  0
   35.8680   29.0880   36.9930 C   0  0  0  0  0  0  0  0  0  0  0  0
   36.5620   29.0520   37.8230 H   0  0  0  0  0  0  0  0  0  0  0  0
   36.1900   29.1300   35.6510 C   0  0  0  0  0  0  0  0  0  0  0  0
   37.2640   29.1280   35.4040 H   0  0  0  0  0  0  0  0  0  0  0  0
   35.2260   29.1750   34.6660 C   0  0  0  0  0  3  0  0  0  0  0  0
   33.8780   29.1790   35.0090 C   0  0  0  0  0  3  0  0  0  0  0  0
  1  2  1  0  0  0  0
  2  3  2  0  0  0  0
  2  7  1  0  0  0  0
  3  8  1  0  0  0  0
  4  9  1  0  0  0  0
  4  3  1  0  0  0  0
  5  4  2  0  0  0  0
  6  5  1  0  0  0  0
  6  1  2  0  0  0  0
 10 11  2  0  0  0  0
 10 15  1  0  0  0  0
 11 12  1  0  0  0  0
 12 21  1  0  0  0  0
 12 13  2  0  0  0  0
 14 13  1  0  0  0  0
 14 18  1  0  0  0  0
 15 14  2  0  0  0  0
 16  1  1  0  0  0  0
 16 17  2  0  0  0  0
 18 16  1  0  0  0  0
 19 10  1  0  0  0  0
 20 11  1  0  0  0  0
 22 18  1  0  0  0  0
 23  5  1  0  0  0  0
 24 23  2  0  0  0  0
 25 27  1  0  0  0  0
 25 26  1  0  0  0  0
 25 24  1  0  0  0  0
 29 28  1  0  0  0  0
 29 30  1  0  0  0  0
 30 25  1  0  0  0  0
 31 30  2  0  0  0  0
 31 32  1  0  0  0  0
 33 31  1  0  0  0  0
 34 33  1  0  0  0  0
 35 36  1  0  0  0  0
 35 33  2  0  0  0  0
 36 29  2  0  0  0  0
M  END
>  <minimizedAffinity>
-6.45083237

$$$$

 OpenBabel03242510583D

 36 38  0  0  0  0  0  0  0  0999 V2000
   37.3730   30.5770   39.8310 C   0  0  0  0  0  0  0  0  0  0  0  0
   37.1820   29.8590   41.0190 C   0  0  0  0  0  0  0  0  0  0  0  0
   36.1940   28.9120   41.1820 C   0  0  0  0  0  0  0  0  0  0  0  0
   35.3630   28.6740   40.1110 C   0  0  0  0  0  0  0  0  0  0  0  0
   35.5500   29.3880   38.9250 C   0  0  0  0  0  0  0  0  0  0  0  0
   36.5260   30.2880   38.8450 N   0  0  0  0  0  0  0  0  0  0  0  0
   37.8630   30.0810   41.8360 H   0  0  0  0  0  0  0  0  0  0  0  0
   36.1370   28.4240   42.1260 H   0  0  0  0  0  0  0  0  0  0  0  0
   34.6000   27.9250   40.2770 H   0  0  0  0  0  0  0  0  0  0  0  0
   40.1420   35.8460   40.8540 C   0  0  0  0  0  0  0  0  0  0  0  0
   41.2360   35.6490   40.0000 C   0  0  0  0  0  0  0  0  0  0  0  0
   41.2720   34.4830   39.2350 C   0  0  0  0  0  0  0  0  0  0  0  0
   40.2540   33.5830   39.3430 N   0  0  0  0  0  0  0  0  0  0  0  0
   39.2150   33.8140   40.1820 C   0  0  0  0  0  0  0  0  0  0  0  0
   39.1560   34.9500   40.9440 N   0  0  0  0  0  0  0  0  0  0  0  0
   38.4410   31.5620   39.7410 C   0  0  0  0  0  0  0  0  0  0  0  0
   39.5290   31.2250   39.2060 O   0  0  0  0  0  0  0  0  0  0  0  0
   38.1730   32.8620   40.2740 N   0  0  0  0  0  0  0  0  0  0  0  0
   40.1850   36.7760   41.4190 H   0  0  0  0  0  0  0  0  0  0  0  0
   42.0770   36.2980   39.8500 H   0  0  0  0  0  0  0  0  0  0  0  0
   42.0860   34.2400   38.5380 H   0  0  0  0  0  0  0  0  0  0  0  0
   37.2500   33.0650   40.7000 H   0  0  0  0  0  0  0  0  0  0  0  0
   34.6760   29.1100   37.8110 C   0  0  0  0  0  3  0  0  0  0  0  0
   33.3730   29.1010   37.9660 C   0  0  0  0  0  3  0  0  0  0  0  0
   32.3210   28.8230   36.9550 C   0  0  0  0  0  0  0  0  0  0  0  0
   32.7040   28.8480   35.9180 H   0  0  0  0  0  0  0  0  0  0  0  0
   31.8120   27.8590   37.2010 H   0  0  0  0  0  0  0  0  0  0  0  0
   32.1350   30.5630   34.4230 Br  0  0  0  0  0  0  0  0  0  0  0  0
   31.1080   30.7360   36.0320 C   0  0  0  0  0  0  0  0  0  0  0  0
   31.2830   29.8770   37.1210 C   0  0  0  0  0  0  0  0  0  0  0  0
   30.4830   30.0810   38.2540 C   0  0  0  0  0  0  0  0  0  0  0  0
   30.6640   29.3850   39.0640 H   0  0  0  0  0  0  0  0  0  0  0  0
   29.5660   31.1130   38.2440 C   0  0  0  0  0  0  0  0  0  0  0  0
   28.9570   31.2370   39.1550 H   0  0  0  0  0  0  0  0  0  0  0  0
   29.4120   31.9470   37.1580 C   0  0  0  0  0  3  0  0  0  0  0  0
   30.1940   31.7650   36.0210 C   0  0  0  0  0  3  0  0  0  0  0  0
  1  2  1  0  0  0  0
  2  3  2  0  0  0  0
  2  7  1  0  0  0  0
  3  8  1  0  0  0  0
  4  9  1  0  0  0  0
  4  3  1  0  0  0  0
  5  4  2  0  0  0  0
  6  5  1  0  0  0  0
  6  1  2  0  0  0  0
 10 15  1  0  0  0  0
 10 19  1  0  0  0  0
 11 10  2  0  0  0  0
 12 13  2  0  0  0  0
 12 11  1  0  0  0  0
 13 14  1  0  0  0  0
 14 18  1  0  0  0  0
 14 15  2  0  0  0  0
 16  1  1  0  0  0  0
 16 18  1  0  0  0  0
 17 16  2  0  0  0  0
 18 22  1  0  0  0  0
 20 11  1  0  0  0  0
 21 12  1  0  0  0  0
 23 24  2  0  0  0  0
 23  5  1  0  0  0  0
 25 30  1  0  0  0  0
 25 27  1  0  0  0  0
 25 24  1  0  0  0  0
 26 25  1  0  0  0  0
 28 29  1  0  0  0  0
 29 30  1  0  0  0  0
 30 31  2  0  0  0  0
 31 32  1  0  0  0  0
 33 31  1  0  0  0  0
 33 34  1  0  0  0  0
 35 33  2  0  0  0  0
 36 29  2  0  0  0  0
 36 35  1  0  0  0  0
M  END
>  <minimizedAffinity>
-6.326262

$$$$

 OpenBabel03242510583D

 36 38  0  0  0  0  0  0  0  0999 V2000
   39.2950   32.0830   40.0040 C   0  0  0  0  0  0  0  0  0  0  0  0
   38.3110   32.4340   39.0710 C   0  0  0  0  0  0  0  0  0  0  0  0
   37.0230   31.9420   39.1040 C   0  0  0  0  0  0  0  0  0  0  0  0
   36.7090   31.0600   40.1130 C   0  0  0  0  0  0  0  0  0  0  0  0
   37.6880   30.7070   41.0460 C   0  0  0  0  0  0  0  0  0  0  0  0
   38.9090   31.2240   40.9470 N   0  0  0  0  0  0  0  0  0  0  0  0
   38.6050   33.1330   38.2940 H   0  0  0  0  0  0  0  0  0  0  0  0
   36.3550   32.2740   38.3470 H   0  0  0  0  0  0  0  0  0  0  0  0
   35.6910   30.6940   40.1060 H   0  0  0  0  0  0  0  0  0  0  0  0
   44.6750   33.1280   37.4700 C   0  0  0  0  0  0  0  0  0  0  0  0
   45.2550   33.8170   38.5430 C   0  0  0  0  0  0  0  0  0  0  0  0
   44.5160   33.9450   39.7200 C   0  0  0  0  0  0  0  0  0  0  0  0
   43.2680   33.4010   39.7850 N   0  0  0  0  0  0  0  0  0  0  0  0
   42.7470   32.7420   38.7220 C   0  0  0  0  0  0  0  0  0  0  0  0
   43.4510   32.6030   37.5560 N   0  0  0  0  0  0  0  0  0  0  0  0
   40.6320   32.6480   39.8990 C   0  0  0  0  0  0  0  0  0  0  0  0
   40.9960   33.4990   40.7500 O   0  0  0  0  0  0  0  0  0  0  0  0
   41.4480   32.1880   38.8180 N   0  0  0  0  0  0  0  0  0  0  0  0
   45.3110   33.0710   36.5880 H   0  0  0  0  0  0  0  0  0  0  0  0
   46.2250   34.2750   38.5830 H   0  0  0  0  0  0  0  0  0  0  0  0
   44.8850   34.4670   40.6140 H   0  0  0  0  0  0  0  0  0  0  0  0
   41.0770   31.4830   38.1550 H   0  0  0  0  0  0  0  0  0  0  0  0
   37.3300   29.7930   42.1040 C   0  0  0  0  0  3  0  0  0  0  0  0
   38.2150   28.9590   42.5990 C   0  0  0  0  0  3  0  0  0  0  0  0
   38.0350   27.9440   43.6670 C   0  0  0  0  0  0  0  0  0  0  0  0
   38.8390   27.9700   44.4260 H   0  0  0  0  0  0  0  0  0  0  0  0
   37.0170   28.0510   44.1180 H   0  0  0  0  0  0  0  0  0  0  0  0
   40.7870   26.5950   43.9440 Br  0  0  0  0  0  0  0  0  0  0  0  0
   39.2380   25.9050   43.0510 C   0  0  0  0  0  0  0  0  0  0  0  0
   38.0350   26.6150   42.9940 C   0  0  0  0  0  0  0  0  0  0  0  0
   36.9560   26.0280   42.3200 C   0  0  0  0  0  0  0  0  0  0  0  0
   36.0520   26.6240   42.3100 H   0  0  0  0  0  0  0  0  0  0  0  0
   37.1280   24.7840   41.7460 C   0  0  0  0  0  0  0  0  0  0  0  0
   36.2540   24.3580   41.2260 H   0  0  0  0  0  0  0  0  0  0  0  0
   38.3240   24.1030   41.8140 C   0  0  0  0  0  3  0  0  0  0  0  0
   39.4100   24.6650   42.4790 C   0  0  0  0  0  3  0  0  0  0  0  0
  1  6  1  0  0  0  0
  2  3  1  0  0  0  0
  2  1  2  0  0  0  0
  3  4  2  0  0  0  0
  4  5  1  0  0  0  0
  5 23  1  0  0  0  0
  6  5  2  0  0  0  0
  7  2  1  0  0  0  0
  8  3  1  0  0  0  0
  9  4  1  0  0  0  0
 10 15  2  0  0  0  0
 10 11  1  0  0  0  0
 11 20  1  0  0  0  0
 11 12  2  0  0  0  0
 12 13  1  0  0  0  0
 12 21  1  0  0  0  0
 14 18  1  0  0  0  0
 14 13  2  0  0  0  0
 15 14  1  0  0  0  0
 16  1  1  0  0  0  0
 16 17  2  0  0  0  0
 18 16  1  0  0  0  0
 19 10  1  0  0  0  0
 22 18  1  0  0  0  0
 23 24  2  0  0  0  0
 24 25  1  0  0  0  0
 25 27  1  0  0  0  0
 25 26  1  0  0  0  0
 29 28  1  0  0  0  0
 30 29  1  0  0  0  0
 30 25  1  0  0  0  0
 31 30  2  0  0  0  0
 32 31  1  0  0  0  0
 33 35  2  0  0  0  0
 33 31  1  0  0  0  0
 34 33  1  0  0  0  0
 35 36  1  0  0  0  0
 36 29  2  0  0  0  0
M  END
>  <minimizedAffinity>
-6.24991274

$$$$

 OpenBabel03242510583D

 36 38  0  0  0  0  0  0  0  0999 V2000
   38.1290   30.0470   38.1260 C   0  0  0  0  0  0  0  0  0  0  0  0
   37.0340   30.2740   37.2820 C   0  0  0  0  0  0  0  0  0  0  0  0
   35.8580   29.5590   37.3580 C   0  0  0  0  0  0  0  0  0  0  0  0
   35.7750   28.5760   38.3180 C   0  0  0  0  0  0  0  0  0  0  0  0
   36.8660   28.3470   39.1610 C   0  0  0  0  0  0  0  0  0  0  0  0
   37.9690   29.0790   39.0260 N   0  0  0  0  0  0  0  0  0  0  0  0
   37.1460   31.0590   36.5410 H   0  0  0  0  0  0  0  0  0  0  0  0
   35.0880   29.8120   36.6690 H   0  0  0  0  0  0  0  0  0  0  0  0
   34.8390   28.0360   38.3470 H   0  0  0  0  0  0  0  0  0  0  0  0
   41.7420   34.8140   38.9600 C   0  0  0  0  0  0  0  0  0  0  0  0
   42.7560   34.4360   38.0690 C   0  0  0  0  0  0  0  0  0  0  0  0
   42.5750   33.2720   37.3210 C   0  0  0  0  0  0  0  0  0  0  0  0
   41.4320   32.5480   37.4820 N   0  0  0  0  0  0  0  0  0  0  0  0
   40.4770   32.9510   38.3550 C   0  0  0  0  0  0  0  0  0  0  0  0
   40.6300   34.0890   39.1000 N   0  0  0  0  0  0  0  0  0  0  0  0
   39.3370   30.8470   37.9800 C   0  0  0  0  0  0  0  0  0  0  0  0
   40.3340   30.3350   37.4100 O   0  0  0  0  0  0  0  0  0  0  0  0
   39.3010   32.1790   38.5020 N   0  0  0  0  0  0  0  0  0  0  0  0
   41.9560   35.7300   39.5070 H   0  0  0  0  0  0  0  0  0  0  0  0
   43.6840   34.9410   37.8770 H   0  0  0  0  0  0  0  0  0  0  0  0
   43.3130   32.8950   36.5990 H   0  0  0  0  0  0  0  0  0  0  0  0
   38.4390   32.5310   38.9580 H   0  0  0  0  0  0  0  0  0  0  0  0
   36.7510   27.3220   40.1710 C   0  0  0  0  0  3  0  0  0  0  0  0
   36.9290   27.6070   41.4400 C   0  0  0  0  0  3  0  0  0  0  0  0
   36.8680   26.6960   42.6110 C   0  0  0  0  0  0  0  0  0  0  0  0
   36.3760   27.1560   43.4880 H   0  0  0  0  0  0  0  0  0  0  0  0
   36.3920   25.7300   42.3100 H   0  0  0  0  0  0  0  0  0  0  0  0
   37.6090   23.9180   41.5120 Br  0  0  0  0  0  0  0  0  0  0  0  0
   38.7280   25.1110   42.5130 C   0  0  0  0  0  0  0  0  0  0  0  0
   38.2760   26.3560   42.9580 C   0  0  0  0  0  0  0  0  0  0  0  0
   39.1680   27.1600   43.6800 C   0  0  0  0  0  0  0  0  0  0  0  0
   38.7610   28.1120   43.9970 H   0  0  0  0  0  0  0  0  0  0  0  0
   40.4440   26.6880   43.9200 C   0  0  0  0  0  0  0  0  0  0  0  0
   41.1130   27.3520   44.4910 H   0  0  0  0  0  0  0  0  0  0  0  0
   40.8670   25.4550   43.4710 C   0  0  0  0  0  3  0  0  0  0  0  0
   39.9990   24.6400   42.7510 C   0  0  0  0  0  3  0  0  0  0  0  0
  1  6  1  0  0  0  0
  2  3  1  0  0  0  0
  2  1  2  0  0  0  0
  3  4  2  0  0  0  0
  4  9  1  0  0  0  0
  4  5  1  0  0  0  0
  5 23  1  0  0  0  0
  6  5  2  0  0  0  0
  7  2  1  0  0  0  0
  8  3  1  0  0  0  0
 10 15  1  0  0  0  0
 10 19  1  0  0  0  0
 11 10  2  0  0  0  0
 12 13  2  0  0  0  0
 12 11  1  0  0  0  0
 13 14  1  0  0  0  0
 14 18  1  0  0  0  0
 14 15  2  0  0  0  0
 16  1  1  0  0  0  0
 16 18  1  0  0  0  0
 17 16  2  0  0  0  0
 18 22  1  0  0  0  0
 20 11  1  0  0  0  0
 21 12  1  0  0  0  0
 23 24  2  0  0  0  0
 24 25  1  0  0  0  0
 25 30  1  0  0  0  0
 25 26  1  0  0  0  0
 27 25  1  0  0  0  0
 28 29  1  0  0  0  0
 29 36  2  0  0  0  0
 29 30  1  0  0  0  0
 30 31  2  0  0  0  0
 31 33  1  0  0  0  0
 31 32  1  0  0  0  0
 33 34  1  0  0  0  0
 35 33  2  0  0  0  0
 36 35  1  0  0  0  0
M  END
>  <minimizedAffinity>
-6.17726994

$$$$
