
 OpenBabel03242515103D

 36 38  0  0  0  0  0  0  0  0999 V2000
   45.7030   34.1200   45.1960 C   0  0  0  0  0  0  0  0  0  0  0  0
   44.7690   35.1050   45.3840 C   0  0  0  0  0  0  0  0  0  0  0  0
   44.4510   36.0710   44.4600 C   0  0  0  0  0  0  0  0  0  0  0  0
   45.1150   36.0540   43.2570 C   0  0  0  0  0  0  0  0  0  0  0  0
   46.0610   35.0830   43.0230 C   0  0  0  0  0  0  0  0  0  0  0  0
   46.3460   34.1280   43.9920 C   0  0  0  0  0  0  0  0  0  0  0  0
   44.2290   35.1460   46.3220 H   0  0  0  0  0  0  0  0  0  0  0  0
   43.7140   36.8480   44.6090 H   0  0  0  0  0  0  0  0  0  0  0  0
   44.8890   36.8050   42.4980 H   0  0  0  0  0  0  0  0  0  0  0  0
   46.5510   35.1200   42.0590 H   0  0  0  0  0  0  0  0  0  0  0  0
   47.3510   31.3480   46.9230 C   0  0  0  0  0  0  0  0  0  0  0  0
   46.6140   31.2150   48.0990 C   0  0  0  0  0  0  0  0  0  0  0  0
   45.5390   32.0870   48.3050 C   0  0  0  0  0  0  0  0  0  0  0  0
   45.2400   33.0310   47.3650 N   0  0  0  0  0  0  0  0  0  0  0  0
   45.9860   33.1320   46.2200 C   0  0  0  0  0  0  0  0  0  0  0  0
   47.0170   32.2870   46.0360 N   0  0  0  0  0  0  0  0  0  0  0  0
   48.1930   30.7000   46.7140 H   0  0  0  0  0  0  0  0  0  0  0  0
   46.8700   30.4570   48.8350 H   0  0  0  0  0  0  0  0  0  0  0  0
   44.9370   32.0210   49.2060 H   0  0  0  0  0  0  0  0  0  0  0  0
   47.3350   33.2030   43.6090 N   0  0  0  0  0  0  0  0  0  0  0  0
   47.0920   32.2290   43.9230 H   0  0  0  0  0  0  0  0  0  0  0  0
   48.8060   33.3490   42.7580 S   0  0  0  0  0  0  0  0  0  0  0  0
   48.4940   33.5610   41.2850 O   0  0  0  0  0  0  0  0  0  0  0  0
   49.0820   33.9450   40.6070 H   0  0  0  0  0  0  0  0  0  0  0  0
   49.6680   34.4810   43.2120 O   0  0  0  0  0  0  0  0  0  0  0  0
   49.4420   34.9180   44.0950 H   0  0  0  0  0  0  0  0  0  0  0  0
   49.6000   31.8660   42.8550 O   0  0  0  0  0  0  0  0  0  0  0  0
   51.8180   31.6270   40.6760 Br  0  0  0  0  0  0  0  0  0  0  0  0
   50.2440   30.5740   40.8120 C   0  0  0  0  0  0  0  0  0  0  0  0
   49.4350   30.8990   41.8810 C   0  0  0  0  0  0  0  0  0  0  0  0
   48.2480   30.1990   42.0940 C   0  0  0  0  0  0  0  0  0  0  0  0
   47.5280   30.3460   42.8830 H   0  0  0  0  0  0  0  0  0  0  0  0
   47.8590   29.1650   41.2350 C   0  0  0  0  0  0  0  0  0  0  0  0
   46.9610   28.5860   41.3390 H   0  0  0  0  0  0  0  0  0  0  0  0
   48.6890   28.8560   40.1650 C   0  0  0  0  0  3  0  0  0  0  0  0
   49.8610   29.5550   39.9650 C   0  0  0  0  0  3  0  0  0  0  0  0
  1  2  1  0  0  0  0
  1 15  1  0  0  0  0
  2  7  1  0  0  0  0
  3  8  1  0  0  0  0
  3  2  2  0  0  0  0
  4  3  1  0  0  0  0
  5  4  2  0  0  0  0
  5  6  1  0  0  0  0
  6  1  2  0  0  0  0
  9  4  1  0  0  0  0
 10  5  1  0  0  0  0
 11 12  1  0  0  0  0
 12 13  2  0  0  0  0
 12 18  1  0  0  0  0
 13 19  1  0  0  0  0
 14 13  1  0  0  0  0
 15 14  2  0  0  0  0
 16 15  1  0  0  0  0
 16 11  2  0  0  0  0
 17 11  1  0  0  0  0
 20 21  1  0  0  0  0
 20  6  1  0  0  0  0
 22 27  1  0  0  0  0
 22 25  1  0  0  0  0
 22 20  1  0  0  0  0
 23 22  1  0  0  0  0
 24 23  1  0  0  0  0
 25 26  1  0  0  0  0
 28 29  1  0  0  0  0
 29 30  1  0  0  0  0
 30 31  2  0  0  0  0
 30 27  1  0  0  0  0
 31 32  1  0  0  0  0
 33 34  1  0  0  0  0
 33 31  1  0  0  0  0
 35 33  2  0  0  0  0
 36 35  1  0  0  0  0
 36 29  2  0  0  0  0
M  END
>  <minimizedAffinity>
-5.37314272

>  <minimizedRMSD>
1.26299942

$$$$
