
 OpenBabel03242519243D

 40 43  0  0  0  0  0  0  0  0999 V2000
   47.8750   33.8770   42.8870 C   0  0  0  0  0  0  0  0  0  0  0  0
   48.5250   35.1110   42.6300 C   0  0  0  0  0  0  0  0  0  0  0  0
   49.8870   35.1330   42.2960 C   0  0  0  0  0  0  0  0  0  0  0  0
   50.5140   33.9140   42.2420 N   0  0  0  0  0  0  0  0  0  0  0  0
   49.8590   32.7390   42.4960 C   0  0  0  0  0  0  0  0  0  0  0  0
   48.5710   32.7430   42.8100 N   0  0  0  0  0  0  0  0  0  0  0  0
   48.1040   36.1050   42.6530 H   0  0  0  0  0  0  0  0  0  0  0  0
   50.4370   36.0160   42.0910 H   0  0  0  0  0  0  0  0  0  0  0  0
   46.4510   33.9830   43.2320 C   0  0  0  0  0  0  0  0  0  0  0  0
   45.7250   34.9940   42.4660 C   0  0  0  0  0  0  0  0  0  0  0  0
   45.2660   36.1590   43.2650 C   0  0  0  0  0  0  0  0  0  0  0  0
   44.4920   35.7660   44.5190 C   0  0  0  0  0  0  0  0  0  0  0  0
   44.9630   34.5020   45.1660 C   0  0  0  0  0  0  0  0  0  0  0  0
   46.3890   34.1960   44.7550 C   0  0  0  0  0  0  0  0  0  0  0  0
   45.9850   32.9620   43.0940 H   0  0  0  0  0  0  0  0  0  0  0  0
   46.3790   35.3840   41.6660 H   0  0  0  0  0  0  0  0  0  0  0  0
   44.8530   34.5440   41.9290 H   0  0  0  0  0  0  0  0  0  0  0  0
   44.4840   36.6720   42.6290 H   0  0  0  0  0  0  0  0  0  0  0  0
   45.9970   36.9370   43.4800 H   0  0  0  0  0  0  0  0  0  0  0  0
   44.6580   36.5810   45.2690 H   0  0  0  0  0  0  0  0  0  0  0  0
   43.4030   35.7100   44.3580 H   0  0  0  0  0  0  0  0  0  0  0  0
   44.3350   33.6740   44.7730 H   0  0  0  0  0  0  0  0  0  0  0  0
   44.8950   34.5030   46.2550 H   0  0  0  0  0  0  0  0  0  0  0  0
   46.6960   33.2330   45.2160 H   0  0  0  0  0  0  0  0  0  0  0  0
   47.0980   34.9680   45.0920 H   0  0  0  0  0  0  0  0  0  0  0  0
   50.6760   31.5400   42.3990 C   0  0  0  0  0  0  0  0  0  0  0  0
   51.5550   31.4680   41.3600 N   0  0  0  0  0  0  0  0  0  0  0  0
   52.2200   30.2910   41.4380 C   0  0  0  0  0  0  0  0  0  0  0  0
   51.7420   29.6300   42.5440 N   0  0  0  0  0  0  0  0  0  0  0  0
   50.8100   30.3980   43.1110 N   0  0  0  0  0  0  0  0  0  0  0  0
   52.9890   29.8840   40.7950 H   0  0  0  0  0  0  0  0  0  0  0  0
   53.8430   29.6910   44.8660 Br  0  0  0  0  0  0  0  0  0  0  0  0
   52.9980   28.1600   44.1060 C   0  0  0  0  0  0  0  0  0  0  0  0
   52.0940   28.3610   43.0820 C   0  0  0  0  0  0  0  0  0  0  0  0
   51.4900   27.2190   42.5450 C   0  0  0  0  0  0  0  0  0  0  0  0
   50.7640   27.2670   41.7340 H   0  0  0  0  0  0  0  0  0  0  0  0
   51.8280   25.9700   43.0620 C   0  0  0  0  0  0  0  0  0  0  0  0
   51.3640   25.0730   42.6530 H   0  0  0  0  0  0  0  0  0  0  0  0
   52.7210   25.7970   44.0720 C   0  0  0  0  0  0  0  0  0  0  0  0
   53.3140   26.9170   44.5990 C   0  0  0  0  0  0  0  0  0  0  0  0
  1  9  1  0  0  0  0
  2  7  1  0  0  0  0
  2  1  2  0  0  0  0
  3  2  1  0  0  0  0
  4  3  2  0  0  0  0
  4  5  1  0  0  0  0
  5  6  2  0  0  0  0
  6  1  1  0  0  0  0
  8  3  1  0  0  0  0
  9 14  1  0  0  0  0
 10  9  1  0  0  0  0
 10 11  1  0  0  0  0
 11 19  1  0  0  0  0
 11 12  1  0  0  0  0
 12 13  1  0  0  0  0
 12 20  1  0  0  0  0
 13 23  1  0  0  0  0
 14 25  1  0  0  0  0
 14 13  1  0  0  0  0
 14 24  1  0  0  0  0
 15  9  1  0  0  0  0
 16 10  1  0  0  0  0
 17 10  1  0  0  0  0
 18 11  1  0  0  0  0
 21 12  1  0  0  0  0
 22 13  1  0  0  0  0
 26  5  1  0  0  0  0
 26 30  2  0  0  0  0
 27 28  2  0  0  0  0
 27 26  1  0  0  0  0
 28 29  1  0  0  0  0
 29 34  1  0  0  0  0
 29 30  1  0  0  0  0
 31 28  1  0  0  0  0
 33 40  1  0  0  0  0
 33 32  1  0  0  0  0
 34 33  2  0  0  0  0
 35 37  2  0  0  0  0
 35 34  1  0  0  0  0
 36 35  1  0  0  0  0
 37 39  1  0  0  0  0
 38 37  1  0  0  0  0
 39 40  2  0  0  0  0
M  END
>  <minimizedAffinity>
-4.35902977

>  <minimizedRMSD>
1.11944437

$$$$
