
     RDKit          3D

 36 38  0  0  0  0  0  0  0  0999 V2000
   46.3077   32.9927   46.4166 C   0  0  0  0  0  0  0  0  0  0  0  0
   44.5338   35.7750   44.6164 C   0  0  0  0  0  0  0  0  0  0  0  0
   45.2001   35.7202   43.3669 C   0  0  0  0  0  0  0  0  0  0  0  0
   46.1947   34.7530   43.2234 C   0  0  0  0  0  0  0  0  0  0  0  0
   46.4471   33.9448   44.2815 N   0  0  0  0  0  0  0  0  0  0  0  0
   45.7944   34.0243   45.4552 C   0  0  0  0  0  0  0  0  0  0  0  0
   44.8327   34.9480   45.6163 N   0  0  0  0  0  0  0  0  0  0  0  0
   46.8696   34.7093   41.9348 C   0  0  0  0  0  0  0  0  0  0  0  0
   47.6655   33.5642   41.8670 F   0  0  0  0  0  0  0  0  0  0  0  0
   47.7672   35.7680   41.9204 F   0  0  0  0  0  0  0  0  0  0  0  0
   46.0081   34.7217   40.8715 F   0  0  0  0  0  0  0  0  0  0  0  0
   45.3471   32.7753   47.5514 C   0  0  0  0  0  0  0  0  0  0  0  0
   45.2792   31.3439   47.9188 C   0  0  0  0  0  0  0  0  0  0  0  0
   45.3084   30.2268   47.1291 C   0  0  0  0  0  0  0  0  0  0  0  0
   45.2153   29.1390   47.9511 C   0  0  0  0  0  0  0  0  0  0  0  0
   45.1310   29.5754   49.2140 N   0  0  0  0  0  0  0  0  0  0  0  0
   45.1718   30.9193   49.1699 N   0  0  0  0  0  0  0  0  0  0  0  0
   47.3108   33.3187   46.7202 H   0  0  0  0  0  0  0  0  0  0  0  0
   46.4244   32.0050   45.9080 H   0  0  0  0  0  0  0  0  0  0  0  0
   43.7651   36.4863   44.7979 H   0  0  0  0  0  0  0  0  0  0  0  0
   44.8653   36.4385   42.6516 H   0  0  0  0  0  0  0  0  0  0  0  0
   45.7627   33.3821   48.3983 H   0  0  0  0  0  0  0  0  0  0  0  0
   44.3331   33.1922   47.3336 H   0  0  0  0  0  0  0  0  0  0  0  0
   45.3892   30.2148   46.0662 H   0  0  0  0  0  0  0  0  0  0  0  0
   45.2033   28.0808   47.7217 H   0  0  0  0  0  0  0  0  0  0  0  0
   43.0838   27.3851   48.9001 Br  0  0  0  0  0  0  0  0  0  0  0  0
   44.0932   27.8874   50.4512 C   0  0  0  0  0  0  0  0  0  0  0  0
   45.0168   28.9251   50.4730 C   0  0  0  0  0  0  0  0  0  0  0  0
   45.7004   29.2183   51.6365 C   0  0  0  0  0  0  0  0  0  0  0  0
   46.4026   30.0480   51.5549 H   0  0  0  0  0  0  0  0  0  0  0  0
   45.4586   28.4717   52.7791 C   0  0  0  0  0  0  0  0  0  0  0  0
   46.0240   28.7485   53.6582 H   0  0  0  0  0  0  0  0  0  0  0  0
   44.5363   27.4407   52.7440 C   0  0  0  0  0  0  0  0  0  0  0  0
   43.8445   27.1364   51.5847 C   0  0  0  0  0  0  0  0  0  0  0  0
   44.3902   26.8927   53.6683 H   0  0  0  0  0  0  0  0  0  0  0  0
   43.1340   26.3242   51.6018 H   0  0  0  0  0  0  0  0  0  0  0  0
  1 12  1  0
  2  7  2  0
  3  2  1  0
  4  3  2  0
  4  5  1  0
  5  6  2  0
  6  7  1  0
  6  1  1  0
  8  4  1  0
  9  8  1  0
 10  8  1  0
 11  8  1  0
 12 13  1  0
 13 17  2  0
 14 13  1  0
 14 15  2  0
 15 16  1  0
 17 16  1  0
  1 18  1  0
  1 19  1  0
  2 20  1  0
  3 21  1  0
 12 22  1  0
 12 23  1  0
 14 24  1  0
 15 25  1  0
 26 27  1  0
 27 28  2  0
 28 29  1  0
 29 30  1  0
 29 31  2  0
 31 32  1  0
 31 33  1  0
 33 34  2  0
 34 27  1  0
 33 35  1  0
 34 36  1  0
 16 28  1  0
M  ISO  8  18   8  19   8  20  14  21  14  22   8  23   8  24  14  25  14
M  ISO  2  30  15  32  16
M  END
>  <DihAtoms>  (1) 
14,15,27,26

>  <DihDeg>  (1) 
-89.07369216211843

$$$$
