
     RDKit          3D

 31 32  0  0  0  0  0  0  0  0999 V2000
   44.4565   35.9328   44.6994 C   0  0  0  0  0  0  0  0  0  0  0  0
   45.1800   35.9949   43.5052 C   0  0  0  0  0  0  0  0  0  0  0  0
   46.1734   35.0442   43.2636 C   0  0  0  0  0  0  0  0  0  0  0  0
   46.3900   34.0941   44.2133 N   0  0  0  0  0  0  0  0  0  0  0  0
   45.6751   34.0639   45.3515 C   0  0  0  0  0  0  0  0  0  0  0  0
   44.7194   34.9727   45.5916 N   0  0  0  0  0  0  0  0  0  0  0  0
   45.9630   33.0068   46.3422 C   0  0  0  0  0  0  0  0  0  0  0  0
   45.2820   32.9230   47.4394 C   0  0  0  0  0  0  0  0  0  0  0  0
   45.4911   31.9106   48.5021 C   0  0  0  0  0  0  0  0  0  0  0  0
   46.9699   34.9705   42.1400 O   0  0  0  0  0  0  0  0  0  0  0  0
   46.4760   34.2085   41.0427 C   0  0  0  0  0  0  0  0  0  0  0  0
   45.1852   34.6483   40.7433 F   0  0  0  0  0  0  0  0  0  0  0  0
   47.3160   34.4821   39.9503 F   0  0  0  0  0  0  0  0  0  0  0  0
   46.4983   32.8544   41.3123 F   0  0  0  0  0  0  0  0  0  0  0  0
   43.7011   36.6662   44.8680 H   0  0  0  0  0  0  0  0  0  0  0  0
   45.0409   36.7174   42.7422 H   0  0  0  0  0  0  0  0  0  0  0  0
   46.7482   32.2928   46.1572 H   0  0  0  0  0  0  0  0  0  0  0  0
   44.4803   33.6136   47.6798 H   0  0  0  0  0  0  0  0  0  0  0  0
   44.5498   31.3689   48.7112 H   0  0  0  0  0  0  0  0  0  0  0  0
   45.7718   32.4771   49.4263 H   0  0  0  0  0  0  0  0  0  0  0  0
   45.0628   31.0345   45.6324 Br  0  0  0  0  0  0  0  0  0  0  0  0
   46.4509   30.5237   46.8540 C   0  0  0  0  0  0  0  0  0  0  0  0
   46.5838   30.9662   48.1598 C   0  0  0  0  0  0  0  0  0  0  0  0
   47.6324   30.5200   48.9350 C   0  0  0  0  0  0  0  0  0  0  0  0
   47.6194   30.9457   49.9398 H   0  0  0  0  0  0  0  0  0  0  0  0
   48.5435   29.6299   48.3941 C   0  0  0  0  0  0  0  0  0  0  0  0
   49.3337   29.3264   49.0581 H   0  0  0  0  0  0  0  0  0  0  0  0
   48.4091   29.1915   47.0957 C   0  0  0  0  0  0  0  0  0  0  0  0
   47.3564   29.6271   46.2873 C   0  0  0  0  0  0  0  0  0  0  0  0
   49.1317   28.4999   46.7025 H   0  0  0  0  0  0  0  0  0  0  0  0
   47.3135   29.2429   45.2805 H   0  0  0  0  0  0  0  0  0  0  0  0
  1  6  2  0
  2  1  1  0
  3  2  2  0
  3  4  1  0
  4  5  2  0
  5  6  1  0
  5  7  1  0
  7  8  2  0
  8  9  1  0
 10  3  1  0
 11 14  1  0
 11 10  1  0
 12 11  1  0
 13 11  1  0
  1 15  1  0
  2 16  1  0
  7 17  1  0
  8 18  1  0
  9 19  1  0
  9 20  1  0
 21 22  1  0
 22 23  2  0
 23 24  1  0
 24 25  1  0
 24 26  2  0
 26 27  1  0
 26 28  1  0
 28 29  2  0
 29 22  1  0
 28 30  1  0
 29 31  1  0
  9 23  1  0
M  ISO  6  15  14  16  14  19   8  20   8  25  15  27  16
M  END
>  <DihAtoms>  (1) 
7,8,22,21

>  <DihDeg>  (1) 
-76.18585537644789

$$$$
