
     RDKit          3D

 23 24  0  0  0  0  0  0  0  0999 V2000
   44.4936   36.0184   44.5032 C   0  0  0  0  0  0  0  0  0  0  0  0
   45.1400   35.9964   43.2637 C   0  0  0  0  0  0  0  0  0  0  0  0
   46.0639   34.9836   43.0360 C   0  0  0  0  0  0  0  0  0  0  0  0
   46.3048   34.0644   44.0074 N   0  0  0  0  0  0  0  0  0  0  0  0
   45.6519   34.1156   45.2137 C   0  0  0  0  0  0  0  0  0  0  0  0
   44.7601   35.0985   45.4257 N   0  0  0  0  0  0  0  0  0  0  0  0
   45.9988   33.0520   46.2033 C   0  0  0  0  0  0  0  0  0  0  0  0
   43.7521   36.7783   44.7683 H   0  0  0  0  0  0  0  0  0  0  0  0
   44.8917   36.7645   42.5431 H   0  0  0  0  0  0  0  0  0  0  0  0
   46.5740   34.9465   42.0896 H   0  0  0  0  0  0  0  0  0  0  0  0
   45.9004   33.5383   47.2186 H   0  0  0  0  0  0  0  0  0  0  0  0
   47.0623   32.7835   46.1222 H   0  0  0  0  0  0  0  0  0  0  0  0
   43.7708   33.1092   43.9636 Br  0  0  0  0  0  0  0  0  0  0  0  0
   44.1479   31.6496   45.1639 C   0  0  0  0  0  0  0  0  0  0  0  0
   45.1711   31.8517   46.0644 C   0  0  0  0  0  0  0  0  0  0  0  0
   45.4076   30.7654   46.9137 C   0  0  0  0  0  0  0  0  0  0  0  0
   46.2160   30.8747   47.6522 H   0  0  0  0  0  0  0  0  0  0  0  0
   44.6916   29.5878   46.8699 C   0  0  0  0  0  0  0  0  0  0  0  0
   44.9659   28.8167   47.5771 H   0  0  0  0  0  0  0  0  0  0  0  0
   43.6864   29.4649   45.9424 C   0  0  0  0  0  0  0  0  0  0  0  0
   43.3946   30.4997   45.0676 C   0  0  0  0  0  0  0  0  0  0  0  0
   43.1431   28.5236   45.9353 H   0  0  0  0  0  0  0  0  0  0  0  0
   42.6074   30.3799   44.3531 H   0  0  0  0  0  0  0  0  0  0  0  0
  1  6  2  0
  2  1  1  0
  3  2  2  0
  3  4  1  0
  4  5  2  0
  5  6  1  0
  5  7  1  0
  1  8  1  0
  2  9  1  0
  3 10  1  0
  7 11  1  0
  7 12  1  0
 13 14  1  0
 14 15  2  0
 15 16  1  0
 16 17  1  0
 16 18  2  0
 18 19  1  0
 18 20  1  0
 20 21  2  0
 21 14  1  0
 20 22  1  0
 21 23  1  0
  7 15  1  0
M  ISO  7   8  14   9  14  10  14  11   8  12   8  17  15  19  16
M  END
>  <DihAtoms>  (1) 
4,6,14,13

>  <DihDeg>  (1) 
-76.11110296307274

$$$$
