
 OpenBabel03252503433D

 34 36  0  0  1  0  0  0  0  0999 V2000
   45.7850   32.2080   43.7880 C   0  0  0  0  0  0  0  0  0  0  0  0
   45.2540   31.1810   42.9880 C   0  0  0  0  0  0  0  0  0  0  0  0
   44.9090   30.0000   43.6080 C   0  0  0  0  0  0  0  0  0  0  0  0
   45.0950   29.8890   44.9340 N   0  0  0  0  0  0  0  0  0  0  0  0
   45.6020   30.8700   45.6850 C   0  0  0  0  0  0  0  0  0  0  0  0
   45.9650   32.0690   45.1350 N   0  0  0  0  0  0  0  0  0  0  0  0
   46.0890   33.1760   43.4090 H   0  0  0  0  0  0  0  0  0  0  0  0
   44.4980   29.2410   42.9660 H   0  0  0  0  0  0  0  0  0  0  0  0
   47.1980   30.6870   47.6010 C   0  0  2  0  0  0  0  0  0  0  0  0
   45.7320   30.6080   47.1180 C   0  0  1  0  0  0  0  0  0  0  0  0
   45.1650   31.5500   47.9350 O   0  0  0  0  0  0  0  0  0  0  0  0
   45.6390   31.3530   49.1960 C   0  0  0  0  0  0  0  0  0  0  0  0
   46.9110   30.5300   49.1050 C   0  0  2  0  0  0  0  0  0  0  0  0
   47.7960   29.8700   47.2060 H   0  0  0  0  0  0  0  0  0  0  0  0
   45.3250   29.6070   47.3790 H   0  0  0  0  0  0  0  0  0  0  0  0
   44.8690   30.7930   49.7680 H   0  0  0  0  0  0  0  0  0  0  0  0
   45.8590   32.2760   49.7580 H   0  0  0  0  0  0  0  0  0  0  0  0
   46.7280   29.4580   49.2760 H   0  0  0  0  0  0  0  0  0  0  0  0
   47.6590   31.9510   47.4270 O   0  0  0  0  0  0  0  0  0  0  0  0
   48.6420   31.9590   47.3100 H   0  0  0  0  0  0  0  0  0  0  0  0
   47.9430   30.9720   49.8880 O   0  0  0  0  0  0  0  0  0  0  0  0
   48.2990   30.2480   50.4520 H   0  0  0  0  0  0  0  0  0  0  0  0
   45.1390   31.5630   41.5640 C   0  0  0  0  0  0  0  0  0  0  0  0
   44.6710   30.7210   41.0190 H   0  0  0  0  0  0  0  0  0  0  0  0
   46.1620   31.7600   41.1180 H   0  0  0  0  0  0  0  0  0  0  0  0
   46.6330   34.3520   40.9270 Br  0  0  0  0  0  0  0  0  0  0  0  0
   44.7620   34.0680   41.1060 C   0  0  0  0  0  0  0  0  0  0  0  0
   44.3660   32.7760   41.3690 C   0  0  0  0  0  0  0  0  0  0  0  0
   42.9700   32.6840   41.4660 C   0  0  0  0  0  0  0  0  0  0  0  0
   42.5300   31.6960   41.6740 H   0  0  0  0  0  0  0  0  0  0  0  0
   42.0530   33.6880   41.3330 C   0  0  0  0  0  0  0  0  0  0  0  0
   40.9930   33.5080   41.4280 H   0  0  0  0  0  0  0  0  0  0  0  0
   42.5450   34.9490   41.0700 C   0  0  0  0  0  3  0  0  0  0  0  0
   43.9000   35.1300   40.9580 C   0  0  0  0  0  3  0  0  0  0  0  0
  1  6  1  0  0  0  0
  2  3  1  0  0  0  0
  2  1  2  0  0  0  0
  3  4  2  0  0  0  0
  4  5  1  0  0  0  0
  5 10  1  0  0  0  0
  6  5  2  0  0  0  0
  7  1  1  0  0  0  0
  8  3  1  0  0  0  0
  9 14  1  6  0  0  0
  9 13  1  0  0  0  0
 10 15  1  1  0  0  0
 10  9  1  0  0  0  0
 10 11  1  0  0  0  0
 11 12  1  0  0  0  0
 12 17  1  0  0  0  0
 12 16  1  0  0  0  0
 13 12  1  0  0  0  0
 13 18  1  1  0  0  0
 13 21  1  0  0  0  0
 19  9  1  0  0  0  0
 20 19  1  0  0  0  0
 21 22  1  0  0  0  0
 23  2  1  0  0  0  0
 24 23  1  0  0  0  0
 25 23  1  0  0  0  0
 26 27  1  0  0  0  0
 27 28  1  0  0  0  0
 28 29  2  0  0  0  0
 28 23  1  0  0  0  0
 29 30  1  0  0  0  0
 31 32  1  0  0  0  0
 31 29  1  0  0  0  0
 33 31  2  0  0  0  0
 34 33  1  0  0  0  0
 34 27  2  0  0  0  0
M  END
>  <minimizedAffinity>
-4.35058737

>  <minimizedRMSD>
4.20188141

$$$$
