
 OpenBabel03252503153D

 36 39  0  0  0  0  0  0  0  0999 V2000
   45.5500   34.4700   41.3730 C   0  0  0  0  0  0  0  0  0  0  0  0
   46.7560   34.6580   40.9980 O   0  0  0  0  0  0  0  0  0  0  0  0
   44.4490   34.0430   40.4510 C   0  0  0  0  0  0  0  0  0  0  0  0
   43.1030   34.2690   40.6480 C   0  0  0  0  0  0  0  0  0  0  0  0
   42.4950   33.7180   39.5790 N   0  0  0  0  0  0  0  0  0  0  0  0
   43.4290   33.1810   38.7700 C   0  0  0  0  0  0  0  0  0  0  0  0
   44.6430   33.3790   39.3040 N   0  0  0  0  0  0  0  0  0  0  0  0
   43.2990   32.4880   37.5230 N   0  0  0  0  0  0  0  0  0  0  0  0
   42.6210   34.7690   41.4580 H   0  0  0  0  0  0  0  0  0  0  0  0
   43.8340   31.5990   37.3810 H   0  0  0  0  0  0  0  0  0  0  0  0
   42.6500   32.9470   36.8240 H   0  0  0  0  0  0  0  0  0  0  0  0
   41.4730   35.9980   37.7300 Br  0  0  0  0  0  0  0  0  0  0  0  0
   40.4390   34.5770   38.4580 C   0  0  0  0  0  0  0  0  0  0  0  0
   41.1030   33.6600   39.2650 C   0  0  0  0  0  0  0  0  0  0  0  0
   40.4110   32.6040   39.8250 C   0  0  0  0  0  0  0  0  0  0  0  0
   40.8710   31.8580   40.4610 H   0  0  0  0  0  0  0  0  0  0  0  0
   39.0610   32.4770   39.5700 C   0  0  0  0  0  0  0  0  0  0  0  0
   38.4520   31.6720   39.9760 H   0  0  0  0  0  0  0  0  0  0  0  0
   38.3600   33.3740   38.7680 C   0  0  0  0  0  3  0  0  0  0  0  0
   39.0850   34.4330   38.2130 C   0  0  0  0  0  3  0  0  0  0  0  0
   44.8780   35.9580   43.1960 C   0  0  0  0  0  0  0  0  0  0  0  0
   45.2960   34.6910   42.7490 C   0  0  0  0  0  0  0  0  0  0  0  0
   45.4220   33.7420   43.7350 C   0  0  0  0  0  0  0  0  0  0  0  0
   45.1650   34.0100   45.0310 N   0  0  0  0  0  0  0  0  0  0  0  0
   44.7660   35.2490   45.4090 C   0  0  0  0  0  0  0  0  0  0  0  0
   44.6250   36.2130   44.4890 N   0  0  0  0  0  0  0  0  0  0  0  0
   44.7440   36.7830   42.5060 H   0  0  0  0  0  0  0  0  0  0  0  0
   44.5750   35.4050   46.4600 H   0  0  0  0  0  0  0  0  0  0  0  0
   45.8400   32.4360   43.3780 C   0  0  0  0  0  0  0  0  0  0  0  0
   47.0390   31.8030   43.2710 C   0  0  0  0  0  0  0  0  0  0  0  0
   47.1270   30.5420   42.9050 C   0  0  0  0  0  0  0  0  0  0  0  0
   45.9780   29.8870   42.6330 C   0  0  0  0  0  0  0  0  0  0  0  0
   44.6960   31.1510   42.9200 S   0  0  0  0  0  0  0  0  0  0  0  0
   47.9120   32.4400   43.5180 H   0  0  0  0  0  0  0  0  0  0  0  0
   48.0390   29.9690   42.7960 H   0  0  0  0  0  0  0  0  0  0  0  0
   45.7590   28.8500   42.3110 H   0  0  0  0  0  0  0  0  0  0  0  0
  1 22  1  0  0  0  0
  2  1  2  0  0  0  0
  3  4  2  0  0  0  0
  3  1  1  0  0  0  0
  4  9  1  0  0  0  0
  5  4  1  0  0  0  0
  6  7  2  0  0  0  0
  6  5  1  0  0  0  0
  7  3  1  0  0  0  0
  8  6  1  0  0  0  0
 10  8  1  0  0  0  0
 11  8  1  0  0  0  0
 12 13  1  0  0  0  0
 13 14  1  0  0  0  0
 14  5  1  0  0  0  0
 14 15  2  0  0  0  0
 15 16  1  0  0  0  0
 17 15  1  0  0  0  0
 17 18  1  0  0  0  0
 19 17  2  0  0  0  0
 20 13  2  0  0  0  0
 20 19  1  0  0  0  0
 21 26  1  0  0  0  0
 22 21  2  0  0  0  0
 22 23  1  0  0  0  0
 23 24  2  0  0  0  0
 24 25  1  0  0  0  0
 25 28  1  0  0  0  0
 26 25  2  0  0  0  0
 27 21  1  0  0  0  0
 29 23  1  0  0  0  0
 30 29  2  0  0  0  0
 30 34  1  0  0  0  0
 31 30  1  0  0  0  0
 32 31  2  0  0  0  0
 32 33  1  0  0  0  0
 33 29  1  0  0  0  0
 35 31  1  0  0  0  0
 36 32  1  0  0  0  0
M  END
>  <minimizedAffinity>
-6.14999723

>  <minimizedRMSD>
1.69240665

$$$$
