
 OpenBabel03242515143D

 34 36  0  0  0  0  0  0  0  0999 V2000
   45.3630   33.4770   44.2680 C   0  0  0  0  0  0  0  0  0  0  0  0
   45.3730   32.3660   44.4180 H   0  0  0  0  0  0  0  0  0  0  0  0
   44.3400   33.7350   43.8970 H   0  0  0  0  0  0  0  0  0  0  0  0
   46.4090   33.8820   43.3030 C   0  0  0  0  0  0  0  0  0  0  0  0
   46.6190   35.0830   42.6810 C   0  0  0  0  0  0  0  0  0  0  0  0
   47.7190   34.9460   41.8820 C   0  0  0  0  0  0  0  0  0  0  0  0
   48.1740   33.6930   42.0090 N   0  0  0  0  0  0  0  0  0  0  0  0
   47.3620   33.0650   42.8780 N   0  0  0  0  0  0  0  0  0  0  0  0
   46.0280   35.9620   42.8030 H   0  0  0  0  0  0  0  0  0  0  0  0
   48.2100   35.6560   41.2300 H   0  0  0  0  0  0  0  0  0  0  0  0
   47.2460   32.6400   39.3410 Br  0  0  0  0  0  0  0  0  0  0  0  0
   48.9520   32.4440   40.1950 C   0  0  0  0  0  0  0  0  0  0  0  0
   49.2640   32.9800   41.4380 C   0  0  0  0  0  0  0  0  0  0  0  0
   50.5200   32.7890   41.9790 C   0  0  0  0  0  0  0  0  0  0  0  0
   50.6690   33.2480   42.9560 H   0  0  0  0  0  0  0  0  0  0  0  0
   51.4650   32.0610   41.2740 C   0  0  0  0  0  0  0  0  0  0  0  0
   52.4300   31.9450   41.7480 H   0  0  0  0  0  0  0  0  0  0  0  0
   51.1420   31.5320   40.0370 C   0  0  0  0  0  3  0  0  0  0  0  0
   49.8880   31.7150   39.4830 C   0  0  0  0  0  3  0  0  0  0  0  0
   45.6380   34.0500   45.6290 C   0  0  0  0  0  0  0  0  0  0  0  0
   46.5540   34.6490   45.7000 H   0  0  0  0  0  0  0  0  0  0  0  0
   44.7820   34.7300   45.8630 H   0  0  0  0  0  0  0  0  0  0  0  0
   45.3570   31.7720   48.6070 C   0  0  0  0  0  0  0  0  0  0  0  0
   46.3040   30.7820   48.2450 C   0  0  0  0  0  0  0  0  0  0  0  0
   46.9650   30.9530   47.0290 C   0  0  0  0  0  0  0  0  0  0  0  0
   46.6540   32.0460   46.2900 N   0  0  0  0  0  0  0  0  0  0  0  0
   45.7500   32.9690   46.6640 C   0  0  0  0  0  0  0  0  0  0  0  0
   45.1000   32.8240   47.8310 N   0  0  0  0  0  0  0  0  0  0  0  0
   44.8160   31.7080   49.5190 H   0  0  0  0  0  0  0  0  0  0  0  0
   46.4150   29.9920   48.9550 H   0  0  0  0  0  0  0  0  0  0  0  0
   47.9340   29.9280   46.6720 C   0  0  0  0  0  0  0  0  0  0  0  0
   49.0650   30.0570   47.4790 F   0  0  0  0  0  0  0  0  0  0  0  0
   48.3750   30.2270   45.3900 F   0  0  0  0  0  0  0  0  0  0  0  0
   47.4420   28.6550   46.7860 F   0  0  0  0  0  0  0  0  0  0  0  0
  1  2  1  0  0  0  0
  1 20  1  0  0  0  0
  3  1  1  0  0  0  0
  4  1  1  0  0  0  0
  5  9  1  0  0  0  0
  5  4  1  0  0  0  0
  6  7  1  0  0  0  0
  6  5  2  0  0  0  0
  7  8  1  0  0  0  0
  8  4  2  0  0  0  0
 10  6  1  0  0  0  0
 11 12  1  0  0  0  0
 12 13  1  0  0  0  0
 13 14  2  0  0  0  0
 13  7  1  0  0  0  0
 14 15  1  0  0  0  0
 16 17  1  0  0  0  0
 16 14  1  0  0  0  0
 18 16  2  0  0  0  0
 19 18  1  0  0  0  0
 19 12  2  0  0  0  0
 20 21  1  0  0  0  0
 20 22  1  0  0  0  0
 20 27  1  0  0  0  0
 23 29  1  0  0  0  0
 24 23  1  0  0  0  0
 24 30  1  0  0  0  0
 25 24  2  0  0  0  0
 26 27  2  0  0  0  0
 26 25  1  0  0  0  0
 27 28  1  0  0  0  0
 28 23  2  0  0  0  0
 31 34  1  0  0  0  0
 31 25  1  0  0  0  0
 31 32  1  0  0  0  0
 33 31  1  0  0  0  0
M  END
>  <minimizedAffinity>
-4.99956608

>  <minimizedRMSD>
8.56467915

$$$$
