
 OpenBabel03242510573D

 36 38  0  0  0  0  0  0  0  0999 V2000
   45.6970   31.4320   46.9730 C   0  0  0  0  0  0  0  0  0  0  0  0
   45.7310   31.7940   48.3260 C   0  0  0  0  0  0  0  0  0  0  0  0
   45.5160   30.9020   49.3550 C   0  0  0  0  0  0  0  0  0  0  0  0
   45.2540   29.5940   49.0150 C   0  0  0  0  0  0  0  0  0  0  0  0
   45.2190   29.2300   47.6660 C   0  0  0  0  0  0  0  0  0  0  0  0
   45.4370   30.1480   46.7290 N   0  0  0  0  0  0  0  0  0  0  0  0
   45.9420   32.8360   48.5450 H   0  0  0  0  0  0  0  0  0  0  0  0
   45.5650   31.2820   50.3470 H   0  0  0  0  0  0  0  0  0  0  0  0
   45.0900   28.9250   49.8480 H   0  0  0  0  0  0  0  0  0  0  0  0
   44.7610   36.5620   43.9270 C   0  0  0  0  0  0  0  0  0  0  0  0
   45.6790   36.3340   42.8930 C   0  0  0  0  0  0  0  0  0  0  0  0
   46.3580   35.1150   42.8730 C   0  0  0  0  0  0  0  0  0  0  0  0
   46.1090   34.1970   43.8490 N   0  0  0  0  0  0  0  0  0  0  0  0
   45.2120   34.4600   44.8300 C   0  0  0  0  0  0  0  0  0  0  0  0
   44.5330   35.6480   44.8730 N   0  0  0  0  0  0  0  0  0  0  0  0
   45.9350   32.4360   45.9460 C   0  0  0  0  0  0  0  0  0  0  0  0
   46.9580   32.3270   45.2220 O   0  0  0  0  0  0  0  0  0  0  0  0
   44.9740   33.4890   45.8310 N   0  0  0  0  0  0  0  0  0  0  0  0
   44.2730   37.5340   43.8760 H   0  0  0  0  0  0  0  0  0  0  0  0
   45.9380   36.9930   42.0870 H   0  0  0  0  0  0  0  0  0  0  0  0
   47.0960   34.8450   42.1040 H   0  0  0  0  0  0  0  0  0  0  0  0
   44.1540   33.5100   46.4640 H   0  0  0  0  0  0  0  0  0  0  0  0
   44.9580   27.8490   47.3350 C   0  0  0  0  0  3  0  0  0  0  0  0
   44.3370   27.0610   48.1810 C   0  0  0  0  0  3  0  0  0  0  0  0
   43.9970   25.6250   48.0290 C   0  0  0  0  0  0  0  0  0  0  0  0
   42.9910   25.3770   48.4190 H   0  0  0  0  0  0  0  0  0  0  0  0
   44.1290   25.3190   46.9620 H   0  0  0  0  0  0  0  0  0  0  0  0
   45.5860   23.7730   46.1510 Br  0  0  0  0  0  0  0  0  0  0  0  0
   45.8080   23.9810   48.0440 C   0  0  0  0  0  0  0  0  0  0  0  0
   45.0220   24.8620   48.7930 C   0  0  0  0  0  0  0  0  0  0  0  0
   45.2610   24.9470   50.1710 C   0  0  0  0  0  0  0  0  0  0  0  0
   44.6220   25.6460   50.6970 H   0  0  0  0  0  0  0  0  0  0  0  0
   46.2540   24.1620   50.7240 C   0  0  0  0  0  0  0  0  0  0  0  0
   46.4090   24.2600   51.8110 H   0  0  0  0  0  0  0  0  0  0  0  0
   47.0160   23.3000   49.9650 C   0  0  0  0  0  3  0  0  0  0  0  0
   46.7980   23.1990   48.5930 C   0  0  0  0  0  3  0  0  0  0  0  0
  1  2  1  0  0  0  0
  2  7  1  0  0  0  0
  2  3  2  0  0  0  0
  3  8  1  0  0  0  0
  4  3  1  0  0  0  0
  4  9  1  0  0  0  0
  5  4  2  0  0  0  0
  6  1  2  0  0  0  0
  6  5  1  0  0  0  0
 10 15  1  0  0  0  0
 11 10  2  0  0  0  0
 12 11  1  0  0  0  0
 12 13  2  0  0  0  0
 13 14  1  0  0  0  0
 14 15  2  0  0  0  0
 14 18  1  0  0  0  0
 16  1  1  0  0  0  0
 17 16  2  0  0  0  0
 18 16  1  0  0  0  0
 18 22  1  0  0  0  0
 19 10  1  0  0  0  0
 20 11  1  0  0  0  0
 21 12  1  0  0  0  0
 23  5  1  0  0  0  0
 23 24  2  0  0  0  0
 25 24  1  0  0  0  0
 25 26  1  0  0  0  0
 25 30  1  0  0  0  0
 27 25  1  0  0  0  0
 28 29  1  0  0  0  0
 29 36  2  0  0  0  0
 29 30  1  0  0  0  0
 30 31  2  0  0  0  0
 31 32  1  0  0  0  0
 31 33  1  0  0  0  0
 33 34  1  0  0  0  0
 35 33  2  0  0  0  0
 36 35  1  0  0  0  0
M  END
>  <minimizedAffinity>
-5.58854723

>  <minimizedRMSD>
1.03474808

$$$$
