
 OpenBabel03242521423D

 34 36  0  0  1  0  0  0  0  0999 V2000
   44.7660   35.1780   42.5430 C   0  0  0  0  0  0  0  0  0  0  0  0
   45.9180   34.3910   42.3460 C   0  0  0  0  0  0  0  0  0  0  0  0
   46.5910   33.9030   43.4670 C   0  0  0  0  0  0  0  0  0  0  0  0
   46.1050   34.2070   44.6810 N   0  0  0  0  0  0  0  0  0  0  0  0
   44.9910   34.9670   44.8440 C   0  0  0  0  0  0  0  0  0  0  0  0
   44.3320   35.4460   43.7650 N   0  0  0  0  0  0  0  0  0  0  0  0
   46.1990   34.2220   41.3230 H   0  0  0  0  0  0  0  0  0  0  0  0
   44.6400   35.1840   45.8580 H   0  0  0  0  0  0  0  0  0  0  0  0
   48.9060   33.8320   42.5640 C   0  0  2  0  0  0  0  0  0  0  0  0
   47.7740   33.0960   43.2200 C   0  0  2  0  0  0  0  0  0  0  0  0
   47.5820   32.0470   42.3000 O   0  0  0  0  0  0  0  0  0  0  0  0
   48.8490   31.5420   42.1110 C   0  0  0  0  0  0  0  0  0  0  0  0
   49.8560   32.6400   42.3380 C   0  0  1  0  0  0  0  0  0  0  0  0
   48.6360   34.1770   41.5470 H   0  0  0  0  0  0  0  0  0  0  0  0
   48.1700   32.6250   44.1670 H   0  0  0  0  0  0  0  0  0  0  0  0
   48.9350   31.2190   41.0520 H   0  0  0  0  0  0  0  0  0  0  0  0
   49.0650   30.6590   42.7500 H   0  0  0  0  0  0  0  0  0  0  0  0
   50.4400   32.5010   43.2630 H   0  0  0  0  0  0  0  0  0  0  0  0
   49.4460   34.8190   43.3500 O   0  0  0  0  0  0  0  0  0  0  0  0
   49.4920   35.6920   42.8780 H   0  0  0  0  0  0  0  0  0  0  0  0
   50.6640   32.8950   41.2430 O   0  0  0  0  0  0  0  0  0  0  0  0
   51.0130   33.8150   41.3340 H   0  0  0  0  0  0  0  0  0  0  0  0
   44.0490   35.7130   41.3340 C   0  0  0  0  0  0  0  0  0  0  0  0
   44.7600   35.6220   40.4930 H   0  0  0  0  0  0  0  0  0  0  0  0
   43.8240   36.8020   41.4930 H   0  0  0  0  0  0  0  0  0  0  0  0
   44.2490   33.2980   39.3160 Br  0  0  0  0  0  0  0  0  0  0  0  0
   42.6930   33.8890   40.2360 C   0  0  0  0  0  0  0  0  0  0  0  0
   42.7890   34.9660   41.0850 C   0  0  0  0  0  0  0  0  0  0  0  0
   41.6190   35.3640   41.7380 C   0  0  0  0  0  0  0  0  0  0  0  0
   41.6220   36.2100   42.4270 H   0  0  0  0  0  0  0  0  0  0  0  0
   40.4120   34.7210   41.5580 C   0  0  0  0  0  0  0  0  0  0  0  0
   39.5280   35.0830   42.1000 H   0  0  0  0  0  0  0  0  0  0  0  0
   40.3520   33.6300   40.6870 C   0  0  0  0  0  3  0  0  0  0  0  0
   41.5110   33.2190   40.0250 C   0  0  0  0  0  3  0  0  0  0  0  0
  1  6  1  0  0  0  0
  2  1  2  0  0  0  0
  2  3  1  0  0  0  0
  3  4  2  0  0  0  0
  4  5  1  0  0  0  0
  5  8  1  0  0  0  0
  6  5  2  0  0  0  0
  7  2  1  0  0  0  0
  9 14  1  6  0  0  0
  9 10  1  0  0  0  0
  9 19  1  0  0  0  0
 10  3  1  0  0  0  0
 10 15  1  1  0  0  0
 11 10  1  0  0  0  0
 12 11  1  0  0  0  0
 12 13  1  0  0  0  0
 12 17  1  0  0  0  0
 13  9  1  0  0  0  0
 13 18  1  1  0  0  0
 16 12  1  0  0  0  0
 20 19  1  0  0  0  0
 21 22  1  0  0  0  0
 21 13  1  0  0  0  0
 23 25  1  0  0  0  0
 23  1  1  0  0  0  0
 24 23  1  0  0  0  0
 26 27  1  0  0  0  0
 27 28  1  0  0  0  0
 28 23  1  0  0  0  0
 28 29  2  0  0  0  0
 29 30  1  0  0  0  0
 31 29  1  0  0  0  0
 31 32  1  0  0  0  0
 33 31  2  0  0  0  0
 34 27  2  0  0  0  0
 34 33  1  0  0  0  0
M  END
>  <minimizedAffinity>
-5.47156

>  <minimizedRMSD>
1.29401016

$$$$
