
 OpenBabel03242519253D

 40 43  0  0  0  0  0  0  0  0999 V2000
   47.8910   33.9080   42.9320 C   0  0  0  0  0  0  0  0  0  0  0  0
   48.4250   35.1900   42.6490 C   0  0  0  0  0  0  0  0  0  0  0  0
   49.7570   35.3210   42.2300 C   0  0  0  0  0  0  0  0  0  0  0  0
   50.4720   34.1560   42.1210 N   0  0  0  0  0  0  0  0  0  0  0  0
   49.9280   32.9310   42.4030 C   0  0  0  0  0  0  0  0  0  0  0  0
   48.6660   32.8320   42.7970 N   0  0  0  0  0  0  0  0  0  0  0  0
   47.9300   36.1480   42.7100 H   0  0  0  0  0  0  0  0  0  0  0  0
   50.2220   36.2460   42.0010 H   0  0  0  0  0  0  0  0  0  0  0  0
   46.4880   33.8990   43.3670 C   0  0  0  0  0  0  0  0  0  0  0  0
   45.6460   34.8820   42.6880 C   0  0  0  0  0  0  0  0  0  0  0  0
   45.1590   35.9820   43.5600 C   0  0  0  0  0  0  0  0  0  0  0  0
   44.4960   35.4910   44.8420 C   0  0  0  0  0  0  0  0  0  0  0  0
   45.0940   34.2410   45.4080 C   0  0  0  0  0  0  0  0  0  0  0  0
   46.5090   34.0520   44.8980 C   0  0  0  0  0  0  0  0  0  0  0  0
   46.0850   32.8530   43.2170 H   0  0  0  0  0  0  0  0  0  0  0  0
   46.2190   35.3460   41.8660 H   0  0  0  0  0  0  0  0  0  0  0  0
   44.7750   34.3910   42.1880 H   0  0  0  0  0  0  0  0  0  0  0  0
   44.3050   36.4610   42.9940 H   0  0  0  0  0  0  0  0  0  0  0  0
   45.8470   36.8030   43.7610 H   0  0  0  0  0  0  0  0  0  0  0  0
   44.6530   36.2880   45.6120 H   0  0  0  0  0  0  0  0  0  0  0  0
   43.4060   35.3630   44.7460 H   0  0  0  0  0  0  0  0  0  0  0  0
   44.5000   33.3850   45.0210 H   0  0  0  0  0  0  0  0  0  0  0  0
   45.0960   34.1980   46.4990 H   0  0  0  0  0  0  0  0  0  0  0  0
   46.9090   33.0980   45.3010 H   0  0  0  0  0  0  0  0  0  0  0  0
   47.1820   34.8600   45.2220 H   0  0  0  0  0  0  0  0  0  0  0  0
   50.8280   31.8000   42.2400 C   0  0  0  0  0  0  0  0  0  0  0  0
   51.4230   31.6480   41.0240 N   0  0  0  0  0  0  0  0  0  0  0  0
   52.2170   30.5530   41.0660 C   0  0  0  0  0  0  0  0  0  0  0  0
   52.1090   30.0240   42.3300 N   0  0  0  0  0  0  0  0  0  0  0  0
   51.2660   30.7900   43.0250 N   0  0  0  0  0  0  0  0  0  0  0  0
   52.8430   30.1190   40.2980 H   0  0  0  0  0  0  0  0  0  0  0  0
   50.5370   27.3350   42.0070 Br  0  0  0  0  0  0  0  0  0  0  0  0
   52.2100   27.6030   42.8790 C   0  0  0  0  0  0  0  0  0  0  0  0
   52.7290   28.8800   42.9060 C   0  0  0  0  0  0  0  0  0  0  0  0
   53.9600   29.0460   43.5540 C   0  0  0  0  0  0  0  0  0  0  0  0
   54.4550   30.0130   43.6310 H   0  0  0  0  0  0  0  0  0  0  0  0
   54.5780   27.9340   44.1220 C   0  0  0  0  0  0  0  0  0  0  0  0
   55.5350   28.0480   44.6280 H   0  0  0  0  0  0  0  0  0  0  0  0
   54.0470   26.6830   44.0820 C   0  0  0  0  0  3  0  0  0  0  0  0
   52.8410   26.5220   43.4470 C   0  0  0  0  0  3  0  0  0  0  0  0
  1  9  1  0  0  0  0
  2  7  1  0  0  0  0
  2  1  2  0  0  0  0
  3  2  1  0  0  0  0
  4  3  2  0  0  0  0
  4  5  1  0  0  0  0
  5  6  2  0  0  0  0
  6  1  1  0  0  0  0
  8  3  1  0  0  0  0
  9 14  1  0  0  0  0
 10  9  1  0  0  0  0
 10 11  1  0  0  0  0
 11 19  1  0  0  0  0
 11 12  1  0  0  0  0
 12 13  1  0  0  0  0
 12 20  1  0  0  0  0
 13 23  1  0  0  0  0
 14 25  1  0  0  0  0
 14 24  1  0  0  0  0
 14 13  1  0  0  0  0
 15  9  1  0  0  0  0
 16 10  1  0  0  0  0
 17 10  1  0  0  0  0
 18 11  1  0  0  0  0
 21 12  1  0  0  0  0
 22 13  1  0  0  0  0
 26  5  1  0  0  0  0
 26 30  2  0  0  0  0
 27 28  2  0  0  0  0
 27 26  1  0  0  0  0
 28 29  1  0  0  0  0
 29 34  1  0  0  0  0
 29 30  1  0  0  0  0
 31 28  1  0  0  0  0
 32 33  1  0  0  0  0
 33 34  2  0  0  0  0
 33 40  1  0  0  0  0
 34 35  1  0  0  0  0
 35 36  1  0  0  0  0
 35 37  2  0  0  0  0
 37 38  1  0  0  0  0
 39 37  1  0  0  0  0
 40 39  2  0  0  0  0
M  END
>  <minimizedAffinity>
-4.20220375

>  <minimizedRMSD>
1.56090713

$$$$
