
     RDKit          3D

 40 42  0  0  0  0  0  0  0  0999 V2000
   44.7733   36.6224   43.8344 C   0  0  0  0  0  0  0  0  0  0  0  0
   45.6645   36.3196   42.7947 C   0  0  0  0  0  0  0  0  0  0  0  0
   46.3154   35.0857   42.8239 C   0  0  0  0  0  0  0  0  0  0  0  0
   46.0655   34.2253   43.8512 N   0  0  0  0  0  0  0  0  0  0  0  0
   45.1958   34.5592   44.8353 C   0  0  0  0  0  0  0  0  0  0  0  0
   44.5447   35.7631   44.8299 N   0  0  0  0  0  0  0  0  0  0  0  0
   45.8976   32.5781   46.0389 C   0  0  0  0  0  0  0  0  0  0  0  0
   46.9028   32.4091   45.3020 O   0  0  0  0  0  0  0  0  0  0  0  0
   44.9579   33.6461   45.8891 N   0  0  0  0  0  0  0  0  0  0  0  0
   45.6588   31.6337   47.1210 C   0  0  0  0  0  0  0  0  0  0  0  0
   45.5164   32.0984   48.4349 C   0  0  0  0  0  0  0  0  0  0  0  0
   45.2876   31.2679   49.5120 C   0  0  0  0  0  0  0  0  0  0  0  0
   45.1985   29.9167   49.2616 C   0  0  0  0  0  0  0  0  0  0  0  0
   45.3409   29.4510   47.9519 C   0  0  0  0  0  0  0  0  0  0  0  0
   45.5593   30.3147   46.9651 N   0  0  0  0  0  0  0  0  0  0  0  0
   45.2598   28.0286   47.7166 C   0  0  0  0  0  0  0  0  0  0  0  0
   44.5359   27.2596   48.4960 C   0  0  0  0  0  0  0  0  0  0  0  0
   44.3434   25.7901   48.4257 C   0  0  0  0  0  0  0  0  0  0  0  0
   44.3063   37.6012   43.7429 H   0  0  0  0  0  0  0  0  0  0  0  0
   45.9201   36.9311   41.9510 H   0  0  0  0  0  0  0  0  0  0  0  0
   47.0302   34.7598   42.0565 H   0  0  0  0  0  0  0  0  0  0  0  0
   44.1521   33.7193   46.5370 H   0  0  0  0  0  0  0  0  0  0  0  0
   45.5936   33.1708   48.5829 H   0  0  0  0  0  0  0  0  0  0  0  0
   45.1951   31.7243   50.4676 H   0  0  0  0  0  0  0  0  0  0  0  0
   45.0194   29.2979   50.1301 H   0  0  0  0  0  0  0  0  0  0  0  0
   45.7692   27.4903   46.9085 H   0  0  0  0  0  0  0  0  0  0  0  0
   44.0100   27.7397   49.3104 H   0  0  0  0  0  0  0  0  0  0  0  0
   43.2852   25.5014   48.2807 H   0  0  0  0  0  0  0  0  0  0  0  0
   45.0151   25.3607   47.6419 H   0  0  0  0  0  0  0  0  0  0  0  0
   47.1085   24.4864   48.0640 Br  0  0  0  0  0  0  0  0  0  0  0  0
   46.0824   24.6122   49.6783 C   0  0  0  0  0  0  0  0  0  0  0  0
   44.8324   25.2349   49.7185 C   0  0  0  0  0  0  0  0  0  0  0  0
   44.1583   25.2799   50.9462 C   0  0  0  0  0  0  0  0  0  0  0  0
   43.1963   25.7751   50.9141 H   0  0  0  0  0  0  0  0  0  0  0  0
   44.7555   24.7107   52.0536 C   0  0  0  0  0  0  0  0  0  0  0  0
   44.1921   24.7682   52.9987 H   0  0  0  0  0  0  0  0  0  0  0  0
   45.9904   24.1010   51.9898 C   0  0  0  0  0  0  0  0  0  0  0  0
   46.6792   24.0439   50.7811 C   0  0  0  0  0  0  0  0  0  0  0  0
   46.4098   23.6709   52.8994 H   0  0  0  0  0  0  0  0  0  0  0  0
   47.6466   23.5598   50.7570 H   0  0  0  0  0  0  0  0  0  0  0  0
  1  6  2  0
  2  3  2  0
  2  1  1  0
  3  4  1  0
  4  5  2  0
  5  9  1  0
  6  5  1  0
  7 10  1  0
  8  7  2  0
  9  7  1  0
 10 11  2  0
 11 12  1  0
 13 12  2  0
 14 13  1  0
 15 10  1  0
 15 14  2  0
 16 14  1  0
 16 17  2  0
 18 17  1  0
  1 19  1  0
  2 20  1  0
  3 21  1  0
  9 22  1  0
 11 23  1  0
 12 24  1  0
 13 25  1  0
 16 26  1  0
 17 27  1  0
 18 28  1  0
 18 29  1  0
 30 31  1  0
 31 32  2  0
 32 33  1  0
 33 34  1  0
 33 35  2  0
 35 36  1  0
 35 37  1  0
 37 38  2  0
 38 31  1  0
 37 39  1  0
 38 40  1  0
 18 32  1  0
M  ISO  8  19  14  20  14  21  14  23  14  24  14  25  14  28   8  29   8
M  ISO  2  34  15  36  16
M  END
>  <DihAtoms>  (1) 
16,17,31,30

>  <DihDeg>  (1) 
76.42513554245146

$$$$
