
     RDKit          3D

 39 42  0  0  0  0  0  0  0  0999 V2000
   46.5446   31.6878   46.0576 S   0  0  0  0  0  0  0  0  0  0  0  0
   47.5996   31.0580   47.3423 C   0  0  0  0  0  0  0  0  0  0  0  0
   47.9345   31.9149   48.3624 C   0  0  0  0  0  0  0  0  0  0  0  0
   48.7504   31.4413   49.3664 C   0  0  0  0  0  0  0  0  0  0  0  0
   49.2392   30.1475   49.3833 C   0  0  0  0  0  0  0  0  0  0  0  0
   50.0319   29.7084   50.3669 N   0  0  0  0  0  0  0  0  0  0  0  0
   50.5139   28.4520   50.3897 C   0  0  0  0  0  0  0  0  0  0  0  0
   50.1772   27.5953   49.3654 C   0  0  0  0  0  0  0  0  0  0  0  0
   49.3561   28.0266   48.3332 C   0  0  0  0  0  0  0  0  0  0  0  0
   48.8568   29.3373   48.3152 C   0  0  0  0  0  0  0  0  0  0  0  0
   48.0426   29.7577   47.2836 C   0  0  0  0  0  0  0  0  0  0  0  0
   45.5974   33.1073   46.6344 C   0  0  0  0  0  0  0  0  0  0  0  0
   44.6085   35.9949   44.4934 C   0  0  0  0  0  0  0  0  0  0  0  0
   45.3657   35.7285   43.3619 C   0  0  0  0  0  0  0  0  0  0  0  0
   46.1916   34.6097   43.3065 C   0  0  0  0  0  0  0  0  0  0  0  0
   46.2179   33.7960   44.4162 N   0  0  0  0  0  0  0  0  0  0  0  0
   45.4716   34.0722   45.5128 C   0  0  0  0  0  0  0  0  0  0  0  0
   44.6945   35.1575   45.5160 N   0  0  0  0  0  0  0  0  0  0  0  0
   47.6438   32.9422   48.4984 H   0  0  0  0  0  0  0  0  0  0  0  0
   49.0647   32.0517   50.2121 H   0  0  0  0  0  0  0  0  0  0  0  0
   51.1364   28.2652   51.2542 H   0  0  0  0  0  0  0  0  0  0  0  0
   50.5973   26.6127   49.4503 H   0  0  0  0  0  0  0  0  0  0  0  0
   49.1174   27.3209   47.5498 H   0  0  0  0  0  0  0  0  0  0  0  0
   47.7815   29.0969   46.4924 H   0  0  0  0  0  0  0  0  0  0  0  0
   44.5635   32.7137   46.8657 H   0  0  0  0  0  0  0  0  0  0  0  0
   45.9892   33.5842   47.5418 H   0  0  0  0  0  0  0  0  0  0  0  0
   43.9757   36.8778   44.4974 H   0  0  0  0  0  0  0  0  0  0  0  0
   45.3305   36.3932   42.5403 H   0  0  0  0  0  0  0  0  0  0  0  0
   48.5705   32.4603   43.8397 Br  0  0  0  0  0  0  0  0  0  0  0  0
   48.1066   33.3152   42.2254 C   0  0  0  0  0  0  0  0  0  0  0  0
   47.0605   34.1981   42.2425 C   0  0  0  0  0  0  0  0  0  0  0  0
   46.8699   34.7794   40.9877 C   0  0  0  0  0  0  0  0  0  0  0  0
   46.0828   35.5191   40.7761 H   0  0  0  0  0  0  0  0  0  0  0  0
   47.6312   34.5024   39.8760 C   0  0  0  0  0  0  0  0  0  0  0  0
   47.4536   34.9706   38.9223 H   0  0  0  0  0  0  0  0  0  0  0  0
   48.6646   33.5983   39.9488 C   0  0  0  0  0  0  0  0  0  0  0  0
   48.8973   33.0005   41.1497 C   0  0  0  0  0  0  0  0  0  0  0  0
   49.2499   33.3913   39.0739 H   0  0  0  0  0  0  0  0  0  0  0  0
   49.7069   32.2943   41.2011 H   0  0  0  0  0  0  0  0  0  0  0  0
  1 12  1  0
  1  2  1  0
  2  3  2  0
  3  4  1  0
  4  5  2  0
  5  6  1  0
  6  7  2  0
  8  7  1  0
  9  8  2  0
 10  9  1  0
 10  5  1  0
 11  2  1  0
 11 10  2  0
 13 18  2  0
 14 13  1  0
 15 14  2  0
 15 16  1  0
 16 17  2  0
 17 18  1  0
 17 12  1  0
  3 19  1  0
  4 20  1  0
  7 21  1  0
  8 22  1  0
  9 23  1  0
 11 24  1  0
 12 25  1  0
 12 26  1  0
 13 27  1  0
 14 28  1  0
 29 30  1  0
 30 31  2  0
 31 32  1  0
 32 33  1  0
 32 34  2  0
 34 35  1  0
 34 36  1  0
 36 37  2  0
 37 30  1  0
 36 38  1  0
 37 39  1  0
 15 31  1  0
M  ISO  8  19  14  20  14  21  14  22  14  23  14  24  14  25   8  26   8
M  ISO  4  27  14  28  14  33  15  35  16
M  END
>  <DihAtoms>  (1) 
13,14,30,29

>  <DihDeg>  (1) 
-17.183180902805976

$$$$
