REMARK  Name = 
REMARK  5 active torsions:
REMARK  status: ('A' for Active; 'I' for Inactive)
REMARK    1  A    between atoms: C_3  and  O_10
REMARK    2  A    between atoms: C_5  and  C_7
REMARK    3  A    between atoms: C_8  and  C_9
REMARK    4  A    between atoms: C_9  and  C_23
REMARK    5  A    between atoms: O_10  and  C_11
REMARK                            x       y       z     vdW  Elec       q    Type
REMARK                         _______ _______ _______ _____ _____    ______ ____
ROOT
ATOM      1  C   UNL     1      45.963  33.007  46.342  0.00  0.00    +0.000 C 
ATOM      2  C   UNL     1      45.282  32.923  47.439  0.00  0.00    +0.000 C 
ENDROOT
BRANCH   1   7
ATOM      3  C   UNL     1      44.456  35.933  44.699  0.00  0.00    +0.000 A 
ATOM      4  C   UNL     1      45.180  35.995  43.505  0.00  0.00    +0.000 A 
ATOM      5  C   UNL     1      46.173  35.044  43.264  0.00  0.00    +0.000 A 
ATOM      6  N   UNL     1      46.390  34.094  44.213  0.00  0.00    +0.000 NA
ATOM      7  C   UNL     1      45.675  34.064  45.352  0.00  0.00    +0.000 A 
ATOM      8  N   UNL     1      44.719  34.973  45.592  0.00  0.00    +0.000 NA
ATOM      9  H   UNL     1      43.701  36.666  44.868  0.00  0.00    +0.000 HD
ATOM     10  H   UNL     1      45.041  36.717  42.742  0.00  0.00    +0.000 HD
BRANCH   5  11
ATOM     11  O   UNL     1      46.970  34.971  42.140  0.00  0.00    +0.000 OA
BRANCH  11  12
ATOM     12  C   UNL     1      46.476  34.209  41.043  0.00  0.00    +0.000 C 
ATOM     13  F   UNL     1      45.185  34.648  40.743  0.00  0.00    +0.000 F 
ATOM     14  F   UNL     1      47.316  34.482  39.950  0.00  0.00    +0.000 F 
ATOM     15  F   UNL     1      46.498  32.854  41.312  0.00  0.00    +0.000 F 
ENDBRANCH  11  12
ENDBRANCH   5  11
ENDBRANCH   1   7
BRANCH   2  16
ATOM     16  C   UNL     1      45.491  31.911  48.502  0.00  0.00    +0.000 C 
ATOM     17  H   UNL     1      44.550  31.369  48.711  0.00  0.00    +0.000 HD
ATOM     18  H   UNL     1      45.772  32.477  49.426  0.00  0.00    +0.000 HD
BRANCH  16  21
ATOM     19 BR   UNL     1      44.397  29.969  46.448  0.00  0.00    +0.000 Br
ATOM     20  C   UNL     1      46.152  30.046  47.219  0.00  0.00    +0.000 A 
ATOM     21  C   UNL     1      46.584  30.966  48.160  0.00  0.00    +0.000 A 
ATOM     22  C   UNL     1      47.877  30.911  48.635  0.00  0.00    +0.000 A 
ATOM     23  H   UNL     1      48.085  31.692  49.368  0.00  0.00    +0.000 HD
ATOM     24  C   UNL     1      48.730  29.930  48.162  0.00  0.00    +0.000 A 
ATOM     25  H   UNL     1      49.722  29.950  48.578  0.00  0.00    +0.000 HD
ATOM     26  C   UNL     1      48.299  29.016  47.227  0.00  0.00    +0.000 A 
ATOM     27  C   UNL     1      46.994  29.048  46.728  0.00  0.00    +0.000 A 
ENDBRANCH  16  21
ENDBRANCH   2  16
TORSDOF 5
