
 OpenBabel03252509273D

 30 32  0  0  1  0  0  0  0  0999 V2000
   37.1680   26.7210   42.2880 C   0  0  1  0  0  0  0  0  0  0  0  0
   36.3780   27.3840   43.4490 C   0  0  0  0  0  0  0  0  0  0  0  0
   36.8400   28.0790   42.1420 C   0  0  2  0  0  0  0  0  0  0  0  0
   36.6160   25.8980   41.7900 H   0  0  0  0  0  0  0  0  0  0  0  0
   35.3120   27.0840   43.4830 H   0  0  0  0  0  0  0  0  0  0  0  0
   36.9070   27.6320   44.3760 H   0  0  0  0  0  0  0  0  0  0  0  0
   37.5950   28.8980   42.3580 H   0  0  0  0  0  0  0  0  0  0  0  0
   40.2610   24.7550   43.0930 C   0  0  0  0  0  0  0  0  0  0  0  0
   38.9170   25.0170   42.7010 C   0  0  0  0  0  0  0  0  0  0  0  0
   38.5500   26.3200   42.7520 C   0  0  0  0  0  0  0  0  0  0  0  0
   39.4190   27.3240   43.1600 N   0  0  0  0  0  0  0  0  0  0  0  0
   40.6870   27.0100   43.5230 C   0  0  0  0  0  0  0  0  0  0  0  0
   41.0990   25.7150   43.4850 N   0  0  0  0  0  0  0  0  0  0  0  0
   40.6060   23.7290   43.0690 H   0  0  0  0  0  0  0  0  0  0  0  0
   41.2310   27.8980   43.8120 H   0  0  0  0  0  0  0  0  0  0  0  0
   38.0220   24.0010   42.3220 N   0  0  0  0  0  0  0  0  0  0  0  0
   37.8860   24.0550   41.2920 H   0  0  0  0  0  0  0  0  0  0  0  0
   37.6070   23.3400   43.0360 H   0  0  0  0  0  0  0  0  0  0  0  0
   35.7960   28.5490   41.1560 C   0  0  0  0  0  0  0  0  0  0  0  0
   35.4980   27.7270   40.4600 H   0  0  0  0  0  0  0  0  0  0  0  0
   34.9000   28.8410   41.7250 H   0  0  0  0  0  0  0  0  0  0  0  0
   35.9020   27.9370   38.1670 Br  0  0  0  0  0  0  0  0  0  0  0  0
   36.3570   29.5640   39.0390 C   0  0  0  0  0  0  0  0  0  0  0  0
   36.2680   29.7300   40.4180 C   0  0  0  0  0  0  0  0  0  0  0  0
   36.6160   30.9370   40.9740 C   0  0  0  0  0  0  0  0  0  0  0  0
   36.5170   30.9840   42.0550 H   0  0  0  0  0  0  0  0  0  0  0  0
   37.0570   32.0340   40.2660 C   0  0  0  0  0  0  0  0  0  0  0  0
   37.3190   32.9550   40.7290 H   0  0  0  0  0  0  0  0  0  0  0  0
   37.1390   31.8420   38.8890 C   0  0  0  0  0  3  0  0  0  0  0  0
   36.8010   30.6510   38.2900 C   0  0  0  0  0  3  0  0  0  0  0  0
  1  4  1  6  0  0  0
  1 10  1  0  0  0  0
  1  2  1  0  0  0  0
  2  5  1  0  0  0  0
  2  6  1  0  0  0  0
  3  1  1  0  0  0  0
  3  7  1  1  0  0  0
  3  2  1  0  0  0  0
  8 13  1  0  0  0  0
  9 10  1  0  0  0  0
  9  8  2  0  0  0  0
 10 11  2  0  0  0  0
 11 12  1  0  0  0  0
 12 15  1  0  0  0  0
 13 12  2  0  0  0  0
 14  8  1  0  0  0  0
 16  9  1  0  0  0  0
 16 18  1  0  0  0  0
 17 16  1  0  0  0  0
 19 21  1  0  0  0  0
 19  3  1  0  0  0  0
 20 19  1  0  0  0  0
 22 23  1  0  0  0  0
 23 24  1  0  0  0  0
 24 25  2  0  0  0  0
 24 19  1  0  0  0  0
 25 26  1  0  0  0  0
 27 28  1  0  0  0  0
 27 25  1  0  0  0  0
 29 27  2  0  0  0  0
 30 29  1  0  0  0  0
 30 23  2  0  0  0  0
M  END
>  <minimizedAffinity>
-5.61863708

$$$$

 OpenBabel03252509273D

 30 32  0  0  1  0  0  0  0  0999 V2000
   36.8370   29.4910   41.0660 C   0  0  1  0  0  0  0  0  0  0  0  0
   35.4470   28.9110   40.6880 C   0  0  0  0  0  0  0  0  0  0  0  0
   36.6930   28.0950   41.1210 C   0  0  2  0  0  0  0  0  0  0  0  0
   36.8150   30.1480   41.9600 H   0  0  0  0  0  0  0  0  0  0  0  0
   34.6790   29.0660   41.4710 H   0  0  0  0  0  0  0  0  0  0  0  0
   35.1550   28.8800   39.6320 H   0  0  0  0  0  0  0  0  0  0  0  0
   37.0580   27.4280   40.2790 H   0  0  0  0  0  0  0  0  0  0  0  0
   38.0840   32.0020   38.5720 C   0  0  0  0  0  0  0  0  0  0  0  0
   37.3830   31.4820   39.6970 C   0  0  0  0  0  0  0  0  0  0  0  0
   37.4810   30.1400   39.8620 C   0  0  0  0  0  0  0  0  0  0  0  0
   38.2090   29.3340   38.9970 N   0  0  0  0  0  0  0  0  0  0  0  0
   38.8550   29.8900   37.9420 C   0  0  0  0  0  0  0  0  0  0  0  0
   38.7850   31.2320   37.7390 N   0  0  0  0  0  0  0  0  0  0  0  0
   38.0400   33.0690   38.3950 H   0  0  0  0  0  0  0  0  0  0  0  0
   39.3710   29.1320   37.3690 H   0  0  0  0  0  0  0  0  0  0  0  0
   36.6150   32.2870   40.5560 N   0  0  0  0  0  0  0  0  0  0  0  0
   37.1280   32.3850   41.4550 H   0  0  0  0  0  0  0  0  0  0  0  0
   35.6820   32.6830   40.2490 H   0  0  0  0  0  0  0  0  0  0  0  0
   36.6550   27.3450   42.4320 C   0  0  0  0  0  0  0  0  0  0  0  0
   36.2520   27.9870   43.2530 H   0  0  0  0  0  0  0  0  0  0  0  0
   35.9710   26.4900   42.3140 H   0  0  0  0  0  0  0  0  0  0  0  0
   36.8540   24.4110   41.6090 Br  0  0  0  0  0  0  0  0  0  0  0  0
   38.1900   25.4800   42.4390 C   0  0  0  0  0  0  0  0  0  0  0  0
   37.9860   26.8170   42.7710 C   0  0  0  0  0  0  0  0  0  0  0  0
   39.0000   27.5230   43.3690 C   0  0  0  0  0  0  0  0  0  0  0  0
   38.7600   28.5590   43.5950 H   0  0  0  0  0  0  0  0  0  0  0  0
   40.2410   27.0120   43.6800 C   0  0  0  0  0  0  0  0  0  0  0  0
   41.0050   27.5880   44.1450 H   0  0  0  0  0  0  0  0  0  0  0  0
   40.4190   25.6730   43.3390 C   0  0  0  0  0  3  0  0  0  0  0  0
   39.4320   24.9290   42.7390 C   0  0  0  0  0  3  0  0  0  0  0  0
  1  3  1  0  0  0  0
  1  4  1  1  0  0  0
  2  1  1  0  0  0  0
  2  3  1  0  0  0  0
  2  5  1  0  0  0  0
  3  7  1  6  0  0  0
  3 19  1  0  0  0  0
  6  2  1  0  0  0  0
  8  9  1  0  0  0  0
  9 10  2  0  0  0  0
  9 16  1  0  0  0  0
 10  1  1  0  0  0  0
 11 10  1  0  0  0  0
 12 11  2  0  0  0  0
 13 12  1  0  0  0  0
 13  8  2  0  0  0  0
 14  8  1  0  0  0  0
 15 12  1  0  0  0  0
 16 17  1  0  0  0  0
 18 16  1  0  0  0  0
 19 24  1  0  0  0  0
 19 20  1  0  0  0  0
 21 19  1  0  0  0  0
 22 23  1  0  0  0  0
 23 30  2  0  0  0  0
 23 24  1  0  0  0  0
 24 25  2  0  0  0  0
 25 26  1  0  0  0  0
 25 27  1  0  0  0  0
 27 28  1  0  0  0  0
 29 27  2  0  0  0  0
 30 29  1  0  0  0  0
M  END
>  <minimizedAffinity>
-5.53056288

$$$$

 OpenBabel03252509273D

 30 32  0  0  1  0  0  0  0  0999 V2000
   37.9710   29.5940   41.7780 C   0  0  1  0  0  0  0  0  0  0  0  0
   38.6440   28.4570   40.9640 C   0  0  0  0  0  0  0  0  0  0  0  0
   38.9500   28.8340   42.4380 C   0  0  2  0  0  0  0  0  0  0  0  0
   36.8800   29.4500   41.9210 H   0  0  0  0  0  0  0  0  0  0  0  0
   37.9920   27.5740   40.8200 H   0  0  0  0  0  0  0  0  0  0  0  0
   39.3880   28.7190   40.2030 H   0  0  0  0  0  0  0  0  0  0  0  0
   40.0140   29.2090   42.5520 H   0  0  0  0  0  0  0  0  0  0  0  0
   37.7680   33.0230   40.2690 C   0  0  0  0  0  0  0  0  0  0  0  0
   37.3360   31.7490   40.7340 C   0  0  0  0  0  0  0  0  0  0  0  0
   38.3240   30.9430   41.1930 C   0  0  0  0  0  0  0  0  0  0  0  0
   39.6580   31.3300   41.2040 N   0  0  0  0  0  0  0  0  0  0  0  0
   40.0050   32.5580   40.7460 C   0  0  0  0  0  0  0  0  0  0  0  0
   39.0470   33.4010   40.2790 N   0  0  0  0  0  0  0  0  0  0  0  0
   37.0180   33.7080   39.8930 H   0  0  0  0  0  0  0  0  0  0  0  0
   41.0740   32.7040   40.8230 H   0  0  0  0  0  0  0  0  0  0  0  0
   35.9930   31.3360   40.6920 N   0  0  0  0  0  0  0  0  0  0  0  0
   35.6190   31.3460   41.6610 H   0  0  0  0  0  0  0  0  0  0  0  0
   35.5260   31.0800   39.7770 H   0  0  0  0  0  0  0  0  0  0  0  0
   38.5990   27.8510   43.5310 C   0  0  0  0  0  0  0  0  0  0  0  0
   39.3920   27.8230   44.3180 H   0  0  0  0  0  0  0  0  0  0  0  0
   37.6690   28.1930   44.0100 H   0  0  0  0  0  0  0  0  0  0  0  0
   41.1470   26.1750   43.6790 Br  0  0  0  0  0  0  0  0  0  0  0  0
   39.4530   25.6580   42.9870 C   0  0  0  0  0  0  0  0  0  0  0  0
   38.3540   26.5130   42.9710 C   0  0  0  0  0  0  0  0  0  0  0  0
   37.1630   26.0670   42.4530 C   0  0  0  0  0  0  0  0  0  0  0  0
   36.3550   26.7940   42.4790 H   0  0  0  0  0  0  0  0  0  0  0  0
   36.9510   24.8090   41.9320 C   0  0  0  0  0  0  0  0  0  0  0  0
   36.0140   24.4950   41.5380 H   0  0  0  0  0  0  0  0  0  0  0  0
   38.0650   23.9740   41.9580 C   0  0  0  0  0  3  0  0  0  0  0  0
   39.2760   24.3790   42.4670 C   0  0  0  0  0  3  0  0  0  0  0  0
  1  4  1  1  0  0  0
  1  3  1  0  0  0  0
  2  1  1  0  0  0  0
  2  3  1  0  0  0  0
  3  7  1  1  0  0  0
  3 19  1  0  0  0  0
  5  2  1  0  0  0  0
  6  2  1  0  0  0  0
  8 13  2  0  0  0  0
  8  9  1  0  0  0  0
  9 10  2  0  0  0  0
 10 11  1  0  0  0  0
 10  1  1  0  0  0  0
 12 15  1  0  0  0  0
 12 11  2  0  0  0  0
 13 12  1  0  0  0  0
 14  8  1  0  0  0  0
 16  9  1  0  0  0  0
 16 17  1  0  0  0  0
 18 16  1  0  0  0  0
 19 21  1  0  0  0  0
 19 20  1  0  0  0  0
 23 22  1  0  0  0  0
 24 23  1  0  0  0  0
 24 19  1  0  0  0  0
 25 26  1  0  0  0  0
 25 24  2  0  0  0  0
 27 29  2  0  0  0  0
 27 25  1  0  0  0  0
 28 27  1  0  0  0  0
 29 30  1  0  0  0  0
 30 23  2  0  0  0  0
M  END
>  <minimizedAffinity>
-5.46398926

$$$$

 OpenBabel03252509273D

 30 32  0  0  1  0  0  0  0  0999 V2000
   36.9490   31.3090   39.7160 C   0  0  1  0  0  0  0  0  0  0  0  0
   36.9480   30.8050   38.2470 C   0  0  0  0  0  0  0  0  0  0  0  0
   37.0500   29.9220   39.5190 C   0  0  2  0  0  0  0  0  0  0  0  0
   36.0090   31.8220   40.0080 H   0  0  0  0  0  0  0  0  0  0  0  0
   35.9500   30.8450   37.7690 H   0  0  0  0  0  0  0  0  0  0  0  0
   37.8520   30.9390   37.6420 H   0  0  0  0  0  0  0  0  0  0  0  0
   38.0500   29.3890   39.5670 H   0  0  0  0  0  0  0  0  0  0  0  0
   39.3250   34.1610   40.2590 C   0  0  0  0  0  0  0  0  0  0  0  0
   38.1240   33.4800   39.9110 C   0  0  0  0  0  0  0  0  0  0  0  0
   38.1880   32.1290   39.9920 C   0  0  0  0  0  0  0  0  0  0  0  0
   39.3400   31.4590   40.3820 N   0  0  0  0  0  0  0  0  0  0  0  0
   40.4540   32.1660   40.7000 C   0  0  0  0  0  0  0  0  0  0  0  0
   40.4350   33.5230   40.6350 N   0  0  0  0  0  0  0  0  0  0  0  0
   39.3280   35.2430   40.2130 H   0  0  0  0  0  0  0  0  0  0  0  0
   41.2590   31.5010   40.9810 H   0  0  0  0  0  0  0  0  0  0  0  0
   36.9650   34.1500   39.4810 N   0  0  0  0  0  0  0  0  0  0  0  0
   36.2640   34.1130   40.2480 H   0  0  0  0  0  0  0  0  0  0  0  0
   36.9090   34.5890   38.5190 H   0  0  0  0  0  0  0  0  0  0  0  0
   35.9150   28.9810   39.8470 C   0  0  0  0  0  0  0  0  0  0  0  0
   35.0390   29.5350   40.2660 H   0  0  0  0  0  0  0  0  0  0  0  0
   35.5870   28.5050   38.9090 H   0  0  0  0  0  0  0  0  0  0  0  0
   36.3310   26.3800   38.3020 Br  0  0  0  0  0  0  0  0  0  0  0  0
   36.5850   26.6830   40.1620 C   0  0  0  0  0  0  0  0  0  0  0  0
   36.3630   27.9200   40.7610 C   0  0  0  0  0  0  0  0  0  0  0  0
   36.5690   28.0590   42.1110 C   0  0  0  0  0  0  0  0  0  0  0  0
   36.3740   29.0550   42.5000 H   0  0  0  0  0  0  0  0  0  0  0  0
   36.9890   27.0530   42.9530 C   0  0  0  0  0  0  0  0  0  0  0  0
   37.1380   27.1950   43.9970 H   0  0  0  0  0  0  0  0  0  0  0  0
   37.2020   25.8260   42.3310 C   0  0  0  0  0  3  0  0  0  0  0  0
   37.0090   25.6410   40.9820 C   0  0  0  0  0  3  0  0  0  0  0  0
  1 10  1  0  0  0  0
  1  4  1  1  0  0  0
  2  3  1  0  0  0  0
  2  1  1  0  0  0  0
  3  7  1  1  0  0  0
  3  1  1  0  0  0  0
  3 19  1  0  0  0  0
  5  2  1  0  0  0  0
  6  2  1  0  0  0  0
  8 13  1  0  0  0  0
  9 10  1  0  0  0  0
  9  8  2  0  0  0  0
 10 11  2  0  0  0  0
 11 12  1  0  0  0  0
 12 15  1  0  0  0  0
 13 12  2  0  0  0  0
 14  8  1  0  0  0  0
 16  9  1  0  0  0  0
 16 17  1  0  0  0  0
 18 16  1  0  0  0  0
 19 20  1  0  0  0  0
 19 24  1  0  0  0  0
 21 19  1  0  0  0  0
 22 23  1  0  0  0  0
 23 24  2  0  0  0  0
 23 30  1  0  0  0  0
 24 25  1  0  0  0  0
 25 26  1  0  0  0  0
 25 27  2  0  0  0  0
 27 28  1  0  0  0  0
 29 27  1  0  0  0  0
 30 29  2  0  0  0  0
M  END
>  <minimizedAffinity>
-5.41508627

$$$$

 OpenBabel03252509273D

 30 32  0  0  1  0  0  0  0  0999 V2000
   37.0790   31.2430   40.3270 C   0  0  1  0  0  0  0  0  0  0  0  0
   36.8300   30.5540   38.9580 C   0  0  0  0  0  0  0  0  0  0  0  0
   37.1700   29.8420   40.2940 C   0  0  2  0  0  0  0  0  0  0  0  0
   36.1960   31.7940   40.7120 H   0  0  0  0  0  0  0  0  0  0  0  0
   35.7630   30.5360   38.6630 H   0  0  0  0  0  0  0  0  0  0  0  0
   37.6110   30.6030   38.1900 H   0  0  0  0  0  0  0  0  0  0  0  0
   38.1720   29.3140   40.2340 H   0  0  0  0  0  0  0  0  0  0  0  0
   39.4660   34.1190   39.9950 C   0  0  0  0  0  0  0  0  0  0  0  0
   38.2380   33.3990   39.9490 C   0  0  0  0  0  0  0  0  0  0  0  0
   38.3330   32.0870   40.2720 C   0  0  0  0  0  0  0  0  0  0  0  0
   39.5370   31.4880   40.6190 N   0  0  0  0  0  0  0  0  0  0  0  0
   40.6730   32.2290   40.6430 C   0  0  0  0  0  0  0  0  0  0  0  0
   40.6260   33.5500   40.3280 N   0  0  0  0  0  0  0  0  0  0  0  0
   39.4470   35.1730   39.7470 H   0  0  0  0  0  0  0  0  0  0  0  0
   41.5190   31.6190   40.9310 H   0  0  0  0  0  0  0  0  0  0  0  0
   37.0220   33.9900   39.5640 N   0  0  0  0  0  0  0  0  0  0  0  0
   36.4340   34.1050   40.4130 H   0  0  0  0  0  0  0  0  0  0  0  0
   36.8290   34.2400   38.5530 H   0  0  0  0  0  0  0  0  0  0  0  0
   36.1270   28.9570   40.9360 C   0  0  0  0  0  0  0  0  0  0  0  0
   35.8970   29.2930   41.9770 H   0  0  0  0  0  0  0  0  0  0  0  0
   35.2000   29.0430   40.3480 H   0  0  0  0  0  0  0  0  0  0  0  0
   37.1850   28.1350   43.6800 Br  0  0  0  0  0  0  0  0  0  0  0  0
   37.0530   27.0640   42.1140 C   0  0  0  0  0  0  0  0  0  0  0  0
   36.5500   27.5480   40.9100 C   0  0  0  0  0  0  0  0  0  0  0  0
   36.4870   26.7120   39.8230 C   0  0  0  0  0  0  0  0  0  0  0  0
   36.0820   27.1670   38.9230 H   0  0  0  0  0  0  0  0  0  0  0  0
   36.8890   25.3940   39.8170 C   0  0  0  0  0  0  0  0  0  0  0  0
   36.8260   24.7740   38.9550 H   0  0  0  0  0  0  0  0  0  0  0  0
   37.3890   24.9340   41.0320 C   0  0  0  0  0  3  0  0  0  0  0  0
   37.4700   25.7360   42.1460 C   0  0  0  0  0  3  0  0  0  0  0  0
  1  4  1  1  0  0  0
  2  3  1  0  0  0  0
  2  1  1  0  0  0  0
  3  7  1  1  0  0  0
  3  1  1  0  0  0  0
  3 19  1  0  0  0  0
  5  2  1  0  0  0  0
  6  2  1  0  0  0  0
  8 13  1  0  0  0  0
  9  8  2  0  0  0  0
  9 10  1  0  0  0  0
 10  1  1  0  0  0  0
 10 11  2  0  0  0  0
 11 12  1  0  0  0  0
 12 15  1  0  0  0  0
 13 12  2  0  0  0  0
 14  8  1  0  0  0  0
 16  9  1  0  0  0  0
 16 17  1  0  0  0  0
 18 16  1  0  0  0  0
 19 20  1  0  0  0  0
 21 19  1  0  0  0  0
 23 30  1  0  0  0  0
 23 22  1  0  0  0  0
 24 19  1  0  0  0  0
 24 23  2  0  0  0  0
 25 24  1  0  0  0  0
 26 25  1  0  0  0  0
 27 25  2  0  0  0  0
 27 29  1  0  0  0  0
 28 27  1  0  0  0  0
 29 30  2  0  0  0  0
M  END
>  <minimizedAffinity>
-5.41473103

$$$$

 OpenBabel03252509273D

 30 32  0  0  1  0  0  0  0  0999 V2000
   39.2870   31.8020   39.3040 C   0  0  1  0  0  0  0  0  0  0  0  0
   39.6290   30.3190   39.6130 C   0  0  0  0  0  0  0  0  0  0  0  0
   38.9710   31.3290   40.5880 C   0  0  2  0  0  0  0  0  0  0  0  0
   38.5410   31.9250   38.4920 H   0  0  0  0  0  0  0  0  0  0  0  0
   38.9400   29.5990   39.1290 H   0  0  0  0  0  0  0  0  0  0  0  0
   40.6750   30.0430   39.7890 H   0  0  0  0  0  0  0  0  0  0  0  0
   39.6430   31.5370   41.4780 H   0  0  0  0  0  0  0  0  0  0  0  0
   42.0950   33.7160   37.7150 C   0  0  0  0  0  0  0  0  0  0  0  0
   40.9310   32.9030   37.8140 C   0  0  0  0  0  0  0  0  0  0  0  0
   40.5520   32.5990   39.0790 C   0  0  0  0  0  0  0  0  0  0  0  0
   41.2490   33.0460   40.1940 N   0  0  0  0  0  0  0  0  0  0  0  0
   42.3520   33.8180   40.0330 C   0  0  0  0  0  0  0  0  0  0  0  0
   42.7680   34.1490   38.7820 N   0  0  0  0  0  0  0  0  0  0  0  0
   42.4410   33.9900   36.7260 H   0  0  0  0  0  0  0  0  0  0  0  0
   42.7770   34.0800   40.9920 H   0  0  0  0  0  0  0  0  0  0  0  0
   40.2410   32.4170   36.6890 N   0  0  0  0  0  0  0  0  0  0  0  0
   39.3500   32.9450   36.6020 H   0  0  0  0  0  0  0  0  0  0  0  0
   40.6440   31.6420   36.0910 H   0  0  0  0  0  0  0  0  0  0  0  0
   37.5440   31.0960   41.0280 C   0  0  0  0  0  0  0  0  0  0  0  0
   37.1500   31.9710   41.6010 H   0  0  0  0  0  0  0  0  0  0  0  0
   36.9240   30.9870   40.1240 H   0  0  0  0  0  0  0  0  0  0  0  0
   35.3460   29.3280   39.8590 Br  0  0  0  0  0  0  0  0  0  0  0  0
   36.4560   28.9660   41.3600 C   0  0  0  0  0  0  0  0  0  0  0  0
   37.4330   29.8530   41.8050 C   0  0  0  0  0  0  0  0  0  0  0  0
   38.1950   29.5200   42.8980 C   0  0  0  0  0  0  0  0  0  0  0  0
   38.9350   30.2650   43.1800 H   0  0  0  0  0  0  0  0  0  0  0  0
   38.0770   28.3500   43.6150 C   0  0  0  0  0  0  0  0  0  0  0  0
   38.6840   28.1240   44.4590 H   0  0  0  0  0  0  0  0  0  0  0  0
   37.0930   27.4810   43.1510 C   0  0  0  0  0  3  0  0  0  0  0  0
   36.3070   27.7740   42.0620 C   0  0  0  0  0  3  0  0  0  0  0  0
  1  4  1  6  0  0  0
  1  2  1  0  0  0  0
  1  3  1  0  0  0  0
  2  6  1  0  0  0  0
  2  3  1  0  0  0  0
  3 19  1  0  0  0  0
  3  7  1  1  0  0  0
  5  2  1  0  0  0  0
  8  9  2  0  0  0  0
  8 13  1  0  0  0  0
  9 10  1  0  0  0  0
 10  1  1  0  0  0  0
 10 11  2  0  0  0  0
 12 11  1  0  0  0  0
 12 15  1  0  0  0  0
 13 12  2  0  0  0  0
 14  8  1  0  0  0  0
 16  9  1  0  0  0  0
 17 16  1  0  0  0  0
 18 16  1  0  0  0  0
 19 20  1  0  0  0  0
 19 24  1  0  0  0  0
 21 19  1  0  0  0  0
 22 23  1  0  0  0  0
 23 24  2  0  0  0  0
 23 30  1  0  0  0  0
 24 25  1  0  0  0  0
 25 26  1  0  0  0  0
 25 27  2  0  0  0  0
 27 28  1  0  0  0  0
 29 27  1  0  0  0  0
 30 29  2  0  0  0  0
M  END
>  <minimizedAffinity>
-5.32274485

$$$$

 OpenBabel03252509273D

 30 32  0  0  1  0  0  0  0  0999 V2000
   36.0140   29.4370   38.8100 C   0  0  1  0  0  0  0  0  0  0  0  0
   35.9340   29.2160   37.2750 C   0  0  0  0  0  0  0  0  0  0  0  0
   36.5880   28.2590   38.3060 C   0  0  2  0  0  0  0  0  0  0  0  0
   35.0210   29.4740   39.3040 H   0  0  0  0  0  0  0  0  0  0  0  0
   34.9240   28.9260   36.9250 H   0  0  0  0  0  0  0  0  0  0  0  0
   36.5950   29.7950   36.6210 H   0  0  0  0  0  0  0  0  0  0  0  0
   37.7060   28.1720   38.1310 H   0  0  0  0  0  0  0  0  0  0  0  0
   37.6400   32.3450   40.5350 C   0  0  0  0  0  0  0  0  0  0  0  0
   36.7230   31.2800   40.3050 C   0  0  0  0  0  0  0  0  0  0  0  0
   36.8850   30.6310   39.1260 C   0  0  0  0  0  0  0  0  0  0  0  0
   37.8690   30.9810   38.2100 N   0  0  0  0  0  0  0  0  0  0  0  0
   38.7120   32.0070   38.4890 C   0  0  0  0  0  0  0  0  0  0  0  0
   38.5870   32.6850   39.6600 N   0  0  0  0  0  0  0  0  0  0  0  0
   37.5560   32.8960   41.4630 H   0  0  0  0  0  0  0  0  0  0  0  0
   39.4150   32.1520   37.6800 H   0  0  0  0  0  0  0  0  0  0  0  0
   35.7020   30.9430   41.2100 N   0  0  0  0  0  0  0  0  0  0  0  0
   35.9640   30.0520   41.6790 H   0  0  0  0  0  0  0  0  0  0  0  0
   34.8480   31.5560   41.3270 H   0  0  0  0  0  0  0  0  0  0  0  0
   35.9670   26.9010   38.5380 C   0  0  0  0  0  0  0  0  0  0  0  0
   34.8510   26.9590   38.5200 H   0  0  0  0  0  0  0  0  0  0  0  0
   36.2780   26.2400   37.7140 H   0  0  0  0  0  0  0  0  0  0  0  0
   35.7250   23.8590   38.4310 Br  0  0  0  0  0  0  0  0  0  0  0  0
   36.3870   24.9240   39.8610 C   0  0  0  0  0  0  0  0  0  0  0  0
   36.4520   26.3130   39.7970 C   0  0  0  0  0  0  0  0  0  0  0  0
   36.9420   27.0130   40.8710 C   0  0  0  0  0  0  0  0  0  0  0  0
   36.9600   28.0920   40.7410 H   0  0  0  0  0  0  0  0  0  0  0  0
   37.3910   26.4460   42.0440 C   0  0  0  0  0  0  0  0  0  0  0  0
   37.7650   27.0190   42.8590 H   0  0  0  0  0  0  0  0  0  0  0  0
   37.3150   25.0560   42.0830 C   0  0  0  0  0  3  0  0  0  0  0  0
   36.8310   24.3160   41.0310 C   0  0  0  0  0  3  0  0  0  0  0  0
  1 10  1  0  0  0  0
  1  4  1  1  0  0  0
  2  3  1  0  0  0  0
  2  1  1  0  0  0  0
  3  7  1  6  0  0  0
  3 19  1  0  0  0  0
  3  1  1  0  0  0  0
  5  2  1  0  0  0  0
  6  2  1  0  0  0  0
  8 14  1  0  0  0  0
  9  8  1  0  0  0  0
  9 16  1  0  0  0  0
 10  9  2  0  0  0  0
 11 12  2  0  0  0  0
 11 10  1  0  0  0  0
 12 13  1  0  0  0  0
 13  8  2  0  0  0  0
 15 12  1  0  0  0  0
 16 18  1  0  0  0  0
 16 17  1  0  0  0  0
 19 24  1  0  0  0  0
 20 19  1  0  0  0  0
 21 19  1  0  0  0  0
 22 23  1  0  0  0  0
 23 30  1  0  0  0  0
 24 23  2  0  0  0  0
 24 25  1  0  0  0  0
 25 27  2  0  0  0  0
 26 25  1  0  0  0  0
 27 29  1  0  0  0  0
 27 28  1  0  0  0  0
 30 29  2  0  0  0  0
M  END
>  <minimizedAffinity>
-5.21584558

$$$$

 OpenBabel03252509273D

 30 32  0  0  1  0  0  0  0  0999 V2000
   38.8840   30.2670   41.5330 C   0  0  1  0  0  0  0  0  0  0  0  0
   39.2640   29.1750   40.4970 C   0  0  0  0  0  0  0  0  0  0  0  0
   40.0250   29.4970   41.8100 C   0  0  2  0  0  0  0  0  0  0  0  0
   37.8970   30.0980   42.0120 H   0  0  0  0  0  0  0  0  0  0  0  0
   38.6020   28.2870   40.5310 H   0  0  0  0  0  0  0  0  0  0  0  0
   39.7230   29.4800   39.5500 H   0  0  0  0  0  0  0  0  0  0  0  0
   41.0690   29.8850   41.5930 H   0  0  0  0  0  0  0  0  0  0  0  0
   38.1560   33.6620   40.1110 C   0  0  0  0  0  0  0  0  0  0  0  0
   37.9130   32.3510   40.6120 C   0  0  0  0  0  0  0  0  0  0  0  0
   39.0260   31.6430   40.9240 C   0  0  0  0  0  0  0  0  0  0  0  0
   40.3060   32.1570   40.7650 N   0  0  0  0  0  0  0  0  0  0  0  0
   40.4710   33.4140   40.2820 C   0  0  0  0  0  0  0  0  0  0  0  0
   39.3830   34.1610   39.9570 N   0  0  0  0  0  0  0  0  0  0  0  0
   37.3010   34.2710   39.8470 H   0  0  0  0  0  0  0  0  0  0  0  0
   41.5210   33.6630   40.2190 H   0  0  0  0  0  0  0  0  0  0  0  0
   36.6220   31.8110   40.7410 N   0  0  0  0  0  0  0  0  0  0  0  0
   36.3800   31.7840   41.7520 H   0  0  0  0  0  0  0  0  0  0  0  0
   36.0640   31.5120   39.8930 H   0  0  0  0  0  0  0  0  0  0  0  0
   40.0470   28.4640   42.9130 C   0  0  0  0  0  0  0  0  0  0  0  0
   40.9740   27.8420   42.8650 H   0  0  0  0  0  0  0  0  0  0  0  0
   40.0570   28.9980   43.8760 H   0  0  0  0  0  0  0  0  0  0  0  0
   40.6710   25.7980   41.5630 Br  0  0  0  0  0  0  0  0  0  0  0  0
   39.0060   26.3820   42.2720 C   0  0  0  0  0  0  0  0  0  0  0  0
   38.8380   27.6280   42.8710 C   0  0  0  0  0  0  0  0  0  0  0  0
   37.6040   27.9780   43.3590 C   0  0  0  0  0  0  0  0  0  0  0  0
   37.5570   28.9650   43.8110 H   0  0  0  0  0  0  0  0  0  0  0  0
   36.4810   27.1810   43.3100 C   0  0  0  0  0  0  0  0  0  0  0  0
   35.5380   27.4840   43.6990 H   0  0  0  0  0  0  0  0  0  0  0  0
   36.6750   25.9410   42.7070 C   0  0  0  0  0  3  0  0  0  0  0  0
   37.8930   25.5500   42.2040 C   0  0  0  0  0  3  0  0  0  0  0  0
  1  3  1  0  0  0  0
  1  4  1  1  0  0  0
  2  5  1  0  0  0  0
  2  1  1  0  0  0  0
  2  3  1  0  0  0  0
  3  7  1  6  0  0  0
  3 19  1  0  0  0  0
  6  2  1  0  0  0  0
  8  9  1  0  0  0  0
  9 16  1  0  0  0  0
  9 10  2  0  0  0  0
 10  1  1  0  0  0  0
 11 10  1  0  0  0  0
 12 11  2  0  0  0  0
 13  8  2  0  0  0  0
 13 12  1  0  0  0  0
 14  8  1  0  0  0  0
 15 12  1  0  0  0  0
 16 17  1  0  0  0  0
 18 16  1  0  0  0  0
 19 21  1  0  0  0  0
 20 19  1  0  0  0  0
 22 23  1  0  0  0  0
 23 24  1  0  0  0  0
 24 19  1  0  0  0  0
 24 25  2  0  0  0  0
 25 26  1  0  0  0  0
 27 25  1  0  0  0  0
 27 28  1  0  0  0  0
 29 27  2  0  0  0  0
 30 23  2  0  0  0  0
 30 29  1  0  0  0  0
M  END
>  <minimizedAffinity>
-5.06668282

$$$$

 OpenBabel03252509273D

 30 32  0  0  1  0  0  0  0  0999 V2000
   37.1600   26.6670   42.3250 C   0  0  1  0  0  0  0  0  0  0  0  0
   36.4530   27.3880   43.5040 C   0  0  0  0  0  0  0  0  0  0  0  0
   36.8730   28.0310   42.1560 C   0  0  2  0  0  0  0  0  0  0  0  0
   36.5540   25.8510   41.8780 H   0  0  0  0  0  0  0  0  0  0  0  0
   35.3800   27.1290   43.5980 H   0  0  0  0  0  0  0  0  0  0  0  0
   37.0370   27.6400   44.3970 H   0  0  0  0  0  0  0  0  0  0  0  0
   37.6660   28.8270   42.3120 H   0  0  0  0  0  0  0  0  0  0  0  0
   40.2370   24.6210   42.9740 C   0  0  0  0  0  0  0  0  0  0  0  0
   38.8860   24.9190   42.6340 C   0  0  0  0  0  0  0  0  0  0  0  0
   38.5480   26.2270   42.7310 C   0  0  0  0  0  0  0  0  0  0  0  0
   39.4500   27.2040   43.1340 N   0  0  0  0  0  0  0  0  0  0  0  0
   40.7230   26.8550   43.4440 C   0  0  0  0  0  0  0  0  0  0  0  0
   41.1080   25.5550   43.3600 N   0  0  0  0  0  0  0  0  0  0  0  0
   40.5610   23.5900   42.9120 H   0  0  0  0  0  0  0  0  0  0  0  0
   41.2950   27.7250   43.7370 H   0  0  0  0  0  0  0  0  0  0  0  0
   37.9590   23.9310   42.2610 N   0  0  0  0  0  0  0  0  0  0  0  0
   37.7890   24.0140   41.2380 H   0  0  0  0  0  0  0  0  0  0  0  0
   37.5560   23.2590   42.9730 H   0  0  0  0  0  0  0  0  0  0  0  0
   35.7980   28.5140   41.2110 C   0  0  0  0  0  0  0  0  0  0  0  0
   34.8770   27.8860   41.2930 H   0  0  0  0  0  0  0  0  0  0  0  0
   35.5250   29.5400   41.5020 H   0  0  0  0  0  0  0  0  0  0  0  0
   36.7590   31.3300   40.5280 Br  0  0  0  0  0  0  0  0  0  0  0  0
   36.7620   29.7950   39.4060 C   0  0  0  0  0  0  0  0  0  0  0  0
   36.2970   28.5530   39.8280 C   0  0  0  0  0  0  0  0  0  0  0  0
   36.3320   27.4910   38.9580 C   0  0  0  0  0  0  0  0  0  0  0  0
   35.9510   26.5580   39.3650 H   0  0  0  0  0  0  0  0  0  0  0  0
   36.8030   27.5470   37.6640 C   0  0  0  0  0  0  0  0  0  0  0  0
   36.8150   26.7030   37.0160 H   0  0  0  0  0  0  0  0  0  0  0  0
   37.2620   28.7990   37.2660 C   0  0  0  0  0  3  0  0  0  0  0  0
   37.2450   29.8890   38.1040 C   0  0  0  0  0  3  0  0  0  0  0  0
  1  4  1  6  0  0  0
  1 10  1  0  0  0  0
  1  2  1  0  0  0  0
  2  5  1  0  0  0  0
  2  6  1  0  0  0  0
  3  7  1  1  0  0  0
  3  1  1  0  0  0  0
  3  2  1  0  0  0  0
  8 13  1  0  0  0  0
  9 10  1  0  0  0  0
  9  8  2  0  0  0  0
 10 11  2  0  0  0  0
 11 12  1  0  0  0  0
 12 15  1  0  0  0  0
 13 12  2  0  0  0  0
 14  8  1  0  0  0  0
 16  9  1  0  0  0  0
 16 18  1  0  0  0  0
 17 16  1  0  0  0  0
 19 20  1  0  0  0  0
 19 21  1  0  0  0  0
 19  3  1  0  0  0  0
 23 24  1  0  0  0  0
 23 22  1  0  0  0  0
 24 19  1  0  0  0  0
 25 26  1  0  0  0  0
 25 24  2  0  0  0  0
 27 25  1  0  0  0  0
 28 27  1  0  0  0  0
 29 27  2  0  0  0  0
 29 30  1  0  0  0  0
 30 23  2  0  0  0  0
M  END
>  <minimizedAffinity>
-5.0437727

$$$$
