
 OpenBabel03252509273D

 30 32  0  0  1  0  0  0  0  0999 V2000
   46.9750   35.1070   41.7630 C   0  0  1  0  0  0  0  0  0  0  0  0
   48.4530   35.5760   41.8430 C   0  0  0  0  0  0  0  0  0  0  0  0
   47.9320   34.3070   41.1190 C   0  0  2  0  0  0  0  0  0  0  0  0
   46.3120   35.8210   41.2320 H   0  0  0  0  0  0  0  0  0  0  0  0
   48.6750   36.4430   41.1910 H   0  0  0  0  0  0  0  0  0  0  0  0
   49.0010   35.4420   42.7830 H   0  0  0  0  0  0  0  0  0  0  0  0
   48.3380   33.3640   41.6030 H   0  0  0  0  0  0  0  0  0  0  0  0
   44.9670   34.9130   44.9270 C   0  0  0  0  0  0  0  0  0  0  0  0
   45.4110   35.3940   43.6620 C   0  0  0  0  0  0  0  0  0  0  0  0
   46.4670   34.7280   43.1360 C   0  0  0  0  0  0  0  0  0  0  0  0
   47.0720   33.6580   43.7830 N   0  0  0  0  0  0  0  0  0  0  0  0
   46.6030   33.2480   44.9870 C   0  0  0  0  0  0  0  0  0  0  0  0
   45.5440   33.8860   45.5520 N   0  0  0  0  0  0  0  0  0  0  0  0
   44.1240   35.4090   45.3920 H   0  0  0  0  0  0  0  0  0  0  0  0
   47.1790   32.4100   45.3550 H   0  0  0  0  0  0  0  0  0  0  0  0
   44.8260   36.4990   43.0180 N   0  0  0  0  0  0  0  0  0  0  0  0
   44.2680   36.1480   42.2140 H   0  0  0  0  0  0  0  0  0  0  0  0
   44.9850   37.4850   43.3680 H   0  0  0  0  0  0  0  0  0  0  0  0
   48.0320   34.2320   39.6130 C   0  0  0  0  0  0  0  0  0  0  0  0
   47.7620   35.2080   39.1410 H   0  0  0  0  0  0  0  0  0  0  0  0
   49.0800   34.0170   39.3530 H   0  0  0  0  0  0  0  0  0  0  0  0
   49.7460   31.7440   39.1680 Br  0  0  0  0  0  0  0  0  0  0  0  0
   47.8840   31.9470   38.8450 C   0  0  0  0  0  0  0  0  0  0  0  0
   47.2020   33.1370   39.0880 C   0  0  0  0  0  0  0  0  0  0  0  0
   45.8550   33.2060   38.8300 C   0  0  0  0  0  0  0  0  0  0  0  0
   45.3990   34.1680   39.0460 H   0  0  0  0  0  0  0  0  0  0  0  0
   45.0930   32.1690   38.3350 C   0  0  0  0  0  0  0  0  0  0  0  0
   44.0500   32.2560   38.1460 H   0  0  0  0  0  0  0  0  0  0  0  0
   45.7980   30.9900   38.1000 C   0  0  0  0  0  3  0  0  0  0  0  0
   47.1450   30.8780   38.3440 C   0  0  0  0  0  3  0  0  0  0  0  0
  1  4  1  6  0  0  0
  1  2  1  0  0  0  0
  1 10  1  0  0  0  0
  2  6  1  0  0  0  0
  3  7  1  1  0  0  0
  3  1  1  0  0  0  0
  3  2  1  0  0  0  0
  5  2  1  0  0  0  0
  8 14  1  0  0  0  0
  8 13  1  0  0  0  0
  9  8  2  0  0  0  0
 10  9  1  0  0  0  0
 10 11  2  0  0  0  0
 11 12  1  0  0  0  0
 12 15  1  0  0  0  0
 12 13  2  0  0  0  0
 16 18  1  0  0  0  0
 16  9  1  0  0  0  0
 17 16  1  0  0  0  0
 19  3  1  0  0  0  0
 20 19  1  0  0  0  0
 21 19  1  0  0  0  0
 23 24  1  0  0  0  0
 23 22  1  0  0  0  0
 24 19  1  0  0  0  0
 25 26  1  0  0  0  0
 25 24  2  0  0  0  0
 27 25  1  0  0  0  0
 28 27  1  0  0  0  0
 29 27  2  0  0  0  0
 29 30  1  0  0  0  0
 30 23  2  0  0  0  0
M  END
>  <minimizedAffinity>
-4.66081047

>  <minimizedRMSD>
2.05620313

$$$$
