
 OpenBabel03252506203D

 33 35  0  0  0  0  0  0  0  0999 V2000
   45.4230   36.1360   43.4390 C   0  0  0  0  0  0  0  0  0  0  0  0
   44.7390   35.4040   44.4150 C   0  0  0  0  0  0  0  0  0  0  0  0
   45.1210   34.0680   44.5800 C   0  0  0  0  0  0  0  0  0  0  0  0
   46.1040   33.5650   43.8110 N   0  0  0  0  0  0  0  0  0  0  0  0
   46.7430   34.3020   42.8770 C   0  0  0  0  0  0  0  0  0  0  0  0
   46.3940   35.5980   42.6960 N   0  0  0  0  0  0  0  0  0  0  0  0
   43.9660   35.8150   45.0170 H   0  0  0  0  0  0  0  0  0  0  0  0
   44.6320   33.4260   45.3280 H   0  0  0  0  0  0  0  0  0  0  0  0
   45.8710   33.3380   40.1480 Cl  0  0  0  0  0  0  0  0  0  0  0  0
   47.4570   33.1960   40.8150 C   0  0  0  0  0  0  0  0  0  0  0  0
   47.7960   33.6660   42.0940 C   0  0  0  0  0  0  0  0  0  0  0  0
   49.0450   33.5630   42.6350 C   0  0  0  0  0  0  0  0  0  0  0  0
   50.0130   32.9620   41.8700 C   0  0  0  0  0  0  0  0  0  0  0  0
   49.7970   32.4590   40.5920 C   0  0  0  0  0  0  0  0  0  0  0  0
   48.5060   32.6030   40.1180 C   0  0  0  0  0  0  0  0  0  0  0  0
   49.2740   33.9360   43.6230 H   0  0  0  0  0  0  0  0  0  0  0  0
   51.0270   32.8550   42.2500 H   0  0  0  0  0  0  0  0  0  0  0  0
   50.5390   31.9890   39.9830 H   0  0  0  0  0  0  0  0  0  0  0  0
   48.2320   32.2370   39.1150 H   0  0  0  0  0  0  0  0  0  0  0  0
   45.0290   37.5530   43.2460 C   0  0  0  0  0  3  0  0  0  0  0  0
   45.7450   38.4800   43.8450 C   0  0  0  0  0  3  0  0  0  0  0  0
   45.3660   39.9120   43.6540 C   0  0  0  0  0  0  0  0  0  0  0  0
   44.4740   39.9250   43.0000 H   0  0  0  0  0  0  0  0  0  0  0  0
   46.1670   40.4850   43.1620 H   0  0  0  0  0  0  0  0  0  0  0  0
   44.4330   42.8780   43.4280 Br  0  0  0  0  0  0  0  0  0  0  0  0
   44.5440   41.8750   45.0490 C   0  0  0  0  0  0  0  0  0  0  0  0
   44.9920   40.5670   44.9130 C   0  0  0  0  0  0  0  0  0  0  0  0
   45.0830   39.8140   46.0900 C   0  0  0  0  0  0  0  0  0  0  0  0
   45.4320   38.7750   46.0250 H   0  0  0  0  0  0  0  0  0  0  0  0
   44.7490   40.3380   47.3190 C   0  0  0  0  0  0  0  0  0  0  0  0
   44.8450   39.6930   48.1940 H   0  0  0  0  0  0  0  0  0  0  0  0
   44.3090   41.6480   47.4040 C   0  0  0  0  0  3  0  0  0  0  0  0
   44.1970   42.4490   46.2580 C   0  0  0  0  0  3  0  0  0  0  0  0
  1  2  1  0  0  0  0
  2  3  2  0  0  0  0
  2  7  1  0  0  0  0
  3  8  1  0  0  0  0
  4  3  1  0  0  0  0
  5  4  2  0  0  0  0
  6  5  1  0  0  0  0
  6  1  2  0  0  0  0
  9 10  1  0  0  0  0
 10 11  1  0  0  0  0
 11 12  2  0  0  0  0
 11  5  1  0  0  0  0
 12 16  1  0  0  0  0
 13 17  1  0  0  0  0
 13 12  1  0  0  0  0
 14 13  2  0  0  0  0
 15 14  1  0  0  0  0
 15 10  2  0  0  0  0
 18 14  1  0  0  0  0
 19 15  1  0  0  0  0
 20  1  1  0  0  0  0
 20 21  2  0  0  0  0
 22 21  1  0  0  0  0
 22 27  1  0  0  0  0
 23 22  1  0  0  0  0
 24 22  1  0  0  0  0
 25 26  1  0  0  0  0
 26 33  1  0  0  0  0
 27 26  2  0  0  0  0
 27 28  1  0  0  0  0
 28 30  2  0  0  0  0
 29 28  1  0  0  0  0
 30 32  1  0  0  0  0
 30 31  1  0  0  0  0
 33 32  2  0  0  0  0
M  END
>  <minimizedAffinity>
-1.53640878

>  <minimizedRMSD>
2.25641823

$$$$
