
 OpenBabel03242521423D

 34 36  0  0  1  0  0  0  0  0999 V2000
   44.7360   35.2270   42.5740 C   0  0  0  0  0  0  0  0  0  0  0  0
   45.8820   34.4310   42.3790 C   0  0  0  0  0  0  0  0  0  0  0  0
   46.5550   33.9480   43.5020 C   0  0  0  0  0  0  0  0  0  0  0  0
   46.0760   34.2650   44.7150 N   0  0  0  0  0  0  0  0  0  0  0  0
   44.9680   35.0350   44.8760 C   0  0  0  0  0  0  0  0  0  0  0  0
   44.3080   35.5090   43.7950 N   0  0  0  0  0  0  0  0  0  0  0  0
   46.1580   34.2510   41.3560 H   0  0  0  0  0  0  0  0  0  0  0  0
   44.6220   35.2630   45.8890 H   0  0  0  0  0  0  0  0  0  0  0  0
   48.8640   33.8510   42.5850 C   0  0  2  0  0  0  0  0  0  0  0  0
   47.7320   33.1300   43.2580 C   0  0  2  0  0  0  0  0  0  0  0  0
   47.5270   32.0710   42.3520 O   0  0  0  0  0  0  0  0  0  0  0  0
   48.7900   31.5560   42.1610 C   0  0  0  0  0  0  0  0  0  0  0  0
   49.8060   32.6510   42.3680 C   0  0  1  0  0  0  0  0  0  0  0  0
   48.5900   34.1850   41.5660 H   0  0  0  0  0  0  0  0  0  0  0  0
   48.1310   32.6690   44.2080 H   0  0  0  0  0  0  0  0  0  0  0  0
   48.8680   31.2200   41.1060 H   0  0  0  0  0  0  0  0  0  0  0  0
   49.0050   30.6800   42.8100 H   0  0  0  0  0  0  0  0  0  0  0  0
   50.3940   32.5200   43.2920 H   0  0  0  0  0  0  0  0  0  0  0  0
   49.4150   34.8450   43.3560 O   0  0  0  0  0  0  0  0  0  0  0  0
   49.4630   35.7120   42.8720 H   0  0  0  0  0  0  0  0  0  0  0  0
   50.6080   32.8870   41.2660 O   0  0  0  0  0  0  0  0  0  0  0  0
   50.9640   33.8060   41.3430 H   0  0  0  0  0  0  0  0  0  0  0  0
   44.0180   35.7570   41.3620 C   0  0  0  0  0  0  0  0  0  0  0  0
   44.7340   35.6760   40.5250 H   0  0  0  0  0  0  0  0  0  0  0  0
   43.7800   36.8430   41.5230 H   0  0  0  0  0  0  0  0  0  0  0  0
   44.2570   33.3420   39.3480 Br  0  0  0  0  0  0  0  0  0  0  0  0
   42.6900   33.9170   40.2570 C   0  0  0  0  0  0  0  0  0  0  0  0
   42.7680   34.9960   41.1060 C   0  0  0  0  0  0  0  0  0  0  0  0
   41.5900   35.3800   41.7530 C   0  0  0  0  0  0  0  0  0  0  0  0
   41.5780   36.2270   42.4400 H   0  0  0  0  0  0  0  0  0  0  0  0
   40.3910   34.7240   41.5640 C   0  0  0  0  0  0  0  0  0  0  0  0
   39.5010   35.0770   42.1010 H   0  0  0  0  0  0  0  0  0  0  0  0
   40.3490   33.6310   40.6940 C   0  0  0  0  0  3  0  0  0  0  0  0
   41.5150   33.2330   40.0400 C   0  0  0  0  0  3  0  0  0  0  0  0
  1  6  1  0  0  0  0
  2  1  2  0  0  0  0
  2  3  1  0  0  0  0
  3  4  2  0  0  0  0
  4  5  1  0  0  0  0
  5  8  1  0  0  0  0
  6  5  2  0  0  0  0
  7  2  1  0  0  0  0
  9 14  1  6  0  0  0
  9 10  1  0  0  0  0
  9 19  1  0  0  0  0
 10  3  1  0  0  0  0
 10 15  1  1  0  0  0
 11 10  1  0  0  0  0
 12 11  1  0  0  0  0
 12 13  1  0  0  0  0
 12 17  1  0  0  0  0
 13  9  1  0  0  0  0
 13 18  1  1  0  0  0
 16 12  1  0  0  0  0
 20 19  1  0  0  0  0
 21 22  1  0  0  0  0
 21 13  1  0  0  0  0
 23 25  1  0  0  0  0
 23  1  1  0  0  0  0
 24 23  1  0  0  0  0
 26 27  1  0  0  0  0
 27 28  1  0  0  0  0
 28 23  1  0  0  0  0
 28 29  2  0  0  0  0
 29 30  1  0  0  0  0
 31 29  1  0  0  0  0
 31 32  1  0  0  0  0
 33 31  2  0  0  0  0
 34 27  2  0  0  0  0
 34 33  1  0  0  0  0
M  END
>  <minimizedAffinity>
-5.49415255

>  <minimizedRMSD>
1.38398373

$$$$
