
 OpenBabel03242517353D

 23 24  0  0  0  0  0  0  0  0999 V2000
   42.2830   35.5820   40.2050 C   0  0  0  0  0  0  0  0  0  0  0  0
   43.0710   35.3670   39.4560 H   0  0  0  0  0  0  0  0  0  0  0  0
   42.2280   36.6900   40.2530 H   0  0  0  0  0  0  0  0  0  0  0  0
   41.3130   36.2430   37.2980 Br  0  0  0  0  0  0  0  0  0  0  0  0
   40.4010   35.1670   38.5690 C   0  0  0  0  0  0  0  0  0  0  0  0
   40.9900   34.9910   39.8000 C   0  0  0  0  0  0  0  0  0  0  0  0
   40.3210   34.2050   40.7260 C   0  0  0  0  0  0  0  0  0  0  0  0
   40.7740   34.0510   41.7160 H   0  0  0  0  0  0  0  0  0  0  0  0
   39.1170   33.5880   40.5080 C   0  0  0  0  0  0  0  0  0  0  0  0
   38.6170   32.9860   41.2340 H   0  0  0  0  0  0  0  0  0  0  0  0
   38.5920   33.8160   39.2420 C   0  0  0  0  0  0  0  0  0  0  0  0
   39.1770   34.5850   38.2430 C   0  0  0  0  0  0  0  0  0  0  0  0
   43.9170   35.2950   42.0230 C   0  0  0  0  0  0  0  0  0  0  0  0
   42.7020   35.0990   41.5670 C   0  0  0  0  0  0  0  0  0  0  0  0
   44.3020   35.6480   44.4610 C   0  0  0  0  0  0  0  0  0  0  0  0
   44.4360   34.8780   43.3090 C   0  0  0  0  0  0  0  0  0  0  0  0
   45.0950   33.6660   43.4130 C   0  0  0  0  0  0  0  0  0  0  0  0
   45.5900   33.2640   44.6240 N   0  0  0  0  0  0  0  0  0  0  0  0
   45.4390   34.0450   45.7280 C   0  0  0  0  0  0  0  0  0  0  0  0
   44.7990   35.2260   45.6320 N   0  0  0  0  0  0  0  0  0  0  0  0
   43.7710   36.5830   44.2860 H   0  0  0  0  0  0  0  0  0  0  0  0
   45.2080   33.0630   42.5460 H   0  0  0  0  0  0  0  0  0  0  0  0
   45.7950   33.8060   46.7130 H   0  0  0  0  0  0  0  0  0  0  0  0
  1  3  1  0  0  0  0
  1 14  1  0  0  0  0
  2  1  1  0  0  0  0
  4  5  1  0  0  0  0
  5  6  1  0  0  0  0
  6  1  1  0  0  0  0
  6  7  2  0  0  0  0
  7  8  1  0  0  0  0
  9  7  1  0  0  0  0
  9 10  1  0  0  0  0
 11  9  2  0  0  0  0
 12  5  2  0  0  0  0
 12 11  1  0  0  0  0
 13 16  1  0  0  0  0
 14 13  2  0  0  0  0
 15 20  1  0  0  0  0
 16 17  1  0  0  0  0
 16 15  2  0  0  0  0
 17 18  2  0  0  0  0
 18 19  1  0  0  0  0
 19 23  1  0  0  0  0
 20 19  2  0  0  0  0
 21 15  1  0  0  0  0
 22 17  1  0  0  0  0
M  END
>  <minimizedAffinity>
-5.23888493

>  <minimizedRMSD>
1.24478126

$$$$
