
 OpenBabel03242522343D

 21 22  0  0  0  0  0  0  0  0999 V2000
   36.2050   30.6750   41.0250 C   0  0  0  0  0  0  0  0  0  0  0  0
   36.4290   31.6350   41.5790 H   0  0  0  0  0  0  0  0  0  0  0  0
   35.1170   30.5450   41.1180 H   0  0  0  0  0  0  0  0  0  0  0  0
   37.1140   27.4750   42.7240 C   0  0  0  0  0  0  0  0  0  0  0  0
   38.4090   27.7470   43.1730 C   0  0  0  0  0  0  0  0  0  0  0  0
   38.9400   29.0000   42.8900 C   0  0  0  0  0  0  0  0  0  0  0  0
   38.1960   29.9040   42.2000 N   0  0  0  0  0  0  0  0  0  0  0  0
   36.9260   29.6030   41.7740 C   0  0  0  0  0  0  0  0  0  0  0  0
   36.4200   28.3880   42.0510 N   0  0  0  0  0  0  0  0  0  0  0  0
   36.6170   26.5160   42.9020 H   0  0  0  0  0  0  0  0  0  0  0  0
   38.9360   26.9740   43.7160 H   0  0  0  0  0  0  0  0  0  0  0  0
   39.9350   29.2320   43.2250 H   0  0  0  0  0  0  0  0  0  0  0  0
   38.0100   33.1090   40.1300 Br  0  0  0  0  0  0  0  0  0  0  0  0
   37.3560   31.6940   38.9980 C   0  0  0  0  0  0  0  0  0  0  0  0
   36.5800   30.7340   39.6110 C   0  0  0  0  0  0  0  0  0  0  0  0
   36.1280   29.7290   38.7490 C   0  0  0  0  0  0  0  0  0  0  0  0
   35.5040   28.9360   39.1890 H   0  0  0  0  0  0  0  0  0  0  0  0
   36.4210   29.6840   37.4030 C   0  0  0  0  0  0  0  0  0  0  0  0
   36.0160   28.8560   36.8360 H   0  0  0  0  0  0  0  0  0  0  0  0
   37.2010   30.6790   36.8670 C   0  0  0  0  0  3  0  0  0  0  0  0
   37.6860   31.7080   37.6600 C   0  0  0  0  0  3  0  0  0  0  0  0
  1  3  1  0  0  0  0
  1  2  1  0  0  0  0
  1  8  1  0  0  0  0
  4 10  1  0  0  0  0
  4  5  1  0  0  0  0
  5 11  1  0  0  0  0
  6  5  2  0  0  0  0
  6 12  1  0  0  0  0
  7  6  1  0  0  0  0
  8  9  1  0  0  0  0
  8  7  2  0  0  0  0
  9  4  2  0  0  0  0
 14 15  1  0  0  0  0
 14 13  1  0  0  0  0
 15  1  1  0  0  0  0
 16 17  1  0  0  0  0
 16 15  2  0  0  0  0
 18 16  1  0  0  0  0
 19 18  1  0  0  0  0
 20 18  2  0  0  0  0
 20 21  1  0  0  0  0
 21 14  2  0  0  0  0
M  END
>  <minimizedAffinity>
-4.58745527

$$$$

 OpenBabel03242522343D

 21 22  0  0  0  0  0  0  0  0999 V2000
   36.8130   27.3810   42.9200 C   0  0  0  0  0  0  0  0  0  0  0  0
   35.9470   26.6650   42.7950 H   0  0  0  0  0  0  0  0  0  0  0  0
   36.6190   27.8940   43.8730 H   0  0  0  0  0  0  0  0  0  0  0  0
   36.3380   28.8970   39.5400 C   0  0  0  0  0  0  0  0  0  0  0  0
   36.5630   30.2510   39.7990 C   0  0  0  0  0  0  0  0  0  0  0  0
   36.8670   30.6160   41.1050 C   0  0  0  0  0  0  0  0  0  0  0  0
   36.9370   29.6610   42.0690 N   0  0  0  0  0  0  0  0  0  0  0  0
   36.7090   28.3380   41.7790 C   0  0  0  0  0  0  0  0  0  0  0  0
   36.4150   27.9950   40.5130 N   0  0  0  0  0  0  0  0  0  0  0  0
   36.0930   28.5200   38.5410 H   0  0  0  0  0  0  0  0  0  0  0  0
   36.4900   30.9500   38.9760 H   0  0  0  0  0  0  0  0  0  0  0  0
   37.0440   31.6530   41.3290 H   0  0  0  0  0  0  0  0  0  0  0  0
   36.9580   24.4840   41.6670 Br  0  0  0  0  0  0  0  0  0  0  0  0
   38.4080   25.4430   42.4980 C   0  0  0  0  0  0  0  0  0  0  0  0
   38.1090   26.7000   42.9780 C   0  0  0  0  0  0  0  0  0  0  0  0
   39.1920   27.3570   43.5720 C   0  0  0  0  0  0  0  0  0  0  0  0
   39.0070   28.3660   43.9700 H   0  0  0  0  0  0  0  0  0  0  0  0
   40.4540   26.8130   43.6780 C   0  0  0  0  0  0  0  0  0  0  0  0
   41.2140   27.4170   44.1570 H   0  0  0  0  0  0  0  0  0  0  0  0
   40.6710   25.5540   43.1760 C   0  0  0  0  0  3  0  0  0  0  0  0
   39.6450   24.8420   42.5720 C   0  0  0  0  0  3  0  0  0  0  0  0
  1 15  1  0  0  0  0
  1  3  1  0  0  0  0
  2  1  1  0  0  0  0
  4  5  2  0  0  0  0
  4  9  1  0  0  0  0
  5  6  1  0  0  0  0
  6 12  1  0  0  0  0
  6  7  2  0  0  0  0
  8  7  1  0  0  0  0
  8  1  1  0  0  0  0
  9  8  2  0  0  0  0
 10  4  1  0  0  0  0
 11  5  1  0  0  0  0
 13 14  1  0  0  0  0
 14 21  2  0  0  0  0
 14 15  1  0  0  0  0
 15 16  2  0  0  0  0
 16 18  1  0  0  0  0
 16 17  1  0  0  0  0
 18 19  1  0  0  0  0
 20 18  2  0  0  0  0
 21 20  1  0  0  0  0
M  END
>  <minimizedAffinity>
-4.49940872

$$$$

 OpenBabel03242522343D

 21 22  0  0  0  0  0  0  0  0999 V2000
   35.6370   29.6190   40.5840 C   0  0  0  0  0  0  0  0  0  0  0  0
   35.0560   30.3570   41.2130 H   0  0  0  0  0  0  0  0  0  0  0  0
   34.8830   28.9090   40.2140 H   0  0  0  0  0  0  0  0  0  0  0  0
   38.1530   28.9090   43.2520 C   0  0  0  0  0  0  0  0  0  0  0  0
   38.2560   27.5160   43.1850 C   0  0  0  0  0  0  0  0  0  0  0  0
   37.4750   26.8560   42.2440 C   0  0  0  0  0  0  0  0  0  0  0  0
   36.6520   27.5730   41.4330 N   0  0  0  0  0  0  0  0  0  0  0  0
   36.5760   28.9410   41.5270 C   0  0  0  0  0  0  0  0  0  0  0  0
   37.3340   29.5710   42.4400 N   0  0  0  0  0  0  0  0  0  0  0  0
   38.7300   29.5090   43.9620 H   0  0  0  0  0  0  0  0  0  0  0  0
   38.9350   27.0190   43.8650 H   0  0  0  0  0  0  0  0  0  0  0  0
   37.5370   25.7850   42.1740 H   0  0  0  0  0  0  0  0  0  0  0  0
   35.7110   27.9950   37.8750 Br  0  0  0  0  0  0  0  0  0  0  0  0
   36.4760   29.7360   38.1850 C   0  0  0  0  0  0  0  0  0  0  0  0
   36.3210   30.2510   39.4540 C   0  0  0  0  0  0  0  0  0  0  0  0
   36.8930   31.5160   39.6310 C   0  0  0  0  0  0  0  0  0  0  0  0
   36.7960   31.9730   40.6260 H   0  0  0  0  0  0  0  0  0  0  0  0
   37.5580   32.2030   38.6370 C   0  0  0  0  0  0  0  0  0  0  0  0
   37.9570   33.1760   38.8920 H   0  0  0  0  0  0  0  0  0  0  0  0
   37.6700   31.6210   37.3990 C   0  0  0  0  0  3  0  0  0  0  0  0
   37.1280   30.3690   37.1490 C   0  0  0  0  0  3  0  0  0  0  0  0
  1  2  1  0  0  0  0
  1  8  1  0  0  0  0
  3  1  1  0  0  0  0
  4 10  1  0  0  0  0
  5  4  1  0  0  0  0
  5 11  1  0  0  0  0
  6  5  2  0  0  0  0
  7  8  2  0  0  0  0
  7  6  1  0  0  0  0
  8  9  1  0  0  0  0
  9  4  2  0  0  0  0
 12  6  1  0  0  0  0
 13 14  1  0  0  0  0
 14 15  1  0  0  0  0
 15 16  2  0  0  0  0
 15  1  1  0  0  0  0
 16 17  1  0  0  0  0
 18 19  1  0  0  0  0
 18 16  1  0  0  0  0
 20 18  2  0  0  0  0
 21 20  1  0  0  0  0
 21 14  2  0  0  0  0
M  END
>  <minimizedAffinity>
-4.46800756

$$$$

 OpenBabel03242522343D

 21 22  0  0  0  0  0  0  0  0999 V2000
   35.5320   29.0010   40.7520 C   0  0  0  0  0  0  0  0  0  0  0  0
   34.8820   28.5140   39.9650 H   0  0  0  0  0  0  0  0  0  0  0  0
   34.8260   29.3820   41.5030 H   0  0  0  0  0  0  0  0  0  0  0  0
   37.1370   31.1980   38.1930 C   0  0  0  0  0  0  0  0  0  0  0  0
   37.4980   32.3110   38.9570 C   0  0  0  0  0  0  0  0  0  0  0  0
   37.1910   32.2900   40.3120 C   0  0  0  0  0  0  0  0  0  0  0  0
   36.5620   31.2080   40.8410 N   0  0  0  0  0  0  0  0  0  0  0  0
   36.2200   30.1310   40.0600 C   0  0  0  0  0  0  0  0  0  0  0  0
   36.5210   30.1600   38.7500 N   0  0  0  0  0  0  0  0  0  0  0  0
   37.3400   31.1280   37.1190 H   0  0  0  0  0  0  0  0  0  0  0  0
   37.9980   33.1320   38.4610 H   0  0  0  0  0  0  0  0  0  0  0  0
   37.4590   33.1350   40.9200 H   0  0  0  0  0  0  0  0  0  0  0  0
   36.3750   26.4780   39.0470 Br  0  0  0  0  0  0  0  0  0  0  0  0
   36.9700   26.9030   40.8300 C   0  0  0  0  0  0  0  0  0  0  0  0
   36.4650   28.0620   41.3780 C   0  0  0  0  0  0  0  0  0  0  0  0
   36.9250   28.3290   42.6730 C   0  0  0  0  0  0  0  0  0  0  0  0
   36.5530   29.2440   43.1570 H   0  0  0  0  0  0  0  0  0  0  0  0
   37.8050   27.5170   43.3570 C   0  0  0  0  0  0  0  0  0  0  0  0
   38.0910   27.8270   44.3530 H   0  0  0  0  0  0  0  0  0  0  0  0
   38.2620   26.3780   42.7400 C   0  0  0  0  0  3  0  0  0  0  0  0
   37.8500   26.0490   41.4570 C   0  0  0  0  0  3  0  0  0  0  0  0
  1 15  1  0  0  0  0
  1  3  1  0  0  0  0
  2  1  1  0  0  0  0
  4  9  2  0  0  0  0
  4  5  1  0  0  0  0
  5  6  2  0  0  0  0
  6  7  1  0  0  0  0
  6 12  1  0  0  0  0
  8  1  1  0  0  0  0
  8  7  2  0  0  0  0
  9  8  1  0  0  0  0
 10  4  1  0  0  0  0
 11  5  1  0  0  0  0
 13 14  1  0  0  0  0
 14 15  2  0  0  0  0
 14 21  1  0  0  0  0
 15 16  1  0  0  0  0
 16 17  1  0  0  0  0
 16 18  2  0  0  0  0
 18 19  1  0  0  0  0
 20 18  1  0  0  0  0
 21 20  2  0  0  0  0
M  END
>  <minimizedAffinity>
-4.46328974

$$$$

 OpenBabel03242522343D

 21 22  0  0  0  0  0  0  0  0999 V2000
   38.0050   28.4930   43.3070 C   0  0  0  0  0  0  0  0  0  0  0  0
   37.1290   28.7020   43.9900 H   0  0  0  0  0  0  0  0  0  0  0  0
   38.8880   28.8190   43.8740 H   0  0  0  0  0  0  0  0  0  0  0  0
   36.5320   30.7660   40.7340 C   0  0  0  0  0  0  0  0  0  0  0  0
   37.6060   30.9390   39.8570 C   0  0  0  0  0  0  0  0  0  0  0  0
   38.7950   30.2860   40.1560 C   0  0  0  0  0  0  0  0  0  0  0  0
   38.8740   29.5130   41.2710 N   0  0  0  0  0  0  0  0  0  0  0  0
   37.7990   29.3660   42.1120 C   0  0  0  0  0  0  0  0  0  0  0  0
   36.6530   30.0020   41.8150 N   0  0  0  0  0  0  0  0  0  0  0  0
   35.5590   31.2420   40.5770 H   0  0  0  0  0  0  0  0  0  0  0  0
   37.4620   31.5690   38.9890 H   0  0  0  0  0  0  0  0  0  0  0  0
   39.6350   30.4040   39.4950 H   0  0  0  0  0  0  0  0  0  0  0  0
   40.8570   27.1850   43.6800 Br  0  0  0  0  0  0  0  0  0  0  0  0
   39.2680   26.3000   43.0450 C   0  0  0  0  0  0  0  0  0  0  0  0
   38.1320   27.0750   42.9620 C   0  0  0  0  0  0  0  0  0  0  0  0
   37.0040   26.3890   42.4960 C   0  0  0  0  0  0  0  0  0  0  0  0
   36.0690   26.9630   42.4120 H   0  0  0  0  0  0  0  0  0  0  0  0
   37.0090   25.0560   42.1450 C   0  0  0  0  0  0  0  0  0  0  0  0
   36.0750   24.6330   41.7990 H   0  0  0  0  0  0  0  0  0  0  0  0
   38.1820   24.3520   42.2560 C   0  0  0  0  0  3  0  0  0  0  0  0
   39.3400   24.9650   42.7110 C   0  0  0  0  0  3  0  0  0  0  0  0
  1  3  1  0  0  0  0
  1  2  1  0  0  0  0
  4  9  1  0  0  0  0
  5  6  1  0  0  0  0
  5  4  2  0  0  0  0
  6  7  2  0  0  0  0
  7  8  1  0  0  0  0
  8  1  1  0  0  0  0
  9  8  2  0  0  0  0
 10  4  1  0  0  0  0
 11  5  1  0  0  0  0
 12  6  1  0  0  0  0
 14 13  1  0  0  0  0
 15 14  1  0  0  0  0
 15  1  1  0  0  0  0
 16 15  2  0  0  0  0
 17 16  1  0  0  0  0
 18 20  2  0  0  0  0
 18 16  1  0  0  0  0
 19 18  1  0  0  0  0
 20 21  1  0  0  0  0
 21 14  2  0  0  0  0
M  END
>  <minimizedAffinity>
-4.43126392

$$$$

 OpenBabel03242522343D

 21 22  0  0  0  0  0  0  0  0999 V2000
   37.3190   28.0990   43.3220 C   0  0  0  0  0  0  0  0  0  0  0  0
   37.9500   28.6580   44.0750 H   0  0  0  0  0  0  0  0  0  0  0  0
   36.3670   27.9100   43.8370 H   0  0  0  0  0  0  0  0  0  0  0  0
   38.2710   24.6970   42.1090 C   0  0  0  0  0  0  0  0  0  0  0  0
   39.5170   24.5160   42.7140 C   0  0  0  0  0  0  0  0  0  0  0  0
   40.0020   25.5440   43.5130 C   0  0  0  0  0  0  0  0  0  0  0  0
   39.2620   26.6720   43.6780 N   0  0  0  0  0  0  0  0  0  0  0  0
   38.0410   26.8170   43.0670 C   0  0  0  0  0  0  0  0  0  0  0  0
   37.5800   25.8170   42.2960 N   0  0  0  0  0  0  0  0  0  0  0  0
   37.8120   23.9400   41.4650 H   0  0  0  0  0  0  0  0  0  0  0  0
   40.0450   23.5880   42.5340 H   0  0  0  0  0  0  0  0  0  0  0  0
   40.9600   25.4270   43.9890 H   0  0  0  0  0  0  0  0  0  0  0  0
   39.4560   30.3070   42.5830 Br  0  0  0  0  0  0  0  0  0  0  0  0
   37.8670   29.8740   41.5820 C   0  0  0  0  0  0  0  0  0  0  0  0
   37.0770   28.8700   42.1000 C   0  0  0  0  0  0  0  0  0  0  0  0
   35.9360   28.5920   41.3390 C   0  0  0  0  0  0  0  0  0  0  0  0
   35.2710   27.7970   41.7080 H   0  0  0  0  0  0  0  0  0  0  0  0
   35.6120   29.2520   40.1730 C   0  0  0  0  0  0  0  0  0  0  0  0
   34.7030   28.9490   39.6700 H   0  0  0  0  0  0  0  0  0  0  0  0
   36.4510   30.2420   39.7240 C   0  0  0  0  0  3  0  0  0  0  0  0
   37.6010   30.5730   40.4250 C   0  0  0  0  0  3  0  0  0  0  0  0
  1  3  1  0  0  0  0
  1  2  1  0  0  0  0
  4  9  2  0  0  0  0
  4  5  1  0  0  0  0
  5  6  2  0  0  0  0
  6  7  1  0  0  0  0
  6 12  1  0  0  0  0
  8  1  1  0  0  0  0
  8  7  2  0  0  0  0
  9  8  1  0  0  0  0
 10  4  1  0  0  0  0
 11  5  1  0  0  0  0
 14 15  1  0  0  0  0
 14 13  1  0  0  0  0
 15  1  1  0  0  0  0
 16 17  1  0  0  0  0
 16 15  2  0  0  0  0
 18 16  1  0  0  0  0
 19 18  1  0  0  0  0
 20 18  2  0  0  0  0
 20 21  1  0  0  0  0
 21 14  2  0  0  0  0
M  END
>  <minimizedAffinity>
-4.3408618

$$$$

 OpenBabel03242522343D

 21 22  0  0  0  0  0  0  0  0999 V2000
   39.4230   30.9800   42.1220 C   0  0  0  0  0  0  0  0  0  0  0  0
   39.0730   31.7870   42.8330 H   0  0  0  0  0  0  0  0  0  0  0  0
   40.4980   31.1660   41.9920 H   0  0  0  0  0  0  0  0  0  0  0  0
   37.1140   32.3250   39.5120 C   0  0  0  0  0  0  0  0  0  0  0  0
   37.4470   31.5420   38.4040 C   0  0  0  0  0  0  0  0  0  0  0  0
   38.4400   30.5840   38.5660 C   0  0  0  0  0  0  0  0  0  0  0  0
   39.0430   30.4410   39.7760 N   0  0  0  0  0  0  0  0  0  0  0  0
   38.6910   31.2280   40.8440 C   0  0  0  0  0  0  0  0  0  0  0  0
   37.7300   32.1530   40.6770 N   0  0  0  0  0  0  0  0  0  0  0  0
   36.3440   33.1030   39.4740 H   0  0  0  0  0  0  0  0  0  0  0  0
   36.9200   31.7170   37.4750 H   0  0  0  0  0  0  0  0  0  0  0  0
   38.7140   29.9690   37.7270 H   0  0  0  0  0  0  0  0  0  0  0  0
   41.9640   29.1140   42.3150 Br  0  0  0  0  0  0  0  0  0  0  0  0
   40.1650   28.6490   42.8230 C   0  0  0  0  0  0  0  0  0  0  0  0
   39.2120   29.6290   42.6470 C   0  0  0  0  0  0  0  0  0  0  0  0
   37.9210   29.2460   43.0280 C   0  0  0  0  0  0  0  0  0  0  0  0
   37.1220   29.9930   42.9100 H   0  0  0  0  0  0  0  0  0  0  0  0
   37.6090   28.0030   43.5360 C   0  0  0  0  0  0  0  0  0  0  0  0
   36.5750   27.8210   43.7980 H   0  0  0  0  0  0  0  0  0  0  0  0
   38.6160   27.0800   43.6800 C   0  0  0  0  0  3  0  0  0  0  0  0
   39.9200   27.3890   43.3230 C   0  0  0  0  0  3  0  0  0  0  0  0
  1 15  1  0  0  0  0
  1  2  1  0  0  0  0
  3  1  1  0  0  0  0
  4  9  1  0  0  0  0
  5  6  1  0  0  0  0
  5  4  2  0  0  0  0
  6  7  2  0  0  0  0
  7  8  1  0  0  0  0
  8  1  1  0  0  0  0
  9  8  2  0  0  0  0
 10  4  1  0  0  0  0
 11  5  1  0  0  0  0
 12  6  1  0  0  0  0
 13 14  1  0  0  0  0
 14 21  1  0  0  0  0
 15 14  2  0  0  0  0
 15 16  1  0  0  0  0
 16 18  2  0  0  0  0
 17 16  1  0  0  0  0
 18 20  1  0  0  0  0
 18 19  1  0  0  0  0
 21 20  2  0  0  0  0
M  END
>  <minimizedAffinity>
-4.25912285

$$$$

 OpenBabel03242522343D

 21 22  0  0  0  0  0  0  0  0999 V2000
   36.6890   30.4220   41.2970 C   0  0  0  0  0  0  0  0  0  0  0  0
   35.6040   30.5860   41.5690 H   0  0  0  0  0  0  0  0  0  0  0  0
   37.1970   31.3510   41.5940 H   0  0  0  0  0  0  0  0  0  0  0  0
   35.8200   29.5710   37.7660 C   0  0  0  0  0  0  0  0  0  0  0  0
   36.9260   30.0670   37.0710 C   0  0  0  0  0  0  0  0  0  0  0  0
   37.9330   30.6740   37.8100 C   0  0  0  0  0  0  0  0  0  0  0  0
   37.8120   30.7640   39.1610 N   0  0  0  0  0  0  0  0  0  0  0  0
   36.7100   30.2660   39.8120 C   0  0  0  0  0  0  0  0  0  0  0  0
   35.7410   29.6800   39.0880 N   0  0  0  0  0  0  0  0  0  0  0  0
   34.9810   29.0770   37.2640 H   0  0  0  0  0  0  0  0  0  0  0  0
   36.9470   29.9560   35.9950 H   0  0  0  0  0  0  0  0  0  0  0  0
   38.7940   31.0640   37.2970 H   0  0  0  0  0  0  0  0  0  0  0  0
   39.6250   30.8080   42.3990 Br  0  0  0  0  0  0  0  0  0  0  0  0
   38.5420   29.2230   42.5620 C   0  0  0  0  0  0  0  0  0  0  0  0
   37.2860   29.2840   41.9990 C   0  0  0  0  0  0  0  0  0  0  0  0
   36.5380   28.1100   42.1420 C   0  0  0  0  0  0  0  0  0  0  0  0
   35.5260   28.1060   41.7120 H   0  0  0  0  0  0  0  0  0  0  0  0
   36.9980   26.9810   42.7860 C   0  0  0  0  0  0  0  0  0  0  0  0
   36.3290   26.1330   42.8350 H   0  0  0  0  0  0  0  0  0  0  0  0
   38.2630   26.9990   43.3200 C   0  0  0  0  0  3  0  0  0  0  0  0
   39.0630   28.1280   43.2170 C   0  0  0  0  0  3  0  0  0  0  0  0
  1  2  1  0  0  0  0
  1  3  1  0  0  0  0
  1 15  1  0  0  0  0
  4  9  1  0  0  0  0
  5  4  2  0  0  0  0
  5  6  1  0  0  0  0
  6  7  2  0  0  0  0
  7  8  1  0  0  0  0
  8  1  1  0  0  0  0
  9  8  2  0  0  0  0
 10  4  1  0  0  0  0
 11  5  1  0  0  0  0
 12  6  1  0  0  0  0
 13 14  1  0  0  0  0
 14 21  1  0  0  0  0
 15 16  1  0  0  0  0
 15 14  2  0  0  0  0
 16 18  2  0  0  0  0
 17 16  1  0  0  0  0
 18 19  1  0  0  0  0
 18 20  1  0  0  0  0
 21 20  2  0  0  0  0
M  END
>  <minimizedAffinity>
-4.24726772

$$$$

 OpenBabel03242522343D

 21 22  0  0  0  0  0  0  0  0999 V2000
   39.0960   29.5880   40.5090 C   0  0  0  0  0  0  0  0  0  0  0  0
   39.0550   28.9380   39.5850 H   0  0  0  0  0  0  0  0  0  0  0  0
   40.1580   29.6090   40.7910 H   0  0  0  0  0  0  0  0  0  0  0  0
   37.3840   28.6050   43.6800 C   0  0  0  0  0  0  0  0  0  0  0  0
   36.7770   27.4000   43.3150 C   0  0  0  0  0  0  0  0  0  0  0  0
   36.9600   26.9530   42.0130 C   0  0  0  0  0  0  0  0  0  0  0  0
   37.7120   27.6880   41.1510 N   0  0  0  0  0  0  0  0  0  0  0  0
   38.2940   28.8680   41.5430 C   0  0  0  0  0  0  0  0  0  0  0  0
   38.1100   29.2930   42.8040 N   0  0  0  0  0  0  0  0  0  0  0  0
   37.2930   29.0320   44.6840 H   0  0  0  0  0  0  0  0  0  0  0  0
   36.1950   26.8740   44.0600 H   0  0  0  0  0  0  0  0  0  0  0  0
   36.5030   26.0280   41.7100 H   0  0  0  0  0  0  0  0  0  0  0  0
   36.8230   29.9390   38.3430 Br  0  0  0  0  0  0  0  0  0  0  0  0
   37.6430   31.3430   39.3760 C   0  0  0  0  0  0  0  0  0  0  0  0
   38.6200   30.9520   40.2650 C   0  0  0  0  0  0  0  0  0  0  0  0
   39.1860   32.0050   40.9910 C   0  0  0  0  0  0  0  0  0  0  0  0
   39.9720   31.7470   41.7170 H   0  0  0  0  0  0  0  0  0  0  0  0
   38.8140   33.3250   40.8450 C   0  0  0  0  0  0  0  0  0  0  0  0
   39.3230   34.0530   41.4630 H   0  0  0  0  0  0  0  0  0  0  0  0
   37.8320   33.6330   39.9360 C   0  0  0  0  0  3  0  0  0  0  0  0
   37.2250   32.6410   39.1810 C   0  0  0  0  0  3  0  0  0  0  0  0
  1  3  1  0  0  0  0
  1  8  1  0  0  0  0
  2  1  1  0  0  0  0
  4 10  1  0  0  0  0
  5  4  1  0  0  0  0
  5 11  1  0  0  0  0
  6  5  2  0  0  0  0
  7  8  2  0  0  0  0
  7  6  1  0  0  0  0
  8  9  1  0  0  0  0
  9  4  2  0  0  0  0
 12  6  1  0  0  0  0
 13 14  1  0  0  0  0
 14 15  1  0  0  0  0
 15  1  1  0  0  0  0
 15 16  2  0  0  0  0
 16 17  1  0  0  0  0
 18 16  1  0  0  0  0
 18 19  1  0  0  0  0
 20 18  2  0  0  0  0
 21 14  2  0  0  0  0
 21 20  1  0  0  0  0
M  END
>  <minimizedAffinity>
-4.24234104

$$$$
