
     RDKit          3D

 37 39  0  0  0  0  0  0  0  0999 V2000
   46.8077   34.1076   43.0588 C   0  0  0  0  0  0  0  0  0  0  0  0
   45.6365   33.7095   42.4348 C   0  0  0  0  0  0  0  0  0  0  0  0
   44.9080   32.6602   43.0253 C   0  0  0  0  0  0  0  0  0  0  0  0
   45.3775   32.0942   44.1612 N   0  0  0  0  0  0  0  0  0  0  0  0
   46.5175   32.5091   44.7352 C   0  0  0  0  0  0  0  0  0  0  0  0
   47.2382   33.5186   44.1858 N   0  0  0  0  0  0  0  0  0  0  0  0
   47.6617   29.9151   44.8026 F   0  0  0  0  0  0  0  0  0  0  0  0
   47.5909   30.6404   45.9629 C   0  0  0  0  0  0  0  0  0  0  0  0
   47.0387   31.9079   45.9631 C   0  0  0  0  0  0  0  0  0  0  0  0
   47.0088   32.5680   47.1824 C   0  0  0  0  0  0  0  0  0  0  0  0
   47.5028   31.9903   48.3296 C   0  0  0  0  0  0  0  0  0  0  0  0
   48.0443   30.7177   48.2684 C   0  0  0  0  0  0  0  0  0  0  0  0
   48.1054   30.0021   47.0818 C   0  0  0  0  0  0  0  0  0  0  0  0
   45.1967   34.3815   41.1975 C   0  0  0  0  0  0  0  0  0  0  0  0
   44.9056   35.7064   41.4560 F   0  0  0  0  0  0  0  0  0  0  0  0
   46.2764   34.3798   40.3094 F   0  0  0  0  0  0  0  0  0  0  0  0
   44.1349   33.8236   40.5794 F   0  0  0  0  0  0  0  0  0  0  0  0
   47.5075   35.1187   42.4878 O   0  0  0  0  0  0  0  0  0  0  0  0
   48.8221   35.0455   41.9552 C   0  0  0  0  0  0  0  0  0  0  0  0
   49.7048   35.2866   43.0065 F   0  0  0  0  0  0  0  0  0  0  0  0
   49.0059   33.8349   41.3484 F   0  0  0  0  0  0  0  0  0  0  0  0
   49.0111   36.1073   41.0920 F   0  0  0  0  0  0  0  0  0  0  0  0
   43.9979   32.3456   42.5467 H   0  0  0  0  0  0  0  0  0  0  0  0
   46.5883   33.5659   47.2499 H   0  0  0  0  0  0  0  0  0  0  0  0
   47.4945   32.4776   49.2950 H   0  0  0  0  0  0  0  0  0  0  0  0
   48.4368   30.2515   49.1650 H   0  0  0  0  0  0  0  0  0  0  0  0
   49.9440   29.7812   44.6496 Br  0  0  0  0  0  0  0  0  0  0  0  0
   49.5395   28.4137   45.9351 C   0  0  0  0  0  0  0  0  0  0  0  0
   48.6738   28.6601   47.0049 C   0  0  0  0  0  0  0  0  0  0  0  0
   48.3859   27.6735   47.9268 C   0  0  0  0  0  0  0  0  0  0  0  0
   47.7167   27.8759   48.7476 H   0  0  0  0  0  0  0  0  0  0  0  0
   48.9902   26.4481   47.7383 C   0  0  0  0  0  0  0  0  0  0  0  0
   48.7959   25.6268   48.4430 H   0  0  0  0  0  0  0  0  0  0  0  0
   49.8521   26.1279   46.7128 C   0  0  0  0  0  0  0  0  0  0  0  0
   50.1102   27.1618   45.8072 C   0  0  0  0  0  0  0  0  0  0  0  0
   50.2938   25.1449   46.6213 H   0  0  0  0  0  0  0  0  0  0  0  0
   50.7942   26.9384   44.9772 H   0  0  0  0  0  0  0  0  0  0  0  0
  1  6  2  0
  2  3  2  0
  2  1  1  0
  3  4  1  0
  4  5  2  0
  5  9  1  0
  6  5  1  0
  7  8  1  0
  8 13  2  0
  9  8  1  0
  9 10  2  0
 10 11  1  0
 12 11  2  0
 13 12  1  0
 14 15  1  0
 14  2  1  0
 16 14  1  0
 17 14  1  0
 18  1  1  0
 19 18  1  0
 19 20  1  0
 21 19  1  0
 22 19  1  0
  3 23  1  0
 10 24  1  0
 11 25  1  0
 12 26  1  0
 27 28  1  0
 28 29  2  0
 29 30  1  0
 30 31  1  0
 30 32  2  0
 32 33  1  0
 32 34  1  0
 34 35  2  0
 35 28  1  0
 34 36  1  0
 35 37  1  0
 13 29  1  0
M  ISO  6  23  14  24  14  25  14  26  14  31  15  33  16
M  END
>  <DihAtoms>  (1) 
7,12,28,27

>  <DihDeg>  (1) 
-90.00010828386064

$$$$
