
 OpenBabel03242513313D

 37 40  0  0  0  0  0  0  0  0999 V2000
   46.2090   34.1300   40.9850 C   0  0  0  0  0  0  0  0  0  0  0  0
   46.8050   34.8210   42.0360 C   0  0  0  0  0  0  0  0  0  0  0  0
   48.0420   35.3200   41.8330 C   0  0  0  0  0  0  0  0  0  0  0  0
   48.7140   35.1640   40.6370 C   0  0  0  0  0  0  0  0  0  0  0  0
   48.1200   34.4790   39.6010 C   0  0  0  0  0  0  0  0  0  0  0  0
   46.8400   33.9430   39.7610 C   0  0  0  0  0  0  0  0  0  0  0  0
   48.4800   35.8550   42.6770 H   0  0  0  0  0  0  0  0  0  0  0  0
   49.6960   35.6040   40.5890 H   0  0  0  0  0  0  0  0  0  0  0  0
   48.6560   34.3610   38.6620 H   0  0  0  0  0  0  0  0  0  0  0  0
   44.5070   36.0810   44.7500 C   0  0  0  0  0  0  0  0  0  0  0  0
   45.2180   35.9980   43.5480 C   0  0  0  0  0  0  0  0  0  0  0  0
   46.0490   34.9500   43.2640 C   0  0  0  0  0  0  0  0  0  0  0  0
   46.1220   34.0020   44.2480 N   0  0  0  0  0  0  0  0  0  0  0  0
   45.4420   34.0700   45.4120 C   0  0  0  0  0  0  0  0  0  0  0  0
   44.6320   35.1170   45.6590 N   0  0  0  0  0  0  0  0  0  0  0  0
   43.8560   36.9250   44.9470 H   0  0  0  0  0  0  0  0  0  0  0  0
   45.1220   36.7820   42.8020 H   0  0  0  0  0  0  0  0  0  0  0  0
   45.6450   33.2070   46.0570 H   0  0  0  0  0  0  0  0  0  0  0  0
   44.9420   33.5950   41.1290 O   0  0  0  0  0  0  0  0  0  0  0  0
   44.2800   33.6620   40.3540 H   0  0  0  0  0  0  0  0  0  0  0  0
   46.2180   33.2580   38.7550 O   0  0  0  0  0  0  0  0  0  0  0  0
   45.9360   31.9310   38.7440 C   0  0  0  0  0  0  0  0  0  0  0  0
   46.7170   30.8510   39.0880 C   0  0  0  0  0  0  0  0  0  0  0  0
   46.2000   29.6000   38.9910 C   0  0  0  0  0  0  0  0  0  0  0  0
   44.8610   29.5000   38.5290 C   0  0  0  0  0  0  0  0  0  0  0  0
   44.3720   31.2150   38.2460 S   0  0  0  0  0  0  0  0  0  0  0  0
   47.7200   31.0280   39.4290 H   0  0  0  0  0  0  0  0  0  0  0  0
   46.6970   28.6790   39.2250 H   0  0  0  0  0  0  0  0  0  0  0  0
   43.2760   28.8010   41.0830 Br  0  0  0  0  0  0  0  0  0  0  0  0
   43.2610   27.9390   39.3920 C   0  0  0  0  0  0  0  0  0  0  0  0
   44.0150   28.3370   38.3100 C   0  0  0  0  0  0  0  0  0  0  0  0
   44.0670   27.7860   37.0750 C   0  0  0  0  0  0  0  0  0  0  0  0
   44.6830   28.1550   36.2740 H   0  0  0  0  0  0  0  0  0  0  0  0
   43.2530   26.6680   36.8620 C   0  0  0  0  0  0  0  0  0  0  0  0
   43.2230   26.1650   35.9280 H   0  0  0  0  0  0  0  0  0  0  0  0
   42.4540   26.1950   37.9090 C   0  0  0  0  0  3  0  0  0  0  0  0
   42.4530   26.8180   39.1630 C   0  0  0  0  0  3  0  0  0  0  0  0
  1 19  1  0  0  0  0
  1  2  1  0  0  0  0
  2 12  1  0  0  0  0
  3  2  2  0  0  0  0
  3  7  1  0  0  0  0
  4  3  1  0  0  0  0
  5  6  1  0  0  0  0
  5  4  2  0  0  0  0
  6  1  2  0  0  0  0
  8  4  1  0  0  0  0
  9  5  1  0  0  0  0
 10 16  1  0  0  0  0
 10 15  1  0  0  0  0
 11 10  2  0  0  0  0
 12 11  1  0  0  0  0
 12 13  2  0  0  0  0
 13 14  1  0  0  0  0
 14 15  2  0  0  0  0
 14 18  1  0  0  0  0
 17 11  1  0  0  0  0
 20 19  1  0  0  0  0
 21  6  1  0  0  0  0
 22 21  1  0  0  0  0
 22 23  2  0  0  0  0
 23 27  1  0  0  0  0
 24 23  1  0  0  0  0
 24 28  1  0  0  0  0
 25 24  2  0  0  0  0
 26 25  1  0  0  0  0
 26 22  1  0  0  0  0
 30 29  1  0  0  0  0
 31 25  1  0  0  0  0
 31 30  2  0  0  0  0
 32 31  1  0  0  0  0
 33 32  1  0  0  0  0
 34 32  2  0  0  0  0
 34 36  1  0  0  0  0
 35 34  1  0  0  0  0
 36 37  2  0  0  0  0
 37 30  1  0  0  0  0
M  END
>  <minimizedAffinity>
-4.77376938

>  <minimizedRMSD>
4.72166967

$$$$
