
 OpenBabel03242522033D

 35 37  0  0  1  0  0  0  0  0999 V2000
   46.4700   34.0860   42.7090 N   0  0  0  0  0  0  0  0  0  0  0  0
   45.5720   34.5150   41.6520 C   0  0  0  0  0  0  0  0  0  0  0  0
   46.0120   34.0150   40.3130 C   0  0  0  0  0  0  0  0  0  0  0  0
   47.3600   34.2680   39.9950 N   0  0  0  0  0  0  0  0  0  0  0  0
   48.2900   34.1940   41.0630 C   0  0  2  0  0  0  0  0  0  0  0  0
   47.8190   33.7080   42.3780 C   0  0  0  0  0  0  0  0  0  0  0  0
   45.4230   35.6130   41.6510 H   0  0  0  0  0  0  0  0  0  0  0  0
   44.5740   34.0590   41.8600 H   0  0  0  0  0  0  0  0  0  0  0  0
   45.8160   32.9200   40.2690 H   0  0  0  0  0  0  0  0  0  0  0  0
   45.3470   34.5160   39.5520 H   0  0  0  0  0  0  0  0  0  0  0  0
   47.5550   35.0360   39.3350 H   0  0  0  0  0  0  0  0  0  0  0  0
   49.1330   33.5370   40.7180 H   0  0  0  0  0  0  0  0  0  0  0  0
   47.8840   32.5970   42.4340 H   0  0  0  0  0  0  0  0  0  0  0  0
   48.5050   34.0850   43.1690 H   0  0  0  0  0  0  0  0  0  0  0  0
   44.6900   34.7050   45.9490 C   0  0  0  0  0  0  0  0  0  0  0  0
   45.0310   34.8520   44.5930 C   0  0  0  0  0  0  0  0  0  0  0  0
   46.0330   34.0370   44.0620 C   0  0  0  0  0  0  0  0  0  0  0  0
   46.6000   33.1630   44.9200 N   0  0  0  0  0  0  0  0  0  0  0  0
   46.2660   33.0360   46.2120 C   0  0  0  0  0  0  0  0  0  0  0  0
   45.3040   33.8140   46.7230 N   0  0  0  0  0  0  0  0  0  0  0  0
   43.9190   35.3300   46.3600 H   0  0  0  0  0  0  0  0  0  0  0  0
   44.5580   35.5590   43.9360 H   0  0  0  0  0  0  0  0  0  0  0  0
   45.7150   30.1920   45.3340 Br  0  0  0  0  0  0  0  0  0  0  0  0
   46.8010   30.7100   46.8030 C   0  0  0  0  0  0  0  0  0  0  0  0
   46.9380   32.0600   47.0550 C   0  0  0  0  0  0  0  0  0  0  0  0
   47.7210   32.4550   48.1170 C   0  0  0  0  0  0  0  0  0  0  0  0
   47.8690   33.5060   48.3660 H   0  0  0  0  0  0  0  0  0  0  0  0
   48.3650   31.5170   48.9250 C   0  0  0  0  0  0  0  0  0  0  0  0
   48.9720   31.8650   49.7490 H   0  0  0  0  0  0  0  0  0  0  0  0
   48.2240   30.1610   48.6680 C   0  0  0  0  0  0  0  0  0  0  0  0
   47.4390   29.7690   47.6030 C   0  0  0  0  0  0  0  0  0  0  0  0
   48.8910   35.5690   41.2790 C   0  0  0  0  0  0  0  0  0  0  0  0
   50.0740   35.4540   42.0170 F   0  0  0  0  0  0  0  0  0  0  0  0
   48.0100   36.2490   42.0980 F   0  0  0  0  0  0  0  0  0  0  0  0
   49.1690   36.2300   40.1270 F   0  0  0  0  0  0  0  0  0  0  0  0
  1 17  1  0  0  0  0
  2  8  1  0  0  0  0
  2  1  1  0  0  0  0
  3  2  1  0  0  0  0
  4  3  1  0  0  0  0
  4  5  1  0  0  0  0
  5 12  1  6  0  0  0
  5 32  1  0  0  0  0
  5  6  1  0  0  0  0
  6 13  1  0  0  0  0
  6  1  1  0  0  0  0
  6 14  1  0  0  0  0
  7  2  1  0  0  0  0
  9  3  1  0  0  0  0
 10  3  1  0  0  0  0
 11  4  1  0  0  0  0
 15 21  1  0  0  0  0
 15 20  1  0  0  0  0
 16 15  2  0  0  0  0
 17 16  1  0  0  0  0
 17 18  2  0  0  0  0
 18 19  1  0  0  0  0
 19 20  2  0  0  0  0
 19 25  1  0  0  0  0
 22 16  1  0  0  0  0
 23 24  1  0  0  0  0
 24 25  2  0  0  0  0
 24 31  1  0  0  0  0
 25 26  1  0  0  0  0
 26 27  1  0  0  0  0
 26 28  2  0  0  0  0
 28 29  1  0  0  0  0
 30 28  1  0  0  0  0
 31 30  2  0  0  0  0
 32 33  1  0  0  0  0
 32 34  1  0  0  0  0
 35 32  1  0  0  0  0
M  END
>  <minimizedAffinity>
-6.37596703

>  <minimizedRMSD>
1.71557689

$$$$
