
     RDKit          3D

 27 28  0  0  0  0  0  0  0  0999 V2000
   47.0897   34.3830   43.0969 C   0  0  0  0  0  0  0  0  0  0  0  0
   45.7765   34.5956   43.4976 C   0  0  0  0  0  0  0  0  0  0  0  0
   45.2552   33.7658   44.4926 C   0  0  0  0  0  0  0  0  0  0  0  0
   46.0577   32.7979   45.0141 N   0  0  0  0  0  0  0  0  0  0  0  0
   47.3291   32.6295   44.5920 C   0  0  0  0  0  0  0  0  0  0  0  0
   47.8538   33.4067   43.6435 N   0  0  0  0  0  0  0  0  0  0  0  0
   44.9806   35.6787   42.8680 C   0  0  0  0  0  0  0  0  0  0  0  0
   45.6205   36.9050   43.0675 F   0  0  0  0  0  0  0  0  0  0  0  0
   44.9593   35.4665   41.5122 F   0  0  0  0  0  0  0  0  0  0  0  0
   43.7171   35.8110   43.3522 F   0  0  0  0  0  0  0  0  0  0  0  0
   47.5832   35.1983   42.1278 O   0  0  0  0  0  0  0  0  0  0  0  0
   48.8722   35.1814   41.5703 C   0  0  0  0  0  0  0  0  0  0  0  0
   49.7647   35.4995   42.6119 F   0  0  0  0  0  0  0  0  0  0  0  0
   49.1190   33.9727   41.0057 F   0  0  0  0  0  0  0  0  0  0  0  0
   49.0103   36.2263   40.6767 F   0  0  0  0  0  0  0  0  0  0  0  0
   44.2371   33.9116   44.8206 H   0  0  0  0  0  0  0  0  0  0  0  0
   45.7683   30.9904   46.7832 Br  0  0  0  0  0  0  0  0  0  0  0  0
   47.5496   30.7316   46.2219 C   0  0  0  0  0  0  0  0  0  0  0  0
   48.0661   31.5530   45.2426 C   0  0  0  0  0  0  0  0  0  0  0  0
   49.3736   31.3031   44.8842 C   0  0  0  0  0  0  0  0  0  0  0  0
   49.8854   31.8923   44.1185 H   0  0  0  0  0  0  0  0  0  0  0  0
   50.1348   30.2861   45.4693 C   0  0  0  0  0  0  0  0  0  0  0  0
   51.1646   30.1375   45.1431 H   0  0  0  0  0  0  0  0  0  0  0  0
   49.5793   29.4868   46.4458 C   0  0  0  0  0  0  0  0  0  0  0  0
   48.2898   29.7286   46.8036 C   0  0  0  0  0  0  0  0  0  0  0  0
   50.2237   28.7238   46.8518 H   0  0  0  0  0  0  0  0  0  0  0  0
   47.8781   29.0839   47.5748 H   0  0  0  0  0  0  0  0  0  0  0  0
  1  2  2  0
  1  6  1  0
  2  3  1  0
  3  4  2  0
  5  4  1  0
  6  5  2  0
  7  8  1  0
  7 10  1  0
  7  2  1  0
  9  7  1  0
 11  1  1  0
 12 11  1  0
 12 13  1  0
 14 12  1  0
 15 12  1  0
  3 16  1  0
 17 18  1  0
 18 19  2  0
 19 20  1  0
 20 21  1  0
 20 22  2  0
 22 23  1  0
 22 24  1  0
 24 25  2  0
 25 18  1  0
 24 26  1  0
 25 27  1  0
  5 19  1  0
M  ISO  3  16  14  21  15  23  16
M  END
>  <DihAtoms>  (1) 
3,4,18,17

>  <DihDeg>  (1) 
-179.78821189273287

$$$$
