
     RDKit          3D

 30 32  0  0  0  0  0  0  0  0999 V2000
   45.5993   34.0364   45.3308 C   0  0  0  0  0  0  0  0  0  0  0  0
   44.7004   35.0828   45.5872 C   0  0  0  0  0  0  0  0  0  0  0  0
   44.5308   36.0410   44.5692 C   0  0  0  0  0  0  0  0  0  0  0  0
   45.2328   35.8982   43.4239 N   0  0  0  0  0  0  0  0  0  0  0  0
   46.0924   34.8755   43.2096 C   0  0  0  0  0  0  0  0  0  0  0  0
   46.2656   33.9462   44.1802 N   0  0  0  0  0  0  0  0  0  0  0  0
   44.5771   33.1369   41.1885 Br  0  0  0  0  0  0  0  0  0  0  0  0
   46.2831   33.9968   40.9489 C   0  0  0  0  0  0  0  0  0  0  0  0
   46.8302   34.7514   41.9692 C   0  0  0  0  0  0  0  0  0  0  0  0
   48.0639   35.3746   41.7990 C   0  0  0  0  0  0  0  0  0  0  0  0
   48.7125   35.2229   40.6110 C   0  0  0  0  0  0  0  0  0  0  0  0
   48.1283   34.4586   39.6163 C   0  0  0  0  0  0  0  0  0  0  0  0
   46.9257   33.8336   39.7422 C   0  0  0  0  0  0  0  0  0  0  0  0
   45.7728   33.2613   46.0846 H   0  0  0  0  0  0  0  0  0  0  0  0
   44.1643   35.1506   46.5198 H   0  0  0  0  0  0  0  0  0  0  0  0
   43.8407   36.8669   44.7345 H   0  0  0  0  0  0  0  0  0  0  0  0
   48.4303   35.9521   42.6476 H   0  0  0  0  0  0  0  0  0  0  0  0
   49.6736   35.7117   40.4858 H   0  0  0  0  0  0  0  0  0  0  0  0
   48.6755   34.3621   38.6862 H   0  0  0  0  0  0  0  0  0  0  0  0
   47.0497   30.7387   40.2089 Br  0  0  0  0  0  0  0  0  0  0  0  0
   46.2522   31.6363   38.7171 C   0  0  0  0  0  0  0  0  0  0  0  0
   46.3037   33.0264   38.6984 C   0  0  0  0  0  0  0  0  0  0  0  0
   45.7345   33.6953   37.6315 C   0  0  0  0  0  0  0  0  0  0  0  0
   45.7346   34.7867   37.5451 H   0  0  0  0  0  0  0  0  0  0  0  0
   45.1291   32.9939   36.6090 C   0  0  0  0  0  0  0  0  0  0  0  0
   44.6771   33.5215   35.7619 H   0  0  0  0  0  0  0  0  0  0  0  0
   45.0931   31.6158   36.6543 C   0  0  0  0  0  0  0  0  0  0  0  0
   45.6564   30.9024   37.7142 C   0  0  0  0  0  0  0  0  0  0  0  0
   44.6306   31.0145   35.8783 H   0  0  0  0  0  0  0  0  0  0  0  0
   45.6343   29.8082   37.7618 H   0  0  0  0  0  0  0  0  0  0  0  0
  1  2  2  0
  3  2  1  0
  4  3  2  0
  5  4  1  0
  5  6  2  0
  6  1  1  0
  8  7  1  0
  8  9  2  0
  9  5  1  0
 10  9  1  0
 11 10  2  0
 12 13  2  0
 12 11  1  0
 13  8  1  0
  1 14  1  0
  2 15  1  0
  3 16  1  0
 10 17  1  0
 11 18  1  0
 12 19  1  0
 20 21  1  0
 21 22  2  0
 22 23  1  0
 23 24  1  0
 23 25  2  0
 25 26  1  0
 25 27  1  0
 27 28  2  0
 28 21  1  0
 27 29  1  0
 28 30  1  0
 13 22  1  0
M  ISO  8  14  14  15  14  16  14  17  14  18  14  19  14  24  15  26  16
M  END
>  <DihAtoms>  (1) 
11,12,21,20

>  <DihDeg>  (1) 
-90.00011677802463

$$$$
