
 OpenBabel03252500573D

 38 40  0  0  0  0  0  0  0  0999 V2000
   43.6800   34.8300   40.2060 O   0  0  0  0  0  0  0  0  0  0  0  0
   43.2560   34.6330   41.6580 P   0  0  1  0  0  0  0  0  0  0  0  0
   43.2260   32.9770   41.9830 O   0  0  0  0  0  0  0  0  0  0  0  0
   43.1400   32.4310   41.1650 H   0  0  0  0  0  0  0  0  0  0  0  0
   44.3990   35.3410   42.6770 O   0  0  0  0  0  0  0  0  0  0  0  0
   46.4890   34.3360   43.0570 C   0  0  0  0  0  0  0  0  0  0  0  0
   45.2540   34.6820   43.5570 C   0  0  0  0  0  0  0  0  0  0  0  0
   44.9550   34.3510   44.8830 C   0  0  0  0  0  0  0  0  0  0  0  0
   45.8990   33.7110   45.6020 N   0  0  0  0  0  0  0  0  0  0  0  0
   47.0990   33.3830   45.0950 C   0  0  0  0  0  0  0  0  0  0  0  0
   47.3890   33.6940   43.8320 N   0  0  0  0  0  0  0  0  0  0  0  0
   43.9820   34.6410   45.2270 H   0  0  0  0  0  0  0  0  0  0  0  0
   47.7690   32.8710   45.7700 H   0  0  0  0  0  0  0  0  0  0  0  0
   46.8650   34.6500   41.6850 C   0  0  0  0  0  0  0  0  0  0  0  0
   46.1140   35.3400   41.2490 H   0  0  0  0  0  0  0  0  0  0  0  0
   46.8960   33.7700   41.0330 H   0  0  0  0  0  0  0  0  0  0  0  0
   48.2130   35.3010   41.6780 C   0  0  0  0  0  0  0  0  0  0  0  0
   48.1400   36.3340   41.2870 H   0  0  0  0  0  0  0  0  0  0  0  0
   48.6360   35.3690   42.7030 H   0  0  0  0  0  0  0  0  0  0  0  0
   48.9720   34.7040   41.1070 H   0  0  0  0  0  0  0  0  0  0  0  0
   41.6870   35.2400   41.8860 O   0  0  0  0  0  0  0  0  0  0  0  0
   40.6470   34.6410   41.1820 C   0  0  0  0  0  0  0  0  0  0  0  0
   39.9500   35.4430   40.2900 C   0  0  0  0  0  0  0  0  0  0  0  0
   38.8860   34.9370   39.5320 C   0  0  0  0  0  0  0  0  0  0  0  0
   38.5500   33.6250   39.6960 N   0  0  0  0  0  0  0  0  0  0  0  0
   39.2250   32.8700   40.5540 C   0  0  0  0  0  0  0  0  0  0  0  0
   40.2450   33.3650   41.2760 N   0  0  0  0  0  0  0  0  0  0  0  0
   40.2220   36.4930   40.1610 H   0  0  0  0  0  0  0  0  0  0  0  0
   38.3780   35.5860   38.8590 H   0  0  0  0  0  0  0  0  0  0  0  0
   41.3720   31.0030   39.5060 Br  0  0  0  0  0  0  0  0  0  0  0  0
   39.7560   30.4480   40.3420 C   0  0  0  0  0  0  0  0  0  0  0  0
   38.8960   31.4630   40.7560 C   0  0  0  0  0  0  0  0  0  0  0  0
   37.7120   31.0460   41.3680 C   0  0  0  0  0  0  0  0  0  0  0  0
   37.0040   31.8010   41.7110 H   0  0  0  0  0  0  0  0  0  0  0  0
   37.4620   29.7150   41.5290 C   0  0  0  0  0  0  0  0  0  0  0  0
   36.5580   29.3380   41.9970 H   0  0  0  0  0  0  0  0  0  0  0  0
   38.3240   28.7400   41.1130 C   0  0  0  0  0  3  0  0  0  0  0  0
   39.5190   29.0970   40.4960 C   0  0  0  0  0  3  0  0  0  0  0  0
  2  1  2  6  0  0  0
  2 21  1  0  0  0  0
  2  3  1  0  0  0  0
  2  5  1  0  0  0  0
  4  3  1  0  0  0  0
  5  7  1  0  0  0  0
  6  7  2  0  0  0  0
  6 11  1  0  0  0  0
  7  8  1  0  0  0  0
  8 12  1  0  0  0  0
  8  9  2  0  0  0  0
 10  9  1  0  0  0  0
 10 13  1  0  0  0  0
 11 10  2  0  0  0  0
 14  6  1  0  0  0  0
 15 14  1  0  0  0  0
 16 14  1  0  0  0  0
 17 14  1  0  0  0  0
 17 19  1  0  0  0  0
 18 17  1  0  0  0  0
 20 17  1  0  0  0  0
 22 27  1  0  0  0  0
 22 21  1  0  0  0  0
 23 22  2  0  0  0  0
 24 25  2  0  0  0  0
 24 23  1  0  0  0  0
 25 26  1  0  0  0  0
 26 32  1  0  0  0  0
 26 27  2  0  0  0  0
 28 23  1  0  0  0  0
 29 24  1  0  0  0  0
 30 31  1  0  0  0  0
 31 38  2  0  0  0  0
 31 32  1  0  0  0  0
 32 33  2  0  0  0  0
 33 35  1  0  0  0  0
 33 34  1  0  0  0  0
 35 36  1  0  0  0  0
 37 35  2  0  0  0  0
 38 37  1  0  0  0  0
M  END
>  <minimizedAffinity>
-5.53686142

>  <minimizedRMSD>
0.812698126

$$$$
