
 OpenBabel03252506053D

 43 47  0  0  0  0  0  0  0  0999 V2000
   44.8110   35.9610   43.2060 Cl  0  0  0  0  0  0  0  0  0  0  0  0
   45.5550   34.7260   44.1650 C   0  0  0  0  0  0  0  0  0  0  0  0
   46.6450   34.0300   43.6780 C   0  0  0  0  0  0  0  0  0  0  0  0
   47.1640   33.0640   44.5210 C   0  0  0  0  0  0  0  0  0  0  0  0
   46.6730   32.7680   45.7740 C   0  0  0  0  0  0  0  0  0  0  0  0
   45.5930   33.4780   46.2220 C   0  0  0  0  0  0  0  0  0  0  0  0
   45.0060   33.0640   47.8230 Cl  0  0  0  0  0  0  0  0  0  0  0  0
   45.0400   34.4430   45.4310 C   0  0  0  0  0  0  0  0  0  0  0  0
   48.0250   32.5230   44.1250 H   0  0  0  0  0  0  0  0  0  0  0  0
   44.1850   34.9880   45.8130 H   0  0  0  0  0  0  0  0  0  0  0  0
   47.3640   31.7080   46.5140 C   0  0  0  0  0  0  0  0  0  0  0  0
   47.4930   30.4160   46.0400 C   0  0  0  0  0  0  0  0  0  0  0  0
   48.1400   29.4040   46.7220 C   0  0  0  0  0  0  0  0  0  0  0  0
   48.6970   29.6780   47.9500 C   0  0  0  0  0  0  0  0  0  0  0  0
   49.3220   28.6800   48.5980 N   0  0  0  0  0  0  0  0  0  0  0  0
   49.9010   28.8580   49.8110 C   0  0  0  0  0  0  0  0  0  0  0  0
   49.8130   30.1320   50.3520 C   0  0  0  0  0  0  0  0  0  0  0  0
   49.1780   31.1500   49.6980 C   0  0  0  0  0  0  0  0  0  0  0  0
   48.5940   30.9460   48.4580 C   0  0  0  0  0  0  0  0  0  0  0  0
   47.9440   31.9420   47.7620 C   0  0  0  0  0  0  0  0  0  0  0  0
   47.0550   30.1980   45.0740 H   0  0  0  0  0  0  0  0  0  0  0  0
   48.1890   28.4240   46.2690 H   0  0  0  0  0  0  0  0  0  0  0  0
   50.3880   28.0270   50.2850 H   0  0  0  0  0  0  0  0  0  0  0  0
   50.2680   30.2960   51.3210 H   0  0  0  0  0  0  0  0  0  0  0  0
   49.1100   32.1430   50.1220 H   0  0  0  0  0  0  0  0  0  0  0  0
   47.8810   32.9320   48.1940 H   0  0  0  0  0  0  0  0  0  0  0  0
   48.6830   35.4900   41.0350 C   0  0  0  0  0  0  0  0  0  0  0  0
   48.2840   34.7760   39.8960 C   0  0  0  0  0  0  0  0  0  0  0  0
   47.3000   33.7770   40.0390 C   0  0  0  0  0  0  0  0  0  0  0  0
   46.8270   33.6010   41.2850 N   0  0  0  0  0  0  0  0  0  0  0  0
   47.2170   34.2910   42.3640 C   0  0  0  0  0  0  0  0  0  0  0  0
   48.1500   35.2420   42.2500 N   0  0  0  0  0  0  0  0  0  0  0  0
   49.4440   36.2540   40.8970 H   0  0  0  0  0  0  0  0  0  0  0  0
   48.7100   34.9720   38.9240 H   0  0  0  0  0  0  0  0  0  0  0  0
   49.2990   31.5670   39.3220 Br  0  0  0  0  0  0  0  0  0  0  0  0
   47.6130   31.9460   38.4770 C   0  0  0  0  0  0  0  0  0  0  0  0
   46.8200   32.9830   38.9170 C   0  0  0  0  0  0  0  0  0  0  0  0
   45.6340   33.1950   38.2710 C   0  0  0  0  0  0  0  0  0  0  0  0
   44.9850   33.9960   38.5840 H   0  0  0  0  0  0  0  0  0  0  0  0
   45.2940   32.3750   37.2250 C   0  0  0  0  0  0  0  0  0  0  0  0
   44.3430   32.5610   36.7200 H   0  0  0  0  0  0  0  0  0  0  0  0
   46.0740   31.3310   36.7690 C   0  0  0  0  0  3  0  0  0  0  0  0
   47.2850   31.1240   37.4390 C   0  0  0  0  0  3  0  0  0  0  0  0
  1  2  1  0  0  0  0
  2  8  1  0  0  0  0
  3  2  2  0  0  0  0
  3  4  1  0  0  0  0
  4  5  2  0  0  0  0
  5  6  1  0  0  0  0
  5 11  1  0  0  0  0
  6  7  1  0  0  0  0
  8 10  1  0  0  0  0
  8  6  2  0  0  0  0
  9  4  1  0  0  0  0
 11 20  1  0  0  0  0
 12 11  2  0  0  0  0
 12 13  1  0  0  0  0
 13 14  2  0  0  0  0
 14 19  1  0  0  0  0
 14 15  1  0  0  0  0
 15 16  2  0  0  0  0
 16 23  1  0  0  0  0
 16 17  1  0  0  0  0
 17 24  1  0  0  0  0
 18 25  1  0  0  0  0
 18 17  2  0  0  0  0
 19 18  1  0  0  0  0
 20 26  1  0  0  0  0
 20 19  2  0  0  0  0
 21 12  1  0  0  0  0
 22 13  1  0  0  0  0
 27 32  1  0  0  0  0
 28 29  1  0  0  0  0
 28 27  2  0  0  0  0
 29 30  2  0  0  0  0
 30 31  1  0  0  0  0
 31  3  1  0  0  0  0
 32 31  2  0  0  0  0
 33 27  1  0  0  0  0
 34 28  1  0  0  0  0
 36 37  1  0  0  0  0
 36 35  1  0  0  0  0
 37 29  1  0  0  0  0
 38 39  1  0  0  0  0
 38 37  2  0  0  0  0
 40 38  1  0  0  0  0
 41 40  1  0  0  0  0
 42 40  2  0  0  0  0
 42 43  1  0  0  0  0
 43 36  2  0  0  0  0
M  END
>  <minimizedAffinity>
-7.07036257

>  <minimizedRMSD>
0.283106834

$$$$
