
     RDKit          3D

 45 49  0  0  0  0  0  0  0  0999 V2000
   44.7850   35.9820   43.2993 Cl  0  0  0  0  0  0  0  0  0  0  0  0
   45.5334   34.7397   44.2458 C   0  0  0  0  0  0  0  0  0  0  0  0
   46.6294   34.0557   43.7546 C   0  0  0  0  0  0  0  0  0  0  0  0
   47.1515   33.0838   44.5889 C   0  0  0  0  0  0  0  0  0  0  0  0
   46.6581   32.7707   45.8372 C   0  0  0  0  0  0  0  0  0  0  0  0
   45.5724   33.4691   46.2895 C   0  0  0  0  0  0  0  0  0  0  0  0
   44.9828   33.0337   47.8838 Cl  0  0  0  0  0  0  0  0  0  0  0  0
   45.0163   34.4396   45.5079 C   0  0  0  0  0  0  0  0  0  0  0  0
   47.3530   31.7072   46.5673 C   0  0  0  0  0  0  0  0  0  0  0  0
   47.4646   30.4126   46.0922 C   0  0  0  0  0  0  0  0  0  0  0  0
   48.1152   29.3967   46.7651 C   0  0  0  0  0  0  0  0  0  0  0  0
   48.6944   29.6689   47.9841 C   0  0  0  0  0  0  0  0  0  0  0  0
   49.3225   28.6673   48.6225 N   0  0  0  0  0  0  0  0  0  0  0  0
   49.9213   28.8416   49.8263 C   0  0  0  0  0  0  0  0  0  0  0  0
   49.8509   30.1166   50.3673 C   0  0  0  0  0  0  0  0  0  0  0  0
   49.2131   31.1393   49.7219 C   0  0  0  0  0  0  0  0  0  0  0  0
   48.6080   30.9376   48.4921 C   0  0  0  0  0  0  0  0  0  0  0  0
   47.9541   31.9376   47.8046 C   0  0  0  0  0  0  0  0  0  0  0  0
   48.7744   35.4417   41.1574 C   0  0  0  0  0  0  0  0  0  0  0  0
   48.2736   34.8545   39.9859 C   0  0  0  0  0  0  0  0  0  0  0  0
   47.1828   33.9694   40.0909 C   0  0  0  0  0  0  0  0  0  0  0  0
   46.7147   33.7675   41.3363 N   0  0  0  0  0  0  0  0  0  0  0  0
   47.2029   34.3351   42.4459 C   0  0  0  0  0  0  0  0  0  0  0  0
   48.2376   35.1779   42.3682 N   0  0  0  0  0  0  0  0  0  0  0  0
   48.0161   32.5517   44.1889 H   0  0  0  0  0  0  0  0  0  0  0  0
   44.1569   34.9761   45.8927 H   0  0  0  0  0  0  0  0  0  0  0  0
   47.0095   30.1974   45.1339 H   0  0  0  0  0  0  0  0  0  0  0  0
   48.1502   28.4155   46.3132 H   0  0  0  0  0  0  0  0  0  0  0  0
   50.4101   28.0076   50.2945 H   0  0  0  0  0  0  0  0  0  0  0  0
   50.3228   30.2789   51.3291 H   0  0  0  0  0  0  0  0  0  0  0  0
   49.1593   32.1332   50.1456 H   0  0  0  0  0  0  0  0  0  0  0  0
   47.9058   32.9287   48.2371 H   0  0  0  0  0  0  0  0  0  0  0  0
   49.6159   36.1203   41.0481 H   0  0  0  0  0  0  0  0  0  0  0  0
   48.7016   35.0644   39.0180 H   0  0  0  0  0  0  0  0  0  0  0  0
   47.4677   35.6992   37.5758 Br  0  0  0  0  0  0  0  0  0  0  0  0
   46.6427   33.9677   37.7244 C   0  0  0  0  0  0  0  0  0  0  0  0
   46.5926   33.3107   38.9345 C   0  0  0  0  0  0  0  0  0  0  0  0
   45.9912   32.0833   38.9674 C   0  0  0  0  0  0  0  0  0  0  0  0
   45.9311   31.5369   39.8931 H   0  0  0  0  0  0  0  0  0  0  0  0
   45.4718   31.5699   37.8054 C   0  0  0  0  0  0  0  0  0  0  0  0
   44.9950   30.5873   37.8517 H   0  0  0  0  0  0  0  0  0  0  0  0
   45.5118   32.2114   36.5845 C   0  0  0  0  0  0  0  0  0  0  0  0
   46.1295   33.4663   36.5637 C   0  0  0  0  0  0  0  0  0  0  0  0
   45.0962   31.7896   35.6788 H   0  0  0  0  0  0  0  0  0  0  0  0
   46.1633   33.9732   35.6088 H   0  0  0  0  0  0  0  0  0  0  0  0
  1  2  1  0
  2  8  2  0
  3  2  1  0
  3  4  2  0
  4  5  1  0
  5  6  2  0
  5  9  1  0
  6  7  1  0
  8  6  1  0
  9 18  1  0
 10  9  2  0
 10 11  1  0
 11 12  2  0
 12 17  1  0
 12 13  1  0
 13 14  2  0
 14 15  1  0
 16 15  2  0
 17 16  1  0
 18 17  2  0
 19 24  2  0
 20 21  2  0
 20 19  1  0
 21 22  1  0
 22 23  2  0
 23  3  1  0
 24 23  1  0
  4 25  1  0
  8 26  1  0
 10 27  1  0
 11 28  1  0
 14 29  1  0
 15 30  1  0
 16 31  1  0
 18 32  1  0
 19 33  1  0
 20 34  1  0
 35 36  1  0
 36 37  2  0
 37 38  1  0
 38 39  1  0
 38 40  2  0
 40 41  1  0
 40 42  1  0
 42 43  2  0
 43 36  1  0
 42 44  1  0
 43 45  1  0
 21 37  1  0
M  ISO  8  25  14  26  14  27  14  28  14  29  14  30  14  31  14  32  14
M  ISO  4  33  14  34  14  39  15  41  16
M  END
>  <DihAtoms>  (1) 
19,20,36,35

>  <DihDeg>  (1) 
-179.99314700008426

$$$$
