
 OpenBabel03242521403D

 21 22  0  0  0  0  0  0  0  0999 V2000
   37.5210   32.4190   39.2990 C   0  0  0  0  0  0  0  0  0  0  0  0
   37.3000   31.6000   40.4030 C   0  0  0  0  0  0  0  0  0  0  0  0
   37.6320   30.2450   40.3160 C   0  0  0  0  0  0  0  0  0  0  0  0
   38.1540   29.8150   39.1490 N   0  0  0  0  0  0  0  0  0  0  0  0
   38.3570   30.6350   38.0940 C   0  0  0  0  0  0  0  0  0  0  0  0
   38.0390   31.9400   38.1710 N   0  0  0  0  0  0  0  0  0  0  0  0
   36.8860   32.0180   41.2830 H   0  0  0  0  0  0  0  0  0  0  0  0
   38.7810   30.2090   37.1910 H   0  0  0  0  0  0  0  0  0  0  0  0
   39.8410   30.5470   42.3740 Br  0  0  0  0  0  0  0  0  0  0  0  0
   38.3470   29.3560   42.4670 C   0  0  0  0  0  0  0  0  0  0  0  0
   37.4240   29.3400   41.4410 C   0  0  0  0  0  0  0  0  0  0  0  0
   36.3810   28.4630   41.5730 C   0  0  0  0  0  0  0  0  0  0  0  0
   35.6440   28.4260   40.7920 H   0  0  0  0  0  0  0  0  0  0  0  0
   36.2600   27.6390   42.6750 C   0  0  0  0  0  0  0  0  0  0  0  0
   35.4050   26.9610   42.7250 H   0  0  0  0  0  0  0  0  0  0  0  0
   37.2070   27.6890   43.6790 C   0  0  0  0  0  3  0  0  0  0  0  0
   38.2810   28.5590   43.5900 C   0  0  0  0  0  3  0  0  0  0  0  0
   37.1520   33.8600   39.4320 C   0  0  0  0  0  0  0  0  0  0  0  0
   37.7150   34.4980   38.7250 H   0  0  0  0  0  0  0  0  0  0  0  0
   37.3050   34.1810   40.4760 H   0  0  0  0  0  0  0  0  0  0  0  0
   36.0600   33.9030   39.2320 H   0  0  0  0  0  0  0  0  0  0  0  0
  1 18  1  0  0  0  0
  1  2  1  0  0  0  0
  2  7  1  0  0  0  0
  3  2  2  0  0  0  0
  3 11  1  0  0  0  0
  4  3  1  0  0  0  0
  5  6  1  0  0  0  0
  5  4  2  0  0  0  0
  6  1  2  0  0  0  0
  8  5  1  0  0  0  0
  9 10  1  0  0  0  0
 10 17  1  0  0  0  0
 11 12  1  0  0  0  0
 11 10  2  0  0  0  0
 12 14  2  0  0  0  0
 13 12  1  0  0  0  0
 14 15  1  0  0  0  0
 14 16  1  0  0  0  0
 17 16  2  0  0  0  0
 18 20  1  0  0  0  0
 19 18  1  0  0  0  0
 21 18  1  0  0  0  0
M  END
>  <minimizedAffinity>
-4.53715038

$$$$

 OpenBabel03242521403D

 21 22  0  0  0  0  0  0  0  0999 V2000
   37.2040   27.9210   42.4110 C   0  0  0  0  0  0  0  0  0  0  0  0
   37.2180   29.2800   42.1100 C   0  0  0  0  0  0  0  0  0  0  0  0
   37.8930   29.7110   40.9650 C   0  0  0  0  0  0  0  0  0  0  0  0
   38.4960   28.7640   40.2150 N   0  0  0  0  0  0  0  0  0  0  0  0
   38.4650   27.4520   40.5340 C   0  0  0  0  0  0  0  0  0  0  0  0
   37.8170   27.0300   41.6360 N   0  0  0  0  0  0  0  0  0  0  0  0
   36.7190   29.9570   42.7520 H   0  0  0  0  0  0  0  0  0  0  0  0
   38.9750   26.7550   39.8780 H   0  0  0  0  0  0  0  0  0  0  0  0
   40.2460   31.0940   42.2890 Br  0  0  0  0  0  0  0  0  0  0  0  0
   38.9590   31.8930   41.1210 C   0  0  0  0  0  0  0  0  0  0  0  0
   37.9410   31.1220   40.5980 C   0  0  0  0  0  0  0  0  0  0  0  0
   37.0570   31.7590   39.7700 C   0  0  0  0  0  0  0  0  0  0  0  0
   36.2530   31.1870   39.3450 H   0  0  0  0  0  0  0  0  0  0  0  0
   37.1780   33.1030   39.4750 C   0  0  0  0  0  0  0  0  0  0  0  0
   36.4410   33.5560   38.8070 H   0  0  0  0  0  0  0  0  0  0  0  0
   38.2120   33.8370   40.0210 C   0  0  0  0  0  3  0  0  0  0  0  0
   39.1320   33.2370   40.8640 C   0  0  0  0  0  3  0  0  0  0  0  0
   36.4720   27.5010   43.6440 C   0  0  0  0  0  0  0  0  0  0  0  0
   36.1520   26.4440   43.5940 H   0  0  0  0  0  0  0  0  0  0  0  0
   35.6150   28.1760   43.8060 H   0  0  0  0  0  0  0  0  0  0  0  0
   37.1850   27.6680   44.4790 H   0  0  0  0  0  0  0  0  0  0  0  0
  1 18  1  0  0  0  0
  2  1  1  0  0  0  0
  2  7  1  0  0  0  0
  3  2  2  0  0  0  0
  4  5  2  0  0  0  0
  4  3  1  0  0  0  0
  5  6  1  0  0  0  0
  6  1  2  0  0  0  0
  8  5  1  0  0  0  0
 10  9  1  0  0  0  0
 11  3  1  0  0  0  0
 11 10  2  0  0  0  0
 12 11  1  0  0  0  0
 13 12  1  0  0  0  0
 14 12  2  0  0  0  0
 14 16  1  0  0  0  0
 15 14  1  0  0  0  0
 16 17  2  0  0  0  0
 17 10  1  0  0  0  0
 18 20  1  0  0  0  0
 18 21  1  0  0  0  0
 19 18  1  0  0  0  0
M  END
>  <minimizedAffinity>
-4.52118444

$$$$

 OpenBabel03242521403D

 21 22  0  0  0  0  0  0  0  0999 V2000
   37.7550   32.4170   39.3400 C   0  0  0  0  0  0  0  0  0  0  0  0
   37.6640   31.5730   40.4430 C   0  0  0  0  0  0  0  0  0  0  0  0
   38.0490   30.2370   40.3040 C   0  0  0  0  0  0  0  0  0  0  0  0
   38.4900   29.8480   39.0900 N   0  0  0  0  0  0  0  0  0  0  0  0
   38.5660   30.6910   38.0370 C   0  0  0  0  0  0  0  0  0  0  0  0
   38.1970   31.9790   38.1640 N   0  0  0  0  0  0  0  0  0  0  0  0
   37.3070   31.9590   41.3610 H   0  0  0  0  0  0  0  0  0  0  0  0
   38.9320   30.2990   37.0950 H   0  0  0  0  0  0  0  0  0  0  0  0
   35.2970   28.9720   40.4870 Br  0  0  0  0  0  0  0  0  0  0  0  0
   36.7840   28.6460   41.6440 C   0  0  0  0  0  0  0  0  0  0  0  0
   37.9760   29.3060   41.4260 C   0  0  0  0  0  0  0  0  0  0  0  0
   38.9970   29.0240   42.2920 C   0  0  0  0  0  0  0  0  0  0  0  0
   39.9390   29.5210   42.1500 H   0  0  0  0  0  0  0  0  0  0  0  0
   38.8420   28.1260   43.3300 C   0  0  0  0  0  0  0  0  0  0  0  0
   39.6940   27.9420   43.9890 H   0  0  0  0  0  0  0  0  0  0  0  0
   37.6310   27.4870   43.5120 C   0  0  0  0  0  3  0  0  0  0  0  0
   36.5680   27.7400   42.6610 C   0  0  0  0  0  3  0  0  0  0  0  0
   37.3340   33.8380   39.5280 C   0  0  0  0  0  0  0  0  0  0  0  0
   37.8060   34.5110   38.7890 H   0  0  0  0  0  0  0  0  0  0  0  0
   37.5590   34.1500   40.5620 H   0  0  0  0  0  0  0  0  0  0  0  0
   36.2280   33.8320   39.4210 H   0  0  0  0  0  0  0  0  0  0  0  0
  1 18  1  0  0  0  0
  1  2  1  0  0  0  0
  2  7  1  0  0  0  0
  3  2  2  0  0  0  0
  3 11  1  0  0  0  0
  4  3  1  0  0  0  0
  5  6  1  0  0  0  0
  5  4  2  0  0  0  0
  6  1  2  0  0  0  0
  8  5  1  0  0  0  0
  9 10  1  0  0  0  0
 10 17  1  0  0  0  0
 11 10  2  0  0  0  0
 11 12  1  0  0  0  0
 12 14  2  0  0  0  0
 13 12  1  0  0  0  0
 14 16  1  0  0  0  0
 14 15  1  0  0  0  0
 17 16  2  0  0  0  0
 18 20  1  0  0  0  0
 19 18  1  0  0  0  0
 21 18  1  0  0  0  0
M  END
>  <minimizedAffinity>
-4.45811129

$$$$

 OpenBabel03242521403D

 21 22  0  0  0  0  0  0  0  0999 V2000
   38.4290   30.6180   40.4260 C   0  0  0  0  0  0  0  0  0  0  0  0
   38.3520   29.2290   40.4810 C   0  0  0  0  0  0  0  0  0  0  0  0
   37.1310   28.6330   40.8070 C   0  0  0  0  0  0  0  0  0  0  0  0
   36.0910   29.4570   41.0510 N   0  0  0  0  0  0  0  0  0  0  0  0
   36.1970   30.8030   40.9910 C   0  0  0  0  0  0  0  0  0  0  0  0
   37.3710   31.3840   40.6780 N   0  0  0  0  0  0  0  0  0  0  0  0
   39.2160   28.6550   40.2740 H   0  0  0  0  0  0  0  0  0  0  0  0
   35.3130   31.3940   41.2020 H   0  0  0  0  0  0  0  0  0  0  0  0
   37.5420   27.6420   43.6450 Br  0  0  0  0  0  0  0  0  0  0  0  0
   37.1480   26.5750   42.1070 C   0  0  0  0  0  0  0  0  0  0  0  0
   36.9900   27.1820   40.8780 C   0  0  0  0  0  0  0  0  0  0  0  0
   36.7100   26.3580   39.8220 C   0  0  0  0  0  0  0  0  0  0  0  0
   36.5800   26.7990   38.8510 H   0  0  0  0  0  0  0  0  0  0  0  0
   36.5930   24.9910   39.9790 C   0  0  0  0  0  0  0  0  0  0  0  0
   36.3670   24.3840   39.0990 H   0  0  0  0  0  0  0  0  0  0  0  0
   36.7590   24.4250   41.2280 C   0  0  0  0  0  3  0  0  0  0  0  0
   37.0440   25.2180   42.3270 C   0  0  0  0  0  3  0  0  0  0  0  0
   39.7520   31.2160   40.0750 C   0  0  0  0  0  0  0  0  0  0  0  0
   39.6460   32.2330   39.6520 H   0  0  0  0  0  0  0  0  0  0  0  0
   40.2830   30.5430   39.3810 H   0  0  0  0  0  0  0  0  0  0  0  0
   40.3280   31.2310   41.0240 H   0  0  0  0  0  0  0  0  0  0  0  0
  1  2  2  0  0  0  0
  1  6  1  0  0  0  0
  2  3  1  0  0  0  0
  3 11  1  0  0  0  0
  3  4  2  0  0  0  0
  5  4  1  0  0  0  0
  5  8  1  0  0  0  0
  6  5  2  0  0  0  0
  7  2  1  0  0  0  0
 10 17  1  0  0  0  0
 10  9  1  0  0  0  0
 11 10  2  0  0  0  0
 12 14  2  0  0  0  0
 12 11  1  0  0  0  0
 13 12  1  0  0  0  0
 14 16  1  0  0  0  0
 15 14  1  0  0  0  0
 16 17  2  0  0  0  0
 18  1  1  0  0  0  0
 18 21  1  0  0  0  0
 19 18  1  0  0  0  0
 20 18  1  0  0  0  0
M  END
>  <minimizedAffinity>
-4.42677927

$$$$

 OpenBabel03242521403D

 21 22  0  0  0  0  0  0  0  0999 V2000
   38.2320   32.6410   39.9240 C   0  0  0  0  0  0  0  0  0  0  0  0
   37.6690   31.5740   40.6170 C   0  0  0  0  0  0  0  0  0  0  0  0
   38.4860   30.5000   40.9810 C   0  0  0  0  0  0  0  0  0  0  0  0
   39.7860   30.5710   40.6310 N   0  0  0  0  0  0  0  0  0  0  0  0
   40.3040   31.6210   39.9560 C   0  0  0  0  0  0  0  0  0  0  0  0
   39.5230   32.6590   39.6020 N   0  0  0  0  0  0  0  0  0  0  0  0
   36.6380   31.5970   40.8540 H   0  0  0  0  0  0  0  0  0  0  0  0
   41.3600   31.6000   39.7120 H   0  0  0  0  0  0  0  0  0  0  0  0
   37.5870   28.3230   39.0680 Br  0  0  0  0  0  0  0  0  0  0  0  0
   37.4990   28.2740   40.9790 C   0  0  0  0  0  0  0  0  0  0  0  0
   37.9520   29.3540   41.7100 C   0  0  0  0  0  0  0  0  0  0  0  0
   37.8580   29.2500   43.0710 C   0  0  0  0  0  0  0  0  0  0  0  0
   38.2020   30.0730   43.6700 H   0  0  0  0  0  0  0  0  0  0  0  0
   37.3380   28.1250   43.6800 C   0  0  0  0  0  0  0  0  0  0  0  0
   37.2890   28.1000   44.7710 H   0  0  0  0  0  0  0  0  0  0  0  0
   36.8970   27.0670   42.9090 C   0  0  0  0  0  3  0  0  0  0  0  0
   36.9700   27.1250   41.5280 C   0  0  0  0  0  3  0  0  0  0  0  0
   37.3270   33.7700   39.5520 C   0  0  0  0  0  0  0  0  0  0  0  0
   37.8830   34.7140   39.4000 H   0  0  0  0  0  0  0  0  0  0  0  0
   36.5470   33.8810   40.3250 H   0  0  0  0  0  0  0  0  0  0  0  0
   36.8200   33.4440   38.6190 H   0  0  0  0  0  0  0  0  0  0  0  0
  1  2  1  0  0  0  0
  2  7  1  0  0  0  0
  2  3  2  0  0  0  0
  3 11  1  0  0  0  0
  4  3  1  0  0  0  0
  5  4  2  0  0  0  0
  6  1  2  0  0  0  0
  6  5  1  0  0  0  0
  8  5  1  0  0  0  0
  9 10  1  0  0  0  0
 10 17  2  0  0  0  0
 10 11  1  0  0  0  0
 11 12  2  0  0  0  0
 12 13  1  0  0  0  0
 12 14  1  0  0  0  0
 14 15  1  0  0  0  0
 16 14  2  0  0  0  0
 17 16  1  0  0  0  0
 18  1  1  0  0  0  0
 18 20  1  0  0  0  0
 19 18  1  0  0  0  0
 21 18  1  0  0  0  0
M  END
>  <minimizedAffinity>
-4.3915925

$$$$

 OpenBabel03242521403D

 21 22  0  0  0  0  0  0  0  0999 V2000
   37.2820   30.9630   38.2250 C   0  0  0  0  0  0  0  0  0  0  0  0
   37.3810   29.9530   39.1770 C   0  0  0  0  0  0  0  0  0  0  0  0
   37.3840   30.3000   40.5310 C   0  0  0  0  0  0  0  0  0  0  0  0
   37.2900   31.6120   40.8290 N   0  0  0  0  0  0  0  0  0  0  0  0
   37.1960   32.5710   39.8810 C   0  0  0  0  0  0  0  0  0  0  0  0
   37.1930   32.2440   38.5750 N   0  0  0  0  0  0  0  0  0  0  0  0
   37.4500   28.9470   38.8580 H   0  0  0  0  0  0  0  0  0  0  0  0
   37.1240   33.6030   40.2050 H   0  0  0  0  0  0  0  0  0  0  0  0
   40.1670   30.2560   41.7380 Br  0  0  0  0  0  0  0  0  0  0  0  0
   38.6930   29.1390   42.2240 C   0  0  0  0  0  0  0  0  0  0  0  0
   37.4840   29.2840   41.5740 C   0  0  0  0  0  0  0  0  0  0  0  0
   36.4740   28.4520   41.9730 C   0  0  0  0  0  0  0  0  0  0  0  0
   35.5190   28.5390   41.4870 H   0  0  0  0  0  0  0  0  0  0  0  0
   36.6550   27.5160   42.9720 C   0  0  0  0  0  0  0  0  0  0  0  0
   35.8110   26.8790   43.2470 H   0  0  0  0  0  0  0  0  0  0  0  0
   37.8820   27.4050   43.5960 C   0  0  0  0  0  3  0  0  0  0  0  0
   38.9350   28.2240   43.2270 C   0  0  0  0  0  3  0  0  0  0  0  0
   37.2830   30.5520   36.7890 C   0  0  0  0  0  0  0  0  0  0  0  0
   36.7980   31.3070   36.1420 H   0  0  0  0  0  0  0  0  0  0  0  0
   36.7970   29.5660   36.6920 H   0  0  0  0  0  0  0  0  0  0  0  0
   38.3530   30.4190   36.5220 H   0  0  0  0  0  0  0  0  0  0  0  0
  1  6  2  0  0  0  0
  1  2  1  0  0  0  0
  2  3  2  0  0  0  0
  3  4  1  0  0  0  0
  3 11  1  0  0  0  0
  5  8  1  0  0  0  0
  5  4  2  0  0  0  0
  6  5  1  0  0  0  0
  7  2  1  0  0  0  0
  9 10  1  0  0  0  0
 10 17  1  0  0  0  0
 11 12  1  0  0  0  0
 11 10  2  0  0  0  0
 12 14  2  0  0  0  0
 13 12  1  0  0  0  0
 14 15  1  0  0  0  0
 14 16  1  0  0  0  0
 17 16  2  0  0  0  0
 18  1  1  0  0  0  0
 19 18  1  0  0  0  0
 20 18  1  0  0  0  0
 21 18  1  0  0  0  0
M  END
>  <minimizedAffinity>
-4.38662672

$$$$

 OpenBabel03242521403D

 21 22  0  0  0  0  0  0  0  0999 V2000
   39.5820   32.1950   39.8530 C   0  0  0  0  0  0  0  0  0  0  0  0
   39.3290   31.0260   40.5640 C   0  0  0  0  0  0  0  0  0  0  0  0
   38.0190   30.7500   40.9660 C   0  0  0  0  0  0  0  0  0  0  0  0
   37.0720   31.6500   40.6320 N   0  0  0  0  0  0  0  0  0  0  0  0
   37.3480   32.7780   39.9410 C   0  0  0  0  0  0  0  0  0  0  0  0
   38.6080   33.0500   39.5510 N   0  0  0  0  0  0  0  0  0  0  0  0
   40.1310   30.3720   40.7850 H   0  0  0  0  0  0  0  0  0  0  0  0
   36.5290   33.4510   39.7130 H   0  0  0  0  0  0  0  0  0  0  0  0
   36.7250   28.6800   39.1660 Br  0  0  0  0  0  0  0  0  0  0  0  0
   37.0980   28.4980   41.0330 C   0  0  0  0  0  0  0  0  0  0  0  0
   37.6940   29.5400   41.7130 C   0  0  0  0  0  0  0  0  0  0  0  0
   37.9320   29.3400   43.0470 C   0  0  0  0  0  0  0  0  0  0  0  0
   38.3960   30.1310   43.6060 H   0  0  0  0  0  0  0  0  0  0  0  0
   37.5910   28.1590   43.6760 C   0  0  0  0  0  0  0  0  0  0  0  0
   37.8060   28.0580   44.7430 H   0  0  0  0  0  0  0  0  0  0  0  0
   36.9960   27.1420   42.9560 C   0  0  0  0  0  3  0  0  0  0  0  0
   36.7350   27.2970   41.6050 C   0  0  0  0  0  3  0  0  0  0  0  0
   40.9940   32.4550   39.4410 C   0  0  0  0  0  0  0  0  0  0  0  0
   41.0530   33.1300   38.5680 H   0  0  0  0  0  0  0  0  0  0  0  0
   41.4980   31.4930   39.2440 H   0  0  0  0  0  0  0  0  0  0  0  0
   41.4810   32.9040   40.3340 H   0  0  0  0  0  0  0  0  0  0  0  0
  1  2  1  0  0  0  0
  2  7  1  0  0  0  0
  2  3  2  0  0  0  0
  3 11  1  0  0  0  0
  4  3  1  0  0  0  0
  5  4  2  0  0  0  0
  6  1  2  0  0  0  0
  6  5  1  0  0  0  0
  8  5  1  0  0  0  0
  9 10  1  0  0  0  0
 10 17  2  0  0  0  0
 10 11  1  0  0  0  0
 11 12  2  0  0  0  0
 12 13  1  0  0  0  0
 12 14  1  0  0  0  0
 14 15  1  0  0  0  0
 16 14  2  0  0  0  0
 17 16  1  0  0  0  0
 18  1  1  0  0  0  0
 18 21  1  0  0  0  0
 19 18  1  0  0  0  0
 20 18  1  0  0  0  0
M  END
>  <minimizedAffinity>
-4.30024195

$$$$

 OpenBabel03242521403D

 21 22  0  0  0  0  0  0  0  0999 V2000
   39.1960   27.2870   42.0610 C   0  0  0  0  0  0  0  0  0  0  0  0
   39.1500   28.5080   41.3940 C   0  0  0  0  0  0  0  0  0  0  0  0
   38.3600   29.5350   41.9180 C   0  0  0  0  0  0  0  0  0  0  0  0
   37.6840   29.2690   43.0540 N   0  0  0  0  0  0  0  0  0  0  0  0
   37.7470   28.0730   43.6800 C   0  0  0  0  0  0  0  0  0  0  0  0
   38.5060   27.0800   43.1800 N   0  0  0  0  0  0  0  0  0  0  0  0
   39.7140   28.6340   40.5070 H   0  0  0  0  0  0  0  0  0  0  0  0
   37.1720   27.9410   44.5890 H   0  0  0  0  0  0  0  0  0  0  0  0
   35.8110   29.7610   40.2900 Br  0  0  0  0  0  0  0  0  0  0  0  0
   37.1670   31.0960   40.4810 C   0  0  0  0  0  0  0  0  0  0  0  0
   38.2740   30.8350   41.2630 C   0  0  0  0  0  0  0  0  0  0  0  0
   39.2050   31.8350   41.3550 C   0  0  0  0  0  0  0  0  0  0  0  0
   40.0790   31.6650   41.9560 H   0  0  0  0  0  0  0  0  0  0  0  0
   39.0430   33.0400   40.6990 C   0  0  0  0  0  0  0  0  0  0  0  0
   39.8200   33.8000   40.8110 H   0  0  0  0  0  0  0  0  0  0  0  0
   37.9190   33.2580   39.9270 C   0  0  0  0  0  3  0  0  0  0  0  0
   36.9500   32.2770   39.8040 C   0  0  0  0  0  3  0  0  0  0  0  0
   40.0520   26.2150   41.4700 C   0  0  0  0  0  0  0  0  0  0  0  0
   40.3650   25.4720   42.2260 H   0  0  0  0  0  0  0  0  0  0  0  0
   40.9210   26.6770   40.9710 H   0  0  0  0  0  0  0  0  0  0  0  0
   39.4290   25.7480   40.6770 H   0  0  0  0  0  0  0  0  0  0  0  0
  1  6  1  0  0  0  0
  2  3  1  0  0  0  0
  2  1  2  0  0  0  0
  3  4  2  0  0  0  0
  4  5  1  0  0  0  0
  5  8  1  0  0  0  0
  6  5  2  0  0  0  0
  7  2  1  0  0  0  0
  9 10  1  0  0  0  0
 10 11  1  0  0  0  0
 11 12  2  0  0  0  0
 11  3  1  0  0  0  0
 12 13  1  0  0  0  0
 14 15  1  0  0  0  0
 14 12  1  0  0  0  0
 16 14  2  0  0  0  0
 17 16  1  0  0  0  0
 17 10  2  0  0  0  0
 18  1  1  0  0  0  0
 18 19  1  0  0  0  0
 20 18  1  0  0  0  0
 21 18  1  0  0  0  0
M  END
>  <minimizedAffinity>
-4.17794228

$$$$

 OpenBabel03242521403D

 21 22  0  0  0  0  0  0  0  0999 V2000
   34.6810   28.9030   37.5990 C   0  0  0  0  0  0  0  0  0  0  0  0
   34.9870   28.5420   38.9070 C   0  0  0  0  0  0  0  0  0  0  0  0
   36.3290   28.4430   39.2850 C   0  0  0  0  0  0  0  0  0  0  0  0
   37.2540   28.7090   38.3390 N   0  0  0  0  0  0  0  0  0  0  0  0
   36.9260   29.0570   37.0750 C   0  0  0  0  0  0  0  0  0  0  0  0
   35.6350   29.1540   36.7050 N   0  0  0  0  0  0  0  0  0  0  0  0
   34.2000   28.3510   39.5880 H   0  0  0  0  0  0  0  0  0  0  0  0
   37.7290   29.2540   36.3750 H   0  0  0  0  0  0  0  0  0  0  0  0
   36.6410   30.9000   41.0370 Br  0  0  0  0  0  0  0  0  0  0  0  0
   36.8920   29.0790   41.5660 C   0  0  0  0  0  0  0  0  0  0  0  0
   36.7100   28.0700   40.6420 C   0  0  0  0  0  0  0  0  0  0  0  0
   36.9060   26.7910   41.0900 C   0  0  0  0  0  0  0  0  0  0  0  0
   36.7720   25.9820   40.3970 H   0  0  0  0  0  0  0  0  0  0  0  0
   37.2660   26.5270   42.3970 C   0  0  0  0  0  0  0  0  0  0  0  0
   37.4080   25.4850   42.6960 H   0  0  0  0  0  0  0  0  0  0  0  0
   37.4370   27.5680   43.2880 C   0  0  0  0  0  3  0  0  0  0  0  0
   37.2500   28.8780   42.8820 C   0  0  0  0  0  3  0  0  0  0  0  0
   33.2360   28.9980   37.2350 C   0  0  0  0  0  0  0  0  0  0  0  0
   33.0700   29.6630   36.3670 H   0  0  0  0  0  0  0  0  0  0  0  0
   32.6590   29.3290   38.1150 H   0  0  0  0  0  0  0  0  0  0  0  0
   32.9210   27.9560   37.0100 H   0  0  0  0  0  0  0  0  0  0  0  0
  1  2  1  0  0  0  0
  2  3  2  0  0  0  0
  2  7  1  0  0  0  0
  3 11  1  0  0  0  0
  4  3  1  0  0  0  0
  5  4  2  0  0  0  0
  6  5  1  0  0  0  0
  6  1  2  0  0  0  0
  8  5  1  0  0  0  0
  9 10  1  0  0  0  0
 10 17  1  0  0  0  0
 11 12  1  0  0  0  0
 11 10  2  0  0  0  0
 12 14  2  0  0  0  0
 13 12  1  0  0  0  0
 14 15  1  0  0  0  0
 14 16  1  0  0  0  0
 17 16  2  0  0  0  0
 18  1  1  0  0  0  0
 18 20  1  0  0  0  0
 19 18  1  0  0  0  0
 21 18  1  0  0  0  0
M  END
>  <minimizedAffinity>
-4.17604303

$$$$
