REMARK  Name = 
REMARK  3 active torsions:
REMARK  status: ('A' for Active; 'I' for Inactive)
REMARK    1  A    between atoms: C_1  and  C_6
REMARK    2  A    between atoms: C_1  and  C_10
REMARK    3  A    between atoms: C_14  and  C_25
REMARK                            x       y       z     vdW  Elec       q    Type
REMARK                         _______ _______ _______ _____ _____    ______ ____
ROOT
ATOM      1 BR   UNL     1      45.440  29.759  45.126  0.00  0.00    +0.000 Br
ATOM      2  C   UNL     1      45.588  30.644  46.838  0.00  0.00    +0.000 A 
ATOM      3  C   UNL     1      46.295  31.826  46.846  0.00  0.00    +0.000 A 
ATOM      4  C   UNL     1      46.380  32.439  48.107  0.00  0.00    +0.000 A 
ATOM      5  C   UNL     1      45.806  31.904  49.242  0.00  0.00    +0.000 A 
ATOM      6  C   UNL     1      45.120  30.727  49.154  0.00  0.00    +0.000 A 
ATOM      7  C   UNL     1      44.996  30.064  47.932  0.00  0.00    +0.000 A 
ATOM      8  H   UNL     1      46.914  33.372  48.227  0.00  0.00    +0.000 HD
ATOM      9  H   UNL     1      45.905  32.422  50.188  0.00  0.00    +0.000 HD
ATOM     10  H   UNL     1      44.655  30.277  50.026  0.00  0.00    +0.000 HD
ENDROOT
BRANCH   7  13
ATOM     11 BR   UNL     1      44.563  28.914  50.702  0.00  0.00    +0.000 Br
ATOM     12  C   UNL     1      43.990  28.160  49.023  0.00  0.00    +0.000 A 
ATOM     13  C   UNL     1      44.265  28.810  47.835  0.00  0.00    +0.000 A 
ATOM     14  C   UNL     1      43.853  28.270  46.612  0.00  0.00    +0.000 A 
ATOM     15  H   UNL     1      44.082  28.800  45.697  0.00  0.00    +0.000 HD
ATOM     16  C   UNL     1      43.167  27.073  46.653  0.00  0.00    +0.000 A 
ATOM     17  H   UNL     1      42.848  26.658  45.685  0.00  0.00    +0.000 HD
ATOM     18  C   UNL     1      42.893  26.426  47.841  0.00  0.00    +0.000 A 
ATOM     19  C   UNL     1      43.295  26.951  49.051  0.00  0.00    +0.000 A 
ENDBRANCH   7  13
BRANCH   3  20
ATOM     20  C   UNL     1      46.942  32.476  45.698  0.00  0.00    +0.000 C 
ATOM     21  H   UNL     1      46.966  31.709  44.876  0.00  0.00    +0.000 HD
ATOM     22  H   UNL     1      47.957  32.864  45.917  0.00  0.00    +0.000 HD
BRANCH  20  27
ATOM     23  C   UNL     1      44.572  35.335  45.346  0.00  0.00    +0.000 A 
ATOM     24  C   UNL     1      44.844  35.761  44.035  0.00  0.00    +0.000 A 
ATOM     25  C   UNL     1      45.805  35.083  43.316  0.00  0.00    +0.000 A 
ATOM     26  N   UNL     1      46.458  34.028  43.890  0.00  0.00    +0.000 NA
ATOM     27  C   UNL     1      46.169  33.638  45.171  0.00  0.00    +0.000 A 
ATOM     28  N   UNL     1      45.233  34.304  45.863  0.00  0.00    +0.000 NA
ATOM     29  H   UNL     1      43.845  35.772  46.029  0.00  0.00    +0.000 HD
ATOM     30  H   UNL     1      44.266  36.603  43.692  0.00  0.00    +0.000 HD
ATOM     31  H   UNL     1      46.007  35.414  42.315  0.00  0.00    +0.000 HD
ENDBRANCH  20  27
ENDBRANCH   3  20
TORSDOF 3
