
 OpenBabel03252504113D

 25 26  0  0  0  0  0  0  0  0999 V2000
   46.9460   33.9320   43.2030 C   0  0  0  0  0  0  0  0  0  0  0  0
   45.6860   33.7010   42.6610 C   0  0  0  0  0  0  0  0  0  0  0  0
   44.9630   32.6040   43.1350 C   0  0  0  0  0  0  0  0  0  0  0  0
   45.5280   31.8240   44.0970 N   0  0  0  0  0  0  0  0  0  0  0  0
   46.7550   32.0890   44.5930 C   0  0  0  0  0  0  0  0  0  0  0  0
   47.4690   33.1290   44.1610 N   0  0  0  0  0  0  0  0  0  0  0  0
   43.9830   32.4040   42.7290 H   0  0  0  0  0  0  0  0  0  0  0  0
   45.7060   32.5930   47.5210 Br  0  0  0  0  0  0  0  0  0  0  0  0
   46.8760   31.2290   46.9500 C   0  0  0  0  0  0  0  0  0  0  0  0
   47.2260   31.1650   45.6190 C   0  0  0  0  0  0  0  0  0  0  0  0
   48.0840   30.1420   45.2770 C   0  0  0  0  0  0  0  0  0  0  0  0
   48.4290   29.9950   44.2500 H   0  0  0  0  0  0  0  0  0  0  0  0
   48.5730   29.2230   46.2120 C   0  0  0  0  0  0  0  0  0  0  0  0
   49.2490   28.4340   45.8800 H   0  0  0  0  0  0  0  0  0  0  0  0
   48.1970   29.3230   47.5350 C   0  0  0  0  0  3  0  0  0  0  0  0
   47.3510   30.3310   47.8770 C   0  0  0  0  0  3  0  0  0  0  0  0
   45.1580   34.6110   41.6150 C   0  0  0  0  0  0  0  0  0  0  0  0
   45.1730   35.9250   42.0870 F   0  0  0  0  0  0  0  0  0  0  0  0
   46.0090   34.5730   40.5390 F   0  0  0  0  0  0  0  0  0  0  0  0
   43.8820   34.3480   41.2250 F   0  0  0  0  0  0  0  0  0  0  0  0
   47.6370   35.0020   42.7330 O   0  0  0  0  0  0  0  0  0  0  0  0
   48.8590   34.9940   42.0400 C   0  0  0  0  0  0  0  0  0  0  0  0
   49.8690   35.1870   43.0030 F   0  0  0  0  0  0  0  0  0  0  0  0
   48.9950   33.8350   41.3500 F   0  0  0  0  0  0  0  0  0  0  0  0
   48.9470   36.1110   41.2310 F   0  0  0  0  0  0  0  0  0  0  0  0
  1  6  1  0  0  0  0
  2  3  1  0  0  0  0
  2  1  2  0  0  0  0
  3  4  2  0  0  0  0
  4  5  1  0  0  0  0
  5 10  1  0  0  0  0
  6  5  2  0  0  0  0
  7  3  1  0  0  0  0
  9  8  1  0  0  0  0
  9 16  1  0  0  0  0
 10  9  2  0  0  0  0
 11 10  1  0  0  0  0
 11 13  2  0  0  0  0
 12 11  1  0  0  0  0
 13 15  1  0  0  0  0
 14 13  1  0  0  0  0
 15 16  2  0  0  0  0
 17 18  1  0  0  0  0
 17  2  1  0  0  0  0
 19 17  1  0  0  0  0
 20 17  1  0  0  0  0
 21  1  1  0  0  0  0
 22 21  1  0  0  0  0
 22 23  1  0  0  0  0
 24 22  1  0  0  0  0
 25 22  1  0  0  0  0
M  END
>  <minimizedAffinity>
-5.23104239

>  <minimizedRMSD>
1.42225492

$$$$
