
 OpenBabel03242510093D

 28 30  0  0  0  0  0  0  0  0999 V2000
   44.8000   32.9450   41.1890 Br  0  0  0  0  0  0  0  0  0  0  0  0
   46.4410   33.9190   40.9340 C   0  0  0  0  0  0  0  0  0  0  0  0
   46.9140   34.7550   41.9260 C   0  0  0  0  0  0  0  0  0  0  0  0
   48.1010   35.4620   41.7440 C   0  0  0  0  0  0  0  0  0  0  0  0
   48.7770   35.3080   40.5720 C   0  0  0  0  0  0  0  0  0  0  0  0
   48.2660   34.4610   39.6040 C   0  0  0  0  0  0  0  0  0  0  0  0
   47.1120   33.7540   39.7430 C   0  0  0  0  0  0  0  0  0  0  0  0
   48.4100   36.1000   42.5710 H   0  0  0  0  0  0  0  0  0  0  0  0
   49.7020   35.8620   40.4370 H   0  0  0  0  0  0  0  0  0  0  0  0
   48.8330   34.3660   38.6860 H   0  0  0  0  0  0  0  0  0  0  0  0
   45.6370   34.0510   45.2730 C   0  0  0  0  0  0  0  0  0  0  0  0
   44.7090   35.0790   45.4990 C   0  0  0  0  0  0  0  0  0  0  0  0
   44.5360   36.0200   44.4670 C   0  0  0  0  0  0  0  0  0  0  0  0
   45.2630   35.8810   43.3370 N   0  0  0  0  0  0  0  0  0  0  0  0
   46.1500   34.8770   43.1520 C   0  0  0  0  0  0  0  0  0  0  0  0
   46.3280   33.9630   44.1360 N   0  0  0  0  0  0  0  0  0  0  0  0
   45.8150   33.2900   46.0400 H   0  0  0  0  0  0  0  0  0  0  0  0
   44.1540   35.1450   46.4210 H   0  0  0  0  0  0  0  0  0  0  0  0
   43.8240   36.8310   44.6080 H   0  0  0  0  0  0  0  0  0  0  0  0
   47.9580   30.7510   40.0320 Br  0  0  0  0  0  0  0  0  0  0  0  0
   46.8230   31.4910   38.6790 C   0  0  0  0  0  0  0  0  0  0  0  0
   46.5680   32.8570   38.7280 C   0  0  0  0  0  0  0  0  0  0  0  0
   45.7510   33.4140   37.7620 C   0  0  0  0  0  0  0  0  0  0  0  0
   45.5040   34.4800   37.7330 H   0  0  0  0  0  0  0  0  0  0  0  0
   45.2030   32.6250   36.7720 C   0  0  0  0  0  0  0  0  0  0  0  0
   44.5550   33.0630   36.0040 H   0  0  0  0  0  0  0  0  0  0  0  0
   45.4730   31.2720   36.7480 C   0  0  0  0  0  0  0  0  0  0  0  0
   46.2930   30.6720   37.7050 C   0  0  0  0  0  0  0  0  0  0  0  0
  2  1  1  0  0  0  0
  2  3  1  0  0  0  0
  3 15  1  0  0  0  0
  4  3  2  0  0  0  0
  4  8  1  0  0  0  0
  5  4  1  0  0  0  0
  6  7  1  0  0  0  0
  6  5  2  0  0  0  0
  7  2  2  0  0  0  0
  9  5  1  0  0  0  0
 10  6  1  0  0  0  0
 11 12  1  0  0  0  0
 11 17  1  0  0  0  0
 12 18  1  0  0  0  0
 13 19  1  0  0  0  0
 13 12  2  0  0  0  0
 14 13  1  0  0  0  0
 15 14  2  0  0  0  0
 15 16  1  0  0  0  0
 16 11  2  0  0  0  0
 21 22  1  0  0  0  0
 21 20  1  0  0  0  0
 22  7  1  0  0  0  0
 23 22  2  0  0  0  0
 24 23  1  0  0  0  0
 25 23  1  0  0  0  0
 26 25  1  0  0  0  0
 27 25  2  0  0  0  0
 27 28  1  0  0  0  0
 28 21  2  0  0  0  0
M  END
>  <minimizedAffinity>
-5.3981328

>  <minimizedRMSD>
0.280103534

$$$$
