
 OpenBabel03242514493D

 44 47  0  0  1  0  0  0  0  0999 V2000
   45.6520   34.3590   43.3680 C   0  0  0  0  0  0  0  0  0  0  0  0
   46.7650   33.5420   43.4830 C   0  0  0  0  0  0  0  0  0  0  0  0
   47.0810   33.0850   44.7770 C   0  0  0  0  0  0  0  0  0  0  0  0
   46.3010   33.4570   45.8230 N   0  0  0  0  0  0  0  0  0  0  0  0
   45.2340   34.2510   45.6520 C   0  0  0  0  0  0  0  0  0  0  0  0
   44.9260   34.6850   44.4450 N   0  0  0  0  0  0  0  0  0  0  0  0
   47.9410   32.4390   44.9430 H   0  0  0  0  0  0  0  0  0  0  0  0
   44.6940   34.4750   46.5620 H   0  0  0  0  0  0  0  0  0  0  0  0
   48.8100   34.0280   42.1410 C   0  0  2  0  0  0  0  0  0  0  0  0
   47.5860   33.0890   42.3250 C   0  0  1  0  0  0  0  0  0  0  0  0
   48.0110   31.8200   42.3620 O   0  0  0  0  0  0  0  0  0  0  0  0
   49.3730   31.7670   42.5220 C   0  0  0  0  0  0  0  0  0  0  0  0
   49.8670   32.9630   41.7610 C   0  0  1  0  0  0  0  0  0  0  0  0
   48.7860   34.6870   41.2900 H   0  0  0  0  0  0  0  0  0  0  0  0
   47.2380   33.2870   41.3550 H   0  0  0  0  0  0  0  0  0  0  0  0
   49.7220   30.8030   42.0770 H   0  0  0  0  0  0  0  0  0  0  0  0
   49.7150   31.8290   43.5570 H   0  0  0  0  0  0  0  0  0  0  0  0
   50.8590   33.3030   42.0780 H   0  0  0  0  0  0  0  0  0  0  0  0
   49.1870   34.6960   43.2350 O   0  0  0  0  0  0  0  0  0  0  0  0
   49.8460   34.1650   43.7630 H   0  0  0  0  0  0  0  0  0  0  0  0
   49.7930   32.6380   40.4250 O   0  0  0  0  0  0  0  0  0  0  0  0
   49.4550   31.7270   40.2340 H   0  0  0  0  0  0  0  0  0  0  0  0
   45.3140   34.8610   42.0090 C   0  0  0  0  0  0  0  0  0  0  0  0
   45.4920   35.9770   42.1070 H   0  0  0  0  0  0  0  0  0  0  0  0
   45.9650   34.5610   41.2090 H   0  0  0  0  0  0  0  0  0  0  0  0
   44.0380   32.3100   41.6730 F   0  0  0  0  0  0  0  0  0  0  0  0
   43.3470   33.4300   41.5110 C   0  0  0  0  0  0  0  0  0  0  0  0
   43.8890   34.6810   41.6680 C   0  0  0  0  0  0  0  0  0  0  0  0
   43.1020   35.8070   41.5070 C   0  0  0  0  0  0  0  0  0  0  0  0
   41.7760   35.6010   41.1880 C   0  0  0  0  0  0  0  0  0  0  0  0
   41.1650   34.3680   41.0150 C   0  0  0  0  0  0  0  0  0  0  0  0
   41.9890   33.2500   41.1850 C   0  0  0  0  0  0  0  0  0  0  0  0
   43.4650   36.8020   41.6150 H   0  0  0  0  0  0  0  0  0  0  0  0
   41.1470   36.4730   41.0610 H   0  0  0  0  0  0  0  0  0  0  0  0
   40.1160   34.2900   40.7650 H   0  0  0  0  0  0  0  0  0  0  0  0
   42.2060   32.0360   38.3020 Br  0  0  0  0  0  0  0  0  0  0  0  0
   41.4170   31.2160   39.8300 C   0  0  0  0  0  0  0  0  0  0  0  0
   41.4190   31.9160   41.0190 C   0  0  0  0  0  0  0  0  0  0  0  0
   40.8550   31.3530   42.1470 C   0  0  0  0  0  0  0  0  0  0  0  0
   40.8240   31.8520   43.1160 H   0  0  0  0  0  0  0  0  0  0  0  0
   40.2970   30.1060   42.0890 C   0  0  0  0  0  0  0  0  0  0  0  0
   39.8360   29.6110   42.9500 H   0  0  0  0  0  0  0  0  0  0  0  0
   40.2720   29.3640   40.9110 C   0  0  0  0  0  0  0  0  0  0  0  0
   40.8430   29.9570   39.8060 C   0  0  0  0  0  0  0  0  0  0  0  0
  1  2  2  0  0  0  0
  1  6  1  0  0  0  0
  2  3  1  0  0  0  0
  3  7  1  0  0  0  0
  3  4  2  0  0  0  0
  5  4  1  0  0  0  0
  5  8  1  0  0  0  0
  6  5  2  0  0  0  0
  9 14  1  6  0  0  0
  9 10  1  0  0  0  0
  9 19  1  0  0  0  0
 10 15  1  6  0  0  0
 10 11  1  0  0  0  0
 10  2  1  0  0  0  0
 11 12  1  0  0  0  0
 12 17  1  0  0  0  0
 13 18  1  1  0  0  0
 13  9  1  0  0  0  0
 13 12  1  0  0  0  0
 16 12  1  0  0  0  0
 19 20  1  0  0  0  0
 21 13  1  0  0  0  0
 22 21  1  0  0  0  0
 23 24  1  0  0  0  0
 23  1  1  0  0  0  0
 25 23  1  0  0  0  0
 27 28  1  0  0  0  0
 27 26  1  0  0  0  0
 28 23  1  0  0  0  0
 29 33  1  0  0  0  0
 29 28  2  0  0  0  0
 30 29  1  0  0  0  0
 31 32  1  0  0  0  0
 31 30  2  0  0  0  0
 32 27  2  0  0  0  0
 34 30  1  0  0  0  0
 35 31  1  0  0  0  0
 36 37  1  0  0  0  0
 37 38  1  0  0  0  0
 38 32  1  0  0  0  0
 38 39  2  0  0  0  0
 39 40  1  0  0  0  0
 41 39  1  0  0  0  0
 41 42  1  0  0  0  0
 43 41  2  0  0  0  0
 44 37  2  0  0  0  0
 44 43  1  0  0  0  0
M  END
>  <minimizedAffinity>
-6.04963303

>  <minimizedRMSD>
2.19909143

$$$$
