
 OpenBabel03242521393D

 21 22  0  0  0  0  0  0  0  0999 V2000
   45.3750   34.6370   44.5770 C   0  0  0  0  0  0  0  0  0  0  0  0
   45.8690   34.2310   43.3410 C   0  0  0  0  0  0  0  0  0  0  0  0
   46.7280   33.1300   43.2860 C   0  0  0  0  0  0  0  0  0  0  0  0
   47.0260   32.5250   44.4540 N   0  0  0  0  0  0  0  0  0  0  0  0
   46.5300   32.9430   45.6400 C   0  0  0  0  0  0  0  0  0  0  0  0
   45.7020   34.0030   45.7000 N   0  0  0  0  0  0  0  0  0  0  0  0
   45.5850   34.7610   42.4700 H   0  0  0  0  0  0  0  0  0  0  0  0
   46.8190   32.4020   46.5340 H   0  0  0  0  0  0  0  0  0  0  0  0
   49.2890   34.6030   42.6000 Br  0  0  0  0  0  0  0  0  0  0  0  0
   48.4470   33.2320   41.5660 C   0  0  0  0  0  0  0  0  0  0  0  0
   47.2770   32.6580   42.0190 C   0  0  0  0  0  0  0  0  0  0  0  0
   46.7300   31.6840   41.2290 C   0  0  0  0  0  0  0  0  0  0  0  0
   45.8180   31.2170   41.5530 H   0  0  0  0  0  0  0  0  0  0  0  0
   47.3180   31.2980   40.0400 C   0  0  0  0  0  0  0  0  0  0  0  0
   46.8340   30.5140   39.4520 H   0  0  0  0  0  0  0  0  0  0  0  0
   48.4880   31.9000   39.6240 C   0  0  0  0  0  3  0  0  0  0  0  0
   49.0800   32.8890   40.3890 C   0  0  0  0  0  3  0  0  0  0  0  0
   44.4600   35.8180   44.5930 C   0  0  0  0  0  0  0  0  0  0  0  0
   43.8050   35.8210   45.4840 H   0  0  0  0  0  0  0  0  0  0  0  0
   43.8720   35.8370   43.6590 H   0  0  0  0  0  0  0  0  0  0  0  0
   45.1270   36.7060   44.5790 H   0  0  0  0  0  0  0  0  0  0  0  0
  1 18  1  0  0  0  0
  1  6  1  0  0  0  0
  2  1  2  0  0  0  0
  3  2  1  0  0  0  0
  3  4  2  0  0  0  0
  4  5  1  0  0  0  0
  5  6  2  0  0  0  0
  5  8  1  0  0  0  0
  7  2  1  0  0  0  0
 10 11  1  0  0  0  0
 10  9  1  0  0  0  0
 11  3  1  0  0  0  0
 12 13  1  0  0  0  0
 12 11  2  0  0  0  0
 14 12  1  0  0  0  0
 15 14  1  0  0  0  0
 16 14  2  0  0  0  0
 16 17  1  0  0  0  0
 17 10  2  0  0  0  0
 18 19  1  0  0  0  0
 20 18  1  0  0  0  0
 21 18  1  0  0  0  0
M  END
>  <minimizedAffinity>
-3.63965774

>  <minimizedRMSD>
2.23249269

$$$$
