
     RDKit          3D

 30 32  0  0  0  0  0  0  0  0999 V2000
   44.4857   35.9585   44.7559 C   0  0  0  0  0  0  0  0  0  0  0  0
   45.1819   35.8941   43.5374 C   0  0  0  0  0  0  0  0  0  0  0  0
   46.0841   34.8637   43.2857 C   0  0  0  0  0  0  0  0  0  0  0  0
   46.2376   33.9473   44.2818 N   0  0  0  0  0  0  0  0  0  0  0  0
   45.5644   34.0253   45.4381 C   0  0  0  0  0  0  0  0  0  0  0  0
   44.7033   35.0096   45.6769 N   0  0  0  0  0  0  0  0  0  0  0  0
   45.0996   33.3425   41.1776 F   0  0  0  0  0  0  0  0  0  0  0  0
   46.2963   33.9949   41.0275 C   0  0  0  0  0  0  0  0  0  0  0  0
   46.8301   34.7584   42.0307 C   0  0  0  0  0  0  0  0  0  0  0  0
   48.0323   35.3697   41.7788 C   0  0  0  0  0  0  0  0  0  0  0  0
   48.7072   35.2523   40.5934 C   0  0  0  0  0  0  0  0  0  0  0  0
   48.1314   34.4754   39.6168 C   0  0  0  0  0  0  0  0  0  0  0  0
   46.9283   33.8394   39.8144 C   0  0  0  0  0  0  0  0  0  0  0  0
   43.8026   36.7696   44.9030 H   0  0  0  0  0  0  0  0  0  0  0  0
   45.0730   36.6128   42.7345 H   0  0  0  0  0  0  0  0  0  0  0  0
   45.8346   33.1982   46.0895 H   0  0  0  0  0  0  0  0  0  0  0  0
   48.4441   35.9747   42.5890 H   0  0  0  0  0  0  0  0  0  0  0  0
   49.6524   35.7522   40.4389 H   0  0  0  0  0  0  0  0  0  0  0  0
   48.6429   34.3638   38.6671 H   0  0  0  0  0  0  0  0  0  0  0  0
   48.5179   33.6018   37.1105 Br  0  0  0  0  0  0  0  0  0  0  0  0
   46.8453   32.7719   37.5077 C   0  0  0  0  0  0  0  0  0  0  0  0
   46.3191   33.0086   38.7612 C   0  0  0  0  0  0  0  0  0  0  0  0
   45.1173   32.4673   39.1714 C   0  0  0  0  0  0  0  0  0  0  0  0
   44.6476   32.6094   40.1328 H   0  0  0  0  0  0  0  0  0  0  0  0
   44.3979   31.6530   38.3054 C   0  0  0  0  0  0  0  0  0  0  0  0
   43.4446   31.2051   38.5888 H   0  0  0  0  0  0  0  0  0  0  0  0
   44.9343   31.4236   37.0548 C   0  0  0  0  0  0  0  0  0  0  0  0
   46.1351   31.9603   36.6358 C   0  0  0  0  0  0  0  0  0  0  0  0
   44.4040   30.7895   36.3400 H   0  0  0  0  0  0  0  0  0  0  0  0
   46.5768   31.7967   35.6631 H   0  0  0  0  0  0  0  0  0  0  0  0
  1  6  2  0
  2  1  1  0
  3  2  2  0
  3  4  1  0
  4  5  2  0
  5  6  1  0
  8  7  1  0
  8  9  2  0
  9  3  1  0
 10  9  1  0
 11 10  2  0
 12 13  2  0
 12 11  1  0
 13  8  1  0
  1 14  1  0
  2 15  1  0
  5 16  1  0
 10 17  1  0
 11 18  1  0
 12 19  1  0
 20 21  1  0
 21 22  2  0
 22 23  1  0
 23 24  1  0
 23 25  2  0
 25 26  1  0
 25 27  1  0
 27 28  2  0
 28 21  1  0
 27 29  1  0
 28 30  1  0
 13 22  1  0
M  ISO  8  14  14  15  14  16  14  17  14  18  14  19  14  24  15  26  16
M  END
>  <DihAtoms>  (1) 
11,12,21,20

>  <DihDeg>  (1) 
-89.99886251045167

$$$$
