REMARK  Name = 
REMARK  5 active torsions:
REMARK  status: ('A' for Active; 'I' for Inactive)
REMARK    1  A    between atoms: C_1  and  O_18
REMARK    2  A    between atoms: C_2  and  C_14
REMARK    3  A    between atoms: C_5  and  C_9
REMARK    4  A    between atoms: C_13  and  C_29
REMARK    5  A    between atoms: O_18  and  C_19
REMARK                            x       y       z     vdW  Elec       q    Type
REMARK                         _______ _______ _______ _____ _____    ______ ____
ROOT
ATOM      1  F   UNL     1      47.662  29.915  44.803  0.00  0.00    +0.000 F 
ATOM      2  C   UNL     1      47.591  30.640  45.963  0.00  0.00    +0.000 A 
ATOM      3  C   UNL     1      47.039  31.908  45.963  0.00  0.00    +0.000 A 
ATOM      4  C   UNL     1      47.009  32.568  47.182  0.00  0.00    +0.000 A 
ATOM      5  C   UNL     1      47.503  31.990  48.330  0.00  0.00    +0.000 A 
ATOM      6  C   UNL     1      48.044  30.718  48.268  0.00  0.00    +0.000 A 
ATOM      7  C   UNL     1      48.105  30.002  47.082  0.00  0.00    +0.000 A 
ATOM      8  H   UNL     1      46.588  33.566  47.250  0.00  0.00    +0.000 HD
ATOM      9  H   UNL     1      47.495  32.478  49.295  0.00  0.00    +0.000 HD
ATOM     10  H   UNL     1      48.437  30.252  49.165  0.00  0.00    +0.000 HD
ENDROOT
BRANCH   7  13
ATOM     11 BR   UNL     1      49.944  29.781  44.650  0.00  0.00    +0.000 Br
ATOM     12  C   UNL     1      49.539  28.414  45.935  0.00  0.00    +0.000 A 
ATOM     13  C   UNL     1      48.674  28.660  47.005  0.00  0.00    +0.000 A 
ATOM     14  C   UNL     1      48.386  27.674  47.927  0.00  0.00    +0.000 A 
ATOM     15  H   UNL     1      47.717  27.876  48.748  0.00  0.00    +0.000 HD
ATOM     16  C   UNL     1      48.990  26.448  47.738  0.00  0.00    +0.000 A 
ATOM     17  H   UNL     1      48.796  25.627  48.443  0.00  0.00    +0.000 HD
ATOM     18  C   UNL     1      49.852  26.128  46.713  0.00  0.00    +0.000 A 
ATOM     19  C   UNL     1      50.110  27.162  45.807  0.00  0.00    +0.000 A 
ENDBRANCH   7  13
BRANCH   3  24
ATOM     20  C   UNL     1      46.808  34.108  43.059  0.00  0.00    +0.000 A 
ATOM     21  C   UNL     1      45.636  33.709  42.435  0.00  0.00    +0.000 A 
ATOM     22  C   UNL     1      44.908  32.660  43.025  0.00  0.00    +0.000 A 
ATOM     23  N   UNL     1      45.377  32.094  44.161  0.00  0.00    +0.000 NA
ATOM     24  C   UNL     1      46.517  32.509  44.735  0.00  0.00    +0.000 A 
ATOM     25  N   UNL     1      47.238  33.519  44.186  0.00  0.00    +0.000 NA
ATOM     26  H   UNL     1      43.998  32.346  42.547  0.00  0.00    +0.000 HD
BRANCH  21  27
ATOM     27  C   UNL     1      45.197  34.382  41.197  0.00  0.00    +0.000 C 
ATOM     28  F   UNL     1      44.906  35.706  41.456  0.00  0.00    +0.000 F 
ATOM     29  F   UNL     1      46.276  34.380  40.309  0.00  0.00    +0.000 F 
ATOM     30  F   UNL     1      44.135  33.824  40.579  0.00  0.00    +0.000 F 
ENDBRANCH  21  27
BRANCH  20  31
ATOM     31  O   UNL     1      47.508  35.119  42.488  0.00  0.00    +0.000 OA
BRANCH  31  32
ATOM     32  C   UNL     1      48.822  35.045  41.955  0.00  0.00    +0.000 C 
ATOM     33  F   UNL     1      49.705  35.287  43.007  0.00  0.00    +0.000 F 
ATOM     34  F   UNL     1      49.006  33.835  41.348  0.00  0.00    +0.000 F 
ATOM     35  F   UNL     1      49.011  36.107  41.092  0.00  0.00    +0.000 F 
ENDBRANCH  31  32
ENDBRANCH  20  31
ENDBRANCH   3  24
TORSDOF 5
