
 OpenBabel03242521393D

 21 22  0  0  0  0  0  0  0  0999 V2000
   45.0300   34.5190   41.9790 C   0  0  0  0  0  0  0  0  0  0  0  0
   46.2410   33.8640   41.7740 C   0  0  0  0  0  0  0  0  0  0  0  0
   47.0810   33.6380   42.8680 C   0  0  0  0  0  0  0  0  0  0  0  0
   46.6540   34.0780   44.0700 N   0  0  0  0  0  0  0  0  0  0  0  0
   45.4720   34.7110   44.2380 C   0  0  0  0  0  0  0  0  0  0  0  0
   44.6590   34.9320   43.1880 N   0  0  0  0  0  0  0  0  0  0  0  0
   46.5000   33.5500   40.7970 H   0  0  0  0  0  0  0  0  0  0  0  0
   45.2030   35.0340   45.2380 H   0  0  0  0  0  0  0  0  0  0  0  0
   49.2550   35.5880   42.0510 Br  0  0  0  0  0  0  0  0  0  0  0  0
   49.4560   33.7100   42.3440 C   0  0  0  0  0  0  0  0  0  0  0  0
   48.3610   32.9560   42.7140 C   0  0  0  0  0  0  0  0  0  0  0  0
   48.5780   31.6190   42.9060 C   0  0  0  0  0  0  0  0  0  0  0  0
   47.7460   31.0030   43.1960 H   0  0  0  0  0  0  0  0  0  0  0  0
   49.8280   31.0540   42.7380 C   0  0  0  0  0  0  0  0  0  0  0  0
   49.9390   29.9790   42.9070 H   0  0  0  0  0  0  0  0  0  0  0  0
   50.8960   31.8460   42.3670 C   0  0  0  0  0  3  0  0  0  0  0  0
   50.7270   33.2040   42.1600 C   0  0  0  0  0  3  0  0  0  0  0  0
   44.1610   34.7410   40.7850 C   0  0  0  0  0  0  0  0  0  0  0  0
   43.0990   34.8670   41.0640 H   0  0  0  0  0  0  0  0  0  0  0  0
   44.2970   33.9070   40.0750 H   0  0  0  0  0  0  0  0  0  0  0  0
   44.5620   35.6560   40.2970 H   0  0  0  0  0  0  0  0  0  0  0  0
  1  6  1  0  0  0  0
  2  1  2  0  0  0  0
  2  3  1  0  0  0  0
  3  4  2  0  0  0  0
  4  5  1  0  0  0  0
  5  8  1  0  0  0  0
  6  5  2  0  0  0  0
  7  2  1  0  0  0  0
  9 10  1  0  0  0  0
 10 11  1  0  0  0  0
 11  3  1  0  0  0  0
 11 12  2  0  0  0  0
 12 13  1  0  0  0  0
 14 12  1  0  0  0  0
 14 15  1  0  0  0  0
 16 14  2  0  0  0  0
 17 10  2  0  0  0  0
 17 16  1  0  0  0  0
 18 19  1  0  0  0  0
 18  1  1  0  0  0  0
 20 18  1  0  0  0  0
 21 18  1  0  0  0  0
M  END
>  <minimizedAffinity>
-4.06902027

>  <minimizedRMSD>
1.6701616

$$$$
