
 OpenBabel03242523093D

 45 49  0  0  1  0  0  0  0  0999 V2000
   38.6050   29.4140   41.9810 C   0  0  0  0  0  0  0  0  0  0  0  0
   37.7130   29.6420   40.9410 C   0  0  0  0  0  0  0  0  0  0  0  0
   36.7420   28.7040   40.7080 C   0  0  0  0  0  0  0  0  0  0  0  0
   36.6920   27.5900   41.5030 N   0  0  0  0  0  0  0  0  0  0  0  0
   37.5700   27.3960   42.5040 C   0  0  0  0  0  0  0  0  0  0  0  0
   38.5060   28.2950   42.7340 N   0  0  0  0  0  0  0  0  0  0  0  0
   39.3910   30.1340   42.1990 H   0  0  0  0  0  0  0  0  0  0  0  0
   37.5970   26.5470   43.1710 H   0  0  0  0  0  0  0  0  0  0  0  0
   37.8730   30.8000   40.1800 N   0  0  0  0  0  0  0  0  0  0  0  0
   37.1460   31.9870   40.4200 C   0  0  0  0  0  0  0  0  0  0  0  0
   37.5800   33.1730   39.5950 C   0  0  0  0  0  0  0  0  0  0  0  0
   38.9680   33.3060   39.3880 N   0  0  0  0  0  0  0  0  0  0  0  0
   39.6820   32.1260   39.1550 C   0  0  0  0  0  0  0  0  0  0  0  0
   38.7710   30.9160   39.0810 C   0  0  0  0  0  0  0  0  0  0  0  0
   36.0840   31.7750   40.1030 H   0  0  0  0  0  0  0  0  0  0  0  0
   37.0420   32.2790   41.4880 H   0  0  0  0  0  0  0  0  0  0  0  0
   37.2180   34.0890   40.1130 H   0  0  0  0  0  0  0  0  0  0  0  0
   37.0620   33.1740   38.5940 H   0  0  0  0  0  0  0  0  0  0  0  0
   39.3850   33.8580   40.1840 H   0  0  0  0  0  0  0  0  0  0  0  0
   40.5520   31.9530   39.8200 H   0  0  0  0  0  0  0  0  0  0  0  0
   40.1480   32.1810   38.1250 H   0  0  0  0  0  0  0  0  0  0  0  0
   39.3990   30.0200   38.9030 H   0  0  0  0  0  0  0  0  0  0  0  0
   38.1380   31.0300   38.1620 H   0  0  0  0  0  0  0  0  0  0  0  0
   35.9930   27.8100   38.6620 C   0  0  0  0  0  0  0  0  0  0  0  0
   35.6950   28.6350   39.7690 C   0  0  0  0  0  0  0  0  0  0  0  0
   34.4500   29.2140   39.6140 C   0  0  0  0  0  0  0  0  0  0  0  0
   33.6020   29.0460   38.5660 C   0  0  0  0  0  0  0  0  0  0  0  0
   33.9740   28.2300   37.5240 C   0  0  0  0  0  0  0  0  0  0  0  0
   35.1790   27.5980   37.5630 C   0  0  0  0  0  0  0  0  0  0  0  0
   32.9230   28.2850   36.6340 O   0  0  0  0  0  0  0  0  0  0  0  0
   31.8880   29.0870   37.1450 C   0  0  1  0  0  0  0  0  0  0  0  0
   32.3460   29.6080   38.3930 O   0  0  0  0  0  0  0  0  0  0  0  0
   36.8910   27.1890   38.4600 H   0  0  0  0  0  0  0  0  0  0  0  0
   34.2280   29.8290   40.4300 H   0  0  0  0  0  0  0  0  0  0  0  0
   35.3710   26.9920   36.7200 H   0  0  0  0  0  0  0  0  0  0  0  0
   31.0300   28.3930   37.3840 H   0  0  0  0  0  0  0  0  0  0  0  0
   29.6400   31.0150   38.2280 Br  0  0  0  0  0  0  0  0  0  0  0  0
   30.5110   31.1530   36.5410 C   0  0  0  0  0  0  0  0  0  0  0  0
   31.4700   30.1940   36.2750 C   0  0  0  0  0  0  0  0  0  0  0  0
   32.1260   30.2660   35.0520 C   0  0  0  0  0  0  0  0  0  0  0  0
   32.9030   29.5840   34.6990 H   0  0  0  0  0  0  0  0  0  0  0  0
   31.8310   31.2670   34.1250 C   0  0  0  0  0  0  0  0  0  0  0  0
   32.3320   31.3400   33.1650 H   0  0  0  0  0  0  0  0  0  0  0  0
   30.8650   32.2350   34.3910 C   0  0  0  0  0  3  0  0  0  0  0  0
   30.2190   32.1460   35.6210 C   0  0  0  0  0  3  0  0  0  0  0  0
  1  7  1  0  0  0  0
  1  6  1  0  0  0  0
  2  1  2  0  0  0  0
  3  2  1  0  0  0  0
  3  4  2  0  0  0  0
  4  5  1  0  0  0  0
  5  6  2  0  0  0  0
  5  8  1  0  0  0  0
  9 10  1  0  0  0  0
  9  2  1  0  0  0  0
 10 16  1  0  0  0  0
 11 17  1  0  0  0  0
 11 10  1  0  0  0  0
 12 11  1  0  0  0  0
 12 19  1  0  0  0  0
 13 12  1  0  0  0  0
 13 20  1  0  0  0  0
 14 13  1  0  0  0  0
 14  9  1  0  0  0  0
 15 10  1  0  0  0  0
 18 11  1  0  0  0  0
 21 13  1  0  0  0  0
 22 14  1  0  0  0  0
 23 14  1  0  0  0  0
 24 25  1  0  0  0  0
 25  3  1  0  0  0  0
 26 25  2  0  0  0  0
 26 34  1  0  0  0  0
 27 26  1  0  0  0  0
 28 29  1  0  0  0  0
 28 27  2  0  0  0  0
 29 24  2  0  0  0  0
 30 31  1  0  0  0  0
 30 28  1  0  0  0  0
 31 36  1  1  0  0  0
 31 32  1  0  0  0  0
 32 27  1  0  0  0  0
 33 24  1  0  0  0  0
 35 29  1  0  0  0  0
 38 37  1  0  0  0  0
 39 38  1  0  0  0  0
 39 31  1  0  0  0  0
 40 39  2  0  0  0  0
 41 40  1  0  0  0  0
 42 44  2  0  0  0  0
 42 40  1  0  0  0  0
 43 42  1  0  0  0  0
 44 45  1  0  0  0  0
 45 38  2  0  0  0  0
M  END
>  <minimizedAffinity>
-6.69533396

$$$$

 OpenBabel03242523093D

 45 49  0  0  1  0  0  0  0  0999 V2000
   42.7950   34.0300   40.3290 C   0  0  0  0  0  0  0  0  0  0  0  0
   42.1670   32.8060   40.5190 C   0  0  0  0  0  0  0  0  0  0  0  0
   42.4000   32.1380   41.6920 C   0  0  0  0  0  0  0  0  0  0  0  0
   43.2360   32.6990   42.6200 N   0  0  0  0  0  0  0  0  0  0  0  0
   43.8320   33.8870   42.4090 C   0  0  0  0  0  0  0  0  0  0  0  0
   43.6110   34.5360   41.2830 N   0  0  0  0  0  0  0  0  0  0  0  0
   42.6380   34.5940   39.4120 H   0  0  0  0  0  0  0  0  0  0  0  0
   44.5020   34.3930   43.0880 H   0  0  0  0  0  0  0  0  0  0  0  0
   41.3550   32.3200   39.4950 N   0  0  0  0  0  0  0  0  0  0  0  0
   39.9750   32.6070   39.4020 C   0  0  0  0  0  0  0  0  0  0  0  0
   39.3110   32.1230   38.1370 C   0  0  0  0  0  0  0  0  0  0  0  0
   40.0700   32.2470   36.9550 N   0  0  0  0  0  0  0  0  0  0  0  0
   41.4360   31.9640   37.0560 C   0  0  0  0  0  0  0  0  0  0  0  0
   41.8150   31.4790   38.4420 C   0  0  0  0  0  0  0  0  0  0  0  0
   39.4770   32.0360   40.2370 H   0  0  0  0  0  0  0  0  0  0  0  0
   39.6900   33.6630   39.6050 H   0  0  0  0  0  0  0  0  0  0  0  0
   38.3730   32.7070   38.0090 H   0  0  0  0  0  0  0  0  0  0  0  0
   38.9810   31.0510   38.2450 H   0  0  0  0  0  0  0  0  0  0  0  0
   39.9030   33.2000   36.5350 H   0  0  0  0  0  0  0  0  0  0  0  0
   42.1180   32.7580   36.6910 H   0  0  0  0  0  0  0  0  0  0  0  0
   41.6760   31.0850   36.3830 H   0  0  0  0  0  0  0  0  0  0  0  0
   42.9060   31.2810   38.4540 H   0  0  0  0  0  0  0  0  0  0  0  0
   41.3250   30.4810   38.5920 H   0  0  0  0  0  0  0  0  0  0  0  0
   42.9510   30.0230   42.5690 C   0  0  0  0  0  0  0  0  0  0  0  0
   41.9210   30.9140   42.1980 C   0  0  0  0  0  0  0  0  0  0  0  0
   40.6850   30.3230   42.3800 C   0  0  0  0  0  0  0  0  0  0  0  0
   40.4470   29.0680   42.8440 C   0  0  0  0  0  0  0  0  0  0  0  0
   41.5100   28.2610   43.1770 C   0  0  0  0  0  0  0  0  0  0  0  0
   42.7800   28.7350   43.0440 C   0  0  0  0  0  0  0  0  0  0  0  0
   40.9430   27.0750   43.5890 O   0  0  0  0  0  0  0  0  0  0  0  0
   39.5400   27.1650   43.5610 C   0  0  1  0  0  0  0  0  0  0  0  0
   39.2190   28.4570   43.0440 O   0  0  0  0  0  0  0  0  0  0  0  0
   44.0510   30.1670   42.5640 H   0  0  0  0  0  0  0  0  0  0  0  0
   39.9200   30.9780   42.1020 H   0  0  0  0  0  0  0  0  0  0  0  0
   43.5250   28.0430   43.3280 H   0  0  0  0  0  0  0  0  0  0  0  0
   39.1950   27.1550   44.6350 H   0  0  0  0  0  0  0  0  0  0  0  0
   36.3960   27.3020   43.3700 Br  0  0  0  0  0  0  0  0  0  0  0  0
   37.5090   26.0000   42.5380 C   0  0  0  0  0  0  0  0  0  0  0  0
   38.8660   26.1350   42.7590 C   0  0  0  0  0  0  0  0  0  0  0  0
   39.7070   25.2010   42.1660 C   0  0  0  0  0  0  0  0  0  0  0  0
   40.7970   25.1750   42.2470 H   0  0  0  0  0  0  0  0  0  0  0  0
   39.2050   24.1660   41.3760 C   0  0  0  0  0  0  0  0  0  0  0  0
   39.8450   23.4280   40.9040 H   0  0  0  0  0  0  0  0  0  0  0  0
   37.8360   24.0280   41.1510 C   0  0  0  0  0  3  0  0  0  0  0  0
   37.0100   24.9730   41.7540 C   0  0  0  0  0  3  0  0  0  0  0  0
  1  2  2  0  0  0  0
  1  6  1  0  0  0  0
  2  3  1  0  0  0  0
  3 25  1  0  0  0  0
  3  4  2  0  0  0  0
  5  4  1  0  0  0  0
  5  8  1  0  0  0  0
  6  5  2  0  0  0  0
  7  1  1  0  0  0  0
  9  2  1  0  0  0  0
 10  9  1  0  0  0  0
 10 16  1  0  0  0  0
 10 15  1  0  0  0  0
 11 18  1  0  0  0  0
 11 10  1  0  0  0  0
 12 13  1  0  0  0  0
 12 11  1  0  0  0  0
 13 14  1  0  0  0  0
 14 22  1  0  0  0  0
 14 23  1  0  0  0  0
 14  9  1  0  0  0  0
 17 11  1  0  0  0  0
 19 12  1  0  0  0  0
 20 13  1  0  0  0  0
 21 13  1  0  0  0  0
 24 29  1  0  0  0  0
 25 26  1  0  0  0  0
 25 24  2  0  0  0  0
 26 27  2  0  0  0  0
 27 32  1  0  0  0  0
 27 28  1  0  0  0  0
 28 30  1  0  0  0  0
 29 28  2  0  0  0  0
 29 35  1  0  0  0  0
 31 30  1  0  0  0  0
 31 36  1  1  0  0  0
 32 31  1  0  0  0  0
 33 24  1  0  0  0  0
 34 26  1  0  0  0  0
 38 39  1  0  0  0  0
 38 37  1  0  0  0  0
 39 31  1  0  0  0  0
 40 41  1  0  0  0  0
 40 39  2  0  0  0  0
 42 40  1  0  0  0  0
 43 42  1  0  0  0  0
 44 42  2  0  0  0  0
 44 45  1  0  0  0  0
 45 38  2  0  0  0  0
M  END
>  <minimizedAffinity>
-6.66635704

$$$$

 OpenBabel03242523093D

 45 49  0  0  1  0  0  0  0  0999 V2000
   30.6490   28.1500   35.3550 C   0  0  0  0  0  0  0  0  0  0  0  0
   31.4450   28.8140   36.2790 C   0  0  0  0  0  0  0  0  0  0  0  0
   32.7030   28.3250   36.5140 C   0  0  0  0  0  0  0  0  0  0  0  0
   33.1190   27.2110   35.8360 N   0  0  0  0  0  0  0  0  0  0  0  0
   32.3250   26.5870   34.9460 C   0  0  0  0  0  0  0  0  0  0  0  0
   31.1140   27.0530   34.7140 N   0  0  0  0  0  0  0  0  0  0  0  0
   29.6430   28.5050   35.1380 H   0  0  0  0  0  0  0  0  0  0  0  0
   32.5780   25.7070   34.3750 H   0  0  0  0  0  0  0  0  0  0  0  0
   30.9080   29.9250   36.9290 N   0  0  0  0  0  0  0  0  0  0  0  0
   30.8030   31.1970   36.3220 C   0  0  0  0  0  0  0  0  0  0  0  0
   30.0480   32.2240   37.1300 C   0  0  0  0  0  0  0  0  0  0  0  0
   28.9150   31.7510   37.8250 N   0  0  0  0  0  0  0  0  0  0  0  0
   29.0270   30.4900   38.4190 C   0  0  0  0  0  0  0  0  0  0  0  0
   30.4190   29.9100   38.2660 C   0  0  0  0  0  0  0  0  0  0  0  0
   31.8540   31.5960   36.2410 H   0  0  0  0  0  0  0  0  0  0  0  0
   30.4440   31.1990   35.2700 H   0  0  0  0  0  0  0  0  0  0  0  0
   29.7170   33.0210   36.4290 H   0  0  0  0  0  0  0  0  0  0  0  0
   30.7340   32.7370   37.8620 H   0  0  0  0  0  0  0  0  0  0  0  0
   28.0740   31.8060   37.1910 H   0  0  0  0  0  0  0  0  0  0  0  0
   28.2390   29.7600   38.1460 H   0  0  0  0  0  0  0  0  0  0  0  0
   28.8990   30.6030   39.5390 H   0  0  0  0  0  0  0  0  0  0  0  0
   30.4360   28.9130   38.7510 H   0  0  0  0  0  0  0  0  0  0  0  0
   31.1160   30.5510   38.8680 H   0  0  0  0  0  0  0  0  0  0  0  0
   34.9300   29.0770   36.6540 C   0  0  0  0  0  0  0  0  0  0  0  0
   33.7470   28.7580   37.3550 C   0  0  0  0  0  0  0  0  0  0  0  0
   33.9390   28.9050   38.7160 C   0  0  0  0  0  0  0  0  0  0  0  0
   35.0850   29.2940   39.3350 C   0  0  0  0  0  0  0  0  0  0  0  0
   36.1960   29.5800   38.5770 C   0  0  0  0  0  0  0  0  0  0  0  0
   36.1280   29.4770   37.2210 C   0  0  0  0  0  0  0  0  0  0  0  0
   37.1710   29.9220   39.4870 O   0  0  0  0  0  0  0  0  0  0  0  0
   36.6540   29.8980   40.7940 C   0  0  1  0  0  0  0  0  0  0  0  0
   35.2990   29.4570   40.6950 O   0  0  0  0  0  0  0  0  0  0  0  0
   35.1300   29.0820   35.5630 H   0  0  0  0  0  0  0  0  0  0  0  0
   33.0670   28.6640   39.2380 H   0  0  0  0  0  0  0  0  0  0  0  0
   37.0290   29.7210   36.7280 H   0  0  0  0  0  0  0  0  0  0  0  0
   36.6170   30.9690   41.1470 H   0  0  0  0  0  0  0  0  0  0  0  0
   39.4280   30.9420   41.8700 Br  0  0  0  0  0  0  0  0  0  0  0  0
   38.6030   29.2890   42.3300 C   0  0  0  0  0  0  0  0  0  0  0  0
   37.3820   29.0360   41.7360 C   0  0  0  0  0  0  0  0  0  0  0  0
   36.7520   27.8390   42.0510 C   0  0  0  0  0  0  0  0  0  0  0  0
   35.7880   27.4980   41.6630 H   0  0  0  0  0  0  0  0  0  0  0  0
   37.3270   26.9230   42.9330 C   0  0  0  0  0  0  0  0  0  0  0  0
   36.8510   25.9820   43.1910 H   0  0  0  0  0  0  0  0  0  0  0  0
   38.5590   27.1750   43.5340 C   0  0  0  0  0  3  0  0  0  0  0  0
   39.1740   28.3800   43.2060 C   0  0  0  0  0  3  0  0  0  0  0  0
  1  2  1  0  0  0  0
  2  3  2  0  0  0  0
  2  9  1  0  0  0  0
  3 25  1  0  0  0  0
  4  3  1  0  0  0  0
  5  4  2  0  0  0  0
  6  5  1  0  0  0  0
  6  1  2  0  0  0  0
  7  1  1  0  0  0  0
  8  5  1  0  0  0  0
  9 14  1  0  0  0  0
 10  9  1  0  0  0  0
 10 11  1  0  0  0  0
 11 12  1  0  0  0  0
 11 18  1  0  0  0  0
 12 13  1  0  0  0  0
 13 21  1  0  0  0  0
 14 13  1  0  0  0  0
 14 22  1  0  0  0  0
 14 23  1  0  0  0  0
 15 10  1  0  0  0  0
 16 10  1  0  0  0  0
 17 11  1  0  0  0  0
 19 12  1  0  0  0  0
 20 13  1  0  0  0  0
 24 29  2  0  0  0  0
 24 25  1  0  0  0  0
 25 26  2  0  0  0  0
 26 34  1  0  0  0  0
 26 27  1  0  0  0  0
 27 32  1  0  0  0  0
 28 27  2  0  0  0  0
 28 30  1  0  0  0  0
 29 28  1  0  0  0  0
 30 31  1  0  0  0  0
 31 36  1  1  0  0  0
 31 39  1  0  0  0  0
 32 31  1  0  0  0  0
 33 24  1  0  0  0  0
 35 29  1  0  0  0  0
 37 38  1  0  0  0  0
 38 45  1  0  0  0  0
 39 40  1  0  0  0  0
 39 38  2  0  0  0  0
 40 42  2  0  0  0  0
 41 40  1  0  0  0  0
 42 43  1  0  0  0  0
 42 44  1  0  0  0  0
 45 44  2  0  0  0  0
M  END
>  <minimizedAffinity>
-6.45428801

$$$$

 OpenBabel03242523093D

 45 49  0  0  1  0  0  0  0  0999 V2000
   39.9680   28.7430   38.7760 C   0  0  0  0  0  0  0  0  0  0  0  0
   38.6000   28.9500   38.6600 C   0  0  0  0  0  0  0  0  0  0  0  0
   37.9680   28.4670   37.5440 C   0  0  0  0  0  0  0  0  0  0  0  0
   38.7060   27.8070   36.5980 N   0  0  0  0  0  0  0  0  0  0  0  0
   40.0320   27.6220   36.7380 C   0  0  0  0  0  0  0  0  0  0  0  0
   40.6460   28.0830   37.8090 N   0  0  0  0  0  0  0  0  0  0  0  0
   40.5090   29.1100   39.6460 H   0  0  0  0  0  0  0  0  0  0  0  0
   40.6800   27.1150   36.0380 H   0  0  0  0  0  0  0  0  0  0  0  0
   37.9550   29.6570   39.6740 N   0  0  0  0  0  0  0  0  0  0  0  0
   37.7570   31.0550   39.6340 C   0  0  0  0  0  0  0  0  0  0  0  0
   36.8970   31.6060   40.7450 C   0  0  0  0  0  0  0  0  0  0  0  0
   35.7920   30.8150   41.1210 N   0  0  0  0  0  0  0  0  0  0  0  0
   35.9970   29.4310   41.1550 C   0  0  0  0  0  0  0  0  0  0  0  0
   37.4370   29.0610   40.8590 C   0  0  0  0  0  0  0  0  0  0  0  0
   38.7720   31.5230   39.7830 H   0  0  0  0  0  0  0  0  0  0  0  0
   37.4260   31.4650   38.6550 H   0  0  0  0  0  0  0  0  0  0  0  0
   36.5170   32.5970   40.4120 H   0  0  0  0  0  0  0  0  0  0  0  0
   37.5190   31.8190   41.6610 H   0  0  0  0  0  0  0  0  0  0  0  0
   34.9650   31.0680   40.5170 H   0  0  0  0  0  0  0  0  0  0  0  0
   35.2800   28.8260   40.5620 H   0  0  0  0  0  0  0  0  0  0  0  0
   35.8320   29.0650   42.2130 H   0  0  0  0  0  0  0  0  0  0  0  0
   37.5260   27.9570   40.8950 H   0  0  0  0  0  0  0  0  0  0  0  0
   38.0610   29.4430   41.7090 H   0  0  0  0  0  0  0  0  0  0  0  0
   36.4280   27.9700   35.8340 C   0  0  0  0  0  0  0  0  0  0  0  0
   36.6220   28.4890   37.1320 C   0  0  0  0  0  0  0  0  0  0  0  0
   35.4250   28.9440   37.6520 C   0  0  0  0  0  0  0  0  0  0  0  0
   34.2120   28.9170   37.0390 C   0  0  0  0  0  0  0  0  0  0  0  0
   34.1120   28.4000   35.7690 C   0  0  0  0  0  0  0  0  0  0  0  0
   35.2250   27.9160   35.1510 C   0  0  0  0  0  0  0  0  0  0  0  0
   32.7820   28.5310   35.4330 O   0  0  0  0  0  0  0  0  0  0  0  0
   32.0560   29.0770   36.5060 C   0  0  1  0  0  0  0  0  0  0  0  0
   32.9980   29.3580   37.5420 O   0  0  0  0  0  0  0  0  0  0  0  0
   37.1590   27.5150   35.1340 H   0  0  0  0  0  0  0  0  0  0  0  0
   35.5660   29.3340   38.6120 H   0  0  0  0  0  0  0  0  0  0  0  0
   35.0450   27.5370   34.1830 H   0  0  0  0  0  0  0  0  0  0  0  0
   31.3880   28.2550   36.8950 H   0  0  0  0  0  0  0  0  0  0  0  0
   29.8640   30.0000   38.5750 Br  0  0  0  0  0  0  0  0  0  0  0  0
   30.2990   30.8800   36.9430 C   0  0  0  0  0  0  0  0  0  0  0  0
   31.2980   30.2950   36.1890 C   0  0  0  0  0  0  0  0  0  0  0  0
   31.6420   30.9120   34.9920 C   0  0  0  0  0  0  0  0  0  0  0  0
   32.4070   30.5710   34.2910 H   0  0  0  0  0  0  0  0  0  0  0  0
   31.0050   32.0770   34.5640 C   0  0  0  0  0  0  0  0  0  0  0  0
   31.2590   32.5730   33.6330 H   0  0  0  0  0  0  0  0  0  0  0  0
   29.9970   32.6690   35.3230 C   0  0  0  0  0  3  0  0  0  0  0  0
   29.6670   32.0360   36.5180 C   0  0  0  0  0  3  0  0  0  0  0  0
  1  7  1  0  0  0  0
  2  1  1  0  0  0  0
  2  9  1  0  0  0  0
  3  2  2  0  0  0  0
  4  5  2  0  0  0  0
  4  3  1  0  0  0  0
  5  6  1  0  0  0  0
  6  1  2  0  0  0  0
  8  5  1  0  0  0  0
  9 14  1  0  0  0  0
 10  9  1  0  0  0  0
 10 15  1  0  0  0  0
 10 11  1  0  0  0  0
 11 12  1  0  0  0  0
 11 18  1  0  0  0  0
 12 13  1  0  0  0  0
 13 21  1  0  0  0  0
 14 22  1  0  0  0  0
 14 13  1  0  0  0  0
 14 23  1  0  0  0  0
 16 10  1  0  0  0  0
 17 11  1  0  0  0  0
 19 12  1  0  0  0  0
 20 13  1  0  0  0  0
 24 25  1  0  0  0  0
 25  3  1  0  0  0  0
 25 26  2  0  0  0  0
 26 34  1  0  0  0  0
 27 32  1  0  0  0  0
 27 26  1  0  0  0  0
 28 27  2  0  0  0  0
 29 28  1  0  0  0  0
 29 24  2  0  0  0  0
 30 28  1  0  0  0  0
 30 31  1  0  0  0  0
 31 36  1  1  0  0  0
 31 32  1  0  0  0  0
 33 24  1  0  0  0  0
 35 29  1  0  0  0  0
 38 37  1  0  0  0  0
 39 31  1  0  0  0  0
 39 38  2  0  0  0  0
 40 39  1  0  0  0  0
 41 40  1  0  0  0  0
 42 40  2  0  0  0  0
 42 44  1  0  0  0  0
 43 42  1  0  0  0  0
 44 45  2  0  0  0  0
 45 38  1  0  0  0  0
M  END
>  <minimizedAffinity>
-6.22808886

$$$$

 OpenBabel03242523093D

 45 49  0  0  1  0  0  0  0  0999 V2000
   42.7340   32.7080   41.4090 C   0  0  0  0  0  0  0  0  0  0  0  0
   41.6150   32.0250   40.9530 C   0  0  0  0  0  0  0  0  0  0  0  0
   41.0800   31.0540   41.7590 C   0  0  0  0  0  0  0  0  0  0  0  0
   41.6680   30.7990   42.9680 N   0  0  0  0  0  0  0  0  0  0  0  0
   42.7540   31.4760   43.3840 C   0  0  0  0  0  0  0  0  0  0  0  0
   43.2730   32.4130   42.6150 N   0  0  0  0  0  0  0  0  0  0  0  0
   43.1900   33.4870   40.8010 H   0  0  0  0  0  0  0  0  0  0  0  0
   43.2740   31.3330   44.3200 H   0  0  0  0  0  0  0  0  0  0  0  0
   41.1140   32.3530   39.6930 N   0  0  0  0  0  0  0  0  0  0  0  0
   41.7850   32.0370   38.4910 C   0  0  0  0  0  0  0  0  0  0  0  0
   41.0040   32.3300   37.2340 C   0  0  0  0  0  0  0  0  0  0  0  0
   39.6230   32.0520   37.2860 N   0  0  0  0  0  0  0  0  0  0  0  0
   38.9670   32.3650   38.4810 C   0  0  0  0  0  0  0  0  0  0  0  0
   39.8890   33.0440   39.4750 C   0  0  0  0  0  0  0  0  0  0  0  0
   42.6870   32.7130   38.4460 H   0  0  0  0  0  0  0  0  0  0  0  0
   42.2240   31.0170   38.4400 H   0  0  0  0  0  0  0  0  0  0  0  0
   41.4490   31.7210   36.4160 H   0  0  0  0  0  0  0  0  0  0  0  0
   41.1470   33.4030   36.9170 H   0  0  0  0  0  0  0  0  0  0  0  0
   39.4620   31.0470   37.0090 H   0  0  0  0  0  0  0  0  0  0  0  0
   38.3930   31.5370   38.9440 H   0  0  0  0  0  0  0  0  0  0  0  0
   38.1730   33.1440   38.2680 H   0  0  0  0  0  0  0  0  0  0  0  0
   39.3100   33.2560   40.3970 H   0  0  0  0  0  0  0  0  0  0  0  0
   40.1580   34.0470   39.0500 H   0  0  0  0  0  0  0  0  0  0  0  0
   39.1980   30.0830   42.7890 C   0  0  0  0  0  0  0  0  0  0  0  0
   39.9660   30.2060   41.6110 C   0  0  0  0  0  0  0  0  0  0  0  0
   39.4450   29.4050   40.6120 C   0  0  0  0  0  0  0  0  0  0  0  0
   38.3560   28.5970   40.7060 C   0  0  0  0  0  0  0  0  0  0  0  0
   37.6680   28.5310   41.8950 C   0  0  0  0  0  0  0  0  0  0  0  0
   38.0840   29.2800   42.9530 C   0  0  0  0  0  0  0  0  0  0  0  0
   36.6500   27.6310   41.6690 O   0  0  0  0  0  0  0  0  0  0  0  0
   36.6760   27.1840   40.3360 C   0  0  1  0  0  0  0  0  0  0  0  0
   37.8100   27.7920   39.7180 O   0  0  0  0  0  0  0  0  0  0  0  0
   39.3190   30.5860   43.7710 H   0  0  0  0  0  0  0  0  0  0  0  0
   40.0140   29.4890   39.7400 H   0  0  0  0  0  0  0  0  0  0  0  0
   37.4890   29.1630   43.8180 H   0  0  0  0  0  0  0  0  0  0  0  0
   35.7650   27.6190   39.8320 H   0  0  0  0  0  0  0  0  0  0  0  0
   35.4590   25.9620   37.6970 Br  0  0  0  0  0  0  0  0  0  0  0  0
   36.2850   24.9800   39.1030 C   0  0  0  0  0  0  0  0  0  0  0  0
   36.7500   25.7260   40.1700 C   0  0  0  0  0  0  0  0  0  0  0  0
   37.3590   25.0410   41.2140 C   0  0  0  0  0  0  0  0  0  0  0  0
   37.7740   25.4890   42.1200 H   0  0  0  0  0  0  0  0  0  0  0  0
   37.5000   23.6530   41.1910 C   0  0  0  0  0  0  0  0  0  0  0  0
   37.9720   23.1000   41.9960 H   0  0  0  0  0  0  0  0  0  0  0  0
   37.0320   22.8980   40.1160 C   0  0  0  0  0  3  0  0  0  0  0  0
   36.4250   23.6020   39.0800 C   0  0  0  0  0  3  0  0  0  0  0  0
  1  6  1  0  0  0  0
  2  1  2  0  0  0  0
  2  3  1  0  0  0  0
  3  4  2  0  0  0  0
  4  5  1  0  0  0  0
  5  8  1  0  0  0  0
  6  5  2  0  0  0  0
  7  1  1  0  0  0  0
  9  2  1  0  0  0  0
 10  9  1  0  0  0  0
 11 12  1  0  0  0  0
 11 10  1  0  0  0  0
 12 13  1  0  0  0  0
 13 20  1  0  0  0  0
 13 14  1  0  0  0  0
 14  9  1  0  0  0  0
 14 22  1  0  0  0  0
 15 10  1  0  0  0  0
 16 10  1  0  0  0  0
 17 11  1  0  0  0  0
 18 11  1  0  0  0  0
 19 12  1  0  0  0  0
 21 13  1  0  0  0  0
 23 14  1  0  0  0  0
 24 29  1  0  0  0  0
 24 33  1  0  0  0  0
 25  3  1  0  0  0  0
 25 24  2  0  0  0  0
 26 27  2  0  0  0  0
 26 25  1  0  0  0  0
 27 28  1  0  0  0  0
 28 29  2  0  0  0  0
 29 35  1  0  0  0  0
 30 28  1  0  0  0  0
 31 36  1  6  0  0  0
 31 30  1  0  0  0  0
 32 31  1  0  0  0  0
 32 27  1  0  0  0  0
 34 26  1  0  0  0  0
 37 38  1  0  0  0  0
 38 39  1  0  0  0  0
 39 31  1  0  0  0  0
 39 40  2  0  0  0  0
 40 41  1  0  0  0  0
 42 40  1  0  0  0  0
 42 43  1  0  0  0  0
 44 42  2  0  0  0  0
 45 38  2  0  0  0  0
 45 44  1  0  0  0  0
M  END
>  <minimizedAffinity>
-6.15645123

$$$$

 OpenBabel03242523093D

 45 49  0  0  1  0  0  0  0  0999 V2000
   43.6950   33.7130   42.0130 C   0  0  0  0  0  0  0  0  0  0  0  0
   42.6420   32.8540   41.7290 C   0  0  0  0  0  0  0  0  0  0  0  0
   42.4740   31.7540   42.5290 C   0  0  0  0  0  0  0  0  0  0  0  0
   43.3450   31.5490   43.5650 N   0  0  0  0  0  0  0  0  0  0  0  0
   44.3580   32.3990   43.8170 C   0  0  0  0  0  0  0  0  0  0  0  0
   44.5240   33.4600   43.0520 N   0  0  0  0  0  0  0  0  0  0  0  0
   43.8650   34.5970   41.4030 H   0  0  0  0  0  0  0  0  0  0  0  0
   45.0840   32.3060   44.6110 H   0  0  0  0  0  0  0  0  0  0  0  0
   41.8320   33.1490   40.6330 N   0  0  0  0  0  0  0  0  0  0  0  0
   41.9210   32.4620   39.4010 C   0  0  0  0  0  0  0  0  0  0  0  0
   40.8510   32.8190   38.3980 C   0  0  0  0  0  0  0  0  0  0  0  0
   39.5590   33.0270   38.9220 N   0  0  0  0  0  0  0  0  0  0  0  0
   39.4800   33.7040   40.1430 C   0  0  0  0  0  0  0  0  0  0  0  0
   40.8410   34.1700   40.6240 C   0  0  0  0  0  0  0  0  0  0  0  0
   42.8920   32.7850   38.9290 H   0  0  0  0  0  0  0  0  0  0  0  0
   42.0240   31.3570   39.4740 H   0  0  0  0  0  0  0  0  0  0  0  0
   40.7970   31.9880   37.6600 H   0  0  0  0  0  0  0  0  0  0  0  0
   41.1520   33.7270   37.8020 H   0  0  0  0  0  0  0  0  0  0  0  0
   39.0480   32.1050   38.9590 H   0  0  0  0  0  0  0  0  0  0  0  0
   38.9110   33.1880   40.9420 H   0  0  0  0  0  0  0  0  0  0  0  0
   38.9000   34.6650   39.9900 H   0  0  0  0  0  0  0  0  0  0  0  0
   40.7070   34.6900   41.5940 H   0  0  0  0  0  0  0  0  0  0  0  0
   41.1970   34.9560   39.9060 H   0  0  0  0  0  0  0  0  0  0  0  0
   42.0570   29.4680   42.9100 C   0  0  0  0  0  0  0  0  0  0  0  0
   41.5220   30.7170   42.5280 C   0  0  0  0  0  0  0  0  0  0  0  0
   40.1860   30.5850   42.1940 C   0  0  0  0  0  0  0  0  0  0  0  0
   39.4550   29.4400   42.2130 C   0  0  0  0  0  0  0  0  0  0  0  0
   40.0580   28.2630   42.5910 C   0  0  0  0  0  0  0  0  0  0  0  0
   41.3720   28.2660   42.9480 C   0  0  0  0  0  0  0  0  0  0  0  0
   39.0700   27.3080   42.4900 O   0  0  0  0  0  0  0  0  0  0  0  0
   37.8540   27.8970   42.1030 C   0  0  1  0  0  0  0  0  0  0  0  0
   38.1150   29.2850   41.8920 O   0  0  0  0  0  0  0  0  0  0  0  0
   43.0820   29.2080   43.2480 H   0  0  0  0  0  0  0  0  0  0  0  0
   39.7880   31.5070   41.9060 H   0  0  0  0  0  0  0  0  0  0  0  0
   41.7410   27.3170   43.2260 H   0  0  0  0  0  0  0  0  0  0  0  0
   37.1660   27.8330   42.9950 H   0  0  0  0  0  0  0  0  0  0  0  0
   37.2610   24.8000   42.1050 Br  0  0  0  0  0  0  0  0  0  0  0  0
   36.8970   26.0050   40.6770 C   0  0  0  0  0  0  0  0  0  0  0  0
   37.2410   27.3250   40.8960 C   0  0  0  0  0  0  0  0  0  0  0  0
   36.9880   28.2310   39.8740 C   0  0  0  0  0  0  0  0  0  0  0  0
   37.2040   29.3020   39.8970 H   0  0  0  0  0  0  0  0  0  0  0  0
   36.4090   27.8290   38.6700 C   0  0  0  0  0  0  0  0  0  0  0  0
   36.2030   28.5210   37.8600 H   0  0  0  0  0  0  0  0  0  0  0  0
   36.0600   26.4980   38.4460 C   0  0  0  0  0  3  0  0  0  0  0  0
   36.3210   25.6050   39.4820 C   0  0  0  0  0  3  0  0  0  0  0  0
  1  6  1  0  0  0  0
  2  1  2  0  0  0  0
  2  3  1  0  0  0  0
  3  4  2  0  0  0  0
  4  5  1  0  0  0  0
  5  8  1  0  0  0  0
  6  5  2  0  0  0  0
  7  1  1  0  0  0  0
  9  2  1  0  0  0  0
 10 16  1  0  0  0  0
 10  9  1  0  0  0  0
 11 12  1  0  0  0  0
 11 10  1  0  0  0  0
 12 19  1  0  0  0  0
 12 13  1  0  0  0  0
 13 14  1  0  0  0  0
 13 20  1  0  0  0  0
 14  9  1  0  0  0  0
 14 22  1  0  0  0  0
 15 10  1  0  0  0  0
 17 11  1  0  0  0  0
 18 11  1  0  0  0  0
 21 13  1  0  0  0  0
 23 14  1  0  0  0  0
 24 29  1  0  0  0  0
 24 33  1  0  0  0  0
 25  3  1  0  0  0  0
 25 24  2  0  0  0  0
 26 27  2  0  0  0  0
 26 25  1  0  0  0  0
 27 28  1  0  0  0  0
 28 29  2  0  0  0  0
 29 35  1  0  0  0  0
 30 28  1  0  0  0  0
 31 30  1  0  0  0  0
 31 36  1  1  0  0  0
 32 31  1  0  0  0  0
 32 27  1  0  0  0  0
 34 26  1  0  0  0  0
 38 39  1  0  0  0  0
 38 37  1  0  0  0  0
 39 31  1  0  0  0  0
 40 41  1  0  0  0  0
 40 39  2  0  0  0  0
 42 40  1  0  0  0  0
 43 42  1  0  0  0  0
 44 42  2  0  0  0  0
 44 45  1  0  0  0  0
 45 38  2  0  0  0  0
M  END
>  <minimizedAffinity>
-6.09459162

$$$$

 OpenBabel03242523093D

 45 49  0  0  1  0  0  0  0  0999 V2000
   36.4170   24.1480   40.7310 C   0  0  0  0  0  0  0  0  0  0  0  0
   36.8080   25.4800   40.7410 C   0  0  0  0  0  0  0  0  0  0  0  0
   36.5460   26.2370   39.6290 C   0  0  0  0  0  0  0  0  0  0  0  0
   35.9160   25.6520   38.5640 N   0  0  0  0  0  0  0  0  0  0  0  0
   35.5480   24.3580   38.5820 C   0  0  0  0  0  0  0  0  0  0  0  0
   35.7960   23.6240   39.6490 N   0  0  0  0  0  0  0  0  0  0  0  0
   36.6060   23.5120   41.5940 H   0  0  0  0  0  0  0  0  0  0  0  0
   35.0500   23.8260   37.7850 H   0  0  0  0  0  0  0  0  0  0  0  0
   37.4650   25.9630   41.8720 N   0  0  0  0  0  0  0  0  0  0  0  0
   38.8560   25.8190   42.0770 C   0  0  0  0  0  0  0  0  0  0  0  0
   39.3980   26.5500   43.2800 C   0  0  0  0  0  0  0  0  0  0  0  0
   38.8440   27.8210   43.5320 N   0  0  0  0  0  0  0  0  0  0  0  0
   37.4670   27.9560   43.3240 C   0  0  0  0  0  0  0  0  0  0  0  0
   36.8180   26.6390   42.9450 C   0  0  0  0  0  0  0  0  0  0  0  0
   39.0330   24.7250   42.2870 H   0  0  0  0  0  0  0  0  0  0  0  0
   39.4950   26.0170   41.1890 H   0  0  0  0  0  0  0  0  0  0  0  0
   40.4940   26.6730   43.1290 H   0  0  0  0  0  0  0  0  0  0  0  0
   39.2950   25.9190   44.2090 H   0  0  0  0  0  0  0  0  0  0  0  0
   39.3880   28.5480   42.9950 H   0  0  0  0  0  0  0  0  0  0  0  0
   37.1630   28.7810   42.6480 H   0  0  0  0  0  0  0  0  0  0  0  0
   36.9760   28.2300   44.3060 H   0  0  0  0  0  0  0  0  0  0  0  0
   35.7350   26.8190   42.7890 H   0  0  0  0  0  0  0  0  0  0  0  0
   36.8870   25.9640   43.8380 H   0  0  0  0  0  0  0  0  0  0  0  0
   36.2500   27.9860   38.0800 C   0  0  0  0  0  0  0  0  0  0  0  0
   36.7880   27.5900   39.3230 C   0  0  0  0  0  0  0  0  0  0  0  0
   37.4740   28.6390   39.9060 C   0  0  0  0  0  0  0  0  0  0  0  0
   37.6340   29.8870   39.3930 C   0  0  0  0  0  0  0  0  0  0  0  0
   37.0820   30.1880   38.1700 C   0  0  0  0  0  0  0  0  0  0  0  0
   36.3770   29.2350   37.4990 C   0  0  0  0  0  0  0  0  0  0  0  0
   37.4320   31.4990   37.9320 O   0  0  0  0  0  0  0  0  0  0  0  0
   38.1500   32.0210   39.0220 C   0  0  1  0  0  0  0  0  0  0  0  0
   38.3080   30.9570   39.9610 O   0  0  0  0  0  0  0  0  0  0  0  0
   35.6380   27.4090   37.3550 H   0  0  0  0  0  0  0  0  0  0  0  0
   37.8780   28.3480   40.8250 H   0  0  0  0  0  0  0  0  0  0  0  0
   35.9900   29.5630   36.5730 H   0  0  0  0  0  0  0  0  0  0  0  0
   37.4810   32.7850   39.5140 H   0  0  0  0  0  0  0  0  0  0  0  0
   39.1210   34.5260   40.6730 Br  0  0  0  0  0  0  0  0  0  0  0  0
   40.0880   33.6660   39.2760 C   0  0  0  0  0  0  0  0  0  0  0  0
   39.4670   32.5810   38.6890 C   0  0  0  0  0  0  0  0  0  0  0  0
   40.1460   31.9300   37.6660 C   0  0  0  0  0  0  0  0  0  0  0  0
   39.7870   31.0620   37.1080 H   0  0  0  0  0  0  0  0  0  0  0  0
   41.4070   32.3520   37.2450 C   0  0  0  0  0  0  0  0  0  0  0  0
   41.9530   31.8570   36.4480 H   0  0  0  0  0  0  0  0  0  0  0  0
   42.0370   33.4460   37.8350 C   0  0  0  0  0  3  0  0  0  0  0  0
   41.3400   34.0850   38.8580 C   0  0  0  0  0  3  0  0  0  0  0  0
  1  2  1  0  0  0  0
  1  7  1  0  0  0  0
  2  9  1  0  0  0  0
  3  2  2  0  0  0  0
  4  5  2  0  0  0  0
  4  3  1  0  0  0  0
  5  6  1  0  0  0  0
  6  1  2  0  0  0  0
  8  5  1  0  0  0  0
  9 10  1  0  0  0  0
  9 14  1  0  0  0  0
 10 15  1  0  0  0  0
 10 11  1  0  0  0  0
 11 12  1  0  0  0  0
 11 18  1  0  0  0  0
 13 12  1  0  0  0  0
 13 21  1  0  0  0  0
 14 13  1  0  0  0  0
 14 23  1  0  0  0  0
 16 10  1  0  0  0  0
 17 11  1  0  0  0  0
 19 12  1  0  0  0  0
 20 13  1  0  0  0  0
 22 14  1  0  0  0  0
 24 25  1  0  0  0  0
 25  3  1  0  0  0  0
 25 26  2  0  0  0  0
 26 34  1  0  0  0  0
 27 26  1  0  0  0  0
 27 32  1  0  0  0  0
 28 27  2  0  0  0  0
 29 24  2  0  0  0  0
 29 28  1  0  0  0  0
 30 28  1  0  0  0  0
 30 31  1  0  0  0  0
 31 36  1  1  0  0  0
 31 32  1  0  0  0  0
 33 24  1  0  0  0  0
 35 29  1  0  0  0  0
 38 37  1  0  0  0  0
 39 31  1  0  0  0  0
 39 38  2  0  0  0  0
 40 39  1  0  0  0  0
 41 40  1  0  0  0  0
 42 40  2  0  0  0  0
 42 44  1  0  0  0  0
 43 42  1  0  0  0  0
 44 45  2  0  0  0  0
 45 38  1  0  0  0  0
M  END
>  <minimizedAffinity>
-5.96621466

$$$$

 OpenBabel03242523093D

 45 49  0  0  1  0  0  0  0  0999 V2000
   35.8390   28.0190   39.2650 C   0  0  0  0  0  0  0  0  0  0  0  0
   36.8260   28.7640   39.8970 C   0  0  0  0  0  0  0  0  0  0  0  0
   37.2210   29.9390   39.3130 C   0  0  0  0  0  0  0  0  0  0  0  0
   36.6320   30.3250   38.1390 N   0  0  0  0  0  0  0  0  0  0  0  0
   35.6790   29.5820   37.5470 C   0  0  0  0  0  0  0  0  0  0  0  0
   35.2930   28.4510   38.1050 N   0  0  0  0  0  0  0  0  0  0  0  0
   35.4970   27.0800   39.6950 H   0  0  0  0  0  0  0  0  0  0  0  0
   35.1700   29.8170   36.6240 H   0  0  0  0  0  0  0  0  0  0  0  0
   37.3720   28.2610   41.0780 N   0  0  0  0  0  0  0  0  0  0  0  0
   38.3110   27.2050   41.1050 C   0  0  0  0  0  0  0  0  0  0  0  0
   38.9010   26.9170   42.4640 C   0  0  0  0  0  0  0  0  0  0  0  0
   39.1820   28.0420   43.2660 N   0  0  0  0  0  0  0  0  0  0  0  0
   38.2490   29.0840   43.2300 C   0  0  0  0  0  0  0  0  0  0  0  0
   37.0430   28.7390   42.3780 C   0  0  0  0  0  0  0  0  0  0  0  0
   37.7440   26.2720   40.8220 H   0  0  0  0  0  0  0  0  0  0  0  0
   39.1160   27.2590   40.3410 H   0  0  0  0  0  0  0  0  0  0  0  0
   39.8510   26.3610   42.3030 H   0  0  0  0  0  0  0  0  0  0  0  0
   38.2390   26.2130   43.0440 H   0  0  0  0  0  0  0  0  0  0  0  0
   40.1540   28.3880   43.0480 H   0  0  0  0  0  0  0  0  0  0  0  0
   38.6580   30.0860   42.9880 H   0  0  0  0  0  0  0  0  0  0  0  0
   37.8190   29.2230   44.2690 H   0  0  0  0  0  0  0  0  0  0  0  0
   36.3520   29.6060   42.3880 H   0  0  0  0  0  0  0  0  0  0  0  0
   36.4950   27.9090   42.8960 H   0  0  0  0  0  0  0  0  0  0  0  0
   37.6910   32.2370   39.5170 C   0  0  0  0  0  0  0  0  0  0  0  0
   38.1600   30.9170   39.6910 C   0  0  0  0  0  0  0  0  0  0  0  0
   39.4660   30.9270   40.1450 C   0  0  0  0  0  0  0  0  0  0  0  0
   40.2270   32.0230   40.3990 C   0  0  0  0  0  0  0  0  0  0  0  0
   39.6940   33.2750   40.1960 C   0  0  0  0  0  0  0  0  0  0  0  0
   38.4120   33.3940   39.7530 C   0  0  0  0  0  0  0  0  0  0  0  0
   40.7050   34.1510   40.5240 O   0  0  0  0  0  0  0  0  0  0  0  0
   41.8360   33.4500   40.9750 C   0  0  1  0  0  0  0  0  0  0  0  0
   41.5330   32.0590   40.8630 O   0  0  0  0  0  0  0  0  0  0  0  0
   36.6970   32.5990   39.1820 H   0  0  0  0  0  0  0  0  0  0  0  0
   39.8180   29.9510   40.2700 H   0  0  0  0  0  0  0  0  0  0  0  0
   38.0930   34.3940   39.6330 H   0  0  0  0  0  0  0  0  0  0  0  0
   41.9330   33.6680   42.0780 H   0  0  0  0  0  0  0  0  0  0  0  0
   44.3350   34.3490   42.6760 Br  0  0  0  0  0  0  0  0  0  0  0  0
   44.2870   34.1470   40.7840 C   0  0  0  0  0  0  0  0  0  0  0  0
   43.0800   33.7410   40.2480 C   0  0  0  0  0  0  0  0  0  0  0  0
   43.0110   33.5830   38.8700 C   0  0  0  0  0  0  0  0  0  0  0  0
   42.1310   33.2700   38.3020 H   0  0  0  0  0  0  0  0  0  0  0  0
   44.1160   33.8240   38.0520 C   0  0  0  0  0  0  0  0  0  0  0  0
   44.0820   33.7060   36.9740 H   0  0  0  0  0  0  0  0  0  0  0  0
   45.3350   34.2330   38.5890 C   0  0  0  0  0  3  0  0  0  0  0  0
   45.3840   34.3860   39.9720 C   0  0  0  0  0  3  0  0  0  0  0  0
  1  7  1  0  0  0  0
  1  2  1  0  0  0  0
  2  9  1  0  0  0  0
  3 25  1  0  0  0  0
  3  2  2  0  0  0  0
  4  3  1  0  0  0  0
  5  6  1  0  0  0  0
  5  4  2  0  0  0  0
  6  1  2  0  0  0  0
  8  5  1  0  0  0  0
  9 10  1  0  0  0  0
  9 14  1  0  0  0  0
 10 11  1  0  0  0  0
 11 18  1  0  0  0  0
 11 12  1  0  0  0  0
 13 12  1  0  0  0  0
 13 21  1  0  0  0  0
 14 22  1  0  0  0  0
 14 23  1  0  0  0  0
 14 13  1  0  0  0  0
 15 10  1  0  0  0  0
 16 10  1  0  0  0  0
 17 11  1  0  0  0  0
 19 12  1  0  0  0  0
 20 13  1  0  0  0  0
 24 25  2  0  0  0  0
 24 29  1  0  0  0  0
 25 26  1  0  0  0  0
 26 34  1  0  0  0  0
 26 27  2  0  0  0  0
 27 32  1  0  0  0  0
 28 27  1  0  0  0  0
 28 30  1  0  0  0  0
 29 28  2  0  0  0  0
 30 31  1  0  0  0  0
 31 36  1  1  0  0  0
 32 31  1  0  0  0  0
 33 24  1  0  0  0  0
 35 29  1  0  0  0  0
 38 37  1  0  0  0  0
 39 38  1  0  0  0  0
 39 31  1  0  0  0  0
 40 39  2  0  0  0  0
 41 40  1  0  0  0  0
 42 44  2  0  0  0  0
 42 40  1  0  0  0  0
 43 42  1  0  0  0  0
 44 45  1  0  0  0  0
 45 38  2  0  0  0  0
M  END
>  <minimizedAffinity>
-5.90844345

$$$$

 OpenBabel03242523093D

 45 49  0  0  1  0  0  0  0  0999 V2000
   39.3550   31.5110   41.6070 C   0  0  0  0  0  0  0  0  0  0  0  0
   38.4940   30.6210   40.9800 C   0  0  0  0  0  0  0  0  0  0  0  0
   37.9340   31.0000   39.7880 C   0  0  0  0  0  0  0  0  0  0  0  0
   38.2430   32.2290   39.2710 N   0  0  0  0  0  0  0  0  0  0  0  0
   39.0810   33.0710   39.9020 C   0  0  0  0  0  0  0  0  0  0  0  0
   39.6250   32.7130   41.0480 N   0  0  0  0  0  0  0  0  0  0  0  0
   39.8220   31.2500   42.5550 H   0  0  0  0  0  0  0  0  0  0  0  0
   39.3730   34.0540   39.5610 H   0  0  0  0  0  0  0  0  0  0  0  0
   38.2320   29.4050   41.6100 N   0  0  0  0  0  0  0  0  0  0  0  0
   37.3500   29.2790   42.7070 C   0  0  0  0  0  0  0  0  0  0  0  0
   37.0790   27.8600   43.1420 C   0  0  0  0  0  0  0  0  0  0  0  0
   36.9490   26.9120   42.1070 N   0  0  0  0  0  0  0  0  0  0  0  0
   37.8240   27.0460   41.0230 C   0  0  0  0  0  0  0  0  0  0  0  0
   38.8230   28.1660   41.2340 C   0  0  0  0  0  0  0  0  0  0  0  0
   37.8660   29.7660   43.5840 H   0  0  0  0  0  0  0  0  0  0  0  0
   36.3960   29.8440   42.6240 H   0  0  0  0  0  0  0  0  0  0  0  0
   36.1320   27.8670   43.7260 H   0  0  0  0  0  0  0  0  0  0  0  0
   37.8700   27.5060   43.8620 H   0  0  0  0  0  0  0  0  0  0  0  0
   35.9440   26.8810   41.7900 H   0  0  0  0  0  0  0  0  0  0  0  0
   37.3450   27.0970   40.0240 H   0  0  0  0  0  0  0  0  0  0  0  0
   38.4660   26.1150   40.9560 H   0  0  0  0  0  0  0  0  0  0  0  0
   39.4770   28.2210   40.3400 H   0  0  0  0  0  0  0  0  0  0  0  0
   39.4940   27.8610   42.0800 H   0  0  0  0  0  0  0  0  0  0  0  0
   37.4660   30.4140   37.5550 C   0  0  0  0  0  0  0  0  0  0  0  0
   37.0530   30.3470   38.9040 C   0  0  0  0  0  0  0  0  0  0  0  0
   35.8410   29.6900   39.0030 C   0  0  0  0  0  0  0  0  0  0  0  0
   35.1140   29.1710   37.9790 C   0  0  0  0  0  0  0  0  0  0  0  0
   35.5860   29.2860   36.6930 C   0  0  0  0  0  0  0  0  0  0  0  0
   36.7750   29.9100   36.4670 C   0  0  0  0  0  0  0  0  0  0  0  0
   34.6280   28.6840   35.9060 O   0  0  0  0  0  0  0  0  0  0  0  0
   33.5990   28.1550   36.7020 C   0  0  1  0  0  0  0  0  0  0  0  0
   33.9020   28.5010   38.0540 O   0  0  0  0  0  0  0  0  0  0  0  0
   38.3850   30.8540   37.1150 H   0  0  0  0  0  0  0  0  0  0  0  0
   35.5300   29.6430   39.9990 H   0  0  0  0  0  0  0  0  0  0  0  0
   37.0530   29.9450   35.4490 H   0  0  0  0  0  0  0  0  0  0  0  0
   33.6820   27.0320   36.6340 H   0  0  0  0  0  0  0  0  0  0  0  0
   32.1200   26.7340   34.3080 Br  0  0  0  0  0  0  0  0  0  0  0  0
   31.4210   28.1530   35.3660 C   0  0  0  0  0  0  0  0  0  0  0  0
   32.2480   28.6250   36.3680 C   0  0  0  0  0  0  0  0  0  0  0  0
   31.7680   29.6610   37.1600 C   0  0  0  0  0  0  0  0  0  0  0  0
   32.3010   30.1380   37.9860 H   0  0  0  0  0  0  0  0  0  0  0  0
   30.5000   30.2070   36.9560 C   0  0  0  0  0  0  0  0  0  0  0  0
   30.1080   31.0160   37.5630 H   0  0  0  0  0  0  0  0  0  0  0  0
   29.6640   29.7330   35.9470 C   0  0  0  0  0  3  0  0  0  0  0  0
   30.1620   28.6950   35.1640 C   0  0  0  0  0  3  0  0  0  0  0  0
  1  7  1  0  0  0  0
  2  1  2  0  0  0  0
  2  9  1  0  0  0  0
  3  2  1  0  0  0  0
  4  3  2  0  0  0  0
  4  5  1  0  0  0  0
  5  6  2  0  0  0  0
  6  1  1  0  0  0  0
  8  5  1  0  0  0  0
  9 10  1  0  0  0  0
 10 11  1  0  0  0  0
 10 15  1  0  0  0  0
 11 17  1  0  0  0  0
 11 18  1  0  0  0  0
 12 11  1  0  0  0  0
 13 14  1  0  0  0  0
 13 12  1  0  0  0  0
 14  9  1  0  0  0  0
 14 23  1  0  0  0  0
 16 10  1  0  0  0  0
 19 12  1  0  0  0  0
 20 13  1  0  0  0  0
 21 13  1  0  0  0  0
 22 14  1  0  0  0  0
 24 25  1  0  0  0  0
 25 26  2  0  0  0  0
 25  3  1  0  0  0  0
 26 34  1  0  0  0  0
 27 32  1  0  0  0  0
 27 26  1  0  0  0  0
 28 27  2  0  0  0  0
 29 28  1  0  0  0  0
 29 24  2  0  0  0  0
 30 28  1  0  0  0  0
 30 31  1  0  0  0  0
 31 36  1  6  0  0  0
 31 32  1  0  0  0  0
 33 24  1  0  0  0  0
 35 29  1  0  0  0  0
 37 38  1  0  0  0  0
 38 39  1  0  0  0  0
 39 31  1  0  0  0  0
 39 40  2  0  0  0  0
 40 41  1  0  0  0  0
 42 40  1  0  0  0  0
 42 43  1  0  0  0  0
 44 42  2  0  0  0  0
 45 38  2  0  0  0  0
 45 44  1  0  0  0  0
M  END
>  <minimizedAffinity>
-5.74466324

$$$$
