
 OpenBabel03242513313D

 37 40  0  0  0  0  0  0  0  0999 V2000
   46.3930   33.6170   41.0990 C   0  0  0  0  0  0  0  0  0  0  0  0
   46.8170   34.6330   41.9500 C   0  0  0  0  0  0  0  0  0  0  0  0
   47.8910   35.3580   41.5710 C   0  0  0  0  0  0  0  0  0  0  0  0
   48.5610   35.1200   40.3870 C   0  0  0  0  0  0  0  0  0  0  0  0
   48.1360   34.1130   39.5500 C   0  0  0  0  0  0  0  0  0  0  0  0
   47.0300   33.3350   39.8970 C   0  0  0  0  0  0  0  0  0  0  0  0
   48.1970   36.1450   42.2600 H   0  0  0  0  0  0  0  0  0  0  0  0
   49.4040   35.7600   40.1870 H   0  0  0  0  0  0  0  0  0  0  0  0
   48.6690   33.9320   38.6180 H   0  0  0  0  0  0  0  0  0  0  0  0
   44.5410   36.0430   44.6070 C   0  0  0  0  0  0  0  0  0  0  0  0
   45.2400   35.8910   43.4050 C   0  0  0  0  0  0  0  0  0  0  0  0
   46.0740   34.8320   43.1760 C   0  0  0  0  0  0  0  0  0  0  0  0
   46.1610   33.9460   44.2140 N   0  0  0  0  0  0  0  0  0  0  0  0
   45.4920   34.0800   45.3790 C   0  0  0  0  0  0  0  0  0  0  0  0
   44.6790   35.1370   45.5710 N   0  0  0  0  0  0  0  0  0  0  0  0
   43.8870   36.8950   44.7600 H   0  0  0  0  0  0  0  0  0  0  0  0
   45.1320   36.6290   42.6140 H   0  0  0  0  0  0  0  0  0  0  0  0
   45.7060   33.2590   46.0720 H   0  0  0  0  0  0  0  0  0  0  0  0
   45.2980   32.8390   41.4300 O   0  0  0  0  0  0  0  0  0  0  0  0
   44.6280   32.5840   40.7030 H   0  0  0  0  0  0  0  0  0  0  0  0
   46.5790   32.3270   39.0910 O   0  0  0  0  0  0  0  0  0  0  0  0
   46.5670   32.3290   37.7350 C   0  0  0  0  0  0  0  0  0  0  0  0
   45.6010   32.7570   36.8520 C   0  0  0  0  0  0  0  0  0  0  0  0
   45.8280   32.6540   35.5190 C   0  0  0  0  0  0  0  0  0  0  0  0
   47.0740   32.0990   35.1270 C   0  0  0  0  0  0  0  0  0  0  0  0
   47.8980   31.7370   36.6930 S   0  0  0  0  0  0  0  0  0  0  0  0
   44.6880   33.1640   37.2460 H   0  0  0  0  0  0  0  0  0  0  0  0
   45.1630   32.9470   34.7300 H   0  0  0  0  0  0  0  0  0  0  0  0
   46.2480   29.3080   34.1020 Br  0  0  0  0  0  0  0  0  0  0  0  0
   47.3220   30.6250   33.2530 C   0  0  0  0  0  0  0  0  0  0  0  0
   47.6310   31.8490   33.8060 C   0  0  0  0  0  0  0  0  0  0  0  0
   48.3830   32.8420   33.2790 C   0  0  0  0  0  0  0  0  0  0  0  0
   48.5830   33.7770   33.7710 H   0  0  0  0  0  0  0  0  0  0  0  0
   48.9200   32.6030   32.0080 C   0  0  0  0  0  0  0  0  0  0  0  0
   49.5240   33.3190   31.5090 H   0  0  0  0  0  0  0  0  0  0  0  0
   48.6550   31.3840   31.3730 C   0  0  0  0  0  3  0  0  0  0  0  0
   47.8670   30.4020   31.9830 C   0  0  0  0  0  3  0  0  0  0  0  0
  1 19  1  0  0  0  0
  1  2  1  0  0  0  0
  2 12  1  0  0  0  0
  3  2  2  0  0  0  0
  3  7  1  0  0  0  0
  4  3  1  0  0  0  0
  5  6  1  0  0  0  0
  5  4  2  0  0  0  0
  6  1  2  0  0  0  0
  8  4  1  0  0  0  0
  9  5  1  0  0  0  0
 10 16  1  0  0  0  0
 10 15  1  0  0  0  0
 11 10  2  0  0  0  0
 12 11  1  0  0  0  0
 12 13  2  0  0  0  0
 13 14  1  0  0  0  0
 14 15  2  0  0  0  0
 14 18  1  0  0  0  0
 17 11  1  0  0  0  0
 20 19  1  0  0  0  0
 21  6  1  0  0  0  0
 22 21  1  0  0  0  0
 23 27  1  0  0  0  0
 23 22  2  0  0  0  0
 24 23  1  0  0  0  0
 25 24  2  0  0  0  0
 25 26  1  0  0  0  0
 26 22  1  0  0  0  0
 28 24  1  0  0  0  0
 30 31  1  0  0  0  0
 30 29  1  0  0  0  0
 31 25  1  0  0  0  0
 32 33  1  0  0  0  0
 32 31  2  0  0  0  0
 34 32  1  0  0  0  0
 35 34  1  0  0  0  0
 36 37  1  0  0  0  0
 36 34  2  0  0  0  0
 37 30  2  0  0  0  0
M  END
>  <minimizedAffinity>
-6.46487665

>  <minimizedRMSD>
0.417206913

$$$$
