
     RDKit          3D

 23 24  0  0  0  0  0  0  0  0999 V2000
   44.3857   35.7751   44.4367 C   0  0  0  0  0  0  0  0  0  0  0  0
   44.6654   35.0665   43.2505 C   0  0  0  0  0  0  0  0  0  0  0  0
   45.2976   33.8168   43.3875 C   0  0  0  0  0  0  0  0  0  0  0  0
   45.5894   33.3874   44.6410 N   0  0  0  0  0  0  0  0  0  0  0  0
   45.3098   34.0863   45.7500 C   0  0  0  0  0  0  0  0  0  0  0  0
   44.6971   35.3043   45.6718 N   0  0  0  0  0  0  0  0  0  0  0  0
   44.2539   35.7296   41.9995 C   0  0  0  0  0  0  0  0  0  0  0  0
   43.9075   36.7433   44.4924 H   0  0  0  0  0  0  0  0  0  0  0  0
   45.5990   33.6212   46.6894 H   0  0  0  0  0  0  0  0  0  0  0  0
   44.1077   35.0039   41.1687 H   0  0  0  0  0  0  0  0  0  0  0  0
   44.9860   36.4959   41.6327 H   0  0  0  0  0  0  0  0  0  0  0  0
   43.2532   36.2247   42.1824 H   0  0  0  0  0  0  0  0  0  0  0  0
   42.8424   32.2713   42.2431 Br  0  0  0  0  0  0  0  0  0  0  0  0
   44.5984   32.3619   41.4891 C   0  0  0  0  0  0  0  0  0  0  0  0
   45.5747   33.1133   42.1534 C   0  0  0  0  0  0  0  0  0  0  0  0
   46.8494   33.1572   41.5695 C   0  0  0  0  0  0  0  0  0  0  0  0
   47.5876   33.7531   42.1169 H   0  0  0  0  0  0  0  0  0  0  0  0
   47.2074   32.5085   40.3827 C   0  0  0  0  0  0  0  0  0  0  0  0
   48.1953   32.5646   39.9644 H   0  0  0  0  0  0  0  0  0  0  0  0
   46.1383   31.8222   39.8683 C   0  0  0  0  0  0  0  0  0  0  0  0
   44.8521   31.6746   40.2963 C   0  0  0  0  0  0  0  0  0  0  0  0
   46.3467   31.2822   38.9251 H   0  0  0  0  0  0  0  0  0  0  0  0
   44.1134   31.0924   39.7732 H   0  0  0  0  0  0  0  0  0  0  0  0
  1  6  2  0
  2  3  2  0
  2  1  1  0
  3  4  1  0
  4  5  2  0
  6  5  1  0
  7  2  1  0
  1  8  1  0
  5  9  1  0
  7 10  1  0
  7 11  1  0
  7 12  1  0
 13 14  1  0
 14 15  2  0
 15 16  1  0
 16 17  1  0
 16 18  2  0
 18 19  1  0
 18 20  1  0
 20 21  2  0
 21 14  1  0
 20 22  1  0
 21 23  1  0
  3 15  1  0
M  ISO  7   8  14   9  14  10   8  11   8  12   8  17  15  19  16
M  END
>  <DihAtoms>  (1) 
1,2,14,13

>  <DihDeg>  (1) 
-126.39543756691329

$$$$
