
     RDKit          3D

 23 24  0  0  0  0  0  0  0  0999 V2000
   45.4371   35.0664   43.9991 C   0  0  0  0  0  0  0  0  0  0  0  0
   46.4925   34.2946   43.5196 C   0  0  0  0  0  0  0  0  0  0  0  0
   47.0176   33.2890   44.3350 C   0  0  0  0  0  0  0  0  0  0  0  0
   46.4581   33.1304   45.5520 N   0  0  0  0  0  0  0  0  0  0  0  0
   45.4338   33.8954   45.9902 C   0  0  0  0  0  0  0  0  0  0  0  0
   44.9232   34.8657   45.2099 N   0  0  0  0  0  0  0  0  0  0  0  0
   44.9029   36.1314   43.0982 C   0  0  0  0  0  0  0  0  0  0  0  0
   46.8731   34.4854   42.5512 H   0  0  0  0  0  0  0  0  0  0  0  0
   45.0412   33.7027   46.9820 H   0  0  0  0  0  0  0  0  0  0  0  0
   43.8591   36.3984   43.3465 H   0  0  0  0  0  0  0  0  0  0  0  0
   44.9980   35.8020   42.0487 H   0  0  0  0  0  0  0  0  0  0  0  0
   45.5849   36.9984   43.2332 H   0  0  0  0  0  0  0  0  0  0  0  0
   47.7800   31.2702   46.4665 Br  0  0  0  0  0  0  0  0  0  0  0  0
   48.5889   31.4761   44.7468 C   0  0  0  0  0  0  0  0  0  0  0  0
   48.1232   32.4492   43.8859 C   0  0  0  0  0  0  0  0  0  0  0  0
   48.7483   32.5403   42.6723 C   0  0  0  0  0  0  0  0  0  0  0  0
   48.4101   33.2876   41.9782 H   0  0  0  0  0  0  0  0  0  0  0  0
   49.7914   31.7014   42.3276 C   0  0  0  0  0  0  0  0  0  0  0  0
   50.2511   31.8224   41.3435 H   0  0  0  0  0  0  0  0  0  0  0  0
   50.2252   30.7417   43.2199 C   0  0  0  0  0  0  0  0  0  0  0  0
   49.6246   30.6105   44.4600 C   0  0  0  0  0  0  0  0  0  0  0  0
   51.0374   30.0729   42.9778 H   0  0  0  0  0  0  0  0  0  0  0  0
   49.9571   29.8611   45.1673 H   0  0  0  0  0  0  0  0  0  0  0  0
  1  6  2  0
  2  1  1  0
  2  3  2  0
  3  4  1  0
  4  5  2  0
  6  5  1  0
  7  1  1  0
  2  8  1  0
  5  9  1  0
  7 10  1  0
  7 11  1  0
  7 12  1  0
 13 14  1  0
 14 15  2  0
 15 16  1  0
 16 17  1  0
 16 18  2  0
 18 19  1  0
 18 20  1  0
 20 21  2  0
 21 14  1  0
 20 22  1  0
 21 23  1  0
  3 15  1  0
M  ISO  7   8  14   9  14  10   8  11   8  12   8  17  15  19  16
M  END
>  <DihAtoms>  (1) 
1,2,14,13

>  <DihDeg>  (1) 
-179.99975707319126

$$$$
