
 OpenBabel03242514513D

 44 47  0  0  1  0  0  0  0  0999 V2000
   36.2550   30.1690   39.0220 C   0  0  0  0  0  0  0  0  0  0  0  0
   37.0430   31.2920   38.8330 C   0  0  0  0  0  0  0  0  0  0  0  0
   37.5280   31.5100   37.5300 C   0  0  0  0  0  0  0  0  0  0  0  0
   37.2090   30.6320   36.5450 N   0  0  0  0  0  0  0  0  0  0  0  0
   36.4400   29.5600   36.7870 C   0  0  0  0  0  0  0  0  0  0  0  0
   35.9790   29.3450   38.0040 N   0  0  0  0  0  0  0  0  0  0  0  0
   38.1530   32.3720   37.3070 H   0  0  0  0  0  0  0  0  0  0  0  0
   36.2580   28.9370   35.9210 H   0  0  0  0  0  0  0  0  0  0  0  0
   38.7500   32.0070   40.5060 C   0  0  2  0  0  0  0  0  0  0  0  0
   37.3460   32.2850   39.9030 C   0  0  1  0  0  0  0  0  0  0  0  0
   37.2690   33.5750   39.5520 O   0  0  0  0  0  0  0  0  0  0  0  0
   38.5120   34.1550   39.5560 C   0  0  0  0  0  0  0  0  0  0  0  0
   39.2200   33.4700   40.6880 C   0  0  1  0  0  0  0  0  0  0  0  0
   38.7740   31.5990   41.5020 H   0  0  0  0  0  0  0  0  0  0  0  0
   36.8790   32.1740   40.8360 H   0  0  0  0  0  0  0  0  0  0  0  0
   38.3670   35.2480   39.7410 H   0  0  0  0  0  0  0  0  0  0  0  0
   39.0830   34.0200   38.6350 H   0  0  0  0  0  0  0  0  0  0  0  0
   40.3110   33.5160   40.6120 H   0  0  0  0  0  0  0  0  0  0  0  0
   39.5910   31.3390   39.7100 O   0  0  0  0  0  0  0  0  0  0  0  0
   40.1100   31.9690   39.1380 H   0  0  0  0  0  0  0  0  0  0  0  0
   38.7220   34.0150   41.8520 O   0  0  0  0  0  0  0  0  0  0  0  0
   38.0380   34.7190   41.7240 H   0  0  0  0  0  0  0  0  0  0  0  0
   35.7470   29.9170   40.3980 C   0  0  0  0  0  0  0  0  0  0  0  0
   35.8060   30.9450   40.8750 H   0  0  0  0  0  0  0  0  0  0  0  0
   34.7120   29.6470   40.4870 H   0  0  0  0  0  0  0  0  0  0  0  0
   36.4180   27.2280   39.6450 F   0  0  0  0  0  0  0  0  0  0  0  0
   36.8960   27.7480   40.7680 C   0  0  0  0  0  0  0  0  0  0  0  0
   36.6270   29.0290   41.1820 C   0  0  0  0  0  0  0  0  0  0  0  0
   37.1810   29.5140   42.3530 C   0  0  0  0  0  0  0  0  0  0  0  0
   37.9980   28.6560   43.0580 C   0  0  0  0  0  0  0  0  0  0  0  0
   38.3110   27.3530   42.6990 C   0  0  0  0  0  0  0  0  0  0  0  0
   37.7350   26.8940   41.5100 C   0  0  0  0  0  0  0  0  0  0  0  0
   37.0090   30.4960   42.7240 H   0  0  0  0  0  0  0  0  0  0  0  0
   38.4400   29.0220   43.9770 H   0  0  0  0  0  0  0  0  0  0  0  0
   38.9620   26.7430   43.3090 H   0  0  0  0  0  0  0  0  0  0  0  0
   40.3090   26.5520   39.7510 Br  0  0  0  0  0  0  0  0  0  0  0  0
   39.0980   25.1800   40.2840 C   0  0  0  0  0  0  0  0  0  0  0  0
   38.0160   25.5320   41.0640 C   0  0  0  0  0  0  0  0  0  0  0  0
   37.1180   24.5640   41.4680 C   0  0  0  0  0  0  0  0  0  0  0  0
   36.2440   24.7750   42.0840 H   0  0  0  0  0  0  0  0  0  0  0  0
   37.2990   23.2600   41.1000 C   0  0  0  0  0  0  0  0  0  0  0  0
   36.6210   22.4510   41.3900 H   0  0  0  0  0  0  0  0  0  0  0  0
   38.3770   22.8590   40.3140 C   0  0  0  0  0  3  0  0  0  0  0  0
   39.2520   23.8520   39.9280 C   0  0  0  0  0  3  0  0  0  0  0  0
  1 23  1  0  0  0  0
  2  1  1  0  0  0  0
  2 10  1  0  0  0  0
  3  2  2  0  0  0  0
  4  5  2  0  0  0  0
  4  3  1  0  0  0  0
  5  6  1  0  0  0  0
  6  1  2  0  0  0  0
  7  3  1  0  0  0  0
  8  5  1  0  0  0  0
  9 13  1  0  0  0  0
  9 14  1  1  0  0  0
 10  9  1  0  0  0  0
 10 15  1  1  0  0  0
 11 12  1  0  0  0  0
 11 10  1  0  0  0  0
 12 16  1  0  0  0  0
 12 13  1  0  0  0  0
 13 18  1  6  0  0  0
 13 21  1  0  0  0  0
 17 12  1  0  0  0  0
 19  9  1  0  0  0  0
 20 19  1  0  0  0  0
 22 21  1  0  0  0  0
 23 25  1  0  0  0  0
 23 24  1  0  0  0  0
 23 28  1  0  0  0  0
 26 27  1  0  0  0  0
 27 28  2  0  0  0  0
 27 32  1  0  0  0  0
 28 29  1  0  0  0  0
 29 33  1  0  0  0  0
 29 30  2  0  0  0  0
 30 34  1  0  0  0  0
 31 30  1  0  0  0  0
 31 35  1  0  0  0  0
 32 31  2  0  0  0  0
 36 37  1  0  0  0  0
 37 38  1  0  0  0  0
 38 39  2  0  0  0  0
 38 32  1  0  0  0  0
 39 40  1  0  0  0  0
 41 42  1  0  0  0  0
 41 39  1  0  0  0  0
 43 41  2  0  0  0  0
 44 37  2  0  0  0  0
 44 43  1  0  0  0  0
M  END
>  <minimizedAffinity>
-6.60057497

$$$$

 OpenBabel03242514513D

 44 47  0  0  1  0  0  0  0  0999 V2000
   40.1810   30.9820   40.4930 C   0  0  0  0  0  0  0  0  0  0  0  0
   41.3630   31.6700   40.2680 C   0  0  0  0  0  0  0  0  0  0  0  0
   42.1860   31.8910   41.3870 C   0  0  0  0  0  0  0  0  0  0  0  0
   41.7950   31.4330   42.6030 N   0  0  0  0  0  0  0  0  0  0  0  0
   40.6380   30.7740   42.7630 C   0  0  0  0  0  0  0  0  0  0  0  0
   39.8570   30.5590   41.7220 N   0  0  0  0  0  0  0  0  0  0  0  0
   43.1300   32.4230   41.2850 H   0  0  0  0  0  0  0  0  0  0  0  0
   40.4390   30.4610   43.7790 H   0  0  0  0  0  0  0  0  0  0  0  0
   41.0740   33.4240   38.5190 C   0  0  2  0  0  0  0  0  0  0  0  0
   41.8170   32.1210   38.9220 C   0  0  1  0  0  0  0  0  0  0  0  0
   43.1350   32.3060   38.7750 O   0  0  0  0  0  0  0  0  0  0  0  0
   43.4230   33.6370   38.6080 C   0  0  0  0  0  0  0  0  0  0  0  0
   42.2500   34.1610   37.8330 C   0  0  1  0  0  0  0  0  0  0  0  0
   40.3330   33.3340   37.7420 H   0  0  0  0  0  0  0  0  0  0  0  0
   41.4640   31.6100   38.0760 H   0  0  0  0  0  0  0  0  0  0  0  0
   44.3790   33.7000   38.0310 H   0  0  0  0  0  0  0  0  0  0  0  0
   43.5280   34.2030   39.5360 H   0  0  0  0  0  0  0  0  0  0  0  0
   42.1100   35.2430   37.9300 H   0  0  0  0  0  0  0  0  0  0  0  0
   40.5950   34.1460   39.5350 O   0  0  0  0  0  0  0  0  0  0  0  0
   41.2790   34.7970   39.8580 H   0  0  0  0  0  0  0  0  0  0  0  0
   42.4150   33.7380   36.5320 O   0  0  0  0  0  0  0  0  0  0  0  0
   43.2350   33.2070   36.3670 H   0  0  0  0  0  0  0  0  0  0  0  0
   39.2920   30.7540   39.3220 C   0  0  0  0  0  0  0  0  0  0  0  0
   39.0220   31.8090   39.0070 H   0  0  0  0  0  0  0  0  0  0  0  0
   39.7480   30.3290   38.4480 H   0  0  0  0  0  0  0  0  0  0  0  0
   39.0890   27.9740   40.0160 F   0  0  0  0  0  0  0  0  0  0  0  0
   38.0060   28.7380   39.9910 C   0  0  0  0  0  0  0  0  0  0  0  0
   38.0310   30.0750   39.6810 C   0  0  0  0  0  0  0  0  0  0  0  0
   36.8650   30.8180   39.6980 C   0  0  0  0  0  0  0  0  0  0  0  0
   35.7070   30.1510   40.0380 C   0  0  0  0  0  0  0  0  0  0  0  0
   35.6090   28.8060   40.3620 C   0  0  0  0  0  0  0  0  0  0  0  0
   36.8070   28.0840   40.3340 C   0  0  0  0  0  0  0  0  0  0  0  0
   36.8220   31.8560   39.4680 H   0  0  0  0  0  0  0  0  0  0  0  0
   34.7850   30.7200   40.0580 H   0  0  0  0  0  0  0  0  0  0  0  0
   34.6600   28.3560   40.6180 H   0  0  0  0  0  0  0  0  0  0  0  0
   37.4220   27.3780   43.3270 Br  0  0  0  0  0  0  0  0  0  0  0  0
   37.0310   26.1520   41.9210 C   0  0  0  0  0  0  0  0  0  0  0  0
   36.7860   26.6610   40.6620 C   0  0  0  0  0  0  0  0  0  0  0  0
   36.5010   25.8030   39.6190 C   0  0  0  0  0  0  0  0  0  0  0  0
   36.2980   26.1390   38.6020 H   0  0  0  0  0  0  0  0  0  0  0  0
   36.4590   24.4520   39.8300 C   0  0  0  0  0  0  0  0  0  0  0  0
   36.2380   23.7250   39.0420 H   0  0  0  0  0  0  0  0  0  0  0  0
   36.6990   23.8950   41.0830 C   0  0  0  0  0  3  0  0  0  0  0  0
   36.9820   24.7810   42.1000 C   0  0  0  0  0  3  0  0  0  0  0  0
  1  6  1  0  0  0  0
  2  1  2  0  0  0  0
  2  3  1  0  0  0  0
  3  4  2  0  0  0  0
  4  5  1  0  0  0  0
  5  8  1  0  0  0  0
  6  5  2  0  0  0  0
  7  3  1  0  0  0  0
  9 14  1  6  0  0  0
  9 10  1  0  0  0  0
  9 19  1  0  0  0  0
 10 15  1  6  0  0  0
 10  2  1  0  0  0  0
 11 10  1  0  0  0  0
 12 11  1  0  0  0  0
 12 17  1  0  0  0  0
 13 18  1  1  0  0  0
 13  9  1  0  0  0  0
 13 12  1  0  0  0  0
 16 12  1  0  0  0  0
 19 20  1  0  0  0  0
 21 13  1  0  0  0  0
 22 21  1  0  0  0  0
 23 28  1  0  0  0  0
 23  1  1  0  0  0  0
 24 23  1  0  0  0  0
 25 23  1  0  0  0  0
 27 26  1  0  0  0  0
 27 32  1  0  0  0  0
 28 29  1  0  0  0  0
 28 27  2  0  0  0  0
 29 30  2  0  0  0  0
 30 34  1  0  0  0  0
 30 31  1  0  0  0  0
 31 35  1  0  0  0  0
 32 31  2  0  0  0  0
 32 38  1  0  0  0  0
 33 29  1  0  0  0  0
 37 44  1  0  0  0  0
 37 36  1  0  0  0  0
 38 37  2  0  0  0  0
 39 41  2  0  0  0  0
 39 38  1  0  0  0  0
 40 39  1  0  0  0  0
 41 43  1  0  0  0  0
 42 41  1  0  0  0  0
 43 44  2  0  0  0  0
M  END
>  <minimizedAffinity>
-6.58565521

$$$$

 OpenBabel03242514513D

 44 47  0  0  1  0  0  0  0  0999 V2000
   38.6910   32.0990   39.3730 C   0  0  0  0  0  0  0  0  0  0  0  0
   40.0660   32.2140   39.2420 C   0  0  0  0  0  0  0  0  0  0  0  0
   40.6720   33.3000   39.9010 C   0  0  0  0  0  0  0  0  0  0  0  0
   39.9030   34.1610   40.6140 N   0  0  0  0  0  0  0  0  0  0  0  0
   38.5740   34.0000   40.7040 C   0  0  0  0  0  0  0  0  0  0  0  0
   37.9940   32.9860   40.0930 N   0  0  0  0  0  0  0  0  0  0  0  0
   41.7480   33.4540   39.8440 H   0  0  0  0  0  0  0  0  0  0  0  0
   38.0730   34.7510   41.3000 H   0  0  0  0  0  0  0  0  0  0  0  0
   41.2170   31.7620   37.0770 C   0  0  2  0  0  0  0  0  0  0  0  0
   40.9160   31.2360   38.5070 C   0  0  1  0  0  0  0  0  0  0  0  0
   42.0670   30.8910   39.0970 O   0  0  0  0  0  0  0  0  0  0  0  0
   43.1400   31.3750   38.3910 C   0  0  0  0  0  0  0  0  0  0  0  0
   42.6890   31.2970   36.9630 C   0  0  1  0  0  0  0  0  0  0  0  0
   40.7210   31.2590   36.2640 H   0  0  0  0  0  0  0  0  0  0  0  0
   40.4680   30.3630   38.1340 H   0  0  0  0  0  0  0  0  0  0  0  0
   44.0070   30.7030   38.6040 H   0  0  0  0  0  0  0  0  0  0  0  0
   43.4170   32.4040   38.6290 H   0  0  0  0  0  0  0  0  0  0  0  0
   43.2350   31.9730   36.2950 H   0  0  0  0  0  0  0  0  0  0  0  0
   41.1290   33.0870   36.9260 O   0  0  0  0  0  0  0  0  0  0  0  0
   42.0040   33.5230   37.1240 H   0  0  0  0  0  0  0  0  0  0  0  0
   42.7690   29.9720   36.5950 O   0  0  0  0  0  0  0  0  0  0  0  0
   43.0970   29.3620   37.3030 H   0  0  0  0  0  0  0  0  0  0  0  0
   38.0340   30.9640   38.6700 C   0  0  0  0  0  0  0  0  0  0  0  0
   37.2070   31.4780   38.0890 H   0  0  0  0  0  0  0  0  0  0  0  0
   38.6130   30.4650   37.9150 H   0  0  0  0  0  0  0  0  0  0  0  0
   39.4130   28.8780   40.0840 F   0  0  0  0  0  0  0  0  0  0  0  0
   38.1040   29.0320   40.2290 C   0  0  0  0  0  0  0  0  0  0  0  0
   37.3840   30.0140   39.5940 C   0  0  0  0  0  0  0  0  0  0  0  0
   36.0230   30.1320   39.8120 C   0  0  0  0  0  0  0  0  0  0  0  0
   35.4500   29.2290   40.6820 C   0  0  0  0  0  0  0  0  0  0  0  0
   36.1160   28.2150   41.3550 C   0  0  0  0  0  0  0  0  0  0  0  0
   37.4910   28.1230   41.1120 C   0  0  0  0  0  0  0  0  0  0  0  0
   35.4140   30.8720   39.3500 H   0  0  0  0  0  0  0  0  0  0  0  0
   34.3850   29.3100   40.8630 H   0  0  0  0  0  0  0  0  0  0  0  0
   35.5930   27.5450   42.0220 H   0  0  0  0  0  0  0  0  0  0  0  0
   37.5850   25.3530   39.6440 Br  0  0  0  0  0  0  0  0  0  0  0  0
   38.4220   25.7990   41.2980 C   0  0  0  0  0  0  0  0  0  0  0  0
   38.2620   27.0800   41.7830 C   0  0  0  0  0  0  0  0  0  0  0  0
   38.8530   27.4390   42.9780 C   0  0  0  0  0  0  0  0  0  0  0  0
   38.7670   28.4340   43.4170 H   0  0  0  0  0  0  0  0  0  0  0  0
   39.5970   26.5300   43.6800 C   0  0  0  0  0  0  0  0  0  0  0  0
   40.0880   26.7580   44.6310 H   0  0  0  0  0  0  0  0  0  0  0  0
   39.7840   25.2260   43.2270 C   0  0  0  0  0  3  0  0  0  0  0  0
   39.1790   24.9040   42.0310 C   0  0  0  0  0  3  0  0  0  0  0  0
  1  6  1  0  0  0  0
  2  1  2  0  0  0  0
  2  3  1  0  0  0  0
  3  4  2  0  0  0  0
  4  5  1  0  0  0  0
  5  8  1  0  0  0  0
  6  5  2  0  0  0  0
  7  3  1  0  0  0  0
  9 14  1  6  0  0  0
  9 10  1  0  0  0  0
 10 15  1  6  0  0  0
 10 11  1  0  0  0  0
 10  2  1  0  0  0  0
 12 16  1  0  0  0  0
 12 17  1  0  0  0  0
 12 11  1  0  0  0  0
 13 18  1  6  0  0  0
 13  9  1  0  0  0  0
 13 12  1  0  0  0  0
 19  9  1  0  0  0  0
 19 20  1  0  0  0  0
 21 13  1  0  0  0  0
 21 22  1  0  0  0  0
 23  1  1  0  0  0  0
 23 28  1  0  0  0  0
 24 23  1  0  0  0  0
 25 23  1  0  0  0  0
 26 27  1  0  0  0  0
 27 32  1  0  0  0  0
 28 29  1  0  0  0  0
 28 27  2  0  0  0  0
 29 30  2  0  0  0  0
 30 34  1  0  0  0  0
 30 31  1  0  0  0  0
 31 35  1  0  0  0  0
 32 31  2  0  0  0  0
 32 38  1  0  0  0  0
 33 29  1  0  0  0  0
 36 37  1  0  0  0  0
 37 38  2  0  0  0  0
 37 44  1  0  0  0  0
 38 39  1  0  0  0  0
 39 40  1  0  0  0  0
 39 41  2  0  0  0  0
 41 42  1  0  0  0  0
 43 41  1  0  0  0  0
 44 43  2  0  0  0  0
M  END
>  <minimizedAffinity>
-6.48171663

$$$$

 OpenBabel03242514513D

 44 47  0  0  1  0  0  0  0  0999 V2000
   38.3280   29.4110   42.2580 C   0  0  0  0  0  0  0  0  0  0  0  0
   37.9740   29.8410   40.9890 C   0  0  0  0  0  0  0  0  0  0  0  0
   38.6230   30.9950   40.5110 C   0  0  0  0  0  0  0  0  0  0  0  0
   39.5410   31.6170   41.2940 N   0  0  0  0  0  0  0  0  0  0  0  0
   39.8430   31.1550   42.5160 C   0  0  0  0  0  0  0  0  0  0  0  0
   39.2430   30.0740   42.9760 N   0  0  0  0  0  0  0  0  0  0  0  0
   38.3960   31.3900   39.5220 H   0  0  0  0  0  0  0  0  0  0  0  0
   40.5890   31.7380   43.0410 H   0  0  0  0  0  0  0  0  0  0  0  0
   35.5550   29.5420   40.4620 C   0  0  2  0  0  0  0  0  0  0  0  0
   37.0090   29.1240   40.1090 C   0  0  1  0  0  0  0  0  0  0  0  0
   37.1950   29.2640   38.7900 O   0  0  0  0  0  0  0  0  0  0  0  0
   36.1760   29.9910   38.2290 C   0  0  0  0  0  0  0  0  0  0  0  0
   34.9710   29.5910   39.0290 C   0  0  1  0  0  0  0  0  0  0  0  0
   34.9520   28.8050   40.9650 H   0  0  0  0  0  0  0  0  0  0  0  0
   36.8080   28.1130   40.3040 H   0  0  0  0  0  0  0  0  0  0  0  0
   36.0990   29.6820   37.1570 H   0  0  0  0  0  0  0  0  0  0  0  0
   36.3030   31.0740   38.2820 H   0  0  0  0  0  0  0  0  0  0  0  0
   34.1580   30.3240   38.9910 H   0  0  0  0  0  0  0  0  0  0  0  0
   35.4320   30.7300   41.0610 O   0  0  0  0  0  0  0  0  0  0  0  0
   35.3320   31.4570   40.3860 H   0  0  0  0  0  0  0  0  0  0  0  0
   34.6070   28.3360   38.5940 O   0  0  0  0  0  0  0  0  0  0  0  0
   35.1740   27.9640   37.8720 H   0  0  0  0  0  0  0  0  0  0  0  0
   37.6400   28.2010   42.7840 C   0  0  0  0  0  0  0  0  0  0  0  0
   37.5040   28.4520   43.8820 H   0  0  0  0  0  0  0  0  0  0  0  0
   36.6430   28.0230   42.4300 H   0  0  0  0  0  0  0  0  0  0  0  0
   37.3970   26.1640   40.7740 F   0  0  0  0  0  0  0  0  0  0  0  0
   38.3010   26.0490   41.7360 C   0  0  0  0  0  0  0  0  0  0  0  0
   38.4810   26.9890   42.7200 C   0  0  0  0  0  0  0  0  0  0  0  0
   39.4620   26.8160   43.6800 C   0  0  0  0  0  0  0  0  0  0  0  0
   40.2280   25.6730   43.5890 C   0  0  0  0  0  0  0  0  0  0  0  0
   40.1010   24.6840   42.6240 C   0  0  0  0  0  0  0  0  0  0  0  0
   39.0990   24.8900   41.6690 C   0  0  0  0  0  0  0  0  0  0  0  0
   39.6480   27.5090   44.4650 H   0  0  0  0  0  0  0  0  0  0  0  0
   41.0010   25.5250   44.3320 H   0  0  0  0  0  0  0  0  0  0  0  0
   40.7420   23.8150   42.6220 H   0  0  0  0  0  0  0  0  0  0  0  0
   40.7990   25.3110   39.0680 Br  0  0  0  0  0  0  0  0  0  0  0  0
   39.5560   23.9060   39.4060 C   0  0  0  0  0  0  0  0  0  0  0  0
   38.9020   23.8940   40.6200 C   0  0  0  0  0  0  0  0  0  0  0  0
   37.9940   22.8920   40.9000 C   0  0  0  0  0  0  0  0  0  0  0  0
   37.4440   22.8230   41.8390 H   0  0  0  0  0  0  0  0  0  0  0  0
   37.7430   21.9120   39.9780 C   0  0  0  0  0  0  0  0  0  0  0  0
   37.0350   21.0940   40.1440 H   0  0  0  0  0  0  0  0  0  0  0  0
   38.3810   21.8860   38.7400 C   0  0  0  0  0  3  0  0  0  0  0  0
   39.2800   22.9020   38.4960 C   0  0  0  0  0  3  0  0  0  0  0  0
  1 23  1  0  0  0  0
  1  6  1  0  0  0  0
  2  1  2  0  0  0  0
  3  2  1  0  0  0  0
  3  4  2  0  0  0  0
  4  5  1  0  0  0  0
  5  6  2  0  0  0  0
  5  8  1  0  0  0  0
  7  3  1  0  0  0  0
  9 14  1  1  0  0  0
  9 19  1  0  0  0  0
 10 15  1  1  0  0  0
 10  9  1  0  0  0  0
 10  2  1  0  0  0  0
 11 10  1  0  0  0  0
 12 17  1  0  0  0  0
 12 11  1  0  0  0  0
 12 13  1  0  0  0  0
 13 18  1  6  0  0  0
 13  9  1  0  0  0  0
 16 12  1  0  0  0  0
 20 19  1  0  0  0  0
 21 13  1  0  0  0  0
 22 21  1  0  0  0  0
 23 24  1  0  0  0  0
 25 23  1  0  0  0  0
 26 27  1  0  0  0  0
 27 28  1  0  0  0  0
 28 23  1  0  0  0  0
 28 29  2  0  0  0  0
 29 33  1  0  0  0  0
 30 29  1  0  0  0  0
 30 34  1  0  0  0  0
 31 30  2  0  0  0  0
 32 27  2  0  0  0  0
 32 31  1  0  0  0  0
 35 31  1  0  0  0  0
 36 37  1  0  0  0  0
 37 38  1  0  0  0  0
 38 39  2  0  0  0  0
 38 32  1  0  0  0  0
 39 40  1  0  0  0  0
 41 42  1  0  0  0  0
 41 39  1  0  0  0  0
 43 41  2  0  0  0  0
 44 43  1  0  0  0  0
 44 37  2  0  0  0  0
M  END
>  <minimizedAffinity>
-6.47195435

$$$$

 OpenBabel03242514513D

 44 47  0  0  1  0  0  0  0  0999 V2000
   38.6450   32.1220   38.6240 C   0  0  0  0  0  0  0  0  0  0  0  0
   39.9470   32.4030   39.0070 C   0  0  0  0  0  0  0  0  0  0  0  0
   40.1230   33.4700   39.9070 C   0  0  0  0  0  0  0  0  0  0  0  0
   39.0390   34.1570   40.3470 N   0  0  0  0  0  0  0  0  0  0  0  0
   37.8000   33.8410   39.9410 C   0  0  0  0  0  0  0  0  0  0  0  0
   37.6210   32.8430   39.0980 N   0  0  0  0  0  0  0  0  0  0  0  0
   41.1180   33.7470   40.2530 H   0  0  0  0  0  0  0  0  0  0  0  0
   37.0210   34.4620   40.3620 H   0  0  0  0  0  0  0  0  0  0  0  0
   41.6830   32.1770   37.2300 C   0  0  2  0  0  0  0  0  0  0  0  0
   41.1310   31.6110   38.5680 C   0  0  1  0  0  0  0  0  0  0  0  0
   42.1350   31.5110   39.4480 O   0  0  0  0  0  0  0  0  0  0  0  0
   43.2390   32.1970   39.0070 C   0  0  0  0  0  0  0  0  0  0  0  0
   43.1960   32.0190   37.5180 C   0  0  1  0  0  0  0  0  0  0  0  0
   41.5200   31.5770   36.3510 H   0  0  0  0  0  0  0  0  0  0  0  0
   40.9720   30.6630   38.1470 H   0  0  0  0  0  0  0  0  0  0  0  0
   44.1350   31.7160   39.4700 H   0  0  0  0  0  0  0  0  0  0  0  0
   43.2410   33.2630   39.2450 H   0  0  0  0  0  0  0  0  0  0  0  0
   43.7540   32.7860   36.9700 H   0  0  0  0  0  0  0  0  0  0  0  0
   41.3830   33.4550   36.9840 O   0  0  0  0  0  0  0  0  0  0  0  0
   42.0750   34.0610   37.3690 H   0  0  0  0  0  0  0  0  0  0  0  0
   43.6230   30.7340   37.2620 O   0  0  0  0  0  0  0  0  0  0  0  0
   43.8690   30.2080   38.0640 H   0  0  0  0  0  0  0  0  0  0  0  0
   38.4440   31.0060   37.6610 C   0  0  0  0  0  0  0  0  0  0  0  0
   38.0790   31.5440   36.7310 H   0  0  0  0  0  0  0  0  0  0  0  0
   39.3260   30.4880   37.3330 H   0  0  0  0  0  0  0  0  0  0  0  0
   38.6250   29.2060   39.8920 F   0  0  0  0  0  0  0  0  0  0  0  0
   37.5300   29.2360   39.1430 C   0  0  0  0  0  0  0  0  0  0  0  0
   37.3710   30.0790   38.0710 C   0  0  0  0  0  0  0  0  0  0  0  0
   36.1920   30.0750   37.3490 C   0  0  0  0  0  0  0  0  0  0  0  0
   35.2120   29.1960   37.7610 C   0  0  0  0  0  0  0  0  0  0  0  0
   35.3060   28.3190   38.8320 C   0  0  0  0  0  0  0  0  0  0  0  0
   36.5120   28.3490   39.5410 C   0  0  0  0  0  0  0  0  0  0  0  0
   36.0110   30.7040   36.5110 H   0  0  0  0  0  0  0  0  0  0  0  0
   34.2820   29.1830   37.2070 H   0  0  0  0  0  0  0  0  0  0  0  0
   34.4900   27.6600   39.0920 H   0  0  0  0  0  0  0  0  0  0  0  0
   37.4070   25.4260   38.8420 Br  0  0  0  0  0  0  0  0  0  0  0  0
   37.0760   26.1350   40.5800 C   0  0  0  0  0  0  0  0  0  0  0  0
   36.6880   27.4540   40.6820 C   0  0  0  0  0  0  0  0  0  0  0  0
   36.4390   28.0020   41.9240 C   0  0  0  0  0  0  0  0  0  0  0  0
   36.1290   29.0370   42.0750 H   0  0  0  0  0  0  0  0  0  0  0  0
   36.5770   27.2420   43.0530 C   0  0  0  0  0  0  0  0  0  0  0  0
   36.3940   27.6220   44.0630 H   0  0  0  0  0  0  0  0  0  0  0  0
   36.9670   25.9060   42.9970 C   0  0  0  0  0  3  0  0  0  0  0  0
   37.2060   25.3930   41.7400 C   0  0  0  0  0  3  0  0  0  0  0  0
  1  2  2  0  0  0  0
  1  6  1  0  0  0  0
  2  3  1  0  0  0  0
  3  7  1  0  0  0  0
  3  4  2  0  0  0  0
  5  4  1  0  0  0  0
  5  8  1  0  0  0  0
  6  5  2  0  0  0  0
  9 14  1  6  0  0  0
  9 13  1  0  0  0  0
  9 10  1  0  0  0  0
 10 15  1  6  0  0  0
 10  2  1  0  0  0  0
 10 11  1  0  0  0  0
 12 17  1  0  0  0  0
 12 11  1  0  0  0  0
 12 16  1  0  0  0  0
 13 18  1  6  0  0  0
 13 12  1  0  0  0  0
 19  9  1  0  0  0  0
 19 20  1  0  0  0  0
 21 13  1  0  0  0  0
 21 22  1  0  0  0  0
 23 28  1  0  0  0  0
 23  1  1  0  0  0  0
 24 23  1  0  0  0  0
 25 23  1  0  0  0  0
 27 32  1  0  0  0  0
 27 26  1  0  0  0  0
 28 27  2  0  0  0  0
 29 30  2  0  0  0  0
 29 28  1  0  0  0  0
 30 31  1  0  0  0  0
 31 35  1  0  0  0  0
 31 32  2  0  0  0  0
 32 38  1  0  0  0  0
 33 29  1  0  0  0  0
 34 30  1  0  0  0  0
 36 37  1  0  0  0  0
 37 38  2  0  0  0  0
 37 44  1  0  0  0  0
 38 39  1  0  0  0  0
 39 40  1  0  0  0  0
 39 41  2  0  0  0  0
 41 42  1  0  0  0  0
 43 41  1  0  0  0  0
 44 43  2  0  0  0  0
M  END
>  <minimizedAffinity>
-6.41232824

$$$$

 OpenBabel03242514513D

 44 47  0  0  1  0  0  0  0  0999 V2000
   40.4700   29.8950   41.4620 C   0  0  0  0  0  0  0  0  0  0  0  0
   41.2030   30.2700   40.3480 C   0  0  0  0  0  0  0  0  0  0  0  0
   42.6020   30.1430   40.4420 C   0  0  0  0  0  0  0  0  0  0  0  0
   43.1520   29.6720   41.5900 N   0  0  0  0  0  0  0  0  0  0  0  0
   42.3910   29.3240   42.6380 C   0  0  0  0  0  0  0  0  0  0  0  0
   41.0790   29.4380   42.5630 N   0  0  0  0  0  0  0  0  0  0  0  0
   43.2420   30.4180   39.6060 H   0  0  0  0  0  0  0  0  0  0  0  0
   42.9480   28.9640   43.4930 H   0  0  0  0  0  0  0  0  0  0  0  0
   40.5060   32.2840   39.0520 C   0  0  2  0  0  0  0  0  0  0  0  0
   40.5940   30.7330   39.0690 C   0  0  1  0  0  0  0  0  0  0  0  0
   41.1910   30.3160   37.9450 O   0  0  0  0  0  0  0  0  0  0  0  0
   41.7860   31.3660   37.2930 C   0  0  0  0  0  0  0  0  0  0  0  0
   40.8680   32.5210   37.5650 C   0  0  1  0  0  0  0  0  0  0  0  0
   39.5230   32.7110   39.1530 H   0  0  0  0  0  0  0  0  0  0  0  0
   39.5570   30.6330   38.9430 H   0  0  0  0  0  0  0  0  0  0  0  0
   41.8290   31.1010   36.2070 H   0  0  0  0  0  0  0  0  0  0  0  0
   42.7920   31.6110   37.6420 H   0  0  0  0  0  0  0  0  0  0  0  0
   41.3520   33.4990   37.4590 H   0  0  0  0  0  0  0  0  0  0  0  0
   41.3710   32.9130   39.8530 O   0  0  0  0  0  0  0  0  0  0  0  0
   42.2280   33.0910   39.3750 H   0  0  0  0  0  0  0  0  0  0  0  0
   39.7710   32.3540   36.7500 O   0  0  0  0  0  0  0  0  0  0  0  0
   39.8010   31.5540   36.1680 H   0  0  0  0  0  0  0  0  0  0  0  0
   38.9910   30.0380   41.3820 C   0  0  0  0  0  0  0  0  0  0  0  0
   38.7910   30.9250   42.0610 H   0  0  0  0  0  0  0  0  0  0  0  0
   38.5870   30.3380   40.4340 H   0  0  0  0  0  0  0  0  0  0  0  0
   38.8490   27.4430   40.1590 F   0  0  0  0  0  0  0  0  0  0  0  0
   38.2340   27.6740   41.3120 C   0  0  0  0  0  0  0  0  0  0  0  0
   38.2710   28.8850   41.9580 C   0  0  0  0  0  0  0  0  0  0  0  0
   37.6260   29.0480   43.1700 C   0  0  0  0  0  0  0  0  0  0  0  0
   36.9640   27.9500   43.6770 C   0  0  0  0  0  0  0  0  0  0  0  0
   36.8870   26.7000   43.0790 C   0  0  0  0  0  0  0  0  0  0  0  0
   37.5490   26.5690   41.8540 C   0  0  0  0  0  0  0  0  0  0  0  0
   37.6190   29.9610   43.7170 H   0  0  0  0  0  0  0  0  0  0  0  0
   36.4560   28.0620   44.6270 H   0  0  0  0  0  0  0  0  0  0  0  0
   36.3460   25.8870   43.5420 H   0  0  0  0  0  0  0  0  0  0  0  0
   39.6920   24.4750   42.7800 Br  0  0  0  0  0  0  0  0  0  0  0  0
   38.3720   24.2370   41.4250 C   0  0  0  0  0  0  0  0  0  0  0  0
   37.5140   25.2840   41.1610 C   0  0  0  0  0  0  0  0  0  0  0  0
   36.5460   25.1480   40.1860 C   0  0  0  0  0  0  0  0  0  0  0  0
   35.8370   25.9360   39.9280 H   0  0  0  0  0  0  0  0  0  0  0  0
   36.4360   23.9800   39.4830 C   0  0  0  0  0  0  0  0  0  0  0  0
   35.6890   23.8150   38.7000 H   0  0  0  0  0  0  0  0  0  0  0  0
   37.2800   22.8980   39.7160 C   0  0  0  0  0  3  0  0  0  0  0  0
   38.2350   23.0700   40.6960 C   0  0  0  0  0  3  0  0  0  0  0  0
  1  6  1  0  0  0  0
  2  3  1  0  0  0  0
  2  1  2  0  0  0  0
  3  4  2  0  0  0  0
  4  5  1  0  0  0  0
  5  8  1  0  0  0  0
  6  5  2  0  0  0  0
  7  3  1  0  0  0  0
  9 10  1  0  0  0  0
  9 14  1  1  0  0  0
  9 19  1  0  0  0  0
 10 15  1  6  0  0  0
 10  2  1  0  0  0  0
 11 10  1  0  0  0  0
 12 13  1  0  0  0  0
 12 17  1  0  0  0  0
 12 11  1  0  0  0  0
 13 18  1  6  0  0  0
 13  9  1  0  0  0  0
 16 12  1  0  0  0  0
 20 19  1  0  0  0  0
 21 13  1  0  0  0  0
 22 21  1  0  0  0  0
 23  1  1  0  0  0  0
 23 28  1  0  0  0  0
 23 24  1  0  0  0  0
 25 23  1  0  0  0  0
 26 27  1  0  0  0  0
 27 32  2  0  0  0  0
 27 28  1  0  0  0  0
 28 29  2  0  0  0  0
 29 30  1  0  0  0  0
 29 33  1  0  0  0  0
 30 34  1  0  0  0  0
 31 35  1  0  0  0  0
 31 30  2  0  0  0  0
 32 31  1  0  0  0  0
 37 36  1  0  0  0  0
 38 37  1  0  0  0  0
 38 32  1  0  0  0  0
 39 38  2  0  0  0  0
 40 39  1  0  0  0  0
 41 43  2  0  0  0  0
 41 39  1  0  0  0  0
 42 41  1  0  0  0  0
 43 44  1  0  0  0  0
 44 37  2  0  0  0  0
M  END
>  <minimizedAffinity>
-6.37491751

$$$$

 OpenBabel03242514513D

 44 47  0  0  1  0  0  0  0  0999 V2000
   37.5190   28.0260   40.5820 C   0  0  0  0  0  0  0  0  0  0  0  0
   37.6840   29.3100   41.0760 C   0  0  0  0  0  0  0  0  0  0  0  0
   37.5080   29.4790   42.4620 C   0  0  0  0  0  0  0  0  0  0  0  0
   37.1920   28.4050   43.2300 N   0  0  0  0  0  0  0  0  0  0  0  0
   37.0440   27.1840   42.6950 C   0  0  0  0  0  0  0  0  0  0  0  0
   37.2070   27.0110   41.3980 N   0  0  0  0  0  0  0  0  0  0  0  0
   37.6220   30.4590   42.9210 H   0  0  0  0  0  0  0  0  0  0  0  0
   36.7920   26.4110   43.4100 H   0  0  0  0  0  0  0  0  0  0  0  0
   36.8710   31.4190   40.0220 C   0  0  2  0  0  0  0  0  0  0  0  0
   38.0860   30.4760   40.2410 C   0  0  1  0  0  0  0  0  0  0  0  0
   39.1220   31.1960   40.6900 O   0  0  0  0  0  0  0  0  0  0  0  0
   38.7110   32.4430   41.0890 C   0  0  0  0  0  0  0  0  0  0  0  0
   37.6070   32.7770   40.1300 C   0  0  1  0  0  0  0  0  0  0  0  0
   36.4440   31.4310   39.0340 H   0  0  0  0  0  0  0  0  0  0  0  0
   38.2130   30.3340   39.2090 H   0  0  0  0  0  0  0  0  0  0  0  0
   39.5880   33.1290   40.9870 H   0  0  0  0  0  0  0  0  0  0  0  0
   38.3330   32.4960   42.1120 H   0  0  0  0  0  0  0  0  0  0  0  0
   36.9150   33.5370   40.5080 H   0  0  0  0  0  0  0  0  0  0  0  0
   35.9080   31.3310   40.9440 O   0  0  0  0  0  0  0  0  0  0  0  0
   36.0850   31.9570   41.6990 H   0  0  0  0  0  0  0  0  0  0  0  0
   38.2070   33.1170   38.9380 O   0  0  0  0  0  0  0  0  0  0  0  0
   39.1970   33.0850   38.9450 H   0  0  0  0  0  0  0  0  0  0  0  0
   37.6880   27.8340   39.1160 C   0  0  0  0  0  0  0  0  0  0  0  0
   37.8520   28.8940   38.7450 H   0  0  0  0  0  0  0  0  0  0  0  0
   38.5670   27.3060   38.7980 H   0  0  0  0  0  0  0  0  0  0  0  0
   35.7500   29.5050   37.8110 F   0  0  0  0  0  0  0  0  0  0  0  0
   35.5750   28.1920   37.8620 C   0  0  0  0  0  0  0  0  0  0  0  0
   36.4660   27.3330   38.4570 C   0  0  0  0  0  0  0  0  0  0  0  0
   36.2310   25.9700   38.4510 C   0  0  0  0  0  0  0  0  0  0  0  0
   35.0800   25.5390   37.8260 C   0  0  0  0  0  0  0  0  0  0  0  0
   34.1390   26.3480   37.2070 C   0  0  0  0  0  0  0  0  0  0  0  0
   34.4070   27.7220   37.2310 C   0  0  0  0  0  0  0  0  0  0  0  0
   36.8840   25.2570   38.8950 H   0  0  0  0  0  0  0  0  0  0  0  0
   34.8840   24.4730   37.8110 H   0  0  0  0  0  0  0  0  0  0  0  0
   33.2600   25.9310   36.7380 H   0  0  0  0  0  0  0  0  0  0  0  0
   35.0370   28.4730   34.2520 Br  0  0  0  0  0  0  0  0  0  0  0  0
   33.5680   29.0880   35.3000 C   0  0  0  0  0  0  0  0  0  0  0  0
   33.4630   28.6410   36.6010 C   0  0  0  0  0  0  0  0  0  0  0  0
   32.4130   29.0660   37.3890 C   0  0  0  0  0  0  0  0  0  0  0  0
   32.2710   28.7510   38.4240 H   0  0  0  0  0  0  0  0  0  0  0  0
   31.4770   29.9270   36.8860 C   0  0  0  0  0  0  0  0  0  0  0  0
   30.6250   30.2980   37.4640 H   0  0  0  0  0  0  0  0  0  0  0  0
   31.5440   30.4050   35.5790 C   0  0  0  0  0  3  0  0  0  0  0  0
   32.6070   29.9590   34.8220 C   0  0  0  0  0  3  0  0  0  0  0  0
  1  2  2  0  0  0  0
  1  6  1  0  0  0  0
  2  3  1  0  0  0  0
  3  7  1  0  0  0  0
  3  4  2  0  0  0  0
  5  4  1  0  0  0  0
  5  8  1  0  0  0  0
  6  5  2  0  0  0  0
  9 14  1  6  0  0  0
  9 13  1  0  0  0  0
  9 10  1  0  0  0  0
  9 19  1  0  0  0  0
 10 15  1  6  0  0  0
 10 11  1  0  0  0  0
 10  2  1  0  0  0  0
 11 12  1  0  0  0  0
 12 17  1  0  0  0  0
 13 18  1  1  0  0  0
 13 12  1  0  0  0  0
 16 12  1  0  0  0  0
 19 20  1  0  0  0  0
 21 22  1  0  0  0  0
 21 13  1  0  0  0  0
 23  1  1  0  0  0  0
 24 23  1  0  0  0  0
 25 23  1  0  0  0  0
 26 27  1  0  0  0  0
 27 28  1  0  0  0  0
 28 23  1  0  0  0  0
 29 28  2  0  0  0  0
 29 33  1  0  0  0  0
 30 29  1  0  0  0  0
 31 32  1  0  0  0  0
 31 30  2  0  0  0  0
 32 27  2  0  0  0  0
 34 30  1  0  0  0  0
 35 31  1  0  0  0  0
 36 37  1  0  0  0  0
 37 38  1  0  0  0  0
 38 32  1  0  0  0  0
 38 39  2  0  0  0  0
 39 40  1  0  0  0  0
 41 39  1  0  0  0  0
 41 42  1  0  0  0  0
 43 41  2  0  0  0  0
 44 37  2  0  0  0  0
 44 43  1  0  0  0  0
M  END
>  <minimizedAffinity>
-6.33799171

$$$$

 OpenBabel03242514513D

 44 47  0  0  1  0  0  0  0  0999 V2000
   37.3750   30.6250   40.9610 C   0  0  0  0  0  0  0  0  0  0  0  0
   38.7110   30.9800   41.0540 C   0  0  0  0  0  0  0  0  0  0  0  0
   39.4410   30.4140   42.1160 C   0  0  0  0  0  0  0  0  0  0  0  0
   38.8190   29.5690   42.9760 N   0  0  0  0  0  0  0  0  0  0  0  0
   37.5210   29.2610   42.8370 C   0  0  0  0  0  0  0  0  0  0  0  0
   36.8250   29.7840   41.8460 N   0  0  0  0  0  0  0  0  0  0  0  0
   40.4950   30.6470   42.2510 H   0  0  0  0  0  0  0  0  0  0  0  0
   37.1420   28.5780   43.5860 H   0  0  0  0  0  0  0  0  0  0  0  0
   39.1460   33.3540   40.4250 C   0  0  2  0  0  0  0  0  0  0  0  0
   39.4060   31.8630   40.0750 C   0  0  1  0  0  0  0  0  0  0  0  0
   40.7230   31.6700   39.9360 O   0  0  0  0  0  0  0  0  0  0  0  0
   41.4260   32.7420   40.4250 C   0  0  0  0  0  0  0  0  0  0  0  0
   40.5520   33.9170   40.1020 C   0  0  1  0  0  0  0  0  0  0  0  0
   38.4900   33.8960   39.7650 H   0  0  0  0  0  0  0  0  0  0  0  0
   38.9910   31.9740   39.1170 H   0  0  0  0  0  0  0  0  0  0  0  0
   42.4030   32.7730   39.8810 H   0  0  0  0  0  0  0  0  0  0  0  0
   41.6160   32.7140   41.5000 H   0  0  0  0  0  0  0  0  0  0  0  0
   40.7470   34.7930   40.7310 H   0  0  0  0  0  0  0  0  0  0  0  0
   38.8250   33.5940   41.7000 O   0  0  0  0  0  0  0  0  0  0  0  0
   39.6440   33.7480   42.2470 H   0  0  0  0  0  0  0  0  0  0  0  0
   40.6960   34.1590   38.7540 O   0  0  0  0  0  0  0  0  0  0  0  0
   41.3210   33.5510   38.2850 H   0  0  0  0  0  0  0  0  0  0  0  0
   36.5860   31.2270   39.8520 C   0  0  0  0  0  0  0  0  0  0  0  0
   35.5280   31.2060   40.2610 H   0  0  0  0  0  0  0  0  0  0  0  0
   36.7650   32.2640   39.6420 H   0  0  0  0  0  0  0  0  0  0  0  0
   35.1510   28.7550   39.5620 F   0  0  0  0  0  0  0  0  0  0  0  0
   35.8890   29.2210   38.5640 C   0  0  0  0  0  0  0  0  0  0  0  0
   36.5900   30.4000   38.6290 C   0  0  0  0  0  0  0  0  0  0  0  0
   37.3210   30.8380   37.5390 C   0  0  0  0  0  0  0  0  0  0  0  0
   37.3010   30.0410   36.4140 C   0  0  0  0  0  0  0  0  0  0  0  0
   36.6170   28.8410   36.2810 C   0  0  0  0  0  0  0  0  0  0  0  0
   35.8890   28.4270   37.4010 C   0  0  0  0  0  0  0  0  0  0  0  0
   37.8830   31.7410   37.5300 H   0  0  0  0  0  0  0  0  0  0  0  0
   37.8670   30.3710   35.5520 H   0  0  0  0  0  0  0  0  0  0  0  0
   36.6520   28.2730   35.3620 H   0  0  0  0  0  0  0  0  0  0  0  0
   32.9330   28.6640   36.3800 Br  0  0  0  0  0  0  0  0  0  0  0  0
   33.8320   27.0720   36.9180 C   0  0  0  0  0  0  0  0  0  0  0  0
   35.1410   27.1740   37.3390 C   0  0  0  0  0  0  0  0  0  0  0  0
   35.8240   26.0410   37.7370 C   0  0  0  0  0  0  0  0  0  0  0  0
   36.8590   26.0520   38.0810 H   0  0  0  0  0  0  0  0  0  0  0  0
   35.2070   24.8210   37.7130 C   0  0  0  0  0  0  0  0  0  0  0  0
   35.6970   23.8910   38.0170 H   0  0  0  0  0  0  0  0  0  0  0  0
   33.8870   24.6710   37.2950 C   0  0  0  0  0  3  0  0  0  0  0  0
   33.2370   25.8230   36.9060 C   0  0  0  0  0  3  0  0  0  0  0  0
  1  2  2  0  0  0  0
  1  6  1  0  0  0  0
  2  3  1  0  0  0  0
  3  7  1  0  0  0  0
  3  4  2  0  0  0  0
  5  4  1  0  0  0  0
  5  8  1  0  0  0  0
  6  5  2  0  0  0  0
  9 14  1  6  0  0  0
  9 19  1  0  0  0  0
 10 15  1  6  0  0  0
 10  9  1  0  0  0  0
 10  2  1  0  0  0  0
 11 10  1  0  0  0  0
 11 12  1  0  0  0  0
 12 17  1  0  0  0  0
 13  9  1  0  0  0  0
 13 12  1  0  0  0  0
 13 18  1  1  0  0  0
 16 12  1  0  0  0  0
 19 20  1  0  0  0  0
 21 13  1  0  0  0  0
 22 21  1  0  0  0  0
 23 24  1  0  0  0  0
 23  1  1  0  0  0  0
 25 23  1  0  0  0  0
 27 28  1  0  0  0  0
 27 26  1  0  0  0  0
 28 23  1  0  0  0  0
 29 28  2  0  0  0  0
 30 29  1  0  0  0  0
 31 30  2  0  0  0  0
 31 32  1  0  0  0  0
 32 27  2  0  0  0  0
 33 29  1  0  0  0  0
 34 30  1  0  0  0  0
 35 31  1  0  0  0  0
 36 37  1  0  0  0  0
 37 38  1  0  0  0  0
 38 32  1  0  0  0  0
 38 39  2  0  0  0  0
 39 40  1  0  0  0  0
 41 39  1  0  0  0  0
 41 42  1  0  0  0  0
 43 41  2  0  0  0  0
 44 37  2  0  0  0  0
 44 43  1  0  0  0  0
M  END
>  <minimizedAffinity>
-6.21757746

$$$$

 OpenBabel03242514513D

 44 47  0  0  1  0  0  0  0  0999 V2000
   38.0130   31.2850   41.0290 C   0  0  0  0  0  0  0  0  0  0  0  0
   38.4890   30.3010   41.8820 C   0  0  0  0  0  0  0  0  0  0  0  0
   39.8130   30.4480   42.3360 C   0  0  0  0  0  0  0  0  0  0  0  0
   40.5430   31.5170   41.9290 N   0  0  0  0  0  0  0  0  0  0  0  0
   40.0300   32.4390   41.1010 C   0  0  0  0  0  0  0  0  0  0  0  0
   38.7900   32.3140   40.6680 N   0  0  0  0  0  0  0  0  0  0  0  0
   40.2540   29.7140   43.0080 H   0  0  0  0  0  0  0  0  0  0  0  0
   40.7100   33.2420   40.8500 H   0  0  0  0  0  0  0  0  0  0  0  0
   37.7960   27.9540   41.4000 C   0  0  2  0  0  0  0  0  0  0  0  0
   37.6680   29.1590   42.3730 C   0  0  1  0  0  0  0  0  0  0  0  0
   37.9210   28.7420   43.6200 O   0  0  0  0  0  0  0  0  0  0  0  0
   38.4870   27.4930   43.6100 C   0  0  0  0  0  0  0  0  0  0  0  0
   37.8290   26.8130   42.4460 C   0  0  1  0  0  0  0  0  0  0  0  0
   36.9330   27.7300   40.7960 H   0  0  0  0  0  0  0  0  0  0  0  0
   36.6270   29.2000   42.2490 H   0  0  0  0  0  0  0  0  0  0  0  0
   38.2380   27.0070   44.5860 H   0  0  0  0  0  0  0  0  0  0  0  0
   39.5710   27.4820   43.4720 H   0  0  0  0  0  0  0  0  0  0  0  0
   38.4050   25.9710   42.0480 H   0  0  0  0  0  0  0  0  0  0  0  0
   38.9030   27.9390   40.6520 O   0  0  0  0  0  0  0  0  0  0  0  0
   39.6410   27.4630   41.1250 H   0  0  0  0  0  0  0  0  0  0  0  0
   36.5590   26.4720   42.8540 O   0  0  0  0  0  0  0  0  0  0  0  0
   36.3400   26.7190   43.7880 H   0  0  0  0  0  0  0  0  0  0  0  0
   36.6200   31.1360   40.5290 C   0  0  0  0  0  0  0  0  0  0  0  0
   36.1990   30.3290   41.2070 H   0  0  0  0  0  0  0  0  0  0  0  0
   35.9630   31.9720   40.6790 H   0  0  0  0  0  0  0  0  0  0  0  0
   34.8290   29.0650   39.6600 F   0  0  0  0  0  0  0  0  0  0  0  0
   35.6820   29.6130   38.8060 C   0  0  0  0  0  0  0  0  0  0  0  0
   36.5570   30.6150   39.1500 C   0  0  0  0  0  0  0  0  0  0  0  0
   37.4030   31.1580   38.2000 C   0  0  0  0  0  0  0  0  0  0  0  0
   37.3160   30.6460   36.9230 C   0  0  0  0  0  0  0  0  0  0  0  0
   36.4590   29.6380   36.5080 C   0  0  0  0  0  0  0  0  0  0  0  0
   35.6170   29.1110   37.4930 C   0  0  0  0  0  0  0  0  0  0  0  0
   38.1010   31.9340   38.4070 H   0  0  0  0  0  0  0  0  0  0  0  0
   37.9720   31.0630   36.1680 H   0  0  0  0  0  0  0  0  0  0  0  0
   36.4520   29.2920   35.4840 H   0  0  0  0  0  0  0  0  0  0  0  0
   36.5540   26.2010   38.1940 Br  0  0  0  0  0  0  0  0  0  0  0  0
   34.9150   26.7040   37.3600 C   0  0  0  0  0  0  0  0  0  0  0  0
   34.6840   28.0450   37.1340 C   0  0  0  0  0  0  0  0  0  0  0  0
   33.5090   28.4460   36.5320 C   0  0  0  0  0  0  0  0  0  0  0  0
   33.2640   29.4890   36.3250 H   0  0  0  0  0  0  0  0  0  0  0  0
   32.5740   27.5200   36.1610 C   0  0  0  0  0  0  0  0  0  0  0  0
   31.6250   27.7790   35.6800 H   0  0  0  0  0  0  0  0  0  0  0  0
   32.7650   26.1560   36.3700 C   0  0  0  0  0  3  0  0  0  0  0  0
   33.9500   25.7930   36.9720 C   0  0  0  0  0  3  0  0  0  0  0  0
  1  2  1  0  0  0  0
  2  3  2  0  0  0  0
  2 10  1  0  0  0  0
  3  7  1  0  0  0  0
  4  3  1  0  0  0  0
  5  4  2  0  0  0  0
  6  1  2  0  0  0  0
  6  5  1  0  0  0  0
  8  5  1  0  0  0  0
  9 14  1  6  0  0  0
  9 10  1  0  0  0  0
  9 13  1  0  0  0  0
 10 15  1  6  0  0  0
 10 11  1  0  0  0  0
 12 11  1  0  0  0  0
 12 16  1  0  0  0  0
 13 18  1  6  0  0  0
 13 21  1  0  0  0  0
 13 12  1  0  0  0  0
 17 12  1  0  0  0  0
 19 20  1  0  0  0  0
 19  9  1  0  0  0  0
 21 22  1  0  0  0  0
 23 25  1  0  0  0  0
 23  1  1  0  0  0  0
 23 24  1  0  0  0  0
 27 28  1  0  0  0  0
 27 26  1  0  0  0  0
 28 23  1  0  0  0  0
 29 33  1  0  0  0  0
 29 28  2  0  0  0  0
 30 29  1  0  0  0  0
 31 30  2  0  0  0  0
 31 32  1  0  0  0  0
 32 27  2  0  0  0  0
 34 30  1  0  0  0  0
 35 31  1  0  0  0  0
 37 36  1  0  0  0  0
 38 37  1  0  0  0  0
 38 32  1  0  0  0  0
 39 38  2  0  0  0  0
 40 39  1  0  0  0  0
 41 43  2  0  0  0  0
 41 39  1  0  0  0  0
 42 41  1  0  0  0  0
 43 44  1  0  0  0  0
 44 37  2  0  0  0  0
M  END
>  <minimizedAffinity>
-6.15818691

$$$$
