REMARK  Name = 
REMARK  5 active torsions:
REMARK  status: ('A' for Active; 'I' for Inactive)
REMARK    1  A    between atoms: C_1  and  O_13
REMARK    2  A    between atoms: C_2  and  C_9
REMARK    3  A    between atoms: C_6  and  O_14
REMARK    4  A    between atoms: O_14  and  C_15
REMARK    5  A    between atoms: C_18  and  C_31
REMARK                            x       y       z     vdW  Elec       q    Type
REMARK                         _______ _______ _______ _____ _____    ______ ____
ROOT
ATOM      1  C   UNL     1      46.484  33.569  41.349  0.00  0.00    +0.000 A 
ATOM      2  C   UNL     1      46.835  34.624  42.186  0.00  0.00    +0.000 A 
ATOM      3  C   UNL     1      47.860  35.413  41.800  0.00  0.00    +0.000 A 
ATOM      4  C   UNL     1      48.551  35.202  40.623  0.00  0.00    +0.000 A 
ATOM      5  C   UNL     1      48.199  34.156  39.800  0.00  0.00    +0.000 A 
ATOM      6  C   UNL     1      47.145  33.311  40.155  0.00  0.00    +0.000 A 
ATOM      7  H   UNL     1      48.109  36.230  42.478  0.00  0.00    +0.000 HD
ATOM      8  H   UNL     1      49.350  35.894  40.417  0.00  0.00    +0.000 HD
ATOM      9  H   UNL     1      48.748  33.997  38.874  0.00  0.00    +0.000 HD
ENDROOT
BRANCH   2  12
ATOM     10  C   UNL     1      44.471  35.933  44.819  0.00  0.00    +0.000 A 
ATOM     11  C   UNL     1      45.186  35.810  43.623  0.00  0.00    +0.000 A 
ATOM     12  C   UNL     1      46.073  34.792  43.405  0.00  0.00    +0.000 A 
ATOM     13  N   UNL     1      46.196  33.916  44.449  0.00  0.00    +0.000 NA
ATOM     14  C   UNL     1      45.512  34.023  45.608  0.00  0.00    +0.000 A 
ATOM     15  N   UNL     1      44.647  35.039  45.788  0.00  0.00    +0.000 NA
ATOM     16  H   UNL     1      43.775  36.752  44.962  0.00  0.00    +0.000 HD
ATOM     17  H   UNL     1      45.048  36.538  42.827  0.00  0.00    +0.000 HD
ATOM     18  H   UNL     1      45.761  33.217  46.307  0.00  0.00    +0.000 HD
ENDBRANCH   2  12
BRANCH   1  19
ATOM     19  O   UNL     1      45.442  32.725  41.688  0.00  0.00    +0.000 OA
ATOM     20  H   UNL     1      44.794  32.414  40.962  0.00  0.00    +0.000 HD
ENDBRANCH   1  19
BRANCH   6  21
ATOM     21  O   UNL     1      46.767  32.263  39.363  0.00  0.00    +0.000 OA
BRANCH  21  22
ATOM     22  C   UNL     1      46.589  32.297  38.019  0.00  0.00    +0.000 A 
ATOM     23  C   UNL     1      45.532  32.766  37.271  0.00  0.00    +0.000 A 
ATOM     24  C   UNL     1      45.591  32.689  35.918  0.00  0.00    +0.000 A 
ATOM     25  C   UNL     1      46.766  32.116  35.364  0.00  0.00    +0.000 A 
ATOM     26  S   UNL     1      47.766  31.700  36.809  0.00  0.00    +0.000 S 
ATOM     27  H   UNL     1      44.685  33.184  37.782  0.00  0.00    +0.000 HD
ATOM     28  H   UNL     1      44.842  33.015  35.223  0.00  0.00    +0.000 HD
BRANCH  25  31
ATOM     29 BR   UNL     1      49.688  32.980  34.881  0.00  0.00    +0.000 Br
ATOM     30  C   UNL     1      48.442  32.237  33.656  0.00  0.00    +0.000 A 
ATOM     31  C   UNL     1      47.150  31.884  33.980  0.00  0.00    +0.000 A 
ATOM     32  C   UNL     1      46.199  31.352  33.178  0.00  0.00    +0.000 A 
ATOM     33  H   UNL     1      45.206  31.101  33.504  0.00  0.00    +0.000 HD
ATOM     34  C   UNL     1      46.568  31.128  31.846  0.00  0.00    +0.000 A 
ATOM     35  H   UNL     1      45.894  30.715  31.139  0.00  0.00    +0.000 HD
ATOM     36  C   UNL     1      47.863  31.459  31.432  0.00  0.00    +0.000 A 
ATOM     37  C   UNL     1      48.795  32.008  32.321  0.00  0.00    +0.000 A 
ENDBRANCH  25  31
ENDBRANCH  21  22
ENDBRANCH   6  21
TORSDOF 5
