
 OpenBabel03242521393D

 21 22  0  0  0  0  0  0  0  0999 V2000
   45.1410   35.0310   43.6110 C   0  0  0  0  0  0  0  0  0  0  0  0
   44.9020   34.8260   42.2550 C   0  0  0  0  0  0  0  0  0  0  0  0
   45.0460   33.5380   41.7310 C   0  0  0  0  0  0  0  0  0  0  0  0
   45.4130   32.5640   42.5890 N   0  0  0  0  0  0  0  0  0  0  0  0
   45.6390   32.7940   43.9020 C   0  0  0  0  0  0  0  0  0  0  0  0
   45.5020   34.0320   44.4120 N   0  0  0  0  0  0  0  0  0  0  0  0
   44.6170   35.6460   41.6500 H   0  0  0  0  0  0  0  0  0  0  0  0
   45.9310   31.9560   44.5240 H   0  0  0  0  0  0  0  0  0  0  0  0
   42.1150   33.8990   41.0350 Br  0  0  0  0  0  0  0  0  0  0  0  0
   43.5180   33.3840   39.8430 C   0  0  0  0  0  0  0  0  0  0  0  0
   44.8080   33.2630   40.3180 C   0  0  0  0  0  0  0  0  0  0  0  0
   45.7610   32.8910   39.4100 C   0  0  0  0  0  0  0  0  0  0  0  0
   46.7760   32.7880   39.7470 H   0  0  0  0  0  0  0  0  0  0  0  0
   45.4470   32.6490   38.0850 C   0  0  0  0  0  0  0  0  0  0  0  0
   46.2520   32.3560   37.4070 H   0  0  0  0  0  0  0  0  0  0  0  0
   44.1440   32.7830   37.6530 C   0  0  0  0  0  3  0  0  0  0  0  0
   43.1440   33.1560   38.5340 C   0  0  0  0  0  3  0  0  0  0  0  0
   44.9770   36.4210   44.1320 C   0  0  0  0  0  0  0  0  0  0  0  0
   44.7710   36.4340   45.2180 H   0  0  0  0  0  0  0  0  0  0  0  0
   44.1810   36.9320   43.5630 H   0  0  0  0  0  0  0  0  0  0  0  0
   45.9320   36.9370   43.8950 H   0  0  0  0  0  0  0  0  0  0  0  0
  1 18  1  0  0  0  0
  1  6  1  0  0  0  0
  2  1  2  0  0  0  0
  3  2  1  0  0  0  0
  3  4  2  0  0  0  0
  4  5  1  0  0  0  0
  5  6  2  0  0  0  0
  5  8  1  0  0  0  0
  7  2  1  0  0  0  0
 10 11  1  0  0  0  0
 10  9  1  0  0  0  0
 11  3  1  0  0  0  0
 12 13  1  0  0  0  0
 12 11  2  0  0  0  0
 14 12  1  0  0  0  0
 15 14  1  0  0  0  0
 16 14  2  0  0  0  0
 16 17  1  0  0  0  0
 17 10  2  0  0  0  0
 18 19  1  0  0  0  0
 20 18  1  0  0  0  0
 21 18  1  0  0  0  0
M  END
>  <minimizedAffinity>
-3.04692006

>  <minimizedRMSD>
4.8510561

$$$$
