REMARK  Name = 
REMARK  3 active torsions:
REMARK  status: ('A' for Active; 'I' for Inactive)
REMARK    1  A    between atoms: C_2  and  N_7
REMARK    2  A    between atoms: C_3  and  C_14
REMARK    3  A    between atoms: C_20  and  C_39
REMARK                            x       y       z     vdW  Elec       q    Type
REMARK                         _______ _______ _______ _____ _____    ______ ____
ROOT
ATOM      1  C   UNL     1      45.146  36.008  43.474  0.00  0.00    +0.000 A 
ATOM      2  C   UNL     1      45.938  34.892  43.239  0.00  0.00    +0.000 A 
ATOM      3  C   UNL     1      46.065  33.969  44.244  0.00  0.00    +0.000 A 
ATOM      4  N   UNL     1      45.413  34.185  45.428  0.00  0.00    +0.000 NA
ATOM      5  C   UNL     1      44.652  35.277  45.628  0.00  0.00    +0.000 A 
ATOM      6  N   UNL     1      44.524  36.168  44.665  0.00  0.00    +0.000 NA
ATOM      7  H   UNL     1      45.018  36.765  42.703  0.00  0.00    +0.000 HD
ATOM      8  H   UNL     1      44.109  35.518  46.530  0.00  0.00    +0.000 HD
ENDROOT
BRANCH   2   9
ATOM      9  N   UNL     1      46.575  34.788  42.003  0.00  0.00    +0.000 N 
ATOM     10  C   UNL     1      47.885  35.262  41.768  0.00  0.00    +0.000 C 
ATOM     11  C   UNL     1      48.453  34.910  40.415  0.00  0.00    +0.000 C 
ATOM     12  N   UNL     1      48.144  33.622  39.932  0.00  0.00    +0.000 NA
ATOM     13  C   UNL     1      46.846  33.159  40.172  0.00  0.00    +0.000 C 
ATOM     14  C   UNL     1      45.983  34.208  40.845  0.00  0.00    +0.000 C 
ATOM     15  H   UNL     1      47.820  36.388  41.780  0.00  0.00    +0.000 HD
ATOM     16  H   UNL     1      48.627  35.038  42.565  0.00  0.00    +0.000 HD
ATOM     17  H   UNL     1      49.560  34.997  40.486  0.00  0.00    +0.000 HD
ATOM     18  H   UNL     1      48.144  35.671  39.643  0.00  0.00    +0.000 HD
ATOM     19  H   UNL     1      48.868  32.939  40.281  0.00  0.00    +0.000 HD
ATOM     20  H   UNL     1      46.774  32.174  40.676  0.00  0.00    +0.000 HD
ATOM     21  H   UNL     1      46.334  32.980  39.178  0.00  0.00    +0.000 HD
ATOM     22  H   UNL     1      44.976  33.775  41.011  0.00  0.00    +0.000 HD
ATOM     23  H   UNL     1      45.836  35.042  40.109  0.00  0.00    +0.000 HD
ENDBRANCH   2   9
BRANCH   3  25
ATOM     24  C   UNL     1      46.467  32.018  45.500  0.00  0.00    +0.000 A 
ATOM     25  C   UNL     1      46.761  32.748  44.328  0.00  0.00    +0.000 A 
ATOM     26  C   UNL     1      47.715  32.087  43.577  0.00  0.00    +0.000 A 
ATOM     27  C   UNL     1      48.313  30.906  43.884  0.00  0.00    +0.000 A 
ATOM     28  C   UNL     1      47.973  30.263  45.051  0.00  0.00    +0.000 A 
ATOM     29  C   UNL     1      47.039  30.815  45.874  0.00  0.00    +0.000 A 
ATOM     30  O   UNL     1      48.752  29.127  45.073  0.00  0.00    +0.000 OA
ATOM     31  C   UNL     1      49.529  29.041  43.905  0.00  0.00    +0.000 C 
ATOM     32  O   UNL     1      49.264  30.220  43.144  0.00  0.00    +0.000 OA
ATOM     33  H   UNL     1      45.748  32.243  46.315  0.00  0.00    +0.000 HD
ATOM     34  H   UNL     1      47.939  32.627  42.711  0.00  0.00    +0.000 HD
ATOM     35  H   UNL     1      46.844  30.245  46.741  0.00  0.00    +0.000 HD
ATOM     36  H   UNL     1      49.119  28.176  43.307  0.00  0.00    +0.000 HD
BRANCH  31  39
ATOM     37 BR   UNL     1      51.426  29.563  41.441  0.00  0.00    +0.000 Br
ATOM     38  C   UNL     1      51.985  29.098  43.200  0.00  0.00    +0.000 A 
ATOM     39  C   UNL     1      50.976  28.916  44.127  0.00  0.00    +0.000 A 
ATOM     40  C   UNL     1      51.349  28.575  45.422  0.00  0.00    +0.000 A 
ATOM     41  H   UNL     1      50.671  28.399  46.260  0.00  0.00    +0.000 HD
ATOM     42  C   UNL     1      52.690  28.422  45.777  0.00  0.00    +0.000 A 
ATOM     43  H   UNL     1      53.001  28.157  46.782  0.00  0.00    +0.000 HD
ATOM     44  C   UNL     1      53.709  28.605  44.844  0.00  0.00    +0.000 A 
ATOM     45  C   UNL     1      53.315  28.946  43.553  0.00  0.00    +0.000 A 
ENDBRANCH  31  39
ENDBRANCH   3  25
TORSDOF 3
