
 OpenBabel03252506053D

 43 47  0  0  0  0  0  0  0  0999 V2000
   44.7400   35.9490   43.3090 Cl  0  0  0  0  0  0  0  0  0  0  0  0
   45.4970   34.7120   44.2560 C   0  0  0  0  0  0  0  0  0  0  0  0
   46.5710   34.0060   43.7470 C   0  0  0  0  0  0  0  0  0  0  0  0
   47.1030   33.0410   44.5820 C   0  0  0  0  0  0  0  0  0  0  0  0
   46.6400   32.7550   45.8480 C   0  0  0  0  0  0  0  0  0  0  0  0
   45.5750   33.4740   46.3180 C   0  0  0  0  0  0  0  0  0  0  0  0
   45.0240   33.0730   47.9350 Cl  0  0  0  0  0  0  0  0  0  0  0  0
   45.0110   34.4400   45.5360 C   0  0  0  0  0  0  0  0  0  0  0  0
   47.9500   32.4910   44.1680 H   0  0  0  0  0  0  0  0  0  0  0  0
   44.1690   34.9930   45.9350 H   0  0  0  0  0  0  0  0  0  0  0  0
   47.3410   31.6940   46.5770 C   0  0  0  0  0  0  0  0  0  0  0  0
   47.4510   30.3980   46.1050 C   0  0  0  0  0  0  0  0  0  0  0  0
   48.1060   29.3850   46.7770 C   0  0  0  0  0  0  0  0  0  0  0  0
   48.6930   29.6610   47.9910 C   0  0  0  0  0  0  0  0  0  0  0  0
   49.3260   28.6620   48.6290 N   0  0  0  0  0  0  0  0  0  0  0  0
   49.9330   28.8410   49.8270 C   0  0  0  0  0  0  0  0  0  0  0  0
   49.8660   30.1180   50.3650 C   0  0  0  0  0  0  0  0  0  0  0  0
   49.2220   31.1370   49.7210 C   0  0  0  0  0  0  0  0  0  0  0  0
   48.6090   30.9320   48.4960 C   0  0  0  0  0  0  0  0  0  0  0  0
   47.9500   31.9290   47.8100 C   0  0  0  0  0  0  0  0  0  0  0  0
   46.9890   30.1790   45.1510 H   0  0  0  0  0  0  0  0  0  0  0  0
   48.1390   28.4030   46.3280 H   0  0  0  0  0  0  0  0  0  0  0  0
   50.4260   28.0090   50.2950 H   0  0  0  0  0  0  0  0  0  0  0  0
   50.3440   30.2830   51.3230 H   0  0  0  0  0  0  0  0  0  0  0  0
   49.1700   32.1330   50.1420 H   0  0  0  0  0  0  0  0  0  0  0  0
   47.9040   32.9210   48.2390 H   0  0  0  0  0  0  0  0  0  0  0  0
   48.6750   35.3050   41.0720 C   0  0  0  0  0  0  0  0  0  0  0  0
   48.1230   34.7230   39.9220 C   0  0  0  0  0  0  0  0  0  0  0  0
   47.0110   33.8700   40.0690 C   0  0  0  0  0  0  0  0  0  0  0  0
   46.5750   33.6930   41.3290 N   0  0  0  0  0  0  0  0  0  0  0  0
   47.1130   34.2570   42.4180 C   0  0  0  0  0  0  0  0  0  0  0  0
   48.1690   35.0680   42.3010 N   0  0  0  0  0  0  0  0  0  0  0  0
   49.5330   35.9570   40.9310 H   0  0  0  0  0  0  0  0  0  0  0  0
   48.5280   34.9100   38.9400 H   0  0  0  0  0  0  0  0  0  0  0  0
   48.5260   34.4390   37.4650 Br  0  0  0  0  0  0  0  0  0  0  0  0
   46.9340   33.3820   37.6920 C   0  0  0  0  0  0  0  0  0  0  0  0
   46.3670   33.2200   38.9370 C   0  0  0  0  0  0  0  0  0  0  0  0
   45.2360   32.4560   39.0250 C   0  0  0  0  0  0  0  0  0  0  0  0
   44.7610   32.3040   39.9790 H   0  0  0  0  0  0  0  0  0  0  0  0
   44.7260   31.8940   37.8820 C   0  0  0  0  0  0  0  0  0  0  0  0
   43.8210   31.2870   37.9720 H   0  0  0  0  0  0  0  0  0  0  0  0
   45.2790   32.0450   36.6260 C   0  0  0  0  0  3  0  0  0  0  0  0
   46.4350   32.8290   36.5490 C   0  0  0  0  0  3  0  0  0  0  0  0
  1  2  1  0  0  0  0
  2  8  1  0  0  0  0
  3  2  2  0  0  0  0
  3  4  1  0  0  0  0
  4  5  2  0  0  0  0
  5  6  1  0  0  0  0
  5 11  1  0  0  0  0
  6  7  1  0  0  0  0
  8 10  1  0  0  0  0
  8  6  2  0  0  0  0
  9  4  1  0  0  0  0
 11 20  1  0  0  0  0
 12 11  2  0  0  0  0
 12 13  1  0  0  0  0
 13 14  2  0  0  0  0
 14 19  1  0  0  0  0
 14 15  1  0  0  0  0
 15 16  2  0  0  0  0
 16 23  1  0  0  0  0
 16 17  1  0  0  0  0
 17 24  1  0  0  0  0
 18 25  1  0  0  0  0
 18 17  2  0  0  0  0
 19 18  1  0  0  0  0
 20 26  1  0  0  0  0
 20 19  2  0  0  0  0
 21 12  1  0  0  0  0
 22 13  1  0  0  0  0
 27 32  1  0  0  0  0
 28 29  1  0  0  0  0
 28 27  2  0  0  0  0
 29 30  2  0  0  0  0
 30 31  1  0  0  0  0
 31  3  1  0  0  0  0
 32 31  2  0  0  0  0
 33 27  1  0  0  0  0
 34 28  1  0  0  0  0
 35 36  1  0  0  0  0
 36 37  1  0  0  0  0
 37 38  2  0  0  0  0
 37 29  1  0  0  0  0
 38 39  1  0  0  0  0
 40 41  1  0  0  0  0
 40 38  1  0  0  0  0
 42 40  2  0  0  0  0
 43 42  1  0  0  0  0
 43 36  2  0  0  0  0
M  END
>  <minimizedAffinity>
-7.61815357

>  <minimizedRMSD>
0.203657165

$$$$
