REMARK  Name = 
REMARK  3 active torsions:
REMARK  status: ('A' for Active; 'I' for Inactive)
REMARK    1  A    between atoms: C_1  and  C_13
REMARK    2  A    between atoms: C_3  and  N_7
REMARK    3  A    between atoms: C_12  and  C_30
REMARK                            x       y       z     vdW  Elec       q    Type
REMARK                         _______ _______ _______ _____ _____    ______ ____
ROOT
ATOM      1  N   UNL     1      45.690  32.915  46.410  0.00  0.00    +0.000 N 
ATOM      2  C   UNL     1      45.192  33.176  47.767  0.00  0.00    +0.000 C 
ATOM      3  C   UNL     1      45.969  32.240  48.691  0.00  0.00    +0.000 C 
ATOM      4  C   UNL     1      45.464  30.846  48.422  0.00  0.00    +0.000 C 
ATOM      5  C   UNL     1      45.619  30.561  46.960  0.00  0.00    +0.000 C 
ATOM      6  C   UNL     1      46.238  31.647  46.163  0.00  0.00    +0.000 C 
ATOM      7  H   UNL     1      45.495  34.211  48.014  0.00  0.00    +0.000 HD
ATOM      8  H   UNL     1      44.122  32.975  47.874  0.00  0.00    +0.000 HD
ATOM      9  H   UNL     1      47.057  32.340  48.516  0.00  0.00    +0.000 HD
ATOM     10  H   UNL     1      45.660  32.529  49.713  0.00  0.00    +0.000 HD
ATOM     11  H   UNL     1      46.074  30.140  49.027  0.00  0.00    +0.000 HD
ATOM     12  H   UNL     1      44.414  30.796  48.769  0.00  0.00    +0.000 HD
ATOM     13  H   UNL     1      46.288  29.659  46.834  0.00  0.00    +0.000 HD
ATOM     14  H   UNL     1      44.638  30.212  46.583  0.00  0.00    +0.000 HD
ATOM     15  H   UNL     1      47.317  31.678  46.433  0.00  0.00    +0.000 HD
ENDROOT
BRANCH   6  18
ATOM     16 BR   UNL     1      43.760  32.518  44.303  0.00  0.00    +0.000 Br
ATOM     17  C   UNL     1      45.205  31.386  43.831  0.00  0.00    +0.000 A 
ATOM     18  C   UNL     1      46.174  31.110  44.766  0.00  0.00    +0.000 A 
ATOM     19  C   UNL     1      47.156  30.215  44.297  0.00  0.00    +0.000 A 
ATOM     20  H   UNL     1      47.953  29.956  44.995  0.00  0.00    +0.000 HD
ATOM     21  C   UNL     1      47.196  29.647  43.051  0.00  0.00    +0.000 A 
ATOM     22  H   UNL     1      48.005  28.972  42.806  0.00  0.00    +0.000 HD
ATOM     23  C   UNL     1      46.188  29.980  42.181  0.00  0.00    +0.000 A 
ATOM     24  C   UNL     1      45.189  30.849  42.563  0.00  0.00    +0.000 A 
ENDBRANCH   6  18
BRANCH   1  27
ATOM     25  C   UNL     1      46.239  34.840  43.306  0.00  0.00    +0.000 A 
ATOM     26  C   UNL     1      46.383  33.866  44.292  0.00  0.00    +0.000 A 
ATOM     27  C   UNL     1      45.598  33.914  45.430  0.00  0.00    +0.000 A 
ATOM     28  N   UNL     1      44.710  34.931  45.536  0.00  0.00    +0.000 NA
ATOM     29  C   UNL     1      44.572  35.875  44.583  0.00  0.00    +0.000 A 
ATOM     30  N   UNL     1      45.337  35.830  43.464  0.00  0.00    +0.000 NA
ATOM     31  H   UNL     1      47.146  33.156  44.091  0.00  0.00    +0.000 HD
ATOM     32  H   UNL     1      43.852  36.673  44.704  0.00  0.00    +0.000 HD
BRANCH  25  33
ATOM     33  C   UNL     1      47.080  34.715  42.070  0.00  0.00    +0.000 C 
ATOM     34  F   UNL     1      46.293  34.576  40.929  0.00  0.00    +0.000 F 
ATOM     35  F   UNL     1      47.877  35.838  42.005  0.00  0.00    +0.000 F 
ATOM     36  F   UNL     1      47.910  33.607  42.184  0.00  0.00    +0.000 F 
ENDBRANCH  25  33
ENDBRANCH   1  27
TORSDOF 3
