REMARK  Name = 
REMARK  3 active torsions:
REMARK  status: ('A' for Active; 'I' for Inactive)
REMARK    1  A    between atoms: C_3  and  C_23
REMARK    2  A    between atoms: C_5  and  C_9
REMARK    3  A    between atoms: C_21  and  C_37
REMARK                            x       y       z     vdW  Elec       q    Type
REMARK                         _______ _______ _______ _____ _____    ______ ____
ROOT
ATOM      1 CL   UNL     1      44.785  35.982  43.299  0.00  0.00    +0.000 Cl
ATOM      2  C   UNL     1      45.533  34.740  44.246  0.00  0.00    +0.000 A 
ATOM      3  C   UNL     1      46.629  34.056  43.755  0.00  0.00    +0.000 A 
ATOM      4  C   UNL     1      47.151  33.084  44.589  0.00  0.00    +0.000 A 
ATOM      5  C   UNL     1      46.658  32.771  45.837  0.00  0.00    +0.000 A 
ATOM      6  C   UNL     1      45.572  33.469  46.289  0.00  0.00    +0.000 A 
ATOM      7 CL   UNL     1      44.983  33.034  47.884  0.00  0.00    +0.000 Cl
ATOM      8  C   UNL     1      45.016  34.440  45.508  0.00  0.00    +0.000 A 
ATOM      9  H   UNL     1      48.016  32.552  44.189  0.00  0.00    +0.000 HD
ATOM     10  H   UNL     1      44.157  34.976  45.893  0.00  0.00    +0.000 HD
ENDROOT
BRANCH   5  11
ATOM     11  C   UNL     1      47.353  31.707  46.567  0.00  0.00    +0.000 A 
ATOM     12  C   UNL     1      47.465  30.413  46.092  0.00  0.00    +0.000 A 
ATOM     13  C   UNL     1      48.115  29.397  46.765  0.00  0.00    +0.000 A 
ATOM     14  C   UNL     1      48.694  29.669  47.984  0.00  0.00    +0.000 A 
ATOM     15  N   UNL     1      49.322  28.667  48.623  0.00  0.00    +0.000 NA
ATOM     16  C   UNL     1      49.921  28.842  49.826  0.00  0.00    +0.000 A 
ATOM     17  C   UNL     1      49.851  30.117  50.367  0.00  0.00    +0.000 A 
ATOM     18  C   UNL     1      49.213  31.139  49.722  0.00  0.00    +0.000 A 
ATOM     19  C   UNL     1      48.608  30.938  48.492  0.00  0.00    +0.000 A 
ATOM     20  C   UNL     1      47.954  31.938  47.805  0.00  0.00    +0.000 A 
ATOM     21  H   UNL     1      47.010  30.197  45.134  0.00  0.00    +0.000 HD
ATOM     22  H   UNL     1      48.150  28.416  46.313  0.00  0.00    +0.000 HD
ATOM     23  H   UNL     1      50.410  28.008  50.294  0.00  0.00    +0.000 HD
ATOM     24  H   UNL     1      50.323  30.279  51.329  0.00  0.00    +0.000 HD
ATOM     25  H   UNL     1      49.159  32.133  50.146  0.00  0.00    +0.000 HD
ATOM     26  H   UNL     1      47.906  32.929  48.237  0.00  0.00    +0.000 HD
ENDBRANCH   5  11
BRANCH   3  31
ATOM     27  C   UNL     1      48.774  35.442  41.157  0.00  0.00    +0.000 A 
ATOM     28  C   UNL     1      48.274  34.855  39.986  0.00  0.00    +0.000 A 
ATOM     29  C   UNL     1      47.183  33.969  40.091  0.00  0.00    +0.000 A 
ATOM     30  N   UNL     1      46.715  33.767  41.336  0.00  0.00    +0.000 NA
ATOM     31  C   UNL     1      47.203  34.335  42.446  0.00  0.00    +0.000 A 
ATOM     32  N   UNL     1      48.238  35.178  42.368  0.00  0.00    +0.000 NA
ATOM     33  H   UNL     1      49.616  36.120  41.048  0.00  0.00    +0.000 HD
ATOM     34  H   UNL     1      48.702  35.064  39.018  0.00  0.00    +0.000 HD
BRANCH  29  37
ATOM     35 BR   UNL     1      48.974  31.692  39.090  0.00  0.00    +0.000 Br
ATOM     36  C   UNL     1      47.284  32.262  38.369  0.00  0.00    +0.000 A 
ATOM     37  C   UNL     1      46.593  33.311  38.934  0.00  0.00    +0.000 A 
ATOM     38  C   UNL     1      45.398  33.662  38.371  0.00  0.00    +0.000 A 
ATOM     39  H   UNL     1      44.826  34.477  38.783  0.00  0.00    +0.000 HD
ATOM     40  C   UNL     1      44.949  32.961  37.280  0.00  0.00    +0.000 A 
ATOM     41  H   UNL     1      43.992  33.257  36.843  0.00  0.00    +0.000 HD
ATOM     42  C   UNL     1      45.626  31.908  36.699  0.00  0.00    +0.000 A 
ATOM     43  C   UNL     1      46.847  31.558  37.285  0.00  0.00    +0.000 A 
ENDBRANCH  29  37
ENDBRANCH   3  31
TORSDOF 3
