
 OpenBabel03252500573D

 38 40  0  0  0  0  0  0  0  0999 V2000
   43.6260   34.3920   40.0620 O   0  0  0  0  0  0  0  0  0  0  0  0
   43.2590   34.3560   41.5430 P   0  0  1  0  0  0  0  0  0  0  0  0
   43.1660   32.7430   42.0280 O   0  0  0  0  0  0  0  0  0  0  0  0
   43.0170   32.1270   41.2720 H   0  0  0  0  0  0  0  0  0  0  0  0
   44.4790   35.0990   42.4400 O   0  0  0  0  0  0  0  0  0  0  0  0
   46.6360   34.2180   42.7510 C   0  0  0  0  0  0  0  0  0  0  0  0
   45.3930   34.4720   43.2850 C   0  0  0  0  0  0  0  0  0  0  0  0
   45.1440   34.0900   44.6070 C   0  0  0  0  0  0  0  0  0  0  0  0
   46.1410   33.4920   45.2890 N   0  0  0  0  0  0  0  0  0  0  0  0
   47.3490   33.2530   44.7500 C   0  0  0  0  0  0  0  0  0  0  0  0
   47.5910   33.6140   43.4900 N   0  0  0  0  0  0  0  0  0  0  0  0
   44.1620   34.3080   44.9780 H   0  0  0  0  0  0  0  0  0  0  0  0
   48.0630   32.7670   45.3970 H   0  0  0  0  0  0  0  0  0  0  0  0
   46.9620   34.5910   41.3800 C   0  0  0  0  0  0  0  0  0  0  0  0
   46.2200   35.3300   41.0160 H   0  0  0  0  0  0  0  0  0  0  0  0
   46.9290   33.7460   40.6830 H   0  0  0  0  0  0  0  0  0  0  0  0
   48.3330   35.1910   41.3440 C   0  0  0  0  0  0  0  0  0  0  0  0
   48.2830   36.2450   41.0100 H   0  0  0  0  0  0  0  0  0  0  0  0
   48.8040   35.1880   42.3500 H   0  0  0  0  0  0  0  0  0  0  0  0
   49.0410   34.5970   40.7080 H   0  0  0  0  0  0  0  0  0  0  0  0
   41.7330   35.0630   41.7730 O   0  0  0  0  0  0  0  0  0  0  0  0
   40.6520   34.5190   41.0870 C   0  0  0  0  0  0  0  0  0  0  0  0
   39.9420   35.3740   40.2560 C   0  0  0  0  0  0  0  0  0  0  0  0
   38.8380   34.9250   39.5200 C   0  0  0  0  0  0  0  0  0  0  0  0
   38.4750   33.6160   39.6440 N   0  0  0  0  0  0  0  0  0  0  0  0
   39.1630   32.8090   40.4420 C   0  0  0  0  0  0  0  0  0  0  0  0
   40.2220   33.2500   41.1430 N   0  0  0  0  0  0  0  0  0  0  0  0
   40.2350   36.4220   40.1590 H   0  0  0  0  0  0  0  0  0  0  0  0
   38.3210   35.6140   38.8950 H   0  0  0  0  0  0  0  0  0  0  0  0
   41.0290   30.9540   38.9370 Br  0  0  0  0  0  0  0  0  0  0  0  0
   39.5420   30.3930   39.9850 C   0  0  0  0  0  0  0  0  0  0  0  0
   38.8060   31.4040   40.5990 C   0  0  0  0  0  0  0  0  0  0  0  0
   37.7180   30.9820   41.3660 C   0  0  0  0  0  0  0  0  0  0  0  0
   37.1080   31.7340   41.8690 H   0  0  0  0  0  0  0  0  0  0  0  0
   37.4360   29.6530   41.4740 C   0  0  0  0  0  0  0  0  0  0  0  0
   36.6020   29.2720   42.0560 H   0  0  0  0  0  0  0  0  0  0  0  0
   38.1760   28.6820   40.8590 C   0  0  0  0  0  3  0  0  0  0  0  0
   39.2740   29.0440   40.0820 C   0  0  0  0  0  3  0  0  0  0  0  0
  2  1  2  6  0  0  0
  2 21  1  0  0  0  0
  2  3  1  0  0  0  0
  2  5  1  0  0  0  0
  4  3  1  0  0  0  0
  5  7  1  0  0  0  0
  6  7  2  0  0  0  0
  6 11  1  0  0  0  0
  7  8  1  0  0  0  0
  8 12  1  0  0  0  0
  8  9  2  0  0  0  0
 10  9  1  0  0  0  0
 10 13  1  0  0  0  0
 11 10  2  0  0  0  0
 14  6  1  0  0  0  0
 15 14  1  0  0  0  0
 16 14  1  0  0  0  0
 17 14  1  0  0  0  0
 17 19  1  0  0  0  0
 18 17  1  0  0  0  0
 20 17  1  0  0  0  0
 22 27  1  0  0  0  0
 22 21  1  0  0  0  0
 23 22  2  0  0  0  0
 24 25  2  0  0  0  0
 24 23  1  0  0  0  0
 25 26  1  0  0  0  0
 26 32  1  0  0  0  0
 26 27  2  0  0  0  0
 28 23  1  0  0  0  0
 29 24  1  0  0  0  0
 30 31  1  0  0  0  0
 31 38  2  0  0  0  0
 31 32  1  0  0  0  0
 32 33  2  0  0  0  0
 33 35  1  0  0  0  0
 33 34  1  0  0  0  0
 35 36  1  0  0  0  0
 37 35  2  0  0  0  0
 38 37  1  0  0  0  0
M  END
>  <minimizedAffinity>
-5.41556168

>  <minimizedRMSD>
1.34972358

$$$$
