
     RDKit          3D

 20 21  0  0  0  0  0  0  0  0999 V2000
   44.6407   35.9873   44.3834 C   0  0  0  0  0  0  0  0  0  0  0  0
   45.4315   35.6452   43.2661 C   0  0  0  0  0  0  0  0  0  0  0  0
   46.2235   34.4907   43.3755 C   0  0  0  0  0  0  0  0  0  0  0  0
   46.1837   33.7813   44.5312 N   0  0  0  0  0  0  0  0  0  0  0  0
   45.4054   34.1468   45.5874 C   0  0  0  0  0  0  0  0  0  0  0  0
   44.6391   35.2527   45.4984 N   0  0  0  0  0  0  0  0  0  0  0  0
   44.0257   36.8916   44.2867 H   0  0  0  0  0  0  0  0  0  0  0  0
   45.4472   36.2232   42.3589 H   0  0  0  0  0  0  0  0  0  0  0  0
   46.8578   34.1600   42.5643 H   0  0  0  0  0  0  0  0  0  0  0  0
   46.6508   31.3808   45.1720 Br  0  0  0  0  0  0  0  0  0  0  0  0
   45.9138   32.0880   46.7932 C   0  0  0  0  0  0  0  0  0  0  0  0
   45.3883   33.3592   46.8145 C   0  0  0  0  0  0  0  0  0  0  0  0
   44.8462   33.8927   47.9878 C   0  0  0  0  0  0  0  0  0  0  0  0
   44.4589   34.8939   47.9083 H   0  0  0  0  0  0  0  0  0  0  0  0
   44.8545   33.1120   49.1126 C   0  0  0  0  0  0  0  0  0  0  0  0
   44.4274   33.5397   50.0259 H   0  0  0  0  0  0  0  0  0  0  0  0
   45.3907   31.8445   49.0468 C   0  0  0  0  0  0  0  0  0  0  0  0
   45.9233   31.3018   47.9221 C   0  0  0  0  0  0  0  0  0  0  0  0
   45.3840   31.2458   49.9571 H   0  0  0  0  0  0  0  0  0  0  0  0
   46.3321   30.2850   47.9468 H   0  0  0  0  0  0  0  0  0  0  0  0
  1  6  2  0
  2  3  2  0
  2  1  1  0
  3  4  1  0
  4  5  2  0
  6  5  1  0
  1  7  1  0
  2  8  1  0
  3  9  1  0
 10 11  1  0
 11 12  2  0
 12 13  1  0
 13 14  1  0
 13 15  2  0
 15 16  1  0
 15 17  1  0
 17 18  2  0
 18 11  1  0
 17 19  1  0
 18 20  1  0
  5 12  1  0
M  ISO  5   7  14   8  14   9  14  14  15  16  16
M  END
>  <DihAtoms>  (1) 
3,4,11,10

>  <DihDeg>  (1) 
-0.0005142562154211319

$$$$
