
 OpenBabel03242510093D

 28 30  0  0  0  0  0  0  0  0999 V2000
   44.8080   32.9730   41.1750 Br  0  0  0  0  0  0  0  0  0  0  0  0
   46.4520   33.9450   40.9330 C   0  0  0  0  0  0  0  0  0  0  0  0
   46.9250   34.7710   41.9340 C   0  0  0  0  0  0  0  0  0  0  0  0
   48.1140   35.4760   41.7620 C   0  0  0  0  0  0  0  0  0  0  0  0
   48.7940   35.3300   40.5910 C   0  0  0  0  0  0  0  0  0  0  0  0
   48.2840   34.4920   39.6140 C   0  0  0  0  0  0  0  0  0  0  0  0
   47.1280   33.7870   39.7430 C   0  0  0  0  0  0  0  0  0  0  0  0
   48.4220   36.1070   42.5960 H   0  0  0  0  0  0  0  0  0  0  0  0
   49.7200   35.8820   40.4640 H   0  0  0  0  0  0  0  0  0  0  0  0
   48.8540   34.4020   38.6980 H   0  0  0  0  0  0  0  0  0  0  0  0
   45.6390   34.0470   45.2740 C   0  0  0  0  0  0  0  0  0  0  0  0
   44.7080   35.0720   45.5020 C   0  0  0  0  0  0  0  0  0  0  0  0
   44.5360   36.0180   44.4730 C   0  0  0  0  0  0  0  0  0  0  0  0
   45.2670   35.8860   43.3450 N   0  0  0  0  0  0  0  0  0  0  0  0
   46.1570   34.8850   43.1580 C   0  0  0  0  0  0  0  0  0  0  0  0
   46.3330   33.9670   44.1380 N   0  0  0  0  0  0  0  0  0  0  0  0
   45.8160   33.2820   46.0370 H   0  0  0  0  0  0  0  0  0  0  0  0
   44.1500   35.1330   46.4230 H   0  0  0  0  0  0  0  0  0  0  0  0
   43.8220   36.8270   44.6170 H   0  0  0  0  0  0  0  0  0  0  0  0
   47.9700   30.7810   40.0070 Br  0  0  0  0  0  0  0  0  0  0  0  0
   46.8370   31.5340   38.6590 C   0  0  0  0  0  0  0  0  0  0  0  0
   46.5850   32.9000   38.7190 C   0  0  0  0  0  0  0  0  0  0  0  0
   45.7700   33.4660   37.7570 C   0  0  0  0  0  0  0  0  0  0  0  0
   45.5250   34.5330   37.7360 H   0  0  0  0  0  0  0  0  0  0  0  0
   45.2230   32.6870   36.7580 C   0  0  0  0  0  0  0  0  0  0  0  0
   44.5770   33.1320   35.9930 H   0  0  0  0  0  0  0  0  0  0  0  0
   45.4920   31.3340   36.7230 C   0  0  0  0  0  3  0  0  0  0  0  0
   46.3090   30.7240   37.6770 C   0  0  0  0  0  3  0  0  0  0  0  0
  2  1  1  0  0  0  0
  2  3  1  0  0  0  0
  3 15  1  0  0  0  0
  4  3  2  0  0  0  0
  4  8  1  0  0  0  0
  5  4  1  0  0  0  0
  6  7  1  0  0  0  0
  6  5  2  0  0  0  0
  7  2  2  0  0  0  0
  9  5  1  0  0  0  0
 10  6  1  0  0  0  0
 11 12  1  0  0  0  0
 11 17  1  0  0  0  0
 12 18  1  0  0  0  0
 13 19  1  0  0  0  0
 13 12  2  0  0  0  0
 14 13  1  0  0  0  0
 15 14  2  0  0  0  0
 15 16  1  0  0  0  0
 16 11  2  0  0  0  0
 21 22  1  0  0  0  0
 21 20  1  0  0  0  0
 22  7  1  0  0  0  0
 23 22  2  0  0  0  0
 24 23  1  0  0  0  0
 25 23  1  0  0  0  0
 26 25  1  0  0  0  0
 27 25  2  0  0  0  0
 27 28  1  0  0  0  0
 28 21  2  0  0  0  0
M  END
>  <minimizedAffinity>
-5.39330864

>  <minimizedRMSD>
0.347371906

$$$$
