REMARK  Name = 
REMARK  2 active torsions:
REMARK  status: ('A' for Active; 'I' for Inactive)
REMARK    1  A    between atoms: C_3  and  C_9
REMARK    2  A    between atoms: C_13  and  C_22
REMARK                            x       y       z     vdW  Elec       q    Type
REMARK                         _______ _______ _______ _____ _____    ______ ____
ROOT
ATOM      1 BR   UNL     1      44.540  33.090  41.301  0.00  0.00    +0.000 Br
ATOM      2  C   UNL     1      46.226  33.988  41.099  0.00  0.00    +0.000 A 
ATOM      3  C   UNL     1      46.792  34.738  42.102  0.00  0.00    +0.000 A 
ATOM      4  C   UNL     1      48.011  35.344  41.853  0.00  0.00    +0.000 A 
ATOM      5  C   UNL     1      48.668  35.225  40.653  0.00  0.00    +0.000 A 
ATOM      6  C   UNL     1      48.105  34.472  39.639  0.00  0.00    +0.000 A 
ATOM      7  C   UNL     1      46.884  33.869  39.899  0.00  0.00    +0.000 A 
ATOM      8  H   UNL     1      48.435  35.932  42.667  0.00  0.00    +0.000 HD
ATOM      9  H   UNL     1      49.606  35.691  40.461  0.00  0.00    +0.000 HD
ATOM     10  H   UNL     1      48.555  34.329  38.673  0.00  0.00    +0.000 HD
ENDROOT
BRANCH   3  13
ATOM     11  C   UNL     1      44.459  35.965  44.832  0.00  0.00    +0.000 A 
ATOM     12  C   UNL     1      45.159  35.863  43.634  0.00  0.00    +0.000 A 
ATOM     13  C   UNL     1      46.055  34.840  43.371  0.00  0.00    +0.000 A 
ATOM     14  N   UNL     1      46.213  33.925  44.367  0.00  0.00    +0.000 NA
ATOM     15  C   UNL     1      45.534  34.024  45.530  0.00  0.00    +0.000 A 
ATOM     16  N   UNL     1      44.678  35.016  45.761  0.00  0.00    +0.000 NA
ATOM     17  H   UNL     1      43.793  36.806  44.912  0.00  0.00    +0.000 HD
ATOM     18  H   UNL     1      45.011  36.614  42.850  0.00  0.00    +0.000 HD
ATOM     19  H   UNL     1      45.735  33.240  46.258  0.00  0.00    +0.000 HD
ENDBRANCH   3  13
BRANCH   7  22
ATOM     20 BR   UNL     1      49.119  32.684  38.204  0.00  0.00    +0.000 Br
ATOM     21  C   UNL     1      47.215  32.481  37.995  0.00  0.00    +0.000 A 
ATOM     22  C   UNL     1      46.276  33.064  38.823  0.00  0.00    +0.000 A 
ATOM     23  C   UNL     1      44.936  32.866  38.600  0.00  0.00    +0.000 A 
ATOM     24  H   UNL     1      44.283  33.365  39.304  0.00  0.00    +0.000 HD
ATOM     25  C   UNL     1      44.543  32.078  37.540  0.00  0.00    +0.000 A 
ATOM     26  H   UNL     1      43.460  31.948  37.401  0.00  0.00    +0.000 HD
ATOM     27  C   UNL     1      45.475  31.494  36.710  0.00  0.00    +0.000 A 
ATOM     28  C   UNL     1      46.842  31.682  36.918  0.00  0.00    +0.000 A 
ENDBRANCH   7  22
TORSDOF 2
