
 OpenBabel03242521403D

 21 22  0  0  0  0  0  0  0  0999 V2000
   45.1430   35.3940   43.9160 C   0  0  0  0  0  0  0  0  0  0  0  0
   45.9470   34.2640   43.7990 C   0  0  0  0  0  0  0  0  0  0  0  0
   46.0940   33.4220   44.9050 C   0  0  0  0  0  0  0  0  0  0  0  0
   45.4360   33.7680   46.0310 N   0  0  0  0  0  0  0  0  0  0  0  0
   44.6630   34.8730   46.1150 C   0  0  0  0  0  0  0  0  0  0  0  0
   44.5170   35.6880   45.0530 N   0  0  0  0  0  0  0  0  0  0  0  0
   46.4280   34.0640   42.8780 H   0  0  0  0  0  0  0  0  0  0  0  0
   44.1690   35.0810   47.0570 H   0  0  0  0  0  0  0  0  0  0  0  0
   46.0150   31.9100   47.5330 Br  0  0  0  0  0  0  0  0  0  0  0  0
   46.9920   31.4240   45.9630 C   0  0  0  0  0  0  0  0  0  0  0  0
   46.9230   32.2230   44.8410 C   0  0  0  0  0  0  0  0  0  0  0  0
   47.6470   31.8150   43.7550 C   0  0  0  0  0  0  0  0  0  0  0  0
   47.6150   32.4150   42.8650 H   0  0  0  0  0  0  0  0  0  0  0  0
   48.4080   30.6620   43.7810 C   0  0  0  0  0  0  0  0  0  0  0  0
   48.9660   30.3870   42.8820 H   0  0  0  0  0  0  0  0  0  0  0  0
   48.4490   29.8900   44.9260 C   0  0  0  0  0  3  0  0  0  0  0  0
   47.7340   30.2620   46.0510 C   0  0  0  0  0  3  0  0  0  0  0  0
   45.0120   36.2680   42.7120 C   0  0  0  0  0  0  0  0  0  0  0  0
   44.0820   36.8670   42.7340 H   0  0  0  0  0  0  0  0  0  0  0  0
   45.0700   35.6460   41.8020 H   0  0  0  0  0  0  0  0  0  0  0  0
   45.9120   36.9190   42.7220 H   0  0  0  0  0  0  0  0  0  0  0  0
  1  6  1  0  0  0  0
  2  1  2  0  0  0  0
  2  3  1  0  0  0  0
  3  4  2  0  0  0  0
  4  5  1  0  0  0  0
  5  8  1  0  0  0  0
  6  5  2  0  0  0  0
  7  2  1  0  0  0  0
 10 17  1  0  0  0  0
 10  9  1  0  0  0  0
 11  3  1  0  0  0  0
 11 10  2  0  0  0  0
 12 14  2  0  0  0  0
 12 11  1  0  0  0  0
 13 12  1  0  0  0  0
 14 16  1  0  0  0  0
 15 14  1  0  0  0  0
 16 17  2  0  0  0  0
 18 21  1  0  0  0  0
 18 19  1  0  0  0  0
 18  1  1  0  0  0  0
 20 18  1  0  0  0  0
M  END
>  <minimizedAffinity>
-4.01740742

>  <minimizedRMSD>
1.68818951

$$$$
