REMARK  Name = 
REMARK  2 active torsions:
REMARK  status: ('A' for Active; 'I' for Inactive)
REMARK    1  A    between atoms: C_1  and  C_7
REMARK    2  A    between atoms: C_3  and  C_15
REMARK                            x       y       z     vdW  Elec       q    Type
REMARK                         _______ _______ _______ _____ _____    ______ ____
ROOT
ATOM      1  C   UNL     1      45.437  35.066  43.999  0.00  0.00    +0.000 A 
ATOM      2  C   UNL     1      46.492  34.295  43.520  0.00  0.00    +0.000 A 
ATOM      3  C   UNL     1      47.018  33.289  44.335  0.00  0.00    +0.000 A 
ATOM      4  N   UNL     1      46.458  33.130  45.552  0.00  0.00    +0.000 NA
ATOM      5  C   UNL     1      45.434  33.895  45.990  0.00  0.00    +0.000 A 
ATOM      6  N   UNL     1      44.923  34.866  45.210  0.00  0.00    +0.000 NA
ATOM      7  H   UNL     1      46.873  34.485  42.551  0.00  0.00    +0.000 HD
ATOM      8  H   UNL     1      45.041  33.703  46.982  0.00  0.00    +0.000 HD
ENDROOT
BRANCH   3  11
ATOM      9 BR   UNL     1      48.712  32.382  46.682  0.00  0.00    +0.000 Br
ATOM     10  C   UNL     1      48.990  31.954  44.839  0.00  0.00    +0.000 A 
ATOM     11  C   UNL     1      48.123  32.449  43.886  0.00  0.00    +0.000 A 
ATOM     12  C   UNL     1      48.382  32.103  42.588  0.00  0.00    +0.000 A 
ATOM     13  H   UNL     1      47.726  32.472  41.820  0.00  0.00    +0.000 HD
ATOM     14  C   UNL     1      49.455  31.300  42.250  0.00  0.00    +0.000 A 
ATOM     15  H   UNL     1      49.611  31.058  41.196  0.00  0.00    +0.000 HD
ATOM     16  C   UNL     1      50.297  30.827  43.236  0.00  0.00    +0.000 A 
ATOM     17  C   UNL     1      50.077  31.150  44.564  0.00  0.00    +0.000 A 
ENDBRANCH   3  11
BRANCH   1  18
ATOM     18  C   UNL     1      44.903  36.131  43.098  0.00  0.00    +0.000 C 
ATOM     19  H   UNL     1      43.859  36.398  43.346  0.00  0.00    +0.000 HD
ATOM     20  H   UNL     1      44.998  35.802  42.049  0.00  0.00    +0.000 HD
ATOM     21  H   UNL     1      45.585  36.998  43.233  0.00  0.00    +0.000 HD
ENDBRANCH   1  18
TORSDOF 2
