REMARK  Name = 
REMARK  2 active torsions:
REMARK  status: ('A' for Active; 'I' for Inactive)
REMARK    1  A    between atoms: C_3  and  C_9
REMARK    2  A    between atoms: C_13  and  C_22
REMARK                            x       y       z     vdW  Elec       q    Type
REMARK                         _______ _______ _______ _____ _____    ______ ____
ROOT
ATOM      1  F   UNL     1      45.100  33.343  41.178  0.00  0.00    +0.000 F 
ATOM      2  C   UNL     1      46.296  33.995  41.028  0.00  0.00    +0.000 A 
ATOM      3  C   UNL     1      46.830  34.758  42.031  0.00  0.00    +0.000 A 
ATOM      4  C   UNL     1      48.032  35.370  41.779  0.00  0.00    +0.000 A 
ATOM      5  C   UNL     1      48.707  35.252  40.593  0.00  0.00    +0.000 A 
ATOM      6  C   UNL     1      48.131  34.475  39.617  0.00  0.00    +0.000 A 
ATOM      7  C   UNL     1      46.928  33.839  39.814  0.00  0.00    +0.000 A 
ATOM      8  H   UNL     1      48.444  35.975  42.589  0.00  0.00    +0.000 HD
ATOM      9  H   UNL     1      49.652  35.752  40.439  0.00  0.00    +0.000 HD
ATOM     10  H   UNL     1      48.643  34.364  38.667  0.00  0.00    +0.000 HD
ENDROOT
BRANCH   3  13
ATOM     11  C   UNL     1      44.486  35.959  44.756  0.00  0.00    +0.000 A 
ATOM     12  C   UNL     1      45.182  35.894  43.537  0.00  0.00    +0.000 A 
ATOM     13  C   UNL     1      46.084  34.864  43.286  0.00  0.00    +0.000 A 
ATOM     14  N   UNL     1      46.238  33.947  44.282  0.00  0.00    +0.000 NA
ATOM     15  C   UNL     1      45.564  34.025  45.438  0.00  0.00    +0.000 A 
ATOM     16  N   UNL     1      44.703  35.010  45.677  0.00  0.00    +0.000 NA
ATOM     17  H   UNL     1      43.803  36.770  44.903  0.00  0.00    +0.000 HD
ATOM     18  H   UNL     1      45.073  36.613  42.734  0.00  0.00    +0.000 HD
ATOM     19  H   UNL     1      45.835  33.198  46.090  0.00  0.00    +0.000 HD
ENDBRANCH   3  13
BRANCH   7  22
ATOM     20 BR   UNL     1      48.518  33.602  37.111  0.00  0.00    +0.000 Br
ATOM     21  C   UNL     1      46.845  32.772  37.508  0.00  0.00    +0.000 A 
ATOM     22  C   UNL     1      46.319  33.009  38.761  0.00  0.00    +0.000 A 
ATOM     23  C   UNL     1      45.117  32.467  39.171  0.00  0.00    +0.000 A 
ATOM     24  H   UNL     1      44.648  32.609  40.133  0.00  0.00    +0.000 HD
ATOM     25  C   UNL     1      44.398  31.653  38.305  0.00  0.00    +0.000 A 
ATOM     26  H   UNL     1      43.445  31.205  38.589  0.00  0.00    +0.000 HD
ATOM     27  C   UNL     1      44.934  31.424  37.055  0.00  0.00    +0.000 A 
ATOM     28  C   UNL     1      46.135  31.960  36.636  0.00  0.00    +0.000 A 
ENDBRANCH   7  22
TORSDOF 2
