
 OpenBabel03242510093D

 28 30  0  0  0  0  0  0  0  0999 V2000
   44.8000   32.9470   41.1890 Br  0  0  0  0  0  0  0  0  0  0  0  0
   46.4410   33.9210   40.9340 C   0  0  0  0  0  0  0  0  0  0  0  0
   46.9150   34.7560   41.9270 C   0  0  0  0  0  0  0  0  0  0  0  0
   48.1020   35.4620   41.7460 C   0  0  0  0  0  0  0  0  0  0  0  0
   48.7770   35.3090   40.5730 C   0  0  0  0  0  0  0  0  0  0  0  0
   48.2670   34.4620   39.6050 C   0  0  0  0  0  0  0  0  0  0  0  0
   47.1130   33.7550   39.7430 C   0  0  0  0  0  0  0  0  0  0  0  0
   48.4110   36.1000   42.5730 H   0  0  0  0  0  0  0  0  0  0  0  0
   49.7020   35.8630   40.4390 H   0  0  0  0  0  0  0  0  0  0  0  0
   48.8340   34.3670   38.6870 H   0  0  0  0  0  0  0  0  0  0  0  0
   45.6370   34.0510   45.2740 C   0  0  0  0  0  0  0  0  0  0  0  0
   44.7090   35.0790   45.5000 C   0  0  0  0  0  0  0  0  0  0  0  0
   44.5360   36.0200   44.4670 C   0  0  0  0  0  0  0  0  0  0  0  0
   45.2630   35.8810   43.3380 N   0  0  0  0  0  0  0  0  0  0  0  0
   46.1500   34.8770   43.1520 C   0  0  0  0  0  0  0  0  0  0  0  0
   46.3280   33.9640   44.1370 N   0  0  0  0  0  0  0  0  0  0  0  0
   45.8160   33.2900   46.0410 H   0  0  0  0  0  0  0  0  0  0  0  0
   44.1540   35.1450   46.4220 H   0  0  0  0  0  0  0  0  0  0  0  0
   43.8240   36.8310   44.6090 H   0  0  0  0  0  0  0  0  0  0  0  0
   47.9570   30.7530   40.0310 Br  0  0  0  0  0  0  0  0  0  0  0  0
   46.8220   31.4930   38.6780 C   0  0  0  0  0  0  0  0  0  0  0  0
   46.5680   32.8600   38.7270 C   0  0  0  0  0  0  0  0  0  0  0  0
   45.7510   33.4170   37.7620 C   0  0  0  0  0  0  0  0  0  0  0  0
   45.5050   34.4840   37.7330 H   0  0  0  0  0  0  0  0  0  0  0  0
   45.2020   32.6290   36.7710 C   0  0  0  0  0  0  0  0  0  0  0  0
   44.5540   33.0670   36.0040 H   0  0  0  0  0  0  0  0  0  0  0  0
   45.4720   31.2760   36.7470 C   0  0  0  0  0  3  0  0  0  0  0  0
   46.2910   30.6750   37.7050 C   0  0  0  0  0  3  0  0  0  0  0  0
  2  1  1  0  0  0  0
  2  3  1  0  0  0  0
  3 15  1  0  0  0  0
  4  3  2  0  0  0  0
  4  8  1  0  0  0  0
  5  4  1  0  0  0  0
  6  7  1  0  0  0  0
  6  5  2  0  0  0  0
  7  2  2  0  0  0  0
  9  5  1  0  0  0  0
 10  6  1  0  0  0  0
 11 12  1  0  0  0  0
 11 17  1  0  0  0  0
 12 18  1  0  0  0  0
 13 19  1  0  0  0  0
 13 12  2  0  0  0  0
 14 13  1  0  0  0  0
 15 14  2  0  0  0  0
 15 16  1  0  0  0  0
 16 11  2  0  0  0  0
 21 22  1  0  0  0  0
 21 20  1  0  0  0  0
 22  7  1  0  0  0  0
 23 22  2  0  0  0  0
 24 23  1  0  0  0  0
 25 23  1  0  0  0  0
 26 25  1  0  0  0  0
 27 25  2  0  0  0  0
 27 28  1  0  0  0  0
 28 21  2  0  0  0  0
M  END
>  <minimizedAffinity>
-5.39728975

>  <minimizedRMSD>
0.356304407

$$$$
