
 OpenBabel03242515023D

 37 39  0  0  0  0  0  0  0  0999 V2000
   41.3910   32.6000   40.8990 C   0  0  0  0  0  0  0  0  0  0  0  0
   41.8830   33.8980   40.7470 C   0  0  0  0  0  0  0  0  0  0  0  0
   41.0240   34.8710   40.2580 C   0  0  0  0  0  0  0  0  0  0  0  0
   39.7610   34.5110   39.9560 N   0  0  0  0  0  0  0  0  0  0  0  0
   39.2940   33.2650   40.1040 C   0  0  0  0  0  0  0  0  0  0  0  0
   40.1210   32.3220   40.5760 N   0  0  0  0  0  0  0  0  0  0  0  0
   42.8980   34.1830   40.9900 H   0  0  0  0  0  0  0  0  0  0  0  0
   41.3430   35.9020   40.1150 H   0  0  0  0  0  0  0  0  0  0  0  0
   37.9020   32.9550   39.7640 C   0  0  0  0  0  0  0  0  0  0  0  0
   37.1320   33.9610   39.5740 O   0  0  0  0  0  0  0  0  0  0  0  0
   37.8340   31.5150   36.8630 Br  0  0  0  0  0  0  0  0  0  0  0  0
   36.9620   30.9940   38.4480 C   0  0  0  0  0  0  0  0  0  0  0  0
   37.1500   31.7460   39.5780 C   0  0  0  0  0  0  0  0  0  0  0  0
   36.4510   31.2230   40.6780 C   0  0  0  0  0  0  0  0  0  0  0  0
   36.5400   31.7580   41.6340 H   0  0  0  0  0  0  0  0  0  0  0  0
   35.6560   30.0990   40.7030 C   0  0  0  0  0  0  0  0  0  0  0  0
   35.1700   29.7940   41.6080 H   0  0  0  0  0  0  0  0  0  0  0  0
   35.5470   29.4300   39.5050 C   0  0  0  0  0  3  0  0  0  0  0  0
   36.1910   29.8610   38.3710 C   0  0  0  0  0  3  0  0  0  0  0  0
   42.5480   31.3710   41.5380 S   0  0  0  0  0  0  0  0  0  0  0  0
   41.9700   29.6950   41.3090 C   0  0  0  0  0  0  0  0  0  0  0  0
   42.5410   29.1560   40.5110 H   0  0  0  0  0  0  0  0  0  0  0  0
   40.9130   29.7340   40.9240 H   0  0  0  0  0  0  0  0  0  0  0  0
   41.9280   28.8970   42.5740 C   0  0  0  0  0  0  0  0  0  0  0  0
   42.4360   29.4060   43.4160 H   0  0  0  0  0  0  0  0  0  0  0  0
   42.5000   27.9480   42.4000 H   0  0  0  0  0  0  0  0  0  0  0  0
   41.5050   26.0980   43.7210 Cl  0  0  0  0  0  0  0  0  0  0  0  0
   40.2350   27.2550   43.4610 C   0  0  0  0  0  0  0  0  0  0  0  0
   40.5440   28.5210   42.9250 C   0  0  0  0  0  0  0  0  0  0  0  0
   39.4830   29.3620   42.7560 C   0  0  0  0  0  0  0  0  0  0  0  0
   38.1500   29.1050   43.0540 C   0  0  0  0  0  0  0  0  0  0  0  0
   37.8720   27.8650   43.5760 C   0  0  0  0  0  0  0  0  0  0  0  0
   36.2270   27.4300   43.9920 Cl  0  0  0  0  0  0  0  0  0  0  0  0
   38.9000   26.9730   43.7690 C   0  0  0  0  0  0  0  0  0  0  0  0
   39.6910   30.3580   42.3400 H   0  0  0  0  0  0  0  0  0  0  0  0
   37.3910   29.8550   42.8760 H   0  0  0  0  0  0  0  0  0  0  0  0
   38.7340   25.9660   44.1840 H   0  0  0  0  0  0  0  0  0  0  0  0
  1 20  1  0  0  0  0
  2  1  1  0  0  0  0
  2  7  1  0  0  0  0
  3  2  2  0  0  0  0
  4  5  2  0  0  0  0
  4  3  1  0  0  0  0
  5  6  1  0  0  0  0
  6  1  2  0  0  0  0
  8  3  1  0  0  0  0
  9  5  1  0  0  0  0
 10  9  2  0  0  0  0
 11 12  1  0  0  0  0
 12 13  1  0  0  0  0
 13  9  1  0  0  0  0
 13 14  2  0  0  0  0
 14 16  1  0  0  0  0
 14 15  1  0  0  0  0
 16 17  1  0  0  0  0
 18 16  2  0  0  0  0
 19 12  2  0  0  0  0
 19 18  1  0  0  0  0
 21 20  1  0  0  0  0
 21 24  1  0  0  0  0
 22 21  1  0  0  0  0
 23 21  1  0  0  0  0
 24 29  1  0  0  0  0
 24 25  1  0  0  0  0
 26 24  1  0  0  0  0
 28 27  1  0  0  0  0
 28 34  1  0  0  0  0
 29 28  2  0  0  0  0
 30 29  1  0  0  0  0
 30 31  2  0  0  0  0
 31 32  1  0  0  0  0
 32 34  2  0  0  0  0
 32 33  1  0  0  0  0
 34 37  1  0  0  0  0
 35 30  1  0  0  0  0
 36 31  1  0  0  0  0
M  END
>  <minimizedAffinity>
-6.28774023

$$$$

 OpenBabel03242515023D

 37 39  0  0  0  0  0  0  0  0999 V2000
   35.0650   28.8140   38.6580 C   0  0  0  0  0  0  0  0  0  0  0  0
   36.1320   28.4310   37.8420 C   0  0  0  0  0  0  0  0  0  0  0  0
   35.8930   28.2720   36.4850 C   0  0  0  0  0  0  0  0  0  0  0  0
   34.6460   28.4960   36.0270 N   0  0  0  0  0  0  0  0  0  0  0  0
   33.6270   28.8630   36.8140 C   0  0  0  0  0  0  0  0  0  0  0  0
   33.8530   29.0180   38.1260 N   0  0  0  0  0  0  0  0  0  0  0  0
   37.1320   28.2520   38.2120 H   0  0  0  0  0  0  0  0  0  0  0  0
   36.6800   27.9760   35.7930 H   0  0  0  0  0  0  0  0  0  0  0  0
   32.2990   29.1000   36.2380 C   0  0  0  0  0  0  0  0  0  0  0  0
   31.6490   28.0560   35.8770 O   0  0  0  0  0  0  0  0  0  0  0  0
   30.2370   30.2120   38.4740 Br  0  0  0  0  0  0  0  0  0  0  0  0
   30.5630   30.8850   36.7470 C   0  0  0  0  0  0  0  0  0  0  0  0
   31.5050   30.2650   35.9680 C   0  0  0  0  0  0  0  0  0  0  0  0
   31.6470   30.8910   34.7190 C   0  0  0  0  0  0  0  0  0  0  0  0
   32.3820   30.4650   34.0220 H   0  0  0  0  0  0  0  0  0  0  0  0
   30.9650   31.9930   34.2560 C   0  0  0  0  0  0  0  0  0  0  0  0
   31.1600   32.3850   33.2780 H   0  0  0  0  0  0  0  0  0  0  0  0
   30.0450   32.5250   35.1320 C   0  0  0  0  0  3  0  0  0  0  0  0
   29.8310   31.9860   36.3770 C   0  0  0  0  0  3  0  0  0  0  0  0
   35.4270   29.0060   40.4160 S   0  0  0  0  0  0  0  0  0  0  0  0
   37.1090   29.5270   40.7200 C   0  0  0  0  0  0  0  0  0  0  0  0
   37.4080   30.3910   40.0750 H   0  0  0  0  0  0  0  0  0  0  0  0
   37.8000   28.6920   40.4140 H   0  0  0  0  0  0  0  0  0  0  0  0
   37.4000   29.8050   42.1620 C   0  0  0  0  0  0  0  0  0  0  0  0
   36.4910   29.7700   42.7930 H   0  0  0  0  0  0  0  0  0  0  0  0
   37.7860   30.8550   42.2380 H   0  0  0  0  0  0  0  0  0  0  0  0
   36.4750   27.3170   43.6730 Cl  0  0  0  0  0  0  0  0  0  0  0  0
   38.1390   27.7320   43.3910 C   0  0  0  0  0  0  0  0  0  0  0  0
   38.4530   28.9080   42.6790 C   0  0  0  0  0  0  0  0  0  0  0  0
   39.7840   29.1520   42.5070 C   0  0  0  0  0  0  0  0  0  0  0  0
   40.8460   28.3740   42.9520 C   0  0  0  0  0  0  0  0  0  0  0  0
   40.5170   27.2330   43.6420 C   0  0  0  0  0  0  0  0  0  0  0  0
   41.7730   26.1730   44.2500 Cl  0  0  0  0  0  0  0  0  0  0  0  0
   39.1910   26.9340   43.8480 C   0  0  0  0  0  0  0  0  0  0  0  0
   40.0620   30.0610   41.9550 H   0  0  0  0  0  0  0  0  0  0  0  0
   41.8680   28.6710   42.7540 H   0  0  0  0  0  0  0  0  0  0  0  0
   38.8710   26.0330   44.3950 H   0  0  0  0  0  0  0  0  0  0  0  0
  1 20  1  0  0  0  0
  2  7  1  0  0  0  0
  2  1  2  0  0  0  0
  3  2  1  0  0  0  0
  4  3  2  0  0  0  0
  4  5  1  0  0  0  0
  5  6  2  0  0  0  0
  6  1  1  0  0  0  0
  8  3  1  0  0  0  0
  9  5  1  0  0  0  0
 10  9  2  0  0  0  0
 12 11  1  0  0  0  0
 13  9  1  0  0  0  0
 13 12  2  0  0  0  0
 14 13  1  0  0  0  0
 15 14  1  0  0  0  0
 16 14  2  0  0  0  0
 16 18  1  0  0  0  0
 17 16  1  0  0  0  0
 18 19  2  0  0  0  0
 19 12  1  0  0  0  0
 20 21  1  0  0  0  0
 21 24  1  0  0  0  0
 22 21  1  0  0  0  0
 23 21  1  0  0  0  0
 24 26  1  0  0  0  0
 24 29  1  0  0  0  0
 24 25  1  0  0  0  0
 28 27  1  0  0  0  0
 28 34  1  0  0  0  0
 29 28  2  0  0  0  0
 30 29  1  0  0  0  0
 30 31  2  0  0  0  0
 31 32  1  0  0  0  0
 32 34  2  0  0  0  0
 32 33  1  0  0  0  0
 34 37  1  0  0  0  0
 35 30  1  0  0  0  0
 36 31  1  0  0  0  0
M  END
>  <minimizedAffinity>
-6.11798763

$$$$

 OpenBabel03242515023D

 37 39  0  0  0  0  0  0  0  0999 V2000
   38.7800   31.1730   41.1880 C   0  0  0  0  0  0  0  0  0  0  0  0
   37.4900   31.4810   40.7500 C   0  0  0  0  0  0  0  0  0  0  0  0
   37.2900   32.6900   40.1010 C   0  0  0  0  0  0  0  0  0  0  0  0
   38.3510   33.5020   39.9280 N   0  0  0  0  0  0  0  0  0  0  0  0
   39.5860   33.2030   40.3490 C   0  0  0  0  0  0  0  0  0  0  0  0
   39.7830   32.0350   40.9770 N   0  0  0  0  0  0  0  0  0  0  0  0
   36.6410   30.8260   40.8900 H   0  0  0  0  0  0  0  0  0  0  0  0
   36.3100   32.9920   39.7340 H   0  0  0  0  0  0  0  0  0  0  0  0
   40.6920   34.1360   40.1120 C   0  0  0  0  0  0  0  0  0  0  0  0
   40.4930   35.3480   40.4780 O   0  0  0  0  0  0  0  0  0  0  0  0
   43.2370   33.5710   42.0360 Br  0  0  0  0  0  0  0  0  0  0  0  0
   43.2130   33.8180   40.1700 C   0  0  0  0  0  0  0  0  0  0  0  0
   42.0080   34.0240   39.5500 C   0  0  0  0  0  0  0  0  0  0  0  0
   42.1520   34.1720   38.1610 C   0  0  0  0  0  0  0  0  0  0  0  0
   41.2380   34.3420   37.5740 H   0  0  0  0  0  0  0  0  0  0  0  0
   43.3200   34.1290   37.4340 C   0  0  0  0  0  0  0  0  0  0  0  0
   43.3060   34.2550   36.3700 H   0  0  0  0  0  0  0  0  0  0  0  0
   44.4630   33.9150   38.1710 C   0  0  0  0  0  3  0  0  0  0  0  0
   44.4290   33.7580   39.5360 C   0  0  0  0  0  3  0  0  0  0  0  0
   38.9870   29.5890   42.0270 S   0  0  0  0  0  0  0  0  0  0  0  0
   37.4850   29.0230   42.8120 C   0  0  0  0  0  0  0  0  0  0  0  0
   36.6750   28.8070   42.0700 H   0  0  0  0  0  0  0  0  0  0  0  0
   37.0760   29.8620   43.4420 H   0  0  0  0  0  0  0  0  0  0  0  0
   37.6900   27.8650   43.7370 C   0  0  0  0  0  0  0  0  0  0  0  0
   36.8770   27.7670   44.4830 H   0  0  0  0  0  0  0  0  0  0  0  0
   38.6250   28.0570   44.3260 H   0  0  0  0  0  0  0  0  0  0  0  0
   40.4210   26.5220   43.9950 Cl  0  0  0  0  0  0  0  0  0  0  0  0
   39.1110   25.9050   43.0340 C   0  0  0  0  0  0  0  0  0  0  0  0
   37.8900   26.6080   42.9880 C   0  0  0  0  0  0  0  0  0  0  0  0
   36.9190   26.0490   42.2080 C   0  0  0  0  0  0  0  0  0  0  0  0
   37.0080   24.8760   41.4680 C   0  0  0  0  0  0  0  0  0  0  0  0
   38.2070   24.2080   41.5290 C   0  0  0  0  0  0  0  0  0  0  0  0
   38.4330   22.7160   40.6380 Cl  0  0  0  0  0  0  0  0  0  0  0  0
   39.2230   24.7230   42.2970 C   0  0  0  0  0  0  0  0  0  0  0  0
   35.9550   26.5730   42.1510 H   0  0  0  0  0  0  0  0  0  0  0  0
   36.1660   24.5280   40.8830 H   0  0  0  0  0  0  0  0  0  0  0  0
   40.2040   24.2280   42.3820 H   0  0  0  0  0  0  0  0  0  0  0  0
  1 20  1  0  0  0  0
  2  7  1  0  0  0  0
  2  1  2  0  0  0  0
  3  2  1  0  0  0  0
  4  3  2  0  0  0  0
  4  5  1  0  0  0  0
  5  6  2  0  0  0  0
  6  1  1  0  0  0  0
  8  3  1  0  0  0  0
  9  5  1  0  0  0  0
  9 10  2  0  0  0  0
 12 11  1  0  0  0  0
 13  9  1  0  0  0  0
 13 12  1  0  0  0  0
 14 13  2  0  0  0  0
 15 14  1  0  0  0  0
 16 14  1  0  0  0  0
 16 18  2  0  0  0  0
 17 16  1  0  0  0  0
 18 19  1  0  0  0  0
 19 12  2  0  0  0  0
 20 21  1  0  0  0  0
 21 23  1  0  0  0  0
 21 24  1  0  0  0  0
 22 21  1  0  0  0  0
 24 26  1  0  0  0  0
 24 25  1  0  0  0  0
 28 27  1  0  0  0  0
 29 28  1  0  0  0  0
 29 24  1  0  0  0  0
 30 29  2  0  0  0  0
 31 32  2  0  0  0  0
 31 30  1  0  0  0  0
 32 34  1  0  0  0  0
 33 32  1  0  0  0  0
 34 37  1  0  0  0  0
 34 28  2  0  0  0  0
 35 30  1  0  0  0  0
 36 31  1  0  0  0  0
M  END
>  <minimizedAffinity>
-6.01215982

$$$$

 OpenBabel03242515023D

 37 39  0  0  0  0  0  0  0  0999 V2000
   36.6820   25.8140   39.9740 C   0  0  0  0  0  0  0  0  0  0  0  0
   36.6470   24.4850   40.4010 C   0  0  0  0  0  0  0  0  0  0  0  0
   37.1320   24.1920   41.6670 C   0  0  0  0  0  0  0  0  0  0  0  0
   37.6120   25.2050   42.4150 N   0  0  0  0  0  0  0  0  0  0  0  0
   37.6440   26.4770   42.0010 C   0  0  0  0  0  0  0  0  0  0  0  0
   37.1750   26.7650   40.7780 N   0  0  0  0  0  0  0  0  0  0  0  0
   36.2610   23.6750   39.7980 H   0  0  0  0  0  0  0  0  0  0  0  0
   37.1340   23.1770   42.0620 H   0  0  0  0  0  0  0  0  0  0  0  0
   38.1710   27.5260   42.8790 C   0  0  0  0  0  0  0  0  0  0  0  0
   37.5860   27.6570   44.0110 O   0  0  0  0  0  0  0  0  0  0  0  0
   41.2530   26.5720   43.1750 Br  0  0  0  0  0  0  0  0  0  0  0  0
   40.5880   28.3120   42.9040 C   0  0  0  0  0  0  0  0  0  0  0  0
   39.2340   28.4860   42.7840 C   0  0  0  0  0  0  0  0  0  0  0  0
   38.8960   29.8320   42.5690 C   0  0  0  0  0  0  0  0  0  0  0  0
   37.8290   30.0730   42.4590 H   0  0  0  0  0  0  0  0  0  0  0  0
   39.7550   30.9040   42.4770 C   0  0  0  0  0  0  0  0  0  0  0  0
   39.3780   31.8920   42.3090 H   0  0  0  0  0  0  0  0  0  0  0  0
   41.0900   30.5990   42.6140 C   0  0  0  0  0  3  0  0  0  0  0  0
   41.5250   29.3130   42.8280 C   0  0  0  0  0  3  0  0  0  0  0  0
   36.0390   26.1430   38.3200 S   0  0  0  0  0  0  0  0  0  0  0  0
   36.7420   27.6150   37.5870 C   0  0  0  0  0  0  0  0  0  0  0  0
   37.1710   27.4180   36.5720 H   0  0  0  0  0  0  0  0  0  0  0  0
   37.6240   27.9340   38.2100 H   0  0  0  0  0  0  0  0  0  0  0  0
   35.8030   28.7790   37.5590 C   0  0  0  0  0  0  0  0  0  0  0  0
   34.7970   28.5230   37.9450 H   0  0  0  0  0  0  0  0  0  0  0  0
   35.6540   29.0750   36.4880 H   0  0  0  0  0  0  0  0  0  0  0  0
   34.9610   29.1790   40.4680 Cl  0  0  0  0  0  0  0  0  0  0  0  0
   36.0520   30.2240   39.6090 C   0  0  0  0  0  0  0  0  0  0  0  0
   36.3720   29.9440   38.2650 C   0  0  0  0  0  0  0  0  0  0  0  0
   37.2360   30.8190   37.6730 C   0  0  0  0  0  0  0  0  0  0  0  0
   37.8240   31.9390   38.2480 C   0  0  0  0  0  0  0  0  0  0  0  0
   37.4980   32.1920   39.5580 C   0  0  0  0  0  0  0  0  0  0  0  0
   38.1810   33.5760   40.3890 Cl  0  0  0  0  0  0  0  0  0  0  0  0
   36.6320   31.3460   40.2090 C   0  0  0  0  0  0  0  0  0  0  0  0
   37.5060   30.6290   36.6250 H   0  0  0  0  0  0  0  0  0  0  0  0
   38.4990   32.5630   37.6760 H   0  0  0  0  0  0  0  0  0  0  0  0
   36.3370   31.5010   41.2590 H   0  0  0  0  0  0  0  0  0  0  0  0
  1  2  2  0  0  0  0
  1  6  1  0  0  0  0
  2  3  1  0  0  0  0
  3  8  1  0  0  0  0
  3  4  2  0  0  0  0
  5  4  1  0  0  0  0
  5  9  1  0  0  0  0
  6  5  2  0  0  0  0
  7  2  1  0  0  0  0
  9 10  2  0  0  0  0
 12 11  1  0  0  0  0
 13  9  1  0  0  0  0
 13 12  2  0  0  0  0
 14 13  1  0  0  0  0
 15 14  1  0  0  0  0
 16 14  2  0  0  0  0
 16 18  1  0  0  0  0
 17 16  1  0  0  0  0
 18 19  2  0  0  0  0
 19 12  1  0  0  0  0
 20  1  1  0  0  0  0
 21 23  1  0  0  0  0
 21 20  1  0  0  0  0
 22 21  1  0  0  0  0
 24 21  1  0  0  0  0
 24 25  1  0  0  0  0
 24 29  1  0  0  0  0
 26 24  1  0  0  0  0
 28 34  1  0  0  0  0
 28 27  1  0  0  0  0
 29 28  2  0  0  0  0
 30 31  2  0  0  0  0
 30 29  1  0  0  0  0
 31 32  1  0  0  0  0
 32 34  2  0  0  0  0
 32 33  1  0  0  0  0
 34 37  1  0  0  0  0
 35 30  1  0  0  0  0
 36 31  1  0  0  0  0
M  END
>  <minimizedAffinity>
-5.94669819

$$$$

 OpenBabel03242515023D

 37 39  0  0  0  0  0  0  0  0999 V2000
   36.8350   25.5480   39.8780 C   0  0  0  0  0  0  0  0  0  0  0  0
   36.7650   24.1850   40.1750 C   0  0  0  0  0  0  0  0  0  0  0  0
   37.2750   23.7520   41.3900 C   0  0  0  0  0  0  0  0  0  0  0  0
   37.8110   24.6700   42.2180 N   0  0  0  0  0  0  0  0  0  0  0  0
   37.8760   25.9760   41.9300 C   0  0  0  0  0  0  0  0  0  0  0  0
   37.3830   26.3980   40.7560 N   0  0  0  0  0  0  0  0  0  0  0  0
   36.3340   23.4510   39.5080 H   0  0  0  0  0  0  0  0  0  0  0  0
   37.2520   22.7040   41.6840 H   0  0  0  0  0  0  0  0  0  0  0  0
   38.4640   26.9150   42.8900 C   0  0  0  0  0  0  0  0  0  0  0  0
   37.6440   27.4850   43.6930 O   0  0  0  0  0  0  0  0  0  0  0  0
   39.6420   29.5130   41.3550 Br  0  0  0  0  0  0  0  0  0  0  0  0
   40.4950   28.4200   42.6280 C   0  0  0  0  0  0  0  0  0  0  0  0
   39.7940   27.3740   43.1710 C   0  0  0  0  0  0  0  0  0  0  0  0
   40.5570   26.6660   44.1130 C   0  0  0  0  0  0  0  0  0  0  0  0
   40.0790   25.8070   44.6060 H   0  0  0  0  0  0  0  0  0  0  0  0
   41.8520   26.9240   44.5020 C   0  0  0  0  0  0  0  0  0  0  0  0
   42.3340   26.3110   45.2370 H   0  0  0  0  0  0  0  0  0  0  0  0
   42.4470   28.0010   43.8840 C   0  0  0  0  0  3  0  0  0  0  0  0
   41.7870   28.7580   42.9480 C   0  0  0  0  0  3  0  0  0  0  0  0
   36.1580   26.0600   38.2860 S   0  0  0  0  0  0  0  0  0  0  0  0
   36.8170   27.6250   37.7270 C   0  0  0  0  0  0  0  0  0  0  0  0
   37.3320   27.5370   36.7370 H   0  0  0  0  0  0  0  0  0  0  0  0
   37.6280   27.9430   38.4410 H   0  0  0  0  0  0  0  0  0  0  0  0
   35.8100   28.7310   37.7150 C   0  0  0  0  0  0  0  0  0  0  0  0
   34.8480   28.4350   38.1770 H   0  0  0  0  0  0  0  0  0  0  0  0
   35.5740   28.9700   36.6450 H   0  0  0  0  0  0  0  0  0  0  0  0
   35.2000   29.1710   40.6750 Cl  0  0  0  0  0  0  0  0  0  0  0  0
   36.1320   30.2600   39.6920 C   0  0  0  0  0  0  0  0  0  0  0  0
   36.3520   29.9570   38.3340 C   0  0  0  0  0  0  0  0  0  0  0  0
   37.0940   30.8700   37.6410 C   0  0  0  0  0  0  0  0  0  0  0  0
   37.6470   32.0480   38.1290 C   0  0  0  0  0  0  0  0  0  0  0  0
   37.4190   32.3220   39.4560 C   0  0  0  0  0  0  0  0  0  0  0  0
   38.0690   33.7780   40.1820 Cl  0  0  0  0  0  0  0  0  0  0  0  0
   36.6780   31.4400   40.2060 C   0  0  0  0  0  0  0  0  0  0  0  0
   37.2840   30.6630   36.5790 H   0  0  0  0  0  0  0  0  0  0  0  0
   38.2200   32.6980   37.4810 H   0  0  0  0  0  0  0  0  0  0  0  0
   36.4650   31.6100   41.2730 H   0  0  0  0  0  0  0  0  0  0  0  0
  1  2  2  0  0  0  0
  1  6  1  0  0  0  0
  2  3  1  0  0  0  0
  3  8  1  0  0  0  0
  3  4  2  0  0  0  0
  5  4  1  0  0  0  0
  5  9  1  0  0  0  0
  6  5  2  0  0  0  0
  7  2  1  0  0  0  0
  9 13  1  0  0  0  0
  9 10  2  0  0  0  0
 11 12  1  0  0  0  0
 12 19  2  0  0  0  0
 12 13  1  0  0  0  0
 13 14  2  0  0  0  0
 14 16  1  0  0  0  0
 14 15  1  0  0  0  0
 16 17  1  0  0  0  0
 18 16  2  0  0  0  0
 19 18  1  0  0  0  0
 20  1  1  0  0  0  0
 21 20  1  0  0  0  0
 21 23  1  0  0  0  0
 22 21  1  0  0  0  0
 24 21  1  0  0  0  0
 24 25  1  0  0  0  0
 24 29  1  0  0  0  0
 26 24  1  0  0  0  0
 28 34  1  0  0  0  0
 28 27  1  0  0  0  0
 29 28  2  0  0  0  0
 30 31  2  0  0  0  0
 30 29  1  0  0  0  0
 31 32  1  0  0  0  0
 32 33  1  0  0  0  0
 32 34  2  0  0  0  0
 34 37  1  0  0  0  0
 35 30  1  0  0  0  0
 36 31  1  0  0  0  0
M  END
>  <minimizedAffinity>
-5.88990021

$$$$

 OpenBabel03242515023D

 37 39  0  0  0  0  0  0  0  0999 V2000
   40.5010   31.5320   39.6390 C   0  0  0  0  0  0  0  0  0  0  0  0
   41.0910   31.0340   38.4750 C   0  0  0  0  0  0  0  0  0  0  0  0
   41.3750   29.6770   38.4150 C   0  0  0  0  0  0  0  0  0  0  0  0
   41.0690   28.9150   39.4830 N   0  0  0  0  0  0  0  0  0  0  0  0
   40.5040   29.3980   40.5970 C   0  0  0  0  0  0  0  0  0  0  0  0
   40.2270   30.7080   40.6590 N   0  0  0  0  0  0  0  0  0  0  0  0
   41.3350   31.6480   37.6200 H   0  0  0  0  0  0  0  0  0  0  0  0
   41.8340   29.2230   37.5380 H   0  0  0  0  0  0  0  0  0  0  0  0
   40.1900   28.5010   41.7130 C   0  0  0  0  0  0  0  0  0  0  0  0
   41.1920   28.0560   42.3760 O   0  0  0  0  0  0  0  0  0  0  0  0
   38.9590   25.7160   40.6060 Br  0  0  0  0  0  0  0  0  0  0  0  0
   38.2770   26.8430   41.9510 C   0  0  0  0  0  0  0  0  0  0  0  0
   38.9800   27.9740   42.2790 C   0  0  0  0  0  0  0  0  0  0  0  0
   38.3560   28.6980   43.3070 C   0  0  0  0  0  0  0  0  0  0  0  0
   38.8470   29.6240   43.6410 H   0  0  0  0  0  0  0  0  0  0  0  0
   37.1860   28.3840   43.9580 C   0  0  0  0  0  0  0  0  0  0  0  0
   36.8050   29.0170   44.7330 H   0  0  0  0  0  0  0  0  0  0  0  0
   36.5740   27.2230   43.5380 C   0  0  0  0  0  3  0  0  0  0  0  0
   37.1030   26.4430   42.5400 C   0  0  0  0  0  3  0  0  0  0  0  0
   40.1510   33.3030   39.6670 S   0  0  0  0  0  0  0  0  0  0  0  0
   38.5870   33.6840   40.4430 C   0  0  0  0  0  0  0  0  0  0  0  0
   38.5700   34.7150   40.8770 H   0  0  0  0  0  0  0  0  0  0  0  0
   38.4550   33.0010   41.3290 H   0  0  0  0  0  0  0  0  0  0  0  0
   37.4050   33.4540   39.5550 C   0  0  0  0  0  0  0  0  0  0  0  0
   37.5520   33.8610   38.5360 H   0  0  0  0  0  0  0  0  0  0  0  0
   36.5350   34.0150   39.9870 H   0  0  0  0  0  0  0  0  0  0  0  0
   37.6990   32.0210   36.8740 Cl  0  0  0  0  0  0  0  0  0  0  0  0
   37.1300   31.2670   38.3320 C   0  0  0  0  0  0  0  0  0  0  0  0
   37.0330   32.0250   39.5170 C   0  0  0  0  0  0  0  0  0  0  0  0
   36.5760   31.3490   40.6110 C   0  0  0  0  0  0  0  0  0  0  0  0
   36.2030   30.0120   40.6780 C   0  0  0  0  0  0  0  0  0  0  0  0
   36.3060   29.2930   39.5120 C   0  0  0  0  0  0  0  0  0  0  0  0
   35.8650   27.5970   39.4760 Cl  0  0  0  0  0  0  0  0  0  0  0  0
   36.7600   29.9190   38.3750 C   0  0  0  0  0  0  0  0  0  0  0  0
   36.4890   31.9120   41.5500 H   0  0  0  0  0  0  0  0  0  0  0  0
   35.8540   29.5830   41.6080 H   0  0  0  0  0  0  0  0  0  0  0  0
   36.8620   29.3910   37.4140 H   0  0  0  0  0  0  0  0  0  0  0  0
  1 20  1  0  0  0  0
  1  6  1  0  0  0  0
  2  1  2  0  0  0  0
  3  2  1  0  0  0  0
  3  4  2  0  0  0  0
  4  5  1  0  0  0  0
  5  6  2  0  0  0  0
  5  9  1  0  0  0  0
  7  2  1  0  0  0  0
  8  3  1  0  0  0  0
  9 13  1  0  0  0  0
  9 10  2  0  0  0  0
 11 12  1  0  0  0  0
 12 13  2  0  0  0  0
 12 19  1  0  0  0  0
 13 14  1  0  0  0  0
 14 15  1  0  0  0  0
 14 16  2  0  0  0  0
 16 17  1  0  0  0  0
 18 16  1  0  0  0  0
 19 18  2  0  0  0  0
 20 21  1  0  0  0  0
 21 22  1  0  0  0  0
 21 23  1  0  0  0  0
 24 26  1  0  0  0  0
 24 21  1  0  0  0  0
 25 24  1  0  0  0  0
 27 28  1  0  0  0  0
 28 34  2  0  0  0  0
 28 29  1  0  0  0  0
 29 24  1  0  0  0  0
 29 30  2  0  0  0  0
 30 31  1  0  0  0  0
 30 35  1  0  0  0  0
 31 36  1  0  0  0  0
 32 31  2  0  0  0  0
 33 32  1  0  0  0  0
 34 32  1  0  0  0  0
 37 34  1  0  0  0  0
M  END
>  <minimizedAffinity>
-5.85873032

$$$$

 OpenBabel03242515023D

 37 39  0  0  0  0  0  0  0  0999 V2000
   36.5070   29.5030   38.7200 C   0  0  0  0  0  0  0  0  0  0  0  0
   36.5540   30.8910   38.8620 C   0  0  0  0  0  0  0  0  0  0  0  0
   36.9260   31.4110   40.0930 C   0  0  0  0  0  0  0  0  0  0  0  0
   37.2220   30.5480   41.0850 N   0  0  0  0  0  0  0  0  0  0  0  0
   37.1760   29.2180   40.9430 C   0  0  0  0  0  0  0  0  0  0  0  0
   36.8160   28.7110   39.7550 N   0  0  0  0  0  0  0  0  0  0  0  0
   36.3160   31.5810   38.0640 H   0  0  0  0  0  0  0  0  0  0  0  0
   36.9840   32.4830   40.2720 H   0  0  0  0  0  0  0  0  0  0  0  0
   37.5240   28.3440   42.0680 C   0  0  0  0  0  0  0  0  0  0  0  0
   37.3660   28.8440   43.2370 O   0  0  0  0  0  0  0  0  0  0  0  0
   40.6740   27.8180   42.6150 Br  0  0  0  0  0  0  0  0  0  0  0  0
   39.2970   26.5530   42.3940 C   0  0  0  0  0  0  0  0  0  0  0  0
   38.0180   27.0020   42.1930 C   0  0  0  0  0  0  0  0  0  0  0  0
   37.1060   25.9430   42.0640 C   0  0  0  0  0  0  0  0  0  0  0  0
   36.0500   26.2040   41.9000 H   0  0  0  0  0  0  0  0  0  0  0  0
   37.3770   24.5950   42.1230 C   0  0  0  0  0  0  0  0  0  0  0  0
   36.5930   23.8740   42.0110 H   0  0  0  0  0  0  0  0  0  0  0  0
   38.7000   24.2710   42.3300 C   0  0  0  0  0  3  0  0  0  0  0  0
   39.6710   25.2340   42.4680 C   0  0  0  0  0  3  0  0  0  0  0  0
   36.0160   28.8770   37.0990 S   0  0  0  0  0  0  0  0  0  0  0  0
   34.3190   28.3170   37.0620 C   0  0  0  0  0  0  0  0  0  0  0  0
   33.8320   28.3740   38.0680 H   0  0  0  0  0  0  0  0  0  0  0  0
   34.3130   27.2210   36.8060 H   0  0  0  0  0  0  0  0  0  0  0  0
   33.4860   28.9960   36.0210 C   0  0  0  0  0  0  0  0  0  0  0  0
   33.1830   28.3120   35.2050 H   0  0  0  0  0  0  0  0  0  0  0  0
   34.1160   29.7880   35.5380 H   0  0  0  0  0  0  0  0  0  0  0  0
   31.9240   30.9200   34.2340 Cl  0  0  0  0  0  0  0  0  0  0  0  0
   31.5250   30.5750   35.8900 C   0  0  0  0  0  0  0  0  0  0  0  0
   32.3170   29.6680   36.6240 C   0  0  0  0  0  0  0  0  0  0  0  0
   31.9280   29.4600   37.9150 C   0  0  0  0  0  0  0  0  0  0  0  0
   30.8490   30.0390   38.5720 C   0  0  0  0  0  0  0  0  0  0  0  0
   30.0920   30.9190   37.8380 C   0  0  0  0  0  0  0  0  0  0  0  0
   28.7050   31.7090   38.5610 Cl  0  0  0  0  0  0  0  0  0  0  0  0
   30.4340   31.1700   36.5300 C   0  0  0  0  0  0  0  0  0  0  0  0
   32.5250   28.7580   38.5140 H   0  0  0  0  0  0  0  0  0  0  0  0
   30.6370   29.7960   39.6050 H   0  0  0  0  0  0  0  0  0  0  0  0
   29.8620   31.8660   35.8970 H   0  0  0  0  0  0  0  0  0  0  0  0
  1  2  2  0  0  0  0
  1  6  1  0  0  0  0
  2  3  1  0  0  0  0
  3  8  1  0  0  0  0
  3  4  2  0  0  0  0
  5  4  1  0  0  0  0
  5  9  1  0  0  0  0
  6  5  2  0  0  0  0
  7  2  1  0  0  0  0
  9 13  1  0  0  0  0
  9 10  2  0  0  0  0
 12 19  1  0  0  0  0
 12 11  1  0  0  0  0
 13 12  2  0  0  0  0
 14 16  2  0  0  0  0
 14 13  1  0  0  0  0
 15 14  1  0  0  0  0
 16 18  1  0  0  0  0
 17 16  1  0  0  0  0
 18 19  2  0  0  0  0
 20  1  1  0  0  0  0
 21 20  1  0  0  0  0
 21 22  1  0  0  0  0
 23 21  1  0  0  0  0
 24 29  1  0  0  0  0
 24 21  1  0  0  0  0
 25 24  1  0  0  0  0
 26 24  1  0  0  0  0
 27 28  1  0  0  0  0
 28 34  2  0  0  0  0
 28 29  1  0  0  0  0
 29 30  2  0  0  0  0
 30 35  1  0  0  0  0
 30 31  1  0  0  0  0
 31 36  1  0  0  0  0
 32 33  1  0  0  0  0
 32 31  2  0  0  0  0
 34 32  1  0  0  0  0
 37 34  1  0  0  0  0
M  END
>  <minimizedAffinity>
-5.71689749

$$$$

 OpenBabel03242515023D

 37 39  0  0  0  0  0  0  0  0999 V2000
   39.9440   28.7070   41.1790 C   0  0  0  0  0  0  0  0  0  0  0  0
   40.2560   27.6110   40.3720 C   0  0  0  0  0  0  0  0  0  0  0  0
   40.5230   27.8410   39.0300 C   0  0  0  0  0  0  0  0  0  0  0  0
   40.4680   29.1090   38.5790 N   0  0  0  0  0  0  0  0  0  0  0  0
   40.1680   30.1560   39.3560 C   0  0  0  0  0  0  0  0  0  0  0  0
   39.9090   29.9380   40.6540 N   0  0  0  0  0  0  0  0  0  0  0  0
   40.3000   26.5940   40.7370 H   0  0  0  0  0  0  0  0  0  0  0  0
   40.7730   27.0320   38.3460 H   0  0  0  0  0  0  0  0  0  0  0  0
   40.1390   31.5090   38.7920 C   0  0  0  0  0  0  0  0  0  0  0  0
   40.3470   31.5970   37.5310 O   0  0  0  0  0  0  0  0  0  0  0  0
   37.1600   32.4340   39.6660 Br  0  0  0  0  0  0  0  0  0  0  0  0
   38.7580   33.4270   39.7280 C   0  0  0  0  0  0  0  0  0  0  0  0
   39.9220   32.8240   39.3250 C   0  0  0  0  0  0  0  0  0  0  0  0
   41.0250   33.6830   39.4460 C   0  0  0  0  0  0  0  0  0  0  0  0
   42.0070   33.2890   39.1470 H   0  0  0  0  0  0  0  0  0  0  0  0
   41.0270   34.9820   39.9030 C   0  0  0  0  0  0  0  0  0  0  0  0
   41.9380   35.5430   39.9520 H   0  0  0  0  0  0  0  0  0  0  0  0
   39.7960   35.4730   40.2780 C   0  0  0  0  0  3  0  0  0  0  0  0
   38.6550   34.7130   40.1980 C   0  0  0  0  0  3  0  0  0  0  0  0
   39.6040   28.3540   42.9160 S   0  0  0  0  0  0  0  0  0  0  0  0
   37.9680   28.8730   43.4170 C   0  0  0  0  0  0  0  0  0  0  0  0
   37.5790   29.7120   42.7870 H   0  0  0  0  0  0  0  0  0  0  0  0
   38.0350   29.3050   44.4540 H   0  0  0  0  0  0  0  0  0  0  0  0
   36.9800   27.7520   43.4920 C   0  0  0  0  0  0  0  0  0  0  0  0
   35.9660   28.0970   43.7740 H   0  0  0  0  0  0  0  0  0  0  0  0
   37.3060   27.0600   44.3120 H   0  0  0  0  0  0  0  0  0  0  0  0
   35.9400   29.1780   40.9990 Cl  0  0  0  0  0  0  0  0  0  0  0  0
   36.4960   27.5310   41.0280 C   0  0  0  0  0  0  0  0  0  0  0  0
   36.9560   26.9730   42.2380 C   0  0  0  0  0  0  0  0  0  0  0  0
   37.3720   25.6750   42.1640 C   0  0  0  0  0  0  0  0  0  0  0  0
   37.3910   24.8600   41.0390 C   0  0  0  0  0  0  0  0  0  0  0  0
   36.9380   25.4260   39.8720 C   0  0  0  0  0  0  0  0  0  0  0  0
   36.9160   24.4940   38.3870 Cl  0  0  0  0  0  0  0  0  0  0  0  0
   36.5050   26.7300   39.8820 C   0  0  0  0  0  0  0  0  0  0  0  0
   37.7370   25.2100   43.0910 H   0  0  0  0  0  0  0  0  0  0  0  0
   37.7460   23.8400   41.1020 H   0  0  0  0  0  0  0  0  0  0  0  0
   36.1320   27.2330   38.9760 H   0  0  0  0  0  0  0  0  0  0  0  0
  1 20  1  0  0  0  0
  2  7  1  0  0  0  0
  2  1  2  0  0  0  0
  3  2  1  0  0  0  0
  4  3  2  0  0  0  0
  4  5  1  0  0  0  0
  5  6  2  0  0  0  0
  6  1  1  0  0  0  0
  8  3  1  0  0  0  0
  9 13  1  0  0  0  0
  9  5  1  0  0  0  0
 10  9  2  0  0  0  0
 11 12  1  0  0  0  0
 12 19  1  0  0  0  0
 13 14  1  0  0  0  0
 13 12  2  0  0  0  0
 14 16  2  0  0  0  0
 15 14  1  0  0  0  0
 16 17  1  0  0  0  0
 16 18  1  0  0  0  0
 19 18  2  0  0  0  0
 20 21  1  0  0  0  0
 21 24  1  0  0  0  0
 21 23  1  0  0  0  0
 22 21  1  0  0  0  0
 24 25  1  0  0  0  0
 24 26  1  0  0  0  0
 27 28  1  0  0  0  0
 28 29  1  0  0  0  0
 29 24  1  0  0  0  0
 30 29  2  0  0  0  0
 30 35  1  0  0  0  0
 31 36  1  0  0  0  0
 31 30  1  0  0  0  0
 32 34  1  0  0  0  0
 32 31  2  0  0  0  0
 33 32  1  0  0  0  0
 34 28  2  0  0  0  0
 37 34  1  0  0  0  0
M  END
>  <minimizedAffinity>
-5.70204544

$$$$

 OpenBabel03242515023D

 37 39  0  0  0  0  0  0  0  0999 V2000
   36.5790   24.8730   39.2700 C   0  0  0  0  0  0  0  0  0  0  0  0
   36.6290   24.2470   38.0230 C   0  0  0  0  0  0  0  0  0  0  0  0
   36.2210   24.9680   36.9110 C   0  0  0  0  0  0  0  0  0  0  0  0
   35.7980   26.2350   37.0940 N   0  0  0  0  0  0  0  0  0  0  0  0
   35.7520   26.8310   38.2920 C   0  0  0  0  0  0  0  0  0  0  0  0
   36.1460   26.1370   39.3690 N   0  0  0  0  0  0  0  0  0  0  0  0
   36.9690   23.2300   37.8790 H   0  0  0  0  0  0  0  0  0  0  0  0
   36.2350   24.5410   35.9100 H   0  0  0  0  0  0  0  0  0  0  0  0
   35.2900   28.2180   38.4080 C   0  0  0  0  0  0  0  0  0  0  0  0
   34.1070   28.4540   37.9760 O   0  0  0  0  0  0  0  0  0  0  0  0
   37.0640   30.1080   36.4660 Br  0  0  0  0  0  0  0  0  0  0  0  0
   36.6530   30.3600   38.2860 C   0  0  0  0  0  0  0  0  0  0  0  0
   35.8580   29.4350   38.9130 C   0  0  0  0  0  0  0  0  0  0  0  0
   35.6270   29.7690   40.2570 C   0  0  0  0  0  0  0  0  0  0  0  0
   34.9980   29.0860   40.8460 H   0  0  0  0  0  0  0  0  0  0  0  0
   36.1010   30.8680   40.9370 C   0  0  0  0  0  0  0  0  0  0  0  0
   35.8560   31.0190   41.9690 H   0  0  0  0  0  0  0  0  0  0  0  0
   36.8880   31.7220   40.1980 C   0  0  0  0  0  3  0  0  0  0  0  0
   37.1740   31.4850   38.8750 C   0  0  0  0  0  3  0  0  0  0  0  0
   37.1200   23.8920   40.6850 S   0  0  0  0  0  0  0  0  0  0  0  0
   38.0430   24.8510   41.8770 C   0  0  0  0  0  0  0  0  0  0  0  0
   39.0010   25.2450   41.4530 H   0  0  0  0  0  0  0  0  0  0  0  0
   38.3620   24.1670   42.7120 H   0  0  0  0  0  0  0  0  0  0  0  0
   37.2450   25.9460   42.5130 C   0  0  0  0  0  0  0  0  0  0  0  0
   36.9830   25.7250   43.5660 H   0  0  0  0  0  0  0  0  0  0  0  0
   36.2710   26.0250   41.9650 H   0  0  0  0  0  0  0  0  0  0  0  0
   36.7890   27.9650   44.7590 Cl  0  0  0  0  0  0  0  0  0  0  0  0
   37.7890   28.2540   43.3670 C   0  0  0  0  0  0  0  0  0  0  0  0
   37.9290   27.2490   42.3890 C   0  0  0  0  0  0  0  0  0  0  0  0
   38.7330   27.5660   41.3320 C   0  0  0  0  0  0  0  0  0  0  0  0
   39.4180   28.7570   41.1250 C   0  0  0  0  0  0  0  0  0  0  0  0
   39.2670   29.7220   42.0910 C   0  0  0  0  0  0  0  0  0  0  0  0
   40.0840   31.2640   41.9360 Cl  0  0  0  0  0  0  0  0  0  0  0  0
   38.4690   29.4620   43.1790 C   0  0  0  0  0  0  0  0  0  0  0  0
   38.8630   26.8030   40.5520 H   0  0  0  0  0  0  0  0  0  0  0  0
   40.0300   28.8950   40.2430 H   0  0  0  0  0  0  0  0  0  0  0  0
   38.3120   30.1980   43.9830 H   0  0  0  0  0  0  0  0  0  0  0  0
  1  6  1  0  0  0  0
  1 20  1  0  0  0  0
  2  1  2  0  0  0  0
  3  4  2  0  0  0  0
  3  2  1  0  0  0  0
  4  5  1  0  0  0  0
  5  9  1  0  0  0  0
  5  6  2  0  0  0  0
  7  2  1  0  0  0  0
  8  3  1  0  0  0  0
  9 13  1  0  0  0  0
 10  9  2  0  0  0  0
 11 12  1  0  0  0  0
 12 19  2  0  0  0  0
 12 13  1  0  0  0  0
 13 14  2  0  0  0  0
 14 15  1  0  0  0  0
 14 16  1  0  0  0  0
 16 17  1  0  0  0  0
 18 16  2  0  0  0  0
 19 18  1  0  0  0  0
 20 21  1  0  0  0  0
 21 24  1  0  0  0  0
 21 23  1  0  0  0  0
 22 21  1  0  0  0  0
 24 25  1  0  0  0  0
 26 24  1  0  0  0  0
 28 27  1  0  0  0  0
 29 24  1  0  0  0  0
 29 28  2  0  0  0  0
 30 29  1  0  0  0  0
 31 30  2  0  0  0  0
 31 32  1  0  0  0  0
 32 34  2  0  0  0  0
 33 32  1  0  0  0  0
 34 28  1  0  0  0  0
 34 37  1  0  0  0  0
 35 30  1  0  0  0  0
 36 31  1  0  0  0  0
M  END
>  <minimizedAffinity>
-5.67681408

$$$$
