
 OpenBabel03252502273D

 35 37  0  0  0  0  0  0  0  0999 V2000
   45.2210   34.4250   41.0830 C   0  0  0  0  0  0  0  0  0  0  0  0
   45.5270   35.0990   42.2540 C   0  0  0  0  0  0  0  0  0  0  0  0
   46.8570   35.3650   42.5470 C   0  0  0  0  0  0  0  0  0  0  0  0
   47.8440   34.9590   41.6770 C   0  0  0  0  0  0  0  0  0  0  0  0
   47.5630   34.2900   40.5120 C   0  0  0  0  0  0  0  0  0  0  0  0
   46.2140   34.0370   40.2420 C   0  0  0  0  0  0  0  0  0  0  0  0
   44.7440   35.4160   42.9400 H   0  0  0  0  0  0  0  0  0  0  0  0
   47.1590   35.8850   43.4480 H   0  0  0  0  0  0  0  0  0  0  0  0
   48.9210   35.1210   41.8160 H   0  0  0  0  0  0  0  0  0  0  0  0
   48.2230   33.9240   39.7570 H   0  0  0  0  0  0  0  0  0  0  0  0
   41.5690   34.7560   40.2320 C   0  0  0  0  0  0  0  0  0  0  0  0
   42.9050   35.1250   40.4330 C   0  0  0  0  0  0  0  0  0  0  0  0
   43.8120   34.1820   40.8370 C   0  0  0  0  0  0  0  0  0  0  0  0
   43.3390   32.9150   41.0200 N   0  0  0  0  0  0  0  0  0  0  0  0
   42.0490   32.5610   40.8250 C   0  0  0  0  0  0  0  0  0  0  0  0
   41.1590   33.4920   40.4270 N   0  0  0  0  0  0  0  0  0  0  0  0
   43.2570   36.1230   40.2840 H   0  0  0  0  0  0  0  0  0  0  0  0
   41.7410   31.5250   40.9870 H   0  0  0  0  0  0  0  0  0  0  0  0
   40.5780   35.7680   39.7940 C   0  0  0  0  0  0  0  0  0  0  0  0
   39.3810   35.0950   39.5030 F   0  0  0  0  0  0  0  0  0  0  0  0
   41.0180   36.2610   38.5700 F   0  0  0  0  0  0  0  0  0  0  0  0
   40.3560   36.7430   40.7310 F   0  0  0  0  0  0  0  0  0  0  0  0
   46.2310   32.2580   38.3320 C   0  0  0  0  0  0  0  0  0  0  0  0
   47.1750   31.5120   38.6350 O   0  0  0  0  0  0  0  0  0  0  0  0
   45.7850   33.3650   39.0780 N   0  0  0  0  0  0  0  0  0  0  0  0
   44.9120   33.8690   38.7270 H   0  0  0  0  0  0  0  0  0  0  0  0
   44.0250   30.0940   38.7290 Br  0  0  0  0  0  0  0  0  0  0  0  0
   44.5480   30.9460   37.1290 C   0  0  0  0  0  0  0  0  0  0  0  0
   45.5610   31.9090   37.0830 C   0  0  0  0  0  0  0  0  0  0  0  0
   45.9700   32.5520   35.9250 C   0  0  0  0  0  0  0  0  0  0  0  0
   46.7540   33.2870   35.9520 H   0  0  0  0  0  0  0  0  0  0  0  0
   45.3180   32.2040   34.7410 C   0  0  0  0  0  0  0  0  0  0  0  0
   45.6710   32.7330   33.8530 H   0  0  0  0  0  0  0  0  0  0  0  0
   44.3230   31.2700   34.7290 C   0  0  0  0  0  3  0  0  0  0  0  0
   43.9400   30.6440   35.9170 C   0  0  0  0  0  3  0  0  0  0  0  0
  1  2  1  0  0  0  0
  2  3  2  0  0  0  0
  2  7  1  0  0  0  0
  3  8  1  0  0  0  0
  4  9  1  0  0  0  0
  4  3  1  0  0  0  0
  5  4  2  0  0  0  0
  6  5  1  0  0  0  0
  6  1  2  0  0  0  0
 10  5  1  0  0  0  0
 11 16  2  0  0  0  0
 11 12  1  0  0  0  0
 12 13  2  0  0  0  0
 13 14  1  0  0  0  0
 13  1  1  0  0  0  0
 15 18  1  0  0  0  0
 15 14  2  0  0  0  0
 16 15  1  0  0  0  0
 17 12  1  0  0  0  0
 19 11  1  0  0  0  0
 19 22  1  0  0  0  0
 20 19  1  0  0  0  0
 21 19  1  0  0  0  0
 23 24  2  0  0  0  0
 23 25  1  0  0  0  0
 25  6  1  0  0  0  0
 26 25  1  0  0  0  0
 28 27  1  0  0  0  0
 29 28  1  0  0  0  0
 29 23  1  0  0  0  0
 30 31  1  0  0  0  0
 30 29  2  0  0  0  0
 32 30  1  0  0  0  0
 33 32  1  0  0  0  0
 34 32  2  0  0  0  0
 34 35  1  0  0  0  0
 35 28  2  0  0  0  0
M  END
>  <minimizedAffinity>
-6.06355143

>  <minimizedRMSD>
0.809491873

$$$$
