
     RDKit          3D

 37 39  0  0  0  0  0  0  0  0999 V2000
   45.1300   34.4193   41.1910 C   0  0  0  0  0  0  0  0  0  0  0  0
   45.5530   35.0259   42.3631 C   0  0  0  0  0  0  0  0  0  0  0  0
   46.9104   35.2489   42.5499 C   0  0  0  0  0  0  0  0  0  0  0  0
   47.8075   34.8682   41.5772 C   0  0  0  0  0  0  0  0  0  0  0  0
   47.4089   34.2663   40.4097 C   0  0  0  0  0  0  0  0  0  0  0  0
   46.0345   34.0547   40.2483 C   0  0  0  0  0  0  0  0  0  0  0  0
   41.4400   34.8453   40.5782 C   0  0  0  0  0  0  0  0  0  0  0  0
   42.7990   35.1718   40.6629 C   0  0  0  0  0  0  0  0  0  0  0  0
   43.6991   34.2190   41.0589 C   0  0  0  0  0  0  0  0  0  0  0  0
   43.1953   32.9837   41.3510 N   0  0  0  0  0  0  0  0  0  0  0  0
   41.8826   32.6709   41.2685 C   0  0  0  0  0  0  0  0  0  0  0  0
   41.0000   33.6125   40.8783 N   0  0  0  0  0  0  0  0  0  0  0  0
   40.4568   35.8689   40.1495 C   0  0  0  0  0  0  0  0  0  0  0  0
   39.2269   35.2212   39.9485 F   0  0  0  0  0  0  0  0  0  0  0  0
   40.8454   36.2976   38.8851 F   0  0  0  0  0  0  0  0  0  0  0  0
   40.3115   36.8867   41.0548 F   0  0  0  0  0  0  0  0  0  0  0  0
   45.4663   32.1546   38.5507 C   0  0  0  0  0  0  0  0  0  0  0  0
   45.9196   31.1346   39.0898 O   0  0  0  0  0  0  0  0  0  0  0  0
   45.4905   33.4529   39.0937 N   0  0  0  0  0  0  0  0  0  0  0  0
   44.8421   35.3230   43.1302 H   0  0  0  0  0  0  0  0  0  0  0  0
   47.3029   35.7150   43.4452 H   0  0  0  0  0  0  0  0  0  0  0  0
   48.8963   35.0003   41.6279 H   0  0  0  0  0  0  0  0  0  0  0  0
   47.9912   33.9245   39.5822 H   0  0  0  0  0  0  0  0  0  0  0  0
   43.1745   36.1454   40.4286 H   0  0  0  0  0  0  0  0  0  0  0  0
   41.5508   31.6587   41.5139 H   0  0  0  0  0  0  0  0  0  0  0  0
   44.9929   34.2212   38.5440 H   0  0  0  0  0  0  0  0  0  0  0  0
   43.6420   29.6295   38.4954 Br  0  0  0  0  0  0  0  0  0  0  0  0
   44.0239   30.8243   37.0850 C   0  0  0  0  0  0  0  0  0  0  0  0
   44.8661   31.9302   37.2391 C   0  0  0  0  0  0  0  0  0  0  0  0
   45.1674   32.8248   36.2243 C   0  0  0  0  0  0  0  0  0  0  0  0
   45.8208   33.6589   36.4043 H   0  0  0  0  0  0  0  0  0  0  0  0
   44.5852   32.5912   34.9783 C   0  0  0  0  0  0  0  0  0  0  0  0
   44.8480   33.3192   34.2066 H   0  0  0  0  0  0  0  0  0  0  0  0
   43.7547   31.5271   34.7712 C   0  0  0  0  0  0  0  0  0  0  0  0
   43.4766   30.6480   35.8202 C   0  0  0  0  0  0  0  0  0  0  0  0
   43.3455   31.4239   33.7755 H   0  0  0  0  0  0  0  0  0  0  0  0
   42.8143   29.8202   35.6034 H   0  0  0  0  0  0  0  0  0  0  0  0
  1  2  2  0
  2  3  1  0
  4  3  2  0
  5  4  1  0
  6  5  2  0
  6  1  1  0
  7  8  2  0
  7 12  1  0
  8  9  1  0
  9  1  1  0
  9 10  2  0
 11 10  1  0
 12 11  2  0
 13  7  1  0
 13 16  1  0
 14 13  1  0
 15 13  1  0
 17 18  2  0
 17 19  1  0
 19  6  1  0
  2 20  1  0
  3 21  1  0
  4 22  1  0
  5 23  1  0
  8 24  1  0
 11 25  1  0
 19 26  1  0
 27 28  1  0
 28 29  2  0
 29 30  1  0
 30 31  1  0
 30 32  2  0
 32 33  1  0
 32 34  1  0
 34 35  2  0
 35 28  1  0
 34 36  1  0
 35 37  1  0
 17 29  1  0
M  ISO  8  20  14  21  14  22  14  23  14  24  14  25  14  31  15  33  16
M  END
>  <DihAtoms>  (1) 
17,16,28,27

>  <DihDeg>  (1) 
44.18233689943933

$$$$
