REMARK  Name = 
REMARK  4 active torsions:
REMARK  status: ('A' for Active; 'I' for Inactive)
REMARK    1  A    between atoms: C_1  and  C_9
REMARK    2  A    between atoms: C_6  and  N_19
REMARK    3  A    between atoms: C_7  and  C_13
REMARK    4  A    between atoms: C_17  and  C_29
REMARK                            x       y       z     vdW  Elec       q    Type
REMARK                         _______ _______ _______ _____ _____    ______ ____
ROOT
ATOM      1  C   UNL     1      45.130  34.419  41.191  0.00  0.00    +0.000 A 
ATOM      2  C   UNL     1      45.553  35.026  42.363  0.00  0.00    +0.000 A 
ATOM      3  C   UNL     1      46.910  35.249  42.550  0.00  0.00    +0.000 A 
ATOM      4  C   UNL     1      47.807  34.868  41.577  0.00  0.00    +0.000 A 
ATOM      5  C   UNL     1      47.409  34.266  40.410  0.00  0.00    +0.000 A 
ATOM      6  C   UNL     1      46.035  34.055  40.248  0.00  0.00    +0.000 A 
ATOM      7  H   UNL     1      44.842  35.323  43.130  0.00  0.00    +0.000 HD
ATOM      8  H   UNL     1      47.303  35.715  43.445  0.00  0.00    +0.000 HD
ATOM      9  H   UNL     1      48.896  35.000  41.628  0.00  0.00    +0.000 HD
ATOM     10  H   UNL     1      47.991  33.925  39.582  0.00  0.00    +0.000 HD
ENDROOT
BRANCH   1  13
ATOM     11  C   UNL     1      41.440  34.845  40.578  0.00  0.00    +0.000 A 
ATOM     12  C   UNL     1      42.799  35.172  40.663  0.00  0.00    +0.000 A 
ATOM     13  C   UNL     1      43.699  34.219  41.059  0.00  0.00    +0.000 A 
ATOM     14  N   UNL     1      43.195  32.984  41.351  0.00  0.00    +0.000 NA
ATOM     15  C   UNL     1      41.883  32.671  41.269  0.00  0.00    +0.000 A 
ATOM     16  N   UNL     1      41.000  33.612  40.878  0.00  0.00    +0.000 NA
ATOM     17  H   UNL     1      43.175  36.145  40.429  0.00  0.00    +0.000 HD
ATOM     18  H   UNL     1      41.551  31.659  41.514  0.00  0.00    +0.000 HD
BRANCH  11  19
ATOM     19  C   UNL     1      40.457  35.869  40.150  0.00  0.00    +0.000 C 
ATOM     20  F   UNL     1      39.227  35.221  39.949  0.00  0.00    +0.000 F 
ATOM     21  F   UNL     1      40.845  36.298  38.885  0.00  0.00    +0.000 F 
ATOM     22  F   UNL     1      40.312  36.887  41.055  0.00  0.00    +0.000 F 
ENDBRANCH  11  19
ENDBRANCH   1  13
BRANCH   6  25
ATOM     23  C   UNL     1      45.466  32.155  38.551  0.00  0.00    +0.000 C 
ATOM     24  O   UNL     1      45.920  31.135  39.090  0.00  0.00    +0.000 OA
ATOM     25  N   UNL     1      45.490  33.453  39.094  0.00  0.00    +0.000 N 
ATOM     26  H   UNL     1      44.993  34.221  38.544  0.00  0.00    +0.000 HD
BRANCH  23  29
ATOM     27 BR   UNL     1      46.314  34.315  36.471  0.00  0.00    +0.000 Br
ATOM     28  C   UNL     1      45.170  32.835  36.217  0.00  0.00    +0.000 A 
ATOM     29  C   UNL     1      44.866  31.930  37.239  0.00  0.00    +0.000 A 
ATOM     30  C   UNL     1      44.030  30.836  37.085  0.00  0.00    +0.000 A 
ATOM     31  H   UNL     1      43.836  30.173  37.909  0.00  0.00    +0.000 HD
ATOM     32  C   UNL     1      43.465  30.640  35.825  0.00  0.00    +0.000 A 
ATOM     33  H   UNL     1      42.813  29.767  35.746  0.00  0.00    +0.000 HD
ATOM     34  C   UNL     1      43.727  31.492  34.790  0.00  0.00    +0.000 A 
ATOM     35  C   UNL     1      44.575  32.584  34.986  0.00  0.00    +0.000 A 
ENDBRANCH  23  29
ENDBRANCH   6  25
TORSDOF 4
