
 OpenBabel03242522373D

 39 41  0  0  0  0  0  0  0  0999 V2000
   43.6080   35.3030   42.3500 C   0  0  0  0  0  0  0  0  0  0  0  0
   42.5860   35.0880   41.4660 C   0  0  0  0  0  0  0  0  0  0  0  0
   42.8770   34.5020   40.2510 C   0  0  0  0  0  0  0  0  0  0  0  0
   44.1490   34.1140   39.8590 C   0  0  0  0  0  0  0  0  0  0  0  0
   45.1730   34.3460   40.7810 C   0  0  0  0  0  0  0  0  0  0  0  0
   44.8960   34.9300   41.9990 C   0  0  0  0  0  0  0  0  0  0  0  0
   42.0940   34.3190   39.5300 H   0  0  0  0  0  0  0  0  0  0  0  0
   44.3220   33.6600   38.8970 H   0  0  0  0  0  0  0  0  0  0  0  0
   46.1930   34.0660   40.5370 H   0  0  0  0  0  0  0  0  0  0  0  0
   41.1840   35.4620   41.7850 C   0  0  0  0  0  0  0  0  0  0  0  0
   41.1080   35.5680   42.8840 H   0  0  0  0  0  0  0  0  0  0  0  0
   41.0140   36.4820   41.3620 H   0  0  0  0  0  0  0  0  0  0  0  0
   39.1410   32.4340   41.2550 C   0  0  0  0  0  0  0  0  0  0  0  0
   38.3780   32.7860   40.1470 C   0  0  0  0  0  0  0  0  0  0  0  0
   38.5740   34.0460   39.5990 C   0  0  0  0  0  0  0  0  0  0  0  0
   39.4830   34.8690   40.1560 N   0  0  0  0  0  0  0  0  0  0  0  0
   40.2140   34.5050   41.2350 C   0  0  0  0  0  0  0  0  0  0  0  0
   40.0280   33.2990   41.7600 N   0  0  0  0  0  0  0  0  0  0  0  0
   38.9290   31.4320   41.6230 H   0  0  0  0  0  0  0  0  0  0  0  0
   37.6300   32.2150   39.6220 H   0  0  0  0  0  0  0  0  0  0  0  0
   38.0570   34.4600   38.7390 H   0  0  0  0  0  0  0  0  0  0  0  0
   43.3720   35.8820   43.5760 O   0  0  0  0  0  0  0  0  0  0  0  0
   43.8820   36.7240   43.8160 H   0  0  0  0  0  0  0  0  0  0  0  0
   45.9530   35.1300   42.8630 O   0  0  0  0  0  0  0  0  0  0  0  0
   46.8860   34.1160   42.9890 C   0  0  0  0  0  0  0  0  0  0  0  0
   46.4720   32.9390   43.5620 C   0  0  0  0  0  0  0  0  0  0  0  0
   47.3740   31.9050   43.7050 C   0  0  0  0  0  0  0  0  0  0  0  0
   48.6880   32.0370   43.2800 C   0  0  0  0  0  0  0  0  0  0  0  0
   49.0690   33.2450   42.7070 C   0  0  0  0  0  0  0  0  0  0  0  0
   48.1830   34.2980   42.5520 C   0  0  0  0  0  0  0  0  0  0  0  0
   45.4590   32.7860   43.9110 H   0  0  0  0  0  0  0  0  0  0  0  0
   47.1050   30.9490   44.1520 H   0  0  0  0  0  0  0  0  0  0  0  0
   49.4220   31.2320   43.3860 H   0  0  0  0  0  0  0  0  0  0  0  0
   48.6080   35.5100   41.9630 N   0  0  0  0  0  0  0  0  0  0  0  0
   48.6950   35.5600   40.9050 H   0  0  0  0  0  0  0  0  0  0  0  0
   48.7580   36.1550   42.7760 H   0  0  0  0  0  0  0  0  0  0  0  0
   50.4690   33.4710   42.2210 C   0  0  0  0  0  0  0  0  0  0  0  0
   51.0770   32.2790   41.5740 C   0  0  0  0  0  0  0  0  0  0  0  0
   51.8960   31.8180   42.2050 H   0  0  0  0  0  0  0  0  0  0  0  0
  1 22  1  0  0  0  0
  2 10  1  0  0  0  0
  2  1  2  0  0  0  0
  3  2  1  0  0  0  0
  4  3  2  0  0  0  0
  4  5  1  0  0  0  0
  5  6  2  0  0  0  0
  6  1  1  0  0  0  0
  6 24  1  0  0  0  0
  7  3  1  0  0  0  0
  8  4  1  0  0  0  0
  9  5  1  0  0  0  0
 10 11  1  0  0  0  0
 12 10  1  0  0  0  0
 13 19  1  0  0  0  0
 13 18  1  0  0  0  0
 14 13  2  0  0  0  0
 15 14  1  0  0  0  0
 15 16  2  0  0  0  0
 16 17  1  0  0  0  0
 17 18  2  0  0  0  0
 17 10  1  0  0  0  0
 20 14  1  0  0  0  0
 21 15  1  0  0  0  0
 22 23  1  0  0  0  0
 24 25  1  0  0  0  0
 25 26  1  0  0  0  0
 26 27  2  0  0  0  0
 26 31  1  0  0  0  0
 27 32  1  0  0  0  0
 28 33  1  0  0  0  0
 28 27  1  0  0  0  0
 29 28  2  0  0  0  0
 30 29  1  0  0  0  0
 30 25  2  0  0  0  0
 34 30  1  0  0  0  0
 34 36  1  0  0  0  0
 35 34  1  0  0  0  0
 37 29  1  0  0  0  0
 38 39  1  0  0  0  0
 38 37  1  0  0  0  0
M  END
>  <minimizedAffinity>
-6.27495432

>  <minimizedRMSD>
0.45329085

$$$$
