
 OpenBabel03242522383D

 39 41  0  0  0  0  0  0  0  0999 V2000
   36.5490   31.2440   39.9830 C   0  0  0  0  0  0  0  0  0  0  0  0
   37.2220   32.1480   39.2070 C   0  0  0  0  0  0  0  0  0  0  0  0
   37.6000   31.7720   37.9330 C   0  0  0  0  0  0  0  0  0  0  0  0
   37.3440   30.5260   37.3820 C   0  0  0  0  0  0  0  0  0  0  0  0
   36.6560   29.6240   38.1970 C   0  0  0  0  0  0  0  0  0  0  0  0
   36.2710   29.9870   39.4700 C   0  0  0  0  0  0  0  0  0  0  0  0
   38.1340   32.4610   37.2950 H   0  0  0  0  0  0  0  0  0  0  0  0
   37.6620   30.2840   36.3810 H   0  0  0  0  0  0  0  0  0  0  0  0
   36.4230   28.6300   37.8260 H   0  0  0  0  0  0  0  0  0  0  0  0
   37.5460   33.5120   39.6960 C   0  0  0  0  0  0  0  0  0  0  0  0
   37.2160   34.2320   38.9220 H   0  0  0  0  0  0  0  0  0  0  0  0
   36.9020   33.7010   40.5890 H   0  0  0  0  0  0  0  0  0  0  0  0
   40.9300   34.9110   40.1630 C   0  0  0  0  0  0  0  0  0  0  0  0
   41.6160   33.8370   40.7210 C   0  0  0  0  0  0  0  0  0  0  0  0
   40.9160   32.6570   40.9260 C   0  0  0  0  0  0  0  0  0  0  0  0
   39.6140   32.5980   40.5830 N   0  0  0  0  0  0  0  0  0  0  0  0
   38.9670   33.6570   40.0410 C   0  0  0  0  0  0  0  0  0  0  0  0
   39.6370   34.7870   39.8440 N   0  0  0  0  0  0  0  0  0  0  0  0
   41.5490   35.7960   40.0340 H   0  0  0  0  0  0  0  0  0  0  0  0
   42.6460   33.7700   41.0310 H   0  0  0  0  0  0  0  0  0  0  0  0
   41.3130   31.7390   41.3490 H   0  0  0  0  0  0  0  0  0  0  0  0
   36.1480   31.5690   41.2580 O   0  0  0  0  0  0  0  0  0  0  0  0
   36.4590   30.9830   42.0240 H   0  0  0  0  0  0  0  0  0  0  0  0
   35.5950   29.0480   40.2220 O   0  0  0  0  0  0  0  0  0  0  0  0
   36.3220   27.9940   40.7460 C   0  0  0  0  0  0  0  0  0  0  0  0
   36.4550   26.8660   39.9740 C   0  0  0  0  0  0  0  0  0  0  0  0
   37.1730   25.7950   40.4630 C   0  0  0  0  0  0  0  0  0  0  0  0
   37.7600   25.8390   41.7180 C   0  0  0  0  0  0  0  0  0  0  0  0
   37.6030   26.9980   42.4710 C   0  0  0  0  0  0  0  0  0  0  0  0
   36.8870   28.0880   42.0020 C   0  0  0  0  0  0  0  0  0  0  0  0
   36.0140   26.7800   38.9890 H   0  0  0  0  0  0  0  0  0  0  0  0
   37.3100   24.8740   39.8980 H   0  0  0  0  0  0  0  0  0  0  0  0
   38.3320   25.0010   42.1290 H   0  0  0  0  0  0  0  0  0  0  0  0
   36.7510   29.2480   42.7960 N   0  0  0  0  0  0  0  0  0  0  0  0
   37.5640   29.9310   42.8460 H   0  0  0  0  0  0  0  0  0  0  0  0
   35.7860   29.1740   43.2010 H   0  0  0  0  0  0  0  0  0  0  0  0
   38.2060   27.1300   43.8370 C   0  0  0  0  0  2  0  0  0  0  0  0
   39.6170   26.6660   43.9150 C   0  0  0  0  0  2  0  0  0  0  0  0
   39.7210   25.7030   44.5000 H   0  0  0  0  0  0  0  0  0  0  0  0
  1 22  1  0  0  0  0
  2 10  1  0  0  0  0
  2  1  2  0  0  0  0
  3  2  1  0  0  0  0
  4  3  2  0  0  0  0
  4  5  1  0  0  0  0
  5  6  2  0  0  0  0
  6  1  1  0  0  0  0
  6 24  1  0  0  0  0
  7  3  1  0  0  0  0
  8  4  1  0  0  0  0
  9  5  1  0  0  0  0
 10 17  1  0  0  0  0
 10 12  1  0  0  0  0
 11 10  1  0  0  0  0
 13 14  1  0  0  0  0
 14 15  2  0  0  0  0
 14 20  1  0  0  0  0
 15 21  1  0  0  0  0
 16 15  1  0  0  0  0
 17 16  2  0  0  0  0
 18 17  1  0  0  0  0
 18 13  2  0  0  0  0
 19 13  1  0  0  0  0
 22 23  1  0  0  0  0
 24 25  1  0  0  0  0
 25 30  1  0  0  0  0
 26 27  1  0  0  0  0
 26 25  2  0  0  0  0
 27 28  2  0  0  0  0
 28 33  1  0  0  0  0
 28 29  1  0  0  0  0
 29 37  1  0  0  0  0
 30 29  2  0  0  0  0
 30 34  1  0  0  0  0
 31 26  1  0  0  0  0
 32 27  1  0  0  0  0
 34 35  1  0  0  0  0
 34 36  1  0  0  0  0
 37 38  1  0  0  0  0
 38 39  1  0  0  0  0
M  END
>  <minimizedAffinity>
-6.81824684

$$$$

 OpenBabel03242522383D

 39 41  0  0  0  0  0  0  0  0999 V2000
   36.7280   28.0000   41.6570 C   0  0  0  0  0  0  0  0  0  0  0  0
   37.4090   26.9090   42.1250 C   0  0  0  0  0  0  0  0  0  0  0  0
   37.5460   25.8110   41.2980 C   0  0  0  0  0  0  0  0  0  0  0  0
   37.0320   25.7380   40.0120 C   0  0  0  0  0  0  0  0  0  0  0  0
   36.3420   26.8660   39.5610 C   0  0  0  0  0  0  0  0  0  0  0  0
   36.1990   27.9690   40.3760 C   0  0  0  0  0  0  0  0  0  0  0  0
   38.0760   24.9340   41.6370 H   0  0  0  0  0  0  0  0  0  0  0  0
   37.1680   24.8560   39.4080 H   0  0  0  0  0  0  0  0  0  0  0  0
   35.9150   26.8740   38.5630 H   0  0  0  0  0  0  0  0  0  0  0  0
   38.0020   26.8810   43.4860 C   0  0  0  0  0  0  0  0  0  0  0  0
   37.3770   27.5230   44.1370 H   0  0  0  0  0  0  0  0  0  0  0  0
   37.8850   25.8400   43.8740 H   0  0  0  0  0  0  0  0  0  0  0  0
   41.1400   28.7270   42.8760 C   0  0  0  0  0  0  0  0  0  0  0  0
   42.0760   27.9390   43.5380 C   0  0  0  0  0  0  0  0  0  0  0  0
   41.6240   26.7940   44.1780 C   0  0  0  0  0  0  0  0  0  0  0  0
   40.3110   26.4950   44.1350 N   0  0  0  0  0  0  0  0  0  0  0  0
   39.4170   27.2760   43.4840 C   0  0  0  0  0  0  0  0  0  0  0  0
   39.8500   28.3730   42.8710 N   0  0  0  0  0  0  0  0  0  0  0  0
   41.5750   29.6030   42.4010 H   0  0  0  0  0  0  0  0  0  0  0  0
   43.1400   28.0790   43.6380 H   0  0  0  0  0  0  0  0  0  0  0  0
   42.2310   26.0850   44.7310 H   0  0  0  0  0  0  0  0  0  0  0  0
   36.5650   29.1190   42.4400 O   0  0  0  0  0  0  0  0  0  0  0  0
   35.6230   29.4470   42.6200 H   0  0  0  0  0  0  0  0  0  0  0  0
   35.5060   29.0480   39.8690 O   0  0  0  0  0  0  0  0  0  0  0  0
   36.2220   30.0060   39.1730 C   0  0  0  0  0  0  0  0  0  0  0  0
   36.6490   29.6860   37.9070 C   0  0  0  0  0  0  0  0  0  0  0  0
   37.3650   30.6160   37.1820 C   0  0  0  0  0  0  0  0  0  0  0  0
   37.6590   31.8640   37.7100 C   0  0  0  0  0  0  0  0  0  0  0  0
   37.2100   32.1510   38.9940 C   0  0  0  0  0  0  0  0  0  0  0  0
   36.4890   31.2350   39.7430 C   0  0  0  0  0  0  0  0  0  0  0  0
   36.4490   28.7250   37.4510 H   0  0  0  0  0  0  0  0  0  0  0  0
   37.7310   30.4180   36.1760 H   0  0  0  0  0  0  0  0  0  0  0  0
   38.2280   32.6160   37.1550 H   0  0  0  0  0  0  0  0  0  0  0  0
   36.0490   31.5640   41.0440 N   0  0  0  0  0  0  0  0  0  0  0  0
   35.1880   32.1780   41.1520 H   0  0  0  0  0  0  0  0  0  0  0  0
   36.7330   31.0840   41.6790 H   0  0  0  0  0  0  0  0  0  0  0  0
   37.4830   33.4760   39.6400 C   0  0  0  0  0  2  0  0  0  0  0  0
   38.9030   33.6630   40.0430 C   0  0  0  0  0  2  0  0  0  0  0  0
   39.0360   33.6430   41.1660 H   0  0  0  0  0  0  0  0  0  0  0  0
  1  2  1  0  0  0  0
  1 22  1  0  0  0  0
  2 10  1  0  0  0  0
  3  7  1  0  0  0  0
  3  2  2  0  0  0  0
  4  3  1  0  0  0  0
  5  4  2  0  0  0  0
  5  6  1  0  0  0  0
  6  1  2  0  0  0  0
  8  4  1  0  0  0  0
  9  5  1  0  0  0  0
 10 12  1  0  0  0  0
 10 11  1  0  0  0  0
 13 14  1  0  0  0  0
 14 20  1  0  0  0  0
 14 15  2  0  0  0  0
 15 21  1  0  0  0  0
 16 15  1  0  0  0  0
 17 10  1  0  0  0  0
 17 16  2  0  0  0  0
 18 13  2  0  0  0  0
 18 17  1  0  0  0  0
 19 13  1  0  0  0  0
 22 23  1  0  0  0  0
 24  6  1  0  0  0  0
 25 30  1  0  0  0  0
 25 24  1  0  0  0  0
 26 25  2  0  0  0  0
 27 28  2  0  0  0  0
 27 26  1  0  0  0  0
 28 29  1  0  0  0  0
 29 37  1  0  0  0  0
 29 30  2  0  0  0  0
 30 34  1  0  0  0  0
 31 26  1  0  0  0  0
 32 27  1  0  0  0  0
 33 28  1  0  0  0  0
 34 35  1  0  0  0  0
 34 36  1  0  0  0  0
 37 38  1  0  0  0  0
 38 39  1  0  0  0  0
M  END
>  <minimizedAffinity>
-6.51141405

$$$$

 OpenBabel03242522383D

 39 41  0  0  0  0  0  0  0  0999 V2000
   36.3950   30.9800   39.9760 C   0  0  0  0  0  0  0  0  0  0  0  0
   37.1020   31.9590   39.3320 C   0  0  0  0  0  0  0  0  0  0  0  0
   37.5820   31.7000   38.0630 C   0  0  0  0  0  0  0  0  0  0  0  0
   37.3960   30.5010   37.3920 C   0  0  0  0  0  0  0  0  0  0  0  0
   36.6710   29.5210   38.0730 C   0  0  0  0  0  0  0  0  0  0  0  0
   36.1850   29.7670   39.3400 C   0  0  0  0  0  0  0  0  0  0  0  0
   38.1450   32.4500   37.5280 H   0  0  0  0  0  0  0  0  0  0  0  0
   37.7930   30.3510   36.4010 H   0  0  0  0  0  0  0  0  0  0  0  0
   36.4890   28.5600   37.6030 H   0  0  0  0  0  0  0  0  0  0  0  0
   37.3570   33.2810   39.9580 C   0  0  0  0  0  0  0  0  0  0  0  0
   36.8810   34.0510   39.3190 H   0  0  0  0  0  0  0  0  0  0  0  0
   36.8020   33.2970   40.9270 H   0  0  0  0  0  0  0  0  0  0  0  0
   40.6650   34.9110   40.1130 C   0  0  0  0  0  0  0  0  0  0  0  0
   41.4680   33.8960   40.6210 C   0  0  0  0  0  0  0  0  0  0  0  0
   40.8710   32.6740   40.8990 C   0  0  0  0  0  0  0  0  0  0  0  0
   39.5510   32.5230   40.6720 N   0  0  0  0  0  0  0  0  0  0  0  0
   38.7890   33.5260   40.1760 C   0  0  0  0  0  0  0  0  0  0  0  0
   39.3610   34.6960   39.9090 N   0  0  0  0  0  0  0  0  0  0  0  0
   41.2090   35.8340   39.9210 H   0  0  0  0  0  0  0  0  0  0  0  0
   42.5230   33.9030   40.8410 H   0  0  0  0  0  0  0  0  0  0  0  0
   41.3640   31.7930   41.2970 H   0  0  0  0  0  0  0  0  0  0  0  0
   35.8920   31.1870   41.2400 O   0  0  0  0  0  0  0  0  0  0  0  0
   36.1590   30.5430   41.9750 H   0  0  0  0  0  0  0  0  0  0  0  0
   35.4770   28.7560   39.9560 O   0  0  0  0  0  0  0  0  0  0  0  0
   36.1910   27.8030   40.6600 C   0  0  0  0  0  0  0  0  0  0  0  0
   36.5710   28.1110   41.9430 C   0  0  0  0  0  0  0  0  0  0  0  0
   37.2840   27.1870   42.6770 C   0  0  0  0  0  0  0  0  0  0  0  0
   37.6230   25.9540   42.1390 C   0  0  0  0  0  0  0  0  0  0  0  0
   37.2220   25.6790   40.8360 C   0  0  0  0  0  0  0  0  0  0  0  0
   36.5050   26.5900   40.0790 C   0  0  0  0  0  0  0  0  0  0  0  0
   36.3340   29.0600   42.4080 H   0  0  0  0  0  0  0  0  0  0  0  0
   37.6140   27.3750   43.6970 H   0  0  0  0  0  0  0  0  0  0  0  0
   38.1910   25.2050   42.7000 H   0  0  0  0  0  0  0  0  0  0  0  0
   36.1140   26.2730   38.7590 N   0  0  0  0  0  0  0  0  0  0  0  0
   35.2720   25.6410   38.6140 H   0  0  0  0  0  0  0  0  0  0  0  0
   36.8080   26.7780   38.1550 H   0  0  0  0  0  0  0  0  0  0  0  0
   37.5470   24.3710   40.1790 C   0  0  0  0  0  2  0  0  0  0  0  0
   39.0050   24.1240   40.0260 C   0  0  0  0  0  2  0  0  0  0  0  0
   39.3410   24.1870   38.9480 H   0  0  0  0  0  0  0  0  0  0  0  0
  1 22  1  0  0  0  0
  2 10  1  0  0  0  0
  2  1  2  0  0  0  0
  3  2  1  0  0  0  0
  4  3  2  0  0  0  0
  4  5  1  0  0  0  0
  5  6  2  0  0  0  0
  6 24  1  0  0  0  0
  6  1  1  0  0  0  0
  7  3  1  0  0  0  0
  8  4  1  0  0  0  0
  9  5  1  0  0  0  0
 10 17  1  0  0  0  0
 10 12  1  0  0  0  0
 11 10  1  0  0  0  0
 13 14  1  0  0  0  0
 14 20  1  0  0  0  0
 14 15  2  0  0  0  0
 15 21  1  0  0  0  0
 16 15  1  0  0  0  0
 17 16  2  0  0  0  0
 18 13  2  0  0  0  0
 18 17  1  0  0  0  0
 19 13  1  0  0  0  0
 22 23  1  0  0  0  0
 24 25  1  0  0  0  0
 25 26  1  0  0  0  0
 26 31  1  0  0  0  0
 26 27  2  0  0  0  0
 27 32  1  0  0  0  0
 28 27  1  0  0  0  0
 28 33  1  0  0  0  0
 29 28  2  0  0  0  0
 30 25  2  0  0  0  0
 30 29  1  0  0  0  0
 34 30  1  0  0  0  0
 35 34  1  0  0  0  0
 36 34  1  0  0  0  0
 37 29  1  0  0  0  0
 38 37  1  0  0  0  0
 39 38  1  0  0  0  0
M  END
>  <minimizedAffinity>
-6.18133354

$$$$

 OpenBabel03242522383D

 39 41  0  0  0  0  0  0  0  0999 V2000
   37.4390   29.1810   42.1630 C   0  0  0  0  0  0  0  0  0  0  0  0
   38.4870   28.6390   42.8560 C   0  0  0  0  0  0  0  0  0  0  0  0
   39.7240   29.2460   42.7630 C   0  0  0  0  0  0  0  0  0  0  0  0
   39.9790   30.3790   42.0050 C   0  0  0  0  0  0  0  0  0  0  0  0
   38.8910   30.9090   41.3080 C   0  0  0  0  0  0  0  0  0  0  0  0
   37.6500   30.3140   41.3930 C   0  0  0  0  0  0  0  0  0  0  0  0
   40.5720   28.8440   43.2960 H   0  0  0  0  0  0  0  0  0  0  0  0
   40.9650   30.8130   41.9670 H   0  0  0  0  0  0  0  0  0  0  0  0
   39.0230   31.7960   40.6960 H   0  0  0  0  0  0  0  0  0  0  0  0
   38.3250   27.4290   43.7010 C   0  0  0  0  0  0  0  0  0  0  0  0
   39.1340   27.4390   44.4580 H   0  0  0  0  0  0  0  0  0  0  0  0
   37.3700   27.5510   44.2680 H   0  0  0  0  0  0  0  0  0  0  0  0
   39.3790   24.3990   41.8760 C   0  0  0  0  0  0  0  0  0  0  0  0
   38.1660   23.8930   41.4220 C   0  0  0  0  0  0  0  0  0  0  0  0
   37.0110   24.5930   41.7440 C   0  0  0  0  0  0  0  0  0  0  0  0
   37.1100   25.7200   42.4760 N   0  0  0  0  0  0  0  0  0  0  0  0
   38.3030   26.1940   42.9070 C   0  0  0  0  0  0  0  0  0  0  0  0
   39.4090   25.5240   42.5990 N   0  0  0  0  0  0  0  0  0  0  0  0
   40.2340   23.7940   41.5810 H   0  0  0  0  0  0  0  0  0  0  0  0
   37.9680   23.0100   40.8370 H   0  0  0  0  0  0  0  0  0  0  0  0
   35.9980   24.3250   41.4630 H   0  0  0  0  0  0  0  0  0  0  0  0
   36.1860   28.6160   42.2230 O   0  0  0  0  0  0  0  0  0  0  0  0
   35.7420   28.3370   41.3560 H   0  0  0  0  0  0  0  0  0  0  0  0
   36.6190   30.8890   40.6800 O   0  0  0  0  0  0  0  0  0  0  0  0
   36.3750   30.4180   39.4020 C   0  0  0  0  0  0  0  0  0  0  0  0
   37.2760   30.7490   38.4200 C   0  0  0  0  0  0  0  0  0  0  0  0
   37.0660   30.2980   37.1330 C   0  0  0  0  0  0  0  0  0  0  0  0
   35.9630   29.5180   36.8180 C   0  0  0  0  0  0  0  0  0  0  0  0
   35.0740   29.2050   37.8400 C   0  0  0  0  0  0  0  0  0  0  0  0
   35.2620   29.6450   39.1400 C   0  0  0  0  0  0  0  0  0  0  0  0
   38.1510   31.3570   38.6120 H   0  0  0  0  0  0  0  0  0  0  0  0
   37.7450   30.5290   36.3130 H   0  0  0  0  0  0  0  0  0  0  0  0
   35.7750   29.1510   35.8050 H   0  0  0  0  0  0  0  0  0  0  0  0
   34.3360   29.3050   40.1510 N   0  0  0  0  0  0  0  0  0  0  0  0
   34.3820   28.3340   40.5800 H   0  0  0  0  0  0  0  0  0  0  0  0
   33.7490   30.1680   40.2670 H   0  0  0  0  0  0  0  0  0  0  0  0
   33.8570   28.3670   37.5860 C   0  0  0  0  0  2  0  0  0  0  0  0
   32.7760   29.0870   36.8620 C   0  0  0  0  0  2  0  0  0  0  0  0
   31.8850   29.3040   37.5240 H   0  0  0  0  0  0  0  0  0  0  0  0
  1 22  1  0  0  0  0
  1  2  1  0  0  0  0
  2 10  1  0  0  0  0
  3  2  2  0  0  0  0
  3  7  1  0  0  0  0
  4  3  1  0  0  0  0
  5  6  1  0  0  0  0
  5  4  2  0  0  0  0
  6  1  2  0  0  0  0
  8  4  1  0  0  0  0
  9  5  1  0  0  0  0
 10 12  1  0  0  0  0
 10 11  1  0  0  0  0
 13 18  1  0  0  0  0
 14 15  1  0  0  0  0
 14 13  2  0  0  0  0
 15 16  2  0  0  0  0
 16 17  1  0  0  0  0
 17 10  1  0  0  0  0
 18 17  2  0  0  0  0
 19 13  1  0  0  0  0
 20 14  1  0  0  0  0
 21 15  1  0  0  0  0
 23 22  1  0  0  0  0
 24  6  1  0  0  0  0
 25 24  1  0  0  0  0
 26 31  1  0  0  0  0
 26 25  2  0  0  0  0
 27 26  1  0  0  0  0
 28 27  2  0  0  0  0
 28 29  1  0  0  0  0
 29 30  2  0  0  0  0
 30 25  1  0  0  0  0
 30 34  1  0  0  0  0
 32 27  1  0  0  0  0
 33 28  1  0  0  0  0
 34 36  1  0  0  0  0
 34 35  1  0  0  0  0
 37 29  1  0  0  0  0
 38 39  1  0  0  0  0
 38 37  1  0  0  0  0
M  END
>  <minimizedAffinity>
-6.10400438

$$$$

 OpenBabel03242522383D

 39 41  0  0  0  0  0  0  0  0999 V2000
   35.0990   29.5500   39.1940 C   0  0  0  0  0  0  0  0  0  0  0  0
   34.9290   29.1230   37.9050 C   0  0  0  0  0  0  0  0  0  0  0  0
   35.9000   29.4320   36.9730 C   0  0  0  0  0  0  0  0  0  0  0  0
   37.0480   30.1540   37.2580 C   0  0  0  0  0  0  0  0  0  0  0  0
   37.1960   30.5770   38.5810 C   0  0  0  0  0  0  0  0  0  0  0  0
   36.2340   30.2750   39.5210 C   0  0  0  0  0  0  0  0  0  0  0  0
   35.7950   29.1110   35.9470 H   0  0  0  0  0  0  0  0  0  0  0  0
   37.7760   30.3680   36.4920 H   0  0  0  0  0  0  0  0  0  0  0  0
   38.0730   31.1480   38.8710 H   0  0  0  0  0  0  0  0  0  0  0  0
   33.7370   28.3390   37.4910 C   0  0  0  0  0  0  0  0  0  0  0  0
   34.0620   27.6260   36.7080 H   0  0  0  0  0  0  0  0  0  0  0  0
   33.4330   27.7180   38.3680 H   0  0  0  0  0  0  0  0  0  0  0  0
   31.4720   30.3730   35.4050 C   0  0  0  0  0  0  0  0  0  0  0  0
   30.5250   30.8000   36.3310 C   0  0  0  0  0  0  0  0  0  0  0  0
   30.6760   30.3890   37.6480 C   0  0  0  0  0  0  0  0  0  0  0  0
   31.7190   29.6010   37.9740 N   0  0  0  0  0  0  0  0  0  0  0  0
   32.6290   29.1990   37.0550 C   0  0  0  0  0  0  0  0  0  0  0  0
   32.4850   29.5920   35.7940 N   0  0  0  0  0  0  0  0  0  0  0  0
   31.2830   30.7390   34.3980 H   0  0  0  0  0  0  0  0  0  0  0  0
   29.6590   31.4240   36.1860 H   0  0  0  0  0  0  0  0  0  0  0  0
   30.0230   30.6390   38.4780 H   0  0  0  0  0  0  0  0  0  0  0  0
   34.1630   29.2670   40.1610 O   0  0  0  0  0  0  0  0  0  0  0  0
   33.7490   30.0390   40.6700 H   0  0  0  0  0  0  0  0  0  0  0  0
   36.4420   30.7230   40.8100 O   0  0  0  0  0  0  0  0  0  0  0  0
   37.5320   30.2230   41.5000 C   0  0  0  0  0  0  0  0  0  0  0  0
   38.7110   30.9240   41.4210 C   0  0  0  0  0  0  0  0  0  0  0  0
   39.8200   30.4570   42.0950 C   0  0  0  0  0  0  0  0  0  0  0  0
   39.7620   29.2940   42.8490 C   0  0  0  0  0  0  0  0  0  0  0  0
   38.5520   28.6120   42.9040 C   0  0  0  0  0  0  0  0  0  0  0  0
   37.4240   29.0600   42.2360 C   0  0  0  0  0  0  0  0  0  0  0  0
   38.8090   31.8350   40.8440 H   0  0  0  0  0  0  0  0  0  0  0  0
   40.7810   30.9690   42.0690 H   0  0  0  0  0  0  0  0  0  0  0  0
   40.6290   28.9030   43.3900 H   0  0  0  0  0  0  0  0  0  0  0  0
   36.2120   28.3400   42.3170 N   0  0  0  0  0  0  0  0  0  0  0  0
   35.6130   28.4440   43.1900 H   0  0  0  0  0  0  0  0  0  0  0  0
   36.1630   27.8100   41.4130 H   0  0  0  0  0  0  0  0  0  0  0  0
   38.4030   27.3480   43.6960 C   0  0  0  0  0  2  0  0  0  0  0  0
   39.6810   26.6160   43.8990 C   0  0  0  0  0  2  0  0  0  0  0  0
   39.7260   25.6550   43.3020 H   0  0  0  0  0  0  0  0  0  0  0  0
  1  6  1  0  0  0  0
  1 22  1  0  0  0  0
  2  1  2  0  0  0  0
  3  4  2  0  0  0  0
  3  2  1  0  0  0  0
  4  5  1  0  0  0  0
  5  9  1  0  0  0  0
  5  6  2  0  0  0  0
  6 24  1  0  0  0  0
  7  3  1  0  0  0  0
  8  4  1  0  0  0  0
 10  2  1  0  0  0  0
 10 12  1  0  0  0  0
 11 10  1  0  0  0  0
 13 18  2  0  0  0  0
 13 14  1  0  0  0  0
 14 15  2  0  0  0  0
 15 16  1  0  0  0  0
 15 21  1  0  0  0  0
 17 10  1  0  0  0  0
 17 16  2  0  0  0  0
 18 17  1  0  0  0  0
 19 13  1  0  0  0  0
 20 14  1  0  0  0  0
 22 23  1  0  0  0  0
 24 25  1  0  0  0  0
 25 30  1  0  0  0  0
 26 25  2  0  0  0  0
 26 27  1  0  0  0  0
 27 28  2  0  0  0  0
 28 29  1  0  0  0  0
 28 33  1  0  0  0  0
 29 37  1  0  0  0  0
 30 34  1  0  0  0  0
 30 29  2  0  0  0  0
 31 26  1  0  0  0  0
 32 27  1  0  0  0  0
 34 35  1  0  0  0  0
 36 34  1  0  0  0  0
 37 38  1  0  0  0  0
 39 38  1  0  0  0  0
M  END
>  <minimizedAffinity>
-5.98541498

$$$$

 OpenBabel03242522383D

 39 41  0  0  0  0  0  0  0  0999 V2000
   36.6680   29.5120   41.2200 C   0  0  0  0  0  0  0  0  0  0  0  0
   36.6940   30.2380   40.0600 C   0  0  0  0  0  0  0  0  0  0  0  0
   36.4870   29.5790   38.8650 C   0  0  0  0  0  0  0  0  0  0  0  0
   36.2550   28.2160   38.7580 C   0  0  0  0  0  0  0  0  0  0  0  0
   36.2350   27.5010   39.9580 C   0  0  0  0  0  0  0  0  0  0  0  0
   36.4390   28.1470   41.1590 C   0  0  0  0  0  0  0  0  0  0  0  0
   36.5020   30.1220   37.9320 H   0  0  0  0  0  0  0  0  0  0  0  0
   36.0990   27.7510   37.7980 H   0  0  0  0  0  0  0  0  0  0  0  0
   36.0580   26.4300   39.9450 H   0  0  0  0  0  0  0  0  0  0  0  0
   36.9310   31.7040   40.0590 C   0  0  0  0  0  0  0  0  0  0  0  0
   36.3290   32.1400   39.2380 H   0  0  0  0  0  0  0  0  0  0  0  0
   36.4980   32.1070   41.0070 H   0  0  0  0  0  0  0  0  0  0  0  0
   40.2420   32.6350   38.7200 C   0  0  0  0  0  0  0  0  0  0  0  0
   41.0280   32.6520   39.8680 C   0  0  0  0  0  0  0  0  0  0  0  0
   40.4170   32.3450   41.0760 C   0  0  0  0  0  0  0  0  0  0  0  0
   39.1030   32.0480   41.0890 N   0  0  0  0  0  0  0  0  0  0  0  0
   38.3580   32.0370   39.9590 C   0  0  0  0  0  0  0  0  0  0  0  0
   38.9420   32.3310   38.8020 N   0  0  0  0  0  0  0  0  0  0  0  0
   40.7950   32.8860   37.8170 H   0  0  0  0  0  0  0  0  0  0  0  0
   42.0770   32.8730   39.9760 H   0  0  0  0  0  0  0  0  0  0  0  0
   40.8970   32.3160   42.0490 H   0  0  0  0  0  0  0  0  0  0  0  0
   36.8670   30.1210   42.4390 O   0  0  0  0  0  0  0  0  0  0  0  0
   37.6150   29.7800   43.0300 H   0  0  0  0  0  0  0  0  0  0  0  0
   36.4060   27.3810   42.3060 O   0  0  0  0  0  0  0  0  0  0  0  0
   37.3810   26.4130   42.4650 C   0  0  0  0  0  0  0  0  0  0  0  0
   37.0860   25.1380   42.0510 C   0  0  0  0  0  0  0  0  0  0  0  0
   38.0330   24.1450   42.1930 C   0  0  0  0  0  0  0  0  0  0  0  0
   39.2750   24.4160   42.7470 C   0  0  0  0  0  0  0  0  0  0  0  0
   39.5370   25.7190   43.1550 C   0  0  0  0  0  0  0  0  0  0  0  0
   38.6030   26.7330   43.0230 C   0  0  0  0  0  0  0  0  0  0  0  0
   36.1300   24.8740   41.6150 H   0  0  0  0  0  0  0  0  0  0  0  0
   37.8550   23.1160   41.8850 H   0  0  0  0  0  0  0  0  0  0  0  0
   40.0420   23.6450   42.8730 H   0  0  0  0  0  0  0  0  0  0  0  0
   38.9070   28.0450   43.4490 N   0  0  0  0  0  0  0  0  0  0  0  0
   39.5110   28.6580   42.8250 H   0  0  0  0  0  0  0  0  0  0  0  0
   38.4230   28.1360   44.3760 H   0  0  0  0  0  0  0  0  0  0  0  0
   40.8540   26.0970   43.7630 C   0  0  0  0  0  2  0  0  0  0  0  0
   42.0150   25.3850   43.1650 C   0  0  0  0  0  2  0  0  0  0  0  0
   42.4640   24.6250   43.8740 H   0  0  0  0  0  0  0  0  0  0  0  0
  1 22  1  0  0  0  0
  2  1  2  0  0  0  0
  3  2  1  0  0  0  0
  4  3  2  0  0  0  0
  4  5  1  0  0  0  0
  5  6  2  0  0  0  0
  6  1  1  0  0  0  0
  6 24  1  0  0  0  0
  7  3  1  0  0  0  0
  8  4  1  0  0  0  0
  9  5  1  0  0  0  0
 10  2  1  0  0  0  0
 10 12  1  0  0  0  0
 11 10  1  0  0  0  0
 13 18  2  0  0  0  0
 13 14  1  0  0  0  0
 14 20  1  0  0  0  0
 14 15  2  0  0  0  0
 15 16  1  0  0  0  0
 15 21  1  0  0  0  0
 17 10  1  0  0  0  0
 17 16  2  0  0  0  0
 18 17  1  0  0  0  0
 19 13  1  0  0  0  0
 22 23  1  0  0  0  0
 24 25  1  0  0  0  0
 25 30  1  0  0  0  0
 26 27  1  0  0  0  0
 26 25  2  0  0  0  0
 27 28  2  0  0  0  0
 28 33  1  0  0  0  0
 28 29  1  0  0  0  0
 29 37  1  0  0  0  0
 30 29  2  0  0  0  0
 30 34  1  0  0  0  0
 31 26  1  0  0  0  0
 32 27  1  0  0  0  0
 34 36  1  0  0  0  0
 35 34  1  0  0  0  0
 38 37  1  0  0  0  0
 38 39  1  0  0  0  0
M  END
>  <minimizedAffinity>
-5.9830389

$$$$

 OpenBabel03242522383D

 39 41  0  0  0  0  0  0  0  0999 V2000
   37.3650   29.0730   42.2260 C   0  0  0  0  0  0  0  0  0  0  0  0
   38.4680   28.5540   42.8480 C   0  0  0  0  0  0  0  0  0  0  0  0
   39.6760   29.2070   42.7040 C   0  0  0  0  0  0  0  0  0  0  0  0
   39.8490   30.3650   41.9620 C   0  0  0  0  0  0  0  0  0  0  0  0
   38.7070   30.8720   41.3380 C   0  0  0  0  0  0  0  0  0  0  0  0
   37.4940   30.2300   41.4750 C   0  0  0  0  0  0  0  0  0  0  0  0
   40.5650   28.8230   43.1810 H   0  0  0  0  0  0  0  0  0  0  0  0
   40.8160   30.8350   41.8820 H   0  0  0  0  0  0  0  0  0  0  0  0
   38.7740   31.7770   40.7420 H   0  0  0  0  0  0  0  0  0  0  0  0
   38.3940   27.3190   43.6700 C   0  0  0  0  0  0  0  0  0  0  0  0
   39.2760   27.3110   44.3400 H   0  0  0  0  0  0  0  0  0  0  0  0
   37.5020   27.4210   44.3340 H   0  0  0  0  0  0  0  0  0  0  0  0
   37.0400   24.4750   41.7460 C   0  0  0  0  0  0  0  0  0  0  0  0
   38.1970   23.8450   41.3020 C   0  0  0  0  0  0  0  0  0  0  0  0
   39.4170   24.3970   41.6670 C   0  0  0  0  0  0  0  0  0  0  0  0
   39.4320   25.5100   42.4260 N   0  0  0  0  0  0  0  0  0  0  0  0
   38.2920   26.1070   42.8470 C   0  0  0  0  0  0  0  0  0  0  0  0
   37.1240   25.5780   42.4980 N   0  0  0  0  0  0  0  0  0  0  0  0
   36.1280   23.9800   41.4180 H   0  0  0  0  0  0  0  0  0  0  0  0
   38.3050   22.9600   40.6970 H   0  0  0  0  0  0  0  0  0  0  0  0
   40.3990   24.0200   41.3990 H   0  0  0  0  0  0  0  0  0  0  0  0
   36.1370   28.4620   42.3390 O   0  0  0  0  0  0  0  0  0  0  0  0
   35.6570   28.1880   41.4910 H   0  0  0  0  0  0  0  0  0  0  0  0
   36.4060   30.7840   40.8330 O   0  0  0  0  0  0  0  0  0  0  0  0
   35.9620   30.1770   39.6720 C   0  0  0  0  0  0  0  0  0  0  0  0
   34.8910   29.3240   39.7690 C   0  0  0  0  0  0  0  0  0  0  0  0
   34.4200   28.7000   38.6330 C   0  0  0  0  0  0  0  0  0  0  0  0
   35.0110   28.9200   37.3980 C   0  0  0  0  0  0  0  0  0  0  0  0
   36.0940   29.7890   37.3400 C   0  0  0  0  0  0  0  0  0  0  0  0
   36.5860   30.4290   38.4660 C   0  0  0  0  0  0  0  0  0  0  0  0
   34.3960   29.1160   40.7100 H   0  0  0  0  0  0  0  0  0  0  0  0
   33.5750   28.0130   38.6490 H   0  0  0  0  0  0  0  0  0  0  0  0
   34.6570   28.4340   36.4830 H   0  0  0  0  0  0  0  0  0  0  0  0
   37.6880   31.3060   38.3650 N   0  0  0  0  0  0  0  0  0  0  0  0
   37.5250   32.2920   38.0010 H   0  0  0  0  0  0  0  0  0  0  0  0
   38.5030   30.7400   38.7050 H   0  0  0  0  0  0  0  0  0  0  0  0
   36.7900   30.0840   36.0450 C   0  0  0  0  0  2  0  0  0  0  0  0
   36.5910   29.0360   35.0080 C   0  0  0  0  0  2  0  0  0  0  0  0
   37.5340   28.4410   34.8120 H   0  0  0  0  0  0  0  0  0  0  0  0
  1 22  1  0  0  0  0
  1  2  1  0  0  0  0
  2 10  1  0  0  0  0
  3  2  2  0  0  0  0
  3  7  1  0  0  0  0
  4  3  1  0  0  0  0
  5  6  1  0  0  0  0
  5  4  2  0  0  0  0
  6  1  2  0  0  0  0
  8  4  1  0  0  0  0
  9  5  1  0  0  0  0
 10 12  1  0  0  0  0
 10 11  1  0  0  0  0
 13 18  1  0  0  0  0
 14 15  1  0  0  0  0
 14 13  2  0  0  0  0
 15 16  2  0  0  0  0
 16 17  1  0  0  0  0
 17 10  1  0  0  0  0
 18 17  2  0  0  0  0
 19 13  1  0  0  0  0
 20 14  1  0  0  0  0
 21 15  1  0  0  0  0
 23 22  1  0  0  0  0
 24  6  1  0  0  0  0
 25 26  1  0  0  0  0
 25 24  1  0  0  0  0
 26 31  1  0  0  0  0
 27 32  1  0  0  0  0
 27 26  2  0  0  0  0
 28 27  1  0  0  0  0
 29 28  2  0  0  0  0
 29 30  1  0  0  0  0
 30 25  2  0  0  0  0
 33 28  1  0  0  0  0
 34 30  1  0  0  0  0
 34 36  1  0  0  0  0
 35 34  1  0  0  0  0
 37 29  1  0  0  0  0
 38 37  1  0  0  0  0
 39 38  1  0  0  0  0
M  END
>  <minimizedAffinity>
-5.94227314

$$$$

 OpenBabel03242522383D

 39 41  0  0  0  0  0  0  0  0999 V2000
   39.4100   32.7670   40.3770 C   0  0  0  0  0  0  0  0  0  0  0  0
   40.1730   33.1670   39.3140 C   0  0  0  0  0  0  0  0  0  0  0  0
   40.3090   32.3120   38.2380 C   0  0  0  0  0  0  0  0  0  0  0  0
   39.7190   31.0590   38.1630 C   0  0  0  0  0  0  0  0  0  0  0  0
   38.9470   30.6770   39.2610 C   0  0  0  0  0  0  0  0  0  0  0  0
   38.8020   31.5220   40.3410 C   0  0  0  0  0  0  0  0  0  0  0  0
   40.9050   32.5970   37.3840 H   0  0  0  0  0  0  0  0  0  0  0  0
   39.8570   30.4300   37.2990 H   0  0  0  0  0  0  0  0  0  0  0  0
   38.4570   29.7080   39.2660 H   0  0  0  0  0  0  0  0  0  0  0  0
   40.8470   34.4900   39.2890 C   0  0  0  0  0  0  0  0  0  0  0  0
   40.9180   34.8100   38.2310 H   0  0  0  0  0  0  0  0  0  0  0  0
   40.1600   35.2180   39.7860 H   0  0  0  0  0  0  0  0  0  0  0  0
   44.4390   34.0080   39.9900 C   0  0  0  0  0  0  0  0  0  0  0  0
   44.5440   34.4540   41.3030 C   0  0  0  0  0  0  0  0  0  0  0  0
   43.3900   34.9100   41.9260 C   0  0  0  0  0  0  0  0  0  0  0  0
   42.2290   34.9030   41.2430 N   0  0  0  0  0  0  0  0  0  0  0  0
   42.1510   34.4630   39.9650 C   0  0  0  0  0  0  0  0  0  0  0  0
   43.2550   34.0270   39.3680 N   0  0  0  0  0  0  0  0  0  0  0  0
   45.3850   33.6680   39.5750 H   0  0  0  0  0  0  0  0  0  0  0  0
   45.4100   34.5050   41.9410 H   0  0  0  0  0  0  0  0  0  0  0  0
   43.3140   35.2870   42.9420 H   0  0  0  0  0  0  0  0  0  0  0  0
   39.2410   33.5820   41.4720 O   0  0  0  0  0  0  0  0  0  0  0  0
   39.5000   33.2230   42.3830 H   0  0  0  0  0  0  0  0  0  0  0  0
   38.0250   31.0820   41.3930 O   0  0  0  0  0  0  0  0  0  0  0  0
   38.3460   29.8660   41.9700 C   0  0  0  0  0  0  0  0  0  0  0  0
   39.6260   29.7030   42.4400 C   0  0  0  0  0  0  0  0  0  0  0  0
   39.9840   28.5050   43.0210 C   0  0  0  0  0  0  0  0  0  0  0  0
   39.0730   27.4650   43.1380 C   0  0  0  0  0  0  0  0  0  0  0  0
   37.7880   27.6680   42.6490 C   0  0  0  0  0  0  0  0  0  0  0  0
   37.4040   28.8620   42.0610 C   0  0  0  0  0  0  0  0  0  0  0  0
   40.3750   30.4820   42.3710 H   0  0  0  0  0  0  0  0  0  0  0  0
   40.9840   28.3170   43.4100 H   0  0  0  0  0  0  0  0  0  0  0  0
   39.3350   26.5050   43.5930 H   0  0  0  0  0  0  0  0  0  0  0  0
   36.0870   29.0300   41.5780 N   0  0  0  0  0  0  0  0  0  0  0  0
   35.3100   29.2390   42.2730 H   0  0  0  0  0  0  0  0  0  0  0  0
   36.1720   28.8990   40.5400 H   0  0  0  0  0  0  0  0  0  0  0  0
   36.7420   26.5970   42.7360 C   0  0  0  0  0  2  0  0  0  0  0  0
   37.1760   25.2910   42.1720 C   0  0  0  0  0  2  0  0  0  0  0  0
   36.6470   25.0430   41.2030 H   0  0  0  0  0  0  0  0  0  0  0  0
  1 22  1  0  0  0  0
  2  1  2  0  0  0  0
  3  2  1  0  0  0  0
  4  3  2  0  0  0  0
  4  5  1  0  0  0  0
  5  9  1  0  0  0  0
  5  6  2  0  0  0  0
  6  1  1  0  0  0  0
  6 24  1  0  0  0  0
  7  3  1  0  0  0  0
  8  4  1  0  0  0  0
 10  2  1  0  0  0  0
 10 12  1  0  0  0  0
 10 17  1  0  0  0  0
 11 10  1  0  0  0  0
 13 14  1  0  0  0  0
 14 15  2  0  0  0  0
 14 20  1  0  0  0  0
 15 21  1  0  0  0  0
 16 15  1  0  0  0  0
 17 16  2  0  0  0  0
 18 17  1  0  0  0  0
 18 13  2  0  0  0  0
 19 13  1  0  0  0  0
 22 23  1  0  0  0  0
 24 25  1  0  0  0  0
 25 30  2  0  0  0  0
 25 26  1  0  0  0  0
 26 27  2  0  0  0  0
 27 28  1  0  0  0  0
 27 32  1  0  0  0  0
 28 33  1  0  0  0  0
 29 37  1  0  0  0  0
 29 28  2  0  0  0  0
 30 29  1  0  0  0  0
 31 26  1  0  0  0  0
 34 30  1  0  0  0  0
 34 35  1  0  0  0  0
 36 34  1  0  0  0  0
 38 37  1  0  0  0  0
 39 38  1  0  0  0  0
M  END
>  <minimizedAffinity>
-5.88265514

$$$$

 OpenBabel03242522383D

 39 41  0  0  0  0  0  0  0  0999 V2000
   36.6050   28.4500   41.3350 C   0  0  0  0  0  0  0  0  0  0  0  0
   37.0840   27.3340   41.9650 C   0  0  0  0  0  0  0  0  0  0  0  0
   37.1150   26.1430   41.2670 C   0  0  0  0  0  0  0  0  0  0  0  0
   36.6870   25.9990   39.9570 C   0  0  0  0  0  0  0  0  0  0  0  0
   36.2020   27.1540   39.3390 C   0  0  0  0  0  0  0  0  0  0  0  0
   36.1670   28.3500   40.0240 C   0  0  0  0  0  0  0  0  0  0  0  0
   37.4860   25.2440   41.7360 H   0  0  0  0  0  0  0  0  0  0  0  0
   36.7320   25.0450   39.4580 H   0  0  0  0  0  0  0  0  0  0  0  0
   35.8510   27.1100   38.3120 H   0  0  0  0  0  0  0  0  0  0  0  0
   37.5720   27.3770   43.3670 C   0  0  0  0  0  0  0  0  0  0  0  0
   37.0450   28.2050   43.8800 H   0  0  0  0  0  0  0  0  0  0  0  0
   37.2280   26.4370   43.8630 H   0  0  0  0  0  0  0  0  0  0  0  0
   41.1220   26.7220   44.1390 C   0  0  0  0  0  0  0  0  0  0  0  0
   41.7570   27.8000   43.5330 C   0  0  0  0  0  0  0  0  0  0  0  0
   40.9670   28.7310   42.8740 C   0  0  0  0  0  0  0  0  0  0  0  0
   39.6310   28.5550   42.8460 N   0  0  0  0  0  0  0  0  0  0  0  0
   39.0350   27.4970   43.4440 C   0  0  0  0  0  0  0  0  0  0  0  0
   39.7910   26.6060   44.0760 N   0  0  0  0  0  0  0  0  0  0  0  0
   41.8110   26.0400   44.6340 H   0  0  0  0  0  0  0  0  0  0  0  0
   42.8070   28.0400   43.4900 H   0  0  0  0  0  0  0  0  0  0  0  0
   41.3160   29.6190   42.3570 H   0  0  0  0  0  0  0  0  0  0  0  0
   36.5550   29.6620   41.9840 O   0  0  0  0  0  0  0  0  0  0  0  0
   35.6620   30.1350   42.0500 H   0  0  0  0  0  0  0  0  0  0  0  0
   35.6770   29.4520   39.3540 O   0  0  0  0  0  0  0  0  0  0  0  0
   35.2020   29.2680   38.0670 C   0  0  0  0  0  0  0  0  0  0  0  0
   33.8980   28.8640   37.9220 C   0  0  0  0  0  0  0  0  0  0  0  0
   33.3890   28.6710   36.6540 C   0  0  0  0  0  0  0  0  0  0  0  0
   34.1730   28.8760   35.5290 C   0  0  0  0  0  0  0  0  0  0  0  0
   35.4890   29.2840   35.7170 C   0  0  0  0  0  0  0  0  0  0  0  0
   36.0230   29.4860   36.9790 C   0  0  0  0  0  0  0  0  0  0  0  0
   33.2460   28.6870   38.7670 H   0  0  0  0  0  0  0  0  0  0  0  0
   32.3640   28.3500   36.4770 H   0  0  0  0  0  0  0  0  0  0  0  0
   33.7920   28.7270   34.5140 H   0  0  0  0  0  0  0  0  0  0  0  0
   37.3650   29.9020   37.1290 N   0  0  0  0  0  0  0  0  0  0  0  0
   37.6030   30.9260   36.9740 H   0  0  0  0  0  0  0  0  0  0  0  0
   37.8820   29.0240   37.3830 H   0  0  0  0  0  0  0  0  0  0  0  0
   36.4040   29.5300   34.5550 C   0  0  0  0  0  2  0  0  0  0  0  0
   36.0470   30.7340   33.7580 C   0  0  0  0  0  2  0  0  0  0  0  0
   35.6300   30.4680   32.7400 H   0  0  0  0  0  0  0  0  0  0  0  0
  1  2  1  0  0  0  0
  1 22  1  0  0  0  0
  2 10  1  0  0  0  0
  3  7  1  0  0  0  0
  3  2  2  0  0  0  0
  4  3  1  0  0  0  0
  5  4  2  0  0  0  0
  5  6  1  0  0  0  0
  6  1  2  0  0  0  0
  8  4  1  0  0  0  0
  9  5  1  0  0  0  0
 10 17  1  0  0  0  0
 10 12  1  0  0  0  0
 10 11  1  0  0  0  0
 13 19  1  0  0  0  0
 14 13  2  0  0  0  0
 15 14  1  0  0  0  0
 16 15  2  0  0  0  0
 16 17  1  0  0  0  0
 17 18  2  0  0  0  0
 18 13  1  0  0  0  0
 20 14  1  0  0  0  0
 21 15  1  0  0  0  0
 22 23  1  0  0  0  0
 24  6  1  0  0  0  0
 25 24  1  0  0  0  0
 26 25  1  0  0  0  0
 26 31  1  0  0  0  0
 27 26  2  0  0  0  0
 28 29  2  0  0  0  0
 28 27  1  0  0  0  0
 29 30  1  0  0  0  0
 30 34  1  0  0  0  0
 30 25  2  0  0  0  0
 32 27  1  0  0  0  0
 33 28  1  0  0  0  0
 34 36  1  0  0  0  0
 35 34  1  0  0  0  0
 37 29  1  0  0  0  0
 38 37  1  0  0  0  0
 39 38  1  0  0  0  0
M  END
>  <minimizedAffinity>
-5.79879951

$$$$
