
 OpenBabel03252507123D

 18 18  0  0  0  0  0  0  0  0999 V2000
   38.4490   28.7970   42.4020 C   0  0  0  0  0  0  0  0  0  0  0  0
   38.9520   29.7000   41.4470 C   0  0  0  0  0  0  0  0  0  0  0  0
   39.9740   29.3310   40.5250 C   0  0  0  0  0  0  0  0  0  0  0  0
   40.4570   28.0740   40.6000 N   0  0  0  0  0  0  0  0  0  0  0  0
   39.9760   27.2270   41.5130 C   0  0  0  0  0  0  0  0  0  0  0  0
   39.0100   27.5660   42.3820 N   0  0  0  0  0  0  0  0  0  0  0  0
   40.1400   30.2110   39.9330 H   0  0  0  0  0  0  0  0  0  0  0  0
   40.5530   26.2960   41.3330 H   0  0  0  0  0  0  0  0  0  0  0  0
   38.3320   30.9580   41.5380 O   0  0  0  0  0  0  0  0  0  0  0  0
   36.9820   30.6100   39.2860 O   0  0  0  0  0  0  0  0  0  0  0  0
   36.9800   31.3510   40.5800 P   0  0  0  0  0  0  0  0  0  0  0  0
   35.5690   30.9590   41.3920 O   0  0  0  0  0  0  0  0  0  0  0  0
   34.8430   31.5960   41.2120 H   0  0  0  0  0  0  0  0  0  0  0  0
   36.8800   33.0210   40.2600 O   0  0  0  0  0  0  0  0  0  0  0  0
   37.4600   33.3010   39.5110 H   0  0  0  0  0  0  0  0  0  0  0  0
   37.5590   28.5670   43.5660 C   0  0  0  0  0  2  0  0  0  0  0  0
   36.5270   27.5130   43.4080 C   0  0  0  0  0  2  0  0  0  0  0  0
   36.4690   26.8970   44.3360 H   0  0  0  0  0  0  0  0  0  0  0  0
  1 16  1  0  0  0  0
  2  9  1  0  0  0  0
  2  1  2  0  0  0  0
  3  4  2  0  0  0  0
  3  2  1  0  0  0  0
  4  5  1  0  0  0  0
  5  6  2  0  0  0  0
  6  1  1  0  0  0  0
  7  3  1  0  0  0  0
  8  5  1  0  0  0  0
 10 11  2  0  0  0  0
 11 12  1  0  0  0  0
 11  9  1  0  0  0  0
 13 12  1  0  0  0  0
 14 11  1  0  0  0  0
 15 14  1  0  0  0  0
 17 16  1  0  0  0  0
 17 18  1  0  0  0  0
M  END
>  <minimizedAffinity>
-4.44499969

$$$$

 OpenBabel03252507123D

 18 18  0  0  0  0  0  0  0  0999 V2000
   37.4640   26.5500   42.3630 C   0  0  0  0  0  0  0  0  0  0  0  0
   37.2190   27.9320   42.2640 C   0  0  0  0  0  0  0  0  0  0  0  0
   38.1870   28.9010   42.6570 C   0  0  0  0  0  0  0  0  0  0  0  0
   39.3620   28.4460   43.1410 N   0  0  0  0  0  0  0  0  0  0  0  0
   39.5820   27.1330   43.2360 C   0  0  0  0  0  0  0  0  0  0  0  0
   38.6760   26.2150   42.8630 N   0  0  0  0  0  0  0  0  0  0  0  0
   37.7220   29.8490   42.4620 H   0  0  0  0  0  0  0  0  0  0  0  0
   40.6070   27.0720   43.6560 H   0  0  0  0  0  0  0  0  0  0  0  0
   35.9390   28.2020   41.7510 O   0  0  0  0  0  0  0  0  0  0  0  0
   36.6860   29.4160   39.5180 O   0  0  0  0  0  0  0  0  0  0  0  0
   35.6810   29.4490   40.6200 P   0  0  0  0  0  0  0  0  0  0  0  0
   34.1620   29.2930   39.9320 O   0  0  0  0  0  0  0  0  0  0  0  0
   33.7450   30.1630   39.7430 H   0  0  0  0  0  0  0  0  0  0  0  0
   35.7040   30.9900   41.3430 O   0  0  0  0  0  0  0  0  0  0  0  0
   36.6210   31.3350   41.4770 H   0  0  0  0  0  0  0  0  0  0  0  0
   36.9420   25.1690   42.2260 C   0  0  0  0  0  2  0  0  0  0  0  0
   37.8070   24.2060   41.5020 C   0  0  0  0  0  2  0  0  0  0  0  0
   37.8150   23.2270   42.0370 H   0  0  0  0  0  0  0  0  0  0  0  0
  1  6  1  0  0  0  0
  2  1  2  0  0  0  0
  2  3  1  0  0  0  0
  3  4  2  0  0  0  0
  4  5  1  0  0  0  0
  5  8  1  0  0  0  0
  6  5  2  0  0  0  0
  7  3  1  0  0  0  0
  9  2  1  0  0  0  0
 10 11  2  0  0  0  0
 11 14  1  0  0  0  0
 11  9  1  0  0  0  0
 12 11  1  0  0  0  0
 13 12  1  0  0  0  0
 14 15  1  0  0  0  0
 16  1  1  0  0  0  0
 17 18  1  0  0  0  0
 17 16  1  0  0  0  0
M  END
>  <minimizedAffinity>
-4.43228054

$$$$

 OpenBabel03252507123D

 18 18  0  0  0  0  0  0  0  0999 V2000
   37.6360   28.0540   40.8880 C   0  0  0  0  0  0  0  0  0  0  0  0
   37.9420   29.1700   41.6880 C   0  0  0  0  0  0  0  0  0  0  0  0
   37.9840   29.0900   43.1100 C   0  0  0  0  0  0  0  0  0  0  0  0
   37.7110   27.8960   43.6750 N   0  0  0  0  0  0  0  0  0  0  0  0
   37.4170   26.8440   42.9070 C   0  0  0  0  0  0  0  0  0  0  0  0
   37.3800   26.9110   41.5670 N   0  0  0  0  0  0  0  0  0  0  0  0
   38.2440   30.0800   43.4330 H   0  0  0  0  0  0  0  0  0  0  0  0
   37.2460   26.0280   43.6380 H   0  0  0  0  0  0  0  0  0  0  0  0
   38.1810   30.3190   40.9160 O   0  0  0  0  0  0  0  0  0  0  0  0
   36.5490   31.0700   38.9690 O   0  0  0  0  0  0  0  0  0  0  0  0
   36.9050   31.3200   40.3960 P   0  0  0  0  0  0  0  0  0  0  0  0
   35.5390   31.0340   41.3210 O   0  0  0  0  0  0  0  0  0  0  0  0
   35.0140   31.8510   41.4780 H   0  0  0  0  0  0  0  0  0  0  0  0
   37.2600   32.9740   40.5940 O   0  0  0  0  0  0  0  0  0  0  0  0
   37.8110   33.3370   39.8580 H   0  0  0  0  0  0  0  0  0  0  0  0
   37.3750   27.5150   39.5310 C   0  0  0  0  0  2  0  0  0  0  0  0
   35.9780   27.6100   39.0420 C   0  0  0  0  0  2  0  0  0  0  0  0
   35.9710   27.9370   37.9750 H   0  0  0  0  0  0  0  0  0  0  0  0
  1  6  2  0  0  0  0
  1  2  1  0  0  0  0
  2  3  2  0  0  0  0
  3  7  1  0  0  0  0
  3  4  1  0  0  0  0
  5  8  1  0  0  0  0
  5  4  2  0  0  0  0
  6  5  1  0  0  0  0
  9  2  1  0  0  0  0
 10 11  2  0  0  0  0
 11 14  1  0  0  0  0
 11  9  1  0  0  0  0
 11 12  1  0  0  0  0
 12 13  1  0  0  0  0
 15 14  1  0  0  0  0
 16  1  1  0  0  0  0
 17 16  1  0  0  0  0
 18 17  1  0  0  0  0
M  END
>  <minimizedAffinity>
-4.36837006

$$$$

 OpenBabel03252507123D

 18 18  0  0  0  0  0  0  0  0999 V2000
   38.2300   27.6210   42.1420 C   0  0  0  0  0  0  0  0  0  0  0  0
   37.0670   27.3310   41.4050 C   0  0  0  0  0  0  0  0  0  0  0  0
   37.0010   26.2290   40.5040 C   0  0  0  0  0  0  0  0  0  0  0  0
   38.1050   25.4650   40.3710 N   0  0  0  0  0  0  0  0  0  0  0  0
   39.2050   25.7530   41.0720 C   0  0  0  0  0  0  0  0  0  0  0  0
   39.2730   26.7870   41.9250 N   0  0  0  0  0  0  0  0  0  0  0  0
   36.0050   26.2620   40.1030 H   0  0  0  0  0  0  0  0  0  0  0  0
   39.9240   24.9690   40.7580 H   0  0  0  0  0  0  0  0  0  0  0  0
   36.0350   28.2460   41.6710 O   0  0  0  0  0  0  0  0  0  0  0  0
   36.6190   29.5490   39.4400 O   0  0  0  0  0  0  0  0  0  0  0  0
   35.6700   29.5110   40.5900 P   0  0  0  0  0  0  0  0  0  0  0  0
   34.1260   29.3110   39.9740 O   0  0  0  0  0  0  0  0  0  0  0  0
   33.6650   30.1670   39.8310 H   0  0  0  0  0  0  0  0  0  0  0  0
   35.6690   31.0330   41.3550 O   0  0  0  0  0  0  0  0  0  0  0  0
   36.5760   31.4120   41.4530 H   0  0  0  0  0  0  0  0  0  0  0  0
   38.9280   28.5370   43.0770 C   0  0  0  0  0  2  0  0  0  0  0  0
   39.0190   29.9580   42.6620 C   0  0  0  0  0  2  0  0  0  0  0  0
   38.8060   30.6220   43.5340 H   0  0  0  0  0  0  0  0  0  0  0  0
  1 16  1  0  0  0  0
  2  9  1  0  0  0  0
  2  1  2  0  0  0  0
  3  2  1  0  0  0  0
  4  3  2  0  0  0  0
  4  5  1  0  0  0  0
  5  6  2  0  0  0  0
  6  1  1  0  0  0  0
  7  3  1  0  0  0  0
  8  5  1  0  0  0  0
 10 11  2  0  0  0  0
 11 14  1  0  0  0  0
 11  9  1  0  0  0  0
 12 11  1  0  0  0  0
 13 12  1  0  0  0  0
 14 15  1  0  0  0  0
 17 16  1  0  0  0  0
 17 18  1  0  0  0  0
M  END
>  <minimizedAffinity>
-4.09614706

$$$$

 OpenBabel03252507123D

 18 18  0  0  0  0  0  0  0  0999 V2000
   38.8330   28.2880   43.2550 C   0  0  0  0  0  0  0  0  0  0  0  0
   40.1130   27.7190   43.1250 C   0  0  0  0  0  0  0  0  0  0  0  0
   41.1860   28.4120   42.4950 C   0  0  0  0  0  0  0  0  0  0  0  0
   40.9330   29.6460   42.0130 N   0  0  0  0  0  0  0  0  0  0  0  0
   39.7130   30.1750   42.1370 C   0  0  0  0  0  0  0  0  0  0  0  0
   38.6990   29.5290   42.7330 N   0  0  0  0  0  0  0  0  0  0  0  0
   42.0200   27.7380   42.5520 H   0  0  0  0  0  0  0  0  0  0  0  0
   39.8120   31.1710   41.6580 H   0  0  0  0  0  0  0  0  0  0  0  0
   40.1710   26.4280   43.6770 O   0  0  0  0  0  0  0  0  0  0  0  0
   40.3620   25.3300   41.2730 O   0  0  0  0  0  0  0  0  0  0  0  0
   40.5830   25.0750   42.7270 P   0  0  0  0  0  0  0  0  0  0  0  0
   42.1990   24.6960   42.9400 O   0  0  0  0  0  0  0  0  0  0  0  0
   42.3640   23.7270   42.9110 H   0  0  0  0  0  0  0  0  0  0  0  0
   39.7160   23.6810   43.1800 O   0  0  0  0  0  0  0  0  0  0  0  0
   38.8100   23.6500   42.7870 H   0  0  0  0  0  0  0  0  0  0  0  0
   37.4200   28.1190   43.6740 C   0  0  0  0  0  2  0  0  0  0  0  0
   36.6340   27.0950   42.9440 C   0  0  0  0  0  2  0  0  0  0  0  0
   36.0160   26.5070   43.6640 H   0  0  0  0  0  0  0  0  0  0  0  0
  1 16  1  0  0  0  0
  2  1  1  0  0  0  0
  2  9  1  0  0  0  0
  3  7  1  0  0  0  0
  3  2  2  0  0  0  0
  4  5  2  0  0  0  0
  4  3  1  0  0  0  0
  5  6  1  0  0  0  0
  6  1  2  0  0  0  0
  8  5  1  0  0  0  0
 10 11  2  0  0  0  0
 11 12  1  0  0  0  0
 11 14  1  0  0  0  0
 11  9  1  0  0  0  0
 13 12  1  0  0  0  0
 15 14  1  0  0  0  0
 17 18  1  0  0  0  0
 17 16  1  0  0  0  0
M  END
>  <minimizedAffinity>
-4.05421114

$$$$

 OpenBabel03252507123D

 18 18  0  0  0  0  0  0  0  0999 V2000
   38.6180   31.5430   39.1390 C   0  0  0  0  0  0  0  0  0  0  0  0
   39.1910   30.7740   40.1690 C   0  0  0  0  0  0  0  0  0  0  0  0
   40.3800   30.0140   39.9710 C   0  0  0  0  0  0  0  0  0  0  0  0
   40.9450   30.0500   38.7460 N   0  0  0  0  0  0  0  0  0  0  0  0
   40.3900   30.7790   37.7750 C   0  0  0  0  0  0  0  0  0  0  0  0
   39.2730   31.5000   37.9560 N   0  0  0  0  0  0  0  0  0  0  0  0
   40.5690   29.5490   40.9200 H   0  0  0  0  0  0  0  0  0  0  0  0
   41.0630   30.6130   36.9090 H   0  0  0  0  0  0  0  0  0  0  0  0
   38.4500   30.8570   41.3600 O   0  0  0  0  0  0  0  0  0  0  0  0
   36.9240   28.8190   40.6280 O   0  0  0  0  0  0  0  0  0  0  0  0
   37.0110   29.9700   41.5730 P   0  0  0  0  0  0  0  0  0  0  0  0
   36.9400   29.3600   43.1310 O   0  0  0  0  0  0  0  0  0  0  0  0
   36.0240   29.3470   43.4870 H   0  0  0  0  0  0  0  0  0  0  0  0
   35.6230   30.9400   41.3920 O   0  0  0  0  0  0  0  0  0  0  0  0
   35.3710   31.0730   40.4460 H   0  0  0  0  0  0  0  0  0  0  0  0
   37.4950   32.4010   38.6890 C   0  0  0  0  0  2  0  0  0  0  0  0
   37.2450   33.6300   39.4820 C   0  0  0  0  0  2  0  0  0  0  0  0
   37.0400   34.4870   38.7990 H   0  0  0  0  0  0  0  0  0  0  0  0
  1  2  1  0  0  0  0
  2  9  1  0  0  0  0
  3  2  2  0  0  0  0
  3  7  1  0  0  0  0
  4  3  1  0  0  0  0
  5  6  1  0  0  0  0
  5  4  2  0  0  0  0
  6  1  2  0  0  0  0
  8  5  1  0  0  0  0
  9 11  1  0  0  0  0
 10 11  2  0  0  0  0
 11 12  1  0  0  0  0
 12 13  1  0  0  0  0
 14 11  1  0  0  0  0
 15 14  1  0  0  0  0
 16  1  1  0  0  0  0
 16 17  1  0  0  0  0
 18 17  1  0  0  0  0
M  END
>  <minimizedAffinity>
-4.03537607

$$$$

 OpenBabel03252507123D

 18 18  0  0  0  0  0  0  0  0999 V2000
   38.0110   29.5340   41.9030 C   0  0  0  0  0  0  0  0  0  0  0  0
   37.4400   30.6120   41.2030 C   0  0  0  0  0  0  0  0  0  0  0  0
   36.1510   30.5230   40.6010 C   0  0  0  0  0  0  0  0  0  0  0  0
   35.4880   29.3540   40.7190 N   0  0  0  0  0  0  0  0  0  0  0  0
   36.0410   28.3360   41.3820 C   0  0  0  0  0  0  0  0  0  0  0  0
   37.2530   28.4140   41.9550 N   0  0  0  0  0  0  0  0  0  0  0  0
   35.9900   31.4860   40.1550 H   0  0  0  0  0  0  0  0  0  0  0  0
   35.2780   27.5350   41.3100 H   0  0  0  0  0  0  0  0  0  0  0  0
   38.2890   31.7310   41.1810 O   0  0  0  0  0  0  0  0  0  0  0  0
   38.3920   32.0910   38.5580 O   0  0  0  0  0  0  0  0  0  0  0  0
   38.3010   32.8100   39.8620 P   0  0  0  0  0  0  0  0  0  0  0  0
   36.8920   33.7150   39.8500 O   0  0  0  0  0  0  0  0  0  0  0  0
   37.0410   34.6360   39.5370 H   0  0  0  0  0  0  0  0  0  0  0  0
   39.5740   33.9360   39.9620 O   0  0  0  0  0  0  0  0  0  0  0  0
   40.4330   33.5710   39.6390 H   0  0  0  0  0  0  0  0  0  0  0  0
   39.1890   28.9820   42.6160 C   0  0  0  0  0  2  0  0  0  0  0  0
   38.9690   27.7310   43.3830 C   0  0  0  0  0  2  0  0  0  0  0  0
   39.8220   27.0320   43.2190 H   0  0  0  0  0  0  0  0  0  0  0  0
  1  6  1  0  0  0  0
  1 16  1  0  0  0  0
  2  1  2  0  0  0  0
  3  4  2  0  0  0  0
  3  2  1  0  0  0  0
  4  5  1  0  0  0  0
  5  6  2  0  0  0  0
  7  3  1  0  0  0  0
  8  5  1  0  0  0  0
  9  2  1  0  0  0  0
 10 11  2  0  0  0  0
 11 14  1  0  0  0  0
 11  9  1  0  0  0  0
 12 11  1  0  0  0  0
 13 12  1  0  0  0  0
 15 14  1  0  0  0  0
 16 17  1  0  0  0  0
 18 17  1  0  0  0  0
M  END
>  <minimizedAffinity>
-3.97828078

$$$$

 OpenBabel03252507123D

 18 18  0  0  0  0  0  0  0  0999 V2000
   37.0830   26.4790   40.6400 C   0  0  0  0  0  0  0  0  0  0  0  0
   36.6510   27.5240   39.8030 C   0  0  0  0  0  0  0  0  0  0  0  0
   36.9700   27.5590   38.4150 C   0  0  0  0  0  0  0  0  0  0  0  0
   37.7150   26.5480   37.9210 N   0  0  0  0  0  0  0  0  0  0  0  0
   38.1240   25.5640   38.7260 C   0  0  0  0  0  0  0  0  0  0  0  0
   37.8240   25.5230   40.0330 N   0  0  0  0  0  0  0  0  0  0  0  0
   36.5060   28.4550   38.0490 H   0  0  0  0  0  0  0  0  0  0  0  0
   38.7010   24.9000   38.0500 H   0  0  0  0  0  0  0  0  0  0  0  0
   35.9020   28.4830   40.5050 O   0  0  0  0  0  0  0  0  0  0  0  0
   37.9180   30.1960   40.6340 O   0  0  0  0  0  0  0  0  0  0  0  0
   36.6550   29.7810   41.3100 P   0  0  0  0  0  0  0  0  0  0  0  0
   35.6320   31.1060   41.3420 O   0  0  0  0  0  0  0  0  0  0  0  0
   35.7160   31.6250   42.1730 H   0  0  0  0  0  0  0  0  0  0  0  0
   36.9940   29.4200   42.9400 O   0  0  0  0  0  0  0  0  0  0  0  0
   37.8280   28.9010   43.0500 H   0  0  0  0  0  0  0  0  0  0  0  0
   37.1690   25.9240   42.0130 C   0  0  0  0  0  2  0  0  0  0  0  0
   37.1700   24.4440   42.1270 C   0  0  0  0  0  2  0  0  0  0  0  0
   37.9300   24.1220   42.8770 H   0  0  0  0  0  0  0  0  0  0  0  0
  1 16  1  0  0  0  0
  2  9  1  0  0  0  0
  2  1  2  0  0  0  0
  3  2  1  0  0  0  0
  4  3  2  0  0  0  0
  4  5  1  0  0  0  0
  5  6  2  0  0  0  0
  6  1  1  0  0  0  0
  7  3  1  0  0  0  0
  8  5  1  0  0  0  0
  9 11  1  0  0  0  0
 10 11  2  0  0  0  0
 11 12  1  0  0  0  0
 11 14  1  0  0  0  0
 12 13  1  0  0  0  0
 14 15  1  0  0  0  0
 16 17  1  0  0  0  0
 17 18  1  0  0  0  0
M  END
>  <minimizedAffinity>
-3.92044759

$$$$

 OpenBabel03252507123D

 18 18  0  0  0  0  0  0  0  0999 V2000
   37.8650   30.1800   41.4070 C   0  0  0  0  0  0  0  0  0  0  0  0
   37.7000   30.7780   40.1430 C   0  0  0  0  0  0  0  0  0  0  0  0
   36.5650   30.5080   39.3240 C   0  0  0  0  0  0  0  0  0  0  0  0
   35.6440   29.6450   39.8000 N   0  0  0  0  0  0  0  0  0  0  0  0
   35.8140   29.0800   40.9980 C   0  0  0  0  0  0  0  0  0  0  0  0
   36.8770   29.3330   41.7770 N   0  0  0  0  0  0  0  0  0  0  0  0
   36.7160   31.1020   38.4430 H   0  0  0  0  0  0  0  0  0  0  0  0
   34.9160   28.4380   41.1110 H   0  0  0  0  0  0  0  0  0  0  0  0
   38.7690   31.6310   39.8230 O   0  0  0  0  0  0  0  0  0  0  0  0
   37.3130   33.8320   39.5890 O   0  0  0  0  0  0  0  0  0  0  0  0
   38.6460   33.3190   40.0210 P   0  0  0  0  0  0  0  0  0  0  0  0
   38.8530   33.7240   41.6320 O   0  0  0  0  0  0  0  0  0  0  0  0
   39.3260   34.5780   41.7460 H   0  0  0  0  0  0  0  0  0  0  0  0
   39.8620   34.1570   39.1730 O   0  0  0  0  0  0  0  0  0  0  0  0
   39.6450   34.2790   38.2160 H   0  0  0  0  0  0  0  0  0  0  0  0
   38.7270   29.9780   42.5970 C   0  0  0  0  0  2  0  0  0  0  0  0
   38.9410   28.5730   43.0240 C   0  0  0  0  0  2  0  0  0  0  0  0
   40.0130   28.4180   43.2920 H   0  0  0  0  0  0  0  0  0  0  0  0
  1  6  1  0  0  0  0
  1 16  1  0  0  0  0
  2  1  2  0  0  0  0
  3  4  2  0  0  0  0
  3  2  1  0  0  0  0
  4  5  1  0  0  0  0
  5  8  1  0  0  0  0
  5  6  2  0  0  0  0
  7  3  1  0  0  0  0
  9 11  1  0  0  0  0
  9  2  1  0  0  0  0
 10 11  2  0  0  0  0
 11 12  1  0  0  0  0
 12 13  1  0  0  0  0
 14 11  1  0  0  0  0
 15 14  1  0  0  0  0
 16 17  1  0  0  0  0
 17 18  1  0  0  0  0
M  END
>  <minimizedAffinity>
-3.90543389

$$$$
