
 OpenBabel03252504353D

 36 37  0  0  0  0  0  0  0  0999 V2000
   44.9810   34.9270   41.8750 C   0  0  0  0  0  0  0  0  0  0  0  0
   44.4920   35.0620   43.1150 C   0  0  0  0  0  0  0  0  0  0  0  0
   45.3610   35.0920   44.3560 C   0  0  0  0  0  0  0  0  0  0  0  0
   45.0440   35.9160   45.0380 H   0  0  0  0  0  0  0  0  0  0  0  0
   46.4250   35.2580   44.0410 H   0  0  0  0  0  0  0  0  0  0  0  0
   45.1630   33.9010   45.0240 O   0  0  0  0  0  0  0  0  0  0  0  0
   45.9910   31.8720   43.5120 O   0  0  0  0  0  0  0  0  0  0  0  0
   46.3750   32.8060   44.6490 P   0  0  1  0  0  0  0  0  0  0  0  0
   47.7700   33.6490   44.1250 O   0  0  0  0  0  0  0  0  0  0  0  0
   48.1950   33.9890   44.9350 H   0  0  0  0  0  0  0  0  0  0  0  0
   46.8380   31.9120   45.9850 O   0  0  0  0  0  0  0  0  0  0  0  0
   46.9070   32.6870   47.1410 C   0  0  0  0  0  0  0  0  0  0  0  0
   47.6300   32.0810   48.3180 C   0  0  0  0  0  0  0  0  0  0  0  0
   46.1100   32.2050   48.3100 C   0  0  0  0  0  0  0  0  0  0  0  0
   46.9750   33.7800   47.0020 H   0  0  0  0  0  0  0  0  0  0  0  0
   48.1000   31.1180   48.1340 H   0  0  0  0  0  0  0  0  0  0  0  0
   48.1120   32.8190   48.9960 H   0  0  0  0  0  0  0  0  0  0  0  0
   45.6050   31.2090   48.2420 H   0  0  0  0  0  0  0  0  0  0  0  0
   45.6270   32.9320   48.9940 H   0  0  0  0  0  0  0  0  0  0  0  0
   44.0380   34.9280   40.8670 O   0  0  0  0  0  0  0  0  0  0  0  0
   43.0020   35.7630   40.6440 C   0  0  0  0  0  0  0  0  0  0  0  0
   43.1290   36.1400   39.5720 H   0  0  0  0  0  0  0  0  0  0  0  0
   42.8480   36.6520   41.2410 H   0  0  0  0  0  0  0  0  0  0  0  0
   41.0610   34.7150   41.7240 C   0  0  0  0  0  0  0  0  0  0  0  0
   41.6720   35.0400   40.5190 C   0  0  0  0  0  0  0  0  0  0  0  0
   41.0590   34.7130   39.3470 C   0  0  0  0  0  0  0  0  0  0  0  0
   39.8970   34.0930   39.4510 N   0  0  0  0  0  0  0  0  0  0  0  0
   39.3120   33.7830   40.5840 C   0  0  0  0  0  0  0  0  0  0  0  0
   39.8900   34.0910   41.8000 N   0  0  0  0  0  0  0  0  0  0  0  0
   38.0310   33.1230   40.5780 N   0  0  0  0  0  0  0  0  0  0  0  0
   41.5090   34.9540   42.6780 H   0  0  0  0  0  0  0  0  0  0  0  0
   37.7130   32.2650   40.0590 H   0  0  0  0  0  0  0  0  0  0  0  0
   37.3560   33.6410   41.2180 H   0  0  0  0  0  0  0  0  0  0  0  0
   41.7450   35.0710   38.0840 C   0  0  0  0  0  0  0  0  0  0  0  0
   41.1820   36.3200   37.4350 C   0  0  0  0  0  0  0  0  0  0  0  0
   40.5450   36.0850   36.5570 H   0  0  0  0  0  0  0  0  0  0  0  0
  1  2  2  0  0  0  0
  2  3  1  0  0  0  0
  3  6  1  0  0  0  0
  3  4  1  0  0  0  0
  5  3  1  0  0  0  0
  8  7  2  6  0  0  0
  8  6  1  0  0  0  0
  8 11  1  0  0  0  0
  9  8  1  0  0  0  0
  9 10  1  0  0  0  0
 11 12  1  0  0  0  0
 12 14  1  0  0  0  0
 12 13  1  0  0  0  0
 13 17  1  0  0  0  0
 14 13  1  0  0  0  0
 14 19  1  0  0  0  0
 15 12  1  0  0  0  0
 16 13  1  0  0  0  0
 18 14  1  0  0  0  0
 20  1  1  0  0  0  0
 21 20  1  0  0  0  0
 21 23  1  0  0  0  0
 22 21  1  0  0  0  0
 24 29  1  0  0  0  0
 24 31  1  0  0  0  0
 25 21  1  0  0  0  0
 25 24  2  0  0  0  0
 26 27  2  0  0  0  0
 26 25  1  0  0  0  0
 27 28  1  0  0  0  0
 28 29  2  0  0  0  0
 30 28  1  0  0  0  0
 30 33  1  0  0  0  0
 32 30  1  0  0  0  0
 34 26  1  0  0  0  0
 35 34  1  0  0  0  0
 36 35  1  0  0  0  0
M  END
>  <minimizedAffinity>
-4.99227571

>  <minimizedRMSD>
1.45032811

$$$$
