
 OpenBabel03242518053D

 14 14  0  0  0  0  0  0  0  0999 V2000
   36.8320   30.5270   41.3710 C   0  0  0  0  0  0  0  0  0  0  0  0
   37.7090   31.3960   40.6870 C   0  0  0  0  0  0  0  0  0  0  0  0
   39.0780   31.3880   41.0070 C   0  0  0  0  0  0  0  0  0  0  0  0
   39.4640   30.5210   41.9800 N   0  0  0  0  0  0  0  0  0  0  0  0
   38.6250   29.6960   42.6270 C   0  0  0  0  0  0  0  0  0  0  0  0
   37.3120   29.7090   42.3130 N   0  0  0  0  0  0  0  0  0  0  0  0
   35.4630   30.5560   41.0340 N   0  0  0  0  0  0  0  0  0  0  0  0
   39.7410   32.0680   40.4750 H   0  0  0  0  0  0  0  0  0  0  0  0
   39.0540   29.0470   43.3860 H   0  0  0  0  0  0  0  0  0  0  0  0
   34.6640   31.1730   41.3060 H   0  0  0  0  0  0  0  0  0  0  0  0
   35.4130   29.7210   40.3690 H   0  0  0  0  0  0  0  0  0  0  0  0
   37.1230   32.2890   39.6380 C   0  0  0  0  0  2  0  0  0  0  0  0
   37.5820   33.7050   39.7430 C   0  0  0  0  0  2  0  0  0  0  0  0
   38.2940   33.9140   40.5640 H   0  0  0  0  0  0  0  0  0  0  0  0
  1  6  1  0  0  0  0
  2  3  1  0  0  0  0
  2  1  2  0  0  0  0
  3  4  2  0  0  0  0
  4  5  1  0  0  0  0
  5  9  1  0  0  0  0
  6  5  2  0  0  0  0
  7 10  1  0  0  0  0
  7  1  1  0  0  0  0
  8  3  1  0  0  0  0
 11  7  1  0  0  0  0
 12 13  1  0  0  0  0
 12  2  1  0  0  0  0
 13 14  1  0  0  0  0
M  END
>  <minimizedAffinity>
-3.53129649

$$$$

 OpenBabel03242518053D

 14 14  0  0  0  0  0  0  0  0999 V2000
   36.4310   29.8630   41.3540 C   0  0  0  0  0  0  0  0  0  0  0  0
   35.9090   28.8150   40.5680 C   0  0  0  0  0  0  0  0  0  0  0  0
   36.5460   27.5620   40.5750 C   0  0  0  0  0  0  0  0  0  0  0  0
   37.6500   27.4520   41.3580 N   0  0  0  0  0  0  0  0  0  0  0  0
   38.1430   28.4540   42.1060 C   0  0  0  0  0  0  0  0  0  0  0  0
   37.5250   29.6540   42.0940 N   0  0  0  0  0  0  0  0  0  0  0  0
   35.7760   31.1120   41.3270 N   0  0  0  0  0  0  0  0  0  0  0  0
   36.1340   26.7650   39.9580 H   0  0  0  0  0  0  0  0  0  0  0  0
   39.0330   28.2430   42.6930 H   0  0  0  0  0  0  0  0  0  0  0  0
   35.7980   31.9270   40.6730 H   0  0  0  0  0  0  0  0  0  0  0  0
   35.1890   31.0370   42.2170 H   0  0  0  0  0  0  0  0  0  0  0  0
   34.6800   29.0990   39.7600 C   0  0  0  0  0  2  0  0  0  0  0  0
   34.8800   28.9090   38.2930 C   0  0  0  0  0  2  0  0  0  0  0  0
   35.8910   28.5780   37.9900 H   0  0  0  0  0  0  0  0  0  0  0  0
  1  6  1  0  0  0  0
  2  3  1  0  0  0  0
  2  1  2  0  0  0  0
  3  4  2  0  0  0  0
  4  5  1  0  0  0  0
  5  9  1  0  0  0  0
  6  5  2  0  0  0  0
  7  1  1  0  0  0  0
  7 11  1  0  0  0  0
  8  3  1  0  0  0  0
 10  7  1  0  0  0  0
 12  2  1  0  0  0  0
 13 12  1  0  0  0  0
 14 13  1  0  0  0  0
M  END
>  <minimizedAffinity>
-3.52393007

$$$$

 OpenBabel03242518053D

 14 14  0  0  0  0  0  0  0  0999 V2000
   36.2820   30.1430   40.9760 C   0  0  0  0  0  0  0  0  0  0  0  0
   37.1380   29.3410   41.7610 C   0  0  0  0  0  0  0  0  0  0  0  0
   38.4330   29.7990   42.0590 C   0  0  0  0  0  0  0  0  0  0  0  0
   38.7750   31.0120   41.5530 N   0  0  0  0  0  0  0  0  0  0  0  0
   37.9560   31.7710   40.8060 C   0  0  0  0  0  0  0  0  0  0  0  0
   36.7130   31.3250   40.5250 N   0  0  0  0  0  0  0  0  0  0  0  0
   34.9890   29.6590   40.6890 N   0  0  0  0  0  0  0  0  0  0  0  0
   39.0840   29.1660   42.6610 H   0  0  0  0  0  0  0  0  0  0  0  0
   38.3430   32.7250   40.4590 H   0  0  0  0  0  0  0  0  0  0  0  0
   34.6060   28.9940   39.9790 H   0  0  0  0  0  0  0  0  0  0  0  0
   34.4240   30.1760   41.4320 H   0  0  0  0  0  0  0  0  0  0  0  0
   36.6070   28.0270   42.2460 C   0  0  0  0  0  2  0  0  0  0  0  0
   36.9200   27.7550   43.6790 C   0  0  0  0  0  2  0  0  0  0  0  0
   37.4880   28.5480   44.2010 H   0  0  0  0  0  0  0  0  0  0  0  0
  1  2  1  0  0  0  0
  2  3  2  0  0  0  0
  2 12  1  0  0  0  0
  3  8  1  0  0  0  0
  4  3  1  0  0  0  0
  5  4  2  0  0  0  0
  6  5  1  0  0  0  0
  6  1  2  0  0  0  0
  7  1  1  0  0  0  0
  7 11  1  0  0  0  0
  9  5  1  0  0  0  0
 10  7  1  0  0  0  0
 12 13  1  0  0  0  0
 13 14  1  0  0  0  0
M  END
>  <minimizedAffinity>
-3.46819162

$$$$

 OpenBabel03242518053D

 14 14  0  0  0  0  0  0  0  0999 V2000
   36.4710   31.1960   40.2780 C   0  0  0  0  0  0  0  0  0  0  0  0
   36.3840   30.3680   39.1390 C   0  0  0  0  0  0  0  0  0  0  0  0
   37.1480   30.6770   38.0010 C   0  0  0  0  0  0  0  0  0  0  0  0
   37.9330   31.7820   38.0840 N   0  0  0  0  0  0  0  0  0  0  0  0
   38.0130   32.5670   39.1710 C   0  0  0  0  0  0  0  0  0  0  0  0
   37.2760   32.2630   40.2610 N   0  0  0  0  0  0  0  0  0  0  0  0
   35.6920   30.8670   41.4070 N   0  0  0  0  0  0  0  0  0  0  0  0
   37.0660   30.0320   37.1280 H   0  0  0  0  0  0  0  0  0  0  0  0
   38.6780   33.4240   39.1170 H   0  0  0  0  0  0  0  0  0  0  0  0
   34.6940   31.0330   41.6710 H   0  0  0  0  0  0  0  0  0  0  0  0
   36.4200   30.3570   41.9980 H   0  0  0  0  0  0  0  0  0  0  0  0
   35.4710   29.1830   39.2100 C   0  0  0  0  0  2  0  0  0  0  0  0
   34.6560   28.9900   37.9760 C   0  0  0  0  0  2  0  0  0  0  0  0
   34.8300   29.7280   37.1700 H   0  0  0  0  0  0  0  0  0  0  0  0
  1  7  1  0  0  0  0
  2 12  1  0  0  0  0
  2  1  2  0  0  0  0
  3  4  2  0  0  0  0
  3  2  1  0  0  0  0
  4  5  1  0  0  0  0
  5  6  2  0  0  0  0
  6  1  1  0  0  0  0
  7 10  1  0  0  0  0
  7 11  1  0  0  0  0
  8  3  1  0  0  0  0
  9  5  1  0  0  0  0
 13 12  1  0  0  0  0
 14 13  1  0  0  0  0
M  END
>  <minimizedAffinity>
-3.4424057

$$$$

 OpenBabel03242518053D

 14 14  0  0  0  0  0  0  0  0999 V2000
   35.9410   29.5700   40.7210 C   0  0  0  0  0  0  0  0  0  0  0  0
   36.6960   28.5450   41.3300 C   0  0  0  0  0  0  0  0  0  0  0  0
   36.8290   27.3060   40.6800 C   0  0  0  0  0  0  0  0  0  0  0  0
   36.2020   27.1840   39.4820 N   0  0  0  0  0  0  0  0  0  0  0  0
   35.4850   28.1630   38.9060 C   0  0  0  0  0  0  0  0  0  0  0  0
   35.3620   29.3510   39.5370 N   0  0  0  0  0  0  0  0  0  0  0  0
   35.8190   30.8030   41.3950 N   0  0  0  0  0  0  0  0  0  0  0  0
   37.4100   26.5230   41.1650 H   0  0  0  0  0  0  0  0  0  0  0  0
   35.0300   27.9460   37.9430 H   0  0  0  0  0  0  0  0  0  0  0  0
   35.2030   31.1490   42.1650 H   0  0  0  0  0  0  0  0  0  0  0  0
   36.5740   31.3680   40.8940 H   0  0  0  0  0  0  0  0  0  0  0  0
   37.3270   28.8420   42.6550 C   0  0  0  0  0  2  0  0  0  0  0  0
   37.0760   27.7860   43.6800 C   0  0  0  0  0  2  0  0  0  0  0  0
   36.4720   26.9250   43.3370 H   0  0  0  0  0  0  0  0  0  0  0  0
  1  2  1  0  0  0  0
  1  7  1  0  0  0  0
  2 12  1  0  0  0  0
  3  8  1  0  0  0  0
  3  2  2  0  0  0  0
  4  3  1  0  0  0  0
  5  4  2  0  0  0  0
  5  6  1  0  0  0  0
  6  1  2  0  0  0  0
  7 10  1  0  0  0  0
  9  5  1  0  0  0  0
 11  7  1  0  0  0  0
 12 13  1  0  0  0  0
 14 13  1  0  0  0  0
M  END
>  <minimizedAffinity>
-3.39574099

$$$$

 OpenBabel03242518053D

 14 14  0  0  0  0  0  0  0  0999 V2000
   36.9070   31.2320   40.7960 C   0  0  0  0  0  0  0  0  0  0  0  0
   38.0200   30.5220   41.2940 C   0  0  0  0  0  0  0  0  0  0  0  0
   39.3030   30.8160   40.8020 C   0  0  0  0  0  0  0  0  0  0  0  0
   39.3780   31.7870   39.8550 N   0  0  0  0  0  0  0  0  0  0  0  0
   38.3150   32.4600   39.3850 C   0  0  0  0  0  0  0  0  0  0  0  0
   37.0850   32.1730   39.8630 N   0  0  0  0  0  0  0  0  0  0  0  0
   35.6290   30.9170   41.3030 N   0  0  0  0  0  0  0  0  0  0  0  0
   40.1510   30.2560   41.1920 H   0  0  0  0  0  0  0  0  0  0  0  0
   38.5010   33.2170   38.6280 H   0  0  0  0  0  0  0  0  0  0  0  0
   34.9310   30.1680   41.0910 H   0  0  0  0  0  0  0  0  0  0  0  0
   35.5160   31.6920   42.0290 H   0  0  0  0  0  0  0  0  0  0  0  0
   37.7670   29.4810   42.3400 C   0  0  0  0  0  2  0  0  0  0  0  0
   39.0180   28.9060   42.9160 C   0  0  0  0  0  2  0  0  0  0  0  0
   39.9610   29.3190   42.5120 H   0  0  0  0  0  0  0  0  0  0  0  0
  1  2  1  0  0  0  0
  1  7  1  0  0  0  0
  2 12  1  0  0  0  0
  3  8  1  0  0  0  0
  3  2  2  0  0  0  0
  4  3  1  0  0  0  0
  5  4  2  0  0  0  0
  5  6  1  0  0  0  0
  6  1  2  0  0  0  0
  7 11  1  0  0  0  0
  9  5  1  0  0  0  0
 10  7  1  0  0  0  0
 12 13  1  0  0  0  0
 14 13  1  0  0  0  0
M  END
>  <minimizedAffinity>
-3.36001539

$$$$

 OpenBabel03242518053D

 14 14  0  0  0  0  0  0  0  0999 V2000
   36.8660   30.2410   41.2470 C   0  0  0  0  0  0  0  0  0  0  0  0
   37.4990   30.1860   39.9870 C   0  0  0  0  0  0  0  0  0  0  0  0
   38.7300   29.5190   39.8610 C   0  0  0  0  0  0  0  0  0  0  0  0
   39.2330   28.9640   40.9940 N   0  0  0  0  0  0  0  0  0  0  0  0
   38.6260   29.0190   42.1910 C   0  0  0  0  0  0  0  0  0  0  0  0
   37.4430   29.6610   42.3040 N   0  0  0  0  0  0  0  0  0  0  0  0
   35.6330   30.9200   41.3490 N   0  0  0  0  0  0  0  0  0  0  0  0
   39.2080   29.4900   38.8840 H   0  0  0  0  0  0  0  0  0  0  0  0
   39.1270   28.5350   43.0250 H   0  0  0  0  0  0  0  0  0  0  0  0
   35.3670   31.9250   41.4500 H   0  0  0  0  0  0  0  0  0  0  0  0
   34.9580   30.0940   41.2950 H   0  0  0  0  0  0  0  0  0  0  0  0
   36.8100   30.8480   38.8350 C   0  0  0  0  0  2  0  0  0  0  0  0
   37.4470   32.1330   38.4230 C   0  0  0  0  0  2  0  0  0  0  0  0
   38.3410   32.4280   39.0050 H   0  0  0  0  0  0  0  0  0  0  0  0
  1  7  1  0  0  0  0
  1  6  1  0  0  0  0
  2  1  2  0  0  0  0
  3  2  1  0  0  0  0
  3  4  2  0  0  0  0
  4  5  1  0  0  0  0
  5  6  2  0  0  0  0
  5  9  1  0  0  0  0
  7 10  1  0  0  0  0
  8  3  1  0  0  0  0
 11  7  1  0  0  0  0
 12  2  1  0  0  0  0
 13 12  1  0  0  0  0
 13 14  1  0  0  0  0
M  END
>  <minimizedAffinity>
-3.31291533

$$$$

 OpenBabel03242518053D

 14 14  0  0  0  0  0  0  0  0999 V2000
   36.9020   28.9600   42.2030 C   0  0  0  0  0  0  0  0  0  0  0  0
   36.9090   27.6440   41.6940 C   0  0  0  0  0  0  0  0  0  0  0  0
   36.5910   27.4240   40.3430 C   0  0  0  0  0  0  0  0  0  0  0  0
   36.2900   28.5260   39.6080 N   0  0  0  0  0  0  0  0  0  0  0  0
   36.2840   29.7770   40.0970 C   0  0  0  0  0  0  0  0  0  0  0  0
   36.5920   29.9800   41.3960 N   0  0  0  0  0  0  0  0  0  0  0  0
   37.2210   29.1540   43.5630 N   0  0  0  0  0  0  0  0  0  0  0  0
   36.5960   26.4030   39.9660 H   0  0  0  0  0  0  0  0  0  0  0  0
   36.0280   30.5780   39.4100 H   0  0  0  0  0  0  0  0  0  0  0  0
   36.6770   29.0740   44.4530 H   0  0  0  0  0  0  0  0  0  0  0  0
   38.2490   29.4320   43.4790 H   0  0  0  0  0  0  0  0  0  0  0  0
   37.2670   26.5370   42.6370 C   0  0  0  0  0  2  0  0  0  0  0  0
   37.0010   25.1780   42.0810 C   0  0  0  0  0  2  0  0  0  0  0  0
   36.5880   25.1560   41.0550 H   0  0  0  0  0  0  0  0  0  0  0  0
  1  7  1  0  0  0  0
  2  1  1  0  0  0  0
  2 12  1  0  0  0  0
  3  2  2  0  0  0  0
  4  5  2  0  0  0  0
  4  3  1  0  0  0  0
  5  6  1  0  0  0  0
  6  1  2  0  0  0  0
  7 10  1  0  0  0  0
  8  3  1  0  0  0  0
  9  5  1  0  0  0  0
 11  7  1  0  0  0  0
 13 12  1  0  0  0  0
 14 13  1  0  0  0  0
M  END
>  <minimizedAffinity>
-3.29197121

$$$$

 OpenBabel03242518053D

 14 14  0  0  0  0  0  0  0  0999 V2000
   37.9650   29.4420   42.5560 C   0  0  0  0  0  0  0  0  0  0  0  0
   38.1880   28.1050   42.9460 C   0  0  0  0  0  0  0  0  0  0  0  0
   39.5040   27.6510   43.1360 C   0  0  0  0  0  0  0  0  0  0  0  0
   40.4920   28.5580   42.9210 N   0  0  0  0  0  0  0  0  0  0  0  0
   40.2740   29.8310   42.5500 C   0  0  0  0  0  0  0  0  0  0  0  0
   39.0060   30.2600   42.3700 N   0  0  0  0  0  0  0  0  0  0  0  0
   36.6350   29.8730   42.3680 N   0  0  0  0  0  0  0  0  0  0  0  0
   39.6600   26.6150   43.4320 H   0  0  0  0  0  0  0  0  0  0  0  0
   41.1460   30.4630   42.4090 H   0  0  0  0  0  0  0  0  0  0  0  0
   35.9520   29.7920   41.5800 H   0  0  0  0  0  0  0  0  0  0  0  0
   36.4570   30.3520   43.3060 H   0  0  0  0  0  0  0  0  0  0  0  0
   36.9880   27.2310   43.1450 C   0  0  0  0  0  2  0  0  0  0  0  0
   37.0440   25.9620   42.3600 C   0  0  0  0  0  2  0  0  0  0  0  0
   37.9540   25.8230   41.7460 H   0  0  0  0  0  0  0  0  0  0  0  0
  1  2  1  0  0  0  0
  2  3  2  0  0  0  0
  2 12  1  0  0  0  0
  3  8  1  0  0  0  0
  4  3  1  0  0  0  0
  5  4  2  0  0  0  0
  6  5  1  0  0  0  0
  6  1  2  0  0  0  0
  7  1  1  0  0  0  0
  7 11  1  0  0  0  0
  9  5  1  0  0  0  0
 10  7  1  0  0  0  0
 13 12  1  0  0  0  0
 14 13  1  0  0  0  0
M  END
>  <minimizedAffinity>
-3.28531456

$$$$
