
 OpenBabel03252500213D

 16 16  0  0  0  0  0  0  0  0999 V2000
   36.5150   29.7470   37.8300 C   0  0  0  0  0  0  0  0  0  0  0  0
   36.2270   30.2490   39.0880 C   0  0  0  0  0  0  0  0  0  0  0  0
   36.7700   31.4930   39.4110 C   0  0  0  0  0  0  0  0  0  0  0  0
   37.5470   32.1550   38.5010 N   0  0  0  0  0  0  0  0  0  0  0  0
   37.7860   31.6030   37.2860 C   0  0  0  0  0  0  0  0  0  0  0  0
   37.2720   30.4120   36.9610 N   0  0  0  0  0  0  0  0  0  0  0  0
   38.5790   32.2740   36.3270 N   0  0  0  0  0  0  0  0  0  0  0  0
   36.1550   28.7900   37.4650 H   0  0  0  0  0  0  0  0  0  0  0  0
   39.1480   33.1300   36.4770 H   0  0  0  0  0  0  0  0  0  0  0  0
   38.6530   31.9390   35.3410 H   0  0  0  0  0  0  0  0  0  0  0  0
   36.4970   32.0250   40.7070 N   0  0  0  0  0  0  0  0  0  0  0  0
   36.5220   31.4360   41.5950 H   0  0  0  0  0  0  0  0  0  0  0  0
   36.2390   32.9600   41.0630 H   0  0  0  0  0  0  0  0  0  0  0  0
   35.3510   29.4690   40.0390 C   0  0  0  0  0  2  0  0  0  0  0  0
   36.1010   28.3740   40.7380 C   0  0  0  0  0  2  0  0  0  0  0  0
   35.4920   27.4400   40.7720 H   0  0  0  0  0  0  0  0  0  0  0  0
  1  2  1  0  0  0  0
  2  3  2  0  0  0  0
  2 14  1  0  0  0  0
  3 11  1  0  0  0  0
  4  3  1  0  0  0  0
  5  4  2  0  0  0  0
  6  5  1  0  0  0  0
  6  1  2  0  0  0  0
  7  9  1  0  0  0  0
  7  5  1  0  0  0  0
  8  1  1  0  0  0  0
 10  7  1  0  0  0  0
 11 13  1  0  0  0  0
 11 12  1  0  0  0  0
 14 15  1  0  0  0  0
 15 16  1  0  0  0  0
M  END
>  <minimizedAffinity>
-4.00603104

$$$$

 OpenBabel03252500213D

 16 16  0  0  0  0  0  0  0  0999 V2000
   37.3160   30.8430   38.0920 C   0  0  0  0  0  0  0  0  0  0  0  0
   36.4790   30.4730   39.1310 C   0  0  0  0  0  0  0  0  0  0  0  0
   36.5300   31.2480   40.2900 C   0  0  0  0  0  0  0  0  0  0  0  0
   37.3800   32.3160   40.3590 N   0  0  0  0  0  0  0  0  0  0  0  0
   38.1710   32.6210   39.3010 C   0  0  0  0  0  0  0  0  0  0  0  0
   38.1340   31.8890   38.1820 N   0  0  0  0  0  0  0  0  0  0  0  0
   39.0520   33.7270   39.3480 N   0  0  0  0  0  0  0  0  0  0  0  0
   37.3700   30.3170   37.1440 H   0  0  0  0  0  0  0  0  0  0  0  0
   39.2880   34.3010   40.1800 H   0  0  0  0  0  0  0  0  0  0  0  0
   39.5570   34.0650   38.4990 H   0  0  0  0  0  0  0  0  0  0  0  0
   35.6840   30.8770   41.3790 N   0  0  0  0  0  0  0  0  0  0  0  0
   35.5420   29.8670   41.6880 H   0  0  0  0  0  0  0  0  0  0  0  0
   35.0840   31.4010   42.0360 H   0  0  0  0  0  0  0  0  0  0  0  0
   35.5550   29.2870   38.9810 C   0  0  0  0  0  2  0  0  0  0  0  0
   34.9780   29.1850   37.6010 C   0  0  0  0  0  2  0  0  0  0  0  0
   33.8920   28.9340   37.6470 H   0  0  0  0  0  0  0  0  0  0  0  0
  1  6  2  0  0  0  0
  1  2  1  0  0  0  0
  2  3  2  0  0  0  0
  3  4  1  0  0  0  0
  3 11  1  0  0  0  0
  5  7  1  0  0  0  0
  5  4  2  0  0  0  0
  6  5  1  0  0  0  0
  7  9  1  0  0  0  0
  8  1  1  0  0  0  0
 10  7  1  0  0  0  0
 11 12  1  0  0  0  0
 11 13  1  0  0  0  0
 14  2  1  0  0  0  0
 15 16  1  0  0  0  0
 15 14  1  0  0  0  0
M  END
>  <minimizedAffinity>
-3.90222692

$$$$

 OpenBabel03252500213D

 16 16  0  0  0  0  0  0  0  0999 V2000
   39.1520   30.9690   41.6010 C   0  0  0  0  0  0  0  0  0  0  0  0
   37.8610   30.4760   41.6910 C   0  0  0  0  0  0  0  0  0  0  0  0
   36.8680   31.1790   41.0070 C   0  0  0  0  0  0  0  0  0  0  0  0
   37.1930   32.2990   40.2940 N   0  0  0  0  0  0  0  0  0  0  0  0
   38.4800   32.7240   40.2500 C   0  0  0  0  0  0  0  0  0  0  0  0
   39.4440   32.0610   40.8990 N   0  0  0  0  0  0  0  0  0  0  0  0
   38.8400   33.8750   39.5120 N   0  0  0  0  0  0  0  0  0  0  0  0
   40.0070   30.5140   42.0910 H   0  0  0  0  0  0  0  0  0  0  0  0
   38.1960   34.5600   39.0720 H   0  0  0  0  0  0  0  0  0  0  0  0
   39.8380   34.1320   39.3440 H   0  0  0  0  0  0  0  0  0  0  0  0
   35.5280   30.6960   41.0950 N   0  0  0  0  0  0  0  0  0  0  0  0
   35.0920   30.3500   42.0030 H   0  0  0  0  0  0  0  0  0  0  0  0
   34.7610   30.5700   40.4140 H   0  0  0  0  0  0  0  0  0  0  0  0
   37.5750   29.2250   42.4870 C   0  0  0  0  0  2  0  0  0  0  0  0
   38.8190   28.6230   43.0690 C   0  0  0  0  0  2  0  0  0  0  0  0
   38.8110   27.5140   42.9490 H   0  0  0  0  0  0  0  0  0  0  0  0
  1  2  1  0  0  0  0
  1  8  1  0  0  0  0
  2 14  1  0  0  0  0
  3 11  1  0  0  0  0
  3  2  2  0  0  0  0
  4  3  1  0  0  0  0
  5  4  2  0  0  0  0
  5  6  1  0  0  0  0
  6  1  2  0  0  0  0
  7  5  1  0  0  0  0
  9  7  1  0  0  0  0
 10  7  1  0  0  0  0
 11 12  1  0  0  0  0
 13 11  1  0  0  0  0
 14 15  1  0  0  0  0
 16 15  1  0  0  0  0
M  END
>  <minimizedAffinity>
-3.83900857

$$$$

 OpenBabel03252500213D

 16 16  0  0  0  0  0  0  0  0999 V2000
   39.8840   27.0560   43.3630 C   0  0  0  0  0  0  0  0  0  0  0  0
   38.8450   26.2240   42.9830 C   0  0  0  0  0  0  0  0  0  0  0  0
   39.1620   24.8870   42.7420 C   0  0  0  0  0  0  0  0  0  0  0  0
   40.4510   24.4550   42.8850 N   0  0  0  0  0  0  0  0  0  0  0  0
   41.4190   25.3270   43.2620 C   0  0  0  0  0  0  0  0  0  0  0  0
   41.1310   26.6120   43.4970 N   0  0  0  0  0  0  0  0  0  0  0  0
   42.7570   24.9000   43.4230 N   0  0  0  0  0  0  0  0  0  0  0  0
   39.7640   28.1140   43.5740 H   0  0  0  0  0  0  0  0  0  0  0  0
   43.1550   23.9800   43.1540 H   0  0  0  0  0  0  0  0  0  0  0  0
   43.4830   25.5150   43.8530 H   0  0  0  0  0  0  0  0  0  0  0  0
   38.1070   24.0130   42.3370 N   0  0  0  0  0  0  0  0  0  0  0  0
   37.3650   24.2890   41.6240 H   0  0  0  0  0  0  0  0  0  0  0  0
   37.8310   23.0510   42.5910 H   0  0  0  0  0  0  0  0  0  0  0  0
   37.4400   26.7660   42.8560 C   0  0  0  0  0  2  0  0  0  0  0  0
   37.2300   28.0030   43.6790 C   0  0  0  0  0  2  0  0  0  0  0  0
   36.2450   27.9630   44.2030 H   0  0  0  0  0  0  0  0  0  0  0  0
  1  6  1  0  0  0  0
  1  8  1  0  0  0  0
  2  1  2  0  0  0  0
  3  4  2  0  0  0  0
  3  2  1  0  0  0  0
  4  5  1  0  0  0  0
  5  7  1  0  0  0  0
  5  6  2  0  0  0  0
  7 10  1  0  0  0  0
  9  7  1  0  0  0  0
 11 13  1  0  0  0  0
 11  3  1  0  0  0  0
 12 11  1  0  0  0  0
 14  2  1  0  0  0  0
 14 15  1  0  0  0  0
 15 16  1  0  0  0  0
M  END
>  <minimizedAffinity>
-3.83297586

$$$$

 OpenBabel03252500213D

 16 16  0  0  0  0  0  0  0  0999 V2000
   36.9650   31.5020   39.4760 C   0  0  0  0  0  0  0  0  0  0  0  0
   37.6580   31.4050   38.2810 C   0  0  0  0  0  0  0  0  0  0  0  0
   38.7960   32.2010   38.1450 C   0  0  0  0  0  0  0  0  0  0  0  0
   39.1780   33.0270   39.1650 N   0  0  0  0  0  0  0  0  0  0  0  0
   38.4510   33.0690   40.3090 C   0  0  0  0  0  0  0  0  0  0  0  0
   37.3580   32.3120   40.4560 N   0  0  0  0  0  0  0  0  0  0  0  0
   38.8310   33.9100   41.3810 N   0  0  0  0  0  0  0  0  0  0  0  0
   36.0650   30.9380   39.6990 H   0  0  0  0  0  0  0  0  0  0  0  0
   39.5660   34.6430   41.3670 H   0  0  0  0  0  0  0  0  0  0  0  0
   38.3750   33.8490   42.3180 H   0  0  0  0  0  0  0  0  0  0  0  0
   39.5200   32.1270   36.9160 N   0  0  0  0  0  0  0  0  0  0  0  0
   39.0460   32.0980   35.9620 H   0  0  0  0  0  0  0  0  0  0  0  0
   40.5230   32.0810   36.6720 H   0  0  0  0  0  0  0  0  0  0  0  0
   37.1870   30.4620   37.2000 C   0  0  0  0  0  2  0  0  0  0  0  0
   36.0400   29.6070   37.6480 C   0  0  0  0  0  2  0  0  0  0  0  0
   36.1800   28.5530   37.3100 H   0  0  0  0  0  0  0  0  0  0  0  0
  1  8  1  0  0  0  0
  1  6  1  0  0  0  0
  2  1  2  0  0  0  0
  3  2  1  0  0  0  0
  3  4  2  0  0  0  0
  4  5  1  0  0  0  0
  5  6  2  0  0  0  0
  5  7  1  0  0  0  0
  7 10  1  0  0  0  0
  9  7  1  0  0  0  0
 11  3  1  0  0  0  0
 12 11  1  0  0  0  0
 13 11  1  0  0  0  0
 14 15  1  0  0  0  0
 14  2  1  0  0  0  0
 16 15  1  0  0  0  0
M  END
>  <minimizedAffinity>
-3.83040309

$$$$

 OpenBabel03252500213D

 16 16  0  0  0  0  0  0  0  0999 V2000
   38.7960   29.2580   42.1850 C   0  0  0  0  0  0  0  0  0  0  0  0
   37.4440   29.3300   41.8930 C   0  0  0  0  0  0  0  0  0  0  0  0
   36.9710   30.5400   41.3850 C   0  0  0  0  0  0  0  0  0  0  0  0
   37.8320   31.5850   41.1990 N   0  0  0  0  0  0  0  0  0  0  0  0
   39.1450   31.4430   41.5060 C   0  0  0  0  0  0  0  0  0  0  0  0
   39.6150   30.2890   41.9930 N   0  0  0  0  0  0  0  0  0  0  0  0
   40.0560   32.5080   41.3140 N   0  0  0  0  0  0  0  0  0  0  0  0
   39.2800   28.3740   42.5880 H   0  0  0  0  0  0  0  0  0  0  0  0
   39.8230   33.4910   41.0740 H   0  0  0  0  0  0  0  0  0  0  0  0
   41.0870   32.3740   41.4030 H   0  0  0  0  0  0  0  0  0  0  0  0
   35.5780   30.6410   41.0890 N   0  0  0  0  0  0  0  0  0  0  0  0
   34.8180   30.2550   41.7270 H   0  0  0  0  0  0  0  0  0  0  0  0
   35.0350   31.0410   40.3060 H   0  0  0  0  0  0  0  0  0  0  0  0
   36.5510   28.1320   42.1120 C   0  0  0  0  0  2  0  0  0  0  0  0
   36.7010   27.5510   43.4870 C   0  0  0  0  0  2  0  0  0  0  0  0
   36.7360   26.4370   43.4410 H   0  0  0  0  0  0  0  0  0  0  0  0
  1  8  1  0  0  0  0
  2 14  1  0  0  0  0
  2  1  2  0  0  0  0
  3  2  1  0  0  0  0
  4  3  2  0  0  0  0
  4  5  1  0  0  0  0
  5  6  2  0  0  0  0
  6  1  1  0  0  0  0
  7 10  1  0  0  0  0
  7  5  1  0  0  0  0
  9  7  1  0  0  0  0
 11  3  1  0  0  0  0
 11 12  1  0  0  0  0
 13 11  1  0  0  0  0
 14 15  1  0  0  0  0
 16 15  1  0  0  0  0
M  END
>  <minimizedAffinity>
-3.82518053

$$$$

 OpenBabel03252500213D

 16 16  0  0  0  0  0  0  0  0999 V2000
   36.5620   27.5540   40.6210 C   0  0  0  0  0  0  0  0  0  0  0  0
   35.9370   28.7850   40.5190 C   0  0  0  0  0  0  0  0  0  0  0  0
   36.3890   29.7960   41.3680 C   0  0  0  0  0  0  0  0  0  0  0  0
   37.4040   29.5440   42.2480 N   0  0  0  0  0  0  0  0  0  0  0  0
   37.9710   28.3130   42.2930 C   0  0  0  0  0  0  0  0  0  0  0  0
   37.5500   27.3330   41.4840 N   0  0  0  0  0  0  0  0  0  0  0  0
   39.0280   28.0320   43.1890 N   0  0  0  0  0  0  0  0  0  0  0  0
   36.2970   26.6910   40.0190 H   0  0  0  0  0  0  0  0  0  0  0  0
   39.3700   28.6390   43.9590 H   0  0  0  0  0  0  0  0  0  0  0  0
   39.5740   27.1430   43.1370 H   0  0  0  0  0  0  0  0  0  0  0  0
   35.7510   31.0700   41.2890 N   0  0  0  0  0  0  0  0  0  0  0  0
   34.6960   31.1880   41.2020 H   0  0  0  0  0  0  0  0  0  0  0  0
   36.0890   32.0470   41.2870 H   0  0  0  0  0  0  0  0  0  0  0  0
   34.8290   28.9980   39.5150 C   0  0  0  0  0  2  0  0  0  0  0  0
   35.3520   29.2390   38.1300 C   0  0  0  0  0  2  0  0  0  0  0  0
   34.7900   30.0670   37.6370 H   0  0  0  0  0  0  0  0  0  0  0  0
  1  6  1  0  0  0  0
  2  1  2  0  0  0  0
  2  3  1  0  0  0  0
  3  4  2  0  0  0  0
  4  5  1  0  0  0  0
  5  7  1  0  0  0  0
  6  5  2  0  0  0  0
  7  9  1  0  0  0  0
  8  1  1  0  0  0  0
 10  7  1  0  0  0  0
 11  3  1  0  0  0  0
 12 11  1  0  0  0  0
 13 11  1  0  0  0  0
 14  2  1  0  0  0  0
 15 14  1  0  0  0  0
 16 15  1  0  0  0  0
M  END
>  <minimizedAffinity>
-3.77568126

$$$$

 OpenBabel03252500213D

 16 16  0  0  0  0  0  0  0  0999 V2000
   35.8110   28.7310   41.1080 C   0  0  0  0  0  0  0  0  0  0  0  0
   36.8440   28.2870   41.9180 C   0  0  0  0  0  0  0  0  0  0  0  0
   37.8310   29.2160   42.2480 C   0  0  0  0  0  0  0  0  0  0  0  0
   37.7500   30.4960   41.7740 N   0  0  0  0  0  0  0  0  0  0  0  0
   36.7090   30.8610   40.9850 C   0  0  0  0  0  0  0  0  0  0  0  0
   35.7530   29.9830   40.6610 N   0  0  0  0  0  0  0  0  0  0  0  0
   36.6010   32.1810   40.4900 N   0  0  0  0  0  0  0  0  0  0  0  0
   34.9890   28.1030   40.7800 H   0  0  0  0  0  0  0  0  0  0  0  0
   37.3200   32.9280   40.5450 H   0  0  0  0  0  0  0  0  0  0  0  0
   35.7380   32.5200   40.0090 H   0  0  0  0  0  0  0  0  0  0  0  0
   38.9110   28.7780   43.0720 N   0  0  0  0  0  0  0  0  0  0  0  0
   39.4000   27.8400   42.9410 H   0  0  0  0  0  0  0  0  0  0  0  0
   39.4130   29.1830   43.8790 H   0  0  0  0  0  0  0  0  0  0  0  0
   36.8640   26.8620   42.4160 C   0  0  0  0  0  2  0  0  0  0  0  0
   37.2070   25.8830   41.3330 C   0  0  0  0  0  2  0  0  0  0  0  0
   36.5460   24.9860   41.3910 H   0  0  0  0  0  0  0  0  0  0  0  0
  1  2  1  0  0  0  0
  2  3  2  0  0  0  0
  2 14  1  0  0  0  0
  3 11  1  0  0  0  0
  4  3  1  0  0  0  0
  5  4  2  0  0  0  0
  6  5  1  0  0  0  0
  6  1  2  0  0  0  0
  7  9  1  0  0  0  0
  7  5  1  0  0  0  0
  8  1  1  0  0  0  0
 10  7  1  0  0  0  0
 11 13  1  0  0  0  0
 12 11  1  0  0  0  0
 15 16  1  0  0  0  0
 15 14  1  0  0  0  0
M  END
>  <minimizedAffinity>
-3.75740695

$$$$

 OpenBabel03252500213D

 16 16  0  0  0  0  0  0  0  0999 V2000
   37.3540   30.6760   41.0920 C   0  0  0  0  0  0  0  0  0  0  0  0
   38.6080   30.7400   41.6750 C   0  0  0  0  0  0  0  0  0  0  0  0
   39.3520   31.8980   41.4480 C   0  0  0  0  0  0  0  0  0  0  0  0
   38.8340   32.9020   40.6790 N   0  0  0  0  0  0  0  0  0  0  0  0
   37.5970   32.7710   40.1390 C   0  0  0  0  0  0  0  0  0  0  0  0
   36.8700   31.6680   40.3490 N   0  0  0  0  0  0  0  0  0  0  0  0
   37.0370   33.8010   39.3470 N   0  0  0  0  0  0  0  0  0  0  0  0
   36.6840   29.8280   41.1920 H   0  0  0  0  0  0  0  0  0  0  0  0
   37.5230   34.6460   38.9910 H   0  0  0  0  0  0  0  0  0  0  0  0
   36.0370   33.7850   39.0480 H   0  0  0  0  0  0  0  0  0  0  0  0
   40.6540   31.9800   42.0290 N   0  0  0  0  0  0  0  0  0  0  0  0
   41.3410   31.1660   42.0350 H   0  0  0  0  0  0  0  0  0  0  0  0
   41.1780   32.7220   42.5210 H   0  0  0  0  0  0  0  0  0  0  0  0
   39.1140   29.5980   42.5240 C   0  0  0  0  0  2  0  0  0  0  0  0
   38.0190   28.9480   43.3170 C   0  0  0  0  0  2  0  0  0  0  0  0
   38.3600   28.7400   44.3590 H   0  0  0  0  0  0  0  0  0  0  0  0
  1  8  1  0  0  0  0
  1  2  1  0  0  0  0
  2 14  1  0  0  0  0
  3  2  2  0  0  0  0
  3 11  1  0  0  0  0
  4  3  1  0  0  0  0
  5  6  1  0  0  0  0
  5  4  2  0  0  0  0
  6  1  2  0  0  0  0
  7  5  1  0  0  0  0
  9  7  1  0  0  0  0
 10  7  1  0  0  0  0
 11 12  1  0  0  0  0
 11 13  1  0  0  0  0
 14 15  1  0  0  0  0
 15 16  1  0  0  0  0
M  END
>  <minimizedAffinity>
-3.7080946

$$$$
