
 OpenBabel03252500213D

 16 16  0  0  0  0  0  0  0  0999 V2000
   45.4010   35.7280   43.1420 C   0  0  0  0  0  0  0  0  0  0  0  0
   46.4120   34.7930   42.9950 C   0  0  0  0  0  0  0  0  0  0  0  0
   46.6620   33.9560   44.0830 C   0  0  0  0  0  0  0  0  0  0  0  0
   45.9220   34.0830   45.2250 N   0  0  0  0  0  0  0  0  0  0  0  0
   44.9460   35.0210   45.2990 C   0  0  0  0  0  0  0  0  0  0  0  0
   44.6930   35.8310   44.2640 N   0  0  0  0  0  0  0  0  0  0  0  0
   44.1640   35.1650   46.4680 N   0  0  0  0  0  0  0  0  0  0  0  0
   45.1160   36.4360   42.3710 H   0  0  0  0  0  0  0  0  0  0  0  0
   44.3260   34.7080   47.3860 H   0  0  0  0  0  0  0  0  0  0  0  0
   43.3160   35.7740   46.4930 H   0  0  0  0  0  0  0  0  0  0  0  0
   47.7080   32.9930   43.9570 N   0  0  0  0  0  0  0  0  0  0  0  0
   48.6510   33.2120   43.5120 H   0  0  0  0  0  0  0  0  0  0  0  0
   47.8060   31.9970   44.2140 H   0  0  0  0  0  0  0  0  0  0  0  0
   47.1810   34.7000   41.6980 C   0  0  0  0  0  0  0  0  0  0  0  0
   48.4270   35.5350   41.7120 C   0  0  0  0  0  0  0  0  0  0  0  0
   48.5460   36.0780   40.7450 H   0  0  0  0  0  0  0  0  0  0  0  0
  1  6  1  0  0  0  0
  2  1  2  0  0  0  0
  2  3  1  0  0  0  0
  3  4  2  0  0  0  0
  4  5  1  0  0  0  0
  5  7  1  0  0  0  0
  6  5  2  0  0  0  0
  7 10  1  0  0  0  0
  7  9  1  0  0  0  0
  8  1  1  0  0  0  0
 11  3  1  0  0  0  0
 11 13  1  0  0  0  0
 12 11  1  0  0  0  0
 14 15  1  0  0  0  0
 14  2  1  0  0  0  0
 16 15  1  0  0  0  0
M  END
>  <minimizedAffinity>
-4.57134151

>  <minimizedRMSD>
1.54179275

$$$$
