
 OpenBabel03242521503D

 14 14  0  0  0  0  0  0  0  0999 V2000
   35.6130   28.7560   40.7210 C   0  0  0  0  0  0  0  0  0  0  0  0
   35.6450   30.0860   40.2840 C   0  0  0  0  0  0  0  0  0  0  0  0
   36.5850   30.9430   40.8620 C   0  0  0  0  0  0  0  0  0  0  0  0
   37.4110   30.4340   41.8110 N   0  0  0  0  0  0  0  0  0  0  0  0
   37.3540   29.1520   42.2060 C   0  0  0  0  0  0  0  0  0  0  0  0
   36.4580   28.3180   41.6620 N   0  0  0  0  0  0  0  0  0  0  0  0
   34.8970   28.0670   40.2940 H   0  0  0  0  0  0  0  0  0  0  0  0
   34.9430   30.4250   39.5110 H   0  0  0  0  0  0  0  0  0  0  0  0
   36.6510   32.2980   40.4490 N   0  0  0  0  0  0  0  0  0  0  0  0
   35.6850   32.7360   40.4640 H   0  0  0  0  0  0  0  0  0  0  0  0
   37.5090   32.8370   40.1610 H   0  0  0  0  0  0  0  0  0  0  0  0
   38.3620   28.8410   43.2550 C   0  0  0  0  0  2  0  0  0  0  0  0
   38.3330   27.3600   43.5820 C   0  0  0  0  0  2  0  0  0  0  0  0
   38.9450   27.1700   44.4840 H   0  0  0  0  0  0  0  0  0  0  0  0
  1  6  1  0  0  0  0
  2  1  2  0  0  0  0
  2  3  1  0  0  0  0
  3  4  2  0  0  0  0
  4  5  1  0  0  0  0
  5 12  1  0  0  0  0
  6  5  2  0  0  0  0
  7  1  1  0  0  0  0
  8  2  1  0  0  0  0
  9 10  1  0  0  0  0
  9  3  1  0  0  0  0
 11  9  1  0  0  0  0
 12 13  1  0  0  0  0
 13 14  1  0  0  0  0
M  END
>  <minimizedAffinity>
-3.6898551

$$$$

 OpenBabel03242521503D

 14 14  0  0  0  0  0  0  0  0999 V2000
   36.1670   28.1300   39.0390 C   0  0  0  0  0  0  0  0  0  0  0  0
   35.8790   29.4480   39.4180 C   0  0  0  0  0  0  0  0  0  0  0  0
   35.9950   29.7810   40.7700 C   0  0  0  0  0  0  0  0  0  0  0  0
   36.3810   28.8080   41.6340 N   0  0  0  0  0  0  0  0  0  0  0  0
   36.6500   27.5540   41.2370 C   0  0  0  0  0  0  0  0  0  0  0  0
   36.5430   27.2190   39.9450 N   0  0  0  0  0  0  0  0  0  0  0  0
   36.0870   27.8390   38.0010 H   0  0  0  0  0  0  0  0  0  0  0  0
   35.5720   30.1800   38.6600 H   0  0  0  0  0  0  0  0  0  0  0  0
   35.7130   31.1030   41.1960 N   0  0  0  0  0  0  0  0  0  0  0  0
   34.7780   31.4240   40.8090 H   0  0  0  0  0  0  0  0  0  0  0  0
   36.3090   31.7190   41.8080 H   0  0  0  0  0  0  0  0  0  0  0  0
   37.0510   26.6780   42.3710 C   0  0  0  0  0  2  0  0  0  0  0  0
   36.5540   27.2610   43.6790 C   0  0  0  0  0  2  0  0  0  0  0  0
   37.0100   26.7120   44.5250 H   0  0  0  0  0  0  0  0  0  0  0  0
  1  2  2  0  0  0  0
  1  6  1  0  0  0  0
  2  3  1  0  0  0  0
  3  9  1  0  0  0  0
  3  4  2  0  0  0  0
  5  4  1  0  0  0  0
  5 12  1  0  0  0  0
  6  5  2  0  0  0  0
  7  1  1  0  0  0  0
  8  2  1  0  0  0  0
  9 11  1  0  0  0  0
 10  9  1  0  0  0  0
 12 13  1  0  0  0  0
 13 14  1  0  0  0  0
M  END
>  <minimizedAffinity>
-3.60831404

$$$$

 OpenBabel03242521503D

 14 14  0  0  0  0  0  0  0  0999 V2000
   39.4550   30.5620   41.5820 C   0  0  0  0  0  0  0  0  0  0  0  0
   38.2690   31.1250   41.0920 C   0  0  0  0  0  0  0  0  0  0  0  0
   37.0590   30.5440   41.4790 C   0  0  0  0  0  0  0  0  0  0  0  0
   37.1060   29.4690   42.3070 N   0  0  0  0  0  0  0  0  0  0  0  0
   38.2600   28.9550   42.7580 C   0  0  0  0  0  0  0  0  0  0  0  0
   39.4290   29.5000   42.3960 N   0  0  0  0  0  0  0  0  0  0  0  0
   40.4080   30.9870   41.3010 H   0  0  0  0  0  0  0  0  0  0  0  0
   38.3120   31.9950   40.4250 H   0  0  0  0  0  0  0  0  0  0  0  0
   35.8360   31.0820   41.0060 N   0  0  0  0  0  0  0  0  0  0  0  0
   35.8710   31.2100   39.9530 H   0  0  0  0  0  0  0  0  0  0  0  0
   34.9860   31.3350   41.5750 H   0  0  0  0  0  0  0  0  0  0  0  0
   38.0440   27.7820   43.6490 C   0  0  0  0  0  2  0  0  0  0  0  0
   36.5730   27.4170   43.6800 C   0  0  0  0  0  2  0  0  0  0  0  0
   36.3940   26.6730   44.4790 H   0  0  0  0  0  0  0  0  0  0  0  0
  1  6  1  0  0  0  0
  2  3  1  0  0  0  0
  2  1  2  0  0  0  0
  3  4  2  0  0  0  0
  4  5  1  0  0  0  0
  5 12  1  0  0  0  0
  6  5  2  0  0  0  0
  7  1  1  0  0  0  0
  8  2  1  0  0  0  0
  9  3  1  0  0  0  0
  9 11  1  0  0  0  0
 10  9  1  0  0  0  0
 12 13  1  0  0  0  0
 13 14  1  0  0  0  0
M  END
>  <minimizedAffinity>
-3.56341171

$$$$

 OpenBabel03242521503D

 14 14  0  0  0  0  0  0  0  0999 V2000
   36.5530   27.5260   40.2150 C   0  0  0  0  0  0  0  0  0  0  0  0
   36.0640   28.8370   40.1430 C   0  0  0  0  0  0  0  0  0  0  0  0
   36.2740   29.6760   41.2400 C   0  0  0  0  0  0  0  0  0  0  0  0
   36.9410   29.1700   42.3090 N   0  0  0  0  0  0  0  0  0  0  0  0
   37.3980   27.9090   42.3450 C   0  0  0  0  0  0  0  0  0  0  0  0
   37.2040   27.0920   41.3020 N   0  0  0  0  0  0  0  0  0  0  0  0
   36.4070   26.8510   39.3840 H   0  0  0  0  0  0  0  0  0  0  0  0
   35.5330   29.1740   39.2440 H   0  0  0  0  0  0  0  0  0  0  0  0
   35.7950   31.0100   41.2100 N   0  0  0  0  0  0  0  0  0  0  0  0
   34.7770   31.0290   40.9110 H   0  0  0  0  0  0  0  0  0  0  0  0
   36.3300   31.8870   41.4400 H   0  0  0  0  0  0  0  0  0  0  0  0
   38.0930   27.5980   43.6230 C   0  0  0  0  0  2  0  0  0  0  0  0
   39.4330   26.9460   43.3410 C   0  0  0  0  0  2  0  0  0  0  0  0
   39.8570   26.5520   44.2840 H   0  0  0  0  0  0  0  0  0  0  0  0
  1  6  1  0  0  0  0
  2  1  2  0  0  0  0
  2  3  1  0  0  0  0
  3  4  2  0  0  0  0
  4  5  1  0  0  0  0
  5 12  1  0  0  0  0
  6  5  2  0  0  0  0
  7  1  1  0  0  0  0
  8  2  1  0  0  0  0
  9  3  1  0  0  0  0
  9 11  1  0  0  0  0
 10  9  1  0  0  0  0
 13 12  1  0  0  0  0
 13 14  1  0  0  0  0
M  END
>  <minimizedAffinity>
-3.55664635

$$$$

 OpenBabel03242521503D

 14 14  0  0  0  0  0  0  0  0999 V2000
   39.0810   29.4320   41.8140 C   0  0  0  0  0  0  0  0  0  0  0  0
   38.0980   30.3750   41.4850 C   0  0  0  0  0  0  0  0  0  0  0  0
   36.7600   29.9790   41.5590 C   0  0  0  0  0  0  0  0  0  0  0  0
   36.4940   28.7050   41.9480 N   0  0  0  0  0  0  0  0  0  0  0  0
   37.4610   27.8270   42.2560 C   0  0  0  0  0  0  0  0  0  0  0  0
   38.7480   28.1910   42.1890 N   0  0  0  0  0  0  0  0  0  0  0  0
   40.1250   29.7060   41.7660 H   0  0  0  0  0  0  0  0  0  0  0  0
   38.3910   31.3870   41.1800 H   0  0  0  0  0  0  0  0  0  0  0  0
   35.7330   30.9000   41.2350 N   0  0  0  0  0  0  0  0  0  0  0  0
   35.9350   31.3660   40.3030 H   0  0  0  0  0  0  0  0  0  0  0  0
   34.8740   31.1260   41.8010 H   0  0  0  0  0  0  0  0  0  0  0  0
   36.9130   26.5010   42.6500 C   0  0  0  0  0  2  0  0  0  0  0  0
   37.2120   25.4740   41.5750 C   0  0  0  0  0  2  0  0  0  0  0  0
   36.6460   24.5460   41.7840 H   0  0  0  0  0  0  0  0  0  0  0  0
  1  6  1  0  0  0  0
  2  3  1  0  0  0  0
  2  1  2  0  0  0  0
  3  4  2  0  0  0  0
  4  5  1  0  0  0  0
  5 12  1  0  0  0  0
  6  5  2  0  0  0  0
  7  1  1  0  0  0  0
  8  2  1  0  0  0  0
  9  3  1  0  0  0  0
  9 11  1  0  0  0  0
 10  9  1  0  0  0  0
 13 14  1  0  0  0  0
 13 12  1  0  0  0  0
M  END
>  <minimizedAffinity>
-3.4559257

$$$$

 OpenBabel03242521503D

 14 14  0  0  0  0  0  0  0  0999 V2000
   37.1530   30.7080   37.8220 C   0  0  0  0  0  0  0  0  0  0  0  0
   37.4470   31.9410   38.4190 C   0  0  0  0  0  0  0  0  0  0  0  0
   37.0310   32.1460   39.7380 C   0  0  0  0  0  0  0  0  0  0  0  0
   36.3690   31.1370   40.3600 N   0  0  0  0  0  0  0  0  0  0  0  0
   36.1050   29.9670   39.7570 C   0  0  0  0  0  0  0  0  0  0  0  0
   36.4950   29.7550   38.4940 N   0  0  0  0  0  0  0  0  0  0  0  0
   37.4600   30.5180   36.8030 H   0  0  0  0  0  0  0  0  0  0  0  0
   37.9860   32.7090   37.8510 H   0  0  0  0  0  0  0  0  0  0  0  0
   37.3080   33.3790   40.3800 N   0  0  0  0  0  0  0  0  0  0  0  0
   37.0140   34.1910   39.7630 H   0  0  0  0  0  0  0  0  0  0  0  0
   37.7400   33.5220   41.3300 H   0  0  0  0  0  0  0  0  0  0  0  0
   35.3700   29.0290   40.6490 C   0  0  0  0  0  2  0  0  0  0  0  0
   36.3390   28.3360   41.5870 C   0  0  0  0  0  2  0  0  0  0  0  0
   35.8190   27.5120   42.1120 H   0  0  0  0  0  0  0  0  0  0  0  0
  1  2  2  0  0  0  0
  1  6  1  0  0  0  0
  2  3  1  0  0  0  0
  3  4  2  0  0  0  0
  3  9  1  0  0  0  0
  5  4  1  0  0  0  0
  5 12  1  0  0  0  0
  6  5  2  0  0  0  0
  7  1  1  0  0  0  0
  8  2  1  0  0  0  0
  9 11  1  0  0  0  0
 10  9  1  0  0  0  0
 12 13  1  0  0  0  0
 13 14  1  0  0  0  0
M  END
>  <minimizedAffinity>
-3.42549038

$$$$

 OpenBabel03242521503D

 14 14  0  0  0  0  0  0  0  0999 V2000
   39.8020   26.9240   42.5300 C   0  0  0  0  0  0  0  0  0  0  0  0
   39.1500   28.0620   43.0230 C   0  0  0  0  0  0  0  0  0  0  0  0
   37.7630   28.0060   43.1830 C   0  0  0  0  0  0  0  0  0  0  0  0
   37.1320   26.8500   42.8520 N   0  0  0  0  0  0  0  0  0  0  0  0
   37.7870   25.7780   42.3820 C   0  0  0  0  0  0  0  0  0  0  0  0
   39.1170   25.8160   42.2220 N   0  0  0  0  0  0  0  0  0  0  0  0
   40.8740   26.9350   42.3940 H   0  0  0  0  0  0  0  0  0  0  0  0
   39.7300   28.9610   43.2680 H   0  0  0  0  0  0  0  0  0  0  0  0
   37.0640   29.1350   43.6780 N   0  0  0  0  0  0  0  0  0  0  0  0
   37.3450   30.0070   43.1430 H   0  0  0  0  0  0  0  0  0  0  0  0
   36.3590   29.1580   44.4600 H   0  0  0  0  0  0  0  0  0  0  0  0
   36.8720   24.6400   42.0940 C   0  0  0  0  0  2  0  0  0  0  0  0
   36.7060   24.4720   40.5960 C   0  0  0  0  0  2  0  0  0  0  0  0
   35.8880   23.7540   40.3940 H   0  0  0  0  0  0  0  0  0  0  0  0
  1  2  1  0  0  0  0
  2  3  2  0  0  0  0
  2  8  1  0  0  0  0
  3  9  1  0  0  0  0
  4  3  1  0  0  0  0
  5  4  2  0  0  0  0
  6  5  1  0  0  0  0
  6  1  2  0  0  0  0
  7  1  1  0  0  0  0
  9 11  1  0  0  0  0
 10  9  1  0  0  0  0
 12  5  1  0  0  0  0
 13 12  1  0  0  0  0
 14 13  1  0  0  0  0
M  END
>  <minimizedAffinity>
-3.3911581

$$$$

 OpenBabel03242521503D

 14 14  0  0  0  0  0  0  0  0999 V2000
   38.1830   32.4740   39.1550 C   0  0  0  0  0  0  0  0  0  0  0  0
   37.4240   32.2070   40.3020 C   0  0  0  0  0  0  0  0  0  0  0  0
   36.4890   31.1710   40.2420 C   0  0  0  0  0  0  0  0  0  0  0  0
   36.3740   30.4840   39.0760 N   0  0  0  0  0  0  0  0  0  0  0  0
   37.1180   30.7660   37.9960 C   0  0  0  0  0  0  0  0  0  0  0  0
   38.0180   31.7570   38.0360 N   0  0  0  0  0  0  0  0  0  0  0  0
   38.9150   33.2690   39.1670 H   0  0  0  0  0  0  0  0  0  0  0  0
   37.5740   32.8070   41.2080 H   0  0  0  0  0  0  0  0  0  0  0  0
   35.7000   30.8670   41.3800 N   0  0  0  0  0  0  0  0  0  0  0  0
   35.2580   31.7500   41.7680 H   0  0  0  0  0  0  0  0  0  0  0  0
   35.5430   29.9210   41.8150 H   0  0  0  0  0  0  0  0  0  0  0  0
   36.8040   29.8730   36.8470 C   0  0  0  0  0  2  0  0  0  0  0  0
   35.5180   29.1150   37.1150 C   0  0  0  0  0  2  0  0  0  0  0  0
   35.3910   28.3240   36.3510 H   0  0  0  0  0  0  0  0  0  0  0  0
  1  7  1  0  0  0  0
  1  2  1  0  0  0  0
  2  8  1  0  0  0  0
  3  2  2  0  0  0  0
  3  9  1  0  0  0  0
  4  3  1  0  0  0  0
  5  6  1  0  0  0  0
  5  4  2  0  0  0  0
  6  1  2  0  0  0  0
  9 10  1  0  0  0  0
  9 11  1  0  0  0  0
 12 13  1  0  0  0  0
 12  5  1  0  0  0  0
 14 13  1  0  0  0  0
M  END
>  <minimizedAffinity>
-3.36410785

$$$$

 OpenBabel03242521503D

 14 14  0  0  0  0  0  0  0  0999 V2000
   36.5630   27.5650   40.2600 C   0  0  0  0  0  0  0  0  0  0  0  0
   36.5970   28.4890   41.3130 C   0  0  0  0  0  0  0  0  0  0  0  0
   36.9310   28.0190   42.5860 C   0  0  0  0  0  0  0  0  0  0  0  0
   37.2040   26.6960   42.7240 N   0  0  0  0  0  0  0  0  0  0  0  0
   37.1630   25.8380   41.6920 C   0  0  0  0  0  0  0  0  0  0  0  0
   36.8440   26.2730   40.4660 N   0  0  0  0  0  0  0  0  0  0  0  0
   36.3080   27.8960   39.2630 H   0  0  0  0  0  0  0  0  0  0  0  0
   36.3640   29.5440   41.1230 H   0  0  0  0  0  0  0  0  0  0  0  0
   36.9760   28.9190   43.6790 N   0  0  0  0  0  0  0  0  0  0  0  0
   36.0910   29.5020   43.7150 H   0  0  0  0  0  0  0  0  0  0  0  0
   37.7520   29.0320   44.3840 H   0  0  0  0  0  0  0  0  0  0  0  0
   37.5010   24.4480   42.1020 C   0  0  0  0  0  2  0  0  0  0  0  0
   38.9320   24.3860   42.5990 C   0  0  0  0  0  2  0  0  0  0  0  0
   39.2340   23.3290   42.7240 H   0  0  0  0  0  0  0  0  0  0  0  0
  1  6  2  0  0  0  0
  1  2  1  0  0  0  0
  2  3  2  0  0  0  0
  3  4  1  0  0  0  0
  3  9  1  0  0  0  0
  5 12  1  0  0  0  0
  5  4  2  0  0  0  0
  6  5  1  0  0  0  0
  7  1  1  0  0  0  0
  8  2  1  0  0  0  0
  9 10  1  0  0  0  0
  9 11  1  0  0  0  0
 12 13  1  0  0  0  0
 13 14  1  0  0  0  0
M  END
>  <minimizedAffinity>
-3.3352108

$$$$
