
 OpenBabel03252507573D

 21 22  0  0  1  0  0  0  0  0999 V2000
   46.2310   34.8080   43.2220 C   0  0  0  0  0  0  0  0  0  0  0  0
   45.3080   35.8300   43.5660 C   0  0  0  0  0  0  0  0  0  0  0  0
   44.6390   35.6930   44.7940 C   0  0  0  0  0  0  0  0  0  0  0  0
   44.9310   34.5930   45.5540 N   0  0  0  0  0  0  0  0  0  0  0  0
   45.8150   33.6640   45.1650 C   0  0  0  0  0  0  0  0  0  0  0  0
   46.4720   33.7450   44.0190 N   0  0  0  0  0  0  0  0  0  0  0  0
   45.1120   36.6680   42.9470 H   0  0  0  0  0  0  0  0  0  0  0  0
   43.9280   36.4440   45.1010 H   0  0  0  0  0  0  0  0  0  0  0  0
   46.0650   32.5070   46.0760 C   0  0  1  0  0  0  0  0  0  0  0  0
   46.9330   32.6730   47.2830 C   0  0  0  0  0  0  0  0  0  0  0  0
   45.4490   32.6420   47.4330 C   0  0  2  0  0  0  0  0  0  0  0  0
   46.0050   31.5370   45.5820 H   0  0  0  0  0  0  0  0  0  0  0  0
   47.5160   31.7660   47.5470 H   0  0  0  0  0  0  0  0  0  0  0  0
   47.5220   33.5930   47.3370 H   0  0  0  0  0  0  0  0  0  0  0  0
   45.0170   33.6390   47.7380 H   0  0  0  0  0  0  0  0  0  0  0  0
   44.9160   31.4660   48.1920 C   0  0  0  0  0  0  0  0  0  0  0  0
   45.4720   31.5160   49.6210 C   0  0  0  0  0  0  0  0  0  0  0  0
   45.6090   30.5160   50.0430 H   0  0  0  0  0  0  0  0  0  0  0  0
   46.8880   35.0080   41.9600 C   0  0  0  0  0  0  0  0  0  0  0  0
   48.0630   35.4650   41.8140 O   0  0  0  0  0  0  0  0  0  0  0  0
   46.2070   34.7030   41.1740 H   0  0  0  0  0  0  0  0  0  0  0  0
  1  2  2  0  0  0  0
  1  6  1  0  0  0  0
  2  3  1  0  0  0  0
  3  8  1  0  0  0  0
  3  4  2  0  0  0  0
  5  4  1  0  0  0  0
  5  9  1  0  0  0  0
  6  5  2  0  0  0  0
  7  2  1  0  0  0  0
  9 12  1  6  0  0  0
  9 10  1  0  0  0  0
  9 11  1  0  0  0  0
 10 14  1  0  0  0  0
 10 11  1  0  0  0  0
 10 13  1  0  0  0  0
 11 15  1  1  0  0  0
 11 16  1  0  0  0  0
 16 17  1  0  0  0  0
 17 18  1  0  0  0  0
 19  1  1  0  0  0  0
 20 19  2  0  0  0  0
 21 19  1  0  0  0  0
M  END
>  <minimizedAffinity>
-4.53571939

>  <minimizedRMSD>
0.263353348

$$$$
