
 OpenBabel03252504133D

 29 30  0  0  0  0  0  0  0  0999 V2000
   46.7950   34.1170   43.0100 C   0  0  0  0  0  0  0  0  0  0  0  0
   45.6290   33.7060   42.3720 C   0  0  0  0  0  0  0  0  0  0  0  0
   44.9090   32.6610   42.9710 C   0  0  0  0  0  0  0  0  0  0  0  0
   45.3640   32.1030   44.1200 N   0  0  0  0  0  0  0  0  0  0  0  0
   46.5040   32.5450   44.6950 C   0  0  0  0  0  0  0  0  0  0  0  0
   47.2240   33.5480   44.1480 N   0  0  0  0  0  0  0  0  0  0  0  0
   43.9990   32.3340   42.4830 H   0  0  0  0  0  0  0  0  0  0  0  0
   47.6990   29.9780   44.8010 F   0  0  0  0  0  0  0  0  0  0  0  0
   47.5920   30.7040   45.9640 C   0  0  0  0  0  0  0  0  0  0  0  0
   47.0140   31.9550   45.9410 C   0  0  0  0  0  0  0  0  0  0  0  0
   46.9390   32.6310   47.1560 C   0  0  0  0  0  0  0  0  0  0  0  0
   47.4240   32.0560   48.3130 C   0  0  0  0  0  0  0  0  0  0  0  0
   47.9970   30.7880   48.2730 C   0  0  0  0  0  0  0  0  0  0  0  0
   48.0890   30.0890   47.0850 C   0  0  0  0  0  0  0  0  0  0  0  0
   46.4910   33.6130   47.1750 H   0  0  0  0  0  0  0  0  0  0  0  0
   47.3700   32.5750   49.2680 H   0  0  0  0  0  0  0  0  0  0  0  0
   48.3750   30.3460   49.1910 H   0  0  0  0  0  0  0  0  0  0  0  0
   48.7030   28.7340   47.0250 C   0  0  0  0  0  0  0  0  0  0  0  0
   49.4530   28.3940   48.2780 C   0  0  0  0  0  0  0  0  0  0  0  0
   48.9080   27.6970   48.9430 H   0  0  0  0  0  0  0  0  0  0  0  0
   45.2030   34.3680   41.1220 C   0  0  0  0  0  0  0  0  0  0  0  0
   44.9180   35.6930   41.3610 F   0  0  0  0  0  0  0  0  0  0  0  0
   46.2730   34.3350   40.2420 F   0  0  0  0  0  0  0  0  0  0  0  0
   44.1200   33.8070   40.5220 F   0  0  0  0  0  0  0  0  0  0  0  0
   47.4920   35.1300   42.4270 O   0  0  0  0  0  0  0  0  0  0  0  0
   48.7970   35.0690   41.9150 C   0  0  0  0  0  0  0  0  0  0  0  0
   49.6760   35.3040   42.9820 F   0  0  0  0  0  0  0  0  0  0  0  0
   49.0130   33.8590   41.3140 F   0  0  0  0  0  0  0  0  0  0  0  0
   49.0080   36.1240   41.0550 F   0  0  0  0  0  0  0  0  0  0  0  0
  1  6  1  0  0  0  0
  2  3  1  0  0  0  0
  2  1  2  0  0  0  0
  3  4  2  0  0  0  0
  4  5  1  0  0  0  0
  5 10  1  0  0  0  0
  6  5  2  0  0  0  0
  7  3  1  0  0  0  0
  8  9  1  0  0  0  0
  9 14  1  0  0  0  0
 10  9  2  0  0  0  0
 10 11  1  0  0  0  0
 11 15  1  0  0  0  0
 11 12  2  0  0  0  0
 12 16  1  0  0  0  0
 13 12  1  0  0  0  0
 13 17  1  0  0  0  0
 14 13  2  0  0  0  0
 18 14  1  0  0  0  0
 18 19  1  0  0  0  0
 19 20  1  0  0  0  0
 21 22  1  0  0  0  0
 21  2  1  0  0  0  0
 23 21  1  0  0  0  0
 24 21  1  0  0  0  0
 25  1  1  0  0  0  0
 26 25  1  0  0  0  0
 26 27  1  0  0  0  0
 28 26  1  0  0  0  0
 29 26  1  0  0  0  0
M  END
>  <minimizedAffinity>
-5.37250519

>  <minimizedRMSD>
0.0723404959

$$$$
