
 OpenBabel03252508173D

 41 44  0  0  1  0  0  0  0  0999 V2000
   45.9980   33.0910   46.2110 C   0  0  0  0  0  0  0  0  0  0  0  0
   46.8380   32.1930   45.9070 C   0  0  0  0  0  0  0  0  0  0  0  0
   44.5140   35.9720   44.4580 C   0  0  0  0  0  0  0  0  0  0  0  0
   45.1710   35.9670   43.2360 C   0  0  0  0  0  0  0  0  0  0  0  0
   46.0920   34.9900   43.0520 C   0  0  0  0  0  0  0  0  0  0  0  0
   46.3410   34.0710   44.0320 N   0  0  0  0  0  0  0  0  0  0  0  0
   45.6840   34.1080   45.2080 C   0  0  0  0  0  0  0  0  0  0  0  0
   44.7820   35.0630   45.3890 N   0  0  0  0  0  0  0  0  0  0  0  0
   43.7690   36.7310   44.6540 H   0  0  0  0  0  0  0  0  0  0  0  0
   44.9630   36.6970   42.4720 H   0  0  0  0  0  0  0  0  0  0  0  0
   46.8600   34.8560   41.8200 C   0  0  0  0  0  0  0  0  0  0  0  0
   48.0690   35.4410   41.5820 C   0  0  0  0  0  0  0  0  0  0  0  0
   48.7860   35.3050   40.4120 C   0  0  0  0  0  0  0  0  0  0  0  0
   48.2790   34.5320   39.3870 C   0  0  0  0  0  0  0  0  0  0  0  0
   47.0690   33.9140   39.5580 C   0  0  0  0  0  0  0  0  0  0  0  0
   46.3930   34.0880   40.7590 C   0  0  0  0  0  0  0  0  0  0  0  0
   48.4980   36.0630   42.3770 H   0  0  0  0  0  0  0  0  0  0  0  0
   49.7410   35.8040   40.3010 H   0  0  0  0  0  0  0  0  0  0  0  0
   48.8610   34.4410   38.4790 H   0  0  0  0  0  0  0  0  0  0  0  0
   46.6680   33.3110   38.7670 H   0  0  0  0  0  0  0  0  0  0  0  0
   45.4400   33.5730   40.8320 H   0  0  0  0  0  0  0  0  0  0  0  0
   47.0570   31.1210   46.9500 C   0  0  0  0  0  0  0  0  0  0  0  0
   47.9170   30.5180   46.7450 H   0  0  0  0  0  0  0  0  0  0  0  0
   46.1640   30.4440   46.7860 H   0  0  0  0  0  0  0  0  0  0  0  0
   46.8700   31.6700   48.3250 C   0  0  1  0  0  0  0  0  0  0  0  0
   46.3030   30.6840   49.2940 C   0  0  0  0  0  0  0  0  0  0  0  0
   47.6740   31.1660   49.4450 C   0  0  1  0  0  0  0  0  0  0  0  0
   46.2520   32.6110   48.3600 H   0  0  0  0  0  0  0  0  0  0  0  0
   46.1860   29.6030   49.0040 H   0  0  0  0  0  0  0  0  0  0  0  0
   45.5490   30.9630   50.0540 H   0  0  0  0  0  0  0  0  0  0  0  0
   47.8530   31.8720   50.2830 H   0  0  0  0  0  0  0  0  0  0  0  0
   48.8500   30.3040   49.1360 C   0  0  2  0  0  0  0  0  0  0  0  0
   49.7370   29.9750   50.3620 C   0  0  0  0  0  0  0  0  0  0  0  0
   50.2400   30.8960   49.3270 C   0  0  2  0  0  0  0  0  0  0  0  0
   48.8300   29.4550   48.4500 H   0  0  0  0  0  0  0  0  0  0  0  0
   49.4170   30.4100   51.3460 H   0  0  0  0  0  0  0  0  0  0  0  0
   50.1550   28.9790   50.4820 H   0  0  0  0  0  0  0  0  0  0  0  0
   51.0740   30.5030   48.6770 H   0  0  0  0  0  0  0  0  0  0  0  0
   50.3540   32.3500   49.7370 C   0  0  0  0  0  0  0  0  0  0  0  0
   51.7430   32.7790   50.0780 C   0  0  0  0  0  0  0  0  0  0  0  0
   51.9750   33.7170   49.5270 H   0  0  0  0  0  0  0  0  0  0  0  0
  2  1  2  0  0  0  0
  2 22  1  0  0  0  0
  3  9  1  0  0  0  0
  3  8  1  0  0  0  0
  4  3  2  0  0  0  0
  5  4  1  0  0  0  0
  5  6  2  0  0  0  0
  6  7  1  0  0  0  0
  7  8  2  0  0  0  0
  7  1  1  0  0  0  0
 10  4  1  0  0  0  0
 11  5  1  0  0  0  0
 12 11  1  0  0  0  0
 12 17  1  0  0  0  0
 13 12  2  0  0  0  0
 14 15  2  0  0  0  0
 14 13  1  0  0  0  0
 15 16  1  0  0  0  0
 16 21  1  0  0  0  0
 16 11  2  0  0  0  0
 18 13  1  0  0  0  0
 19 14  1  0  0  0  0
 20 15  1  0  0  0  0
 22 25  1  0  0  0  0
 23 22  1  0  0  0  0
 24 22  1  0  0  0  0
 25 28  1  1  0  0  0
 25 26  1  0  0  0  0
 25 27  1  0  0  0  0
 26 27  1  0  0  0  0
 26 30  1  0  0  0  0
 27 31  1  1  0  0  0
 29 26  1  0  0  0  0
 32 35  1  6  0  0  0
 32 34  1  0  0  0  0
 32 27  1  0  0  0  0
 32 33  1  0  0  0  0
 33 37  1  0  0  0  0
 33 36  1  0  0  0  0
 34 38  1  6  0  0  0
 34 39  1  0  0  0  0
 34 33  1  0  0  0  0
 39 40  1  0  0  0  0
 41 40  1  0  0  0  0
M  END
>  <minimizedAffinity>
-6.35462856

>  <minimizedRMSD>
0.910497546

$$$$
