
 OpenBabel03252507583D

 21 22  0  0  1  0  0  0  0  0999 V2000
   38.4890   31.4930   40.6850 C   0  0  0  0  0  0  0  0  0  0  0  0
   37.1910   31.5790   40.1170 C   0  0  0  0  0  0  0  0  0  0  0  0
   36.2040   30.7410   40.6640 C   0  0  0  0  0  0  0  0  0  0  0  0
   36.5720   29.9160   41.6920 N   0  0  0  0  0  0  0  0  0  0  0  0
   37.8200   29.8870   42.1790 C   0  0  0  0  0  0  0  0  0  0  0  0
   38.7870   30.6540   41.7010 N   0  0  0  0  0  0  0  0  0  0  0  0
   36.9470   32.2330   39.3200 H   0  0  0  0  0  0  0  0  0  0  0  0
   35.2010   30.7690   40.2670 H   0  0  0  0  0  0  0  0  0  0  0  0
   38.1110   28.9550   43.3090 C   0  0  1  0  0  0  0  0  0  0  0  0
   37.2430   27.7590   43.5410 C   0  0  0  0  0  0  0  0  0  0  0  0
   38.5760   27.5970   42.8880 C   0  0  2  0  0  0  0  0  0  0  0  0
   38.6150   29.4300   44.1510 H   0  0  0  0  0  0  0  0  0  0  0  0
   37.1350   27.4810   44.6100 H   0  0  0  0  0  0  0  0  0  0  0  0
   36.2990   27.7270   42.9910 H   0  0  0  0  0  0  0  0  0  0  0  0
   38.5000   27.3080   41.7990 H   0  0  0  0  0  0  0  0  0  0  0  0
   39.5740   26.8100   43.6800 C   0  0  0  0  0  2  0  0  0  0  0  0
   39.5780   25.3660   43.1610 C   0  0  0  0  0  2  0  0  0  0  0  0
   39.8100   24.6460   43.9530 H   0  0  0  0  0  0  0  0  0  0  0  0
   39.4520   32.3790   40.0900 C   0  0  0  0  0  0  0  0  0  0  0  0
   39.3130   33.6350   39.9750 O   0  0  0  0  0  0  0  0  0  0  0  0
   40.2980   31.7860   39.7660 H   0  0  0  0  0  0  0  0  0  0  0  0
  1  6  1  0  0  0  0
  2  3  1  0  0  0  0
  2  1  2  0  0  0  0
  3  4  2  0  0  0  0
  4  5  1  0  0  0  0
  5  9  1  0  0  0  0
  6  5  2  0  0  0  0
  7  2  1  0  0  0  0
  8  3  1  0  0  0  0
  9 10  1  0  0  0  0
  9 12  1  1  0  0  0
 10 13  1  0  0  0  0
 11 15  1  6  0  0  0
 11  9  1  0  0  0  0
 11 10  1  0  0  0  0
 11 16  1  0  0  0  0
 14 10  1  0  0  0  0
 17 16  1  0  0  0  0
 17 18  1  0  0  0  0
 19  1  1  0  0  0  0
 20 19  2  0  0  0  0
 21 19  1  0  0  0  0
M  END
>  <minimizedAffinity>
-4.07757902

$$$$

 OpenBabel03252507583D

 21 22  0  0  1  0  0  0  0  0999 V2000
   39.6530   25.7360   43.1590 C   0  0  0  0  0  0  0  0  0  0  0  0
   39.2810   24.4430   42.7080 C   0  0  0  0  0  0  0  0  0  0  0  0
   37.9810   24.3020   42.1920 C   0  0  0  0  0  0  0  0  0  0  0  0
   37.1860   25.4150   42.1670 N   0  0  0  0  0  0  0  0  0  0  0  0
   37.6040   26.6080   42.6120 C   0  0  0  0  0  0  0  0  0  0  0  0
   38.8170   26.7960   43.1070 N   0  0  0  0  0  0  0  0  0  0  0  0
   39.9290   23.6060   42.7450 H   0  0  0  0  0  0  0  0  0  0  0  0
   37.6500   23.3390   41.8360 H   0  0  0  0  0  0  0  0  0  0  0  0
   36.6570   27.7600   42.5300 C   0  0  1  0  0  0  0  0  0  0  0  0
   37.1770   29.1490   42.3340 C   0  0  0  0  0  0  0  0  0  0  0  0
   36.5840   28.4070   41.1830 C   0  0  2  0  0  0  0  0  0  0  0  0
   35.7250   27.6020   43.0730 H   0  0  0  0  0  0  0  0  0  0  0  0
   36.5700   29.9330   42.8350 H   0  0  0  0  0  0  0  0  0  0  0  0
   38.2530   29.2900   42.4650 H   0  0  0  0  0  0  0  0  0  0  0  0
   37.3470   28.1250   40.4010 H   0  0  0  0  0  0  0  0  0  0  0  0
   35.3150   28.9910   40.6430 C   0  0  0  0  0  2  0  0  0  0  0  0
   35.2610   28.7250   39.1330 C   0  0  0  0  0  2  0  0  0  0  0  0
   34.7330   29.5190   38.5950 H   0  0  0  0  0  0  0  0  0  0  0  0
   40.9940   25.8190   43.6670 C   0  0  0  0  0  0  0  0  0  0  0  0
   41.9790   25.1400   43.2410 O   0  0  0  0  0  0  0  0  0  0  0  0
   41.0070   26.5520   44.4650 H   0  0  0  0  0  0  0  0  0  0  0  0
  1 19  1  0  0  0  0
  2  7  1  0  0  0  0
  2  1  2  0  0  0  0
  3  2  1  0  0  0  0
  4  3  2  0  0  0  0
  4  5  1  0  0  0  0
  5  6  2  0  0  0  0
  6  1  1  0  0  0  0
  8  3  1  0  0  0  0
  9  5  1  0  0  0  0
  9 12  1  1  0  0  0
 10 14  1  0  0  0  0
 10  9  1  0  0  0  0
 10 13  1  0  0  0  0
 11 15  1  6  0  0  0
 11 10  1  0  0  0  0
 11  9  1  0  0  0  0
 16 11  1  0  0  0  0
 17 16  1  0  0  0  0
 18 17  1  0  0  0  0
 19 21  1  0  0  0  0
 20 19  2  0  0  0  0
M  END
>  <minimizedAffinity>
-3.93182778

$$$$

 OpenBabel03252507583D

 21 22  0  0  1  0  0  0  0  0999 V2000
   37.3000   26.6340   42.1210 C   0  0  0  0  0  0  0  0  0  0  0  0
   37.9000   27.1180   43.3110 C   0  0  0  0  0  0  0  0  0  0  0  0
   37.8820   28.5090   43.5100 C   0  0  0  0  0  0  0  0  0  0  0  0
   37.2900   29.2780   42.5460 N   0  0  0  0  0  0  0  0  0  0  0  0
   36.7420   28.7520   41.4430 C   0  0  0  0  0  0  0  0  0  0  0  0
   36.7320   27.4500   41.2060 N   0  0  0  0  0  0  0  0  0  0  0  0
   38.3490   26.4870   44.0350 H   0  0  0  0  0  0  0  0  0  0  0  0
   38.3260   28.9270   44.4000 H   0  0  0  0  0  0  0  0  0  0  0  0
   36.1140   29.6830   40.4580 C   0  0  1  0  0  0  0  0  0  0  0  0
   36.4790   31.1330   40.4550 C   0  0  0  0  0  0  0  0  0  0  0  0
   37.0540   30.2190   39.4250 C   0  0  2  0  0  0  0  0  0  0  0  0
   35.1190   29.3740   40.1330 H   0  0  0  0  0  0  0  0  0  0  0  0
   35.6450   31.8080   40.1650 H   0  0  0  0  0  0  0  0  0  0  0  0
   37.0450   31.4960   41.3170 H   0  0  0  0  0  0  0  0  0  0  0  0
   38.1620   30.0500   39.5570 H   0  0  0  0  0  0  0  0  0  0  0  0
   36.6230   30.5020   38.0190 C   0  0  0  0  0  2  0  0  0  0  0  0
   37.6480   31.4460   37.3760 C   0  0  0  0  0  2  0  0  0  0  0  0
   37.1880   32.1110   36.6380 H   0  0  0  0  0  0  0  0  0  0  0  0
   37.3420   25.2050   41.9780 C   0  0  0  0  0  0  0  0  0  0  0  0
   38.1890   24.4410   42.5350 O   0  0  0  0  0  0  0  0  0  0  0  0
   36.5340   24.9080   41.3200 H   0  0  0  0  0  0  0  0  0  0  0  0
  1  2  1  0  0  0  0
  2  3  2  0  0  0  0
  2  7  1  0  0  0  0
  3  8  1  0  0  0  0
  4  3  1  0  0  0  0
  5  4  2  0  0  0  0
  6  5  1  0  0  0  0
  6  1  2  0  0  0  0
  9 12  1  6  0  0  0
  9  5  1  0  0  0  0
 10  9  1  0  0  0  0
 10 14  1  0  0  0  0
 11 15  1  1  0  0  0
 11 10  1  0  0  0  0
 11  9  1  0  0  0  0
 13 10  1  0  0  0  0
 16 11  1  0  0  0  0
 17 16  1  0  0  0  0
 18 17  1  0  0  0  0
 19  1  1  0  0  0  0
 19 20  2  0  0  0  0
 21 19  1  0  0  0  0
M  END
>  <minimizedAffinity>
-3.86007476

$$$$

 OpenBabel03252507583D

 21 22  0  0  1  0  0  0  0  0999 V2000
   37.5990   29.9390   39.1640 C   0  0  0  0  0  0  0  0  0  0  0  0
   36.8120   31.0400   39.5910 C   0  0  0  0  0  0  0  0  0  0  0  0
   36.3710   31.0230   40.9260 C   0  0  0  0  0  0  0  0  0  0  0  0
   36.7340   29.9550   41.6990 N   0  0  0  0  0  0  0  0  0  0  0  0
   37.4800   28.9460   41.2280 C   0  0  0  0  0  0  0  0  0  0  0  0
   37.9210   28.9120   39.9810 N   0  0  0  0  0  0  0  0  0  0  0  0
   36.5540   31.8500   38.9590 H   0  0  0  0  0  0  0  0  0  0  0  0
   35.7700   31.8380   41.2990 H   0  0  0  0  0  0  0  0  0  0  0  0
   37.8260   27.8330   42.1610 C   0  0  1  0  0  0  0  0  0  0  0  0
   36.8930   27.4640   43.2700 C   0  0  0  0  0  0  0  0  0  0  0  0
   36.9510   26.6250   42.0360 C   0  0  2  0  0  0  0  0  0  0  0  0
   38.8990   27.6770   42.2810 H   0  0  0  0  0  0  0  0  0  0  0  0
   37.4030   27.1000   44.1870 H   0  0  0  0  0  0  0  0  0  0  0  0
   36.0820   28.1660   43.4800 H   0  0  0  0  0  0  0  0  0  0  0  0
   36.0120   26.6950   41.4130 H   0  0  0  0  0  0  0  0  0  0  0  0
   37.4690   25.2360   42.2420 C   0  0  0  0  0  2  0  0  0  0  0  0
   36.7260   24.2930   41.2870 C   0  0  0  0  0  2  0  0  0  0  0  0
   36.6130   23.2880   41.7070 H   0  0  0  0  0  0  0  0  0  0  0  0
   38.0260   30.0160   37.7940 C   0  0  0  0  0  0  0  0  0  0  0  0
   37.4000   30.6180   36.8680 O   0  0  0  0  0  0  0  0  0  0  0  0
   38.9600   29.4750   37.7020 H   0  0  0  0  0  0  0  0  0  0  0  0
  1  2  2  0  0  0  0
  1  6  1  0  0  0  0
  2  3  1  0  0  0  0
  3  8  1  0  0  0  0
  3  4  2  0  0  0  0
  5  4  1  0  0  0  0
  5  9  1  0  0  0  0
  6  5  2  0  0  0  0
  7  2  1  0  0  0  0
  9 12  1  1  0  0  0
  9 10  1  0  0  0  0
 10 14  1  0  0  0  0
 10 13  1  0  0  0  0
 11 15  1  6  0  0  0
 11  9  1  0  0  0  0
 11 16  1  0  0  0  0
 11 10  1  0  0  0  0
 17 18  1  0  0  0  0
 17 16  1  0  0  0  0
 19  1  1  0  0  0  0
 20 19  2  0  0  0  0
 21 19  1  0  0  0  0
M  END
>  <minimizedAffinity>
-3.85887957

$$$$

 OpenBabel03252507583D

 21 22  0  0  1  0  0  0  0  0999 V2000
   38.4860   24.5700   42.0470 C   0  0  0  0  0  0  0  0  0  0  0  0
   39.6480   24.5290   42.8600 C   0  0  0  0  0  0  0  0  0  0  0  0
   39.9070   25.6610   43.6520 C   0  0  0  0  0  0  0  0  0  0  0  0
   39.0240   26.7030   43.5750 N   0  0  0  0  0  0  0  0  0  0  0  0
   37.9440   26.6740   42.7820 C   0  0  0  0  0  0  0  0  0  0  0  0
   37.6540   25.6340   42.0160 N   0  0  0  0  0  0  0  0  0  0  0  0
   40.3070   23.7010   42.8900 H   0  0  0  0  0  0  0  0  0  0  0  0
   40.7790   25.6790   44.2880 H   0  0  0  0  0  0  0  0  0  0  0  0
   37.0400   27.8630   42.7810 C   0  0  1  0  0  0  0  0  0  0  0  0
   37.6120   29.2420   42.8730 C   0  0  0  0  0  0  0  0  0  0  0  0
   37.1410   28.7170   41.5570 C   0  0  2  0  0  0  0  0  0  0  0  0
   36.0470   27.6600   43.1840 H   0  0  0  0  0  0  0  0  0  0  0  0
   36.9680   29.9620   43.4220 H   0  0  0  0  0  0  0  0  0  0  0  0
   38.6680   29.3160   43.1450 H   0  0  0  0  0  0  0  0  0  0  0  0
   37.9840   28.5310   40.8310 H   0  0  0  0  0  0  0  0  0  0  0  0
   35.9580   29.4310   40.9800 C   0  0  0  0  0  2  0  0  0  0  0  0
   36.2830   30.9290   40.9050 C   0  0  0  0  0  2  0  0  0  0  0  0
   35.3910   31.5500   41.0340 H   0  0  0  0  0  0  0  0  0  0  0  0
   38.2710   23.3830   41.2670 C   0  0  0  0  0  0  0  0  0  0  0  0
   38.5740   23.2500   40.0410 O   0  0  0  0  0  0  0  0  0  0  0  0
   37.8100   22.6390   41.9060 H   0  0  0  0  0  0  0  0  0  0  0  0
  1  2  1  0  0  0  0
  2  7  1  0  0  0  0
  2  3  2  0  0  0  0
  3  8  1  0  0  0  0
  4  3  1  0  0  0  0
  5  4  2  0  0  0  0
  6  1  2  0  0  0  0
  6  5  1  0  0  0  0
  9  5  1  0  0  0  0
  9 10  1  0  0  0  0
  9 12  1  1  0  0  0
 10 14  1  0  0  0  0
 10 13  1  0  0  0  0
 11 15  1  6  0  0  0
 11  9  1  0  0  0  0
 11 10  1  0  0  0  0
 16 11  1  0  0  0  0
 17 16  1  0  0  0  0
 17 18  1  0  0  0  0
 19 21  1  0  0  0  0
 19  1  1  0  0  0  0
 20 19  2  0  0  0  0
M  END
>  <minimizedAffinity>
-3.84008479

$$$$

 OpenBabel03252507583D

 21 22  0  0  1  0  0  0  0  0999 V2000
   37.3740   32.0590   39.3950 C   0  0  0  0  0  0  0  0  0  0  0  0
   37.6020   31.9260   38.0010 C   0  0  0  0  0  0  0  0  0  0  0  0
   37.2540   30.6950   37.4170 C   0  0  0  0  0  0  0  0  0  0  0  0
   36.7290   29.7330   38.2350 N   0  0  0  0  0  0  0  0  0  0  0  0
   36.5420   29.9280   39.5480 C   0  0  0  0  0  0  0  0  0  0  0  0
   36.8520   31.0660   40.1470 N   0  0  0  0  0  0  0  0  0  0  0  0
   38.0110   32.6980   37.4020 H   0  0  0  0  0  0  0  0  0  0  0  0
   37.4080   30.5440   36.3600 H   0  0  0  0  0  0  0  0  0  0  0  0
   35.9530   28.8120   40.3470 C   0  0  1  0  0  0  0  0  0  0  0  0
   36.3660   27.3990   40.0840 C   0  0  0  0  0  0  0  0  0  0  0  0
   36.9180   28.1290   41.2630 C   0  0  2  0  0  0  0  0  0  0  0  0
   34.9510   29.0220   40.7240 H   0  0  0  0  0  0  0  0  0  0  0  0
   35.5570   26.6550   40.2470 H   0  0  0  0  0  0  0  0  0  0  0  0
   36.9360   27.2190   39.1690 H   0  0  0  0  0  0  0  0  0  0  0  0
   38.0190   28.3560   41.1620 H   0  0  0  0  0  0  0  0  0  0  0  0
   36.5080   27.5790   42.5940 C   0  0  0  0  0  2  0  0  0  0  0  0
   37.3660   28.2410   43.6800 C   0  0  0  0  0  2  0  0  0  0  0  0
   37.5440   27.5720   44.5280 H   0  0  0  0  0  0  0  0  0  0  0  0
   37.7410   33.3400   39.9320 C   0  0  0  0  0  0  0  0  0  0  0  0
   38.6650   33.5380   40.7800 O   0  0  0  0  0  0  0  0  0  0  0  0
   37.0950   34.0890   39.4880 H   0  0  0  0  0  0  0  0  0  0  0  0
  1 19  1  0  0  0  0
  1  6  1  0  0  0  0
  2  1  2  0  0  0  0
  3  2  1  0  0  0  0
  3  4  2  0  0  0  0
  4  5  1  0  0  0  0
  5  6  2  0  0  0  0
  5  9  1  0  0  0  0
  7  2  1  0  0  0  0
  8  3  1  0  0  0  0
  9 12  1  1  0  0  0
  9 11  1  0  0  0  0
 10 13  1  0  0  0  0
 10  9  1  0  0  0  0
 10 11  1  0  0  0  0
 11 15  1  6  0  0  0
 11 16  1  0  0  0  0
 14 10  1  0  0  0  0
 16 17  1  0  0  0  0
 17 18  1  0  0  0  0
 19 20  2  0  0  0  0
 21 19  1  0  0  0  0
M  END
>  <minimizedAffinity>
-3.82366753

$$$$

 OpenBabel03252507583D

 21 22  0  0  1  0  0  0  0  0999 V2000
   38.5550   26.4980   42.3890 C   0  0  0  0  0  0  0  0  0  0  0  0
   38.4770   27.2540   43.5870 C   0  0  0  0  0  0  0  0  0  0  0  0
   37.5590   28.3180   43.6060 C   0  0  0  0  0  0  0  0  0  0  0  0
   36.8190   28.5360   42.4770 N   0  0  0  0  0  0  0  0  0  0  0  0
   36.9450   27.7810   41.3780 C   0  0  0  0  0  0  0  0  0  0  0  0
   37.7940   26.7680   41.3050 N   0  0  0  0  0  0  0  0  0  0  0  0
   39.0700   27.0510   44.4410 H   0  0  0  0  0  0  0  0  0  0  0  0
   37.4630   28.9230   44.4950 H   0  0  0  0  0  0  0  0  0  0  0  0
   36.0810   28.1010   40.2020 C   0  0  1  0  0  0  0  0  0  0  0  0
   35.0580   29.1890   40.2940 C   0  0  0  0  0  0  0  0  0  0  0  0
   36.3470   29.4360   39.5830 C   0  0  2  0  0  0  0  0  0  0  0  0
   35.9100   27.2530   39.5380 H   0  0  0  0  0  0  0  0  0  0  0  0
   34.1430   29.0010   39.6930 H   0  0  0  0  0  0  0  0  0  0  0  0
   34.8430   29.5730   41.2950 H   0  0  0  0  0  0  0  0  0  0  0  0
   37.0160   30.1650   40.1250 H   0  0  0  0  0  0  0  0  0  0  0  0
   36.2180   29.6760   38.1100 C   0  0  0  0  0  2  0  0  0  0  0  0
   37.2220   30.7630   37.7040 C   0  0  0  0  0  2  0  0  0  0  0  0
   36.8570   31.3670   36.8680 H   0  0  0  0  0  0  0  0  0  0  0  0
   39.5050   25.4210   42.4310 C   0  0  0  0  0  0  0  0  0  0  0  0
   40.3160   25.2020   43.3830 O   0  0  0  0  0  0  0  0  0  0  0  0
   39.4010   24.8440   41.5200 H   0  0  0  0  0  0  0  0  0  0  0  0
  1 19  1  0  0  0  0
  1  2  1  0  0  0  0
  2  3  2  0  0  0  0
  2  7  1  0  0  0  0
  3  8  1  0  0  0  0
  4  3  1  0  0  0  0
  5  4  2  0  0  0  0
  6  5  1  0  0  0  0
  6  1  2  0  0  0  0
  9 12  1  6  0  0  0
  9 10  1  0  0  0  0
  9  5  1  0  0  0  0
 10 14  1  0  0  0  0
 11 15  1  1  0  0  0
 11  9  1  0  0  0  0
 11 10  1  0  0  0  0
 13 10  1  0  0  0  0
 16 11  1  0  0  0  0
 17 16  1  0  0  0  0
 18 17  1  0  0  0  0
 19 20  2  0  0  0  0
 21 19  1  0  0  0  0
M  END
>  <minimizedAffinity>
-3.70917296

$$$$

 OpenBabel03252507583D

 21 22  0  0  1  0  0  0  0  0999 V2000
   41.1780   28.8660   42.6820 C   0  0  0  0  0  0  0  0  0  0  0  0
   40.8010   30.2180   42.4740 C   0  0  0  0  0  0  0  0  0  0  0  0
   39.4370   30.5250   42.6200 C   0  0  0  0  0  0  0  0  0  0  0  0
   38.5900   29.5020   42.9480 N   0  0  0  0  0  0  0  0  0  0  0  0
   39.0170   28.2450   43.1290 C   0  0  0  0  0  0  0  0  0  0  0  0
   40.2890   27.9020   43.0040 N   0  0  0  0  0  0  0  0  0  0  0  0
   41.4910   30.9820   42.2210 H   0  0  0  0  0  0  0  0  0  0  0  0
   39.1000   31.5390   42.4720 H   0  0  0  0  0  0  0  0  0  0  0  0
   38.0080   27.2060   43.4940 C   0  0  1  0  0  0  0  0  0  0  0  0
   36.5570   27.4340   43.2100 C   0  0  0  0  0  0  0  0  0  0  0  0
   37.3560   26.5370   42.3250 C   0  0  2  0  0  0  0  0  0  0  0  0
   38.3020   26.5850   44.3400 H   0  0  0  0  0  0  0  0  0  0  0  0
   35.8730   26.9770   43.9570 H   0  0  0  0  0  0  0  0  0  0  0  0
   36.2680   28.4510   42.9290 H   0  0  0  0  0  0  0  0  0  0  0  0
   37.5160   26.9650   41.2930 H   0  0  0  0  0  0  0  0  0  0  0  0
   36.9470   25.0960   42.3520 C   0  0  0  0  0  2  0  0  0  0  0  0
   36.8570   24.5890   40.9070 C   0  0  0  0  0  2  0  0  0  0  0  0
   36.0910   23.8150   40.7900 H   0  0  0  0  0  0  0  0  0  0  0  0
   42.5850   28.6160   42.5270 C   0  0  0  0  0  0  0  0  0  0  0  0
   43.4690   29.5090   42.3450 O   0  0  0  0  0  0  0  0  0  0  0  0
   42.7450   27.5470   42.5930 H   0  0  0  0  0  0  0  0  0  0  0  0
  1  6  1  0  0  0  0
  2  3  1  0  0  0  0
  2  1  2  0  0  0  0
  3  4  2  0  0  0  0
  4  5  1  0  0  0  0
  5  9  1  0  0  0  0
  6  5  2  0  0  0  0
  7  2  1  0  0  0  0
  8  3  1  0  0  0  0
  9 12  1  1  0  0  0
 10  9  1  0  0  0  0
 10 13  1  0  0  0  0
 11 15  1  6  0  0  0
 11 16  1  0  0  0  0
 11 10  1  0  0  0  0
 11  9  1  0  0  0  0
 14 10  1  0  0  0  0
 17 16  1  0  0  0  0
 18 17  1  0  0  0  0
 19 21  1  0  0  0  0
 19  1  1  0  0  0  0
 20 19  2  0  0  0  0
M  END
>  <minimizedAffinity>
-3.65953851

$$$$

 OpenBabel03252507583D

 21 22  0  0  1  0  0  0  0  0999 V2000
   37.2000   30.4390   38.4610 C   0  0  0  0  0  0  0  0  0  0  0  0
   37.1840   31.7920   38.8890 C   0  0  0  0  0  0  0  0  0  0  0  0
   36.9440   32.0210   40.2540 C   0  0  0  0  0  0  0  0  0  0  0  0
   36.7470   30.9290   41.0550 N   0  0  0  0  0  0  0  0  0  0  0  0
   36.7750   29.6760   40.5810 C   0  0  0  0  0  0  0  0  0  0  0  0
   36.9960   29.4040   39.3050 N   0  0  0  0  0  0  0  0  0  0  0  0
   37.3420   32.6100   38.2350 H   0  0  0  0  0  0  0  0  0  0  0  0
   36.9220   33.0330   40.6300 H   0  0  0  0  0  0  0  0  0  0  0  0
   36.5570   28.5560   41.5440 C   0  0  1  0  0  0  0  0  0  0  0  0
   36.9490   27.1600   41.1770 C   0  0  0  0  0  0  0  0  0  0  0  0
   37.8130   27.9590   42.0960 C   0  0  2  0  0  0  0  0  0  0  0  0
   35.7250   28.7220   42.2300 H   0  0  0  0  0  0  0  0  0  0  0  0
   36.2900   26.3780   41.6080 H   0  0  0  0  0  0  0  0  0  0  0  0
   37.1950   26.9830   40.1260 H   0  0  0  0  0  0  0  0  0  0  0  0
   38.8010   28.2450   41.6320 H   0  0  0  0  0  0  0  0  0  0  0  0
   37.9020   27.4310   43.4940 C   0  0  0  0  0  2  0  0  0  0  0  0
   39.2770   26.7750   43.6800 C   0  0  0  0  0  2  0  0  0  0  0  0
   39.2410   25.9380   44.3840 H   0  0  0  0  0  0  0  0  0  0  0  0
   37.4570   30.2680   37.0570 C   0  0  0  0  0  0  0  0  0  0  0  0
   36.5720   30.0400   36.1760 O   0  0  0  0  0  0  0  0  0  0  0  0
   38.5240   30.3670   36.8960 H   0  0  0  0  0  0  0  0  0  0  0  0
  1  2  2  0  0  0  0
  1  6  1  0  0  0  0
  2  3  1  0  0  0  0
  3  8  1  0  0  0  0
  3  4  2  0  0  0  0
  5  4  1  0  0  0  0
  5  9  1  0  0  0  0
  6  5  2  0  0  0  0
  7  2  1  0  0  0  0
  9 11  1  0  0  0  0
  9 12  1  1  0  0  0
 10  9  1  0  0  0  0
 10 13  1  0  0  0  0
 10 11  1  0  0  0  0
 11 15  1  6  0  0  0
 11 16  1  0  0  0  0
 14 10  1  0  0  0  0
 16 17  1  0  0  0  0
 17 18  1  0  0  0  0
 19  1  1  0  0  0  0
 20 19  2  0  0  0  0
 21 19  1  0  0  0  0
M  END
>  <minimizedAffinity>
-3.6553936

$$$$
