
 OpenBabel03252503143D

 28 30  0  0  0  0  0  0  0  0999 V2000
   39.3650   27.9680   43.2340 C   0  0  0  0  0  0  0  0  0  0  0  0
   38.3340   27.3150   42.5410 C   0  0  0  0  0  0  0  0  0  0  0  0
   38.7360   26.1960   41.8080 C   0  0  0  0  0  0  0  0  0  0  0  0
   40.0090   25.7820   41.7710 N   0  0  0  0  0  0  0  0  0  0  0  0
   40.9690   26.4570   42.4640 C   0  0  0  0  0  0  0  0  0  0  0  0
   40.6450   27.5380   43.1870 N   0  0  0  0  0  0  0  0  0  0  0  0
   39.1430   28.8480   43.8300 H   0  0  0  0  0  0  0  0  0  0  0  0
   41.9840   26.0780   42.4000 H   0  0  0  0  0  0  0  0  0  0  0  0
   37.7640   25.4880   41.0820 C   0  0  0  0  0  0  0  0  0  0  0  0
   36.9400   24.4350   41.3680 C   0  0  0  0  0  0  0  0  0  0  0  0
   36.0870   23.9410   40.4760 C   0  0  0  0  0  0  0  0  0  0  0  0
   36.0610   24.5300   39.2480 C   0  0  0  0  0  0  0  0  0  0  0  0
   37.3360   25.8620   39.4020 S   0  0  0  0  0  0  0  0  0  0  0  0
   37.0410   24.0290   42.3970 H   0  0  0  0  0  0  0  0  0  0  0  0
   35.4090   23.1120   40.6320 H   0  0  0  0  0  0  0  0  0  0  0  0
   35.4780   24.3350   38.3540 H   0  0  0  0  0  0  0  0  0  0  0  0
   37.0040   27.8000   42.6190 C   0  0  0  0  0  0  0  0  0  0  0  0
   36.2670   27.2700   43.5010 O   0  0  0  0  0  0  0  0  0  0  0  0
   36.5430   28.8830   41.6850 C   0  0  0  0  0  0  0  0  0  0  0  0
   35.4410   28.8450   40.8660 C   0  0  0  0  0  0  0  0  0  0  0  0
   35.4300   30.0260   40.2210 N   0  0  0  0  0  0  0  0  0  0  0  0
   36.4960   30.7610   40.6370 C   0  0  0  0  0  0  0  0  0  0  0  0
   37.1920   30.0520   41.5480 N   0  0  0  0  0  0  0  0  0  0  0  0
   34.7380   28.0500   40.7590 H   0  0  0  0  0  0  0  0  0  0  0  0
   34.7540   30.3600   39.5240 H   0  0  0  0  0  0  0  0  0  0  0  0
   36.9390   32.1270   40.2370 C   0  0  0  0  0  2  0  0  0  0  0  0
   37.4230   32.1600   38.7970 C   0  0  0  0  0  2  0  0  0  0  0  0
   37.0280   32.9930   38.2140 H   0  0  0  0  0  0  0  0  0  0  0  0
  1  7  1  0  0  0  0
  2 17  1  0  0  0  0
  2  1  2  0  0  0  0
  3  2  1  0  0  0  0
  4  3  2  0  0  0  0
  4  5  1  0  0  0  0
  5  6  2  0  0  0  0
  6  1  1  0  0  0  0
  8  5  1  0  0  0  0
  9 10  2  0  0  0  0
  9  3  1  0  0  0  0
 10 14  1  0  0  0  0
 11 15  1  0  0  0  0
 11 10  1  0  0  0  0
 12 13  1  0  0  0  0
 12 11  2  0  0  0  0
 13  9  1  0  0  0  0
 16 12  1  0  0  0  0
 17 18  2  0  0  0  0
 19 17  1  0  0  0  0
 20 19  2  0  0  0  0
 21 22  1  0  0  0  0
 21 20  1  0  0  0  0
 22 23  2  0  0  0  0
 23 19  1  0  0  0  0
 24 20  1  0  0  0  0
 25 21  1  0  0  0  0
 26 22  1  0  0  0  0
 27 26  1  0  0  0  0
 28 27  1  0  0  0  0
M  END
>  <minimizedAffinity>
-5.08878994

$$$$

 OpenBabel03252503143D

 28 30  0  0  0  0  0  0  0  0999 V2000
   40.3780   33.0230   39.5600 C   0  0  0  0  0  0  0  0  0  0  0  0
   39.2720   32.2460   39.1830 C   0  0  0  0  0  0  0  0  0  0  0  0
   39.5080   31.3620   38.1270 C   0  0  0  0  0  0  0  0  0  0  0  0
   40.6990   31.2690   37.5230 N   0  0  0  0  0  0  0  0  0  0  0  0
   41.7380   32.0500   37.9330 C   0  0  0  0  0  0  0  0  0  0  0  0
   41.5740   32.9170   38.9410 N   0  0  0  0  0  0  0  0  0  0  0  0
   40.2850   33.7370   40.3730 H   0  0  0  0  0  0  0  0  0  0  0  0
   42.6820   31.9330   37.4090 H   0  0  0  0  0  0  0  0  0  0  0  0
   38.4500   30.5510   37.6850 C   0  0  0  0  0  0  0  0  0  0  0  0
   37.3220   30.7740   36.9450 C   0  0  0  0  0  0  0  0  0  0  0  0
   36.4580   29.8050   36.6610 C   0  0  0  0  0  0  0  0  0  0  0  0
   36.7390   28.5610   37.1410 C   0  0  0  0  0  0  0  0  0  0  0  0
   38.3330   28.8180   38.0450 S   0  0  0  0  0  0  0  0  0  0  0  0
   37.1880   31.8230   36.6040 H   0  0  0  0  0  0  0  0  0  0  0  0
   35.5480   29.9090   36.0850 H   0  0  0  0  0  0  0  0  0  0  0  0
   36.2210   27.6120   37.0630 H   0  0  0  0  0  0  0  0  0  0  0  0
   38.0350   32.3900   39.8610 C   0  0  0  0  0  0  0  0  0  0  0  0
   37.4170   33.4780   39.6710 O   0  0  0  0  0  0  0  0  0  0  0  0
   37.5300   31.2840   40.7450 C   0  0  0  0  0  0  0  0  0  0  0  0
   36.2270   30.8680   40.8730 C   0  0  0  0  0  0  0  0  0  0  0  0
   36.2560   29.8630   41.7680 N   0  0  0  0  0  0  0  0  0  0  0  0
   37.5420   29.6740   42.1700 C   0  0  0  0  0  0  0  0  0  0  0  0
   38.3370   30.5570   41.5360 N   0  0  0  0  0  0  0  0  0  0  0  0
   35.3680   31.2560   40.3740 H   0  0  0  0  0  0  0  0  0  0  0  0
   35.4700   29.3040   42.1180 H   0  0  0  0  0  0  0  0  0  0  0  0
   38.1140   28.6960   43.1400 C   0  0  0  0  0  2  0  0  0  0  0  0
   37.0490   27.7550   43.6800 C   0  0  0  0  0  2  0  0  0  0  0  0
   37.3420   26.7040   43.6800 H   0  0  0  0  0  0  0  0  0  0  0  0
  1  7  1  0  0  0  0
  2  1  1  0  0  0  0
  2 17  1  0  0  0  0
  3  2  2  0  0  0  0
  4  5  2  0  0  0  0
  4  3  1  0  0  0  0
  5  6  1  0  0  0  0
  6  1  2  0  0  0  0
  8  5  1  0  0  0  0
  9 13  1  0  0  0  0
  9  3  1  0  0  0  0
 10  9  2  0  0  0  0
 11 10  1  0  0  0  0
 11 12  2  0  0  0  0
 12 13  1  0  0  0  0
 14 10  1  0  0  0  0
 15 11  1  0  0  0  0
 16 12  1  0  0  0  0
 17 19  1  0  0  0  0
 18 17  2  0  0  0  0
 19 20  2  0  0  0  0
 19 23  1  0  0  0  0
 20 21  1  0  0  0  0
 21 25  1  0  0  0  0
 21 22  1  0  0  0  0
 22 26  1  0  0  0  0
 23 22  2  0  0  0  0
 24 20  1  0  0  0  0
 26 27  1  0  0  0  0
 27 28  1  0  0  0  0
M  END
>  <minimizedAffinity>
-4.94699526

$$$$

 OpenBabel03252503143D

 28 30  0  0  0  0  0  0  0  0999 V2000
   36.0040   29.1520   38.6130 C   0  0  0  0  0  0  0  0  0  0  0  0
   36.6490   30.1530   39.3540 C   0  0  0  0  0  0  0  0  0  0  0  0
   37.3890   31.0630   38.5940 C   0  0  0  0  0  0  0  0  0  0  0  0
   37.4720   30.9810   37.2600 N   0  0  0  0  0  0  0  0  0  0  0  0
   36.8240   29.9850   36.5930 C   0  0  0  0  0  0  0  0  0  0  0  0
   36.0980   29.0830   37.2670 N   0  0  0  0  0  0  0  0  0  0  0  0
   35.4070   28.4020   39.1220 H   0  0  0  0  0  0  0  0  0  0  0  0
   36.9260   29.9670   35.5120 H   0  0  0  0  0  0  0  0  0  0  0  0
   38.0690   32.0940   39.2620 C   0  0  0  0  0  0  0  0  0  0  0  0
   37.7410   33.3680   39.6350 C   0  0  0  0  0  0  0  0  0  0  0  0
   38.5940   34.1610   40.2750 C   0  0  0  0  0  0  0  0  0  0  0  0
   39.8270   33.6520   40.5520 C   0  0  0  0  0  0  0  0  0  0  0  0
   39.7370   31.9440   39.8470 S   0  0  0  0  0  0  0  0  0  0  0  0
   36.7110   33.6830   39.3610 H   0  0  0  0  0  0  0  0  0  0  0  0
   38.4030   35.1750   40.5990 H   0  0  0  0  0  0  0  0  0  0  0  0
   40.6960   34.0680   41.0500 H   0  0  0  0  0  0  0  0  0  0  0  0
   36.5220   30.1890   40.7660 C   0  0  0  0  0  0  0  0  0  0  0  0
   35.8510   31.1500   41.2420 O   0  0  0  0  0  0  0  0  0  0  0  0
   37.1680   29.1220   41.6050 C   0  0  0  0  0  0  0  0  0  0  0  0
   36.5630   27.9950   42.1060 C   0  0  0  0  0  0  0  0  0  0  0  0
   37.5230   27.3440   42.7890 N   0  0  0  0  0  0  0  0  0  0  0  0
   38.6780   28.0570   42.7060 C   0  0  0  0  0  0  0  0  0  0  0  0
   38.4610   29.1650   41.9700 N   0  0  0  0  0  0  0  0  0  0  0  0
   35.5480   27.6930   41.9830 H   0  0  0  0  0  0  0  0  0  0  0  0
   37.4450   26.4590   43.3030 H   0  0  0  0  0  0  0  0  0  0  0  0
   40.0260   27.7790   43.2800 C   0  0  0  0  0  2  0  0  0  0  0  0
   40.1780   26.3180   43.6690 C   0  0  0  0  0  2  0  0  0  0  0  0
   41.1130   25.8640   43.3380 H   0  0  0  0  0  0  0  0  0  0  0  0
  1  7  1  0  0  0  0
  1  2  1  0  0  0  0
  2 17  1  0  0  0  0
  3  9  1  0  0  0  0
  3  2  2  0  0  0  0
  4  3  1  0  0  0  0
  5  4  2  0  0  0  0
  5  6  1  0  0  0  0
  6  1  2  0  0  0  0
  8  5  1  0  0  0  0
  9 10  2  0  0  0  0
  9 13  1  0  0  0  0
 10 11  1  0  0  0  0
 11 12  2  0  0  0  0
 11 15  1  0  0  0  0
 12 16  1  0  0  0  0
 13 12  1  0  0  0  0
 14 10  1  0  0  0  0
 17 18  2  0  0  0  0
 17 19  1  0  0  0  0
 19 23  1  0  0  0  0
 19 20  2  0  0  0  0
 20 21  1  0  0  0  0
 21 25  1  0  0  0  0
 22 21  1  0  0  0  0
 22 26  1  0  0  0  0
 23 22  2  0  0  0  0
 24 20  1  0  0  0  0
 26 27  1  0  0  0  0
 28 27  1  0  0  0  0
M  END
>  <minimizedAffinity>
-4.88484955

$$$$

 OpenBabel03252503143D

 28 30  0  0  0  0  0  0  0  0999 V2000
   39.8480   32.3750   40.6550 C   0  0  0  0  0  0  0  0  0  0  0  0
   38.9420   31.3440   40.3670 C   0  0  0  0  0  0  0  0  0  0  0  0
   37.6770   31.7700   39.9540 C   0  0  0  0  0  0  0  0  0  0  0  0
   37.3590   33.0660   39.8440 N   0  0  0  0  0  0  0  0  0  0  0  0
   38.2810   34.0260   40.1380 C   0  0  0  0  0  0  0  0  0  0  0  0
   39.5120   33.6790   40.5380 N   0  0  0  0  0  0  0  0  0  0  0  0
   40.8550   32.1350   40.9830 H   0  0  0  0  0  0  0  0  0  0  0  0
   37.9700   35.0600   40.0310 H   0  0  0  0  0  0  0  0  0  0  0  0
   36.7100   30.7990   39.6510 C   0  0  0  0  0  0  0  0  0  0  0  0
   35.7060   30.1990   40.3600 C   0  0  0  0  0  0  0  0  0  0  0  0
   34.9090   29.2810   39.8220 C   0  0  0  0  0  0  0  0  0  0  0  0
   35.1300   28.9540   38.5180 C   0  0  0  0  0  0  0  0  0  0  0  0
   36.5620   30.0320   38.0590 S   0  0  0  0  0  0  0  0  0  0  0  0
   35.6120   30.5380   41.4140 H   0  0  0  0  0  0  0  0  0  0  0  0
   34.0990   28.7670   40.3210 H   0  0  0  0  0  0  0  0  0  0  0  0
   34.6430   28.2560   37.8450 H   0  0  0  0  0  0  0  0  0  0  0  0
   39.3380   29.9890   40.5020 C   0  0  0  0  0  0  0  0  0  0  0  0
   40.2090   29.5770   39.6820 O   0  0  0  0  0  0  0  0  0  0  0  0
   38.7260   29.1300   41.5740 C   0  0  0  0  0  0  0  0  0  0  0  0
   38.5880   29.4520   42.9030 C   0  0  0  0  0  0  0  0  0  0  0  0
   37.9930   28.3880   43.4710 N   0  0  0  0  0  0  0  0  0  0  0  0
   37.7750   27.4460   42.5140 C   0  0  0  0  0  0  0  0  0  0  0  0
   38.2310   27.9050   41.3320 N   0  0  0  0  0  0  0  0  0  0  0  0
   38.8880   30.3540   43.3880 H   0  0  0  0  0  0  0  0  0  0  0  0
   37.7280   28.2610   44.4550 H   0  0  0  0  0  0  0  0  0  0  0  0
   37.1510   26.0960   42.6150 C   0  0  0  0  0  2  0  0  0  0  0  0
   37.0730   25.4120   41.2610 C   0  0  0  0  0  2  0  0  0  0  0  0
   37.4050   24.3730   41.2670 H   0  0  0  0  0  0  0  0  0  0  0  0
  1  7  1  0  0  0  0
  2 17  1  0  0  0  0
  2  1  2  0  0  0  0
  3  2  1  0  0  0  0
  4  3  2  0  0  0  0
  4  5  1  0  0  0  0
  5  6  2  0  0  0  0
  6  1  1  0  0  0  0
  8  5  1  0  0  0  0
  9  3  1  0  0  0  0
  9 10  2  0  0  0  0
 10 14  1  0  0  0  0
 11 15  1  0  0  0  0
 11 10  1  0  0  0  0
 12 11  2  0  0  0  0
 13 12  1  0  0  0  0
 13  9  1  0  0  0  0
 16 12  1  0  0  0  0
 17 19  1  0  0  0  0
 18 17  2  0  0  0  0
 19 20  2  0  0  0  0
 20 24  1  0  0  0  0
 20 21  1  0  0  0  0
 21 25  1  0  0  0  0
 22 26  1  0  0  0  0
 22 21  1  0  0  0  0
 23 19  1  0  0  0  0
 23 22  2  0  0  0  0
 27 28  1  0  0  0  0
 27 26  1  0  0  0  0
M  END
>  <minimizedAffinity>
-4.84468699

$$$$

 OpenBabel03252503143D

 28 30  0  0  0  0  0  0  0  0999 V2000
   35.4810   27.1930   38.0290 C   0  0  0  0  0  0  0  0  0  0  0  0
   35.8840   27.8230   39.2160 C   0  0  0  0  0  0  0  0  0  0  0  0
   36.7250   27.0610   40.0300 C   0  0  0  0  0  0  0  0  0  0  0  0
   37.1130   25.8220   39.6990 N   0  0  0  0  0  0  0  0  0  0  0  0
   36.6890   25.2600   38.5320 C   0  0  0  0  0  0  0  0  0  0  0  0
   35.8810   25.9430   37.7090 N   0  0  0  0  0  0  0  0  0  0  0  0
   34.8260   27.7130   37.3360 H   0  0  0  0  0  0  0  0  0  0  0  0
   37.0340   24.2550   38.3130 H   0  0  0  0  0  0  0  0  0  0  0  0
   37.1700   27.6180   41.2390 C   0  0  0  0  0  0  0  0  0  0  0  0
   36.6900   27.6250   42.5200 C   0  0  0  0  0  0  0  0  0  0  0  0
   37.3230   28.2470   43.5100 C   0  0  0  0  0  0  0  0  0  0  0  0
   38.4840   28.8880   43.2000 C   0  0  0  0  0  0  0  0  0  0  0  0
   38.6600   28.5690   41.3860 S   0  0  0  0  0  0  0  0  0  0  0  0
   35.7370   27.0730   42.6640 H   0  0  0  0  0  0  0  0  0  0  0  0
   37.0030   28.2940   44.5420 H   0  0  0  0  0  0  0  0  0  0  0  0
   39.1870   29.4600   43.7970 H   0  0  0  0  0  0  0  0  0  0  0  0
   35.4410   29.1370   39.5120 C   0  0  0  0  0  0  0  0  0  0  0  0
   34.3340   29.2300   40.1190 O   0  0  0  0  0  0  0  0  0  0  0  0
   36.2730   30.3200   39.1050 C   0  0  0  0  0  0  0  0  0  0  0  0
   36.9440   30.4810   37.9160 C   0  0  0  0  0  0  0  0  0  0  0  0
   37.5460   31.6820   38.0010 N   0  0  0  0  0  0  0  0  0  0  0  0
   37.2480   32.2340   39.2080 C   0  0  0  0  0  0  0  0  0  0  0  0
   36.4570   31.3890   39.8980 N   0  0  0  0  0  0  0  0  0  0  0  0
   36.9840   29.8010   37.0950 H   0  0  0  0  0  0  0  0  0  0  0  0
   38.1380   32.1440   37.3020 H   0  0  0  0  0  0  0  0  0  0  0  0
   37.6590   33.5420   39.7960 C   0  0  0  0  0  2  0  0  0  0  0  0
   38.9260   33.4100   40.6240 C   0  0  0  0  0  2  0  0  0  0  0  0
   39.6710   34.1810   40.4240 H   0  0  0  0  0  0  0  0  0  0  0  0
  1  2  1  0  0  0  0
  2 17  1  0  0  0  0
  2  3  2  0  0  0  0
  3  9  1  0  0  0  0
  4  3  1  0  0  0  0
  5  4  2  0  0  0  0
  6  1  2  0  0  0  0
  6  5  1  0  0  0  0
  7  1  1  0  0  0  0
  8  5  1  0  0  0  0
  9 13  1  0  0  0  0
  9 10  2  0  0  0  0
 10 14  1  0  0  0  0
 10 11  1  0  0  0  0
 11 15  1  0  0  0  0
 12 11  2  0  0  0  0
 12 16  1  0  0  0  0
 13 12  1  0  0  0  0
 17 18  2  0  0  0  0
 19 17  1  0  0  0  0
 19 23  1  0  0  0  0
 20 21  1  0  0  0  0
 20 19  2  0  0  0  0
 21 22  1  0  0  0  0
 22 26  1  0  0  0  0
 22 23  2  0  0  0  0
 24 20  1  0  0  0  0
 25 21  1  0  0  0  0
 26 27  1  0  0  0  0
 28 27  1  0  0  0  0
M  END
>  <minimizedAffinity>
-4.81912708

$$$$

 OpenBabel03252503143D

 28 30  0  0  0  0  0  0  0  0999 V2000
   35.7540   29.6420   38.2530 C   0  0  0  0  0  0  0  0  0  0  0  0
   36.3180   29.5450   39.5340 C   0  0  0  0  0  0  0  0  0  0  0  0
   36.5680   28.2420   39.9700 C   0  0  0  0  0  0  0  0  0  0  0  0
   36.2880   27.1690   39.2190 N   0  0  0  0  0  0  0  0  0  0  0  0
   35.7390   27.3240   37.9810 C   0  0  0  0  0  0  0  0  0  0  0  0
   35.4770   28.5490   37.5070 N   0  0  0  0  0  0  0  0  0  0  0  0
   35.5260   30.6170   37.8340 H   0  0  0  0  0  0  0  0  0  0  0  0
   35.5330   26.4200   37.4160 H   0  0  0  0  0  0  0  0  0  0  0  0
   37.1290   28.0600   41.2450 C   0  0  0  0  0  0  0  0  0  0  0  0
   36.6140   27.7950   42.4840 C   0  0  0  0  0  0  0  0  0  0  0  0
   37.3850   27.6660   43.5580 C   0  0  0  0  0  0  0  0  0  0  0  0
   38.7280   27.8100   43.3800 C   0  0  0  0  0  0  0  0  0  0  0  0
   38.8710   28.1470   41.5670 S   0  0  0  0  0  0  0  0  0  0  0  0
   35.5080   27.6960   42.5180 H   0  0  0  0  0  0  0  0  0  0  0  0
   37.0480   27.4580   44.5650 H   0  0  0  0  0  0  0  0  0  0  0  0
   39.5680   27.7570   44.0650 H   0  0  0  0  0  0  0  0  0  0  0  0
   36.5940   30.7180   40.2810 C   0  0  0  0  0  0  0  0  0  0  0  0
   35.9020   30.8900   41.3270 O   0  0  0  0  0  0  0  0  0  0  0  0
   37.6560   31.6740   39.8160 C   0  0  0  0  0  0  0  0  0  0  0  0
   37.5170   33.0280   39.6310 C   0  0  0  0  0  0  0  0  0  0  0  0
   38.7200   33.4600   39.2110 N   0  0  0  0  0  0  0  0  0  0  0  0
   39.5660   32.3970   39.1420 C   0  0  0  0  0  0  0  0  0  0  0  0
   38.9070   31.2840   39.5180 N   0  0  0  0  0  0  0  0  0  0  0  0
   36.6420   33.6190   39.7850 H   0  0  0  0  0  0  0  0  0  0  0  0
   39.0000   34.4180   38.9690 H   0  0  0  0  0  0  0  0  0  0  0  0
   41.0000   32.3320   38.7380 C   0  0  0  0  0  2  0  0  0  0  0  0
   41.1510   32.1400   37.2380 C   0  0  0  0  0  2  0  0  0  0  0  0
   41.8860   32.8020   36.7770 H   0  0  0  0  0  0  0  0  0  0  0  0
  1  2  1  0  0  0  0
  2  3  2  0  0  0  0
  2 17  1  0  0  0  0
  3  9  1  0  0  0  0
  4  3  1  0  0  0  0
  5  4  2  0  0  0  0
  6  5  1  0  0  0  0
  6  1  2  0  0  0  0
  7  1  1  0  0  0  0
  8  5  1  0  0  0  0
  9 13  1  0  0  0  0
  9 10  2  0  0  0  0
 10 14  1  0  0  0  0
 10 11  1  0  0  0  0
 11 15  1  0  0  0  0
 12 11  2  0  0  0  0
 12 16  1  0  0  0  0
 13 12  1  0  0  0  0
 17 18  2  0  0  0  0
 19 17  1  0  0  0  0
 20 24  1  0  0  0  0
 20 19  2  0  0  0  0
 21 20  1  0  0  0  0
 22 21  1  0  0  0  0
 22 23  2  0  0  0  0
 23 19  1  0  0  0  0
 25 21  1  0  0  0  0
 26 22  1  0  0  0  0
 27 26  1  0  0  0  0
 28 27  1  0  0  0  0
M  END
>  <minimizedAffinity>
-4.76145697

$$$$

 OpenBabel03252503143D

 28 30  0  0  0  0  0  0  0  0999 V2000
   36.1050   25.5290   38.7290 C   0  0  0  0  0  0  0  0  0  0  0  0
   36.9750   26.1040   39.6680 C   0  0  0  0  0  0  0  0  0  0  0  0
   37.1900   25.3380   40.8170 C   0  0  0  0  0  0  0  0  0  0  0  0
   36.6080   24.1470   41.0030 N   0  0  0  0  0  0  0  0  0  0  0  0
   35.7710   23.6370   40.0550 C   0  0  0  0  0  0  0  0  0  0  0  0
   35.5260   24.3250   38.9320 N   0  0  0  0  0  0  0  0  0  0  0  0
   35.8810   26.0550   37.8070 H   0  0  0  0  0  0  0  0  0  0  0  0
   35.3270   22.6670   40.2570 H   0  0  0  0  0  0  0  0  0  0  0  0
   38.0450   25.8460   41.8080 C   0  0  0  0  0  0  0  0  0  0  0  0
   37.8770   26.6900   42.8710 C   0  0  0  0  0  0  0  0  0  0  0  0
   38.8790   27.0200   43.6790 C   0  0  0  0  0  0  0  0  0  0  0  0
   40.1000   26.4800   43.4070 C   0  0  0  0  0  0  0  0  0  0  0  0
   39.7700   25.4460   41.9090 S   0  0  0  0  0  0  0  0  0  0  0  0
   36.8430   27.0740   43.0030 H   0  0  0  0  0  0  0  0  0  0  0  0
   38.8190   27.6800   44.5340 H   0  0  0  0  0  0  0  0  0  0  0  0
   41.0670   26.5760   43.8900 H   0  0  0  0  0  0  0  0  0  0  0  0
   37.5620   27.3690   39.4140 C   0  0  0  0  0  0  0  0  0  0  0  0
   38.6360   27.3630   38.7450 O   0  0  0  0  0  0  0  0  0  0  0  0
   36.9080   28.6190   39.9330 C   0  0  0  0  0  0  0  0  0  0  0  0
   35.7140   28.6990   40.6100 C   0  0  0  0  0  0  0  0  0  0  0  0
   35.5340   30.0070   40.8700 N   0  0  0  0  0  0  0  0  0  0  0  0
   36.5890   30.7020   40.3650 C   0  0  0  0  0  0  0  0  0  0  0  0
   37.4460   29.8400   39.7810 N   0  0  0  0  0  0  0  0  0  0  0  0
   35.0620   27.8980   40.8760 H   0  0  0  0  0  0  0  0  0  0  0  0
   34.7510   30.4530   41.3610 H   0  0  0  0  0  0  0  0  0  0  0  0
   36.8770   32.1650   40.3830 C   0  0  0  0  0  2  0  0  0  0  0  0
   37.2340   32.6820   38.9990 C   0  0  0  0  0  2  0  0  0  0  0  0
   36.7210   33.6040   38.7220 H   0  0  0  0  0  0  0  0  0  0  0  0
  1  6  2  0  0  0  0
  1  2  1  0  0  0  0
  2  3  2  0  0  0  0
  3  4  1  0  0  0  0
  3  9  1  0  0  0  0
  5  8  1  0  0  0  0
  5  4  2  0  0  0  0
  6  5  1  0  0  0  0
  7  1  1  0  0  0  0
  9 13  1  0  0  0  0
  9 10  2  0  0  0  0
 10 14  1  0  0  0  0
 10 11  1  0  0  0  0
 11 15  1  0  0  0  0
 12 11  2  0  0  0  0
 12 16  1  0  0  0  0
 13 12  1  0  0  0  0
 17  2  1  0  0  0  0
 17 19  1  0  0  0  0
 18 17  2  0  0  0  0
 19 20  2  0  0  0  0
 20 21  1  0  0  0  0
 20 24  1  0  0  0  0
 21 25  1  0  0  0  0
 22 26  1  0  0  0  0
 22 21  1  0  0  0  0
 23 19  1  0  0  0  0
 23 22  2  0  0  0  0
 27 26  1  0  0  0  0
 28 27  1  0  0  0  0
M  END
>  <minimizedAffinity>
-4.73128939

$$$$

 OpenBabel03252503143D

 28 30  0  0  0  0  0  0  0  0999 V2000
   37.0170   24.7130   41.6610 C   0  0  0  0  0  0  0  0  0  0  0  0
   37.0110   26.1150   41.6190 C   0  0  0  0  0  0  0  0  0  0  0  0
   36.6280   26.6650   40.3930 C   0  0  0  0  0  0  0  0  0  0  0  0
   36.2940   25.9070   39.3410 N   0  0  0  0  0  0  0  0  0  0  0  0
   36.3180   24.5480   39.4400 C   0  0  0  0  0  0  0  0  0  0  0  0
   36.6760   23.9620   40.5900 N   0  0  0  0  0  0  0  0  0  0  0  0
   37.3010   24.2000   42.5750 H   0  0  0  0  0  0  0  0  0  0  0  0
   36.0380   23.9830   38.5570 H   0  0  0  0  0  0  0  0  0  0  0  0
   36.6010   28.0630   40.2670 C   0  0  0  0  0  0  0  0  0  0  0  0
   35.7240   29.0390   40.6550 C   0  0  0  0  0  0  0  0  0  0  0  0
   35.9400   30.3260   40.4040 C   0  0  0  0  0  0  0  0  0  0  0  0
   37.0840   30.6460   39.7360 C   0  0  0  0  0  0  0  0  0  0  0  0
   37.8770   28.9960   39.4630 S   0  0  0  0  0  0  0  0  0  0  0  0
   34.8240   28.6700   41.1930 H   0  0  0  0  0  0  0  0  0  0  0  0
   35.2930   31.1480   40.6800 H   0  0  0  0  0  0  0  0  0  0  0  0
   37.5000   31.5920   39.4090 H   0  0  0  0  0  0  0  0  0  0  0  0
   37.3740   26.8640   42.7670 C   0  0  0  0  0  0  0  0  0  0  0  0
   36.4230   27.2380   43.5130 O   0  0  0  0  0  0  0  0  0  0  0  0
   38.8200   27.1720   43.0370 C   0  0  0  0  0  0  0  0  0  0  0  0
   39.7290   26.3530   43.6630 C   0  0  0  0  0  0  0  0  0  0  0  0
   40.8840   27.0430   43.6800 N   0  0  0  0  0  0  0  0  0  0  0  0
   40.6820   28.2470   43.0800 C   0  0  0  0  0  0  0  0  0  0  0  0
   39.3980   28.3310   42.6790 N   0  0  0  0  0  0  0  0  0  0  0  0
   39.5600   25.3760   44.0570 H   0  0  0  0  0  0  0  0  0  0  0  0
   41.7890   26.7540   44.0680 H   0  0  0  0  0  0  0  0  0  0  0  0
   41.6270   29.3750   42.8390 C   0  0  0  0  0  2  0  0  0  0  0  0
   40.8910   30.6670   42.5280 C   0  0  0  0  0  2  0  0  0  0  0  0
   41.2610   31.5340   43.0760 H   0  0  0  0  0  0  0  0  0  0  0  0
  1  7  1  0  0  0  0
  2  1  1  0  0  0  0
  2 17  1  0  0  0  0
  3  2  2  0  0  0  0
  4  5  2  0  0  0  0
  4  3  1  0  0  0  0
  5  6  1  0  0  0  0
  6  1  2  0  0  0  0
  8  5  1  0  0  0  0
  9  3  1  0  0  0  0
  9 10  2  0  0  0  0
 10 14  1  0  0  0  0
 11 10  1  0  0  0  0
 11 15  1  0  0  0  0
 12 11  2  0  0  0  0
 13 12  1  0  0  0  0
 13  9  1  0  0  0  0
 16 12  1  0  0  0  0
 17 19  1  0  0  0  0
 17 18  2  0  0  0  0
 19 20  2  0  0  0  0
 20 21  1  0  0  0  0
 20 24  1  0  0  0  0
 21 25  1  0  0  0  0
 22 21  1  0  0  0  0
 23 19  1  0  0  0  0
 23 22  2  0  0  0  0
 26 22  1  0  0  0  0
 27 26  1  0  0  0  0
 27 28  1  0  0  0  0
M  END
>  <minimizedAffinity>
-4.71876144

$$$$

 OpenBabel03252503143D

 28 30  0  0  0  0  0  0  0  0999 V2000
   37.8070   27.5500   40.1340 C   0  0  0  0  0  0  0  0  0  0  0  0
   38.0310   28.8840   39.7630 C   0  0  0  0  0  0  0  0  0  0  0  0
   37.4780   29.8350   40.6240 C   0  0  0  0  0  0  0  0  0  0  0  0
   36.7880   29.4940   41.7200 N   0  0  0  0  0  0  0  0  0  0  0  0
   36.6020   28.1800   42.0310 C   0  0  0  0  0  0  0  0  0  0  0  0
   37.1090   27.2220   41.2440 N   0  0  0  0  0  0  0  0  0  0  0  0
   38.2010   26.7440   39.5220 H   0  0  0  0  0  0  0  0  0  0  0  0
   36.0350   27.9600   42.9310 H   0  0  0  0  0  0  0  0  0  0  0  0
   37.6540   31.1940   40.3200 C   0  0  0  0  0  0  0  0  0  0  0  0
   36.9830   32.0890   39.5330 C   0  0  0  0  0  0  0  0  0  0  0  0
   37.3690   33.3560   39.4140 C   0  0  0  0  0  0  0  0  0  0  0  0
   38.4730   33.7380   40.1150 C   0  0  0  0  0  0  0  0  0  0  0  0
   38.9690   32.1820   40.9840 S   0  0  0  0  0  0  0  0  0  0  0  0
   36.0970   31.6750   39.0060 H   0  0  0  0  0  0  0  0  0  0  0  0
   36.8880   34.1160   38.8120 H   0  0  0  0  0  0  0  0  0  0  0  0
   38.9950   34.6850   40.2000 H   0  0  0  0  0  0  0  0  0  0  0  0
   38.7710   29.1830   38.5910 C   0  0  0  0  0  0  0  0  0  0  0  0
   39.9510   29.6060   38.7680 O   0  0  0  0  0  0  0  0  0  0  0  0
   38.1450   28.9920   37.2380 C   0  0  0  0  0  0  0  0  0  0  0  0
   38.5340   28.0930   36.2740 C   0  0  0  0  0  0  0  0  0  0  0  0
   37.6910   28.2840   35.2420 N   0  0  0  0  0  0  0  0  0  0  0  0
   36.8150   29.2710   35.5710 C   0  0  0  0  0  0  0  0  0  0  0  0
   37.0950   29.7150   36.8130 N   0  0  0  0  0  0  0  0  0  0  0  0
   39.3350   27.3910   36.3250 H   0  0  0  0  0  0  0  0  0  0  0  0
   37.6730   27.7940   34.3410 H   0  0  0  0  0  0  0  0  0  0  0  0
   35.6900   29.8600   34.7900 C   0  0  0  0  0  2  0  0  0  0  0  0
   36.1930   30.7800   33.6900 C   0  0  0  0  0  2  0  0  0  0  0  0
   35.7180   30.6190   32.7210 H   0  0  0  0  0  0  0  0  0  0  0  0
  1  6  1  0  0  0  0
  2  1  2  0  0  0  0
  2  3  1  0  0  0  0
  3  4  2  0  0  0  0
  4  5  1  0  0  0  0
  5  8  1  0  0  0  0
  6  5  2  0  0  0  0
  7  1  1  0  0  0  0
  9  3  1  0  0  0  0
  9 13  1  0  0  0  0
 10  9  2  0  0  0  0
 11 10  1  0  0  0  0
 11 12  2  0  0  0  0
 12 16  1  0  0  0  0
 12 13  1  0  0  0  0
 14 10  1  0  0  0  0
 15 11  1  0  0  0  0
 17 18  2  0  0  0  0
 17  2  1  0  0  0  0
 19 17  1  0  0  0  0
 20 24  1  0  0  0  0
 20 19  2  0  0  0  0
 21 22  1  0  0  0  0
 21 20  1  0  0  0  0
 22 23  2  0  0  0  0
 23 19  1  0  0  0  0
 25 21  1  0  0  0  0
 26 22  1  0  0  0  0
 27 26  1  0  0  0  0
 28 27  1  0  0  0  0
M  END
>  <minimizedAffinity>
-4.71117449

$$$$
