
 OpenBabel03252503033D

 27 27  0  0  0  0  0  0  0  0999 V2000
   40.2110   33.1550   40.0880 C   0  0  0  0  0  0  0  0  0  0  0  0
   40.3790   33.8570   40.9140 H   0  0  0  0  0  0  0  0  0  0  0  0
   40.8650   32.2590   40.1690 H   0  0  0  0  0  0  0  0  0  0  0  0
   40.4690   33.7970   38.8030 N   0  0  0  0  0  0  0  0  0  0  0  0
   39.5990   34.2920   38.4440 H   0  0  0  0  0  0  0  0  0  0  0  0
   41.0000   32.7010   37.6020 S   0  0  0  0  0  0  0  0  0  0  0  0
   39.9070   32.3430   36.6560 O   0  0  0  0  0  0  0  0  0  0  0  0
   39.7030   32.7510   35.7850 H   0  0  0  0  0  0  0  0  0  0  0  0
   42.1050   33.4070   36.8520 O   0  0  0  0  0  0  0  0  0  0  0  0
   41.9940   33.6530   35.8940 H   0  0  0  0  0  0  0  0  0  0  0  0
   41.6720   31.3480   38.3180 O   0  0  0  0  0  0  0  0  0  0  0  0
   43.0380   31.4580   38.4390 C   0  0  0  0  0  0  0  0  0  0  0  0
   43.3240   32.5330   38.5650 H   0  0  0  0  0  0  0  0  0  0  0  0
   43.4690   30.8770   39.2590 H   0  0  0  0  0  0  0  0  0  0  0  0
   43.5630   31.1460   37.4890 H   0  0  0  0  0  0  0  0  0  0  0  0
   38.4950   32.6530   40.0860 S   0  0  0  0  0  0  0  0  0  0  0  0
   39.2740   30.8690   42.0540 C   0  0  0  0  0  0  0  0  0  0  0  0
   38.2650   31.2380   41.1920 C   0  0  0  0  0  0  0  0  0  0  0  0
   37.0540   30.5530   41.1380 C   0  0  0  0  0  0  0  0  0  0  0  0
   36.9170   29.4960   41.9820 N   0  0  0  0  0  0  0  0  0  0  0  0
   37.9130   29.1510   42.8160 C   0  0  0  0  0  0  0  0  0  0  0  0
   39.0570   29.7970   42.8690 N   0  0  0  0  0  0  0  0  0  0  0  0
   40.2030   31.4240   42.0700 H   0  0  0  0  0  0  0  0  0  0  0  0
   36.2480   30.8450   40.4520 H   0  0  0  0  0  0  0  0  0  0  0  0
   37.6180   27.9740   43.6800 C   0  0  0  0  0  2  0  0  0  0  0  0
   36.8170   26.9210   42.9380 C   0  0  0  0  0  2  0  0  0  0  0  0
   35.7200   27.0650   43.0310 H   0  0  0  0  0  0  0  0  0  0  0  0
  1  3  1  0  0  0  0
  1  2  1  0  0  0  0
  4  1  1  0  0  0  0
  5  4  1  0  0  0  0
  6 11  1  0  0  0  0
  6  4  1  0  0  0  0
  7  6  1  0  0  0  0
  8  7  1  0  0  0  0
  9  6  1  0  0  0  0
 10  9  1  0  0  0  0
 11 12  1  0  0  0  0
 12 13  1  0  0  0  0
 12 14  1  0  0  0  0
 15 12  1  0  0  0  0
 16  1  1  0  0  0  0
 16 18  1  0  0  0  0
 17 23  1  0  0  0  0
 17 22  1  0  0  0  0
 18 17  2  0  0  0  0
 19 18  1  0  0  0  0
 19 20  2  0  0  0  0
 20 21  1  0  0  0  0
 21 22  2  0  0  0  0
 21 25  1  0  0  0  0
 24 19  1  0  0  0  0
 26 27  1  0  0  0  0
 26 25  1  0  0  0  0
M  END
>  <minimizedAffinity>
-4.58818293

$$$$

 OpenBabel03252503033D

 27 27  0  0  0  0  0  0  0  0999 V2000
   39.8490   33.3500   40.1490 C   0  0  0  0  0  0  0  0  0  0  0  0
   40.0270   34.1220   40.9080 H   0  0  0  0  0  0  0  0  0  0  0  0
   40.3490   32.3920   40.4100 H   0  0  0  0  0  0  0  0  0  0  0  0
   40.3400   33.7830   38.8450 N   0  0  0  0  0  0  0  0  0  0  0  0
   39.6030   34.3520   38.3310 H   0  0  0  0  0  0  0  0  0  0  0  0
   40.8130   32.4810   37.8410 S   0  0  0  0  0  0  0  0  0  0  0  0
   40.8680   31.1960   38.5910 O   0  0  0  0  0  0  0  0  0  0  0  0
   40.1690   30.5080   38.6640 H   0  0  0  0  0  0  0  0  0  0  0  0
   39.7660   32.3880   36.7560 O   0  0  0  0  0  0  0  0  0  0  0  0
   39.1720   31.5940   36.6890 H   0  0  0  0  0  0  0  0  0  0  0  0
   42.2690   32.8310   37.0970 O   0  0  0  0  0  0  0  0  0  0  0  0
   42.7200   34.0900   37.4200 C   0  0  0  0  0  0  0  0  0  0  0  0
   42.3740   34.3660   38.4480 H   0  0  0  0  0  0  0  0  0  0  0  0
   43.8040   34.2110   37.3650 H   0  0  0  0  0  0  0  0  0  0  0  0
   42.2560   34.8770   36.7560 H   0  0  0  0  0  0  0  0  0  0  0  0
   38.0880   33.0870   39.9830 S   0  0  0  0  0  0  0  0  0  0  0  0
   36.3630   30.9920   40.5270 C   0  0  0  0  0  0  0  0  0  0  0  0
   37.6280   31.5010   40.7260 C   0  0  0  0  0  0  0  0  0  0  0  0
   38.5810   30.8340   41.4890 C   0  0  0  0  0  0  0  0  0  0  0  0
   38.2000   29.6470   42.0320 N   0  0  0  0  0  0  0  0  0  0  0  0
   36.9610   29.1650   41.8270 C   0  0  0  0  0  0  0  0  0  0  0  0
   36.0600   29.7950   41.1060 N   0  0  0  0  0  0  0  0  0  0  0  0
   35.6470   31.5380   39.9280 H   0  0  0  0  0  0  0  0  0  0  0  0
   39.5890   31.2370   41.6500 H   0  0  0  0  0  0  0  0  0  0  0  0
   36.6900   27.8560   42.4840 C   0  0  0  0  0  2  0  0  0  0  0  0
   37.6200   27.6130   43.6560 C   0  0  0  0  0  2  0  0  0  0  0  0
   38.5570   27.0930   43.3660 H   0  0  0  0  0  0  0  0  0  0  0  0
  1  3  1  0  0  0  0
  1  2  1  0  0  0  0
  4  1  1  0  0  0  0
  5  4  1  0  0  0  0
  6  7  1  0  0  0  0
  6  4  1  0  0  0  0
  7  8  1  0  0  0  0
  9  6  1  0  0  0  0
 10  9  1  0  0  0  0
 11 12  1  0  0  0  0
 11  6  1  0  0  0  0
 12 13  1  0  0  0  0
 14 12  1  0  0  0  0
 15 12  1  0  0  0  0
 16  1  1  0  0  0  0
 16 18  1  0  0  0  0
 17 18  2  0  0  0  0
 17 22  1  0  0  0  0
 18 19  1  0  0  0  0
 19 24  1  0  0  0  0
 19 20  2  0  0  0  0
 21 20  1  0  0  0  0
 21 25  1  0  0  0  0
 22 21  2  0  0  0  0
 23 17  1  0  0  0  0
 25 26  1  0  0  0  0
 27 26  1  0  0  0  0
M  END
>  <minimizedAffinity>
-4.53559685

$$$$

 OpenBabel03252503033D

 27 27  0  0  0  0  0  0  0  0999 V2000
   36.9590   30.6370   40.2540 C   0  0  0  0  0  0  0  0  0  0  0  0
   37.8980   30.6120   39.6870 H   0  0  0  0  0  0  0  0  0  0  0  0
   36.1180   30.1880   39.6800 H   0  0  0  0  0  0  0  0  0  0  0  0
   36.5980   32.0090   40.5970 N   0  0  0  0  0  0  0  0  0  0  0  0
   35.5950   32.2200   40.3130 H   0  0  0  0  0  0  0  0  0  0  0  0
   37.6190   33.1730   39.8690 S   0  0  0  0  0  0  0  0  0  0  0  0
   36.8480   34.1590   39.0620 O   0  0  0  0  0  0  0  0  0  0  0  0
   36.5200   35.0430   39.3390 H   0  0  0  0  0  0  0  0  0  0  0  0
   38.3160   33.8850   41.0040 O   0  0  0  0  0  0  0  0  0  0  0  0
   38.1470   34.8490   41.1810 H   0  0  0  0  0  0  0  0  0  0  0  0
   38.7990   32.4120   38.9620 O   0  0  0  0  0  0  0  0  0  0  0  0
   40.0500   32.9280   39.2120 C   0  0  0  0  0  0  0  0  0  0  0  0
   40.1060   33.2960   40.2670 H   0  0  0  0  0  0  0  0  0  0  0  0
   40.8720   32.2300   39.0350 H   0  0  0  0  0  0  0  0  0  0  0  0
   40.2470   33.8500   38.5910 H   0  0  0  0  0  0  0  0  0  0  0  0
   37.1800   29.7550   41.7930 S   0  0  0  0  0  0  0  0  0  0  0  0
   37.3590   27.0910   42.5240 C   0  0  0  0  0  0  0  0  0  0  0  0
   37.0750   27.9700   41.5020 C   0  0  0  0  0  0  0  0  0  0  0  0
   36.7040   27.5340   40.2340 C   0  0  0  0  0  0  0  0  0  0  0  0
   36.6360   26.1880   40.0520 N   0  0  0  0  0  0  0  0  0  0  0  0
   36.9170   25.3450   41.0620 C   0  0  0  0  0  0  0  0  0  0  0  0
   37.2670   25.7570   42.2600 N   0  0  0  0  0  0  0  0  0  0  0  0
   37.6450   27.4660   43.4980 H   0  0  0  0  0  0  0  0  0  0  0  0
   36.4770   28.2310   39.4180 H   0  0  0  0  0  0  0  0  0  0  0  0
   36.8000   23.9010   40.7130 C   0  0  0  0  0  2  0  0  0  0  0  0
   38.1420   23.1980   40.7770 C   0  0  0  0  0  2  0  0  0  0  0  0
   38.6920   23.2230   39.8130 H   0  0  0  0  0  0  0  0  0  0  0  0
  1  4  1  0  0  0  0
  1 16  1  0  0  0  0
  2  1  1  0  0  0  0
  3  1  1  0  0  0  0
  5  4  1  0  0  0  0
  6  4  1  0  0  0  0
  6  9  1  0  0  0  0
  7  8  1  0  0  0  0
  7  6  1  0  0  0  0
  9 10  1  0  0  0  0
 11 12  1  0  0  0  0
 11  6  1  0  0  0  0
 12 13  1  0  0  0  0
 14 12  1  0  0  0  0
 15 12  1  0  0  0  0
 17 23  1  0  0  0  0
 18 16  1  0  0  0  0
 18 17  2  0  0  0  0
 19 18  1  0  0  0  0
 20 19  2  0  0  0  0
 20 21  1  0  0  0  0
 21 22  2  0  0  0  0
 22 17  1  0  0  0  0
 24 19  1  0  0  0  0
 25 26  1  0  0  0  0
 25 21  1  0  0  0  0
 27 26  1  0  0  0  0
M  END
>  <minimizedAffinity>
-4.43106699

$$$$

 OpenBabel03252503033D

 27 27  0  0  0  0  0  0  0  0999 V2000
   39.4970   31.0960   40.9160 C   0  0  0  0  0  0  0  0  0  0  0  0
   40.5490   31.2620   40.6510 H   0  0  0  0  0  0  0  0  0  0  0  0
   38.9880   30.4290   40.1860 H   0  0  0  0  0  0  0  0  0  0  0  0
   38.7710   32.3610   40.9660 N   0  0  0  0  0  0  0  0  0  0  0  0
   38.5770   32.6470   41.9720 H   0  0  0  0  0  0  0  0  0  0  0  0
   37.2820   32.3130   40.1240 S   0  0  0  0  0  0  0  0  0  0  0  0
   36.1960   31.7200   40.9520 O   0  0  0  0  0  0  0  0  0  0  0  0
   35.5350   32.1900   41.5090 H   0  0  0  0  0  0  0  0  0  0  0  0
   36.9420   33.7470   39.7960 O   0  0  0  0  0  0  0  0  0  0  0  0
   36.1470   34.1870   40.2000 H   0  0  0  0  0  0  0  0  0  0  0  0
   37.4720   31.5030   38.6730 O   0  0  0  0  0  0  0  0  0  0  0  0
   36.5770   30.4660   38.5440 C   0  0  0  0  0  0  0  0  0  0  0  0
   35.6320   30.7080   39.0940 H   0  0  0  0  0  0  0  0  0  0  0  0
   36.3300   30.2060   37.5120 H   0  0  0  0  0  0  0  0  0  0  0  0
   36.9540   29.5310   39.0510 H   0  0  0  0  0  0  0  0  0  0  0  0
   39.4120   30.3790   42.5520 S   0  0  0  0  0  0  0  0  0  0  0  0
   37.2800   28.6420   42.2380 C   0  0  0  0  0  0  0  0  0  0  0  0
   38.6340   28.7450   42.4700 C   0  0  0  0  0  0  0  0  0  0  0  0
   39.4410   27.6250   42.6460 C   0  0  0  0  0  0  0  0  0  0  0  0
   38.8230   26.4160   42.5790 N   0  0  0  0  0  0  0  0  0  0  0  0
   37.5000   26.3340   42.3520 C   0  0  0  0  0  0  0  0  0  0  0  0
   36.7370   27.3920   42.1850 N   0  0  0  0  0  0  0  0  0  0  0  0
   36.6820   29.5330   42.1060 H   0  0  0  0  0  0  0  0  0  0  0  0
   40.5200   27.7050   42.8310 H   0  0  0  0  0  0  0  0  0  0  0  0
   36.9650   24.9450   42.3050 C   0  0  0  0  0  2  0  0  0  0  0  0
   36.7550   24.4720   40.8790 C   0  0  0  0  0  2  0  0  0  0  0  0
   35.7430   24.7050   40.4900 H   0  0  0  0  0  0  0  0  0  0  0  0
  1  4  1  0  0  0  0
  1 16  1  0  0  0  0
  2  1  1  0  0  0  0
  3  1  1  0  0  0  0
  4  5  1  0  0  0  0
  6  7  1  0  0  0  0
  6  4  1  0  0  0  0
  7  8  1  0  0  0  0
  9  6  1  0  0  0  0
  9 10  1  0  0  0  0
 11  6  1  0  0  0  0
 12 11  1  0  0  0  0
 12 15  1  0  0  0  0
 12 13  1  0  0  0  0
 14 12  1  0  0  0  0
 17 18  1  0  0  0  0
 18 16  1  0  0  0  0
 18 19  2  0  0  0  0
 19 24  1  0  0  0  0
 20 19  1  0  0  0  0
 21 20  2  0  0  0  0
 22 17  2  0  0  0  0
 22 21  1  0  0  0  0
 23 17  1  0  0  0  0
 25 21  1  0  0  0  0
 26 25  1  0  0  0  0
 27 26  1  0  0  0  0
M  END
>  <minimizedAffinity>
-4.35913706

$$$$

 OpenBabel03252503033D

 27 27  0  0  0  0  0  0  0  0999 V2000
   35.5970   29.5280   39.1190 C   0  0  0  0  0  0  0  0  0  0  0  0
   35.1250   29.7380   38.1520 H   0  0  0  0  0  0  0  0  0  0  0  0
   34.9210   29.7690   39.9690 H   0  0  0  0  0  0  0  0  0  0  0  0
   36.8240   30.3030   39.2760 N   0  0  0  0  0  0  0  0  0  0  0  0
   37.6730   29.6630   39.3240 H   0  0  0  0  0  0  0  0  0  0  0  0
   36.8160   31.2960   40.6680 S   0  0  0  0  0  0  0  0  0  0  0  0
   36.8080   32.7430   40.3160 O   0  0  0  0  0  0  0  0  0  0  0  0
   36.0320   33.3420   40.2370 H   0  0  0  0  0  0  0  0  0  0  0  0
   35.5520   30.9520   41.4190 O   0  0  0  0  0  0  0  0  0  0  0  0
   34.8250   31.6220   41.5270 H   0  0  0  0  0  0  0  0  0  0  0  0
   38.1050   30.9040   41.6590 O   0  0  0  0  0  0  0  0  0  0  0  0
   39.2520   30.6700   40.9380 C   0  0  0  0  0  0  0  0  0  0  0  0
   39.2490   31.2880   40.0050 H   0  0  0  0  0  0  0  0  0  0  0  0
   40.1790   30.8590   41.4860 H   0  0  0  0  0  0  0  0  0  0  0  0
   39.2930   29.6070   40.5600 H   0  0  0  0  0  0  0  0  0  0  0  0
   36.0570   27.8010   39.1830 S   0  0  0  0  0  0  0  0  0  0  0  0
   36.7190   27.6270   41.8650 C   0  0  0  0  0  0  0  0  0  0  0  0
   37.1830   27.5130   40.5720 C   0  0  0  0  0  0  0  0  0  0  0  0
   38.5030   27.1800   40.2880 C   0  0  0  0  0  0  0  0  0  0  0  0
   39.3190   26.9710   41.3550 N   0  0  0  0  0  0  0  0  0  0  0  0
   38.8490   27.0860   42.6100 C   0  0  0  0  0  0  0  0  0  0  0  0
   37.6010   27.4010   42.8800 N   0  0  0  0  0  0  0  0  0  0  0  0
   35.6860   27.8880   42.0500 H   0  0  0  0  0  0  0  0  0  0  0  0
   38.8750   27.0890   39.2590 H   0  0  0  0  0  0  0  0  0  0  0  0
   39.8590   26.8290   43.6750 C   0  0  0  0  0  2  0  0  0  0  0  0
   41.1480   27.5860   43.4200 C   0  0  0  0  0  2  0  0  0  0  0  0
   41.8760   27.0100   42.8110 H   0  0  0  0  0  0  0  0  0  0  0  0
  1 16  1  0  0  0  0
  1  4  1  0  0  0  0
  1  3  1  0  0  0  0
  2  1  1  0  0  0  0
  4  5  1  0  0  0  0
  4  6  1  0  0  0  0
  6  9  1  0  0  0  0
  6 11  1  0  0  0  0
  7  6  1  0  0  0  0
  8  7  1  0  0  0  0
  9 10  1  0  0  0  0
 12 14  1  0  0  0  0
 12 11  1  0  0  0  0
 13 12  1  0  0  0  0
 15 12  1  0  0  0  0
 16 18  1  0  0  0  0
 17 23  1  0  0  0  0
 17 22  1  0  0  0  0
 18 17  2  0  0  0  0
 19 18  1  0  0  0  0
 19 20  2  0  0  0  0
 20 21  1  0  0  0  0
 21 22  2  0  0  0  0
 21 25  1  0  0  0  0
 24 19  1  0  0  0  0
 26 25  1  0  0  0  0
 27 26  1  0  0  0  0
M  END
>  <minimizedAffinity>
-4.21319485

$$$$

 OpenBabel03252503033D

 27 27  0  0  0  0  0  0  0  0999 V2000
   37.7070   32.3750   39.8710 C   0  0  0  0  0  0  0  0  0  0  0  0
   37.3460   33.3050   40.3270 H   0  0  0  0  0  0  0  0  0  0  0  0
   38.7200   32.1010   40.2400 H   0  0  0  0  0  0  0  0  0  0  0  0
   37.7670   32.5000   38.4180 N   0  0  0  0  0  0  0  0  0  0  0  0
   36.8360   32.2370   37.9760 H   0  0  0  0  0  0  0  0  0  0  0  0
   38.9910   31.5360   37.7120 S   0  0  0  0  0  0  0  0  0  0  0  0
   38.4430   30.2740   37.1430 O   0  0  0  0  0  0  0  0  0  0  0  0
   38.1700   30.0980   36.2150 H   0  0  0  0  0  0  0  0  0  0  0  0
   39.5920   32.3700   36.6050 O   0  0  0  0  0  0  0  0  0  0  0  0
   39.4980   32.0970   35.6530 H   0  0  0  0  0  0  0  0  0  0  0  0
   40.2030   31.2430   38.8260 O   0  0  0  0  0  0  0  0  0  0  0  0
   41.4530   31.3510   38.2630 C   0  0  0  0  0  0  0  0  0  0  0  0
   41.4330   32.0980   37.4300 H   0  0  0  0  0  0  0  0  0  0  0  0
   42.2450   31.6230   38.9650 H   0  0  0  0  0  0  0  0  0  0  0  0
   41.7620   30.3890   37.7580 H   0  0  0  0  0  0  0  0  0  0  0  0
   36.5540   31.0580   40.2360 S   0  0  0  0  0  0  0  0  0  0  0  0
   38.6510   29.9940   41.6950 C   0  0  0  0  0  0  0  0  0  0  0  0
   37.3520   29.8090   41.2770 C   0  0  0  0  0  0  0  0  0  0  0  0
   36.6160   28.6820   41.6300 C   0  0  0  0  0  0  0  0  0  0  0  0
   37.2470   27.7670   42.4110 N   0  0  0  0  0  0  0  0  0  0  0  0
   38.5160   27.9640   42.8100 C   0  0  0  0  0  0  0  0  0  0  0  0
   39.2120   29.0290   42.4780 N   0  0  0  0  0  0  0  0  0  0  0  0
   39.1950   30.8820   41.4020 H   0  0  0  0  0  0  0  0  0  0  0  0
   35.5800   28.5330   41.2980 H   0  0  0  0  0  0  0  0  0  0  0  0
   39.0730   26.8750   43.6610 C   0  0  0  0  0  2  0  0  0  0  0  0
   40.5900   26.8930   43.6740 C   0  0  0  0  0  2  0  0  0  0  0  0
   41.0370   26.2750   42.8670 H   0  0  0  0  0  0  0  0  0  0  0  0
  1 16  1  0  0  0  0
  1  3  1  0  0  0  0
  1  2  1  0  0  0  0
  4  1  1  0  0  0  0
  5  4  1  0  0  0  0
  6  4  1  0  0  0  0
  6 11  1  0  0  0  0
  7  6  1  0  0  0  0
  8  7  1  0  0  0  0
  9  6  1  0  0  0  0
 10  9  1  0  0  0  0
 12 11  1  0  0  0  0
 12 14  1  0  0  0  0
 13 12  1  0  0  0  0
 15 12  1  0  0  0  0
 16 18  1  0  0  0  0
 17 22  1  0  0  0  0
 18 19  1  0  0  0  0
 18 17  2  0  0  0  0
 19 20  2  0  0  0  0
 20 21  1  0  0  0  0
 21 25  1  0  0  0  0
 22 21  2  0  0  0  0
 23 17  1  0  0  0  0
 24 19  1  0  0  0  0
 25 26  1  0  0  0  0
 27 26  1  0  0  0  0
M  END
>  <minimizedAffinity>
-4.15673637

$$$$

 OpenBabel03252503033D

 27 27  0  0  0  0  0  0  0  0999 V2000
   37.9590   31.3820   37.4010 C   0  0  0  0  0  0  0  0  0  0  0  0
   38.8760   31.0600   37.9090 H   0  0  0  0  0  0  0  0  0  0  0  0
   38.1610   31.7200   36.3600 H   0  0  0  0  0  0  0  0  0  0  0  0
   37.3250   32.4790   38.1240 N   0  0  0  0  0  0  0  0  0  0  0  0
   37.3090   33.3640   37.5340 H   0  0  0  0  0  0  0  0  0  0  0  0
   38.0930   32.8360   39.6100 S   0  0  0  0  0  0  0  0  0  0  0  0
   38.7770   34.1580   39.5770 O   0  0  0  0  0  0  0  0  0  0  0  0
   38.4290   35.0270   39.8790 H   0  0  0  0  0  0  0  0  0  0  0  0
   36.9980   32.8600   40.6510 O   0  0  0  0  0  0  0  0  0  0  0  0
   36.7630   33.7020   41.1230 H   0  0  0  0  0  0  0  0  0  0  0  0
   39.1430   31.6020   40.0230 O   0  0  0  0  0  0  0  0  0  0  0  0
   38.9280   31.1530   41.3050 C   0  0  0  0  0  0  0  0  0  0  0  0
   37.8480   31.2740   41.5750 H   0  0  0  0  0  0  0  0  0  0  0  0
   39.2230   30.1150   41.4780 H   0  0  0  0  0  0  0  0  0  0  0  0
   39.4700   31.7910   42.0620 H   0  0  0  0  0  0  0  0  0  0  0  0
   36.7940   30.0260   37.3800 S   0  0  0  0  0  0  0  0  0  0  0  0
   37.7260   28.3010   39.3340 C   0  0  0  0  0  0  0  0  0  0  0  0
   36.7550   29.2200   39.0020 C   0  0  0  0  0  0  0  0  0  0  0  0
   35.7290   29.5600   39.8780 C   0  0  0  0  0  0  0  0  0  0  0  0
   35.7320   28.9350   41.0860 N   0  0  0  0  0  0  0  0  0  0  0  0
   36.6880   28.0400   41.3930 C   0  0  0  0  0  0  0  0  0  0  0  0
   37.6580   27.7190   40.5660 N   0  0  0  0  0  0  0  0  0  0  0  0
   38.5100   28.0610   38.6280 H   0  0  0  0  0  0  0  0  0  0  0  0
   34.9540   30.2920   39.6170 H   0  0  0  0  0  0  0  0  0  0  0  0
   36.5600   27.4390   42.7500 C   0  0  0  0  0  2  0  0  0  0  0  0
   37.6610   27.9110   43.6790 C   0  0  0  0  0  2  0  0  0  0  0  0
   38.5610   27.2610   43.6500 H   0  0  0  0  0  0  0  0  0  0  0  0
  1  2  1  0  0  0  0
  1  4  1  0  0  0  0
  3  1  1  0  0  0  0
  4  6  1  0  0  0  0
  5  4  1  0  0  0  0
  6 11  1  0  0  0  0
  6  9  1  0  0  0  0
  7  6  1  0  0  0  0
  7  8  1  0  0  0  0
  9 10  1  0  0  0  0
 11 12  1  0  0  0  0
 12 14  1  0  0  0  0
 12 13  1  0  0  0  0
 12 15  1  0  0  0  0
 16  1  1  0  0  0  0
 16 18  1  0  0  0  0
 17 22  1  0  0  0  0
 18 17  2  0  0  0  0
 18 19  1  0  0  0  0
 19 20  2  0  0  0  0
 20 21  1  0  0  0  0
 21 25  1  0  0  0  0
 22 21  2  0  0  0  0
 23 17  1  0  0  0  0
 24 19  1  0  0  0  0
 25 26  1  0  0  0  0
 27 26  1  0  0  0  0
M  END
>  <minimizedAffinity>
-4.14435291

$$$$

 OpenBabel03252503033D

 27 27  0  0  0  0  0  0  0  0999 V2000
   38.5650   29.3040   42.7420 C   0  0  0  0  0  0  0  0  0  0  0  0
   39.0510   30.0220   43.4140 H   0  0  0  0  0  0  0  0  0  0  0  0
   38.9030   29.4310   41.6890 H   0  0  0  0  0  0  0  0  0  0  0  0
   37.1140   29.4590   42.7790 N   0  0  0  0  0  0  0  0  0  0  0  0
   36.6470   28.5710   43.1330 H   0  0  0  0  0  0  0  0  0  0  0  0
   36.4420   29.8520   41.2560 S   0  0  0  0  0  0  0  0  0  0  0  0
   35.6210   31.0920   41.3170 O   0  0  0  0  0  0  0  0  0  0  0  0
   35.8990   32.0130   41.1090 H   0  0  0  0  0  0  0  0  0  0  0  0
   37.6140   30.0670   40.3270 O   0  0  0  0  0  0  0  0  0  0  0  0
   37.7970   30.9640   39.9380 H   0  0  0  0  0  0  0  0  0  0  0  0
   35.5700   28.5550   40.6620 O   0  0  0  0  0  0  0  0  0  0  0  0
   36.1090   28.0670   39.4950 C   0  0  0  0  0  0  0  0  0  0  0  0
   37.2160   28.2270   39.4900 H   0  0  0  0  0  0  0  0  0  0  0  0
   35.9020   27.0100   39.3070 H   0  0  0  0  0  0  0  0  0  0  0  0
   35.7460   28.6490   38.5980 H   0  0  0  0  0  0  0  0  0  0  0  0
   38.9280   27.6440   43.2970 S   0  0  0  0  0  0  0  0  0  0  0  0
   39.0520   26.3360   40.8610 C   0  0  0  0  0  0  0  0  0  0  0  0
   38.3780   26.4430   42.0570 C   0  0  0  0  0  0  0  0  0  0  0  0
   37.2730   25.6520   42.3560 C   0  0  0  0  0  0  0  0  0  0  0  0
   36.8890   24.7630   41.4020 N   0  0  0  0  0  0  0  0  0  0  0  0
   37.5590   24.6720   40.2390 C   0  0  0  0  0  0  0  0  0  0  0  0
   38.6030   25.4190   39.9570 N   0  0  0  0  0  0  0  0  0  0  0  0
   39.9080   26.9670   40.6610 H   0  0  0  0  0  0  0  0  0  0  0  0
   36.7340   25.7350   43.3080 H   0  0  0  0  0  0  0  0  0  0  0  0
   37.0210   23.6550   39.2930 C   0  0  0  0  0  2  0  0  0  0  0  0
   35.5050   23.6280   39.3000 C   0  0  0  0  0  2  0  0  0  0  0  0
   35.0870   22.9220   40.0480 H   0  0  0  0  0  0  0  0  0  0  0  0
  1  4  1  0  0  0  0
  1 16  1  0  0  0  0
  1  2  1  0  0  0  0
  3  1  1  0  0  0  0
  4  5  1  0  0  0  0
  6  7  1  0  0  0  0
  6  4  1  0  0  0  0
  8  7  1  0  0  0  0
  9  6  1  0  0  0  0
 10  9  1  0  0  0  0
 11  6  1  0  0  0  0
 12 11  1  0  0  0  0
 13 12  1  0  0  0  0
 14 12  1  0  0  0  0
 15 12  1  0  0  0  0
 17 18  1  0  0  0  0
 18 19  2  0  0  0  0
 18 16  1  0  0  0  0
 19 24  1  0  0  0  0
 20 19  1  0  0  0  0
 21 20  2  0  0  0  0
 22 21  1  0  0  0  0
 22 17  2  0  0  0  0
 23 17  1  0  0  0  0
 25 26  1  0  0  0  0
 25 21  1  0  0  0  0
 26 27  1  0  0  0  0
M  END
>  <minimizedAffinity>
-4.01074171

$$$$

 OpenBabel03252503033D

 27 27  0  0  0  0  0  0  0  0999 V2000
   40.0780   30.5370   41.0780 C   0  0  0  0  0  0  0  0  0  0  0  0
   41.0640   30.9200   41.3680 H   0  0  0  0  0  0  0  0  0  0  0  0
   40.1590   29.6260   40.4440 H   0  0  0  0  0  0  0  0  0  0  0  0
   39.3290   31.5460   40.3350 N   0  0  0  0  0  0  0  0  0  0  0  0
   39.3910   31.3710   39.2880 H   0  0  0  0  0  0  0  0  0  0  0  0
   39.8620   33.1420   40.6470 S   0  0  0  0  0  0  0  0  0  0  0  0
   38.8470   33.9270   41.4030 O   0  0  0  0  0  0  0  0  0  0  0  0
   38.7890   34.0640   42.3750 H   0  0  0  0  0  0  0  0  0  0  0  0
   41.1170   33.0070   41.4780 O   0  0  0  0  0  0  0  0  0  0  0  0
   41.1420   33.3290   42.4190 H   0  0  0  0  0  0  0  0  0  0  0  0
   40.2920   33.8920   39.2170 O   0  0  0  0  0  0  0  0  0  0  0  0
   40.9760   33.0420   38.3780 C   0  0  0  0  0  0  0  0  0  0  0  0
   40.6350   31.9890   38.5420 H   0  0  0  0  0  0  0  0  0  0  0  0
   40.8860   33.2840   37.3160 H   0  0  0  0  0  0  0  0  0  0  0  0
   42.0770   33.0140   38.6280 H   0  0  0  0  0  0  0  0  0  0  0  0
   39.1360   30.1670   42.5520 S   0  0  0  0  0  0  0  0  0  0  0  0
   37.2090   28.2230   42.9610 C   0  0  0  0  0  0  0  0  0  0  0  0
   38.4580   28.4910   42.4460 C   0  0  0  0  0  0  0  0  0  0  0  0
   39.2330   27.5080   41.8380 C   0  0  0  0  0  0  0  0  0  0  0  0
   38.6920   26.2620   41.7780 N   0  0  0  0  0  0  0  0  0  0  0  0
   37.4700   26.0190   42.2860 C   0  0  0  0  0  0  0  0  0  0  0  0
   36.7380   26.9480   42.8600 N   0  0  0  0  0  0  0  0  0  0  0  0
   36.6340   29.0120   43.4280 H   0  0  0  0  0  0  0  0  0  0  0  0
   40.2280   27.7180   41.4270 H   0  0  0  0  0  0  0  0  0  0  0  0
   37.0110   24.6080   42.1460 C   0  0  0  0  0  2  0  0  0  0  0  0
   36.5670   24.3000   40.7290 C   0  0  0  0  0  2  0  0  0  0  0  0
   35.4890   24.5010   40.5590 H   0  0  0  0  0  0  0  0  0  0  0  0
  1  2  1  0  0  0  0
  1 16  1  0  0  0  0
  3  1  1  0  0  0  0
  4  6  1  0  0  0  0
  4  1  1  0  0  0  0
  5  4  1  0  0  0  0
  6  7  1  0  0  0  0
  6  9  1  0  0  0  0
  7  8  1  0  0  0  0
  9 10  1  0  0  0  0
 11  6  1  0  0  0  0
 12 13  1  0  0  0  0
 12 15  1  0  0  0  0
 12 11  1  0  0  0  0
 14 12  1  0  0  0  0
 17 23  1  0  0  0  0
 18 16  1  0  0  0  0
 18 17  2  0  0  0  0
 19 18  1  0  0  0  0
 20 19  2  0  0  0  0
 20 21  1  0  0  0  0
 21 22  2  0  0  0  0
 22 17  1  0  0  0  0
 24 19  1  0  0  0  0
 25 21  1  0  0  0  0
 26 25  1  0  0  0  0
 27 26  1  0  0  0  0
M  END
>  <minimizedAffinity>
-3.99216795

$$$$
