
 OpenBabel03242517523D

 26 27  0  0  0  0  0  0  0  0999 V2000
   45.6440   30.4380   46.9030 C   0  0  0  0  0  0  0  0  0  0  0  0
   46.4430   31.5250   46.6710 C   0  0  0  0  0  0  0  0  0  0  0  0
   46.5880   32.4490   47.7020 C   0  0  0  0  0  0  0  0  0  0  0  0
   45.9530   32.2870   48.9230 C   0  0  0  0  0  0  0  0  0  0  0  0
   45.1540   31.1820   49.1290 C   0  0  0  0  0  0  0  0  0  0  0  0
   45.0060   30.2570   48.1030 C   0  0  0  0  0  0  0  0  0  0  0  0
   47.1940   33.3430   47.6270 H   0  0  0  0  0  0  0  0  0  0  0  0
   46.0640   33.0050   49.7280 H   0  0  0  0  0  0  0  0  0  0  0  0
   44.6710   31.0840   50.0950 H   0  0  0  0  0  0  0  0  0  0  0  0
   44.3930   29.3980   48.2440 H   0  0  0  0  0  0  0  0  0  0  0  0
   45.5140   29.3300   45.5640 S   0  0  0  0  0  0  0  0  0  0  0  0
   44.7330   29.9250   44.4200 O   0  0  0  0  0  0  0  0  0  0  0  0
   44.7000   28.1350   46.0390 O   0  0  0  0  0  0  0  0  0  0  0  0
   46.7270   28.8660   45.1820 H   0  0  0  0  0  0  0  0  0  0  0  0
   47.1530   31.8630   45.5370 O   0  0  0  0  0  0  0  0  0  0  0  0
   45.2230   34.3070   43.8480 C   0  0  0  0  0  0  0  0  0  0  0  0
   46.1540   34.9040   42.9790 C   0  0  0  0  0  0  0  0  0  0  0  0
   47.4670   34.4350   42.9950 C   0  0  0  0  0  0  0  0  0  0  0  0
   47.7550   33.4330   43.8510 N   0  0  0  0  0  0  0  0  0  0  0  0
   46.8610   32.8840   44.6630 C   0  0  0  0  0  0  0  0  0  0  0  0
   45.5930   33.3250   44.6590 N   0  0  0  0  0  0  0  0  0  0  0  0
   44.2260   34.7220   43.7800 H   0  0  0  0  0  0  0  0  0  0  0  0
   45.9520   35.7100   42.2800 H   0  0  0  0  0  0  0  0  0  0  0  0
   48.5600   34.9670   42.1350 C   0  0  0  0  0  0  0  0  0  0  0  0
   48.2100   34.8530   40.6620 C   0  0  0  0  0  0  0  0  0  0  0  0
   48.6720   35.6530   40.0560 H   0  0  0  0  0  0  0  0  0  0  0  0
  1  6  1  0  0  0  0
  2  1  2  0  0  0  0
  2  3  1  0  0  0  0
  3  4  2  0  0  0  0
  4  5  1  0  0  0  0
  4  8  1  0  0  0  0
  5  9  1  0  0  0  0
  6 10  1  0  0  0  0
  6  5  2  0  0  0  0
  7  3  1  0  0  0  0
 11 13  2  0  0  0  0
 11  1  1  0  0  0  0
 12 11  2  0  0  0  0
 14 11  1  0  0  0  0
 15  2  1  0  0  0  0
 16 21  1  0  0  0  0
 17 18  1  0  0  0  0
 17 16  2  0  0  0  0
 18 19  2  0  0  0  0
 19 20  1  0  0  0  0
 20 15  1  0  0  0  0
 21 20  2  0  0  0  0
 22 16  1  0  0  0  0
 23 17  1  0  0  0  0
 24 18  1  0  0  0  0
 25 24  1  0  0  0  0
 26 25  1  0  0  0  0
M  END
>  <minimizedAffinity>
-4.86386728

>  <minimizedRMSD>
2.84685445

$$$$
