
 OpenBabel03252509163D

 19 20  0  0  0  0  0  0  0  0999 V2000
   45.8450   33.3100   46.3270 C   0  0  0  0  0  0  0  0  0  0  0  0
   45.1120   33.2160   47.5390 C   0  0  0  0  0  0  0  0  0  0  0  0
   45.5130   32.2790   48.4370 C   0  0  0  0  0  0  0  0  0  0  0  0
   46.6190   31.4520   48.1370 C   0  0  0  0  0  0  0  0  0  0  0  0
   47.1310   32.0270   46.4850 S   0  0  0  0  0  0  0  0  0  0  0  0
   44.2870   33.8730   47.7010 H   0  0  0  0  0  0  0  0  0  0  0  0
   45.0280   32.1240   49.3820 H   0  0  0  0  0  0  0  0  0  0  0  0
   44.5050   36.0610   44.2230 C   0  0  0  0  0  0  0  0  0  0  0  0
   45.2560   35.8500   43.0460 C   0  0  0  0  0  0  0  0  0  0  0  0
   46.1830   34.7890   43.0140 C   0  0  0  0  0  0  0  0  0  0  0  0
   46.2970   34.0180   44.1440 N   0  0  0  0  0  0  0  0  0  0  0  0
   45.5550   34.2640   45.2400 C   0  0  0  0  0  0  0  0  0  0  0  0
   44.6570   35.2800   45.2930 N   0  0  0  0  0  0  0  0  0  0  0  0
   43.8130   36.8720   44.2140 H   0  0  0  0  0  0  0  0  0  0  0  0
   45.1680   36.4530   42.1610 H   0  0  0  0  0  0  0  0  0  0  0  0
   46.7980   34.5540   42.1610 H   0  0  0  0  0  0  0  0  0  0  0  0
   47.2310   30.4130   48.8870 C   0  0  0  0  0  2  0  0  0  0  0  0
   48.6130   30.7730   49.3590 C   0  0  0  0  0  2  0  0  0  0  0  0
   48.8850   31.8350   49.1280 H   0  0  0  0  0  0  0  0  0  0  0  0
  1  5  1  0  0  0  0
  1  2  2  0  0  0  0
  2  6  1  0  0  0  0
  2  3  1  0  0  0  0
  3  7  1  0  0  0  0
  4  3  2  0  0  0  0
  4 17  1  0  0  0  0
  5  4  1  0  0  0  0
  8 13  1  0  0  0  0
  9  8  2  0  0  0  0
 10  9  1  0  0  0  0
 10 11  2  0  0  0  0
 11 12  1  0  0  0  0
 12 13  2  0  0  0  0
 12  1  1  0  0  0  0
 14  8  1  0  0  0  0
 15  9  1  0  0  0  0
 16 10  1  0  0  0  0
 17 18  1  0  0  0  0
 19 18  1  0  0  0  0
M  END
>  <minimizedAffinity>
-4.22916079

>  <minimizedRMSD>
0.815747857

$$$$
