
 OpenBabel03252505233D

 34 36  0  0  1  0  0  0  0  0999 V2000
   39.9000   30.4400   41.2360 F   0  0  0  0  0  0  0  0  0  0  0  0
   38.6710   30.5650   40.7010 C   0  0  0  0  0  0  0  0  0  0  0  0
   38.4730   31.4820   39.6900 C   0  0  0  0  0  0  0  0  0  0  0  0
   37.2290   31.6000   39.1570 C   0  0  0  0  0  0  0  0  0  0  0  0
   36.1960   30.8060   39.6340 C   0  0  0  0  0  0  0  0  0  0  0  0
   36.3820   29.8900   40.6420 C   0  0  0  0  0  0  0  0  0  0  0  0
   37.6700   29.7780   41.1820 C   0  0  0  0  0  0  0  0  0  0  0  0
   37.0710   32.3190   38.3630 H   0  0  0  0  0  0  0  0  0  0  0  0
   35.2170   30.9280   39.1860 H   0  0  0  0  0  0  0  0  0  0  0  0
   35.5310   29.3060   40.9630 H   0  0  0  0  0  0  0  0  0  0  0  0
   37.7930   28.8170   42.2140 N   0  0  0  0  0  0  0  0  0  0  0  0
   37.3010   28.8000   43.5590 C   0  0  0  0  0  0  0  0  0  0  0  0
   36.6600   27.4110   43.6800 C   0  0  0  0  0  0  0  0  0  0  0  0
   37.3320   26.6110   42.5860 C   0  0  0  0  0  0  0  0  0  0  0  0
   38.4670   27.5360   42.2190 C   0  0  2  0  0  0  0  0  0  0  0  0
   38.0050   29.0290   44.3490 H   0  0  0  0  0  0  0  0  0  0  0  0
   36.4340   29.5030   43.7210 H   0  0  0  0  0  0  0  0  0  0  0  0
   37.0290   26.9970   44.6480 H   0  0  0  0  0  0  0  0  0  0  0  0
   35.5790   27.4240   43.5630 H   0  0  0  0  0  0  0  0  0  0  0  0
   37.7290   25.6460   42.9340 H   0  0  0  0  0  0  0  0  0  0  0  0
   36.6140   26.4870   41.7380 H   0  0  0  0  0  0  0  0  0  0  0  0
   38.8680   27.2390   41.2320 H   0  0  0  0  0  0  0  0  0  0  0  0
   39.5650   27.4320   43.2260 C   0  0  0  0  0  2  0  0  0  0  0  0
   40.0580   26.0120   43.4050 C   0  0  0  0  0  2  0  0  0  0  0  0
   40.2700   25.6230   42.3760 H   0  0  0  0  0  0  0  0  0  0  0  0
   40.9820   34.1610   39.5130 C   0  0  0  0  0  0  0  0  0  0  0  0
   41.7250   33.8100   38.3530 C   0  0  0  0  0  0  0  0  0  0  0  0
   41.3250   32.6440   37.6670 C   0  0  0  0  0  0  0  0  0  0  0  0
   40.2680   31.9260   38.1380 N   0  0  0  0  0  0  0  0  0  0  0  0
   39.5990   32.2880   39.2290 C   0  0  0  0  0  0  0  0  0  0  0  0
   39.9550   33.4030   39.9140 N   0  0  0  0  0  0  0  0  0  0  0  0
   41.2930   35.0500   40.0310 H   0  0  0  0  0  0  0  0  0  0  0  0
   42.5530   34.3550   37.9650 H   0  0  0  0  0  0  0  0  0  0  0  0
   41.7880   32.2640   36.7870 H   0  0  0  0  0  0  0  0  0  0  0  0
  2  7  1  0  0  0  0
  2  1  1  0  0  0  0
  3  2  2  0  0  0  0
  4  5  2  0  0  0  0
  4  3  1  0  0  0  0
  5  6  1  0  0  0  0
  6 10  1  0  0  0  0
  6  7  2  0  0  0  0
  7 11  1  0  0  0  0
  8  4  1  0  0  0  0
  9  5  1  0  0  0  0
 11 15  1  0  0  0  0
 11 12  1  0  0  0  0
 12 13  1  0  0  0  0
 12 17  1  0  0  0  0
 12 16  1  0  0  0  0
 13 18  1  0  0  0  0
 14 20  1  0  0  0  0
 14 13  1  0  0  0  0
 15 22  1  6  0  0  0
 15 14  1  0  0  0  0
 15 23  1  0  0  0  0
 19 13  1  0  0  0  0
 21 14  1  0  0  0  0
 23 24  1  0  0  0  0
 25 24  1  0  0  0  0
 26 31  1  0  0  0  0
 26 32  1  0  0  0  0
 27 26  2  0  0  0  0
 28 29  2  0  0  0  0
 28 27  1  0  0  0  0
 29 30  1  0  0  0  0
 30  3  1  0  0  0  0
 30 31  2  0  0  0  0
 33 27  1  0  0  0  0
 34 28  1  0  0  0  0
M  END
>  <minimizedAffinity>
-5.25866842

$$$$

 OpenBabel03252505233D

 34 36  0  0  1  0  0  0  0  0999 V2000
   36.5370   27.8860   39.5310 F   0  0  0  0  0  0  0  0  0  0  0  0
   36.8450   29.1840   39.7050 C   0  0  0  0  0  0  0  0  0  0  0  0
   36.6490   30.0630   38.6610 C   0  0  0  0  0  0  0  0  0  0  0  0
   36.9630   31.3720   38.8470 C   0  0  0  0  0  0  0  0  0  0  0  0
   37.4680   31.7930   40.0680 C   0  0  0  0  0  0  0  0  0  0  0  0
   37.6680   30.9260   41.1150 C   0  0  0  0  0  0  0  0  0  0  0  0
   37.3400   29.5790   40.9100 C   0  0  0  0  0  0  0  0  0  0  0  0
   36.8090   32.0640   38.0280 H   0  0  0  0  0  0  0  0  0  0  0  0
   37.7080   32.8440   40.1810 H   0  0  0  0  0  0  0  0  0  0  0  0
   38.0660   31.3250   42.0380 H   0  0  0  0  0  0  0  0  0  0  0  0
   37.5690   28.7410   42.0270 N   0  0  0  0  0  0  0  0  0  0  0  0
   37.1240   28.8260   43.3860 C   0  0  0  0  0  0  0  0  0  0  0  0
   36.5950   27.4140   43.6700 C   0  0  0  0  0  0  0  0  0  0  0  0
   37.2910   26.5570   42.6350 C   0  0  0  0  0  0  0  0  0  0  0  0
   38.3400   27.5200   42.1330 C   0  0  2  0  0  0  0  0  0  0  0  0
   37.8340   29.1850   44.1200 H   0  0  0  0  0  0  0  0  0  0  0  0
   36.2110   29.4770   43.5110 H   0  0  0  0  0  0  0  0  0  0  0  0
   37.0260   27.1290   44.6590 H   0  0  0  0  0  0  0  0  0  0  0  0
   35.5130   27.3350   43.5960 H   0  0  0  0  0  0  0  0  0  0  0  0
   37.7720   25.6640   43.0620 H   0  0  0  0  0  0  0  0  0  0  0  0
   36.5570   26.2950   41.8340 H   0  0  0  0  0  0  0  0  0  0  0  0
   38.7300   27.1530   41.1650 H   0  0  0  0  0  0  0  0  0  0  0  0
   39.4740   27.6000   43.1010 C   0  0  0  0  0  2  0  0  0  0  0  0
   39.9540   26.2360   43.5490 C   0  0  0  0  0  2  0  0  0  0  0  0
   40.1200   25.6410   42.6150 H   0  0  0  0  0  0  0  0  0  0  0  0
   36.4740   28.9340   35.1680 C   0  0  0  0  0  0  0  0  0  0  0  0
   35.0970   28.6160   35.0160 C   0  0  0  0  0  0  0  0  0  0  0  0
   34.2700   28.8060   36.1430 C   0  0  0  0  0  0  0  0  0  0  0  0
   34.8180   29.2760   37.2970 N   0  0  0  0  0  0  0  0  0  0  0  0
   36.1130   29.5620   37.3980 C   0  0  0  0  0  0  0  0  0  0  0  0
   36.9380   29.3920   36.3360 N   0  0  0  0  0  0  0  0  0  0  0  0
   37.0980   28.7870   34.3050 H   0  0  0  0  0  0  0  0  0  0  0  0
   34.6450   28.2480   34.1250 H   0  0  0  0  0  0  0  0  0  0  0  0
   33.2230   28.6100   36.1730 H   0  0  0  0  0  0  0  0  0  0  0  0
  1  2  1  0  0  0  0
  2  7  1  0  0  0  0
  3  4  1  0  0  0  0
  3  2  2  0  0  0  0
  4  5  2  0  0  0  0
  5  9  1  0  0  0  0
  5  6  1  0  0  0  0
  6 10  1  0  0  0  0
  7  6  2  0  0  0  0
  7 11  1  0  0  0  0
  8  4  1  0  0  0  0
 11 15  1  0  0  0  0
 11 12  1  0  0  0  0
 12 17  1  0  0  0  0
 12 13  1  0  0  0  0
 12 16  1  0  0  0  0
 13 18  1  0  0  0  0
 14 20  1  0  0  0  0
 14 13  1  0  0  0  0
 15 22  1  6  0  0  0
 15 14  1  0  0  0  0
 15 23  1  0  0  0  0
 19 13  1  0  0  0  0
 21 14  1  0  0  0  0
 23 24  1  0  0  0  0
 25 24  1  0  0  0  0
 26 31  1  0  0  0  0
 27 26  2  0  0  0  0
 27 28  1  0  0  0  0
 28 34  1  0  0  0  0
 28 29  2  0  0  0  0
 29 30  1  0  0  0  0
 30  3  1  0  0  0  0
 31 30  2  0  0  0  0
 32 26  1  0  0  0  0
 33 27  1  0  0  0  0
M  END
>  <minimizedAffinity>
-5.05002213

$$$$

 OpenBabel03252505233D

 34 36  0  0  1  0  0  0  0  0999 V2000
   39.1430   29.8210   41.5910 F   0  0  0  0  0  0  0  0  0  0  0  0
   38.0450   29.6900   40.8240 C   0  0  0  0  0  0  0  0  0  0  0  0
   37.7060   30.7120   39.9630 C   0  0  0  0  0  0  0  0  0  0  0  0
   36.5950   30.5690   39.1930 C   0  0  0  0  0  0  0  0  0  0  0  0
   35.8350   29.4130   39.2880 C   0  0  0  0  0  0  0  0  0  0  0  0
   36.1630   28.3890   40.1430 C   0  0  0  0  0  0  0  0  0  0  0  0
   37.3110   28.5480   40.9310 C   0  0  0  0  0  0  0  0  0  0  0  0
   36.3270   31.3700   38.5150 H   0  0  0  0  0  0  0  0  0  0  0  0
   34.9550   29.3330   38.6590 H   0  0  0  0  0  0  0  0  0  0  0  0
   35.5230   27.5170   40.1640 H   0  0  0  0  0  0  0  0  0  0  0  0
   37.5930   27.4580   41.7890 N   0  0  0  0  0  0  0  0  0  0  0  0
   36.7690   26.7450   42.7190 C   0  0  0  0  0  0  0  0  0  0  0  0
   37.0400   25.2750   42.3700 C   0  0  0  0  0  0  0  0  0  0  0  0
   38.3760   25.3170   41.6610 C   0  0  0  0  0  0  0  0  0  0  0  0
   38.8230   26.7220   41.9860 C   0  0  2  0  0  0  0  0  0  0  0  0
   36.8900   26.9770   43.7690 H   0  0  0  0  0  0  0  0  0  0  0  0
   35.6670   26.8630   42.5130 H   0  0  0  0  0  0  0  0  0  0  0  0
   37.2160   24.7660   43.3470 H   0  0  0  0  0  0  0  0  0  0  0  0
   36.2680   24.8290   41.7470 H   0  0  0  0  0  0  0  0  0  0  0  0
   39.1010   24.5900   42.0560 H   0  0  0  0  0  0  0  0  0  0  0  0
   38.2060   25.1840   40.5640 H   0  0  0  0  0  0  0  0  0  0  0  0
   39.6330   27.0110   41.2910 H   0  0  0  0  0  0  0  0  0  0  0  0
   39.3510   26.7860   43.3810 C   0  0  0  0  0  2  0  0  0  0  0  0
   40.6950   27.4770   43.4640 C   0  0  0  0  0  2  0  0  0  0  0  0
   40.5830   28.4470   42.9140 H   0  0  0  0  0  0  0  0  0  0  0  0
   40.4090   33.0120   39.0100 C   0  0  0  0  0  0  0  0  0  0  0  0
   40.1290   34.1600   39.8010 C   0  0  0  0  0  0  0  0  0  0  0  0
   39.0000   34.0930   40.6460 C   0  0  0  0  0  0  0  0  0  0  0  0
   38.2500   32.9580   40.6620 N   0  0  0  0  0  0  0  0  0  0  0  0
   38.5460   31.9040   39.9060 C   0  0  0  0  0  0  0  0  0  0  0  0
   39.6220   31.9320   39.0830 N   0  0  0  0  0  0  0  0  0  0  0  0
   41.2700   33.0700   38.3700 H   0  0  0  0  0  0  0  0  0  0  0  0
   40.7000   35.0580   39.8060 H   0  0  0  0  0  0  0  0  0  0  0  0
   38.6730   34.8750   41.2910 H   0  0  0  0  0  0  0  0  0  0  0  0
  2  7  1  0  0  0  0
  2  1  1  0  0  0  0
  3  2  2  0  0  0  0
  4  5  2  0  0  0  0
  4  3  1  0  0  0  0
  5  6  1  0  0  0  0
  6 10  1  0  0  0  0
  6  7  2  0  0  0  0
  7 11  1  0  0  0  0
  8  4  1  0  0  0  0
  9  5  1  0  0  0  0
 11 15  1  0  0  0  0
 11 12  1  0  0  0  0
 12 16  1  0  0  0  0
 13 12  1  0  0  0  0
 13 18  1  0  0  0  0
 14 15  1  0  0  0  0
 14 20  1  0  0  0  0
 14 13  1  0  0  0  0
 15 22  1  6  0  0  0
 15 23  1  0  0  0  0
 17 12  1  0  0  0  0
 19 13  1  0  0  0  0
 21 14  1  0  0  0  0
 23 24  1  0  0  0  0
 25 24  1  0  0  0  0
 26 31  2  0  0  0  0
 26 27  1  0  0  0  0
 27 33  1  0  0  0  0
 27 28  2  0  0  0  0
 28 29  1  0  0  0  0
 28 34  1  0  0  0  0
 30  3  1  0  0  0  0
 30 29  2  0  0  0  0
 31 30  1  0  0  0  0
 32 26  1  0  0  0  0
M  END
>  <minimizedAffinity>
-5.01975536

$$$$

 OpenBabel03252505233D

 34 36  0  0  1  0  0  0  0  0999 V2000
   40.5640   30.4940   40.0000 F   0  0  0  0  0  0  0  0  0  0  0  0
   39.4310   31.2210   40.0000 C   0  0  0  0  0  0  0  0  0  0  0  0
   39.4800   32.5330   39.5790 C   0  0  0  0  0  0  0  0  0  0  0  0
   38.3300   33.2570   39.5830 C   0  0  0  0  0  0  0  0  0  0  0  0
   37.1460   32.6700   40.0040 C   0  0  0  0  0  0  0  0  0  0  0  0
   37.0860   31.3640   40.4260 C   0  0  0  0  0  0  0  0  0  0  0  0
   38.2790   30.6270   40.4160 C   0  0  0  0  0  0  0  0  0  0  0  0
   38.3650   34.2890   39.2530 H   0  0  0  0  0  0  0  0  0  0  0  0
   36.2490   33.2780   39.9950 H   0  0  0  0  0  0  0  0  0  0  0  0
   36.1290   30.9730   40.7410 H   0  0  0  0  0  0  0  0  0  0  0  0
   38.1480   29.2900   40.8610 N   0  0  0  0  0  0  0  0  0  0  0  0
   38.2370   28.0430   40.1620 C   0  0  0  0  0  0  0  0  0  0  0  0
   39.1790   27.2130   41.0440 C   0  0  0  0  0  0  0  0  0  0  0  0
   39.0820   27.8810   42.3980 C   0  0  0  0  0  0  0  0  0  0  0  0
   37.8810   28.7720   42.1860 C   0  0  2  0  0  0  0  0  0  0  0  0
   37.3080   27.5430   39.9180 H   0  0  0  0  0  0  0  0  0  0  0  0
   38.7970   28.1240   39.1860 H   0  0  0  0  0  0  0  0  0  0  0  0
   38.6880   26.2160   41.1460 H   0  0  0  0  0  0  0  0  0  0  0  0
   40.2030   27.1900   40.6790 H   0  0  0  0  0  0  0  0  0  0  0  0
   38.8870   27.1740   43.2180 H   0  0  0  0  0  0  0  0  0  0  0  0
   40.0100   28.4800   42.5710 H   0  0  0  0  0  0  0  0  0  0  0  0
   37.8650   29.5470   42.9740 H   0  0  0  0  0  0  0  0  0  0  0  0
   36.6230   27.9730   42.2820 C   0  0  0  0  0  2  0  0  0  0  0  0
   36.4090   27.3860   43.6600 C   0  0  0  0  0  2  0  0  0  0  0  0
   36.5340   28.2330   44.3830 H   0  0  0  0  0  0  0  0  0  0  0  0
   42.7730   34.1590   39.6910 C   0  0  0  0  0  0  0  0  0  0  0  0
   43.1620   34.1600   38.3240 C   0  0  0  0  0  0  0  0  0  0  0  0
   42.2580   33.5900   37.4020 C   0  0  0  0  0  0  0  0  0  0  0  0
   41.0810   33.0770   37.8570 N   0  0  0  0  0  0  0  0  0  0  0  0
   40.7550   33.0960   39.1460 C   0  0  0  0  0  0  0  0  0  0  0  0
   41.5980   33.6360   40.0600 N   0  0  0  0  0  0  0  0  0  0  0  0
   43.4660   34.5950   40.3870 H   0  0  0  0  0  0  0  0  0  0  0  0
   44.0750   34.5550   37.9440 H   0  0  0  0  0  0  0  0  0  0  0  0
   42.4180   33.5220   36.3520 H   0  0  0  0  0  0  0  0  0  0  0  0
  2  1  1  0  0  0  0
  2  7  1  0  0  0  0
  3  4  1  0  0  0  0
  3  2  2  0  0  0  0
  4  5  2  0  0  0  0
  5  6  1  0  0  0  0
  6 10  1  0  0  0  0
  7  6  2  0  0  0  0
  7 11  1  0  0  0  0
  8  4  1  0  0  0  0
  9  5  1  0  0  0  0
 11 15  1  0  0  0  0
 12 11  1  0  0  0  0
 12 13  1  0  0  0  0
 13 18  1  0  0  0  0
 13 14  1  0  0  0  0
 14 21  1  0  0  0  0
 14 20  1  0  0  0  0
 15 23  1  0  0  0  0
 15 14  1  0  0  0  0
 15 22  1  1  0  0  0
 16 12  1  0  0  0  0
 17 12  1  0  0  0  0
 19 13  1  0  0  0  0
 23 24  1  0  0  0  0
 24 25  1  0  0  0  0
 26 31  1  0  0  0  0
 26 32  1  0  0  0  0
 27 26  2  0  0  0  0
 28 29  2  0  0  0  0
 28 27  1  0  0  0  0
 29 30  1  0  0  0  0
 30  3  1  0  0  0  0
 30 31  2  0  0  0  0
 33 27  1  0  0  0  0
 34 28  1  0  0  0  0
M  END
>  <minimizedAffinity>
-5.01904202

$$$$

 OpenBabel03252505233D

 34 36  0  0  1  0  0  0  0  0999 V2000
   38.0960   28.4320   39.7110 F   0  0  0  0  0  0  0  0  0  0  0  0
   37.8980   28.2530   41.0300 C   0  0  0  0  0  0  0  0  0  0  0  0
   37.9290   29.3490   41.8650 C   0  0  0  0  0  0  0  0  0  0  0  0
   37.7270   29.1560   43.1960 C   0  0  0  0  0  0  0  0  0  0  0  0
   37.4970   27.8770   43.6800 C   0  0  0  0  0  0  0  0  0  0  0  0
   37.4640   26.7770   42.8560 C   0  0  0  0  0  0  0  0  0  0  0  0
   37.6730   26.9900   41.4860 C   0  0  0  0  0  0  0  0  0  0  0  0
   37.7510   30.0160   43.8540 H   0  0  0  0  0  0  0  0  0  0  0  0
   37.3400   27.7600   44.7460 H   0  0  0  0  0  0  0  0  0  0  0  0
   37.2790   25.8100   43.3030 H   0  0  0  0  0  0  0  0  0  0  0  0
   37.6260   25.8180   40.6950 N   0  0  0  0  0  0  0  0  0  0  0  0
   38.6210   24.8300   40.4010 C   0  0  0  0  0  0  0  0  0  0  0  0
   37.8890   23.5070   40.6620 C   0  0  0  0  0  0  0  0  0  0  0  0
   36.4270   23.8790   40.5470 C   0  0  0  0  0  0  0  0  0  0  0  0
   36.5350   25.2540   39.9300 C   0  0  2  0  0  0  0  0  0  0  0  0
   39.1030   24.8820   39.4330 H   0  0  0  0  0  0  0  0  0  0  0  0
   39.4630   24.8150   41.1520 H   0  0  0  0  0  0  0  0  0  0  0  0
   38.1210   22.8610   39.7820 H   0  0  0  0  0  0  0  0  0  0  0  0
   38.1180   23.0700   41.6310 H   0  0  0  0  0  0  0  0  0  0  0  0
   35.8590   23.2110   39.8830 H   0  0  0  0  0  0  0  0  0  0  0  0
   35.9860   23.9250   41.5730 H   0  0  0  0  0  0  0  0  0  0  0  0
   35.5740   25.7840   40.0640 H   0  0  0  0  0  0  0  0  0  0  0  0
   36.8140   25.1420   38.4670 C   0  0  0  0  0  2  0  0  0  0  0  0
   36.2420   26.2990   37.6750 C   0  0  0  0  0  2  0  0  0  0  0  0
   36.5860   27.2310   38.1920 H   0  0  0  0  0  0  0  0  0  0  0  0
   39.6650   32.4320   40.8730 C   0  0  0  0  0  0  0  0  0  0  0  0
   38.6360   33.1690   40.2260 C   0  0  0  0  0  0  0  0  0  0  0  0
   37.3630   32.5640   40.1570 C   0  0  0  0  0  0  0  0  0  0  0  0
   37.1850   31.3290   40.7010 N   0  0  0  0  0  0  0  0  0  0  0  0
   38.1750   30.6710   41.2980 C   0  0  0  0  0  0  0  0  0  0  0  0
   39.4110   31.2220   41.3840 N   0  0  0  0  0  0  0  0  0  0  0  0
   40.6320   32.8990   40.9220 H   0  0  0  0  0  0  0  0  0  0  0  0
   38.7500   34.1360   39.7940 H   0  0  0  0  0  0  0  0  0  0  0  0
   36.5030   32.9990   39.7040 H   0  0  0  0  0  0  0  0  0  0  0  0
  1  2  1  0  0  0  0
  2  7  2  0  0  0  0
  2  3  1  0  0  0  0
  3  4  2  0  0  0  0
  4  5  1  0  0  0  0
  4  8  1  0  0  0  0
  5  9  1  0  0  0  0
  6 10  1  0  0  0  0
  6  5  2  0  0  0  0
  7  6  1  0  0  0  0
 11  7  1  0  0  0  0
 12 13  1  0  0  0  0
 12 11  1  0  0  0  0
 12 17  1  0  0  0  0
 13 19  1  0  0  0  0
 14 13  1  0  0  0  0
 14 21  1  0  0  0  0
 15 22  1  1  0  0  0
 15 14  1  0  0  0  0
 15 11  1  0  0  0  0
 16 12  1  0  0  0  0
 18 13  1  0  0  0  0
 20 14  1  0  0  0  0
 23 15  1  0  0  0  0
 24 25  1  0  0  0  0
 24 23  1  0  0  0  0
 26 32  1  0  0  0  0
 26 31  1  0  0  0  0
 27 26  2  0  0  0  0
 28 27  1  0  0  0  0
 28 29  2  0  0  0  0
 29 30  1  0  0  0  0
 30 31  2  0  0  0  0
 30  3  1  0  0  0  0
 33 27  1  0  0  0  0
 34 28  1  0  0  0  0
M  END
>  <minimizedAffinity>
-4.98819208

$$$$

 OpenBabel03252505233D

 34 36  0  0  1  0  0  0  0  0999 V2000
   37.9440   28.3740   39.6520 F   0  0  0  0  0  0  0  0  0  0  0  0
   37.6700   28.1190   40.9450 C   0  0  0  0  0  0  0  0  0  0  0  0
   37.7260   29.1520   41.8560 C   0  0  0  0  0  0  0  0  0  0  0  0
   37.4480   28.8830   43.1590 C   0  0  0  0  0  0  0  0  0  0  0  0
   37.1160   27.5910   43.5410 C   0  0  0  0  0  0  0  0  0  0  0  0
   37.0570   26.5540   42.6410 C   0  0  0  0  0  0  0  0  0  0  0  0
   37.3460   26.8450   41.3010 C   0  0  0  0  0  0  0  0  0  0  0  0
   37.4910   29.6930   43.8770 H   0  0  0  0  0  0  0  0  0  0  0  0
   36.9000   27.4140   44.5880 H   0  0  0  0  0  0  0  0  0  0  0  0
   36.7920   25.5730   43.0110 H   0  0  0  0  0  0  0  0  0  0  0  0
   37.2670   25.7340   40.4280 N   0  0  0  0  0  0  0  0  0  0  0  0
   36.3630   25.4280   39.3600 C   0  0  0  0  0  0  0  0  0  0  0  0
   37.2990   25.0200   38.2140 C   0  0  0  0  0  0  0  0  0  0  0  0
   38.5760   24.6240   38.9210 C   0  0  0  0  0  0  0  0  0  0  0  0
   38.0950   24.5500   40.3510 C   0  0  2  0  0  0  0  0  0  0  0  0
   35.5780   24.7090   39.5630 H   0  0  0  0  0  0  0  0  0  0  0  0
   35.8350   26.3380   38.9540 H   0  0  0  0  0  0  0  0  0  0  0  0
   36.8640   24.0810   37.7960 H   0  0  0  0  0  0  0  0  0  0  0  0
   37.4680   25.8140   37.4920 H   0  0  0  0  0  0  0  0  0  0  0  0
   38.9640   23.6450   38.6030 H   0  0  0  0  0  0  0  0  0  0  0  0
   39.3300   25.4380   38.7850 H   0  0  0  0  0  0  0  0  0  0  0  0
   38.9710   24.5720   41.0260 H   0  0  0  0  0  0  0  0  0  0  0  0
   37.3530   23.2750   40.5800 C   0  0  0  0  0  2  0  0  0  0  0  0
   38.1740   22.0520   40.2330 C   0  0  0  0  0  2  0  0  0  0  0  0
   39.1550   22.1740   40.7600 H   0  0  0  0  0  0  0  0  0  0  0  0
   39.6860   32.1880   41.1890 C   0  0  0  0  0  0  0  0  0  0  0  0
   38.7450   33.0210   40.5230 C   0  0  0  0  0  0  0  0  0  0  0  0
   37.4510   32.4920   40.3270 C   0  0  0  0  0  0  0  0  0  0  0  0
   37.1710   31.2380   40.7760 N   0  0  0  0  0  0  0  0  0  0  0  0
   38.0800   30.4900   41.3950 C   0  0  0  0  0  0  0  0  0  0  0  0
   39.3330   30.9650   41.6010 N   0  0  0  0  0  0  0  0  0  0  0  0
   40.6690   32.5960   41.3350 H   0  0  0  0  0  0  0  0  0  0  0  0
   38.9400   34.0040   40.1640 H   0  0  0  0  0  0  0  0  0  0  0  0
   36.6500   33.0030   39.8450 H   0  0  0  0  0  0  0  0  0  0  0  0
  1  2  1  0  0  0  0
  2  7  2  0  0  0  0
  2  3  1  0  0  0  0
  3  4  2  0  0  0  0
  4  5  1  0  0  0  0
  4  8  1  0  0  0  0
  5  9  1  0  0  0  0
  6 10  1  0  0  0  0
  6  5  2  0  0  0  0
  7  6  1  0  0  0  0
 11  7  1  0  0  0  0
 12 16  1  0  0  0  0
 12 11  1  0  0  0  0
 13 14  1  0  0  0  0
 13 12  1  0  0  0  0
 14 15  1  0  0  0  0
 15 11  1  0  0  0  0
 15 23  1  0  0  0  0
 15 22  1  1  0  0  0
 17 12  1  0  0  0  0
 18 13  1  0  0  0  0
 19 13  1  0  0  0  0
 20 14  1  0  0  0  0
 21 14  1  0  0  0  0
 24 23  1  0  0  0  0
 24 25  1  0  0  0  0
 26 32  1  0  0  0  0
 26 31  1  0  0  0  0
 27 26  2  0  0  0  0
 28 27  1  0  0  0  0
 28 29  2  0  0  0  0
 29 30  1  0  0  0  0
 30 31  2  0  0  0  0
 30  3  1  0  0  0  0
 33 27  1  0  0  0  0
 34 28  1  0  0  0  0
M  END
>  <minimizedAffinity>
-4.92598438

$$$$

 OpenBabel03252505233D

 34 36  0  0  1  0  0  0  0  0999 V2000
   38.2530   27.4720   39.5680 F   0  0  0  0  0  0  0  0  0  0  0  0
   37.9810   27.7700   40.8520 C   0  0  0  0  0  0  0  0  0  0  0  0
   37.6560   26.7510   41.7200 C   0  0  0  0  0  0  0  0  0  0  0  0
   37.3830   27.0640   43.0140 C   0  0  0  0  0  0  0  0  0  0  0  0
   37.4370   28.3850   43.4300 C   0  0  0  0  0  0  0  0  0  0  0  0
   37.7600   29.4100   42.5730 C   0  0  0  0  0  0  0  0  0  0  0  0
   38.0400   29.0740   41.2420 C   0  0  0  0  0  0  0  0  0  0  0  0
   37.1270   26.2640   43.6990 H   0  0  0  0  0  0  0  0  0  0  0  0
   37.2140   28.5980   44.4700 H   0  0  0  0  0  0  0  0  0  0  0  0
   37.7830   30.4170   42.9680 H   0  0  0  0  0  0  0  0  0  0  0  0
   38.3660   30.1740   40.4130 N   0  0  0  0  0  0  0  0  0  0  0  0
   39.6050   30.5850   39.8240 C   0  0  0  0  0  0  0  0  0  0  0  0
   39.2260   30.8490   38.3600 C   0  0  0  0  0  0  0  0  0  0  0  0
   37.7320   31.0780   38.4140 C   0  0  0  0  0  0  0  0  0  0  0  0
   37.5250   31.2350   39.9010 C   0  0  2  0  0  0  0  0  0  0  0  0
   40.1310   31.4060   40.2960 H   0  0  0  0  0  0  0  0  0  0  0  0
   40.3590   29.7490   39.7530 H   0  0  0  0  0  0  0  0  0  0  0  0
   39.6890   31.8320   38.1070 H   0  0  0  0  0  0  0  0  0  0  0  0
   39.4840   30.0290   37.6940 H   0  0  0  0  0  0  0  0  0  0  0  0
   37.4140   31.9920   37.8900 H   0  0  0  0  0  0  0  0  0  0  0  0
   37.2140   30.1680   38.0210 H   0  0  0  0  0  0  0  0  0  0  0  0
   36.4510   31.1030   40.1300 H   0  0  0  0  0  0  0  0  0  0  0  0
   37.9380   32.6010   40.3390 C   0  0  0  0  0  2  0  0  0  0  0  0
   37.2700   33.6970   39.5370 C   0  0  0  0  0  2  0  0  0  0  0  0
   36.1740   33.4670   39.5460 H   0  0  0  0  0  0  0  0  0  0  0  0
   38.7090   23.3330   40.8730 C   0  0  0  0  0  0  0  0  0  0  0  0
   37.5350   22.7860   40.2890 C   0  0  0  0  0  0  0  0  0  0  0  0
   36.4070   23.6310   40.2090 C   0  0  0  0  0  0  0  0  0  0  0  0
   36.4960   24.9030   40.6850 N   0  0  0  0  0  0  0  0  0  0  0  0
   37.6150   25.3780   41.2250 C   0  0  0  0  0  0  0  0  0  0  0  0
   38.7180   24.5950   41.3180 N   0  0  0  0  0  0  0  0  0  0  0  0
   39.5640   22.6850   40.9310 H   0  0  0  0  0  0  0  0  0  0  0  0
   37.4410   21.7960   39.9090 H   0  0  0  0  0  0  0  0  0  0  0  0
   35.4650   23.3540   39.7980 H   0  0  0  0  0  0  0  0  0  0  0  0
  1  2  1  0  0  0  0
  2  7  2  0  0  0  0
  2  3  1  0  0  0  0
  3  4  2  0  0  0  0
  4  5  1  0  0  0  0
  4  8  1  0  0  0  0
  5  9  1  0  0  0  0
  6 10  1  0  0  0  0
  6  5  2  0  0  0  0
  7  6  1  0  0  0  0
 11  7  1  0  0  0  0
 12 16  1  0  0  0  0
 12 11  1  0  0  0  0
 13 14  1  0  0  0  0
 13 12  1  0  0  0  0
 14 15  1  0  0  0  0
 15 22  1  1  0  0  0
 15 23  1  0  0  0  0
 15 11  1  0  0  0  0
 17 12  1  0  0  0  0
 18 13  1  0  0  0  0
 19 13  1  0  0  0  0
 20 14  1  0  0  0  0
 21 14  1  0  0  0  0
 24 25  1  0  0  0  0
 24 23  1  0  0  0  0
 26 32  1  0  0  0  0
 26 31  1  0  0  0  0
 27 26  2  0  0  0  0
 28 27  1  0  0  0  0
 28 29  2  0  0  0  0
 29 30  1  0  0  0  0
 30 31  2  0  0  0  0
 30  3  1  0  0  0  0
 33 27  1  0  0  0  0
 34 28  1  0  0  0  0
M  END
>  <minimizedAffinity>
-4.91286516

$$$$

 OpenBabel03252505233D

 34 36  0  0  1  0  0  0  0  0999 V2000
   40.2940   29.0530   40.3090 F   0  0  0  0  0  0  0  0  0  0  0  0
   39.1000   29.4110   39.8020 C   0  0  0  0  0  0  0  0  0  0  0  0
   39.0590   30.0860   38.6010 C   0  0  0  0  0  0  0  0  0  0  0  0
   37.8480   30.4430   38.0980 C   0  0  0  0  0  0  0  0  0  0  0  0
   36.6920   30.1250   38.7950 C   0  0  0  0  0  0  0  0  0  0  0  0
   36.7200   29.4530   39.9930 C   0  0  0  0  0  0  0  0  0  0  0  0
   37.9760   29.0900   40.5000 C   0  0  0  0  0  0  0  0  0  0  0  0
   37.8130   30.9740   37.1540 H   0  0  0  0  0  0  0  0  0  0  0  0
   35.7430   30.4250   38.3640 H   0  0  0  0  0  0  0  0  0  0  0  0
   35.7790   29.2390   40.4800 H   0  0  0  0  0  0  0  0  0  0  0  0
   37.9350   28.4010   41.7360 N   0  0  0  0  0  0  0  0  0  0  0  0
   37.2960   28.7170   42.9780 C   0  0  0  0  0  0  0  0  0  0  0  0
   36.5750   27.4130   43.3440 C   0  0  0  0  0  0  0  0  0  0  0  0
   37.3230   26.3590   42.5560 C   0  0  0  0  0  0  0  0  0  0  0  0
   38.5380   27.1430   42.1210 C   0  0  2  0  0  0  0  0  0  0  0  0
   37.9200   29.1120   43.7710 H   0  0  0  0  0  0  0  0  0  0  0  0
   36.4540   29.4590   42.8650 H   0  0  0  0  0  0  0  0  0  0  0  0
   36.8130   27.2330   44.4190 H   0  0  0  0  0  0  0  0  0  0  0  0
   35.5160   27.4220   43.0990 H   0  0  0  0  0  0  0  0  0  0  0  0
   37.6290   25.4970   43.1660 H   0  0  0  0  0  0  0  0  0  0  0  0
   36.6980   26.0530   41.6810 H   0  0  0  0  0  0  0  0  0  0  0  0
   39.0290   26.6090   41.2870 H   0  0  0  0  0  0  0  0  0  0  0  0
   39.5100   27.2570   43.2490 C   0  0  0  0  0  2  0  0  0  0  0  0
   40.0620   25.9150   43.6790 C   0  0  0  0  0  2  0  0  0  0  0  0
   40.4200   25.4100   42.7450 H   0  0  0  0  0  0  0  0  0  0  0  0
   42.1520   29.6540   36.6640 C   0  0  0  0  0  0  0  0  0  0  0  0
   42.6710   30.9760   36.6140 C   0  0  0  0  0  0  0  0  0  0  0  0
   41.9200   31.9820   37.2600 C   0  0  0  0  0  0  0  0  0  0  0  0
   40.7600   31.6440   37.8880 N   0  0  0  0  0  0  0  0  0  0  0  0
   40.3090   30.3930   37.9130 C   0  0  0  0  0  0  0  0  0  0  0  0
   41.0040   29.4010   37.3030 N   0  0  0  0  0  0  0  0  0  0  0  0
   42.7290   28.8930   36.1700 H   0  0  0  0  0  0  0  0  0  0  0  0
   43.5740   31.2650   36.1300 H   0  0  0  0  0  0  0  0  0  0  0  0
   42.1870   33.0120   37.3020 H   0  0  0  0  0  0  0  0  0  0  0  0
  2  1  1  0  0  0  0
  2  7  1  0  0  0  0
  3  2  2  0  0  0  0
  4  3  1  0  0  0  0
  4  5  2  0  0  0  0
  5  6  1  0  0  0  0
  6 10  1  0  0  0  0
  6  7  2  0  0  0  0
  7 11  1  0  0  0  0
  8  4  1  0  0  0  0
  9  5  1  0  0  0  0
 11 15  1  0  0  0  0
 11 12  1  0  0  0  0
 12 13  1  0  0  0  0
 12 16  1  0  0  0  0
 13 18  1  0  0  0  0
 14 20  1  0  0  0  0
 14 13  1  0  0  0  0
 15 22  1  6  0  0  0
 15 14  1  0  0  0  0
 15 23  1  0  0  0  0
 17 12  1  0  0  0  0
 19 13  1  0  0  0  0
 21 14  1  0  0  0  0
 23 24  1  0  0  0  0
 25 24  1  0  0  0  0
 26 31  1  0  0  0  0
 27 26  2  0  0  0  0
 27 28  1  0  0  0  0
 28 34  1  0  0  0  0
 28 29  2  0  0  0  0
 29 30  1  0  0  0  0
 30  3  1  0  0  0  0
 31 30  2  0  0  0  0
 32 26  1  0  0  0  0
 33 27  1  0  0  0  0
M  END
>  <minimizedAffinity>
-4.88380194

$$$$

 OpenBabel03252505233D

 34 36  0  0  1  0  0  0  0  0999 V2000
   39.5840   29.3710   39.5160 F   0  0  0  0  0  0  0  0  0  0  0  0
   38.4910   30.0440   39.9200 C   0  0  0  0  0  0  0  0  0  0  0  0
   38.4320   31.4060   39.7180 C   0  0  0  0  0  0  0  0  0  0  0  0
   37.3230   32.0760   40.1290 C   0  0  0  0  0  0  0  0  0  0  0  0
   36.2860   31.3840   40.7360 C   0  0  0  0  0  0  0  0  0  0  0  0
   36.3330   30.0260   40.9420 C   0  0  0  0  0  0  0  0  0  0  0  0
   37.4820   29.3480   40.5130 C   0  0  0  0  0  0  0  0  0  0  0  0
   37.2750   33.1470   39.9710 H   0  0  0  0  0  0  0  0  0  0  0  0
   35.4170   31.9500   41.0510 H   0  0  0  0  0  0  0  0  0  0  0  0
   35.4870   29.5540   41.4220 H   0  0  0  0  0  0  0  0  0  0  0  0
   37.4670   27.9530   40.7550 N   0  0  0  0  0  0  0  0  0  0  0  0
   36.8440   26.8740   40.0490 C   0  0  0  0  0  0  0  0  0  0  0  0
   37.9770   25.8470   39.9090 C   0  0  0  0  0  0  0  0  0  0  0  0
   38.9410   26.2280   41.0110 C   0  0  0  0  0  0  0  0  0  0  0  0
   38.0900   27.1850   41.8110 C   0  0  2  0  0  0  0  0  0  0  0  0
   35.9320   26.4670   40.4670 H   0  0  0  0  0  0  0  0  0  0  0  0
   36.5930   27.1320   38.9810 H   0  0  0  0  0  0  0  0  0  0  0  0
   37.5290   24.8690   40.2040 H   0  0  0  0  0  0  0  0  0  0  0  0
   38.4550   25.8630   38.9330 H   0  0  0  0  0  0  0  0  0  0  0  0
   39.2420   25.3760   41.6390 H   0  0  0  0  0  0  0  0  0  0  0  0
   39.8220   26.7450   40.5560 H   0  0  0  0  0  0  0  0  0  0  0  0
   38.7460   27.7830   42.4710 H   0  0  0  0  0  0  0  0  0  0  0  0
   37.1240   26.4290   42.6630 C   0  0  0  0  0  2  0  0  0  0  0  0
   36.4100   27.3150   43.6610 C   0  0  0  0  0  2  0  0  0  0  0  0
   36.0080   28.1830   43.0780 H   0  0  0  0  0  0  0  0  0  0  0  0
   40.9290   32.3490   37.1910 C   0  0  0  0  0  0  0  0  0  0  0  0
   41.6770   33.3560   37.8590 C   0  0  0  0  0  0  0  0  0  0  0  0
   41.2840   33.6760   39.1760 C   0  0  0  0  0  0  0  0  0  0  0  0
   40.2300   33.0180   39.7330 N   0  0  0  0  0  0  0  0  0  0  0  0
   39.5550   32.0800   39.0730 C   0  0  0  0  0  0  0  0  0  0  0  0
   39.9040   31.7470   37.8060 N   0  0  0  0  0  0  0  0  0  0  0  0
   41.2330   32.1110   36.1880 H   0  0  0  0  0  0  0  0  0  0  0  0
   42.5040   33.8830   37.4460 H   0  0  0  0  0  0  0  0  0  0  0  0
   41.7520   34.4070   39.7930 H   0  0  0  0  0  0  0  0  0  0  0  0
  1  2  1  0  0  0  0
  2  7  1  0  0  0  0
  3  2  2  0  0  0  0
  3  4  1  0  0  0  0
  4  5  2  0  0  0  0
  5  6  1  0  0  0  0
  5  9  1  0  0  0  0
  6 10  1  0  0  0  0
  7 11  1  0  0  0  0
  7  6  2  0  0  0  0
  8  4  1  0  0  0  0
 11 15  1  0  0  0  0
 12 16  1  0  0  0  0
 12 11  1  0  0  0  0
 13 12  1  0  0  0  0
 13 18  1  0  0  0  0
 13 14  1  0  0  0  0
 14 20  1  0  0  0  0
 14 15  1  0  0  0  0
 15 22  1  1  0  0  0
 15 23  1  0  0  0  0
 17 12  1  0  0  0  0
 19 13  1  0  0  0  0
 21 14  1  0  0  0  0
 23 24  1  0  0  0  0
 25 24  1  0  0  0  0
 26 31  2  0  0  0  0
 26 27  1  0  0  0  0
 27 28  2  0  0  0  0
 28 29  1  0  0  0  0
 28 34  1  0  0  0  0
 30  3  1  0  0  0  0
 30 29  2  0  0  0  0
 31 30  1  0  0  0  0
 32 26  1  0  0  0  0
 33 27  1  0  0  0  0
M  END
>  <minimizedAffinity>
-4.87390375

$$$$
