
 OpenBabel03252509203D

 19 20  0  0  0  0  0  0  0  0999 V2000
   45.2750   34.3740   44.6180 C   0  0  0  0  0  0  0  0  0  0  0  0
   45.6870   35.0000   43.4270 C   0  0  0  0  0  0  0  0  0  0  0  0
   46.8970   34.5210   42.9250 C   0  0  0  0  0  0  0  0  0  0  0  0
   47.5930   33.5170   43.5780 N   0  0  0  0  0  0  0  0  0  0  0  0
   47.1420   32.9610   44.7110 C   0  0  0  0  0  0  0  0  0  0  0  0
   45.9680   33.4050   45.2270 N   0  0  0  0  0  0  0  0  0  0  0  0
   44.3270   34.7000   45.0760 H   0  0  0  0  0  0  0  0  0  0  0  0
   47.7960   32.2080   45.0790 H   0  0  0  0  0  0  0  0  0  0  0  0
   47.3730   35.0670   41.5980 C   0  0  0  0  0  0  0  0  0  0  0  0
   48.8050   35.6190   41.7300 C   0  0  0  0  0  0  0  0  0  0  0  0
   48.4070   34.3520   40.9050 C   0  0  0  0  0  0  0  0  0  0  0  0
   46.7580   35.8780   41.1550 H   0  0  0  0  0  0  0  0  0  0  0  0
   49.3430   35.4180   42.6710 H   0  0  0  0  0  0  0  0  0  0  0  0
   49.0860   36.4940   41.1220 H   0  0  0  0  0  0  0  0  0  0  0  0
   48.5860   34.4380   39.8040 H   0  0  0  0  0  0  0  0  0  0  0  0
   48.7670   33.3770   41.3490 H   0  0  0  0  0  0  0  0  0  0  0  0
   44.9120   36.0540   42.7820 C   0  0  0  0  0  2  0  0  0  0  0  0
   43.8110   35.6010   41.8860 C   0  0  0  0  0  2  0  0  0  0  0  0
   43.7710   34.5030   41.7290 H   0  0  0  0  0  0  0  0  0  0  0  0
  1  7  1  0  0  0  0
  1  6  1  0  0  0  0
  2  1  2  0  0  0  0
  3  2  1  0  0  0  0
  3  4  2  0  0  0  0
  4  5  1  0  0  0  0
  5  8  1  0  0  0  0
  5  6  2  0  0  0  0
  9 10  1  0  0  0  0
  9  3  1  0  0  0  0
 10 13  1  0  0  0  0
 11 16  1  0  0  0  0
 11  9  1  0  0  0  0
 11 10  1  0  0  0  0
 12  9  1  0  0  0  0
 14 10  1  0  0  0  0
 15 11  1  0  0  0  0
 17  2  1  0  0  0  0
 18 17  1  0  0  0  0
 19 18  1  0  0  0  0
M  END
>  <minimizedAffinity>
-3.93499517

>  <minimizedRMSD>
1.30601895

$$$$
