
 OpenBabel03252506193D

 17 17  0  0  0  0  0  0  0  0999 V2000
   36.8300   30.8360   40.7330 C   0  0  0  0  0  0  0  0  0  0  0  0
   35.7860   30.1060   40.1360 C   0  0  0  0  0  0  0  0  0  0  0  0
   35.4990   28.8250   40.6530 C   0  0  0  0  0  0  0  0  0  0  0  0
   36.2490   28.3690   41.7010 N   0  0  0  0  0  0  0  0  0  0  0  0
   37.2550   29.1180   42.2460 C   0  0  0  0  0  0  0  0  0  0  0  0
   37.5260   30.3440   41.7480 N   0  0  0  0  0  0  0  0  0  0  0  0
   35.2050   30.4780   39.3120 H   0  0  0  0  0  0  0  0  0  0  0  0
   34.7160   28.2140   40.2460 H   0  0  0  0  0  0  0  0  0  0  0  0
   37.1120   32.1560   40.1950 C   0  0  0  0  0  3  0  0  0  0  0  0
   38.1800   32.8100   40.5940 C   0  0  0  0  0  3  0  0  0  0  0  0
   38.5440   34.1510   40.0970 C   0  0  0  0  0  0  0  0  0  0  0  0
   37.7050   34.8320   40.3900 H   0  0  0  0  0  0  0  0  0  0  0  0
   39.4780   34.4930   40.5370 H   0  0  0  0  0  0  0  0  0  0  0  0
   38.5880   34.1590   38.9790 H   0  0  0  0  0  0  0  0  0  0  0  0
   38.0550   28.5980   43.3860 C   0  0  0  0  0  2  0  0  0  0  0  0
   38.1910   27.0990   43.1840 C   0  0  0  0  0  2  0  0  0  0  0  0
   39.0400   26.6630   43.7120 H   0  0  0  0  0  0  0  0  0  0  0  0
  1  6  1  0  0  0  0
  2  3  1  0  0  0  0
  2  1  2  0  0  0  0
  3  4  2  0  0  0  0
  4  5  1  0  0  0  0
  5 15  1  0  0  0  0
  6  5  2  0  0  0  0
  7  2  1  0  0  0  0
  8  3  1  0  0  0  0
  9 10  2  0  0  0  0
  9  1  1  0  0  0  0
 11 12  1  0  0  0  0
 11 13  1  0  0  0  0
 11 10  1  0  0  0  0
 14 11  1  0  0  0  0
 16 15  1  0  0  0  0
 16 17  1  0  0  0  0
M  END
>  <minimizedAffinity>
-3.83307242

$$$$

 OpenBabel03252506193D

 17 17  0  0  0  0  0  0  0  0999 V2000
   37.5020   29.1170   42.0500 C   0  0  0  0  0  0  0  0  0  0  0  0
   36.3950   28.3560   41.6280 C   0  0  0  0  0  0  0  0  0  0  0  0
   35.5120   28.9390   40.6950 C   0  0  0  0  0  0  0  0  0  0  0  0
   35.7810   30.2050   40.2560 N   0  0  0  0  0  0  0  0  0  0  0  0
   36.8700   30.9040   40.6960 C   0  0  0  0  0  0  0  0  0  0  0  0
   37.7130   30.3420   41.5900 N   0  0  0  0  0  0  0  0  0  0  0  0
   36.1980   27.3620   41.9840 H   0  0  0  0  0  0  0  0  0  0  0  0
   34.6490   28.4140   40.3320 H   0  0  0  0  0  0  0  0  0  0  0  0
   38.4070   28.5040   43.0060 C   0  0  0  0  0  3  0  0  0  0  0  0
   38.9000   27.3100   42.7660 C   0  0  0  0  0  3  0  0  0  0  0  0
   39.8290   26.6160   43.6800 C   0  0  0  0  0  0  0  0  0  0  0  0
   39.2730   26.4730   44.6420 H   0  0  0  0  0  0  0  0  0  0  0  0
   40.1320   25.6530   43.2740 H   0  0  0  0  0  0  0  0  0  0  0  0
   40.7120   27.2630   43.9120 H   0  0  0  0  0  0  0  0  0  0  0  0
   37.1380   32.2800   40.2020 C   0  0  0  0  0  2  0  0  0  0  0  0
   37.3660   32.1750   38.7030 C   0  0  0  0  0  2  0  0  0  0  0  0
   37.2000   33.1130   38.1710 H   0  0  0  0  0  0  0  0  0  0  0  0
  1  9  1  0  0  0  0
  2  7  1  0  0  0  0
  2  1  1  0  0  0  0
  3  2  2  0  0  0  0
  4  3  1  0  0  0  0
  4  5  2  0  0  0  0
  5  6  1  0  0  0  0
  6  1  2  0  0  0  0
  8  3  1  0  0  0  0
 10  9  2  0  0  0  0
 10 11  1  0  0  0  0
 11 14  1  0  0  0  0
 11 12  1  0  0  0  0
 13 11  1  0  0  0  0
 15  5  1  0  0  0  0
 16 15  1  0  0  0  0
 17 16  1  0  0  0  0
M  END
>  <minimizedAffinity>
-3.8041153

$$$$

 OpenBabel03252506193D

 17 17  0  0  0  0  0  0  0  0999 V2000
   35.7290   29.5320   40.4200 C   0  0  0  0  0  0  0  0  0  0  0  0
   36.4050   30.7080   40.0430 C   0  0  0  0  0  0  0  0  0  0  0  0
   37.5380   31.0850   40.7950 C   0  0  0  0  0  0  0  0  0  0  0  0
   37.9110   30.2910   41.8420 N   0  0  0  0  0  0  0  0  0  0  0  0
   37.2200   29.1580   42.1690 C   0  0  0  0  0  0  0  0  0  0  0  0
   36.1360   28.7990   41.4460 N   0  0  0  0  0  0  0  0  0  0  0  0
   36.0990   31.3220   39.2170 H   0  0  0  0  0  0  0  0  0  0  0  0
   38.1000   31.9690   40.5620 H   0  0  0  0  0  0  0  0  0  0  0  0
   34.5680   29.1510   39.6340 C   0  0  0  0  0  3  0  0  0  0  0  0
   34.6850   28.9790   38.3370 C   0  0  0  0  0  3  0  0  0  0  0  0
   33.5600   28.5870   37.4650 C   0  0  0  0  0  0  0  0  0  0  0  0
   32.8010   29.4080   37.5450 H   0  0  0  0  0  0  0  0  0  0  0  0
   33.8840   28.4750   36.4320 H   0  0  0  0  0  0  0  0  0  0  0  0
   33.0690   27.6570   37.8470 H   0  0  0  0  0  0  0  0  0  0  0  0
   37.6480   28.3120   43.3130 C   0  0  0  0  0  2  0  0  0  0  0  0
   36.5000   27.3640   43.6180 C   0  0  0  0  0  2  0  0  0  0  0  0
   36.8070   26.4670   44.1580 H   0  0  0  0  0  0  0  0  0  0  0  0
  1  6  1  0  0  0  0
  2  1  2  0  0  0  0
  2  3  1  0  0  0  0
  3  4  2  0  0  0  0
  4  5  1  0  0  0  0
  5 15  1  0  0  0  0
  6  5  2  0  0  0  0
  7  2  1  0  0  0  0
  8  3  1  0  0  0  0
  9  1  1  0  0  0  0
 10  9  2  0  0  0  0
 11 12  1  0  0  0  0
 11 14  1  0  0  0  0
 11 10  1  0  0  0  0
 13 11  1  0  0  0  0
 15 16  1  0  0  0  0
 16 17  1  0  0  0  0
M  END
>  <minimizedAffinity>
-3.8017292

$$$$

 OpenBabel03252506193D

 17 17  0  0  0  0  0  0  0  0999 V2000
   37.4820   28.3160   42.3330 C   0  0  0  0  0  0  0  0  0  0  0  0
   38.6950   28.6920   42.9390 C   0  0  0  0  0  0  0  0  0  0  0  0
   39.2070   29.9740   42.6500 C   0  0  0  0  0  0  0  0  0  0  0  0
   38.4970   30.7750   41.8000 N   0  0  0  0  0  0  0  0  0  0  0  0
   37.3220   30.3640   41.2350 C   0  0  0  0  0  0  0  0  0  0  0  0
   36.8350   29.1350   41.5150 N   0  0  0  0  0  0  0  0  0  0  0  0
   39.2410   28.0500   43.6050 H   0  0  0  0  0  0  0  0  0  0  0  0
   40.1260   30.3250   43.0780 H   0  0  0  0  0  0  0  0  0  0  0  0
   36.9620   26.9960   42.6430 C   0  0  0  0  0  3  0  0  0  0  0  0
   37.3070   25.9670   41.9020 C   0  0  0  0  0  3  0  0  0  0  0  0
   36.8300   24.5920   42.1490 C   0  0  0  0  0  0  0  0  0  0  0  0
   35.7160   24.6220   42.0390 H   0  0  0  0  0  0  0  0  0  0  0  0
   37.2600   23.8930   41.4340 H   0  0  0  0  0  0  0  0  0  0  0  0
   37.0410   24.2840   43.2040 H   0  0  0  0  0  0  0  0  0  0  0  0
   36.5700   31.2560   40.3140 C   0  0  0  0  0  2  0  0  0  0  0  0
   37.4180   32.4990   40.1110 C   0  0  0  0  0  2  0  0  0  0  0  0
   37.1790   33.0460   39.1970 H   0  0  0  0  0  0  0  0  0  0  0  0
  1  9  1  0  0  0  0
  1  2  1  0  0  0  0
  2  7  1  0  0  0  0
  3  2  2  0  0  0  0
  3  8  1  0  0  0  0
  4  3  1  0  0  0  0
  5  6  1  0  0  0  0
  5  4  2  0  0  0  0
  6  1  2  0  0  0  0
 10 11  1  0  0  0  0
 10  9  2  0  0  0  0
 11 14  1  0  0  0  0
 12 11  1  0  0  0  0
 13 11  1  0  0  0  0
 15  5  1  0  0  0  0
 16 15  1  0  0  0  0
 17 16  1  0  0  0  0
M  END
>  <minimizedAffinity>
-3.78936839

$$$$

 OpenBabel03252506193D

 17 17  0  0  0  0  0  0  0  0999 V2000
   37.1680   26.8960   42.2270 C   0  0  0  0  0  0  0  0  0  0  0  0
   37.9860   27.4360   43.2380 C   0  0  0  0  0  0  0  0  0  0  0  0
   38.0810   28.8410   43.3280 C   0  0  0  0  0  0  0  0  0  0  0  0
   37.3750   29.5940   42.4320 N   0  0  0  0  0  0  0  0  0  0  0  0
   36.5940   29.0210   41.4670 C   0  0  0  0  0  0  0  0  0  0  0  0
   36.5060   27.6750   41.3850 N   0  0  0  0  0  0  0  0  0  0  0  0
   38.5350   26.8300   43.9340 H   0  0  0  0  0  0  0  0  0  0  0  0
   38.6860   29.3190   44.0740 H   0  0  0  0  0  0  0  0  0  0  0  0
   37.0740   25.4490   42.1490 C   0  0  0  0  0  3  0  0  0  0  0  0
   37.6930   24.8060   41.1840 C   0  0  0  0  0  3  0  0  0  0  0  0
   37.6550   23.3380   41.0320 C   0  0  0  0  0  0  0  0  0  0  0  0
   36.5800   23.0680   40.8680 H   0  0  0  0  0  0  0  0  0  0  0  0
   38.2570   23.0150   40.1850 H   0  0  0  0  0  0  0  0  0  0  0  0
   37.9720   22.8340   41.9790 H   0  0  0  0  0  0  0  0  0  0  0  0
   35.8360   29.8640   40.5050 C   0  0  0  0  0  2  0  0  0  0  0  0
   36.5280   31.2160   40.4610 C   0  0  0  0  0  2  0  0  0  0  0  0
   36.3210   31.7820   39.5520 H   0  0  0  0  0  0  0  0  0  0  0  0
  1  2  1  0  0  0  0
  2  3  2  0  0  0  0
  2  7  1  0  0  0  0
  3  8  1  0  0  0  0
  4  3  1  0  0  0  0
  5  4  2  0  0  0  0
  6  5  1  0  0  0  0
  6  1  2  0  0  0  0
  9  1  1  0  0  0  0
 10  9  2  0  0  0  0
 11 10  1  0  0  0  0
 11 14  1  0  0  0  0
 12 11  1  0  0  0  0
 13 11  1  0  0  0  0
 15  5  1  0  0  0  0
 16 15  1  0  0  0  0
 17 16  1  0  0  0  0
M  END
>  <minimizedAffinity>
-3.75941563

$$$$

 OpenBabel03252506193D

 17 17  0  0  0  0  0  0  0  0999 V2000
   36.5830   28.9790   41.5710 C   0  0  0  0  0  0  0  0  0  0  0  0
   36.5900   27.7850   42.3160 C   0  0  0  0  0  0  0  0  0  0  0  0
   37.6680   27.5660   43.1990 C   0  0  0  0  0  0  0  0  0  0  0  0
   38.6410   28.5220   43.2800 N   0  0  0  0  0  0  0  0  0  0  0  0
   38.5900   29.6660   42.5340 C   0  0  0  0  0  0  0  0  0  0  0  0
   37.5550   29.8730   41.6890 N   0  0  0  0  0  0  0  0  0  0  0  0
   35.8170   27.0430   42.2410 H   0  0  0  0  0  0  0  0  0  0  0  0
   37.7350   26.6770   43.7970 H   0  0  0  0  0  0  0  0  0  0  0  0
   35.4650   29.1960   40.6700 C   0  0  0  0  0  3  0  0  0  0  0  0
   35.4800   28.6620   39.4690 C   0  0  0  0  0  3  0  0  0  0  0  0
   34.3860   28.8280   38.4930 C   0  0  0  0  0  0  0  0  0  0  0  0
   34.3180   29.9260   38.2810 H   0  0  0  0  0  0  0  0  0  0  0  0
   34.5910   28.2800   37.5760 H   0  0  0  0  0  0  0  0  0  0  0  0
   33.4060   28.5260   38.9420 H   0  0  0  0  0  0  0  0  0  0  0  0
   39.6620   30.6900   42.6410 C   0  0  0  0  0  2  0  0  0  0  0  0
   39.4530   31.6720   41.5010 C   0  0  0  0  0  2  0  0  0  0  0  0
   39.9110   32.6460   41.6740 H   0  0  0  0  0  0  0  0  0  0  0  0
  1  6  2  0  0  0  0
  1  2  1  0  0  0  0
  2  3  2  0  0  0  0
  3  4  1  0  0  0  0
  3  8  1  0  0  0  0
  5 15  1  0  0  0  0
  5  4  2  0  0  0  0
  6  5  1  0  0  0  0
  7  2  1  0  0  0  0
  9  1  1  0  0  0  0
 10  9  2  0  0  0  0
 11 14  1  0  0  0  0
 11 10  1  0  0  0  0
 12 11  1  0  0  0  0
 13 11  1  0  0  0  0
 16 17  1  0  0  0  0
 16 15  1  0  0  0  0
M  END
>  <minimizedAffinity>
-3.58470321

$$$$

 OpenBabel03252506193D

 17 17  0  0  0  0  0  0  0  0999 V2000
   37.0370   29.0730   41.8050 C   0  0  0  0  0  0  0  0  0  0  0  0
   37.6130   29.0190   43.0880 C   0  0  0  0  0  0  0  0  0  0  0  0
   37.9830   27.7540   43.5910 C   0  0  0  0  0  0  0  0  0  0  0  0
   37.7620   26.6580   42.8050 N   0  0  0  0  0  0  0  0  0  0  0  0
   37.1980   26.7620   41.5640 C   0  0  0  0  0  0  0  0  0  0  0  0
   36.8450   27.9760   41.0860 N   0  0  0  0  0  0  0  0  0  0  0  0
   37.7790   29.8910   43.6930 H   0  0  0  0  0  0  0  0  0  0  0  0
   38.4270   27.6410   44.5610 H   0  0  0  0  0  0  0  0  0  0  0  0
   36.6650   30.3820   41.2950 C   0  0  0  0  0  3  0  0  0  0  0  0
   37.3930   30.9490   40.3600 C   0  0  0  0  0  3  0  0  0  0  0  0
   37.0860   32.2730   39.7840 C   0  0  0  0  0  0  0  0  0  0  0  0
   37.1440   33.0050   40.6300 H   0  0  0  0  0  0  0  0  0  0  0  0
   37.8000   32.5390   39.0070 H   0  0  0  0  0  0  0  0  0  0  0  0
   36.0340   32.3040   39.4040 H   0  0  0  0  0  0  0  0  0  0  0  0
   36.9690   25.5530   40.7310 C   0  0  0  0  0  2  0  0  0  0  0  0
   36.8770   24.3710   41.6810 C   0  0  0  0  0  2  0  0  0  0  0  0
   36.3500   23.5140   41.2610 H   0  0  0  0  0  0  0  0  0  0  0  0
  1  2  1  0  0  0  0
  2  3  2  0  0  0  0
  2  7  1  0  0  0  0
  3  8  1  0  0  0  0
  4  3  1  0  0  0  0
  5  4  2  0  0  0  0
  6  5  1  0  0  0  0
  6  1  2  0  0  0  0
  9  1  1  0  0  0  0
 10  9  2  0  0  0  0
 11 10  1  0  0  0  0
 11 12  1  0  0  0  0
 13 11  1  0  0  0  0
 14 11  1  0  0  0  0
 15  5  1  0  0  0  0
 15 16  1  0  0  0  0
 17 16  1  0  0  0  0
M  END
>  <minimizedAffinity>
-3.58001709

$$$$

 OpenBabel03252506193D

 17 17  0  0  0  0  0  0  0  0999 V2000
   36.9170   28.4660   41.7150 C   0  0  0  0  0  0  0  0  0  0  0  0
   35.7760   28.8340   40.9790 C   0  0  0  0  0  0  0  0  0  0  0  0
   35.7620   30.1120   40.3800 C   0  0  0  0  0  0  0  0  0  0  0  0
   36.8550   30.9150   40.5490 N   0  0  0  0  0  0  0  0  0  0  0  0
   37.9400   30.5110   41.2750 C   0  0  0  0  0  0  0  0  0  0  0  0
   37.9490   29.2870   41.8470 N   0  0  0  0  0  0  0  0  0  0  0  0
   34.9240   28.1910   40.8560 H   0  0  0  0  0  0  0  0  0  0  0  0
   34.9240   30.4560   39.8050 H   0  0  0  0  0  0  0  0  0  0  0  0
   36.9220   27.1460   42.3220 C   0  0  0  0  0  3  0  0  0  0  0  0
   37.1000   26.0830   41.5710 C   0  0  0  0  0  3  0  0  0  0  0  0
   37.1240   24.7070   42.1050 C   0  0  0  0  0  0  0  0  0  0  0  0
   36.1150   24.5300   42.5590 H   0  0  0  0  0  0  0  0  0  0  0  0
   37.3120   23.9820   41.3150 H   0  0  0  0  0  0  0  0  0  0  0  0
   37.8700   24.6160   42.9330 H   0  0  0  0  0  0  0  0  0  0  0  0
   39.1160   31.4050   41.4430 C   0  0  0  0  0  2  0  0  0  0  0  0
   39.8900   30.8980   42.6480 C   0  0  0  0  0  2  0  0  0  0  0  0
   40.9350   31.2090   42.6570 H   0  0  0  0  0  0  0  0  0  0  0  0
  1  6  1  0  0  0  0
  1  9  1  0  0  0  0
  2  1  2  0  0  0  0
  3  4  2  0  0  0  0
  3  2  1  0  0  0  0
  4  5  1  0  0  0  0
  5 15  1  0  0  0  0
  5  6  2  0  0  0  0
  7  2  1  0  0  0  0
  8  3  1  0  0  0  0
 10 11  1  0  0  0  0
 10  9  2  0  0  0  0
 11 12  1  0  0  0  0
 11 14  1  0  0  0  0
 13 11  1  0  0  0  0
 15 16  1  0  0  0  0
 16 17  1  0  0  0  0
M  END
>  <minimizedAffinity>
-3.56380677

$$$$

 OpenBabel03252506193D

 17 17  0  0  0  0  0  0  0  0999 V2000
   35.7580   29.6100   40.3150 C   0  0  0  0  0  0  0  0  0  0  0  0
   36.2340   28.7470   41.3200 C   0  0  0  0  0  0  0  0  0  0  0  0
   37.3570   29.1630   42.0670 C   0  0  0  0  0  0  0  0  0  0  0  0
   37.9150   30.3750   41.7720 N   0  0  0  0  0  0  0  0  0  0  0  0
   37.4150   31.1780   40.7850 C   0  0  0  0  0  0  0  0  0  0  0  0
   36.3390   30.7760   40.0720 N   0  0  0  0  0  0  0  0  0  0  0  0
   35.7840   27.7970   41.5390 H   0  0  0  0  0  0  0  0  0  0  0  0
   37.7710   28.5540   42.8470 H   0  0  0  0  0  0  0  0  0  0  0  0
   34.5980   29.1750   39.5570 C   0  0  0  0  0  3  0  0  0  0  0  0
   34.6950   28.9970   38.2590 C   0  0  0  0  0  3  0  0  0  0  0  0
   33.5690   28.5520   37.4140 C   0  0  0  0  0  0  0  0  0  0  0  0
   32.7790   29.3410   37.5030 H   0  0  0  0  0  0  0  0  0  0  0  0
   33.8760   28.4440   36.3750 H   0  0  0  0  0  0  0  0  0  0  0  0
   33.1250   27.6050   37.8130 H   0  0  0  0  0  0  0  0  0  0  0  0
   38.0420   32.4910   40.4850 C   0  0  0  0  0  2  0  0  0  0  0  0
   37.1940   33.1530   39.4130 C   0  0  0  0  0  2  0  0  0  0  0  0
   37.3080   34.2370   39.3730 H   0  0  0  0  0  0  0  0  0  0  0  0
  1  2  1  0  0  0  0
  2  7  1  0  0  0  0
  2  3  2  0  0  0  0
  3  8  1  0  0  0  0
  4  3  1  0  0  0  0
  5  4  2  0  0  0  0
  6  1  2  0  0  0  0
  6  5  1  0  0  0  0
  9  1  1  0  0  0  0
 10  9  2  0  0  0  0
 11 12  1  0  0  0  0
 11 14  1  0  0  0  0
 11 10  1  0  0  0  0
 13 11  1  0  0  0  0
 15  5  1  0  0  0  0
 16 15  1  0  0  0  0
 17 16  1  0  0  0  0
M  END
>  <minimizedAffinity>
-3.53422141

$$$$
