
 OpenBabel03252507183D

 38 40  0  0  1  0  0  0  0  0999 V2000
   47.4360   33.3420   43.1650 C   0  0  0  0  0  0  0  0  0  0  0  0
   48.3150   32.9140   43.9800 O   0  0  0  0  0  0  0  0  0  0  0  0
   47.4130   32.9950   41.7790 N   0  0  0  0  0  0  0  0  0  0  0  0
   46.2900   32.5980   40.9260 C   0  0  0  0  0  0  0  0  0  0  0  0
   46.2840   33.4700   39.6750 C   0  0  0  0  0  0  0  0  0  0  0  0
   47.5320   33.2540   38.8710 C   0  0  0  0  0  0  0  0  0  0  0  0
   48.5170   32.4560   39.7000 C   0  0  0  0  0  0  0  0  0  0  0  0
   48.6670   33.0300   41.0810 C   0  0  2  0  0  0  0  0  0  0  0  0
   45.3240   32.8830   41.4400 H   0  0  0  0  0  0  0  0  0  0  0  0
   46.2710   31.5280   40.7090 H   0  0  0  0  0  0  0  0  0  0  0  0
   45.3550   33.2800   39.1140 H   0  0  0  0  0  0  0  0  0  0  0  0
   46.3190   34.5230   40.0820 H   0  0  0  0  0  0  0  0  0  0  0  0
   47.2800   32.7200   37.9520 H   0  0  0  0  0  0  0  0  0  0  0  0
   48.0480   34.1850   38.5860 H   0  0  0  0  0  0  0  0  0  0  0  0
   48.1090   31.4220   39.7070 H   0  0  0  0  0  0  0  0  0  0  0  0
   49.5190   32.4210   39.2450 H   0  0  0  0  0  0  0  0  0  0  0  0
   48.9770   34.0860   40.9730 H   0  0  0  0  0  0  0  0  0  0  0  0
   46.0940   35.3770   42.9240 C   0  0  0  0  0  0  0  0  0  0  0  0
   46.4130   34.2230   43.6800 C   0  0  0  0  0  0  0  0  0  0  0  0
   45.7560   33.9840   44.8550 C   0  0  0  0  0  0  0  0  0  0  0  0
   44.8160   34.8640   45.2570 N   0  0  0  0  0  0  0  0  0  0  0  0
   44.4960   35.9760   44.5490 C   0  0  0  0  0  0  0  0  0  0  0  0
   45.1470   36.2040   43.3920 N   0  0  0  0  0  0  0  0  0  0  0  0
   46.6310   35.5460   41.9940 H   0  0  0  0  0  0  0  0  0  0  0  0
   43.7280   36.6230   44.9510 H   0  0  0  0  0  0  0  0  0  0  0  0
   46.1000   32.8000   45.6150 C   0  0  0  0  0  0  0  0  0  0  0  0
   45.6770   31.5690   45.2080 C   0  0  0  0  0  0  0  0  0  0  0  0
   46.0210   30.4610   45.9520 C   0  0  0  0  0  0  0  0  0  0  0  0
   46.7830   30.5330   47.1050 C   0  0  0  0  0  0  0  0  0  0  0  0
   47.1870   31.8070   47.4780 C   0  0  0  0  0  0  0  0  0  0  0  0
   46.8390   32.8690   46.7360 N   0  0  0  0  0  0  0  0  0  0  0  0
   45.0910   31.3610   44.3550 H   0  0  0  0  0  0  0  0  0  0  0  0
   45.7140   29.4540   45.6770 H   0  0  0  0  0  0  0  0  0  0  0  0
   47.0560   29.6630   47.6960 H   0  0  0  0  0  0  0  0  0  0  0  0
   47.7870   31.9740   48.3640 H   0  0  0  0  0  0  0  0  0  0  0  0
   49.8150   32.3050   41.7040 C   0  0  0  0  0  0  0  0  0  0  0  0
   50.9800   33.1500   42.0970 C   0  0  0  0  0  0  0  0  0  0  0  0
   50.7010   34.0670   42.6350 H   0  0  0  0  0  0  0  0  0  0  0  0
  1 19  1  0  0  0  0
  1  2  2  0  0  0  0
  3  1  1  0  0  0  0
  4  9  1  0  0  0  0
  4  3  1  0  0  0  0
  5 12  1  0  0  0  0
  5  4  1  0  0  0  0
  6  5  1  0  0  0  0
  6  7  1  0  0  0  0
  7 15  1  0  0  0  0
  7  8  1  0  0  0  0
  8 17  1  6  0  0  0
  8 36  1  0  0  0  0
  8  3  1  0  0  0  0
 10  4  1  0  0  0  0
 11  5  1  0  0  0  0
 13  6  1  0  0  0  0
 14  6  1  0  0  0  0
 16  7  1  0  0  0  0
 18 23  2  0  0  0  0
 18 19  1  0  0  0  0
 19 20  2  0  0  0  0
 20 21  1  0  0  0  0
 20 26  1  0  0  0  0
 22 25  1  0  0  0  0
 22 21  2  0  0  0  0
 23 22  1  0  0  0  0
 24 18  1  0  0  0  0
 26 31  1  0  0  0  0
 27 26  2  0  0  0  0
 27 28  1  0  0  0  0
 28 29  2  0  0  0  0
 29 30  1  0  0  0  0
 29 34  1  0  0  0  0
 30 35  1  0  0  0  0
 31 30  2  0  0  0  0
 32 27  1  0  0  0  0
 33 28  1  0  0  0  0
 36 37  1  0  0  0  0
 37 38  1  0  0  0  0
M  END
>  <minimizedAffinity>
-5.10582018

>  <minimizedRMSD>
0.730181813

$$$$
