REMARK  Name = 
REMARK  3 active torsions:
REMARK  status: ('A' for Active; 'I' for Inactive)
REMARK    1  A    between atoms: C_5  and  C_7
REMARK    2  A    between atoms: C_10  and  C_17
REMARK    3  A    between atoms: C_17  and  C_18
REMARK                            x       y       z     vdW  Elec       q    Type
REMARK                         _______ _______ _______ _____ _____    ______ ____
ROOT
ATOM      1  C   UNL     1      45.858  32.931  46.719  0.00  0.00    +0.000 A 
ATOM      2  C   UNL     1      45.099  32.778  47.909  0.00  0.00    +0.000 A 
ATOM      3  C   UNL     1      45.494  31.813  48.779  0.00  0.00    +0.000 A 
ATOM      4  C   UNL     1      46.620  31.015  48.474  0.00  0.00    +0.000 A 
ATOM      5  S   UNL     1      47.161  31.662  46.858  0.00  0.00    +0.000 S 
ATOM      6  H   UNL     1      44.260  33.415  48.077  0.00  0.00    +0.000 HD
ATOM      7  H   UNL     1      44.990  31.614  49.706  0.00  0.00    +0.000 HD
ENDROOT
BRANCH   1  12
ATOM      8  C   UNL     1      44.595  35.799  44.728  0.00  0.00    +0.000 A 
ATOM      9  C   UNL     1      45.276  35.566  43.513  0.00  0.00    +0.000 A 
ATOM     10  C   UNL     1      46.132  34.451  43.419  0.00  0.00    +0.000 A 
ATOM     11  N   UNL     1      46.251  33.652  44.529  0.00  0.00    +0.000 NA
ATOM     12  C   UNL     1      45.577  33.922  45.664  0.00  0.00    +0.000 A 
ATOM     13  N   UNL     1      44.748  34.990  45.776  0.00  0.00    +0.000 NA
ATOM     14  H   UNL     1      43.955  36.651  44.766  0.00  0.00    +0.000 HD
ATOM     15  H   UNL     1      45.184  36.190  42.644  0.00  0.00    +0.000 HD
ATOM     16  H   UNL     1      46.691  34.195  42.534  0.00  0.00    +0.000 HD
ENDBRANCH   1  12
BRANCH   4  17
ATOM     17  C   UNL     1      47.232  29.957  49.197  0.00  0.00    +0.000 C 
BRANCH  17  18
ATOM     18  C   UNL     1      48.181  29.150  48.355  0.00  0.00    +0.000 C 
ATOM     19  H   UNL     1      48.322  29.581  47.330  0.00  0.00    +0.000 HD
ENDBRANCH  17  18
ENDBRANCH   4  17
TORSDOF 3
