
 OpenBabel03242518213D

 33 35  0  0  0  0  0  0  0  0999 V2000
   45.1680   33.6450   43.5490 C   0  0  0  0  0  0  0  0  0  0  0  0
   45.0810   34.9060   44.0840 C   0  0  0  0  0  0  0  0  0  0  0  0
   44.1620   35.6280   43.3580 C   0  0  0  0  0  0  0  0  0  0  0  0
   43.7190   34.7540   42.3890 C   0  0  0  0  0  0  0  0  0  0  0  0
   44.3360   33.6440   42.5610 O   0  0  0  0  0  0  0  0  0  0  0  0
   45.6580   35.2570   44.9490 H   0  0  0  0  0  0  0  0  0  0  0  0
   43.9060   36.6510   43.5750 H   0  0  0  0  0  0  0  0  0  0  0  0
   42.7240   35.0780   41.3720 C   0  0  0  0  0  0  0  0  0  0  0  0
   43.0180   34.9290   40.0340 C   0  0  0  0  0  0  0  0  0  0  0  0
   42.1240   35.2190   39.0200 C   0  0  0  0  0  0  0  0  0  0  0  0
   40.8860   35.6820   39.4810 C   0  0  0  0  0  0  0  0  0  0  0  0
   40.5620   35.8420   40.8000 C   0  0  0  0  0  0  0  0  0  0  0  0
   41.5110   35.5290   41.7120 N   0  0  0  0  0  0  0  0  0  0  0  0
   43.9910   34.5660   39.7240 H   0  0  0  0  0  0  0  0  0  0  0  0
   42.3490   35.1050   37.9710 H   0  0  0  0  0  0  0  0  0  0  0  0
   40.1130   35.9390   38.7620 H   0  0  0  0  0  0  0  0  0  0  0  0
   39.5920   36.2010   41.0970 H   0  0  0  0  0  0  0  0  0  0  0  0
   46.0630   32.5660   44.0680 C   0  0  0  0  0  0  0  0  0  0  0  0
   45.6550   31.5620   43.8670 H   0  0  0  0  0  0  0  0  0  0  0  0
   46.1820   32.6590   45.1540 H   0  0  0  0  0  0  0  0  0  0  0  0
   49.3290   31.6200   42.6690 C   0  0  0  0  0  0  0  0  0  0  0  0
   49.9390   32.8540   42.3910 C   0  0  0  0  0  0  0  0  0  0  0  0
   49.2110   33.9820   42.6930 C   0  0  0  0  0  0  0  0  0  0  0  0
   47.9650   33.8720   43.2320 N   0  0  0  0  0  0  0  0  0  0  0  0
   47.4240   32.6720   43.4780 C   0  0  0  0  0  0  0  0  0  0  0  0
   48.1150   31.5430   43.1930 N   0  0  0  0  0  0  0  0  0  0  0  0
   49.8260   30.6970   42.4640 H   0  0  0  0  0  0  0  0  0  0  0  0
   51.2210   32.8310   41.8370 N   0  0  0  0  0  0  0  0  0  0  0  0
   51.5600   32.2580   41.0140 H   0  0  0  0  0  0  0  0  0  0  0  0
   51.9230   33.4660   42.3020 H   0  0  0  0  0  0  0  0  0  0  0  0
   49.9070   35.2580   42.3760 C   0  0  0  0  0  0  0  0  0  0  0  0
   49.1550   36.1410   41.4290 C   0  0  0  0  0  0  0  0  0  0  0  0
   48.8150   37.1000   41.8870 H   0  0  0  0  0  0  0  0  0  0  0  0
  1 18  1  0  0  0  0
  1  2  2  0  0  0  0
  2  6  1  0  0  0  0
  3  7  1  0  0  0  0
  3  2  1  0  0  0  0
  4  5  1  0  0  0  0
  4  3  2  0  0  0  0
  5  1  1  0  0  0  0
  8 13  1  0  0  0  0
  8  4  1  0  0  0  0
  9  8  2  0  0  0  0
 10 11  2  0  0  0  0
 10  9  1  0  0  0  0
 11 12  1  0  0  0  0
 12 17  1  0  0  0  0
 12 13  2  0  0  0  0
 14  9  1  0  0  0  0
 15 10  1  0  0  0  0
 16 11  1  0  0  0  0
 18 20  1  0  0  0  0
 19 18  1  0  0  0  0
 21 26  1  0  0  0  0
 22 21  2  0  0  0  0
 22 23  1  0  0  0  0
 23 24  2  0  0  0  0
 24 25  1  0  0  0  0
 25 18  1  0  0  0  0
 26 25  2  0  0  0  0
 27 21  1  0  0  0  0
 28 30  1  0  0  0  0
 28 22  1  0  0  0  0
 29 28  1  0  0  0  0
 31 23  1  0  0  0  0
 32 33  1  0  0  0  0
 32 31  1  0  0  0  0
M  END
>  <minimizedAffinity>
-5.86689472

>  <minimizedRMSD>
1.16262686

$$$$
