
 OpenBabel03252509163D

 19 20  0  0  0  0  0  0  0  0999 V2000
   45.8510   33.2710   46.4130 C   0  0  0  0  0  0  0  0  0  0  0  0
   45.1200   33.1180   47.6210 C   0  0  0  0  0  0  0  0  0  0  0  0
   45.5540   32.1740   48.4950 C   0  0  0  0  0  0  0  0  0  0  0  0
   46.6900   31.3960   48.1780 C   0  0  0  0  0  0  0  0  0  0  0  0
   47.1840   32.0330   46.5420 S   0  0  0  0  0  0  0  0  0  0  0  0
   44.2710   33.7400   47.7980 H   0  0  0  0  0  0  0  0  0  0  0  0
   45.0730   31.9770   49.4350 H   0  0  0  0  0  0  0  0  0  0  0  0
   44.4580   36.0620   44.3990 C   0  0  0  0  0  0  0  0  0  0  0  0
   45.1570   35.8570   43.1890 C   0  0  0  0  0  0  0  0  0  0  0  0
   46.0690   34.7850   43.1060 C   0  0  0  0  0  0  0  0  0  0  0  0
   46.2210   33.9990   44.2220 N   0  0  0  0  0  0  0  0  0  0  0  0
   45.5270   34.2410   45.3510 C   0  0  0  0  0  0  0  0  0  0  0  0
   44.6450   35.2670   45.4530 N   0  0  0  0  0  0  0  0  0  0  0  0
   43.7760   36.8810   44.4290 H   0  0  0  0  0  0  0  0  0  0  0  0
   45.0390   36.4710   42.3160 H   0  0  0  0  0  0  0  0  0  0  0  0
   46.6450   34.5530   42.2260 H   0  0  0  0  0  0  0  0  0  0  0  0
   47.3400   30.3620   48.9020 C   0  0  0  0  0  2  0  0  0  0  0  0
   48.7050   30.7610   49.3880 C   0  0  0  0  0  2  0  0  0  0  0  0
   48.9370   31.8390   49.1840 H   0  0  0  0  0  0  0  0  0  0  0  0
  1  5  1  0  0  0  0
  1  2  2  0  0  0  0
  2  6  1  0  0  0  0
  2  3  1  0  0  0  0
  3  7  1  0  0  0  0
  4  3  2  0  0  0  0
  4 17  1  0  0  0  0
  5  4  1  0  0  0  0
  8 14  1  0  0  0  0
  8 13  1  0  0  0  0
  9  8  2  0  0  0  0
 10  9  1  0  0  0  0
 10 11  2  0  0  0  0
 11 12  1  0  0  0  0
 12 13  2  0  0  0  0
 12  1  1  0  0  0  0
 15  9  1  0  0  0  0
 16 10  1  0  0  0  0
 17 18  1  0  0  0  0
 19 18  1  0  0  0  0
M  END
>  <minimizedAffinity>
-4.22866201

>  <minimizedRMSD>
0.470542192

$$$$
