
 OpenBabel03242518223D

 33 35  0  0  0  0  0  0  0  0999 V2000
   37.0420   28.2740   42.1410 C   0  0  0  0  0  0  0  0  0  0  0  0
   36.2540   28.1890   41.0210 C   0  0  0  0  0  0  0  0  0  0  0  0
   36.3680   29.3640   40.3140 C   0  0  0  0  0  0  0  0  0  0  0  0
   37.2420   30.1320   41.0530 C   0  0  0  0  0  0  0  0  0  0  0  0
   37.5840   29.4450   42.0790 O   0  0  0  0  0  0  0  0  0  0  0  0
   35.6430   27.3180   40.7540 H   0  0  0  0  0  0  0  0  0  0  0  0
   35.8490   29.5530   39.3900 H   0  0  0  0  0  0  0  0  0  0  0  0
   37.6720   31.4780   40.6920 C   0  0  0  0  0  0  0  0  0  0  0  0
   36.9290   32.2380   39.8150 C   0  0  0  0  0  0  0  0  0  0  0  0
   37.2790   33.5190   39.4300 C   0  0  0  0  0  0  0  0  0  0  0  0
   38.4660   33.9740   40.0160 C   0  0  0  0  0  0  0  0  0  0  0  0
   39.2280   33.2470   40.8880 C   0  0  0  0  0  0  0  0  0  0  0  0
   38.7940   32.0040   41.1980 N   0  0  0  0  0  0  0  0  0  0  0  0
   36.0150   31.8430   39.3860 H   0  0  0  0  0  0  0  0  0  0  0  0
   36.7010   34.1180   38.7430 H   0  0  0  0  0  0  0  0  0  0  0  0
   38.8290   34.9700   39.7760 H   0  0  0  0  0  0  0  0  0  0  0  0
   40.1320   33.6500   41.3090 H   0  0  0  0  0  0  0  0  0  0  0  0
   37.1820   27.1900   43.1610 C   0  0  0  0  0  0  0  0  0  0  0  0
   36.4310   26.3960   43.0220 H   0  0  0  0  0  0  0  0  0  0  0  0
   37.0450   27.5970   44.1710 H   0  0  0  0  0  0  0  0  0  0  0  0
   39.8940   24.7400   42.7570 C   0  0  0  0  0  0  0  0  0  0  0  0
   41.0530   25.4790   43.0490 C   0  0  0  0  0  0  0  0  0  0  0  0
   40.8710   26.8030   43.3780 C   0  0  0  0  0  0  0  0  0  0  0  0
   39.6200   27.3380   43.4100 N   0  0  0  0  0  0  0  0  0  0  0  0
   38.5440   26.5940   43.1220 C   0  0  0  0  0  0  0  0  0  0  0  0
   38.6890   25.2880   42.7950 N   0  0  0  0  0  0  0  0  0  0  0  0
   39.9470   23.7070   42.4920 H   0  0  0  0  0  0  0  0  0  0  0  0
   42.2780   24.8130   42.9800 N   0  0  0  0  0  0  0  0  0  0  0  0
   42.6350   24.1940   42.1990 H   0  0  0  0  0  0  0  0  0  0  0  0
   42.9140   24.9540   43.8090 H   0  0  0  0  0  0  0  0  0  0  0  0
   42.1320   27.5340   43.6750 C   0  0  0  0  0  2  0  0  0  0  0  0
   42.1810   28.9180   43.1040 C   0  0  0  0  0  2  0  0  0  0  0  0
   42.2010   29.7200   43.8800 H   0  0  0  0  0  0  0  0  0  0  0  0
  1 18  1  0  0  0  0
  2  1  2  0  0  0  0
  3  2  1  0  0  0  0
  3  4  2  0  0  0  0
  4  5  1  0  0  0  0
  5  1  1  0  0  0  0
  6  2  1  0  0  0  0
  7  3  1  0  0  0  0
  8  4  1  0  0  0  0
  8 13  1  0  0  0  0
  9  8  2  0  0  0  0
 10  9  1  0  0  0  0
 10 11  2  0  0  0  0
 11 12  1  0  0  0  0
 12 13  2  0  0  0  0
 12 17  1  0  0  0  0
 14  9  1  0  0  0  0
 15 10  1  0  0  0  0
 16 11  1  0  0  0  0
 18 20  1  0  0  0  0
 19 18  1  0  0  0  0
 21 26  2  0  0  0  0
 21 22  1  0  0  0  0
 22 23  2  0  0  0  0
 23 24  1  0  0  0  0
 23 31  1  0  0  0  0
 25 18  1  0  0  0  0
 25 24  2  0  0  0  0
 26 25  1  0  0  0  0
 27 21  1  0  0  0  0
 28 22  1  0  0  0  0
 28 30  1  0  0  0  0
 29 28  1  0  0  0  0
 32 31  1  0  0  0  0
 32 33  1  0  0  0  0
M  END
>  <minimizedAffinity>
-5.77607536

$$$$

 OpenBabel03242518223D

 33 35  0  0  0  0  0  0  0  0999 V2000
   38.2930   28.5110   42.4040 C   0  0  0  0  0  0  0  0  0  0  0  0
   37.5300   27.9400   43.3900 C   0  0  0  0  0  0  0  0  0  0  0  0
   36.9210   26.8170   42.8790 C   0  0  0  0  0  0  0  0  0  0  0  0
   37.3520   26.7520   41.5710 C   0  0  0  0  0  0  0  0  0  0  0  0
   38.1310   27.7500   41.3730 O   0  0  0  0  0  0  0  0  0  0  0  0
   37.4370   28.3310   44.4110 H   0  0  0  0  0  0  0  0  0  0  0  0
   36.2670   26.1830   43.4530 H   0  0  0  0  0  0  0  0  0  0  0  0
   36.9630   25.7150   40.6210 C   0  0  0  0  0  0  0  0  0  0  0  0
   36.5720   24.4710   41.0640 C   0  0  0  0  0  0  0  0  0  0  0  0
   36.1930   23.4440   40.2190 C   0  0  0  0  0  0  0  0  0  0  0  0
   36.2460   23.7880   38.8630 C   0  0  0  0  0  0  0  0  0  0  0  0
   36.6300   25.0120   38.3890 C   0  0  0  0  0  0  0  0  0  0  0  0
   36.9800   25.9460   39.3030 N   0  0  0  0  0  0  0  0  0  0  0  0
   36.5460   24.2500   42.1250 H   0  0  0  0  0  0  0  0  0  0  0  0
   35.8870   22.4680   40.5610 H   0  0  0  0  0  0  0  0  0  0  0  0
   35.9680   23.0500   38.1160 H   0  0  0  0  0  0  0  0  0  0  0  0
   36.6500   25.2210   37.3340 H   0  0  0  0  0  0  0  0  0  0  0  0
   39.1100   29.7520   42.5770 C   0  0  0  0  0  0  0  0  0  0  0  0
   40.1750   29.5770   42.3550 H   0  0  0  0  0  0  0  0  0  0  0  0
   39.0470   30.1070   43.6130 H   0  0  0  0  0  0  0  0  0  0  0  0
   36.8820   31.7330   40.4260 C   0  0  0  0  0  0  0  0  0  0  0  0
   37.6440   32.8730   40.1220 C   0  0  0  0  0  0  0  0  0  0  0  0
   38.9080   32.9310   40.6640 C   0  0  0  0  0  0  0  0  0  0  0  0
   39.3640   31.9180   41.4520 N   0  0  0  0  0  0  0  0  0  0  0  0
   38.5990   30.8510   41.7160 C   0  0  0  0  0  0  0  0  0  0  0  0
   37.3510   30.7640   41.1970 N   0  0  0  0  0  0  0  0  0  0  0  0
   35.8910   31.6110   40.0460 H   0  0  0  0  0  0  0  0  0  0  0  0
   37.0600   33.8410   39.3020 N   0  0  0  0  0  0  0  0  0  0  0  0
   36.0980   34.2710   39.3930 H   0  0  0  0  0  0  0  0  0  0  0  0
   37.6610   34.1750   38.5020 H   0  0  0  0  0  0  0  0  0  0  0  0
   39.6670   34.1600   40.3090 C   0  0  0  0  0  2  0  0  0  0  0  0
   40.7740   33.9280   39.3270 C   0  0  0  0  0  2  0  0  0  0  0  0
   40.6090   34.4290   38.3440 H   0  0  0  0  0  0  0  0  0  0  0  0
  1 18  1  0  0  0  0
  1  2  2  0  0  0  0
  2  6  1  0  0  0  0
  3  2  1  0  0  0  0
  3  7  1  0  0  0  0
  4  3  2  0  0  0  0
  5  4  1  0  0  0  0
  5  1  1  0  0  0  0
  8  9  1  0  0  0  0
  8  4  1  0  0  0  0
  9 14  1  0  0  0  0
 10 15  1  0  0  0  0
 10  9  2  0  0  0  0
 11 10  1  0  0  0  0
 12 11  2  0  0  0  0
 12 13  1  0  0  0  0
 13  8  2  0  0  0  0
 16 11  1  0  0  0  0
 17 12  1  0  0  0  0
 18 20  1  0  0  0  0
 19 18  1  0  0  0  0
 21 26  1  0  0  0  0
 22 21  2  0  0  0  0
 22 23  1  0  0  0  0
 23 24  2  0  0  0  0
 24 25  1  0  0  0  0
 25 18  1  0  0  0  0
 26 25  2  0  0  0  0
 27 21  1  0  0  0  0
 28 29  1  0  0  0  0
 28 22  1  0  0  0  0
 30 28  1  0  0  0  0
 31 23  1  0  0  0  0
 32 31  1  0  0  0  0
 33 32  1  0  0  0  0
M  END
>  <minimizedAffinity>
-5.62469864

$$$$

 OpenBabel03242518223D

 33 35  0  0  0  0  0  0  0  0999 V2000
   38.9830   29.4380   42.5020 C   0  0  0  0  0  0  0  0  0  0  0  0
   37.9850   29.2130   43.4170 C   0  0  0  0  0  0  0  0  0  0  0  0
   37.5460   27.9170   43.2780 C   0  0  0  0  0  0  0  0  0  0  0  0
   38.3160   27.3960   42.2590 C   0  0  0  0  0  0  0  0  0  0  0  0
   39.1120   28.3210   41.8670 O   0  0  0  0  0  0  0  0  0  0  0  0
   37.6160   29.9590   44.1320 H   0  0  0  0  0  0  0  0  0  0  0  0
   36.7660   27.4860   43.8810 H   0  0  0  0  0  0  0  0  0  0  0  0
   38.2070   26.0320   41.7530 C   0  0  0  0  0  0  0  0  0  0  0  0
   37.0130   25.3490   41.8300 C   0  0  0  0  0  0  0  0  0  0  0  0
   36.8420   24.0560   41.3710 C   0  0  0  0  0  0  0  0  0  0  0  0
   38.0020   23.5020   40.8180 C   0  0  0  0  0  0  0  0  0  0  0  0
   39.2030   24.1500   40.7250 C   0  0  0  0  0  0  0  0  0  0  0  0
   39.2610   25.4130   41.2050 N   0  0  0  0  0  0  0  0  0  0  0  0
   36.1400   25.8210   42.2670 H   0  0  0  0  0  0  0  0  0  0  0  0
   35.9090   23.5170   41.4310 H   0  0  0  0  0  0  0  0  0  0  0  0
   37.9730   22.4870   40.4290 H   0  0  0  0  0  0  0  0  0  0  0  0
   40.0620   23.6730   40.2880 H   0  0  0  0  0  0  0  0  0  0  0  0
   39.7120   30.7340   42.3470 C   0  0  0  0  0  0  0  0  0  0  0  0
   40.7370   30.6790   42.7490 H   0  0  0  0  0  0  0  0  0  0  0  0
   39.1910   31.5310   42.8910 H   0  0  0  0  0  0  0  0  0  0  0  0
   41.0190   31.8290   39.0900 C   0  0  0  0  0  0  0  0  0  0  0  0
   39.8700   31.9240   38.2880 C   0  0  0  0  0  0  0  0  0  0  0  0
   38.6720   31.6090   38.8890 C   0  0  0  0  0  0  0  0  0  0  0  0
   38.6390   31.2280   40.1960 N   0  0  0  0  0  0  0  0  0  0  0  0
   39.7630   31.1510   40.9200 C   0  0  0  0  0  0  0  0  0  0  0  0
   40.9560   31.4550   40.3590 N   0  0  0  0  0  0  0  0  0  0  0  0
   41.9880   32.0550   38.7000 H   0  0  0  0  0  0  0  0  0  0  0  0
   40.0390   32.3260   36.9610 N   0  0  0  0  0  0  0  0  0  0  0  0
   40.7360   31.9550   36.2570 H   0  0  0  0  0  0  0  0  0  0  0  0
   39.3870   33.0880   36.6360 H   0  0  0  0  0  0  0  0  0  0  0  0
   37.4920   31.7260   37.9910 C   0  0  0  0  0  2  0  0  0  0  0  0
   36.9330   30.4090   37.5480 C   0  0  0  0  0  2  0  0  0  0  0  0
   35.9070   30.2070   37.9350 H   0  0  0  0  0  0  0  0  0  0  0  0
  1  2  2  0  0  0  0
  2  6  1  0  0  0  0
  3  2  1  0  0  0  0
  3  7  1  0  0  0  0
  4  3  2  0  0  0  0
  5  4  1  0  0  0  0
  5  1  1  0  0  0  0
  8  9  1  0  0  0  0
  8  4  1  0  0  0  0
  9 14  1  0  0  0  0
 10 15  1  0  0  0  0
 10  9  2  0  0  0  0
 11 10  1  0  0  0  0
 12 11  2  0  0  0  0
 12 13  1  0  0  0  0
 13  8  2  0  0  0  0
 16 11  1  0  0  0  0
 17 12  1  0  0  0  0
 18  1  1  0  0  0  0
 18 19  1  0  0  0  0
 18 20  1  0  0  0  0
 21 26  1  0  0  0  0
 22 23  1  0  0  0  0
 22 21  2  0  0  0  0
 23 24  2  0  0  0  0
 24 25  1  0  0  0  0
 25 18  1  0  0  0  0
 26 25  2  0  0  0  0
 27 21  1  0  0  0  0
 28 22  1  0  0  0  0
 29 28  1  0  0  0  0
 30 28  1  0  0  0  0
 31 23  1  0  0  0  0
 32 33  1  0  0  0  0
 32 31  1  0  0  0  0
M  END
>  <minimizedAffinity>
-5.56024408

$$$$

 OpenBabel03242518223D

 33 35  0  0  0  0  0  0  0  0999 V2000
   36.7980   29.4280   41.5970 C   0  0  0  0  0  0  0  0  0  0  0  0
   37.3180   29.2790   42.8590 C   0  0  0  0  0  0  0  0  0  0  0  0
   37.6560   27.9580   43.0400 C   0  0  0  0  0  0  0  0  0  0  0  0
   37.3190   27.3460   41.8530 C   0  0  0  0  0  0  0  0  0  0  0  0
   36.8370   28.2460   41.0790 O   0  0  0  0  0  0  0  0  0  0  0  0
   37.4360   30.0940   43.5840 H   0  0  0  0  0  0  0  0  0  0  0  0
   38.0890   27.5770   43.9490 H   0  0  0  0  0  0  0  0  0  0  0  0
   37.4980   25.9250   41.5730 C   0  0  0  0  0  0  0  0  0  0  0  0
   38.6280   25.2640   42.0020 C   0  0  0  0  0  0  0  0  0  0  0  0
   38.8610   23.9210   41.7700 C   0  0  0  0  0  0  0  0  0  0  0  0
   37.8370   23.2920   41.0530 C   0  0  0  0  0  0  0  0  0  0  0  0
   36.7030   23.9170   40.6130 C   0  0  0  0  0  0  0  0  0  0  0  0
   36.5750   25.2330   40.8940 N   0  0  0  0  0  0  0  0  0  0  0  0
   39.3960   25.7940   42.5540 H   0  0  0  0  0  0  0  0  0  0  0  0
   39.7450   23.3990   42.1020 H   0  0  0  0  0  0  0  0  0  0  0  0
   37.9240   22.2340   40.8180 H   0  0  0  0  0  0  0  0  0  0  0  0
   35.9460   23.3810   40.0670 H   0  0  0  0  0  0  0  0  0  0  0  0
   36.3150   30.7240   41.0280 C   0  0  0  0  0  0  0  0  0  0  0  0
   36.2920   31.5220   41.7880 H   0  0  0  0  0  0  0  0  0  0  0  0
   35.2960   30.6130   40.6400 H   0  0  0  0  0  0  0  0  0  0  0  0
   37.5600   31.1730   37.5980 C   0  0  0  0  0  0  0  0  0  0  0  0
   38.7240   31.9400   37.7670 C   0  0  0  0  0  0  0  0  0  0  0  0
   39.0530   32.2830   39.0590 C   0  0  0  0  0  0  0  0  0  0  0  0
   38.2670   31.8850   40.0960 N   0  0  0  0  0  0  0  0  0  0  0  0
   37.1640   31.1540   39.8860 C   0  0  0  0  0  0  0  0  0  0  0  0
   36.8140   30.8000   38.6270 N   0  0  0  0  0  0  0  0  0  0  0  0
   37.2340   30.8650   36.6280 H   0  0  0  0  0  0  0  0  0  0  0  0
   39.4420   32.2860   36.6200 N   0  0  0  0  0  0  0  0  0  0  0  0
   39.0660   32.7000   35.7210 H   0  0  0  0  0  0  0  0  0  0  0  0
   40.4800   32.1090   36.6690 H   0  0  0  0  0  0  0  0  0  0  0  0
   40.2930   33.0960   39.1750 C   0  0  0  0  0  2  0  0  0  0  0  0
   40.2540   34.1100   40.2770 C   0  0  0  0  0  2  0  0  0  0  0  0
   40.9870   33.9090   41.0930 H   0  0  0  0  0  0  0  0  0  0  0  0
  1  2  2  0  0  0  0
  2  3  1  0  0  0  0
  2  6  1  0  0  0  0
  3  7  1  0  0  0  0
  4  3  2  0  0  0  0
  5  1  1  0  0  0  0
  5  4  1  0  0  0  0
  8  4  1  0  0  0  0
  8  9  1  0  0  0  0
  9 14  1  0  0  0  0
 10  9  2  0  0  0  0
 10 15  1  0  0  0  0
 11 10  1  0  0  0  0
 12 13  1  0  0  0  0
 12 11  2  0  0  0  0
 13  8  2  0  0  0  0
 16 11  1  0  0  0  0
 17 12  1  0  0  0  0
 18  1  1  0  0  0  0
 18 19  1  0  0  0  0
 20 18  1  0  0  0  0
 21 22  2  0  0  0  0
 21 26  1  0  0  0  0
 22 23  1  0  0  0  0
 23 31  1  0  0  0  0
 23 24  2  0  0  0  0
 25 24  1  0  0  0  0
 25 18  1  0  0  0  0
 26 25  2  0  0  0  0
 27 21  1  0  0  0  0
 28 30  1  0  0  0  0
 28 22  1  0  0  0  0
 29 28  1  0  0  0  0
 31 32  1  0  0  0  0
 32 33  1  0  0  0  0
M  END
>  <minimizedAffinity>
-5.49131441

$$$$

 OpenBabel03242518223D

 33 35  0  0  0  0  0  0  0  0999 V2000
   36.8600   28.1540   41.6940 C   0  0  0  0  0  0  0  0  0  0  0  0
   36.5260   27.8470   42.9890 C   0  0  0  0  0  0  0  0  0  0  0  0
   37.6780   27.5470   43.6800 C   0  0  0  0  0  0  0  0  0  0  0  0
   38.6870   27.6890   42.7520 C   0  0  0  0  0  0  0  0  0  0  0  0
   38.1450   28.0370   41.6440 O   0  0  0  0  0  0  0  0  0  0  0  0
   35.5030   27.8480   43.3860 H   0  0  0  0  0  0  0  0  0  0  0  0
   37.6910   27.2730   44.7210 H   0  0  0  0  0  0  0  0  0  0  0  0
   40.1030   27.4710   43.0270 C   0  0  0  0  0  0  0  0  0  0  0  0
   40.5600   26.2270   43.4030 C   0  0  0  0  0  0  0  0  0  0  0  0
   41.8870   25.9520   43.6790 C   0  0  0  0  0  0  0  0  0  0  0  0
   42.7270   27.0630   43.5420 C   0  0  0  0  0  0  0  0  0  0  0  0
   42.3080   28.3110   43.1720 C   0  0  0  0  0  0  0  0  0  0  0  0
   40.9880   28.4710   42.9250 N   0  0  0  0  0  0  0  0  0  0  0  0
   39.8710   25.3950   43.4950 H   0  0  0  0  0  0  0  0  0  0  0  0
   42.2490   24.9800   43.9750 H   0  0  0  0  0  0  0  0  0  0  0  0
   43.7900   26.9530   43.7390 H   0  0  0  0  0  0  0  0  0  0  0  0
   43.0010   29.1290   43.0820 H   0  0  0  0  0  0  0  0  0  0  0  0
   35.8750   28.5350   40.6350 C   0  0  0  0  0  0  0  0  0  0  0  0
   34.9620   28.9780   41.0640 H   0  0  0  0  0  0  0  0  0  0  0  0
   35.5710   27.6510   40.0620 H   0  0  0  0  0  0  0  0  0  0  0  0
   37.4800   29.8590   37.6030 C   0  0  0  0  0  0  0  0  0  0  0  0
   37.5950   31.2340   37.8640 C   0  0  0  0  0  0  0  0  0  0  0  0
   37.1170   31.6720   39.0780 C   0  0  0  0  0  0  0  0  0  0  0  0
   36.5660   30.7910   39.9580 N   0  0  0  0  0  0  0  0  0  0  0  0
   36.4780   29.4870   39.6640 C   0  0  0  0  0  0  0  0  0  0  0  0
   36.9390   29.0250   38.4790 N   0  0  0  0  0  0  0  0  0  0  0  0
   37.8260   29.4370   36.6840 H   0  0  0  0  0  0  0  0  0  0  0  0
   38.1780   32.0330   36.8780 N   0  0  0  0  0  0  0  0  0  0  0  0
   37.9550   32.0490   35.8430 H   0  0  0  0  0  0  0  0  0  0  0  0
   38.9270   32.6930   37.2180 H   0  0  0  0  0  0  0  0  0  0  0  0
   37.2630   33.1360   39.2970 C   0  0  0  0  0  2  0  0  0  0  0  0
   38.3260   33.5000   40.2870 C   0  0  0  0  0  2  0  0  0  0  0  0
   39.1830   34.0550   39.8380 H   0  0  0  0  0  0  0  0  0  0  0  0
  1  2  2  0  0  0  0
  2  6  1  0  0  0  0
  2  3  1  0  0  0  0
  3  7  1  0  0  0  0
  4  8  1  0  0  0  0
  4  3  2  0  0  0  0
  5  1  1  0  0  0  0
  5  4  1  0  0  0  0
  8  9  1  0  0  0  0
  9 14  1  0  0  0  0
  9 10  2  0  0  0  0
 10 15  1  0  0  0  0
 11 10  1  0  0  0  0
 11 16  1  0  0  0  0
 12 11  2  0  0  0  0
 13  8  2  0  0  0  0
 13 12  1  0  0  0  0
 17 12  1  0  0  0  0
 18 19  1  0  0  0  0
 18  1  1  0  0  0  0
 20 18  1  0  0  0  0
 21 22  2  0  0  0  0
 21 26  1  0  0  0  0
 22 23  1  0  0  0  0
 23 31  1  0  0  0  0
 23 24  2  0  0  0  0
 25 24  1  0  0  0  0
 25 18  1  0  0  0  0
 26 25  2  0  0  0  0
 27 21  1  0  0  0  0
 28 30  1  0  0  0  0
 28 22  1  0  0  0  0
 29 28  1  0  0  0  0
 31 32  1  0  0  0  0
 33 32  1  0  0  0  0
M  END
>  <minimizedAffinity>
-5.40998793

$$$$

 OpenBabel03242518223D

 33 35  0  0  0  0  0  0  0  0999 V2000
   38.1110   27.2370   43.1470 C   0  0  0  0  0  0  0  0  0  0  0  0
   39.2290   26.5530   43.5550 C   0  0  0  0  0  0  0  0  0  0  0  0
   39.2700   25.3460   42.8960 C   0  0  0  0  0  0  0  0  0  0  0  0
   38.1480   25.3480   42.0950 C   0  0  0  0  0  0  0  0  0  0  0  0
   37.5370   26.4570   42.2910 O   0  0  0  0  0  0  0  0  0  0  0  0
   39.9560   26.9280   44.2860 H   0  0  0  0  0  0  0  0  0  0  0  0
   40.0510   24.6190   43.0370 H   0  0  0  0  0  0  0  0  0  0  0  0
   37.7650   24.2600   41.2020 C   0  0  0  0  0  0  0  0  0  0  0  0
   36.4990   24.2120   40.6600 C   0  0  0  0  0  0  0  0  0  0  0  0
   36.0710   23.2100   39.8090 C   0  0  0  0  0  0  0  0  0  0  0  0
   37.0490   22.2430   39.5470 C   0  0  0  0  0  0  0  0  0  0  0  0
   38.3130   22.2600   40.0680 C   0  0  0  0  0  0  0  0  0  0  0  0
   38.6290   23.2860   40.8900 N   0  0  0  0  0  0  0  0  0  0  0  0
   35.7740   24.9840   40.8910 H   0  0  0  0  0  0  0  0  0  0  0  0
   35.0800   23.1670   39.3830 H   0  0  0  0  0  0  0  0  0  0  0  0
   36.8110   21.4110   38.8900 H   0  0  0  0  0  0  0  0  0  0  0  0
   39.0250   21.4890   39.8300 H   0  0  0  0  0  0  0  0  0  0  0  0
   37.7210   28.5930   43.6410 C   0  0  0  0  0  0  0  0  0  0  0  0
   38.1470   28.8050   44.6350 H   0  0  0  0  0  0  0  0  0  0  0  0
   36.6310   28.6670   43.7300 H   0  0  0  0  0  0  0  0  0  0  0  0
   39.7780   31.1310   41.9540 C   0  0  0  0  0  0  0  0  0  0  0  0
   38.9410   31.6080   40.9320 C   0  0  0  0  0  0  0  0  0  0  0  0
   37.6890   31.0430   40.8480 C   0  0  0  0  0  0  0  0  0  0  0  0
   37.3120   30.0740   41.7270 N   0  0  0  0  0  0  0  0  0  0  0  0
   38.1460   29.6510   42.6860 C   0  0  0  0  0  0  0  0  0  0  0  0
   39.3840   30.1870   42.7950 N   0  0  0  0  0  0  0  0  0  0  0  0
   40.7660   31.5160   42.0880 H   0  0  0  0  0  0  0  0  0  0  0  0
   39.4480   32.6040   40.0940 N   0  0  0  0  0  0  0  0  0  0  0  0
   40.3840   32.6210   39.6020 H   0  0  0  0  0  0  0  0  0  0  0  0
   38.8100   33.4300   39.9420 H   0  0  0  0  0  0  0  0  0  0  0  0
   36.8500   31.5850   39.7460 C   0  0  0  0  0  2  0  0  0  0  0  0
   36.7350   30.6720   38.5640 C   0  0  0  0  0  2  0  0  0  0  0  0
   35.7020   30.2860   38.3980 H   0  0  0  0  0  0  0  0  0  0  0  0
  1  2  2  0  0  0  0
  1 18  1  0  0  0  0
  2  6  1  0  0  0  0
  3  7  1  0  0  0  0
  3  2  1  0  0  0  0
  4  5  1  0  0  0  0
  4  3  2  0  0  0  0
  5  1  1  0  0  0  0
  8  4  1  0  0  0  0
  9 14  1  0  0  0  0
  9  8  2  0  0  0  0
 10  9  1  0  0  0  0
 11 10  2  0  0  0  0
 11 12  1  0  0  0  0
 12 13  2  0  0  0  0
 13  8  1  0  0  0  0
 15 10  1  0  0  0  0
 16 11  1  0  0  0  0
 17 12  1  0  0  0  0
 18 20  1  0  0  0  0
 18 19  1  0  0  0  0
 21 27  1  0  0  0  0
 21 26  1  0  0  0  0
 22 21  2  0  0  0  0
 23 22  1  0  0  0  0
 23 24  2  0  0  0  0
 24 25  1  0  0  0  0
 25 26  2  0  0  0  0
 25 18  1  0  0  0  0
 28 22  1  0  0  0  0
 29 28  1  0  0  0  0
 30 28  1  0  0  0  0
 31 23  1  0  0  0  0
 32 31  1  0  0  0  0
 33 32  1  0  0  0  0
M  END
>  <minimizedAffinity>
-5.32476044

$$$$

 OpenBabel03242518223D

 33 35  0  0  0  0  0  0  0  0999 V2000
   38.2970   32.8230   40.4640 C   0  0  0  0  0  0  0  0  0  0  0  0
   37.2270   32.5420   39.6520 C   0  0  0  0  0  0  0  0  0  0  0  0
   36.7320   31.3050   39.9910 C   0  0  0  0  0  0  0  0  0  0  0  0
   37.5420   30.8750   41.0200 C   0  0  0  0  0  0  0  0  0  0  0  0
   38.4100   31.7920   41.2350 O   0  0  0  0  0  0  0  0  0  0  0  0
   36.8470   33.2110   38.8690 H   0  0  0  0  0  0  0  0  0  0  0  0
   35.8870   30.8500   39.5030 H   0  0  0  0  0  0  0  0  0  0  0  0
   37.3980   29.5970   41.7100 C   0  0  0  0  0  0  0  0  0  0  0  0
   36.7290   28.5510   41.1130 C   0  0  0  0  0  0  0  0  0  0  0  0
   36.5560   27.3160   41.7110 C   0  0  0  0  0  0  0  0  0  0  0  0
   37.1250   27.2280   42.9870 C   0  0  0  0  0  0  0  0  0  0  0  0
   37.7950   28.2460   43.6080 C   0  0  0  0  0  0  0  0  0  0  0  0
   37.9070   29.4130   42.9340 N   0  0  0  0  0  0  0  0  0  0  0  0
   36.3040   28.6660   40.1220 H   0  0  0  0  0  0  0  0  0  0  0  0
   36.0320   26.4940   41.2490 H   0  0  0  0  0  0  0  0  0  0  0  0
   37.0430   26.2980   43.5420 H   0  0  0  0  0  0  0  0  0  0  0  0
   38.2140   28.1200   44.5910 H   0  0  0  0  0  0  0  0  0  0  0  0
   39.1020   34.0820   40.4000 C   0  0  0  0  0  0  0  0  0  0  0  0
   39.1310   34.6000   41.3720 H   0  0  0  0  0  0  0  0  0  0  0  0
   38.6630   34.7760   39.6730 H   0  0  0  0  0  0  0  0  0  0  0  0
   42.7740   33.9240   40.3430 C   0  0  0  0  0  0  0  0  0  0  0  0
   43.0590   33.3030   39.1150 C   0  0  0  0  0  0  0  0  0  0  0  0
   41.9790   32.9550   38.3370 C   0  0  0  0  0  0  0  0  0  0  0  0
   40.7120   33.2120   38.7650 N   0  0  0  0  0  0  0  0  0  0  0  0
   40.4900   33.8050   39.9450 C   0  0  0  0  0  0  0  0  0  0  0  0
   41.5310   34.1610   40.7340 N   0  0  0  0  0  0  0  0  0  0  0  0
   43.5550   34.2250   41.0070 H   0  0  0  0  0  0  0  0  0  0  0  0
   44.4020   33.0940   38.7930 N   0  0  0  0  0  0  0  0  0  0  0  0
   45.1560   32.6710   39.4040 H   0  0  0  0  0  0  0  0  0  0  0  0
   44.6840   33.3970   37.8240 H   0  0  0  0  0  0  0  0  0  0  0  0
   42.3420   32.3000   37.0520 C   0  0  0  0  0  2  0  0  0  0  0  0
   42.0990   30.8220   37.0320 C   0  0  0  0  0  2  0  0  0  0  0  0
   41.3050   30.5110   36.3130 H   0  0  0  0  0  0  0  0  0  0  0  0
  1  5  1  0  0  0  0
  2  3  1  0  0  0  0
  2  1  2  0  0  0  0
  3  4  2  0  0  0  0
  4  5  1  0  0  0  0
  4  8  1  0  0  0  0
  6  2  1  0  0  0  0
  7  3  1  0  0  0  0
  8 13  1  0  0  0  0
  9  8  2  0  0  0  0
  9 10  1  0  0  0  0
 10 11  2  0  0  0  0
 11 16  1  0  0  0  0
 11 12  1  0  0  0  0
 12 17  1  0  0  0  0
 13 12  2  0  0  0  0
 14  9  1  0  0  0  0
 15 10  1  0  0  0  0
 18  1  1  0  0  0  0
 18 19  1  0  0  0  0
 20 18  1  0  0  0  0
 21 26  1  0  0  0  0
 21 27  1  0  0  0  0
 22 21  2  0  0  0  0
 23 24  2  0  0  0  0
 23 22  1  0  0  0  0
 24 25  1  0  0  0  0
 25 18  1  0  0  0  0
 25 26  2  0  0  0  0
 28 22  1  0  0  0  0
 28 29  1  0  0  0  0
 30 28  1  0  0  0  0
 31 23  1  0  0  0  0
 32 31  1  0  0  0  0
 33 32  1  0  0  0  0
M  END
>  <minimizedAffinity>
-5.2828474

$$$$

 OpenBabel03242518223D

 33 35  0  0  0  0  0  0  0  0999 V2000
   36.9190   29.3860   37.8310 C   0  0  0  0  0  0  0  0  0  0  0  0
   35.9090   28.6420   37.2730 C   0  0  0  0  0  0  0  0  0  0  0  0
   35.7040   27.5270   38.0530 C   0  0  0  0  0  0  0  0  0  0  0  0
   36.6200   27.6450   39.0760 C   0  0  0  0  0  0  0  0  0  0  0  0
   37.2760   28.7280   38.8830 O   0  0  0  0  0  0  0  0  0  0  0  0
   35.3690   28.9120   36.3570 H   0  0  0  0  0  0  0  0  0  0  0  0
   34.9620   26.7780   37.8340 H   0  0  0  0  0  0  0  0  0  0  0  0
   36.7780   26.6830   40.1620 C   0  0  0  0  0  0  0  0  0  0  0  0
   36.5810   25.3380   39.9400 C   0  0  0  0  0  0  0  0  0  0  0  0
   36.7130   24.3740   40.9230 C   0  0  0  0  0  0  0  0  0  0  0  0
   37.0660   24.8960   42.1730 C   0  0  0  0  0  0  0  0  0  0  0  0
   37.2680   26.2250   42.4290 C   0  0  0  0  0  0  0  0  0  0  0  0
   37.1140   27.0830   41.3950 N   0  0  0  0  0  0  0  0  0  0  0  0
   36.3090   24.9800   38.9530 H   0  0  0  0  0  0  0  0  0  0  0  0
   36.5590   23.3200   40.7540 H   0  0  0  0  0  0  0  0  0  0  0  0
   37.1930   24.2210   43.0140 H   0  0  0  0  0  0  0  0  0  0  0  0
   37.5400   26.5690   43.4110 H   0  0  0  0  0  0  0  0  0  0  0  0
   37.4290   30.6740   37.2680 C   0  0  0  0  0  0  0  0  0  0  0  0
   36.6710   31.1800   36.6470 H   0  0  0  0  0  0  0  0  0  0  0  0
   38.3040   30.4920   36.6320 H   0  0  0  0  0  0  0  0  0  0  0  0
   37.3240   32.9630   40.1440 C   0  0  0  0  0  0  0  0  0  0  0  0
   38.6730   33.2890   40.3560 C   0  0  0  0  0  0  0  0  0  0  0  0
   39.5870   32.7120   39.5030 C   0  0  0  0  0  0  0  0  0  0  0  0
   39.1700   31.8730   38.5160 N   0  0  0  0  0  0  0  0  0  0  0  0
   37.8710   31.5910   38.3520 C   0  0  0  0  0  0  0  0  0  0  0  0
   36.9470   32.1430   39.1740 N   0  0  0  0  0  0  0  0  0  0  0  0
   36.5510   33.3670   40.7620 H   0  0  0  0  0  0  0  0  0  0  0  0
   38.9700   34.1610   41.4060 N   0  0  0  0  0  0  0  0  0  0  0  0
   38.6230   34.1140   42.4040 H   0  0  0  0  0  0  0  0  0  0  0  0
   39.6190   34.9550   41.1600 H   0  0  0  0  0  0  0  0  0  0  0  0
   40.9990   33.0920   39.7780 C   0  0  0  0  0  2  0  0  0  0  0  0
   41.5990   33.9900   38.7410 C   0  0  0  0  0  2  0  0  0  0  0  0
   41.8470   35.0090   39.1230 H   0  0  0  0  0  0  0  0  0  0  0  0
  1  5  1  0  0  0  0
  2  1  2  0  0  0  0
  2  3  1  0  0  0  0
  3  4  2  0  0  0  0
  4  8  1  0  0  0  0
  5  4  1  0  0  0  0
  6  2  1  0  0  0  0
  7  3  1  0  0  0  0
  8 13  1  0  0  0  0
  9  8  2  0  0  0  0
  9 10  1  0  0  0  0
 10 11  2  0  0  0  0
 11 12  1  0  0  0  0
 11 16  1  0  0  0  0
 12 17  1  0  0  0  0
 13 12  2  0  0  0  0
 14  9  1  0  0  0  0
 15 10  1  0  0  0  0
 18  1  1  0  0  0  0
 18 25  1  0  0  0  0
 19 18  1  0  0  0  0
 20 18  1  0  0  0  0
 21 22  1  0  0  0  0
 21 27  1  0  0  0  0
 22 28  1  0  0  0  0
 23 31  1  0  0  0  0
 23 22  2  0  0  0  0
 24 23  1  0  0  0  0
 25 24  2  0  0  0  0
 25 26  1  0  0  0  0
 26 21  2  0  0  0  0
 28 29  1  0  0  0  0
 30 28  1  0  0  0  0
 32 33  1  0  0  0  0
 32 31  1  0  0  0  0
M  END
>  <minimizedAffinity>
-5.17866802

$$$$

 OpenBabel03242518223D

 33 35  0  0  0  0  0  0  0  0999 V2000
   36.4760   29.2590   40.8990 C   0  0  0  0  0  0  0  0  0  0  0  0
   37.1230   29.9660   41.8810 C   0  0  0  0  0  0  0  0  0  0  0  0
   37.9490   29.1070   42.5680 C   0  0  0  0  0  0  0  0  0  0  0  0
   37.7640   27.8840   41.9590 C   0  0  0  0  0  0  0  0  0  0  0  0
   36.9110   28.0490   41.0170 O   0  0  0  0  0  0  0  0  0  0  0  0
   36.9890   31.0390   42.0680 H   0  0  0  0  0  0  0  0  0  0  0  0
   38.5730   29.4130   43.3900 H   0  0  0  0  0  0  0  0  0  0  0  0
   38.4390   26.6520   42.3500 C   0  0  0  0  0  0  0  0  0  0  0  0
   38.1000   25.4520   41.7650 C   0  0  0  0  0  0  0  0  0  0  0  0
   38.6990   24.2480   42.0900 C   0  0  0  0  0  0  0  0  0  0  0  0
   39.6860   24.3630   43.0760 C   0  0  0  0  0  0  0  0  0  0  0  0
   40.0470   25.5370   43.6780 C   0  0  0  0  0  0  0  0  0  0  0  0
   39.3980   26.6570   43.2850 N   0  0  0  0  0  0  0  0  0  0  0  0
   37.3290   25.4120   41.0040 H   0  0  0  0  0  0  0  0  0  0  0  0
   38.4360   23.3050   41.6350 H   0  0  0  0  0  0  0  0  0  0  0  0
   40.2160   23.4730   43.4030 H   0  0  0  0  0  0  0  0  0  0  0  0
   40.8150   25.5660   44.4300 H   0  0  0  0  0  0  0  0  0  0  0  0
   35.4920   29.8500   39.9400 C   0  0  0  0  0  0  0  0  0  0  0  0
   35.3570   30.9320   40.1050 H   0  0  0  0  0  0  0  0  0  0  0  0
   34.5100   29.3770   40.0620 H   0  0  0  0  0  0  0  0  0  0  0  0
   37.5790   29.6560   36.9200 C   0  0  0  0  0  0  0  0  0  0  0  0
   36.6940   29.1840   35.9370 C   0  0  0  0  0  0  0  0  0  0  0  0
   35.4000   28.9440   36.3380 C   0  0  0  0  0  0  0  0  0  0  0  0
   35.0290   29.1630   37.6300 N   0  0  0  0  0  0  0  0  0  0  0  0
   35.9090   29.6140   38.5330 C   0  0  0  0  0  0  0  0  0  0  0  0
   37.1900   29.8600   38.1700 N   0  0  0  0  0  0  0  0  0  0  0  0
   38.6010   29.8660   36.6920 H   0  0  0  0  0  0  0  0  0  0  0  0
   37.1990   28.9990   34.6480 N   0  0  0  0  0  0  0  0  0  0  0  0
   38.0870   28.4960   34.3670 H   0  0  0  0  0  0  0  0  0  0  0  0
   36.6160   29.4120   33.8730 H   0  0  0  0  0  0  0  0  0  0  0  0
   34.5100   28.4440   35.2560 C   0  0  0  0  0  2  0  0  0  0  0  0
   33.2950   29.2890   35.0290 C   0  0  0  0  0  2  0  0  0  0  0  0
   33.2800   29.7900   34.0320 H   0  0  0  0  0  0  0  0  0  0  0  0
  1  5  1  0  0  0  0
  1  2  2  0  0  0  0
  2  6  1  0  0  0  0
  2  3  1  0  0  0  0
  3  7  1  0  0  0  0
  4  8  1  0  0  0  0
  4  3  2  0  0  0  0
  5  4  1  0  0  0  0
  8 13  1  0  0  0  0
  9 10  1  0  0  0  0
  9  8  2  0  0  0  0
 10 11  2  0  0  0  0
 11 16  1  0  0  0  0
 11 12  1  0  0  0  0
 12 17  1  0  0  0  0
 13 12  2  0  0  0  0
 14  9  1  0  0  0  0
 15 10  1  0  0  0  0
 18 20  1  0  0  0  0
 18 19  1  0  0  0  0
 18  1  1  0  0  0  0
 21 26  1  0  0  0  0
 22 23  1  0  0  0  0
 22 21  2  0  0  0  0
 23 24  2  0  0  0  0
 24 25  1  0  0  0  0
 25 18  1  0  0  0  0
 26 25  2  0  0  0  0
 27 21  1  0  0  0  0
 28 22  1  0  0  0  0
 29 28  1  0  0  0  0
 30 28  1  0  0  0  0
 31 23  1  0  0  0  0
 32 31  1  0  0  0  0
 33 32  1  0  0  0  0
M  END
>  <minimizedAffinity>
-5.13213396

$$$$
