
 OpenBabel03252501433D

 39 41  0  0  0  0  0  0  0  0999 V2000
   36.7150   27.8340   39.9480 Cl  0  0  0  0  0  0  0  0  0  0  0  0
   37.7890   27.6070   41.3190 C   0  0  0  0  0  0  0  0  0  0  0  0
   38.1800   28.6450   42.1560 C   0  0  0  0  0  0  0  0  0  0  0  0
   39.0140   28.4090   43.2050 C   0  0  0  0  0  0  0  0  0  0  0  0
   39.5160   27.1580   43.5010 C   0  0  0  0  0  0  0  0  0  0  0  0
   39.1380   26.0850   42.6710 C   0  0  0  0  0  0  0  0  0  0  0  0
   39.7270   24.4610   42.9700 Cl  0  0  0  0  0  0  0  0  0  0  0  0
   38.2920   26.3620   41.6180 C   0  0  0  0  0  0  0  0  0  0  0  0
   39.2960   29.2440   43.8360 H   0  0  0  0  0  0  0  0  0  0  0  0
   40.1780   26.9590   44.3280 H   0  0  0  0  0  0  0  0  0  0  0  0
   36.2020   24.7660   42.3150 F   0  0  0  0  0  0  0  0  0  0  0  0
   36.8290   24.4700   41.1280 C   0  0  0  0  0  0  0  0  0  0  0  0
   37.8900   25.2570   40.7460 C   0  0  0  0  0  0  0  0  0  0  0  0
   38.5080   24.9300   39.5340 C   0  0  0  0  0  0  0  0  0  0  0  0
   38.0270   23.8530   38.7990 C   0  0  0  0  0  0  0  0  0  0  0  0
   36.9470   23.0960   39.2450 C   0  0  0  0  0  0  0  0  0  0  0  0
   36.3080   23.3950   40.4500 C   0  0  0  0  0  0  0  0  0  0  0  0
   39.3430   25.5500   39.2340 H   0  0  0  0  0  0  0  0  0  0  0  0
   38.5160   23.6130   37.8640 H   0  0  0  0  0  0  0  0  0  0  0  0
   36.5760   22.2580   38.6680 H   0  0  0  0  0  0  0  0  0  0  0  0
   35.4660   22.8320   40.8290 H   0  0  0  0  0  0  0  0  0  0  0  0
   37.6620   29.9150   41.8460 O   0  0  0  0  0  0  0  0  0  0  0  0
   38.5240   30.8370   41.2470 C   0  0  0  0  0  0  0  0  0  0  0  0
   39.7230   31.1350   41.6100 O   0  0  0  0  0  0  0  0  0  0  0  0
   38.1110   31.5770   40.0980 N   0  0  0  0  0  0  0  0  0  0  0  0
   37.1880   31.4390   39.6340 H   0  0  0  0  0  0  0  0  0  0  0  0
   39.1620   32.5040   39.7200 C   0  0  0  0  0  0  0  0  0  0  0  0
   39.4050   33.7240   40.2680 C   0  0  0  0  0  0  0  0  0  0  0  0
   40.4590   34.4380   39.7550 C   0  0  0  0  0  0  0  0  0  0  0  0
   41.1750   33.8840   38.7520 N   0  0  0  0  0  0  0  0  0  0  0  0
   40.9090   32.6750   38.2320 C   0  0  0  0  0  0  0  0  0  0  0  0
   39.8680   31.9420   38.7210 N   0  0  0  0  0  0  0  0  0  0  0  0
   40.6670   35.4140   40.1820 H   0  0  0  0  0  0  0  0  0  0  0  0
   38.5580   34.1420   41.3070 N   0  0  0  0  0  0  0  0  0  0  0  0
   38.9200   34.7340   42.0970 H   0  0  0  0  0  0  0  0  0  0  0  0
   37.5440   33.8820   41.3300 H   0  0  0  0  0  0  0  0  0  0  0  0
   41.7890   32.1890   37.1220 C   0  0  0  0  0  2  0  0  0  0  0  0
   41.8170   30.6620   37.1020 C   0  0  0  0  0  2  0  0  0  0  0  0
   40.8320   30.3200   36.7120 H   0  0  0  0  0  0  0  0  0  0  0  0
  1  2  1  0  0  0  0
  2  8  2  0  0  0  0
  2  3  1  0  0  0  0
  3  4  2  0  0  0  0
  4  5  1  0  0  0  0
  4  9  1  0  0  0  0
  5 10  1  0  0  0  0
  6  7  1  0  0  0  0
  6  5  2  0  0  0  0
  8  6  1  0  0  0  0
 12 11  1  0  0  0  0
 13 12  1  0  0  0  0
 13  8  1  0  0  0  0
 14 13  2  0  0  0  0
 15 16  2  0  0  0  0
 15 14  1  0  0  0  0
 16 17  1  0  0  0  0
 17 21  1  0  0  0  0
 17 12  2  0  0  0  0
 18 14  1  0  0  0  0
 19 15  1  0  0  0  0
 20 16  1  0  0  0  0
 22  3  1  0  0  0  0
 23 24  2  0  0  0  0
 23 22  1  0  0  0  0
 25 23  1  0  0  0  0
 26 25  1  0  0  0  0
 27 25  1  0  0  0  0
 27 28  1  0  0  0  0
 28 34  1  0  0  0  0
 29 33  1  0  0  0  0
 29 28  2  0  0  0  0
 30 29  1  0  0  0  0
 31 32  1  0  0  0  0
 31 30  2  0  0  0  0
 32 27  2  0  0  0  0
 34 36  1  0  0  0  0
 34 35  1  0  0  0  0
 37 31  1  0  0  0  0
 38 37  1  0  0  0  0
 39 38  1  0  0  0  0
M  END
>  <minimizedAffinity>
-6.37620115

$$$$

 OpenBabel03252501433D

 39 41  0  0  0  0  0  0  0  0999 V2000
   39.1980   29.5470   42.2500 Cl  0  0  0  0  0  0  0  0  0  0  0  0
   38.0710   29.7950   40.9270 C   0  0  0  0  0  0  0  0  0  0  0  0
   37.7890   31.0480   40.3950 C   0  0  0  0  0  0  0  0  0  0  0  0
   36.9060   31.1790   39.3680 C   0  0  0  0  0  0  0  0  0  0  0  0
   36.2470   30.1090   38.8000 C   0  0  0  0  0  0  0  0  0  0  0  0
   36.5120   28.8250   39.3160 C   0  0  0  0  0  0  0  0  0  0  0  0
   35.7210   27.4060   38.6570 Cl  0  0  0  0  0  0  0  0  0  0  0  0
   37.4120   28.7300   40.3570 C   0  0  0  0  0  0  0  0  0  0  0  0
   36.7130   32.1720   38.9810 H   0  0  0  0  0  0  0  0  0  0  0  0
   35.5450   30.2000   37.9870 H   0  0  0  0  0  0  0  0  0  0  0  0
   35.9810   27.7900   42.4700 F   0  0  0  0  0  0  0  0  0  0  0  0
   36.9550   26.9590   41.9730 C   0  0  0  0  0  0  0  0  0  0  0  0
   37.6970   27.4030   40.9040 C   0  0  0  0  0  0  0  0  0  0  0  0
   38.6820   26.5340   40.4200 C   0  0  0  0  0  0  0  0  0  0  0  0
   38.8510   25.2980   41.0310 C   0  0  0  0  0  0  0  0  0  0  0  0
   38.0640   24.9090   42.1120 C   0  0  0  0  0  0  0  0  0  0  0  0
   37.0730   25.7520   42.6190 C   0  0  0  0  0  0  0  0  0  0  0  0
   39.2660   26.8850   39.5790 H   0  0  0  0  0  0  0  0  0  0  0  0
   39.6160   24.6370   40.6450 H   0  0  0  0  0  0  0  0  0  0  0  0
   38.2000   23.9450   42.5840 H   0  0  0  0  0  0  0  0  0  0  0  0
   36.4410   25.4870   43.4560 H   0  0  0  0  0  0  0  0  0  0  0  0
   38.4660   32.1330   40.9810 O   0  0  0  0  0  0  0  0  0  0  0  0
   39.5390   32.6820   40.2770 C   0  0  0  0  0  0  0  0  0  0  0  0
   39.7390   33.9240   40.0010 O   0  0  0  0  0  0  0  0  0  0  0  0
   40.5790   31.8450   39.7680 N   0  0  0  0  0  0  0  0  0  0  0  0
   40.6110   30.8160   39.9300 H   0  0  0  0  0  0  0  0  0  0  0  0
   41.5280   32.6550   39.0260 C   0  0  0  0  0  0  0  0  0  0  0  0
   41.4320   33.0290   37.7230 C   0  0  0  0  0  0  0  0  0  0  0  0
   42.4490   33.8020   37.2210 C   0  0  0  0  0  0  0  0  0  0  0  0
   43.4640   34.1340   38.0480 N   0  0  0  0  0  0  0  0  0  0  0  0
   43.5290   33.7480   39.3330 C   0  0  0  0  0  0  0  0  0  0  0  0
   42.5340   32.9800   39.8600 N   0  0  0  0  0  0  0  0  0  0  0  0
   42.3880   34.1100   36.1820 H   0  0  0  0  0  0  0  0  0  0  0  0
   40.3040   32.5930   37.0110 N   0  0  0  0  0  0  0  0  0  0  0  0
   39.8720   33.1900   36.2600 H   0  0  0  0  0  0  0  0  0  0  0  0
   39.8570   31.6650   37.1990 H   0  0  0  0  0  0  0  0  0  0  0  0
   44.7160   34.1920   40.1310 C   0  0  0  0  0  2  0  0  0  0  0  0
   44.2940   34.5320   41.5580 C   0  0  0  0  0  2  0  0  0  0  0  0
   44.0810   33.5690   42.0770 H   0  0  0  0  0  0  0  0  0  0  0  0
  2  1  1  0  0  0  0
  3  2  1  0  0  0  0
  3 22  1  0  0  0  0
  4  3  2  0  0  0  0
  5  6  2  0  0  0  0
  5  4  1  0  0  0  0
  6  8  1  0  0  0  0
  7  6  1  0  0  0  0
  8 13  1  0  0  0  0
  8  2  2  0  0  0  0
  9  4  1  0  0  0  0
 10  5  1  0  0  0  0
 12 11  1  0  0  0  0
 12 17  1  0  0  0  0
 13 12  2  0  0  0  0
 14 13  1  0  0  0  0
 14 15  2  0  0  0  0
 15 16  1  0  0  0  0
 16 20  1  0  0  0  0
 16 17  2  0  0  0  0
 17 21  1  0  0  0  0
 18 14  1  0  0  0  0
 19 15  1  0  0  0  0
 23 22  1  0  0  0  0
 24 23  2  0  0  0  0
 25 26  1  0  0  0  0
 25 23  1  0  0  0  0
 27 25  1  0  0  0  0
 27 32  1  0  0  0  0
 28 27  2  0  0  0  0
 29 28  1  0  0  0  0
 29 30  2  0  0  0  0
 30 31  1  0  0  0  0
 31 32  2  0  0  0  0
 31 37  1  0  0  0  0
 33 29  1  0  0  0  0
 34 36  1  0  0  0  0
 34 28  1  0  0  0  0
 35 34  1  0  0  0  0
 37 38  1  0  0  0  0
 38 39  1  0  0  0  0
M  END
>  <minimizedAffinity>
-6.32514572

$$$$

 OpenBabel03252501433D

 39 41  0  0  0  0  0  0  0  0999 V2000
   37.6760   28.6630   42.3010 Cl  0  0  0  0  0  0  0  0  0  0  0  0
   36.7470   28.4700   40.8240 C   0  0  0  0  0  0  0  0  0  0  0  0
   36.0900   29.5230   40.1990 C   0  0  0  0  0  0  0  0  0  0  0  0
   35.3850   29.3140   39.0540 C   0  0  0  0  0  0  0  0  0  0  0  0
   35.2750   28.0770   38.4520 C   0  0  0  0  0  0  0  0  0  0  0  0
   35.9310   26.9900   39.0610 C   0  0  0  0  0  0  0  0  0  0  0  0
   35.8480   25.3820   38.3680 Cl  0  0  0  0  0  0  0  0  0  0  0  0
   36.6360   27.2390   40.2200 C   0  0  0  0  0  0  0  0  0  0  0  0
   34.8860   30.1600   38.5960 H   0  0  0  0  0  0  0  0  0  0  0  0
   34.7190   27.8990   37.5460 H   0  0  0  0  0  0  0  0  0  0  0  0
   39.2070   26.6510   39.5550 F   0  0  0  0  0  0  0  0  0  0  0  0
   38.6220   25.8490   40.5050 C   0  0  0  0  0  0  0  0  0  0  0  0
   37.3230   26.1190   40.8650 C   0  0  0  0  0  0  0  0  0  0  0  0
   36.7550   25.2860   41.8350 C   0  0  0  0  0  0  0  0  0  0  0  0
   37.5170   24.2550   42.3700 C   0  0  0  0  0  0  0  0  0  0  0  0
   38.8300   24.0360   41.9610 C   0  0  0  0  0  0  0  0  0  0  0  0
   39.4270   24.8490   40.9950 C   0  0  0  0  0  0  0  0  0  0  0  0
   35.7320   25.4980   42.1180 H   0  0  0  0  0  0  0  0  0  0  0  0
   37.0640   23.6190   43.1200 H   0  0  0  0  0  0  0  0  0  0  0  0
   39.4190   23.2310   42.3820 H   0  0  0  0  0  0  0  0  0  0  0  0
   40.4430   24.7110   40.6510 H   0  0  0  0  0  0  0  0  0  0  0  0
   36.2070   30.7790   40.8200 O   0  0  0  0  0  0  0  0  0  0  0  0
   37.2080   31.6370   40.3600 C   0  0  0  0  0  0  0  0  0  0  0  0
   37.0960   32.5650   39.4730 O   0  0  0  0  0  0  0  0  0  0  0  0
   38.5370   31.5460   40.8760 N   0  0  0  0  0  0  0  0  0  0  0  0
   38.8080   30.8830   41.6330 H   0  0  0  0  0  0  0  0  0  0  0  0
   39.3870   32.4990   40.1870 C   0  0  0  0  0  0  0  0  0  0  0  0
   39.5470   33.8140   40.4910 C   0  0  0  0  0  0  0  0  0  0  0  0
   40.4070   34.5350   39.7020 C   0  0  0  0  0  0  0  0  0  0  0  0
   41.0290   33.8960   38.6870 N   0  0  0  0  0  0  0  0  0  0  0  0
   40.8490   32.5940   38.4120 C   0  0  0  0  0  0  0  0  0  0  0  0
   40.0000   31.8510   39.1790 N   0  0  0  0  0  0  0  0  0  0  0  0
   40.5480   35.5870   39.9320 H   0  0  0  0  0  0  0  0  0  0  0  0
   38.8200   34.3130   41.5840 N   0  0  0  0  0  0  0  0  0  0  0  0
   39.2180   35.0680   42.2000 H   0  0  0  0  0  0  0  0  0  0  0  0
   37.8660   33.9570   41.8210 H   0  0  0  0  0  0  0  0  0  0  0  0
   41.6050   32.0190   37.2550 C   0  0  0  0  0  2  0  0  0  0  0  0
   41.5530   30.4930   37.2960 C   0  0  0  0  0  2  0  0  0  0  0  0
   40.5210   30.1910   37.0030 H   0  0  0  0  0  0  0  0  0  0  0  0
  2  1  1  0  0  0  0
  3 22  1  0  0  0  0
  3  2  2  0  0  0  0
  4  3  1  0  0  0  0
  5  4  2  0  0  0  0
  5  6  1  0  0  0  0
  6  8  2  0  0  0  0
  7  6  1  0  0  0  0
  8  2  1  0  0  0  0
  8 13  1  0  0  0  0
  9  4  1  0  0  0  0
 10  5  1  0  0  0  0
 11 12  1  0  0  0  0
 12 13  2  0  0  0  0
 12 17  1  0  0  0  0
 13 14  1  0  0  0  0
 14 18  1  0  0  0  0
 14 15  2  0  0  0  0
 15 19  1  0  0  0  0
 16 15  1  0  0  0  0
 16 20  1  0  0  0  0
 17 16  2  0  0  0  0
 21 17  1  0  0  0  0
 23 22  1  0  0  0  0
 23 25  1  0  0  0  0
 24 23  2  0  0  0  0
 25 26  1  0  0  0  0
 27 28  1  0  0  0  0
 27 25  1  0  0  0  0
 28 34  1  0  0  0  0
 29 33  1  0  0  0  0
 29 28  2  0  0  0  0
 30 29  1  0  0  0  0
 31 30  2  0  0  0  0
 31 32  1  0  0  0  0
 32 27  2  0  0  0  0
 34 36  1  0  0  0  0
 34 35  1  0  0  0  0
 37 38  1  0  0  0  0
 37 31  1  0  0  0  0
 39 38  1  0  0  0  0
M  END
>  <minimizedAffinity>
-6.30780792

$$$$

 OpenBabel03252501433D

 39 41  0  0  0  0  0  0  0  0999 V2000
   36.4750   27.8010   40.0540 Cl  0  0  0  0  0  0  0  0  0  0  0  0
   37.5200   27.5860   41.4490 C   0  0  0  0  0  0  0  0  0  0  0  0
   37.8670   28.6240   42.3050 C   0  0  0  0  0  0  0  0  0  0  0  0
   38.6810   28.3980   43.3710 C   0  0  0  0  0  0  0  0  0  0  0  0
   39.2050   27.1560   43.6680 C   0  0  0  0  0  0  0  0  0  0  0  0
   38.8720   26.0830   42.8190 C   0  0  0  0  0  0  0  0  0  0  0  0
   39.4910   24.4700   43.1170 Cl  0  0  0  0  0  0  0  0  0  0  0  0
   38.0450   26.3500   41.7480 C   0  0  0  0  0  0  0  0  0  0  0  0
   38.9280   29.2330   44.0160 H   0  0  0  0  0  0  0  0  0  0  0  0
   39.8510   26.9640   44.5080 H   0  0  0  0  0  0  0  0  0  0  0  0
   39.5960   25.7910   39.5850 F   0  0  0  0  0  0  0  0  0  0  0  0
   38.4950   24.9890   39.7730 C   0  0  0  0  0  0  0  0  0  0  0  0
   37.6900   25.2450   40.8570 C   0  0  0  0  0  0  0  0  0  0  0  0
   36.5770   24.4110   41.0220 C   0  0  0  0  0  0  0  0  0  0  0  0
   36.3530   23.3950   40.1010 C   0  0  0  0  0  0  0  0  0  0  0  0
   37.2100   23.1900   39.0230 C   0  0  0  0  0  0  0  0  0  0  0  0
   38.3290   24.0040   38.8300 C   0  0  0  0  0  0  0  0  0  0  0  0
   35.9430   24.6130   41.8760 H   0  0  0  0  0  0  0  0  0  0  0  0
   35.4890   22.7580   40.2420 H   0  0  0  0  0  0  0  0  0  0  0  0
   37.0310   22.3960   38.3100 H   0  0  0  0  0  0  0  0  0  0  0  0
   39.0170   23.8770   38.0060 H   0  0  0  0  0  0  0  0  0  0  0  0
   37.3270   29.8860   41.9940 O   0  0  0  0  0  0  0  0  0  0  0  0
   38.1060   30.7500   41.2220 C   0  0  0  0  0  0  0  0  0  0  0  0
   37.9180   31.0830   39.9920 O   0  0  0  0  0  0  0  0  0  0  0  0
   39.2600   31.3820   41.7790 N   0  0  0  0  0  0  0  0  0  0  0  0
   39.5460   31.2670   42.7750 H   0  0  0  0  0  0  0  0  0  0  0  0
   39.9190   32.1690   40.7530 C   0  0  0  0  0  0  0  0  0  0  0  0
   39.7010   33.4800   40.4700 C   0  0  0  0  0  0  0  0  0  0  0  0
   40.4410   34.0280   39.4530 C   0  0  0  0  0  0  0  0  0  0  0  0
   41.3260   33.2350   38.8100 N   0  0  0  0  0  0  0  0  0  0  0  0
   41.5180   31.9420   39.1140 C   0  0  0  0  0  0  0  0  0  0  0  0
   40.7970   31.3680   40.1200 N   0  0  0  0  0  0  0  0  0  0  0  0
   40.2800   35.0750   39.2140 H   0  0  0  0  0  0  0  0  0  0  0  0
   38.7420   34.1540   41.2430 N   0  0  0  0  0  0  0  0  0  0  0  0
   38.8550   35.1720   41.4820 H   0  0  0  0  0  0  0  0  0  0  0  0
   37.8870   33.6710   41.6050 H   0  0  0  0  0  0  0  0  0  0  0  0
   42.5330   31.1850   38.3140 C   0  0  0  0  0  2  0  0  0  0  0  0
   42.3120   31.4210   36.8220 C   0  0  0  0  0  2  0  0  0  0  0  0
   42.6490   32.4600   36.6010 H   0  0  0  0  0  0  0  0  0  0  0  0
  1  2  1  0  0  0  0
  2  8  2  0  0  0  0
  2  3  1  0  0  0  0
  3  4  2  0  0  0  0
  4  5  1  0  0  0  0
  4  9  1  0  0  0  0
  5 10  1  0  0  0  0
  6  7  1  0  0  0  0
  6  5  2  0  0  0  0
  8  6  1  0  0  0  0
 11 12  1  0  0  0  0
 12 13  1  0  0  0  0
 13 14  2  0  0  0  0
 13  8  1  0  0  0  0
 14 18  1  0  0  0  0
 15 19  1  0  0  0  0
 15 14  1  0  0  0  0
 16 15  2  0  0  0  0
 17 16  1  0  0  0  0
 17 12  2  0  0  0  0
 20 16  1  0  0  0  0
 21 17  1  0  0  0  0
 22  3  1  0  0  0  0
 23 25  1  0  0  0  0
 23 22  1  0  0  0  0
 24 23  2  0  0  0  0
 25 26  1  0  0  0  0
 27 25  1  0  0  0  0
 28 27  1  0  0  0  0
 28 34  1  0  0  0  0
 29 28  2  0  0  0  0
 30 31  2  0  0  0  0
 30 29  1  0  0  0  0
 31 32  1  0  0  0  0
 32 27  2  0  0  0  0
 33 29  1  0  0  0  0
 34 35  1  0  0  0  0
 34 36  1  0  0  0  0
 37 31  1  0  0  0  0
 38 37  1  0  0  0  0
 39 38  1  0  0  0  0
M  END
>  <minimizedAffinity>
-6.19048262

$$$$

 OpenBabel03252501433D

 39 41  0  0  0  0  0  0  0  0999 V2000
   36.9530   26.8930   39.2960 Cl  0  0  0  0  0  0  0  0  0  0  0  0
   37.6590   26.9590   40.9020 C   0  0  0  0  0  0  0  0  0  0  0  0
   37.6160   28.0940   41.7030 C   0  0  0  0  0  0  0  0  0  0  0  0
   38.1800   28.0880   42.9410 C   0  0  0  0  0  0  0  0  0  0  0  0
   38.8190   26.9850   43.4710 C   0  0  0  0  0  0  0  0  0  0  0  0
   38.8800   25.8190   42.6840 C   0  0  0  0  0  0  0  0  0  0  0  0
   39.6700   24.3700   43.2750 Cl  0  0  0  0  0  0  0  0  0  0  0  0
   38.2970   25.8630   41.4350 C   0  0  0  0  0  0  0  0  0  0  0  0
   38.1260   28.9910   43.5360 H   0  0  0  0  0  0  0  0  0  0  0  0
   39.2710   26.9670   44.4500 H   0  0  0  0  0  0  0  0  0  0  0  0
   36.3010   24.0200   41.5710 F   0  0  0  0  0  0  0  0  0  0  0  0
   37.3270   23.7480   40.6980 C   0  0  0  0  0  0  0  0  0  0  0  0
   38.3520   24.6590   40.6040 C   0  0  0  0  0  0  0  0  0  0  0  0
   39.3810   24.3540   39.7070 C   0  0  0  0  0  0  0  0  0  0  0  0
   39.3120   23.1740   38.9760 C   0  0  0  0  0  0  0  0  0  0  0  0
   38.2440   22.2930   39.1190 C   0  0  0  0  0  0  0  0  0  0  0  0
   37.2000   22.5680   40.0060 C   0  0  0  0  0  0  0  0  0  0  0  0
   40.1890   25.0710   39.6340 H   0  0  0  0  0  0  0  0  0  0  0  0
   40.1160   22.9520   38.2860 H   0  0  0  0  0  0  0  0  0  0  0  0
   38.1950   21.3760   38.5470 H   0  0  0  0  0  0  0  0  0  0  0  0
   36.3530   21.9100   40.1450 H   0  0  0  0  0  0  0  0  0  0  0  0
   36.9630   29.2120   41.1540 O   0  0  0  0  0  0  0  0  0  0  0  0
   37.7520   30.2970   40.7670 C   0  0  0  0  0  0  0  0  0  0  0  0
   38.2490   30.5250   39.6000 O   0  0  0  0  0  0  0  0  0  0  0  0
   38.0980   31.3160   41.7060 N   0  0  0  0  0  0  0  0  0  0  0  0
   37.7510   31.3250   42.6880 H   0  0  0  0  0  0  0  0  0  0  0  0
   38.9720   32.2820   41.0660 C   0  0  0  0  0  0  0  0  0  0  0  0
   38.5930   33.3440   40.3080 C   0  0  0  0  0  0  0  0  0  0  0  0
   39.5920   34.1340   39.7980 C   0  0  0  0  0  0  0  0  0  0  0  0
   40.8720   33.8050   40.0830 N   0  0  0  0  0  0  0  0  0  0  0  0
   41.2140   32.7480   40.8370 C   0  0  0  0  0  0  0  0  0  0  0  0
   40.2430   31.9440   41.3570 N   0  0  0  0  0  0  0  0  0  0  0  0
   39.3070   34.9870   39.1910 H   0  0  0  0  0  0  0  0  0  0  0  0
   37.2150   33.5370   40.1150 N   0  0  0  0  0  0  0  0  0  0  0  0
   36.8090   34.5040   40.0330 H   0  0  0  0  0  0  0  0  0  0  0  0
   36.5500   32.7320   40.0460 H   0  0  0  0  0  0  0  0  0  0  0  0
   42.6730   32.5050   41.0690 C   0  0  0  0  0  2  0  0  0  0  0  0
   43.3520   33.7870   41.5470 C   0  0  0  0  0  2  0  0  0  0  0  0
   43.0300   33.9560   42.6000 H   0  0  0  0  0  0  0  0  0  0  0  0
  1  2  1  0  0  0  0
  2  8  2  0  0  0  0
  2  3  1  0  0  0  0
  3  4  2  0  0  0  0
  4  5  1  0  0  0  0
  4  9  1  0  0  0  0
  5 10  1  0  0  0  0
  6  7  1  0  0  0  0
  6  5  2  0  0  0  0
  8  6  1  0  0  0  0
 12 11  1  0  0  0  0
 13 12  1  0  0  0  0
 13  8  1  0  0  0  0
 14 13  2  0  0  0  0
 15 16  2  0  0  0  0
 15 14  1  0  0  0  0
 16 17  1  0  0  0  0
 17 21  1  0  0  0  0
 17 12  2  0  0  0  0
 18 14  1  0  0  0  0
 19 15  1  0  0  0  0
 20 16  1  0  0  0  0
 22  3  1  0  0  0  0
 23 22  1  0  0  0  0
 23 25  1  0  0  0  0
 24 23  2  0  0  0  0
 25 26  1  0  0  0  0
 27 32  1  0  0  0  0
 27 25  1  0  0  0  0
 28 27  2  0  0  0  0
 29 30  2  0  0  0  0
 29 28  1  0  0  0  0
 30 31  1  0  0  0  0
 31 37  1  0  0  0  0
 31 32  2  0  0  0  0
 33 29  1  0  0  0  0
 34 28  1  0  0  0  0
 35 34  1  0  0  0  0
 36 34  1  0  0  0  0
 37 38  1  0  0  0  0
 38 39  1  0  0  0  0
M  END
>  <minimizedAffinity>
-6.15299511

$$$$

 OpenBabel03252501433D

 39 41  0  0  0  0  0  0  0  0999 V2000
   38.9820   30.4040   42.7420 Cl  0  0  0  0  0  0  0  0  0  0  0  0
   38.1410   30.6900   41.2270 C   0  0  0  0  0  0  0  0  0  0  0  0
   38.1080   31.9300   40.6000 C   0  0  0  0  0  0  0  0  0  0  0  0
   37.4410   32.0930   39.4260 C   0  0  0  0  0  0  0  0  0  0  0  0
   36.7690   31.0670   38.7940 C   0  0  0  0  0  0  0  0  0  0  0  0
   36.7850   29.7970   39.4030 C   0  0  0  0  0  0  0  0  0  0  0  0
   35.9590   28.4340   38.6720 Cl  0  0  0  0  0  0  0  0  0  0  0  0
   37.4710   29.6700   40.5930 C   0  0  0  0  0  0  0  0  0  0  0  0
   37.4380   33.0740   38.9680 H   0  0  0  0  0  0  0  0  0  0  0  0
   36.2360   31.1820   37.8640 H   0  0  0  0  0  0  0  0  0  0  0  0
   39.3850   27.8570   39.9220 F   0  0  0  0  0  0  0  0  0  0  0  0
   38.4770   27.4640   40.8760 C   0  0  0  0  0  0  0  0  0  0  0  0
   37.4960   28.3570   41.2390 C   0  0  0  0  0  0  0  0  0  0  0  0
   36.5870   27.9280   42.2120 C   0  0  0  0  0  0  0  0  0  0  0  0
   36.7220   26.6530   42.7470 C   0  0  0  0  0  0  0  0  0  0  0  0
   37.7410   25.7970   42.3350 C   0  0  0  0  0  0  0  0  0  0  0  0
   38.6640   26.1940   41.3660 C   0  0  0  0  0  0  0  0  0  0  0  0
   35.8140   28.6310   42.4970 H   0  0  0  0  0  0  0  0  0  0  0  0
   36.0120   26.3350   43.5000 H   0  0  0  0  0  0  0  0  0  0  0  0
   37.8410   24.8050   42.7560 H   0  0  0  0  0  0  0  0  0  0  0  0
   39.4680   25.5600   41.0200 H   0  0  0  0  0  0  0  0  0  0  0  0
   38.7960   32.9690   41.2530 O   0  0  0  0  0  0  0  0  0  0  0  0
   40.0920   33.2590   40.8200 C   0  0  0  0  0  0  0  0  0  0  0  0
   40.4550   34.1910   40.0090 O   0  0  0  0  0  0  0  0  0  0  0  0
   41.2010   32.4840   41.2790 N   0  0  0  0  0  0  0  0  0  0  0  0
   41.1070   31.7140   41.9750 H   0  0  0  0  0  0  0  0  0  0  0  0
   42.4120   32.9490   40.6300 C   0  0  0  0  0  0  0  0  0  0  0  0
   43.2610   33.9080   41.0850 C   0  0  0  0  0  0  0  0  0  0  0  0
   44.3550   34.1920   40.3070 C   0  0  0  0  0  0  0  0  0  0  0  0
   44.5110   33.5050   39.1540 N   0  0  0  0  0  0  0  0  0  0  0  0
   43.6540   32.5620   38.7320 C   0  0  0  0  0  0  0  0  0  0  0  0
   42.5570   32.2580   39.4840 N   0  0  0  0  0  0  0  0  0  0  0  0
   45.0440   34.9550   40.6560 H   0  0  0  0  0  0  0  0  0  0  0  0
   42.9430   34.5200   42.3080 N   0  0  0  0  0  0  0  0  0  0  0  0
   43.6980   34.8340   42.9700 H   0  0  0  0  0  0  0  0  0  0  0  0
   41.9520   34.6850   42.6010 H   0  0  0  0  0  0  0  0  0  0  0  0
   43.9550   31.8830   37.4320 C   0  0  0  0  0  2  0  0  0  0  0  0
   42.6770   31.3030   36.8310 C   0  0  0  0  0  2  0  0  0  0  0  0
   42.0740   32.1590   36.4500 H   0  0  0  0  0  0  0  0  0  0  0  0
  2  1  1  0  0  0  0
  3  2  1  0  0  0  0
  3 22  1  0  0  0  0
  4  3  2  0  0  0  0
  5  6  2  0  0  0  0
  5  4  1  0  0  0  0
  6  8  1  0  0  0  0
  7  6  1  0  0  0  0
  8  2  2  0  0  0  0
  8 13  1  0  0  0  0
  9  4  1  0  0  0  0
 10  5  1  0  0  0  0
 11 12  1  0  0  0  0
 12 13  2  0  0  0  0
 12 17  1  0  0  0  0
 13 14  1  0  0  0  0
 14 18  1  0  0  0  0
 14 15  2  0  0  0  0
 15 19  1  0  0  0  0
 16 15  1  0  0  0  0
 16 20  1  0  0  0  0
 17 16  2  0  0  0  0
 21 17  1  0  0  0  0
 23 22  1  0  0  0  0
 23 25  1  0  0  0  0
 24 23  2  0  0  0  0
 25 26  1  0  0  0  0
 27 28  1  0  0  0  0
 27 25  1  0  0  0  0
 28 34  1  0  0  0  0
 29 33  1  0  0  0  0
 29 28  2  0  0  0  0
 30 29  1  0  0  0  0
 31 30  2  0  0  0  0
 31 32  1  0  0  0  0
 32 27  2  0  0  0  0
 34 36  1  0  0  0  0
 34 35  1  0  0  0  0
 37 31  1  0  0  0  0
 38 37  1  0  0  0  0
 39 38  1  0  0  0  0
M  END
>  <minimizedAffinity>
-6.10895491

$$$$

 OpenBabel03252501433D

 39 41  0  0  0  0  0  0  0  0999 V2000
   37.5690   31.4040   40.7970 Cl  0  0  0  0  0  0  0  0  0  0  0  0
   38.0580   29.8710   41.4980 C   0  0  0  0  0  0  0  0  0  0  0  0
   39.0650   29.7590   42.4490 C   0  0  0  0  0  0  0  0  0  0  0  0
   39.4020   28.5430   42.9590 C   0  0  0  0  0  0  0  0  0  0  0  0
   38.7850   27.3690   42.5750 C   0  0  0  0  0  0  0  0  0  0  0  0
   37.7610   27.4500   41.6120 C   0  0  0  0  0  0  0  0  0  0  0  0
   36.9220   26.0110   41.0640 Cl  0  0  0  0  0  0  0  0  0  0  0  0
   37.4470   28.6980   41.1190 C   0  0  0  0  0  0  0  0  0  0  0  0
   40.1910   28.4960   43.6990 H   0  0  0  0  0  0  0  0  0  0  0  0
   39.0430   26.4000   42.9700 H   0  0  0  0  0  0  0  0  0  0  0  0
   38.0360   28.4420   38.4760 F   0  0  0  0  0  0  0  0  0  0  0  0
   36.7170   28.6640   38.7900 C   0  0  0  0  0  0  0  0  0  0  0  0
   36.3850   28.7980   40.1170 C   0  0  0  0  0  0  0  0  0  0  0  0
   35.0330   29.0230   40.4050 C   0  0  0  0  0  0  0  0  0  0  0  0
   34.1230   29.0960   39.3580 C   0  0  0  0  0  0  0  0  0  0  0  0
   34.5270   28.9510   38.0340 C   0  0  0  0  0  0  0  0  0  0  0  0
   35.8670   28.7260   37.7120 C   0  0  0  0  0  0  0  0  0  0  0  0
   34.7720   29.1290   41.4500 H   0  0  0  0  0  0  0  0  0  0  0  0
   33.0810   29.2700   39.5970 H   0  0  0  0  0  0  0  0  0  0  0  0
   33.8130   29.0080   37.2220 H   0  0  0  0  0  0  0  0  0  0  0  0
   36.2200   28.6070   36.6970 H   0  0  0  0  0  0  0  0  0  0  0  0
   39.6870   30.9600   42.8340 O   0  0  0  0  0  0  0  0  0  0  0  0
   40.7200   31.4410   42.0270 C   0  0  0  0  0  0  0  0  0  0  0  0
   41.7650   30.8010   41.6310 O   0  0  0  0  0  0  0  0  0  0  0  0
   40.6970   32.7840   41.5400 N   0  0  0  0  0  0  0  0  0  0  0  0
   39.9080   33.4400   41.7210 H   0  0  0  0  0  0  0  0  0  0  0  0
   41.9110   33.0430   40.7890 C   0  0  0  0  0  0  0  0  0  0  0  0
   43.1070   33.4470   41.2920 C   0  0  0  0  0  0  0  0  0  0  0  0
   44.1290   33.6330   40.3960 C   0  0  0  0  0  0  0  0  0  0  0  0
   43.8780   33.4040   39.0880 N   0  0  0  0  0  0  0  0  0  0  0  0
   42.6830   33.0060   38.6220 C   0  0  0  0  0  0  0  0  0  0  0  0
   41.6490   32.8130   39.4890 N   0  0  0  0  0  0  0  0  0  0  0  0
   45.0920   33.9540   40.7810 H   0  0  0  0  0  0  0  0  0  0  0  0
   43.1890   33.6350   42.6810 N   0  0  0  0  0  0  0  0  0  0  0  0
   44.0780   33.4280   43.2050 H   0  0  0  0  0  0  0  0  0  0  0  0
   42.3770   33.9860   43.2390 H   0  0  0  0  0  0  0  0  0  0  0  0
   42.5510   32.7920   37.1450 C   0  0  0  0  0  2  0  0  0  0  0  0
   42.8390   31.3340   36.7960 C   0  0  0  0  0  2  0  0  0  0  0  0
   41.9660   30.7340   37.1420 H   0  0  0  0  0  0  0  0  0  0  0  0
  1  2  1  0  0  0  0
  2  3  1  0  0  0  0
  3 22  1  0  0  0  0
  3  4  2  0  0  0  0
  4  9  1  0  0  0  0
  5  4  1  0  0  0  0
  5 10  1  0  0  0  0
  6  5  2  0  0  0  0
  7  6  1  0  0  0  0
  8  2  2  0  0  0  0
  8  6  1  0  0  0  0
 11 12  1  0  0  0  0
 12 13  1  0  0  0  0
 13 14  2  0  0  0  0
 13  8  1  0  0  0  0
 14 18  1  0  0  0  0
 15 19  1  0  0  0  0
 15 14  1  0  0  0  0
 16 15  2  0  0  0  0
 17 16  1  0  0  0  0
 17 12  2  0  0  0  0
 20 16  1  0  0  0  0
 21 17  1  0  0  0  0
 23 22  1  0  0  0  0
 24 23  2  0  0  0  0
 25 26  1  0  0  0  0
 25 23  1  0  0  0  0
 27 28  1  0  0  0  0
 27 25  1  0  0  0  0
 28 34  1  0  0  0  0
 29 33  1  0  0  0  0
 29 28  2  0  0  0  0
 30 29  1  0  0  0  0
 31 30  2  0  0  0  0
 31 32  1  0  0  0  0
 32 27  2  0  0  0  0
 34 35  1  0  0  0  0
 34 36  1  0  0  0  0
 37 31  1  0  0  0  0
 38 39  1  0  0  0  0
 38 37  1  0  0  0  0
M  END
>  <minimizedAffinity>
-6.03906727

$$$$

 OpenBabel03252501433D

 39 41  0  0  0  0  0  0  0  0999 V2000
   37.2310   27.9040   39.4660 Cl  0  0  0  0  0  0  0  0  0  0  0  0
   38.2390   28.1380   40.8840 C   0  0  0  0  0  0  0  0  0  0  0  0
   38.6890   29.3860   41.2980 C   0  0  0  0  0  0  0  0  0  0  0  0
   39.4680   29.5070   42.4070 C   0  0  0  0  0  0  0  0  0  0  0  0
   39.8560   28.4290   43.1750 C   0  0  0  0  0  0  0  0  0  0  0  0
   39.4160   27.1490   42.7820 C   0  0  0  0  0  0  0  0  0  0  0  0
   39.8600   25.7210   43.6970 Cl  0  0  0  0  0  0  0  0  0  0  0  0
   38.6290   27.0660   41.6530 C   0  0  0  0  0  0  0  0  0  0  0  0
   39.7980   30.4970   42.6980 H   0  0  0  0  0  0  0  0  0  0  0  0
   40.4740   28.5110   44.0550 H   0  0  0  0  0  0  0  0  0  0  0  0
   40.1610   25.5460   39.9980 F   0  0  0  0  0  0  0  0  0  0  0  0
   38.9630   25.0010   40.3950 C   0  0  0  0  0  0  0  0  0  0  0  0
   38.1640   25.7430   41.2320 C   0  0  0  0  0  0  0  0  0  0  0  0
   36.9510   25.1620   41.6190 C   0  0  0  0  0  0  0  0  0  0  0  0
   36.6280   23.8960   41.1470 C   0  0  0  0  0  0  0  0  0  0  0  0
   37.4850   23.1970   40.3000 C   0  0  0  0  0  0  0  0  0  0  0  0
   38.7020   23.7490   39.8950 C   0  0  0  0  0  0  0  0  0  0  0  0
   36.3220   25.7470   42.2780 H   0  0  0  0  0  0  0  0  0  0  0  0
   35.6870   23.4590   41.4550 H   0  0  0  0  0  0  0  0  0  0  0  0
   37.2280   22.2110   39.9350 H   0  0  0  0  0  0  0  0  0  0  0  0
   39.3940   23.2380   39.2380 H   0  0  0  0  0  0  0  0  0  0  0  0
   38.2880   30.4790   40.5090 O   0  0  0  0  0  0  0  0  0  0  0  0
   39.2800   31.3540   40.0620 C   0  0  0  0  0  0  0  0  0  0  0  0
   39.3800   32.6140   40.3100 O   0  0  0  0  0  0  0  0  0  0  0  0
   40.3430   30.8840   39.2320 N   0  0  0  0  0  0  0  0  0  0  0  0
   40.4530   29.8830   38.9610 H   0  0  0  0  0  0  0  0  0  0  0  0
   41.1910   32.0010   38.8600 C   0  0  0  0  0  0  0  0  0  0  0  0
   41.1090   32.7400   37.7220 C   0  0  0  0  0  0  0  0  0  0  0  0
   42.0180   33.7570   37.5730 C   0  0  0  0  0  0  0  0  0  0  0  0
   42.9220   33.9520   38.5580 N   0  0  0  0  0  0  0  0  0  0  0  0
   42.9770   33.2040   39.6710 C   0  0  0  0  0  0  0  0  0  0  0  0
   42.0880   32.1850   39.8470 N   0  0  0  0  0  0  0  0  0  0  0  0
   41.9660   34.3580   36.6700 H   0  0  0  0  0  0  0  0  0  0  0  0
   40.1030   32.3960   36.8040 N   0  0  0  0  0  0  0  0  0  0  0  0
   39.6250   33.1310   36.2240 H   0  0  0  0  0  0  0  0  0  0  0  0
   39.7980   31.4050   36.6660 H   0  0  0  0  0  0  0  0  0  0  0  0
   44.0350   33.5360   40.6780 C   0  0  0  0  0  2  0  0  0  0  0  0
   43.4010   33.7990   42.0420 C   0  0  0  0  0  2  0  0  0  0  0  0
   43.0710   32.8150   42.4470 H   0  0  0  0  0  0  0  0  0  0  0  0
  1  2  1  0  0  0  0
  2  3  2  0  0  0  0
  2  8  1  0  0  0  0
  3  4  1  0  0  0  0
  4  9  1  0  0  0  0
  4  5  2  0  0  0  0
  5 10  1  0  0  0  0
  6  5  1  0  0  0  0
  6  7  1  0  0  0  0
  8  6  2  0  0  0  0
 11 12  1  0  0  0  0
 12 13  1  0  0  0  0
 13 14  2  0  0  0  0
 13  8  1  0  0  0  0
 14 18  1  0  0  0  0
 15 19  1  0  0  0  0
 15 14  1  0  0  0  0
 16 15  2  0  0  0  0
 17 16  1  0  0  0  0
 17 12  2  0  0  0  0
 20 16  1  0  0  0  0
 21 17  1  0  0  0  0
 22  3  1  0  0  0  0
 23 24  2  0  0  0  0
 23 22  1  0  0  0  0
 25 23  1  0  0  0  0
 26 25  1  0  0  0  0
 27 25  1  0  0  0  0
 27 32  1  0  0  0  0
 28 27  2  0  0  0  0
 29 28  1  0  0  0  0
 29 30  2  0  0  0  0
 30 31  1  0  0  0  0
 31 32  2  0  0  0  0
 31 37  1  0  0  0  0
 33 29  1  0  0  0  0
 34 28  1  0  0  0  0
 35 34  1  0  0  0  0
 36 34  1  0  0  0  0
 37 38  1  0  0  0  0
 38 39  1  0  0  0  0
M  END
>  <minimizedAffinity>
-5.93065357

$$$$

 OpenBabel03252501433D

 39 41  0  0  0  0  0  0  0  0999 V2000
   36.5740   27.8140   41.6670 Cl  0  0  0  0  0  0  0  0  0  0  0  0
   38.2590   27.3430   41.5130 C   0  0  0  0  0  0  0  0  0  0  0  0
   39.3000   28.0420   42.1120 C   0  0  0  0  0  0  0  0  0  0  0  0
   40.5870   27.6300   41.9590 C   0  0  0  0  0  0  0  0  0  0  0  0
   40.9390   26.5210   41.2170 C   0  0  0  0  0  0  0  0  0  0  0  0
   39.9070   25.7900   40.5980 C   0  0  0  0  0  0  0  0  0  0  0  0
   40.2590   24.3670   39.6370 Cl  0  0  0  0  0  0  0  0  0  0  0  0
   38.6140   26.2380   40.7760 C   0  0  0  0  0  0  0  0  0  0  0  0
   41.3710   28.2020   42.4410 H   0  0  0  0  0  0  0  0  0  0  0  0
   41.9550   26.1840   41.0870 H   0  0  0  0  0  0  0  0  0  0  0  0
   37.4070   24.1920   42.1010 F   0  0  0  0  0  0  0  0  0  0  0  0
   36.9420   24.4610   40.8360 C   0  0  0  0  0  0  0  0  0  0  0  0
   37.5310   25.4890   40.1380 C   0  0  0  0  0  0  0  0  0  0  0  0
   37.0350   25.7380   38.8530 C   0  0  0  0  0  0  0  0  0  0  0  0
   36.0000   24.9510   38.3640 C   0  0  0  0  0  0  0  0  0  0  0  0
   35.4480   23.9240   39.1250 C   0  0  0  0  0  0  0  0  0  0  0  0
   35.9190   23.6490   40.4100 C   0  0  0  0  0  0  0  0  0  0  0  0
   37.4990   26.5470   38.3040 H   0  0  0  0  0  0  0  0  0  0  0  0
   35.6270   25.1560   37.3690 H   0  0  0  0  0  0  0  0  0  0  0  0
   34.6410   23.3150   38.7380 H   0  0  0  0  0  0  0  0  0  0  0  0
   35.5170   22.8600   41.0320 H   0  0  0  0  0  0  0  0  0  0  0  0
   38.9310   29.1710   42.8650 O   0  0  0  0  0  0  0  0  0  0  0  0
   39.1750   30.4290   42.3090 C   0  0  0  0  0  0  0  0  0  0  0  0
   39.5910   31.4850   42.9180 O   0  0  0  0  0  0  0  0  0  0  0  0
   38.9670   30.6600   40.9150 N   0  0  0  0  0  0  0  0  0  0  0  0
   38.6720   29.9110   40.2530 H   0  0  0  0  0  0  0  0  0  0  0  0
   39.2280   32.0550   40.6150 C   0  0  0  0  0  0  0  0  0  0  0  0
   38.3030   33.0290   40.4090 C   0  0  0  0  0  0  0  0  0  0  0  0
   38.7750   34.2890   40.1380 C   0  0  0  0  0  0  0  0  0  0  0  0
   40.1130   34.4720   40.0960 N   0  0  0  0  0  0  0  0  0  0  0  0
   41.0020   33.4880   40.3040 C   0  0  0  0  0  0  0  0  0  0  0  0
   40.5630   32.2250   40.5750 N   0  0  0  0  0  0  0  0  0  0  0  0
   38.0500   35.0790   39.9720 H   0  0  0  0  0  0  0  0  0  0  0  0
   36.9510   32.6590   40.4920 N   0  0  0  0  0  0  0  0  0  0  0  0
   36.2280   33.3270   40.8630 H   0  0  0  0  0  0  0  0  0  0  0  0
   36.6180   31.7150   40.1900 H   0  0  0  0  0  0  0  0  0  0  0  0
   42.4560   33.8380   40.2250 C   0  0  0  0  0  2  0  0  0  0  0  0
   42.9860   34.2040   41.6100 C   0  0  0  0  0  2  0  0  0  0  0  0
   43.0620   33.2580   42.1930 H   0  0  0  0  0  0  0  0  0  0  0  0
  2  1  1  0  0  0  0
  2  3  1  0  0  0  0
  3 22  1  0  0  0  0
  4  3  2  0  0  0  0
  4  9  1  0  0  0  0
  5  4  1  0  0  0  0
  6  8  1  0  0  0  0
  6  5  2  0  0  0  0
  7  6  1  0  0  0  0
  8  2  2  0  0  0  0
 10  5  1  0  0  0  0
 12 11  1  0  0  0  0
 13  8  1  0  0  0  0
 13 12  2  0  0  0  0
 14 13  1  0  0  0  0
 15 14  2  0  0  0  0
 15 16  1  0  0  0  0
 16 17  2  0  0  0  0
 17 12  1  0  0  0  0
 17 21  1  0  0  0  0
 18 14  1  0  0  0  0
 19 15  1  0  0  0  0
 20 16  1  0  0  0  0
 23 22  1  0  0  0  0
 23 24  2  0  0  0  0
 25 23  1  0  0  0  0
 26 25  1  0  0  0  0
 27 25  1  0  0  0  0
 28 34  1  0  0  0  0
 28 27  2  0  0  0  0
 29 28  1  0  0  0  0
 30 29  2  0  0  0  0
 30 31  1  0  0  0  0
 31 32  2  0  0  0  0
 32 27  1  0  0  0  0
 33 29  1  0  0  0  0
 34 35  1  0  0  0  0
 36 34  1  0  0  0  0
 37 31  1  0  0  0  0
 37 38  1  0  0  0  0
 38 39  1  0  0  0  0
M  END
>  <minimizedAffinity>
-5.92235231

$$$$
