
     RDKit          3D

 23 24  0  0  0  0  0  0  0  0999 V2000
   44.5928   35.9029   44.3101 C   0  0  0  0  0  0  0  0  0  0  0  0
   45.3335   35.9188   43.1130 C   0  0  0  0  0  0  0  0  0  0  0  0
   46.3009   34.9178   43.0330 C   0  0  0  0  0  0  0  0  0  0  0  0
   46.4782   34.0117   44.0663 N   0  0  0  0  0  0  0  0  0  0  0  0
   45.7354   34.0521   45.1807 C   0  0  0  0  0  0  0  0  0  0  0  0
   44.7845   35.0151   45.2915 N   0  0  0  0  0  0  0  0  0  0  0  0
   47.0827   34.7968   41.7442 C   0  0  0  0  0  0  0  0  0  0  0  0
   48.4606   35.4679   41.8911 C   0  0  0  0  0  0  0  0  0  0  0  0
   48.2284   33.9310   41.7281 C   0  0  0  0  0  0  0  0  0  0  0  0
   43.8088   36.6661   44.4459 H   0  0  0  0  0  0  0  0  0  0  0  0
   46.0004   33.2867   45.8701 H   0  0  0  0  0  0  0  0  0  0  0  0
   46.6081   35.2360   40.8418 H   0  0  0  0  0  0  0  0  0  0  0  0
   48.7647   35.7941   42.8993 H   0  0  0  0  0  0  0  0  0  0  0  0
   48.8975   35.9627   41.0080 H   0  0  0  0  0  0  0  0  0  0  0  0
   48.6557   33.4912   40.7923 H   0  0  0  0  0  0  0  0  0  0  0  0
   48.4497   33.3270   42.6575 H   0  0  0  0  0  0  0  0  0  0  0  0
   45.1043   36.8993   42.0571 C   0  0  0  0  0  0  0  0  0  0  0  0
   44.6856   36.3504   40.7362 C   0  0  0  0  0  0  0  0  0  0  0  0
   44.6981   35.2422   40.6757 H   0  0  0  0  0  0  0  0  0  0  0  0
   45.9932   37.5770   41.9776 H   0  0  0  0  0  0  0  0  0  0  0  0
   44.2846   37.5798   42.4206 H   0  0  0  0  0  0  0  0  0  0  0  0
   43.6403   36.6446   40.4630 H   0  0  0  0  0  0  0  0  0  0  0  0
   45.3281   36.8074   39.9669 H   0  0  0  0  0  0  0  0  0  0  0  0
  1  6  2  0
  2  1  1  0
  3  2  2  0
  3  4  1  0
  4  5  2  0
  5  6  1  0
  7  8  1  0
  7  9  1  0
  7  3  1  0
  8  9  1  0
  1 10  1  0
  5 11  1  0
  7 12  1  0
  8 13  1  0
  8 14  1  0
  9 15  1  0
  9 16  1  0
 17 18  1  0
 18 19  1  0
 17 20  1  0
 17 21  1  0
 18 22  1  0
 18 23  1  0
  2 17  1  0
M  ISO  8  10  14  11  14  12  13  13  13  14  13  15  13  16  13  19   8
M  END
>  <DihAtoms>  (1) 
0,1,16,17

>  <DihDeg>  (1) 
-103.84718633504322

$$$$
