
 OpenBabel03252505383D

 15 15  0  0  0  0  0  0  0  0999 V2000
   46.0950   34.8240   43.1100 C   0  0  0  0  0  0  0  0  0  0  0  0
   45.1880   35.8780   43.3210 C   0  0  0  0  0  0  0  0  0  0  0  0
   44.5640   35.9340   44.5590 C   0  0  0  0  0  0  0  0  0  0  0  0
   44.8430   34.9900   45.4990 N   0  0  0  0  0  0  0  0  0  0  0  0
   45.7250   33.9920   45.2490 C   0  0  0  0  0  0  0  0  0  0  0  0
   46.3420   33.9190   44.0600 N   0  0  0  0  0  0  0  0  0  0  0  0
   44.9550   36.6400   42.5780 H   0  0  0  0  0  0  0  0  0  0  0  0
   43.8480   36.7400   44.7650 H   0  0  0  0  0  0  0  0  0  0  0  0
   45.9080   33.0560   46.3850 C   0  0  0  0  0  0  0  0  0  0  0  0
   47.1510   33.1260   46.9340 F   0  0  0  0  0  0  0  0  0  0  0  0
   45.6520   31.7460   45.9640 F   0  0  0  0  0  0  0  0  0  0  0  0
   44.9200   33.3080   47.3480 F   0  0  0  0  0  0  0  0  0  0  0  0
   46.7650   34.7650   41.7830 C   0  0  0  0  0  0  0  0  0  0  0  0
   48.1860   35.2820   41.9960 C   0  0  0  0  0  0  0  0  0  0  0  0
   48.8340   35.0450   41.1300 H   0  0  0  0  0  0  0  0  0  0  0  0
  1  2  2  0  0  0  0
  1  6  1  0  0  0  0
  2  3  1  0  0  0  0
  3  8  1  0  0  0  0
  3  4  2  0  0  0  0
  5  4  1  0  0  0  0
  5  9  1  0  0  0  0
  6  5  2  0  0  0  0
  7  2  1  0  0  0  0
  9 10  1  0  0  0  0
  9 12  1  0  0  0  0
 11  9  1  0  0  0  0
 13 14  1  0  0  0  0
 13  1  1  0  0  0  0
 15 14  1  0  0  0  0
M  END
>  <minimizedAffinity>
-4.4613452

>  <minimizedRMSD>
2.97937751

$$$$
