
     RDKit          3D

 23 24  0  0  0  0  0  0  0  0999 V2000
   44.5951   35.7991   44.7284 C   0  0  0  0  0  0  0  0  0  0  0  0
   45.2762   35.5659   43.5130 C   0  0  0  0  0  0  0  0  0  0  0  0
   46.1324   34.4508   43.4185 C   0  0  0  0  0  0  0  0  0  0  0  0
   46.2513   33.6519   44.5289 N   0  0  0  0  0  0  0  0  0  0  0  0
   45.5767   33.9224   45.6638 C   0  0  0  0  0  0  0  0  0  0  0  0
   44.7475   34.9904   45.7760 N   0  0  0  0  0  0  0  0  0  0  0  0
   45.8577   32.9308   46.7193 C   0  0  0  0  0  0  0  0  0  0  0  0
   45.0993   32.7777   47.9092 C   0  0  0  0  0  0  0  0  0  0  0  0
   45.4941   31.8129   48.7785 C   0  0  0  0  0  0  0  0  0  0  0  0
   46.6200   31.0147   48.4737 C   0  0  0  0  0  0  0  0  0  0  0  0
   47.1606   31.6624   46.8577 S   0  0  0  0  0  0  0  0  0  0  0  0
   43.9552   36.6513   44.7662 H   0  0  0  0  0  0  0  0  0  0  0  0
   45.1841   36.1899   42.6438 H   0  0  0  0  0  0  0  0  0  0  0  0
   46.6906   34.1954   42.5342 H   0  0  0  0  0  0  0  0  0  0  0  0
   44.2601   33.4146   48.0769 H   0  0  0  0  0  0  0  0  0  0  0  0
   44.9903   31.6139   49.7062 H   0  0  0  0  0  0  0  0  0  0  0  0
   47.2322   29.9572   49.1966 C   0  0  0  0  0  0  0  0  0  0  0  0
   47.8889   28.9442   48.3012 C   0  0  0  0  0  0  0  0  0  0  0  0
   47.8725   29.2473   47.2220 H   0  0  0  0  0  0  0  0  0  0  0  0
   47.9723   30.3888   49.9100 H   0  0  0  0  0  0  0  0  0  0  0  0
   46.4715   29.4625   49.8405 H   0  0  0  0  0  0  0  0  0  0  0  0
   48.9300   28.7240   48.6216 H   0  0  0  0  0  0  0  0  0  0  0  0
   47.3249   27.9663   48.3037 H   0  0  0  0  0  0  0  0  0  0  0  0
  1  6  2  0
  2  1  1  0
  3  2  2  0
  3  4  1  0
  4  5  2  0
  5  6  1  0
  5  7  1  0
  7 11  1  0
  7  8  2  0
  8  9  1  0
 10  9  2  0
 11 10  1  0
  1 12  1  0
  2 13  1  0
  3 14  1  0
  8 15  1  0
  9 16  1  0
 17 18  1  0
 18 19  1  0
 17 20  1  0
 17 21  1  0
 18 22  1  0
 18 23  1  0
 10 17  1  0
M  ISO  6  12  14  13  14  14  14  15  14  16  14  19   8
M  END
>  <DihAtoms>  (1) 
8,9,16,17

>  <DihDeg>  (1) 
-89.99912139647577

$$$$
