
 OpenBabel03252507253D

 21 22  0  0  0  0  0  0  0  0999 V2000
   45.9040   33.7310   45.5390 C   0  0  0  0  0  0  0  0  0  0  0  0
   44.9040   34.6680   45.8380 C   0  0  0  0  0  0  0  0  0  0  0  0
   44.5800   35.6000   44.8510 C   0  0  0  0  0  0  0  0  0  0  0  0
   45.2480   35.5520   43.6520 N   0  0  0  0  0  0  0  0  0  0  0  0
   46.2030   34.6270   43.4190 C   0  0  0  0  0  0  0  0  0  0  0  0
   46.5250   33.7320   44.3470 N   0  0  0  0  0  0  0  0  0  0  0  0
   44.3710   34.7280   46.7560 H   0  0  0  0  0  0  0  0  0  0  0  0
   43.8430   36.3640   44.9440 H   0  0  0  0  0  0  0  0  0  0  0  0
   46.8840   34.6180   42.1290 C   0  0  0  0  0  0  0  0  0  0  0  0
   48.0380   35.3600   41.9500 C   0  0  0  0  0  0  0  0  0  0  0  0
   48.7630   35.4290   40.7830 C   0  0  0  0  0  0  0  0  0  0  0  0
   48.2340   34.6660   39.7420 C   0  0  0  0  0  0  0  0  0  0  0  0
   47.0770   33.9150   39.9030 C   0  0  0  0  0  0  0  0  0  0  0  0
   46.4140   33.9010   41.0980 N   0  0  0  0  0  0  0  0  0  0  0  0
   48.3960   35.9290   42.7960 H   0  0  0  0  0  0  0  0  0  0  0  0
   49.6470   36.0230   40.7160 H   0  0  0  0  0  0  0  0  0  0  0  0
   48.7520   34.6710   38.7920 H   0  0  0  0  0  0  0  0  0  0  0  0
   46.7260   33.3470   39.0470 H   0  0  0  0  0  0  0  0  0  0  0  0
   46.2080   32.7630   46.6280 C   0  0  0  0  0  0  0  0  0  0  0  0
   45.2060   32.7820   47.7390 C   0  0  0  0  0  0  0  0  0  0  0  0
   45.3330   31.8220   48.3110 H   0  0  0  0  0  0  0  0  0  0  0  0
  1  2  1  0  0  0  0
  1 19  1  0  0  0  0
  2  7  1  0  0  0  0
  3  8  1  0  0  0  0
  3  2  2  0  0  0  0
  4  3  1  0  0  0  0
  5  4  2  0  0  0  0
  5  6  1  0  0  0  0
  6  1  2  0  0  0  0
  9  5  1  0  0  0  0
 10  9  1  0  0  0  0
 10 15  1  0  0  0  0
 11 10  2  0  0  0  0
 12 13  2  0  0  0  0
 12 11  1  0  0  0  0
 13 14  1  0  0  0  0
 14  9  2  0  0  0  0
 16 11  1  0  0  0  0
 17 12  1  0  0  0  0
 18 13  1  0  0  0  0
 19 20  1  0  0  0  0
 20 21  1  0  0  0  0
M  END
>  <minimizedAffinity>
-5.01471615

>  <minimizedRMSD>
0.303348511

$$$$
