
 OpenBabel03252508383D

 35 37  0  0  0  0  0  0  0  0999 V2000
   45.1140   33.9600   40.7350 C   0  0  0  0  0  0  0  0  0  0  0  0
   44.0740   33.6360   39.9010 C   0  0  0  0  0  0  0  0  0  0  0  0
   44.3750   33.1350   38.6670 C   0  0  0  0  0  0  0  0  0  0  0  0
   45.6600   32.9380   38.2190 C   0  0  0  0  0  0  0  0  0  0  0  0
   46.6880   33.2650   39.0650 C   0  0  0  0  0  0  0  0  0  0  0  0
   46.4360   33.7780   40.3320 C   0  0  0  0  0  0  0  0  0  0  0  0
   43.5210   32.8930   38.0430 H   0  0  0  0  0  0  0  0  0  0  0  0
   45.8440   32.5400   37.2370 H   0  0  0  0  0  0  0  0  0  0  0  0
   47.7090   33.1140   38.7260 H   0  0  0  0  0  0  0  0  0  0  0  0
   40.7910   35.2630   40.7990 C   0  0  0  0  0  0  0  0  0  0  0  0
   42.0880   35.1010   40.2860 C   0  0  0  0  0  0  0  0  0  0  0  0
   42.7350   33.8560   40.4130 C   0  0  0  0  0  0  0  0  0  0  0  0
   42.0160   32.8860   41.0480 N   0  0  0  0  0  0  0  0  0  0  0  0
   40.7840   33.0710   41.5240 C   0  0  0  0  0  0  0  0  0  0  0  0
   40.1740   34.2670   41.3970 N   0  0  0  0  0  0  0  0  0  0  0  0
   40.1920   36.5360   40.6420 N   0  0  0  0  0  0  0  0  0  0  0  0
   42.6220   35.9060   39.7900 H   0  0  0  0  0  0  0  0  0  0  0  0
   40.2250   32.2920   42.0270 H   0  0  0  0  0  0  0  0  0  0  0  0
   40.7600   37.3970   40.4870 H   0  0  0  0  0  0  0  0  0  0  0  0
   39.1810   36.7570   40.6620 H   0  0  0  0  0  0  0  0  0  0  0  0
   47.5880   34.0970   41.1490 C   0  0  0  0  0  0  0  0  0  0  0  0
   48.1420   35.3460   40.9270 C   0  0  0  0  0  0  0  0  0  0  0  0
   49.2530   35.8320   41.6150 C   0  0  0  0  0  0  0  0  0  0  0  0
   49.8170   35.0040   42.5670 C   0  0  0  0  0  0  0  0  0  0  0  0
   49.2780   33.7610   42.7990 C   0  0  0  0  0  0  0  0  0  0  0  0
   48.1660   33.2980   42.0960 C   0  0  0  0  0  0  0  0  0  0  0  0
   47.7310   36.0440   40.1790 H   0  0  0  0  0  0  0  0  0  0  0  0
   49.6490   36.8140   41.4040 H   0  0  0  0  0  0  0  0  0  0  0  0
   50.6770   35.4090   43.0830 H   0  0  0  0  0  0  0  0  0  0  0  0
   49.7610   33.1560   43.5550 H   0  0  0  0  0  0  0  0  0  0  0  0
   47.6260   31.9450   42.3570 C   0  0  0  0  0  2  0  0  0  0  0  0
   46.9020   31.7640   43.6360 C   0  0  0  0  0  2  0  0  0  0  0  0
   47.0450   30.7190   44.0340 H   0  0  0  0  0  0  0  0  0  0  0  0
   44.6960   34.9150   43.1170 N   0  0  0  0  0  0  0  0  0  0  0  0
   44.8820   34.4940   42.0440 C   0  0  0  0  0  0  0  0  0  0  0  0
  1 35  1  0  0  0  0
  2 12  1  0  0  0  0
  2  1  2  0  0  0  0
  3  2  1  0  0  0  0
  4  3  2  0  0  0  0
  4  5  1  0  0  0  0
  5  6  2  0  0  0  0
  6  1  1  0  0  0  0
  6 21  1  0  0  0  0
  7  3  1  0  0  0  0
  8  4  1  0  0  0  0
  9  5  1  0  0  0  0
 10 15  1  0  0  0  0
 11 12  1  0  0  0  0
 11 10  2  0  0  0  0
 12 13  2  0  0  0  0
 13 14  1  0  0  0  0
 14 18  1  0  0  0  0
 15 14  2  0  0  0  0
 16 20  1  0  0  0  0
 16 10  1  0  0  0  0
 17 11  1  0  0  0  0
 19 16  1  0  0  0  0
 21 26  1  0  0  0  0
 22 21  2  0  0  0  0
 22 23  1  0  0  0  0
 23 24  2  0  0  0  0
 24 25  1  0  0  0  0
 24 29  1  0  0  0  0
 25 30  1  0  0  0  0
 26 31  1  0  0  0  0
 26 25  2  0  0  0  0
 27 22  1  0  0  0  0
 28 23  1  0  0  0  0
 31 32  1  0  0  0  0
 32 33  1  0  0  0  0
 35 34  3  0  0  0  0
M  END
>  <minimizedAffinity>
-5.80505848

>  <minimizedRMSD>
0.253523499

$$$$
