
     RDKit          3D

 39 41  0  0  0  0  0  0  0  0999 V2000
   45.1257   33.9435   40.7109 C   0  0  0  0  0  0  0  0  0  0  0  0
   44.0832   33.6387   39.8732 C   0  0  0  0  0  0  0  0  0  0  0  0
   44.3803   33.1591   38.6299 C   0  0  0  0  0  0  0  0  0  0  0  0
   45.6631   32.9658   38.1747 C   0  0  0  0  0  0  0  0  0  0  0  0
   46.6939   33.2751   39.0250 C   0  0  0  0  0  0  0  0  0  0  0  0
   46.4474   33.7664   40.3007 C   0  0  0  0  0  0  0  0  0  0  0  0
   40.7979   35.2531   40.7872 C   0  0  0  0  0  0  0  0  0  0  0  0
   42.0928   35.0961   40.2670 C   0  0  0  0  0  0  0  0  0  0  0  0
   42.7456   33.8541   40.3934 C   0  0  0  0  0  0  0  0  0  0  0  0
   42.0349   32.8821   41.0326 N   0  0  0  0  0  0  0  0  0  0  0  0
   40.8054   33.0621   41.5162 C   0  0  0  0  0  0  0  0  0  0  0  0
   40.1889   34.2546   41.3902 N   0  0  0  0  0  0  0  0  0  0  0  0
   40.1931   36.5228   40.6320 N   0  0  0  0  0  0  0  0  0  0  0  0
   47.6015   34.0661   41.1209 C   0  0  0  0  0  0  0  0  0  0  0  0
   48.1248   35.3376   40.9614 C   0  0  0  0  0  0  0  0  0  0  0  0
   49.2332   35.8108   41.6617 C   0  0  0  0  0  0  0  0  0  0  0  0
   49.8279   34.9462   42.5606 C   0  0  0  0  0  0  0  0  0  0  0  0
   49.3203   33.6799   42.7307 C   0  0  0  0  0  0  0  0  0  0  0  0
   48.2090   33.2301   42.0162 C   0  0  0  0  0  0  0  0  0  0  0  0
   44.7171   34.8578   43.1108 N   0  0  0  0  0  0  0  0  0  0  0  0
   44.8988   34.4551   42.0298 C   0  0  0  0  0  0  0  0  0  0  0  0
   43.5231   32.9309   38.0036 H   0  0  0  0  0  0  0  0  0  0  0  0
   45.8428   32.5856   37.1856 H   0  0  0  0  0  0  0  0  0  0  0  0
   47.7144   33.1269   38.6800 H   0  0  0  0  0  0  0  0  0  0  0  0
   42.6213   35.9023   39.7675 H   0  0  0  0  0  0  0  0  0  0  0  0
   40.2524   32.2814   42.0228 H   0  0  0  0  0  0  0  0  0  0  0  0
   40.7556   37.3858   40.4720 H   0  0  0  0  0  0  0  0  0  0  0  0
   39.1806   36.7399   40.6573 H   0  0  0  0  0  0  0  0  0  0  0  0
   47.6894   36.0659   40.2571 H   0  0  0  0  0  0  0  0  0  0  0  0
   49.6045   36.8123   41.5004 H   0  0  0  0  0  0  0  0  0  0  0  0
   50.6855   35.3421   43.0876 H   0  0  0  0  0  0  0  0  0  0  0  0
   49.8259   33.0462   43.4471 H   0  0  0  0  0  0  0  0  0  0  0  0
   47.7028   31.8534   42.2085 C   0  0  0  0  0  0  0  0  0  0  0  0
   48.7175   30.7745   42.1871 C   0  0  0  0  0  0  0  0  0  0  0  0
   48.2856   29.8254   41.7563 H   0  0  0  0  0  0  0  0  0  0  0  0
   46.9614   31.6412   41.3857 H   0  0  0  0  0  0  0  0  0  0  0  0
   47.1028   31.7474   43.1359 H   0  0  0  0  0  0  0  0  0  0  0  0
   49.6539   30.9816   41.6589 H   0  0  0  0  0  0  0  0  0  0  0  0
   48.9617   30.4688   43.2471 H   0  0  0  0  0  0  0  0  0  0  0  0
  1 21  1  0
  2  9  1  0
  2  1  2  0
  3  2  1  0
  4  3  2  0
  4  5  1  0
  5  6  2  0
  6  1  1  0
  6 14  1  0
  7 12  2  0
  8  9  2  0
  8  7  1  0
  9 10  1  0
 10 11  2  0
 12 11  1  0
 13  7  1  0
 14 19  1  0
 15 14  2  0
 15 16  1  0
 16 17  2  0
 17 18  1  0
 19 18  2  0
 21 20  3  0
  3 22  1  0
  4 23  1  0
  5 24  1  0
  8 25  1  0
 11 26  1  0
 13 27  1  0
 13 28  1  0
 15 29  1  0
 16 30  1  0
 17 31  1  0
 18 32  1  0
 33 34  1  0
 34 35  1  0
 33 36  1  0
 33 37  1  0
 34 38  1  0
 34 39  1  0
 19 33  1  0
M  ISO  8  22  14  23  14  24  14  25  14  26  14  29  14  30  14  31  14
M  ISO  2  32  14  35   8
M  END
>  <DihAtoms>  (1) 
13,18,32,33

>  <DihDeg>  (1) 
-78.06398323585097

$$$$
