
 OpenBabel03252500113D

 25 26  0  0  0  0  0  0  0  0999 V2000
   39.2240   30.3060   42.5640 Cl  0  0  0  0  0  0  0  0  0  0  0  0
   37.8220   30.0760   41.5680 C   0  0  0  0  0  0  0  0  0  0  0  0
   37.5600   30.9060   40.5000 C   0  0  0  0  0  0  0  0  0  0  0  0
   36.4450   30.7470   39.6850 C   0  0  0  0  0  0  0  0  0  0  0  0
   35.6070   29.6980   40.0100 C   0  0  0  0  0  0  0  0  0  0  0  0
   35.8540   28.8630   41.0710 C   0  0  0  0  0  0  0  0  0  0  0  0
   36.9450   29.0420   41.8440 C   0  0  0  0  0  0  0  0  0  0  0  0
   36.2430   31.4010   38.8480 H   0  0  0  0  0  0  0  0  0  0  0  0
   34.7140   29.4930   39.4370 H   0  0  0  0  0  0  0  0  0  0  0  0
   35.1810   28.0400   41.3140 H   0  0  0  0  0  0  0  0  0  0  0  0
   39.2740   34.1610   40.6550 C   0  0  0  0  0  0  0  0  0  0  0  0
   40.2580   34.0380   39.6550 C   0  0  0  0  0  0  0  0  0  0  0  0
   40.3180   32.8460   38.9470 C   0  0  0  0  0  0  0  0  0  0  0  0
   39.4380   31.8530   39.2370 N   0  0  0  0  0  0  0  0  0  0  0  0
   38.4920   32.0000   40.2160 C   0  0  0  0  0  0  0  0  0  0  0  0
   38.4210   33.1500   40.9110 N   0  0  0  0  0  0  0  0  0  0  0  0
   39.2340   35.0940   41.1970 H   0  0  0  0  0  0  0  0  0  0  0  0
   40.9690   34.8110   39.4030 H   0  0  0  0  0  0  0  0  0  0  0  0
   41.3200   32.5850   37.8500 C   0  0  0  0  0  0  0  0  0  0  0  0
   41.7740   33.7680   37.3080 F   0  0  0  0  0  0  0  0  0  0  0  0
   42.3980   31.8930   38.3830 F   0  0  0  0  0  0  0  0  0  0  0  0
   40.6790   31.8160   36.9100 F   0  0  0  0  0  0  0  0  0  0  0  0
   37.2620   28.1500   43.0180 C   0  0  0  0  0  2  0  0  0  0  0  0
   37.2110   26.6930   42.5880 C   0  0  0  0  0  2  0  0  0  0  0  0
   36.5920   26.5630   41.6700 H   0  0  0  0  0  0  0  0  0  0  0  0
  2  7  1  0  0  0  0
  2  1  1  0  0  0  0
  3  2  2  0  0  0  0
  4  5  2  0  0  0  0
  4  3  1  0  0  0  0
  5  6  1  0  0  0  0
  6 10  1  0  0  0  0
  6  7  2  0  0  0  0
  7 23  1  0  0  0  0
  8  4  1  0  0  0  0
  9  5  1  0  0  0  0
 11 16  1  0  0  0  0
 11 17  1  0  0  0  0
 12 11  2  0  0  0  0
 13 14  2  0  0  0  0
 13 12  1  0  0  0  0
 14 15  1  0  0  0  0
 15  3  1  0  0  0  0
 15 16  2  0  0  0  0
 18 12  1  0  0  0  0
 19 21  1  0  0  0  0
 19 13  1  0  0  0  0
 20 19  1  0  0  0  0
 22 19  1  0  0  0  0
 24 23  1  0  0  0  0
 25 24  1  0  0  0  0
M  END
>  <minimizedAffinity>
-5.14063072

$$$$

 OpenBabel03252500113D

 25 26  0  0  0  0  0  0  0  0999 V2000
   37.7880   29.3800   37.4430 Cl  0  0  0  0  0  0  0  0  0  0  0  0
   36.0710   29.1430   37.3610 C   0  0  0  0  0  0  0  0  0  0  0  0
   35.2980   29.1130   38.5020 C   0  0  0  0  0  0  0  0  0  0  0  0
   33.9220   28.9240   38.4690 C   0  0  0  0  0  0  0  0  0  0  0  0
   33.3660   28.7680   37.2140 C   0  0  0  0  0  0  0  0  0  0  0  0
   34.1220   28.7960   36.0680 C   0  0  0  0  0  0  0  0  0  0  0  0
   35.4570   28.9820   36.1320 C   0  0  0  0  0  0  0  0  0  0  0  0
   33.3200   28.9010   39.3670 H   0  0  0  0  0  0  0  0  0  0  0  0
   32.3040   28.6160   37.0830 H   0  0  0  0  0  0  0  0  0  0  0  0
   33.6670   28.6710   35.0850 H   0  0  0  0  0  0  0  0  0  0  0  0
   36.9520   30.6690   41.4020 C   0  0  0  0  0  0  0  0  0  0  0  0
   37.1930   29.5670   42.2460 C   0  0  0  0  0  0  0  0  0  0  0  0
   36.7860   28.3140   41.8090 C   0  0  0  0  0  0  0  0  0  0  0  0
   36.1790   28.1940   40.6000 N   0  0  0  0  0  0  0  0  0  0  0  0
   35.9560   29.2830   39.8000 C   0  0  0  0  0  0  0  0  0  0  0  0
   36.3450   30.5050   40.2090 N   0  0  0  0  0  0  0  0  0  0  0  0
   37.2760   31.6390   41.7490 H   0  0  0  0  0  0  0  0  0  0  0  0
   37.6740   29.6340   43.2100 H   0  0  0  0  0  0  0  0  0  0  0  0
   36.9850   27.0530   42.6130 C   0  0  0  0  0  0  0  0  0  0  0  0
   38.2470   27.0190   43.1670 F   0  0  0  0  0  0  0  0  0  0  0  0
   36.0460   27.0190   43.6330 F   0  0  0  0  0  0  0  0  0  0  0  0
   36.7880   26.0040   41.7500 F   0  0  0  0  0  0  0  0  0  0  0  0
   36.3290   29.0230   34.9040 C   0  0  0  0  0  2  0  0  0  0  0  0
   36.0340   30.2810   34.1020 C   0  0  0  0  0  2  0  0  0  0  0  0
   35.0220   30.6840   34.3400 H   0  0  0  0  0  0  0  0  0  0  0  0
  2  1  1  0  0  0  0
  2  3  1  0  0  0  0
  3 15  1  0  0  0  0
  4  3  2  0  0  0  0
  4  8  1  0  0  0  0
  5  4  1  0  0  0  0
  6  7  1  0  0  0  0
  6  5  2  0  0  0  0
  7  2  2  0  0  0  0
  9  5  1  0  0  0  0
 10  6  1  0  0  0  0
 11 17  1  0  0  0  0
 11 12  1  0  0  0  0
 12 18  1  0  0  0  0
 13 12  2  0  0  0  0
 13 19  1  0  0  0  0
 14 13  1  0  0  0  0
 15 16  1  0  0  0  0
 15 14  2  0  0  0  0
 16 11  2  0  0  0  0
 19 20  1  0  0  0  0
 19 21  1  0  0  0  0
 22 19  1  0  0  0  0
 23  7  1  0  0  0  0
 24 25  1  0  0  0  0
 24 23  1  0  0  0  0
M  END
>  <minimizedAffinity>
-5.13074636

$$$$

 OpenBabel03252500113D

 25 26  0  0  0  0  0  0  0  0999 V2000
   40.4770   28.6010   41.2100 Cl  0  0  0  0  0  0  0  0  0  0  0  0
   38.9760   28.2240   41.9930 C   0  0  0  0  0  0  0  0  0  0  0  0
   37.7880   28.7770   41.5660 C   0  0  0  0  0  0  0  0  0  0  0  0
   36.5710   28.4960   42.1730 C   0  0  0  0  0  0  0  0  0  0  0  0
   36.6180   27.6190   43.2400 C   0  0  0  0  0  0  0  0  0  0  0  0
   37.7930   27.0590   43.6770 C   0  0  0  0  0  0  0  0  0  0  0  0
   38.9600   27.3510   43.0670 C   0  0  0  0  0  0  0  0  0  0  0  0
   35.6410   28.9320   41.8350 H   0  0  0  0  0  0  0  0  0  0  0  0
   35.7240   27.3370   43.7770 H   0  0  0  0  0  0  0  0  0  0  0  0
   37.8130   26.3690   44.5220 H   0  0  0  0  0  0  0  0  0  0  0  0
   37.6290   30.0910   38.1290 C   0  0  0  0  0  0  0  0  0  0  0  0
   37.8690   31.4660   38.3150 C   0  0  0  0  0  0  0  0  0  0  0  0
   38.0800   31.9190   39.6090 C   0  0  0  0  0  0  0  0  0  0  0  0
   38.0500   31.0340   40.6390 N   0  0  0  0  0  0  0  0  0  0  0  0
   37.8130   29.7020   40.4300 C   0  0  0  0  0  0  0  0  0  0  0  0
   37.6060   29.2470   39.1800 N   0  0  0  0  0  0  0  0  0  0  0  0
   37.4690   29.7480   37.1180 H   0  0  0  0  0  0  0  0  0  0  0  0
   37.9000   32.1910   37.5140 H   0  0  0  0  0  0  0  0  0  0  0  0
   38.3500   33.3650   39.9460 C   0  0  0  0  0  0  0  0  0  0  0  0
   37.2850   34.1610   39.5830 F   0  0  0  0  0  0  0  0  0  0  0  0
   38.5480   33.4760   41.3140 F   0  0  0  0  0  0  0  0  0  0  0  0
   39.4930   33.7160   39.2700 F   0  0  0  0  0  0  0  0  0  0  0  0
   40.2750   26.7610   43.5070 C   0  0  0  0  0  2  0  0  0  0  0  0
   40.2540   25.2520   43.3160 C   0  0  0  0  0  2  0  0  0  0  0  0
   39.2100   24.8640   43.2820 H   0  0  0  0  0  0  0  0  0  0  0  0
  1  2  1  0  0  0  0
  2  7  1  0  0  0  0
  3  2  2  0  0  0  0
  3  4  1  0  0  0  0
  4  5  2  0  0  0  0
  5  6  1  0  0  0  0
  5  9  1  0  0  0  0
  6 10  1  0  0  0  0
  7 23  1  0  0  0  0
  7  6  2  0  0  0  0
  8  4  1  0  0  0  0
 11 12  2  0  0  0  0
 11 16  1  0  0  0  0
 12 13  1  0  0  0  0
 13 19  1  0  0  0  0
 13 14  2  0  0  0  0
 15 14  1  0  0  0  0
 15  3  1  0  0  0  0
 16 15  2  0  0  0  0
 17 11  1  0  0  0  0
 18 12  1  0  0  0  0
 19 21  1  0  0  0  0
 20 19  1  0  0  0  0
 22 19  1  0  0  0  0
 24 23  1  0  0  0  0
 25 24  1  0  0  0  0
M  END
>  <minimizedAffinity>
-5.09434319

$$$$

 OpenBabel03252500113D

 25 26  0  0  0  0  0  0  0  0999 V2000
   39.2090   27.5520   40.0660 Cl  0  0  0  0  0  0  0  0  0  0  0  0
   38.1920   27.4950   41.4710 C   0  0  0  0  0  0  0  0  0  0  0  0
   38.1580   28.5370   42.3720 C   0  0  0  0  0  0  0  0  0  0  0  0
   37.3550   28.5200   43.5050 C   0  0  0  0  0  0  0  0  0  0  0  0
   36.5820   27.3880   43.6790 C   0  0  0  0  0  0  0  0  0  0  0  0
   36.6050   26.3410   42.7900 C   0  0  0  0  0  0  0  0  0  0  0  0
   37.3950   26.3860   41.6980 C   0  0  0  0  0  0  0  0  0  0  0  0
   37.3310   29.3400   44.2100 H   0  0  0  0  0  0  0  0  0  0  0  0
   35.9250   27.2800   44.5290 H   0  0  0  0  0  0  0  0  0  0  0  0
   35.9890   25.4540   42.9430 H   0  0  0  0  0  0  0  0  0  0  0  0
   41.0660   30.7970   42.3380 C   0  0  0  0  0  0  0  0  0  0  0  0
   40.5730   31.9200   41.6460 C   0  0  0  0  0  0  0  0  0  0  0  0
   39.2590   31.8850   41.2040 C   0  0  0  0  0  0  0  0  0  0  0  0
   38.5010   30.7850   41.4500 N   0  0  0  0  0  0  0  0  0  0  0  0
   39.0060   29.7060   42.1250 C   0  0  0  0  0  0  0  0  0  0  0  0
   40.2800   29.7240   42.5600 N   0  0  0  0  0  0  0  0  0  0  0  0
   42.0890   30.8360   42.6810 H   0  0  0  0  0  0  0  0  0  0  0  0
   41.1530   32.8080   41.4380 H   0  0  0  0  0  0  0  0  0  0  0  0
   38.6070   33.0210   40.4540 C   0  0  0  0  0  0  0  0  0  0  0  0
   39.1090   33.1150   39.1740 F   0  0  0  0  0  0  0  0  0  0  0  0
   37.2420   32.7870   40.3850 F   0  0  0  0  0  0  0  0  0  0  0  0
   38.8580   34.1610   41.1770 F   0  0  0  0  0  0  0  0  0  0  0  0
   37.4530   25.2660   40.6920 C   0  0  0  0  0  2  0  0  0  0  0  0
   36.9810   23.9700   41.3330 C   0  0  0  0  0  2  0  0  0  0  0  0
   37.0730   24.0120   42.4430 H   0  0  0  0  0  0  0  0  0  0  0  0
  1  2  1  0  0  0  0
  2  7  2  0  0  0  0
  2  3  1  0  0  0  0
  3  4  2  0  0  0  0
  4  5  1  0  0  0  0
  4  8  1  0  0  0  0
  5  9  1  0  0  0  0
  6 10  1  0  0  0  0
  6  5  2  0  0  0  0
  7  6  1  0  0  0  0
 11 16  1  0  0  0  0
 11 17  1  0  0  0  0
 12 11  2  0  0  0  0
 13 14  2  0  0  0  0
 13 12  1  0  0  0  0
 14 15  1  0  0  0  0
 15  3  1  0  0  0  0
 15 16  2  0  0  0  0
 18 12  1  0  0  0  0
 19 22  1  0  0  0  0
 19 13  1  0  0  0  0
 20 19  1  0  0  0  0
 21 19  1  0  0  0  0
 23 24  1  0  0  0  0
 23  7  1  0  0  0  0
 24 25  1  0  0  0  0
M  END
>  <minimizedAffinity>
-5.06254768

$$$$

 OpenBabel03252500113D

 25 26  0  0  0  0  0  0  0  0999 V2000
   37.3900   28.1960   39.2160 Cl  0  0  0  0  0  0  0  0  0  0  0  0
   37.4310   28.1230   40.9490 C   0  0  0  0  0  0  0  0  0  0  0  0
   37.6670   29.2500   41.7060 C   0  0  0  0  0  0  0  0  0  0  0  0
   37.7070   29.2230   43.0950 C   0  0  0  0  0  0  0  0  0  0  0  0
   37.4930   27.9890   43.6790 C   0  0  0  0  0  0  0  0  0  0  0  0
   37.2580   26.8570   42.9380 C   0  0  0  0  0  0  0  0  0  0  0  0
   37.2250   26.9150   41.5910 C   0  0  0  0  0  0  0  0  0  0  0  0
   37.8910   30.1090   43.6860 H   0  0  0  0  0  0  0  0  0  0  0  0
   37.5050   27.8650   44.7520 H   0  0  0  0  0  0  0  0  0  0  0  0
   37.0930   25.8910   43.4160 H   0  0  0  0  0  0  0  0  0  0  0  0
   37.0340   32.4460   39.9910 C   0  0  0  0  0  0  0  0  0  0  0  0
   38.3350   32.9160   39.7260 C   0  0  0  0  0  0  0  0  0  0  0  0
   39.4030   32.1330   40.1380 C   0  0  0  0  0  0  0  0  0  0  0  0
   39.1620   30.9560   40.7730 N   0  0  0  0  0  0  0  0  0  0  0  0
   37.8870   30.5250   41.0180 C   0  0  0  0  0  0  0  0  0  0  0  0
   36.8390   31.2730   40.6250 N   0  0  0  0  0  0  0  0  0  0  0  0
   36.2090   33.0620   39.6630 H   0  0  0  0  0  0  0  0  0  0  0  0
   38.5550   33.8460   39.2220 H   0  0  0  0  0  0  0  0  0  0  0  0
   40.8450   32.5170   39.9150 C   0  0  0  0  0  0  0  0  0  0  0  0
   41.6390   31.3960   39.7980 F   0  0  0  0  0  0  0  0  0  0  0  0
   40.9350   33.2550   38.7440 F   0  0  0  0  0  0  0  0  0  0  0  0
   41.2160   33.2850   40.9910 F   0  0  0  0  0  0  0  0  0  0  0  0
   36.9670   25.7020   40.7340 C   0  0  0  0  0  2  0  0  0  0  0  0
   36.8550   24.4650   41.6100 C   0  0  0  0  0  2  0  0  0  0  0  0
   37.3570   24.6180   42.5930 H   0  0  0  0  0  0  0  0  0  0  0  0
  1  2  1  0  0  0  0
  2  7  2  0  0  0  0
  2  3  1  0  0  0  0
  3  4  2  0  0  0  0
  4  5  1  0  0  0  0
  4  8  1  0  0  0  0
  5  9  1  0  0  0  0
  6 10  1  0  0  0  0
  6  5  2  0  0  0  0
  7  6  1  0  0  0  0
 11 16  1  0  0  0  0
 12 11  2  0  0  0  0
 12 13  1  0  0  0  0
 13 14  2  0  0  0  0
 14 15  1  0  0  0  0
 15  3  1  0  0  0  0
 16 15  2  0  0  0  0
 17 11  1  0  0  0  0
 18 12  1  0  0  0  0
 19 13  1  0  0  0  0
 19 22  1  0  0  0  0
 20 19  1  0  0  0  0
 21 19  1  0  0  0  0
 23  7  1  0  0  0  0
 23 24  1  0  0  0  0
 24 25  1  0  0  0  0
M  END
>  <minimizedAffinity>
-4.99860144

$$$$

 OpenBabel03252500113D

 25 26  0  0  0  0  0  0  0  0999 V2000
   36.6810   26.6480   40.5460 Cl  0  0  0  0  0  0  0  0  0  0  0  0
   37.9290   26.9130   41.7210 C   0  0  0  0  0  0  0  0  0  0  0  0
   38.4290   28.1750   41.9600 C   0  0  0  0  0  0  0  0  0  0  0  0
   39.4290   28.4190   42.8940 C   0  0  0  0  0  0  0  0  0  0  0  0
   39.8980   27.3130   43.5770 C   0  0  0  0  0  0  0  0  0  0  0  0
   39.4100   26.0500   43.3490 C   0  0  0  0  0  0  0  0  0  0  0  0
   38.4390   25.8440   42.4360 C   0  0  0  0  0  0  0  0  0  0  0  0
   39.8180   29.4110   43.0790 H   0  0  0  0  0  0  0  0  0  0  0  0
   40.6740   27.4000   44.3220 H   0  0  0  0  0  0  0  0  0  0  0  0
   39.7930   25.1870   43.8960 H   0  0  0  0  0  0  0  0  0  0  0  0
   36.3230   31.0290   40.9690 C   0  0  0  0  0  0  0  0  0  0  0  0
   36.8880   31.4140   39.7370 C   0  0  0  0  0  0  0  0  0  0  0  0
   37.9770   30.6930   39.2690 C   0  0  0  0  0  0  0  0  0  0  0  0
   38.4540   29.6540   40.0030 N   0  0  0  0  0  0  0  0  0  0  0  0
   37.8860   29.3020   41.1970 C   0  0  0  0  0  0  0  0  0  0  0  0
   36.8290   29.9920   41.6660 N   0  0  0  0  0  0  0  0  0  0  0  0
   35.4740   31.5950   41.3220 H   0  0  0  0  0  0  0  0  0  0  0  0
   36.5280   32.2340   39.1340 H   0  0  0  0  0  0  0  0  0  0  0  0
   38.6720   30.9980   37.9650 C   0  0  0  0  0  0  0  0  0  0  0  0
   39.0310   29.8350   37.3170 F   0  0  0  0  0  0  0  0  0  0  0  0
   37.8070   31.7160   37.1540 F   0  0  0  0  0  0  0  0  0  0  0  0
   39.7720   31.7570   38.2780 F   0  0  0  0  0  0  0  0  0  0  0  0
   37.8690   24.4780   42.1530 C   0  0  0  0  0  2  0  0  0  0  0  0
   38.7630   23.7380   41.1710 C   0  0  0  0  0  2  0  0  0  0  0  0
   39.3890   24.4470   40.5810 H   0  0  0  0  0  0  0  0  0  0  0  0
  1  2  1  0  0  0  0
  2  3  2  0  0  0  0
  2  7  1  0  0  0  0
  3  4  1  0  0  0  0
  4  8  1  0  0  0  0
  4  5  2  0  0  0  0
  5  9  1  0  0  0  0
  6  5  1  0  0  0  0
  6 10  1  0  0  0  0
  7  6  2  0  0  0  0
 11 17  1  0  0  0  0
 11 16  1  0  0  0  0
 12 11  2  0  0  0  0
 13 12  1  0  0  0  0
 13 14  2  0  0  0  0
 14 15  1  0  0  0  0
 15 16  2  0  0  0  0
 15  3  1  0  0  0  0
 18 12  1  0  0  0  0
 19 22  1  0  0  0  0
 19 13  1  0  0  0  0
 20 19  1  0  0  0  0
 21 19  1  0  0  0  0
 23  7  1  0  0  0  0
 24 23  1  0  0  0  0
 25 24  1  0  0  0  0
M  END
>  <minimizedAffinity>
-4.94866323

$$$$

 OpenBabel03252500113D

 25 26  0  0  0  0  0  0  0  0999 V2000
   39.3560   30.2140   38.0660 Cl  0  0  0  0  0  0  0  0  0  0  0  0
   39.4030   31.6860   38.9830 C   0  0  0  0  0  0  0  0  0  0  0  0
   38.5410   31.8980   40.0370 C   0  0  0  0  0  0  0  0  0  0  0  0
   38.5540   33.0660   40.7900 C   0  0  0  0  0  0  0  0  0  0  0  0
   39.4900   34.0120   40.4180 C   0  0  0  0  0  0  0  0  0  0  0  0
   40.3550   33.8150   39.3700 C   0  0  0  0  0  0  0  0  0  0  0  0
   40.3190   32.6700   38.6580 C   0  0  0  0  0  0  0  0  0  0  0  0
   37.8760   33.2290   41.6170 H   0  0  0  0  0  0  0  0  0  0  0  0
   39.5780   34.9530   40.9410 H   0  0  0  0  0  0  0  0  0  0  0  0
   41.0870   34.5730   39.0890 H   0  0  0  0  0  0  0  0  0  0  0  0
   35.5070   29.8120   40.0180 C   0  0  0  0  0  0  0  0  0  0  0  0
   35.7720   28.8740   41.0340 C   0  0  0  0  0  0  0  0  0  0  0  0
   36.9820   28.9710   41.7070 C   0  0  0  0  0  0  0  0  0  0  0  0
   37.8560   29.9540   41.3680 N   0  0  0  0  0  0  0  0  0  0  0  0
   37.5730   30.8520   40.3750 C   0  0  0  0  0  0  0  0  0  0  0  0
   36.4040   30.7710   39.7120 N   0  0  0  0  0  0  0  0  0  0  0  0
   34.5610   29.7290   39.5020 H   0  0  0  0  0  0  0  0  0  0  0  0
   35.0950   28.0840   41.3240 H   0  0  0  0  0  0  0  0  0  0  0  0
   37.3890   28.0340   42.8170 C   0  0  0  0  0  0  0  0  0  0  0  0
   36.2810   27.5160   43.4530 F   0  0  0  0  0  0  0  0  0  0  0  0
   38.1230   26.9900   42.2740 F   0  0  0  0  0  0  0  0  0  0  0  0
   38.1670   28.7650   43.6790 F   0  0  0  0  0  0  0  0  0  0  0  0
   41.2490   32.4050   37.5010 C   0  0  0  0  0  2  0  0  0  0  0  0
   42.6050   31.9560   38.0220 C   0  0  0  0  0  2  0  0  0  0  0  0
   42.7630   32.2840   39.0750 H   0  0  0  0  0  0  0  0  0  0  0  0
  1  2  1  0  0  0  0
  2  3  1  0  0  0  0
  3 15  1  0  0  0  0
  3  4  2  0  0  0  0
  4  8  1  0  0  0  0
  5  4  1  0  0  0  0
  5  9  1  0  0  0  0
  6  5  2  0  0  0  0
  7  2  2  0  0  0  0
  7  6  1  0  0  0  0
 10  6  1  0  0  0  0
 11 12  1  0  0  0  0
 12 18  1  0  0  0  0
 12 13  2  0  0  0  0
 13 19  1  0  0  0  0
 14 13  1  0  0  0  0
 15 14  2  0  0  0  0
 16 11  2  0  0  0  0
 16 15  1  0  0  0  0
 17 11  1  0  0  0  0
 19 20  1  0  0  0  0
 19 22  1  0  0  0  0
 21 19  1  0  0  0  0
 23 24  1  0  0  0  0
 23  7  1  0  0  0  0
 24 25  1  0  0  0  0
M  END
>  <minimizedAffinity>
-4.87243557

$$$$

 OpenBabel03252500113D

 25 26  0  0  0  0  0  0  0  0999 V2000
   36.6930   29.0550   41.2520 Cl  0  0  0  0  0  0  0  0  0  0  0  0
   36.7700   27.3330   41.0520 C   0  0  0  0  0  0  0  0  0  0  0  0
   36.4660   26.7390   39.8470 C   0  0  0  0  0  0  0  0  0  0  0  0
   36.5180   25.3640   39.6560 C   0  0  0  0  0  0  0  0  0  0  0  0
   36.8960   24.6170   40.7550 C   0  0  0  0  0  0  0  0  0  0  0  0
   37.2020   25.1940   41.9630 C   0  0  0  0  0  0  0  0  0  0  0  0
   37.1430   26.5330   42.1180 C   0  0  0  0  0  0  0  0  0  0  0  0
   36.2790   24.9020   38.7080 H   0  0  0  0  0  0  0  0  0  0  0  0
   36.9660   23.5400   40.7070 H   0  0  0  0  0  0  0  0  0  0  0  0
   37.4980   24.5890   42.8210 H   0  0  0  0  0  0  0  0  0  0  0  0
   34.6080   28.0730   36.9600 C   0  0  0  0  0  0  0  0  0  0  0  0
   35.3540   29.2180   36.6180 C   0  0  0  0  0  0  0  0  0  0  0  0
   36.4760   29.5130   37.3780 C   0  0  0  0  0  0  0  0  0  0  0  0
   36.8130   28.6990   38.4120 N   0  0  0  0  0  0  0  0  0  0  0  0
   36.0700   27.5930   38.7240 C   0  0  0  0  0  0  0  0  0  0  0  0
   34.9780   27.2930   37.9960 N   0  0  0  0  0  0  0  0  0  0  0  0
   33.7380   27.8510   36.3600 H   0  0  0  0  0  0  0  0  0  0  0  0
   35.1080   29.8810   35.8010 H   0  0  0  0  0  0  0  0  0  0  0  0
   37.3620   30.7050   37.1170 C   0  0  0  0  0  0  0  0  0  0  0  0
   37.1420   31.2130   35.8540 F   0  0  0  0  0  0  0  0  0  0  0  0
   37.0770   31.6890   38.0530 F   0  0  0  0  0  0  0  0  0  0  0  0
   38.6560   30.2700   37.2640 F   0  0  0  0  0  0  0  0  0  0  0  0
   37.4720   27.2130   43.4220 C   0  0  0  0  0  2  0  0  0  0  0  0
   38.9680   27.1410   43.6800 C   0  0  0  0  0  2  0  0  0  0  0  0
   39.4370   26.3060   43.1090 H   0  0  0  0  0  0  0  0  0  0  0  0
  2  1  1  0  0  0  0
  2  7  1  0  0  0  0
  3  2  2  0  0  0  0
  4  3  1  0  0  0  0
  4  5  2  0  0  0  0
  5  6  1  0  0  0  0
  6  7  2  0  0  0  0
  6 10  1  0  0  0  0
  7 23  1  0  0  0  0
  8  4  1  0  0  0  0
  9  5  1  0  0  0  0
 11 16  1  0  0  0  0
 12 11  2  0  0  0  0
 12 13  1  0  0  0  0
 13 14  2  0  0  0  0
 14 15  1  0  0  0  0
 15  3  1  0  0  0  0
 16 15  2  0  0  0  0
 17 11  1  0  0  0  0
 18 12  1  0  0  0  0
 19 22  1  0  0  0  0
 19 13  1  0  0  0  0
 19 21  1  0  0  0  0
 20 19  1  0  0  0  0
 23 24  1  0  0  0  0
 25 24  1  0  0  0  0
M  END
>  <minimizedAffinity>
-4.84083891

$$$$

 OpenBabel03252500113D

 25 26  0  0  0  0  0  0  0  0999 V2000
   40.5380   29.9370   39.5890 Cl  0  0  0  0  0  0  0  0  0  0  0  0
   39.4780   31.2990   39.7670 C   0  0  0  0  0  0  0  0  0  0  0  0
   38.1360   31.1310   40.0280 C   0  0  0  0  0  0  0  0  0  0  0  0
   37.2630   32.2020   40.1750 C   0  0  0  0  0  0  0  0  0  0  0  0
   37.8230   33.4580   40.0440 C   0  0  0  0  0  0  0  0  0  0  0  0
   39.1590   33.6420   39.7840 C   0  0  0  0  0  0  0  0  0  0  0  0
   39.9820   32.5820   39.6460 C   0  0  0  0  0  0  0  0  0  0  0  0
   36.2100   32.0660   40.3810 H   0  0  0  0  0  0  0  0  0  0  0  0
   37.2260   34.3530   40.1420 H   0  0  0  0  0  0  0  0  0  0  0  0
   39.5840   34.6410   39.6820 H   0  0  0  0  0  0  0  0  0  0  0  0
   36.6250   27.8810   39.1820 C   0  0  0  0  0  0  0  0  0  0  0  0
   36.6270   27.2100   40.4200 C   0  0  0  0  0  0  0  0  0  0  0  0
   37.1450   27.8790   41.5200 C   0  0  0  0  0  0  0  0  0  0  0  0
   37.6240   29.1410   41.3680 N   0  0  0  0  0  0  0  0  0  0  0  0
   37.6100   29.7690   40.1520 C   0  0  0  0  0  0  0  0  0  0  0  0
   37.1110   29.1340   39.0750 N   0  0  0  0  0  0  0  0  0  0  0  0
   36.2160   27.3530   38.3330 H   0  0  0  0  0  0  0  0  0  0  0  0
   36.2510   26.2080   40.5690 H   0  0  0  0  0  0  0  0  0  0  0  0
   37.2040   27.2760   42.9020 C   0  0  0  0  0  0  0  0  0  0  0  0
   37.5730   25.9490   42.8440 F   0  0  0  0  0  0  0  0  0  0  0  0
   38.1410   27.9710   43.6530 F   0  0  0  0  0  0  0  0  0  0  0  0
   35.9530   27.4260   43.4470 F   0  0  0  0  0  0  0  0  0  0  0  0
   41.4550   32.7320   39.3640 C   0  0  0  0  0  2  0  0  0  0  0  0
   42.1220   33.5040   40.4910 C   0  0  0  0  0  2  0  0  0  0  0  0
   41.3820   34.1180   41.0540 H   0  0  0  0  0  0  0  0  0  0  0  0
  1  2  1  0  0  0  0
  2  3  1  0  0  0  0
  3 15  1  0  0  0  0
  3  4  2  0  0  0  0
  4  8  1  0  0  0  0
  5  9  1  0  0  0  0
  5  4  1  0  0  0  0
  6  5  2  0  0  0  0
  7  2  2  0  0  0  0
  7  6  1  0  0  0  0
 10  6  1  0  0  0  0
 11 12  1  0  0  0  0
 12 18  1  0  0  0  0
 12 13  2  0  0  0  0
 13 19  1  0  0  0  0
 14 13  1  0  0  0  0
 15 14  2  0  0  0  0
 16 11  2  0  0  0  0
 16 15  1  0  0  0  0
 17 11  1  0  0  0  0
 19 22  1  0  0  0  0
 19 21  1  0  0  0  0
 20 19  1  0  0  0  0
 23  7  1  0  0  0  0
 23 24  1  0  0  0  0
 24 25  1  0  0  0  0
M  END
>  <minimizedAffinity>
-4.81865597

$$$$
