
 OpenBabel03252501253D

 29 31  0  0  0  0  0  0  0  0999 V2000
   45.2860   34.0330   43.3520 C   0  0  0  0  0  0  0  0  0  0  0  0
   46.0060   34.9300   42.5710 C   0  0  0  0  0  0  0  0  0  0  0  0
   45.1640   35.4850   41.6560 C   0  0  0  0  0  0  0  0  0  0  0  0
   43.9610   34.9440   41.8680 N   0  0  0  0  0  0  0  0  0  0  0  0
   44.0450   34.0770   42.8850 N   0  0  0  0  0  0  0  0  0  0  0  0
   47.0540   35.1590   42.6620 H   0  0  0  0  0  0  0  0  0  0  0  0
   45.3390   36.2290   40.8650 H   0  0  0  0  0  0  0  0  0  0  0  0
   43.6290   34.6580   39.0740 F   0  0  0  0  0  0  0  0  0  0  0  0
   42.5810   35.0420   39.8370 C   0  0  0  0  0  0  0  0  0  0  0  0
   42.7550   35.1780   41.1960 C   0  0  0  0  0  0  0  0  0  0  0  0
   41.6860   35.5700   41.9840 C   0  0  0  0  0  0  0  0  0  0  0  0
   40.4380   35.8360   41.4670 C   0  0  0  0  0  0  0  0  0  0  0  0
   40.2990   35.6910   40.1060 C   0  0  0  0  0  0  0  0  0  0  0  0
   41.3360   35.3030   39.2900 C   0  0  0  0  0  0  0  0  0  0  0  0
   41.7920   35.6860   43.0660 H   0  0  0  0  0  0  0  0  0  0  0  0
   39.6180   36.1420   42.1130 H   0  0  0  0  0  0  0  0  0  0  0  0
   39.3330   35.8880   39.6480 H   0  0  0  0  0  0  0  0  0  0  0  0
   41.2130   35.1350   37.8150 C   0  0  0  0  0  0  0  0  0  0  0  0
   41.3100   36.4780   37.1220 C   0  0  0  0  0  0  0  0  0  0  0  0
   41.7030   37.2020   37.8690 H   0  0  0  0  0  0  0  0  0  0  0  0
   47.1160   31.4470   45.1820 C   0  0  0  0  0  0  0  0  0  0  0  0
   46.8680   31.7760   46.5180 C   0  0  0  0  0  0  0  0  0  0  0  0
   46.0630   32.9010   46.7830 C   0  0  0  0  0  0  0  0  0  0  0  0
   45.5890   33.5790   45.7090 N   0  0  0  0  0  0  0  0  0  0  0  0
   45.8400   33.2420   44.4380 C   0  0  0  0  0  0  0  0  0  0  0  0
   46.6100   32.1680   44.1620 N   0  0  0  0  0  0  0  0  0  0  0  0
   47.7350   30.5810   44.9980 H   0  0  0  0  0  0  0  0  0  0  0  0
   47.2530   31.2270   47.3670 H   0  0  0  0  0  0  0  0  0  0  0  0
   45.8040   33.2520   47.7840 H   0  0  0  0  0  0  0  0  0  0  0  0
  1 25  1  0  0  0  0
  2  6  1  0  0  0  0
  2  1  1  0  0  0  0
  3  4  1  0  0  0  0
  3  2  2  0  0  0  0
  4  5  1  0  0  0  0
  5  1  2  0  0  0  0
  7  3  1  0  0  0  0
  8  9  1  0  0  0  0
  9 10  1  0  0  0  0
 10  4  1  0  0  0  0
 10 11  2  0  0  0  0
 11 15  1  0  0  0  0
 12 11  1  0  0  0  0
 12 16  1  0  0  0  0
 13 12  2  0  0  0  0
 14  9  2  0  0  0  0
 14 13  1  0  0  0  0
 17 13  1  0  0  0  0
 18 14  1  0  0  0  0
 19 18  1  0  0  0  0
 19 20  1  0  0  0  0
 21 22  1  0  0  0  0
 22 23  2  0  0  0  0
 22 28  1  0  0  0  0
 23 29  1  0  0  0  0
 24 23  1  0  0  0  0
 25 24  2  0  0  0  0
 26 25  1  0  0  0  0
 26 21  2  0  0  0  0
 27 21  1  0  0  0  0
M  END
>  <minimizedAffinity>
-4.83907986

>  <minimizedRMSD>
2.12251616

$$$$
