
 OpenBabel03252507403D

 13 13  0  0  0  0  0  0  0  0999 V2000
   47.7420   34.8460   42.0950 C   0  0  0  0  0  0  0  0  0  0  0  0
   48.3090   33.8040   42.8350 C   0  0  0  0  0  0  0  0  0  0  0  0
   47.6000   33.2930   43.9110 C   0  0  0  0  0  0  0  0  0  0  0  0
   46.3680   33.8280   44.2100 N   0  0  0  0  0  0  0  0  0  0  0  0
   45.8610   34.8310   43.4690 C   0  0  0  0  0  0  0  0  0  0  0  0
   46.5280   35.3380   42.4290 N   0  0  0  0  0  0  0  0  0  0  0  0
   48.0620   32.4850   44.4690 H   0  0  0  0  0  0  0  0  0  0  0  0
   44.8810   35.1940   43.7750 H   0  0  0  0  0  0  0  0  0  0  0  0
   49.9130   33.1400   42.4110 S   0  0  0  0  0  0  0  0  0  0  0  0
   50.9020   33.5240   43.3210 H   0  0  0  0  0  0  0  0  0  0  0  0
   48.5550   35.3420   40.9610 C   0  0  0  0  0  0  0  0  0  0  0  0
   48.1890   34.7070   39.6480 C   0  0  0  0  0  0  0  0  0  0  0  0
   48.8180   33.8270   39.3950 H   0  0  0  0  0  0  0  0  0  0  0  0
  1  6  2  0  0  0  0
  1  2  1  0  0  0  0
  2  3  2  0  0  0  0
  3  4  1  0  0  0  0
  3  7  1  0  0  0  0
  5  8  1  0  0  0  0
  5  4  2  0  0  0  0
  6  5  1  0  0  0  0
  9  2  1  0  0  0  0
  9 10  1  0  0  0  0
 11  1  1  0  0  0  0
 12 11  1  0  0  0  0
 13 12  1  0  0  0  0
M  END
>  <minimizedAffinity>
-3.05317354

>  <minimizedRMSD>
4.66650486

$$$$
