
 OpenBabel03252504553D

 25 26  0  0  1  0  0  0  0  0999 V2000
   48.1170   33.9990   42.1270 N   0  0  0  0  0  0  0  0  0  0  0  0
   47.8940   34.0840   40.7170 C   0  0  0  0  0  0  0  0  0  0  0  0
   48.5780   35.3910   40.3960 C   0  0  0  0  0  0  0  0  0  0  0  0
   49.2250   35.9410   41.6380 C   0  0  0  0  0  0  0  0  0  0  0  0
   49.2020   34.7210   42.5900 C   0  0  2  0  0  0  0  0  0  0  0  0
   47.4430   33.5650   39.9230 H   0  0  0  0  0  0  0  0  0  0  0  0
   48.6620   35.8780   39.4170 H   0  0  0  0  0  0  0  0  0  0  0  0
   50.2720   36.1490   41.3660 H   0  0  0  0  0  0  0  0  0  0  0  0
   48.7000   36.8010   42.0510 H   0  0  0  0  0  0  0  0  0  0  0  0
   49.1530   35.1630   43.5980 H   0  0  0  0  0  0  0  0  0  0  0  0
   47.2040   33.3150   42.8720 C   0  0  0  0  0  0  0  0  0  0  0  0
   47.7560   32.6450   43.6140 H   0  0  0  0  0  0  0  0  0  0  0  0
   46.5610   32.5490   42.3590 H   0  0  0  0  0  0  0  0  0  0  0  0
   44.7590   35.8610   44.2110 C   0  0  0  0  0  0  0  0  0  0  0  0
   45.6360   35.2460   43.2790 C   0  0  0  0  0  0  0  0  0  0  0  0
   46.3080   34.1080   43.7010 C   0  0  0  0  0  0  0  0  0  0  0  0
   46.0910   33.6610   44.9570 N   0  0  0  0  0  0  0  0  0  0  0  0
   45.2380   34.2740   45.8400 C   0  0  0  0  0  0  0  0  0  0  0  0
   44.5700   35.3790   45.4620 N   0  0  0  0  0  0  0  0  0  0  0  0
   44.2670   36.7400   43.8190 H   0  0  0  0  0  0  0  0  0  0  0  0
   45.8010   35.6080   42.2910 H   0  0  0  0  0  0  0  0  0  0  0  0
   45.1490   33.8210   46.8170 H   0  0  0  0  0  0  0  0  0  0  0  0
   50.5450   34.0380   42.4910 C   0  0  0  0  0  0  0  0  0  0  0  0
   50.4550   32.5440   42.3300 C   0  0  0  0  0  0  0  0  0  0  0  0
   49.8300   32.1100   43.1130 H   0  0  0  0  0  0  0  0  0  0  0  0
  1  5  1  0  0  0  0
  1 11  1  0  0  0  0
  2  1  1  0  0  0  0
  3  2  2  0  0  0  0
  3  4  1  0  0  0  0
  4  9  1  0  0  0  0
  4  5  1  0  0  0  0
  5 10  1  1  0  0  0
  6  2  1  0  0  0  0
  7  3  1  0  0  0  0
  8  4  1  0  0  0  0
 11 12  1  0  0  0  0
 11 16  1  0  0  0  0
 13 11  1  0  0  0  0
 14 19  1  0  0  0  0
 15 16  1  0  0  0  0
 15 14  2  0  0  0  0
 16 17  2  0  0  0  0
 17 18  1  0  0  0  0
 18 22  1  0  0  0  0
 19 18  2  0  0  0  0
 20 14  1  0  0  0  0
 21 15  1  0  0  0  0
 23  5  1  0  0  0  0
 24 23  1  0  0  0  0
 24 25  1  0  0  0  0
M  END
>  <minimizedAffinity>
-4.81167316

>  <minimizedRMSD>
1.38764048

$$$$
