REMARK  Name = 
REMARK  4 active torsions:
REMARK  status: ('A' for Active; 'I' for Inactive)
REMARK    1  A    between atoms: C_1  and  C_10
REMARK    2  A    between atoms: C_4  and  C_12
REMARK    3  A    between atoms: C_17  and  C_33
REMARK    4  A    between atoms: C_33  and  C_34
REMARK                            x       y       z     vdW  Elec       q    Type
REMARK                         _______ _______ _______ _____ _____    ______ ____
ROOT
ATOM      1  C   UNL     1      47.788  30.665  48.858  0.00  0.00    +0.000 C 
ATOM      2  C   UNL     1      48.148  29.494  48.009  0.00  0.00    +0.000 C 
ATOM      3  C   UNL     1      49.576  29.044  48.134  0.00  0.00    +0.000 C 
ATOM      4  C   UNL     1      50.083  29.036  49.560  0.00  0.00    +0.000 C 
ATOM      5  C   UNL     1      49.681  30.262  50.336  0.00  0.00    +0.000 C 
ATOM      6  C   UNL     1      49.098  31.291  49.381  0.00  0.00    +0.000 C 
ATOM      7  H   UNL     1      47.256  30.282  49.770  0.00  0.00    +0.000 HD
ATOM      8  H   UNL     1      48.005  29.819  46.937  0.00  0.00    +0.000 HD
ATOM      9  H   UNL     1      47.466  28.614  48.146  0.00  0.00    +0.000 HD
ATOM     10  H   UNL     1      49.608  27.991  47.767  0.00  0.00    +0.000 HD
ATOM     11  H   UNL     1      50.287  29.631  47.526  0.00  0.00    +0.000 HD
ATOM     12  H   UNL     1      51.172  28.891  49.522  0.00  0.00    +0.000 HD
ATOM     13  H   UNL     1      49.630  28.129  50.050  0.00  0.00    +0.000 HD
ATOM     14  H   UNL     1      48.877  30.046  51.077  0.00  0.00    +0.000 HD
ATOM     15  H   UNL     1      50.523  30.710  50.889  0.00  0.00    +0.000 HD
ATOM     16  H   UNL     1      49.738  31.429  48.487  0.00  0.00    +0.000 HD
ENDROOT
BRANCH   1  20
ATOM     17  C   UNL     1      45.797  33.222  46.361  0.00  0.00    +0.000 A 
ATOM     18  C   UNL     1      45.182  33.126  47.618  0.00  0.00    +0.000 A 
ATOM     19  C   UNL     1      45.756  32.312  48.534  0.00  0.00    +0.000 A 
ATOM     20  C   UNL     1      46.925  31.599  48.212  0.00  0.00    +0.000 A 
ATOM     21  S   UNL     1      47.248  32.109  46.490  0.00  0.00    +0.000 S 
ATOM     22  H   UNL     1      44.285  33.673  47.861  0.00  0.00    +0.000 HD
ATOM     23  H   UNL     1      45.439  32.108  49.540  0.00  0.00    +0.000 HD
BRANCH  17  28
ATOM     24  C   UNL     1      44.336  35.923  44.252  0.00  0.00    +0.000 A 
ATOM     25  C   UNL     1      44.514  35.336  42.970  0.00  0.00    +0.000 A 
ATOM     26  C   UNL     1      45.110  34.073  42.887  0.00  0.00    +0.000 A 
ATOM     27  N   UNL     1      45.492  33.471  44.054  0.00  0.00    +0.000 NA
ATOM     28  C   UNL     1      45.307  34.059  45.254  0.00  0.00    +0.000 A 
ATOM     29  N   UNL     1      44.729  35.289  45.365  0.00  0.00    +0.000 NA
ATOM     30  H   UNL     1      43.877  36.900  44.349  0.00  0.00    +0.000 HD
ATOM     31  H   UNL     1      44.198  35.848  42.090  0.00  0.00    +0.000 HD
ATOM     32  H   UNL     1      45.267  33.584  41.936  0.00  0.00    +0.000 HD
ENDBRANCH  17  28
ENDBRANCH   1  20
BRANCH   6  33
ATOM     33  C   UNL     1      48.853  32.606  50.077  0.00  0.00    +0.000 C 
BRANCH  33  34
ATOM     34  C   UNL     1      49.337  32.477  51.508  0.00  0.00    +0.000 C 
ATOM     35  H   UNL     1      50.013  31.579  51.628  0.00  0.00    +0.000 HD
ENDBRANCH  33  34
ENDBRANCH   6  33
TORSDOF 4
