
     RDKit          3D

 39 41  0  0  0  0  0  0  0  0999 V2000
   45.7968   33.2221   46.3605 C   0  0  0  0  0  0  0  0  0  0  0  0
   45.1823   33.1257   47.6183 C   0  0  0  0  0  0  0  0  0  0  0  0
   45.7558   32.3119   48.5339 C   0  0  0  0  0  0  0  0  0  0  0  0
   46.9245   31.5992   48.2123 C   0  0  0  0  0  0  0  0  0  0  0  0
   47.2482   32.1086   46.4903 S   0  0  0  0  0  0  0  0  0  0  0  0
   44.3362   35.9233   44.2516 C   0  0  0  0  0  0  0  0  0  0  0  0
   44.5137   35.3361   42.9701 C   0  0  0  0  0  0  0  0  0  0  0  0
   45.1104   34.0728   42.8873 C   0  0  0  0  0  0  0  0  0  0  0  0
   45.4919   33.4706   44.0542 N   0  0  0  0  0  0  0  0  0  0  0  0
   45.3075   34.0586   45.2536 C   0  0  0  0  0  0  0  0  0  0  0  0
   44.7286   35.2893   45.3654 N   0  0  0  0  0  0  0  0  0  0  0  0
   47.7881   30.6652   48.8585 C   0  0  1  0  0  0  0  0  0  0  0  0
   48.1479   29.4935   48.0087 C   0  0  0  0  0  0  0  0  0  0  0  0
   49.5757   29.0443   48.1341 C   0  0  0  0  0  0  0  0  0  0  0  0
   50.0828   29.0364   49.5598 C   0  0  0  0  0  0  0  0  0  0  0  0
   49.6809   30.2622   50.3358 C   0  0  0  0  0  0  0  0  0  0  0  0
   49.0977   31.2905   49.3814 C   0  0  2  0  0  0  0  0  0  0  0  0
   44.2855   33.6733   47.8615 H   0  0  0  0  0  0  0  0  0  0  0  0
   45.4388   32.1084   49.5397 H   0  0  0  0  0  0  0  0  0  0  0  0
   43.8774   36.9003   44.3491 H   0  0  0  0  0  0  0  0  0  0  0  0
   44.1984   35.8480   42.0905 H   0  0  0  0  0  0  0  0  0  0  0  0
   45.2674   33.5840   41.9358 H   0  0  0  0  0  0  0  0  0  0  0  0
   47.2563   30.2817   49.7700 H   0  0  0  0  0  0  0  0  0  0  0  0
   48.0054   29.8190   46.9370 H   0  0  0  0  0  0  0  0  0  0  0  0
   47.4661   28.6136   48.1462 H   0  0  0  0  0  0  0  0  0  0  0  0
   49.6080   27.9914   47.7667 H   0  0  0  0  0  0  0  0  0  0  0  0
   50.2870   29.6307   47.5265 H   0  0  0  0  0  0  0  0  0  0  0  0
   51.1717   28.8908   49.5218 H   0  0  0  0  0  0  0  0  0  0  0  0
   49.6298   28.1289   50.0505 H   0  0  0  0  0  0  0  0  0  0  0  0
   48.8768   30.0457   51.0768 H   0  0  0  0  0  0  0  0  0  0  0  0
   50.5235   30.7100   50.8894 H   0  0  0  0  0  0  0  0  0  0  0  0
   49.7379   31.4287   48.4874 H   0  0  0  0  0  0  0  0  0  0  0  0
   48.8530   32.6063   50.0765 C   0  0  0  0  0  0  0  0  0  0  0  0
   47.3631   32.8895   50.0322 C   0  0  0  0  0  0  0  0  0  0  0  0
   46.7803   31.9558   49.7777 H   0  0  0  0  0  0  0  0  0  0  0  0
   49.3604   33.4267   49.5374 H   0  0  0  0  0  0  0  0  0  0  0  0
   49.1846   32.6200   51.1119 H   0  0  0  0  0  0  0  0  0  0  0  0
   46.9752   33.1784   51.0340 H   0  0  0  0  0  0  0  0  0  0  0  0
   47.0824   33.6530   49.3067 H   0  0  0  0  0  0  0  0  0  0  0  0
  1  5  1  0
  1  2  2  0
  2  3  1  0
  4  3  2  0
  4 12  1  0
  5  4  1  0
  6 11  2  0
  7  6  1  0
  8  7  2  0
  8  9  1  0
  9 10  2  0
 10 11  1  0
 10  1  1  0
 12 17  1  0
 13 14  1  0
 13 12  1  0
 14 15  1  0
 15 16  1  0
 17 16  1  0
  2 18  1  0
  3 19  1  0
  6 20  1  0
  7 21  1  0
  8 22  1  0
 12 23  1  1
 13 24  1  0
 13 25  1  0
 14 26  1  0
 14 27  1  0
 15 28  1  0
 15 29  1  0
 16 30  1  0
 16 31  1  0
 17 32  1  6
 33 34  1  0
 34 35  1  0
 33 36  1  0
 33 37  1  0
 34 38  1  0
 34 39  1  0
 17 33  1  0
M  ISO  8  18  14  19  14  20  14  21  14  22  14  23  13  24  13  25  13
M  ISO  8  26  13  27  13  28  13  29  13  30  13  31  13  32  13  35   8
M  END
>  <DihAtoms>  (1) 
11,16,32,33

>  <DihDeg>  (1) 
-179.9933922590706

$$$$
