
 OpenBabel03242516023D

 28 30  0  0  0  0  0  0  0  0999 V2000
   45.0570   32.9090   41.2520 Cl  0  0  0  0  0  0  0  0  0  0  0  0
   46.4940   33.8800   41.0440 C   0  0  0  0  0  0  0  0  0  0  0  0
   46.9190   34.7570   41.9930 C   0  0  0  0  0  0  0  0  0  0  0  0
   48.0620   35.4570   41.7020 C   0  0  0  0  0  0  0  0  0  0  0  0
   48.7510   35.3140   40.5580 C   0  0  0  0  0  0  0  0  0  0  0  0
   48.3230   34.4320   39.6060 C   0  0  0  0  0  0  0  0  0  0  0  0
   47.1710   33.7010   39.8520 C   0  0  0  0  0  0  0  0  0  0  0  0
   48.4280   36.1660   42.4420 H   0  0  0  0  0  0  0  0  0  0  0  0
   49.6540   35.8440   40.2880 H   0  0  0  0  0  0  0  0  0  0  0  0
   48.8310   34.2670   38.6590 H   0  0  0  0  0  0  0  0  0  0  0  0
   44.4650   35.9940   44.6050 C   0  0  0  0  0  0  0  0  0  0  0  0
   45.2080   35.8910   43.4230 C   0  0  0  0  0  0  0  0  0  0  0  0
   46.1450   34.8760   43.2090 C   0  0  0  0  0  0  0  0  0  0  0  0
   46.2780   33.9940   44.2440 N   0  0  0  0  0  0  0  0  0  0  0  0
   45.5560   34.1120   45.3670 C   0  0  0  0  0  0  0  0  0  0  0  0
   44.6620   35.0920   45.5530 N   0  0  0  0  0  0  0  0  0  0  0  0
   43.7860   36.8270   44.6200 H   0  0  0  0  0  0  0  0  0  0  0  0
   45.0960   36.6020   42.5990 H   0  0  0  0  0  0  0  0  0  0  0  0
   45.6680   33.4080   46.1800 H   0  0  0  0  0  0  0  0  0  0  0  0
   46.6930   32.7370   38.8240 C   0  0  0  0  0  0  0  0  0  0  0  0
   46.7040   31.3450   39.0500 C   0  0  0  0  0  0  0  0  0  0  0  0
   46.0270   30.6950   37.4890 S   0  0  0  0  0  0  0  0  0  0  0  0
   45.8400   32.4410   36.7830 C   0  0  0  0  0  0  0  0  0  0  0  0
   46.2320   33.0210   37.6570 N   0  0  0  0  0  0  0  0  0  0  0  0
   47.0680   30.8550   40.0080 H   0  0  0  0  0  0  0  0  0  0  0  0
   45.2860   32.6350   35.4040 C   0  0  0  0  0  0  0  0  0  0  0  0
   44.8140   31.3490   34.7820 C   0  0  0  0  0  0  0  0  0  0  0  0
   44.2700   30.6930   35.5060 H   0  0  0  0  0  0  0  0  0  0  0  0
  2  1  1  0  0  0  0
  2  3  1  0  0  0  0
  3 13  1  0  0  0  0
  4  3  2  0  0  0  0
  4  8  1  0  0  0  0
  5  4  1  0  0  0  0
  6  7  1  0  0  0  0
  6  5  2  0  0  0  0
  7  2  2  0  0  0  0
  9  5  1  0  0  0  0
 10  6  1  0  0  0  0
 11 17  1  0  0  0  0
 11 16  1  0  0  0  0
 12 11  2  0  0  0  0
 13 12  1  0  0  0  0
 13 14  2  0  0  0  0
 14 15  1  0  0  0  0
 15 16  2  0  0  0  0
 15 19  1  0  0  0  0
 18 12  1  0  0  0  0
 20 21  2  0  0  0  0
 20  7  1  0  0  0  0
 21 25  1  0  0  0  0
 22 21  1  0  0  0  0
 23 22  1  0  0  0  0
 23 24  2  0  0  0  0
 24 20  1  0  0  0  0
 26 23  1  0  0  0  0
 27 26  1  0  0  0  0
 27 28  1  0  0  0  0
M  END
>  <minimizedAffinity>
-5.32670021

>  <minimizedRMSD>
0.428554803

$$$$
