
 OpenBabel03252509183D

 35 37  0  0  1  0  0  0  0  0999 V2000
   47.6710   30.0220   48.3130 C   0  0  1  0  0  0  0  0  0  0  0  0
   47.6150   28.8340   47.4160 C   0  0  0  0  0  0  0  0  0  0  0  0
   48.9140   28.0920   47.2740 C   0  0  0  0  0  0  0  0  0  0  0  0
   49.6600   27.9270   48.5810 C   0  0  0  0  0  0  0  0  0  0  0  0
   49.6740   29.1810   49.4140 C   0  0  0  0  0  0  0  0  0  0  0  0
   49.1570   30.3430   48.5810 C   0  0  2  0  0  0  0  0  0  0  0  0
   47.2460   29.7260   49.3090 H   0  0  0  0  0  0  0  0  0  0  0  0
   47.3510   29.2200   46.3880 H   0  0  0  0  0  0  0  0  0  0  0  0
   46.7990   28.1100   47.6800 H   0  0  0  0  0  0  0  0  0  0  0  0
   48.6560   27.0690   46.9110 H   0  0  0  0  0  0  0  0  0  0  0  0
   49.6100   28.5400   46.5430 H   0  0  0  0  0  0  0  0  0  0  0  0
   50.6680   27.5600   48.3420 H   0  0  0  0  0  0  0  0  0  0  0  0
   49.1230   27.1170   49.1500 H   0  0  0  0  0  0  0  0  0  0  0  0
   48.9920   29.1100   50.2930 H   0  0  0  0  0  0  0  0  0  0  0  0
   50.6780   29.4240   49.8000 H   0  0  0  0  0  0  0  0  0  0  0  0
   49.6380   30.3770   47.5830 H   0  0  0  0  0  0  0  0  0  0  0  0
   45.9730   33.1350   46.2720 C   0  0  0  0  0  0  0  0  0  0  0  0
   45.3770   32.9380   47.5260 C   0  0  0  0  0  0  0  0  0  0  0  0
   45.8600   31.9370   48.2980 C   0  0  0  0  0  0  0  0  0  0  0  0
   46.9220   31.1380   47.8360 C   0  0  0  0  0  0  0  0  0  0  0  0
   47.2730   31.8440   46.1900 S   0  0  0  0  0  0  0  0  0  0  0  0
   44.5620   33.5510   47.8760 H   0  0  0  0  0  0  0  0  0  0  0  0
   45.5400   31.6330   49.2770 H   0  0  0  0  0  0  0  0  0  0  0  0
   44.4200   36.0480   44.5470 C   0  0  0  0  0  0  0  0  0  0  0  0
   45.0680   35.9420   43.2870 C   0  0  0  0  0  0  0  0  0  0  0  0
   45.9840   34.9040   43.0880 C   0  0  0  0  0  0  0  0  0  0  0  0
   46.2070   34.0430   44.1280 N   0  0  0  0  0  0  0  0  0  0  0  0
   45.5720   34.1750   45.3110 C   0  0  0  0  0  0  0  0  0  0  0  0
   44.6750   35.1770   45.5320 N   0  0  0  0  0  0  0  0  0  0  0  0
   43.7050   36.8420   44.7310 H   0  0  0  0  0  0  0  0  0  0  0  0
   44.8590   36.6400   42.5080 H   0  0  0  0  0  0  0  0  0  0  0  0
   46.5030   34.7800   42.1480 H   0  0  0  0  0  0  0  0  0  0  0  0
   49.3260   31.6540   49.3060 C   0  0  0  0  0  2  0  0  0  0  0  0
   50.3240   31.4440   50.4290 C   0  0  0  0  0  2  0  0  0  0  0  0
   50.9090   30.4890   50.2780 H   0  0  0  0  0  0  0  0  0  0  0  0
  1  6  1  0  0  0  0
  1  7  1  1  0  0  0
  2  9  1  0  0  0  0
  2  1  1  0  0  0  0
  3  2  1  0  0  0  0
  3  4  1  0  0  0  0
  4 13  1  0  0  0  0
  4  5  1  0  0  0  0
  5 15  1  0  0  0  0
  5 14  1  0  0  0  0
  6 16  1  6  0  0  0
  6 33  1  0  0  0  0
  6  5  1  0  0  0  0
  8  2  1  0  0  0  0
 10  3  1  0  0  0  0
 11  3  1  0  0  0  0
 12  4  1  0  0  0  0
 17 18  2  0  0  0  0
 18 22  1  0  0  0  0
 18 19  1  0  0  0  0
 19 23  1  0  0  0  0
 20 19  2  0  0  0  0
 20  1  1  0  0  0  0
 21 17  1  0  0  0  0
 21 20  1  0  0  0  0
 24 30  1  0  0  0  0
 24 29  1  0  0  0  0
 25 24  2  0  0  0  0
 26 25  1  0  0  0  0
 26 27  2  0  0  0  0
 27 28  1  0  0  0  0
 28 29  2  0  0  0  0
 28 17  1  0  0  0  0
 31 25  1  0  0  0  0
 32 26  1  0  0  0  0
 33 34  1  0  0  0  0
 35 34  1  0  0  0  0
M  END
>  <minimizedAffinity>
-5.09065199

>  <minimizedRMSD>
0.998402596

$$$$
