
 OpenBabel03252507423D

 25 26  0  0  0  0  0  0  0  0999 V2000
   46.6350   34.2960   40.8690 C   0  0  0  0  0  0  0  0  0  0  0  0
   46.3560   33.4750   40.2140 H   0  0  0  0  0  0  0  0  0  0  0  0
   46.6980   35.1930   40.1830 H   0  0  0  0  0  0  0  0  0  0  0  0
   48.0220   34.1530   41.3930 C   0  0  0  0  0  0  0  0  0  0  0  0
   48.6670   32.9490   41.1160 C   0  0  0  0  0  0  0  0  0  0  0  0
   49.9670   32.7580   41.5790 C   0  0  0  0  0  0  0  0  0  0  0  0
   50.5560   33.7590   42.2850 N   0  0  0  0  0  0  0  0  0  0  0  0
   49.8900   34.9120   42.5300 C   0  0  0  0  0  0  0  0  0  0  0  0
   48.6580   35.0880   42.0890 N   0  0  0  0  0  0  0  0  0  0  0  0
   50.4190   31.8050   41.3350 H   0  0  0  0  0  0  0  0  0  0  0  0
   50.4750   35.6260   43.1030 H   0  0  0  0  0  0  0  0  0  0  0  0
   47.8320   31.6580   40.1740 S   0  0  0  0  0  0  0  0  0  0  0  0
   48.7760   30.9560   39.4370 H   0  0  0  0  0  0  0  0  0  0  0  0
   45.6470   34.6470   41.9160 C   0  0  0  0  0  0  0  0  0  0  0  0
   45.5810   33.7700   42.6240 H   0  0  0  0  0  0  0  0  0  0  0  0
   46.0210   35.5530   42.4540 H   0  0  0  0  0  0  0  0  0  0  0  0
   44.2630   34.8640   41.4460 C   0  0  0  0  0  0  0  0  0  0  0  0
   43.2620   35.3970   42.3140 C   0  0  0  0  0  0  0  0  0  0  0  0
   41.7620   35.4380   41.2210 S   0  0  0  0  0  0  0  0  0  0  0  0
   42.7680   34.7270   39.7970 C   0  0  0  0  0  0  0  0  0  0  0  0
   43.7950   34.6060   40.2480 N   0  0  0  0  0  0  0  0  0  0  0  0
   43.4160   35.6860   43.3510 H   0  0  0  0  0  0  0  0  0  0  0  0
   41.9900   34.5130   38.4860 C   0  0  0  0  0  0  0  0  0  0  0  0
   41.4850   35.8280   37.9550 C   0  0  0  0  0  0  0  0  0  0  0  0
   40.3670   35.8600   37.9190 H   0  0  0  0  0  0  0  0  0  0  0  0
  1  4  1  0  0  0  0
  1 14  1  0  0  0  0
  2  1  1  0  0  0  0
  3  1  1  0  0  0  0
  4  9  1  0  0  0  0
  5  4  2  0  0  0  0
  5  6  1  0  0  0  0
  6  7  2  0  0  0  0
  7  8  1  0  0  0  0
  8 11  1  0  0  0  0
  9  8  2  0  0  0  0
 10  6  1  0  0  0  0
 12  5  1  0  0  0  0
 13 12  1  0  0  0  0
 14 16  1  0  0  0  0
 14 15  1  0  0  0  0
 17 14  1  0  0  0  0
 17 18  2  0  0  0  0
 18 22  1  0  0  0  0
 19 18  1  0  0  0  0
 20 21  2  0  0  0  0
 20 19  1  0  0  0  0
 21 17  1  0  0  0  0
 23 20  1  0  0  0  0
 24 23  1  0  0  0  0
 25 24  1  0  0  0  0
M  END
>  <minimizedAffinity>
-4.10310602

>  <minimizedRMSD>
0.611508787

$$$$
