
 OpenBabel03252508373D

 35 37  0  0  0  0  0  0  0  0999 V2000
   45.1120   33.9600   40.7370 C   0  0  0  0  0  0  0  0  0  0  0  0
   44.0720   33.6360   39.9030 C   0  0  0  0  0  0  0  0  0  0  0  0
   44.3730   33.1330   38.6700 C   0  0  0  0  0  0  0  0  0  0  0  0
   45.6580   32.9350   38.2220 C   0  0  0  0  0  0  0  0  0  0  0  0
   46.6860   33.2640   39.0680 C   0  0  0  0  0  0  0  0  0  0  0  0
   46.4340   33.7790   40.3340 C   0  0  0  0  0  0  0  0  0  0  0  0
   43.5190   32.8900   38.0460 H   0  0  0  0  0  0  0  0  0  0  0  0
   45.8420   32.5370   37.2410 H   0  0  0  0  0  0  0  0  0  0  0  0
   47.7070   33.1130   38.7290 H   0  0  0  0  0  0  0  0  0  0  0  0
   40.7890   35.2640   40.7990 C   0  0  0  0  0  0  0  0  0  0  0  0
   42.0860   35.1010   40.2870 C   0  0  0  0  0  0  0  0  0  0  0  0
   42.7330   33.8560   40.4150 C   0  0  0  0  0  0  0  0  0  0  0  0
   42.0130   32.8870   41.0500 N   0  0  0  0  0  0  0  0  0  0  0  0
   40.7810   33.0720   41.5260 C   0  0  0  0  0  0  0  0  0  0  0  0
   40.1720   34.2680   41.3970 N   0  0  0  0  0  0  0  0  0  0  0  0
   40.1910   36.5370   40.6420 N   0  0  0  0  0  0  0  0  0  0  0  0
   42.6210   35.9050   39.7910 H   0  0  0  0  0  0  0  0  0  0  0  0
   40.2220   32.2930   42.0280 H   0  0  0  0  0  0  0  0  0  0  0  0
   40.7590   37.3970   40.4870 H   0  0  0  0  0  0  0  0  0  0  0  0
   39.1800   36.7580   40.6610 H   0  0  0  0  0  0  0  0  0  0  0  0
   47.5860   34.0980   41.1510 C   0  0  0  0  0  0  0  0  0  0  0  0
   48.1420   35.3460   40.9250 C   0  0  0  0  0  0  0  0  0  0  0  0
   49.2530   35.8320   41.6120 C   0  0  0  0  0  0  0  0  0  0  0  0
   49.8150   35.0070   42.5680 C   0  0  0  0  0  0  0  0  0  0  0  0
   49.2740   33.7650   42.8040 C   0  0  0  0  0  0  0  0  0  0  0  0
   48.1610   33.3010   42.1010 C   0  0  0  0  0  0  0  0  0  0  0  0
   47.7330   36.0420   40.1740 H   0  0  0  0  0  0  0  0  0  0  0  0
   49.6510   36.8130   41.3980 H   0  0  0  0  0  0  0  0  0  0  0  0
   50.6750   35.4120   43.0830 H   0  0  0  0  0  0  0  0  0  0  0  0
   49.7560   33.1620   43.5620 H   0  0  0  0  0  0  0  0  0  0  0  0
   47.6190   31.9500   42.3660 C   0  0  0  0  0  2  0  0  0  0  0  0
   46.9010   31.7730   43.6500 C   0  0  0  0  0  2  0  0  0  0  0  0
   47.0420   30.7270   44.0470 H   0  0  0  0  0  0  0  0  0  0  0  0
   44.6940   34.9190   43.1180 N   0  0  0  0  0  0  0  0  0  0  0  0
   44.8790   34.4960   42.0460 C   0  0  0  0  0  0  0  0  0  0  0  0
  1 35  1  0  0  0  0
  2 12  1  0  0  0  0
  2  1  2  0  0  0  0
  3  2  1  0  0  0  0
  4  3  2  0  0  0  0
  4  5  1  0  0  0  0
  5  6  2  0  0  0  0
  6  1  1  0  0  0  0
  6 21  1  0  0  0  0
  7  3  1  0  0  0  0
  8  4  1  0  0  0  0
  9  5  1  0  0  0  0
 10 15  1  0  0  0  0
 11 12  1  0  0  0  0
 11 10  2  0  0  0  0
 12 13  2  0  0  0  0
 13 14  1  0  0  0  0
 14 18  1  0  0  0  0
 15 14  2  0  0  0  0
 16 20  1  0  0  0  0
 16 10  1  0  0  0  0
 17 11  1  0  0  0  0
 19 16  1  0  0  0  0
 21 26  1  0  0  0  0
 22 21  2  0  0  0  0
 22 23  1  0  0  0  0
 23 24  2  0  0  0  0
 24 25  1  0  0  0  0
 24 29  1  0  0  0  0
 25 30  1  0  0  0  0
 26 31  1  0  0  0  0
 26 25  2  0  0  0  0
 27 22  1  0  0  0  0
 28 23  1  0  0  0  0
 31 32  1  0  0  0  0
 32 33  1  0  0  0  0
 35 34  3  0  0  0  0
M  END
>  <minimizedAffinity>
-5.81320095

>  <minimizedRMSD>
0.322452247

$$$$
