
 OpenBabel03252508403D

 35 37  0  0  0  0  0  0  0  0999 V2000
   37.9660   29.1120   40.3920 C   0  0  0  0  0  0  0  0  0  0  0  0
   37.8160   30.4600   40.1850 C   0  0  0  0  0  0  0  0  0  0  0  0
   36.5680   30.9950   40.3320 C   0  0  0  0  0  0  0  0  0  0  0  0
   35.4590   30.2580   40.6740 C   0  0  0  0  0  0  0  0  0  0  0  0
   35.6270   28.9120   40.8770 C   0  0  0  0  0  0  0  0  0  0  0  0
   36.8750   28.3170   40.7420 C   0  0  0  0  0  0  0  0  0  0  0  0
   36.4990   32.0650   40.1600 H   0  0  0  0  0  0  0  0  0  0  0  0
   34.4980   30.7270   40.7750 H   0  0  0  0  0  0  0  0  0  0  0  0
   34.7600   28.3150   41.1490 H   0  0  0  0  0  0  0  0  0  0  0  0
   40.4660   32.2710   38.2030 C   0  0  0  0  0  0  0  0  0  0  0  0
   39.2960   31.5520   38.4950 C   0  0  0  0  0  0  0  0  0  0  0  0
   39.0110   31.2020   39.8300 C   0  0  0  0  0  0  0  0  0  0  0  0
   39.9320   31.6070   40.7500 N   0  0  0  0  0  0  0  0  0  0  0  0
   41.0350   32.2900   40.4410 C   0  0  0  0  0  0  0  0  0  0  0  0
   41.2990   32.6200   39.1600 N   0  0  0  0  0  0  0  0  0  0  0  0
   40.7000   32.5940   36.8450 N   0  0  0  0  0  0  0  0  0  0  0  0
   38.5920   31.2490   37.7270 H   0  0  0  0  0  0  0  0  0  0  0  0
   41.7590   32.6040   41.1830 H   0  0  0  0  0  0  0  0  0  0  0  0
   40.2550   32.0600   36.0680 H   0  0  0  0  0  0  0  0  0  0  0  0
   41.3030   33.3510   36.4780 H   0  0  0  0  0  0  0  0  0  0  0  0
   36.9480   26.8900   40.9730 C   0  0  0  0  0  0  0  0  0  0  0  0
   36.5910   26.0980   39.8950 C   0  0  0  0  0  0  0  0  0  0  0  0
   36.5980   24.7040   39.9250 C   0  0  0  0  0  0  0  0  0  0  0  0
   36.9860   24.1000   41.1060 C   0  0  0  0  0  0  0  0  0  0  0  0
   37.3440   24.8730   42.1850 C   0  0  0  0  0  0  0  0  0  0  0  0
   37.3270   26.2670   42.1300 C   0  0  0  0  0  0  0  0  0  0  0  0
   36.2730   26.5290   38.9320 H   0  0  0  0  0  0  0  0  0  0  0  0
   36.3080   24.1300   39.0570 H   0  0  0  0  0  0  0  0  0  0  0  0
   36.9800   23.0190   41.0970 H   0  0  0  0  0  0  0  0  0  0  0  0
   37.6380   24.3460   43.0830 H   0  0  0  0  0  0  0  0  0  0  0  0
   37.6980   27.0670   43.3180 C   0  0  0  0  0  2  0  0  0  0  0  0
   39.1340   27.0760   43.6790 C   0  0  0  0  0  2  0  0  0  0  0  0
   39.2680   27.1580   44.7960 H   0  0  0  0  0  0  0  0  0  0  0  0
   40.2830   27.9590   40.1300 N   0  0  0  0  0  0  0  0  0  0  0  0
   39.2410   28.4740   40.2550 C   0  0  0  0  0  0  0  0  0  0  0  0
  1  6  1  0  0  0  0
  2  3  1  0  0  0  0
  2  1  2  0  0  0  0
  3  4  2  0  0  0  0
  4  8  1  0  0  0  0
  4  5  1  0  0  0  0
  5  9  1  0  0  0  0
  6  5  2  0  0  0  0
  6 21  1  0  0  0  0
  7  3  1  0  0  0  0
 10 11  2  0  0  0  0
 10 15  1  0  0  0  0
 11 12  1  0  0  0  0
 12  2  1  0  0  0  0
 12 13  2  0  0  0  0
 14 13  1  0  0  0  0
 14 18  1  0  0  0  0
 15 14  2  0  0  0  0
 16 10  1  0  0  0  0
 17 11  1  0  0  0  0
 19 16  1  0  0  0  0
 20 16  1  0  0  0  0
 21 26  1  0  0  0  0
 22 23  1  0  0  0  0
 22 21  2  0  0  0  0
 23 24  2  0  0  0  0
 24 25  1  0  0  0  0
 25 30  1  0  0  0  0
 26 25  2  0  0  0  0
 26 31  1  0  0  0  0
 27 22  1  0  0  0  0
 28 23  1  0  0  0  0
 29 24  1  0  0  0  0
 31 32  1  0  0  0  0
 32 33  1  0  0  0  0
 34 35  3  0  0  0  0
 35  1  1  0  0  0  0
M  END
>  <minimizedAffinity>
-5.96991396

$$$$

 OpenBabel03252508403D

 35 37  0  0  0  0  0  0  0  0999 V2000
   37.9810   28.0330   41.1480 C   0  0  0  0  0  0  0  0  0  0  0  0
   37.8230   29.1230   41.9670 C   0  0  0  0  0  0  0  0  0  0  0  0
   37.2430   28.9280   43.1880 C   0  0  0  0  0  0  0  0  0  0  0  0
   36.8110   27.7040   43.6380 C   0  0  0  0  0  0  0  0  0  0  0  0
   36.9760   26.6240   42.8080 C   0  0  0  0  0  0  0  0  0  0  0  0
   37.5610   26.7670   41.5560 C   0  0  0  0  0  0  0  0  0  0  0  0
   37.1410   29.8190   43.8000 H   0  0  0  0  0  0  0  0  0  0  0  0
   36.3590   27.6040   44.6080 H   0  0  0  0  0  0  0  0  0  0  0  0
   36.6400   25.6490   43.1510 H   0  0  0  0  0  0  0  0  0  0  0  0
   37.9240   32.5560   40.4070 C   0  0  0  0  0  0  0  0  0  0  0  0
   37.4170   31.3380   40.8870 C   0  0  0  0  0  0  0  0  0  0  0  0
   38.2960   30.3950   41.4550 C   0  0  0  0  0  0  0  0  0  0  0  0
   39.6080   30.7650   41.4860 N   0  0  0  0  0  0  0  0  0  0  0  0
   40.0600   31.9300   41.0220 C   0  0  0  0  0  0  0  0  0  0  0  0
   39.2100   32.8260   40.4800 N   0  0  0  0  0  0  0  0  0  0  0  0
   36.9940   33.4630   39.8460 N   0  0  0  0  0  0  0  0  0  0  0  0
   36.3620   31.0870   40.8380 H   0  0  0  0  0  0  0  0  0  0  0  0
   41.1060   32.2100   41.0520 H   0  0  0  0  0  0  0  0  0  0  0  0
   36.0690   33.1490   39.4810 H   0  0  0  0  0  0  0  0  0  0  0  0
   37.1080   34.4860   39.7340 H   0  0  0  0  0  0  0  0  0  0  0  0
   37.6870   25.5690   40.7530 C   0  0  0  0  0  0  0  0  0  0  0  0
   36.5970   25.2790   39.9510 C   0  0  0  0  0  0  0  0  0  0  0  0
   36.5310   24.1700   39.1080 C   0  0  0  0  0  0  0  0  0  0  0  0
   37.6260   23.3270   39.0880 C   0  0  0  0  0  0  0  0  0  0  0  0
   38.7170   23.6030   39.8790 C   0  0  0  0  0  0  0  0  0  0  0  0
   38.7570   24.7190   40.7150 C   0  0  0  0  0  0  0  0  0  0  0  0
   35.6980   25.9170   39.9300 H   0  0  0  0  0  0  0  0  0  0  0  0
   35.6560   23.9850   38.5030 H   0  0  0  0  0  0  0  0  0  0  0  0
   37.5450   22.4770   38.4250 H   0  0  0  0  0  0  0  0  0  0  0  0
   39.5450   22.9080   39.8230 H   0  0  0  0  0  0  0  0  0  0  0  0
   39.9390   24.9720   41.5680 C   0  0  0  0  0  2  0  0  0  0  0  0
   39.8860   24.4190   42.9400 C   0  0  0  0  0  2  0  0  0  0  0  0
   40.4420   25.0830   43.6640 H   0  0  0  0  0  0  0  0  0  0  0  0
   39.0750   28.2440   38.7990 N   0  0  0  0  0  0  0  0  0  0  0  0
   38.5770   28.1540   39.8520 C   0  0  0  0  0  0  0  0  0  0  0  0
  1  6  2  0  0  0  0
  1  2  1  0  0  0  0
  2  3  2  0  0  0  0
  3  4  1  0  0  0  0
  3  7  1  0  0  0  0
  4  8  1  0  0  0  0
  5  9  1  0  0  0  0
  5  4  2  0  0  0  0
  6  5  1  0  0  0  0
 10 15  2  0  0  0  0
 10 11  1  0  0  0  0
 11 12  2  0  0  0  0
 12 13  1  0  0  0  0
 12  2  1  0  0  0  0
 14 18  1  0  0  0  0
 14 13  2  0  0  0  0
 15 14  1  0  0  0  0
 16 10  1  0  0  0  0
 17 11  1  0  0  0  0
 19 16  1  0  0  0  0
 20 16  1  0  0  0  0
 21  6  1  0  0  0  0
 22 21  2  0  0  0  0
 23 22  1  0  0  0  0
 24 23  2  0  0  0  0
 24 25  1  0  0  0  0
 25 26  2  0  0  0  0
 26 21  1  0  0  0  0
 26 31  1  0  0  0  0
 27 22  1  0  0  0  0
 28 23  1  0  0  0  0
 29 24  1  0  0  0  0
 30 25  1  0  0  0  0
 31 32  1  0  0  0  0
 32 33  1  0  0  0  0
 34 35  3  0  0  0  0
 35  1  1  0  0  0  0
M  END
>  <minimizedAffinity>
-5.86568165

$$$$

 OpenBabel03252508403D

 35 37  0  0  0  0  0  0  0  0999 V2000
   37.8690   28.8680   39.9420 C   0  0  0  0  0  0  0  0  0  0  0  0
   37.4590   30.0140   39.3090 C   0  0  0  0  0  0  0  0  0  0  0  0
   36.2570   29.9930   38.6610 C   0  0  0  0  0  0  0  0  0  0  0  0
   35.4400   28.8890   38.6090 C   0  0  0  0  0  0  0  0  0  0  0  0
   35.8640   27.7510   39.2470 C   0  0  0  0  0  0  0  0  0  0  0  0
   37.0780   27.7190   39.9220 C   0  0  0  0  0  0  0  0  0  0  0  0
   35.9750   30.9230   38.1770 H   0  0  0  0  0  0  0  0  0  0  0  0
   34.5030   28.9240   38.0840 H   0  0  0  0  0  0  0  0  0  0  0  0
   35.2280   26.8700   39.2160 H   0  0  0  0  0  0  0  0  0  0  0  0
   39.1040   33.2150   40.4400 C   0  0  0  0  0  0  0  0  0  0  0  0
   38.2160   32.1280   40.4040 C   0  0  0  0  0  0  0  0  0  0  0  0
   38.3490   31.1570   39.3920 C   0  0  0  0  0  0  0  0  0  0  0  0
   39.3640   31.3700   38.5060 N   0  0  0  0  0  0  0  0  0  0  0  0
   40.1920   32.4140   38.5680 C   0  0  0  0  0  0  0  0  0  0  0  0
   40.0560   33.3380   39.5410 N   0  0  0  0  0  0  0  0  0  0  0  0
   38.9210   34.1590   41.4780 N   0  0  0  0  0  0  0  0  0  0  0  0
   37.4200   32.0020   41.1300 H   0  0  0  0  0  0  0  0  0  0  0  0
   40.9940   32.5710   37.8570 H   0  0  0  0  0  0  0  0  0  0  0  0
   38.0100   34.2640   41.9740 H   0  0  0  0  0  0  0  0  0  0  0  0
   39.6240   34.8210   41.8520 H   0  0  0  0  0  0  0  0  0  0  0  0
   37.4380   26.4710   40.5610 C   0  0  0  0  0  0  0  0  0  0  0  0
   38.0770   25.5530   39.7440 C   0  0  0  0  0  0  0  0  0  0  0  0
   38.5010   24.2980   40.1770 C   0  0  0  0  0  0  0  0  0  0  0  0
   38.2600   23.9710   41.4980 C   0  0  0  0  0  0  0  0  0  0  0  0
   37.6270   24.8710   42.3210 C   0  0  0  0  0  0  0  0  0  0  0  0
   37.2110   26.1220   41.8630 C   0  0  0  0  0  0  0  0  0  0  0  0
   38.2930   25.7640   38.6830 H   0  0  0  0  0  0  0  0  0  0  0  0
   38.9940   23.6160   39.5000 H   0  0  0  0  0  0  0  0  0  0  0  0
   38.6000   22.9910   41.8030 H   0  0  0  0  0  0  0  0  0  0  0  0
   37.4630   24.5620   43.3450 H   0  0  0  0  0  0  0  0  0  0  0  0
   36.5130   27.0580   42.7720 C   0  0  0  0  0  2  0  0  0  0  0  0
   37.3720   27.8540   43.6780 C   0  0  0  0  0  2  0  0  0  0  0  0
   36.8480   28.0530   44.6570 H   0  0  0  0  0  0  0  0  0  0  0  0
   40.1410   28.7680   41.2030 N   0  0  0  0  0  0  0  0  0  0  0  0
   39.1170   28.8070   40.6420 C   0  0  0  0  0  0  0  0  0  0  0  0
  1 35  1  0  0  0  0
  2 12  1  0  0  0  0
  2  1  2  0  0  0  0
  3  2  1  0  0  0  0
  4  3  2  0  0  0  0
  4  5  1  0  0  0  0
  5  6  2  0  0  0  0
  6  1  1  0  0  0  0
  6 21  1  0  0  0  0
  7  3  1  0  0  0  0
  8  4  1  0  0  0  0
  9  5  1  0  0  0  0
 10 16  1  0  0  0  0
 11 10  1  0  0  0  0
 11 17  1  0  0  0  0
 12 11  2  0  0  0  0
 13 14  2  0  0  0  0
 13 12  1  0  0  0  0
 14 15  1  0  0  0  0
 15 10  2  0  0  0  0
 16 20  1  0  0  0  0
 16 19  1  0  0  0  0
 18 14  1  0  0  0  0
 21 26  1  0  0  0  0
 22 23  1  0  0  0  0
 22 21  2  0  0  0  0
 23 24  2  0  0  0  0
 24 29  1  0  0  0  0
 24 25  1  0  0  0  0
 25 30  1  0  0  0  0
 26 25  2  0  0  0  0
 26 31  1  0  0  0  0
 27 22  1  0  0  0  0
 28 23  1  0  0  0  0
 31 32  1  0  0  0  0
 32 33  1  0  0  0  0
 35 34  3  0  0  0  0
M  END
>  <minimizedAffinity>
-5.81114244

$$$$

 OpenBabel03252508403D

 35 37  0  0  0  0  0  0  0  0999 V2000
   39.3670   31.3350   40.5290 C   0  0  0  0  0  0  0  0  0  0  0  0
   39.3960   32.5700   39.9320 C   0  0  0  0  0  0  0  0  0  0  0  0
   38.2050   33.1860   39.6760 C   0  0  0  0  0  0  0  0  0  0  0  0
   36.9820   32.6360   39.9820 C   0  0  0  0  0  0  0  0  0  0  0  0
   36.9700   31.4010   40.5790 C   0  0  0  0  0  0  0  0  0  0  0  0
   38.1540   30.7310   40.8620 C   0  0  0  0  0  0  0  0  0  0  0  0
   38.2780   34.1610   39.2050 H   0  0  0  0  0  0  0  0  0  0  0  0
   36.0720   33.1620   39.7580 H   0  0  0  0  0  0  0  0  0  0  0  0
   36.0120   30.9530   40.8280 H   0  0  0  0  0  0  0  0  0  0  0  0
   42.3920   33.8990   38.0640 C   0  0  0  0  0  0  0  0  0  0  0  0
   41.1140   33.3690   38.3050 C   0  0  0  0  0  0  0  0  0  0  0  0
   40.7050   33.1160   39.6290 C   0  0  0  0  0  0  0  0  0  0  0  0
   41.6230   33.4180   40.5920 N   0  0  0  0  0  0  0  0  0  0  0  0
   42.8300   33.9210   40.3310 C   0  0  0  0  0  0  0  0  0  0  0  0
   43.2110   34.1600   39.0600 N   0  0  0  0  0  0  0  0  0  0  0  0
   42.7480   34.1310   36.7140 N   0  0  0  0  0  0  0  0  0  0  0  0
   40.4180   33.1410   37.5040 H   0  0  0  0  0  0  0  0  0  0  0  0
   43.5490   34.1560   41.1060 H   0  0  0  0  0  0  0  0  0  0  0  0
   42.2740   33.6380   35.9270 H   0  0  0  0  0  0  0  0  0  0  0  0
   43.4760   34.7770   36.3620 H   0  0  0  0  0  0  0  0  0  0  0  0
   38.0370   29.4320   41.4890 C   0  0  0  0  0  0  0  0  0  0  0  0
   37.9680   29.4480   42.8720 C   0  0  0  0  0  0  0  0  0  0  0  0
   37.8520   28.2990   43.6530 C   0  0  0  0  0  0  0  0  0  0  0  0
   37.8050   27.0870   42.9890 C   0  0  0  0  0  0  0  0  0  0  0  0
   37.8710   27.0550   41.6170 C   0  0  0  0  0  0  0  0  0  0  0  0
   37.9880   28.2200   40.8580 C   0  0  0  0  0  0  0  0  0  0  0  0
   38.0030   30.3860   43.4490 H   0  0  0  0  0  0  0  0  0  0  0  0
   37.8050   28.3630   44.7300 H   0  0  0  0  0  0  0  0  0  0  0  0
   37.7160   26.2150   43.6220 H   0  0  0  0  0  0  0  0  0  0  0  0
   37.8310   26.0790   41.1510 H   0  0  0  0  0  0  0  0  0  0  0  0
   38.0790   28.1460   39.3830 C   0  0  0  0  0  2  0  0  0  0  0  0
   39.3930   27.7510   38.8270 C   0  0  0  0  0  2  0  0  0  0  0  0
   39.5790   28.2550   37.8350 H   0  0  0  0  0  0  0  0  0  0  0  0
   41.5480   30.0280   41.0740 N   0  0  0  0  0  0  0  0  0  0  0  0
   40.5720   30.6220   40.8290 C   0  0  0  0  0  0  0  0  0  0  0  0
  1 35  1  0  0  0  0
  1  6  1  0  0  0  0
  2  1  2  0  0  0  0
  3  2  1  0  0  0  0
  3  4  2  0  0  0  0
  4  5  1  0  0  0  0
  5  9  1  0  0  0  0
  5  6  2  0  0  0  0
  6 21  1  0  0  0  0
  7  3  1  0  0  0  0
  8  4  1  0  0  0  0
 10 11  2  0  0  0  0
 10 15  1  0  0  0  0
 11 12  1  0  0  0  0
 12  2  1  0  0  0  0
 12 13  2  0  0  0  0
 14 13  1  0  0  0  0
 14 18  1  0  0  0  0
 15 14  2  0  0  0  0
 16 10  1  0  0  0  0
 17 11  1  0  0  0  0
 19 16  1  0  0  0  0
 20 16  1  0  0  0  0
 21 22  1  0  0  0  0
 22 27  1  0  0  0  0
 22 23  2  0  0  0  0
 23 28  1  0  0  0  0
 24 29  1  0  0  0  0
 24 23  1  0  0  0  0
 25 24  2  0  0  0  0
 26 21  2  0  0  0  0
 26 25  1  0  0  0  0
 30 25  1  0  0  0  0
 31 26  1  0  0  0  0
 32 31  1  0  0  0  0
 33 32  1  0  0  0  0
 35 34  3  0  0  0  0
M  END
>  <minimizedAffinity>
-5.73565626

$$$$

 OpenBabel03252508403D

 35 37  0  0  0  0  0  0  0  0999 V2000
   38.4720   27.8320   41.4320 C   0  0  0  0  0  0  0  0  0  0  0  0
   38.9010   27.5460   42.7030 C   0  0  0  0  0  0  0  0  0  0  0  0
   37.9580   27.3990   43.6790 C   0  0  0  0  0  0  0  0  0  0  0  0
   36.6070   27.5210   43.4570 C   0  0  0  0  0  0  0  0  0  0  0  0
   36.1940   27.8070   42.1810 C   0  0  0  0  0  0  0  0  0  0  0  0
   37.1120   27.9660   41.1500 C   0  0  0  0  0  0  0  0  0  0  0  0
   38.3450   27.1720   44.6680 H   0  0  0  0  0  0  0  0  0  0  0  0
   35.9050   27.3970   44.2610 H   0  0  0  0  0  0  0  0  0  0  0  0
   35.1290   27.9060   41.9890 H   0  0  0  0  0  0  0  0  0  0  0  0
   42.3460   26.0990   43.2240 C   0  0  0  0  0  0  0  0  0  0  0  0
   40.9550   26.1660   43.0420 C   0  0  0  0  0  0  0  0  0  0  0  0
   40.3340   27.4210   42.8940 C   0  0  0  0  0  0  0  0  0  0  0  0
   41.1710   28.4970   42.9420 N   0  0  0  0  0  0  0  0  0  0  0  0
   42.4890   28.4010   43.1160 C   0  0  0  0  0  0  0  0  0  0  0  0
   43.0740   27.1940   43.2570 N   0  0  0  0  0  0  0  0  0  0  0  0
   42.9140   24.8100   43.3690 N   0  0  0  0  0  0  0  0  0  0  0  0
   40.3290   25.2800   43.0130 H   0  0  0  0  0  0  0  0  0  0  0  0
   43.1420   29.2640   43.1530 H   0  0  0  0  0  0  0  0  0  0  0  0
   42.3480   23.9900   43.6750 H   0  0  0  0  0  0  0  0  0  0  0  0
   43.8990   24.5390   43.2000 H   0  0  0  0  0  0  0  0  0  0  0  0
   36.5780   28.2690   39.8390 C   0  0  0  0  0  0  0  0  0  0  0  0
   36.2600   27.1680   39.0620 C   0  0  0  0  0  0  0  0  0  0  0  0
   35.7340   27.2580   37.7750 C   0  0  0  0  0  0  0  0  0  0  0  0
   35.5270   28.5250   37.2640 C   0  0  0  0  0  0  0  0  0  0  0  0
   35.8370   29.6280   38.0230 C   0  0  0  0  0  0  0  0  0  0  0  0
   36.3640   29.5110   39.3110 C   0  0  0  0  0  0  0  0  0  0  0  0
   36.4060   26.1360   39.4220 H   0  0  0  0  0  0  0  0  0  0  0  0
   35.5040   26.3680   37.2070 H   0  0  0  0  0  0  0  0  0  0  0  0
   35.1190   28.5610   36.2630 H   0  0  0  0  0  0  0  0  0  0  0  0
   35.6550   30.5950   37.5730 H   0  0  0  0  0  0  0  0  0  0  0  0
   36.7070   30.7210   40.0910 C   0  0  0  0  0  2  0  0  0  0  0  0
   37.8420   31.5270   39.5850 C   0  0  0  0  0  2  0  0  0  0  0  0
   38.4020   32.0110   40.4350 H   0  0  0  0  0  0  0  0  0  0  0  0
   40.1410   28.1490   39.4630 N   0  0  0  0  0  0  0  0  0  0  0  0
   39.3970   28.0040   40.3520 C   0  0  0  0  0  0  0  0  0  0  0  0
  1  2  1  0  0  0  0
  2 12  1  0  0  0  0
  2  3  2  0  0  0  0
  3  7  1  0  0  0  0
  4  3  1  0  0  0  0
  4  8  1  0  0  0  0
  5  4  2  0  0  0  0
  6  1  2  0  0  0  0
  6  5  1  0  0  0  0
  9  5  1  0  0  0  0
 10 15  1  0  0  0  0
 10 16  1  0  0  0  0
 11 10  2  0  0  0  0
 12 13  2  0  0  0  0
 12 11  1  0  0  0  0
 13 14  1  0  0  0  0
 14 18  1  0  0  0  0
 14 15  2  0  0  0  0
 16 19  1  0  0  0  0
 17 11  1  0  0  0  0
 20 16  1  0  0  0  0
 21  6  1  0  0  0  0
 22 27  1  0  0  0  0
 22 21  2  0  0  0  0
 23 22  1  0  0  0  0
 24 23  2  0  0  0  0
 24 25  1  0  0  0  0
 25 26  2  0  0  0  0
 26 21  1  0  0  0  0
 26 31  1  0  0  0  0
 28 23  1  0  0  0  0
 29 24  1  0  0  0  0
 30 25  1  0  0  0  0
 32 31  1  0  0  0  0
 32 33  1  0  0  0  0
 34 35  3  0  0  0  0
 35  1  1  0  0  0  0
M  END
>  <minimizedAffinity>
-5.56283474

$$$$

 OpenBabel03252508403D

 35 37  0  0  0  0  0  0  0  0999 V2000
   37.8820   28.9350   40.1640 C   0  0  0  0  0  0  0  0  0  0  0  0
   37.7470   30.2980   40.0780 C   0  0  0  0  0  0  0  0  0  0  0  0
   36.5130   30.8350   40.3080 C   0  0  0  0  0  0  0  0  0  0  0  0
   35.4030   30.0850   40.6200 C   0  0  0  0  0  0  0  0  0  0  0  0
   35.5550   28.7250   40.7020 C   0  0  0  0  0  0  0  0  0  0  0  0
   36.7890   28.1280   40.4780 C   0  0  0  0  0  0  0  0  0  0  0  0
   36.4550   31.9160   40.2300 H   0  0  0  0  0  0  0  0  0  0  0  0
   34.4520   30.5570   40.7910 H   0  0  0  0  0  0  0  0  0  0  0  0
   34.6870   28.1190   40.9480 H   0  0  0  0  0  0  0  0  0  0  0  0
   40.3930   32.1890   38.1670 C   0  0  0  0  0  0  0  0  0  0  0  0
   39.2210   31.4610   38.4320 C   0  0  0  0  0  0  0  0  0  0  0  0
   38.9420   31.0510   39.7510 C   0  0  0  0  0  0  0  0  0  0  0  0
   39.8700   31.4110   40.6830 N   0  0  0  0  0  0  0  0  0  0  0  0
   40.9730   32.1040   40.4000 C   0  0  0  0  0  0  0  0  0  0  0  0
   41.2310   32.4920   39.1340 N   0  0  0  0  0  0  0  0  0  0  0  0
   40.6210   32.5730   36.8240 N   0  0  0  0  0  0  0  0  0  0  0  0
   38.5130   31.1950   37.6540 H   0  0  0  0  0  0  0  0  0  0  0  0
   41.7020   32.3830   41.1510 H   0  0  0  0  0  0  0  0  0  0  0  0
   40.1710   32.0770   36.0250 H   0  0  0  0  0  0  0  0  0  0  0  0
   41.2250   33.3440   36.4880 H   0  0  0  0  0  0  0  0  0  0  0  0
   36.8460   26.6850   40.5850 C   0  0  0  0  0  0  0  0  0  0  0  0
   37.0510   26.1950   41.8640 C   0  0  0  0  0  0  0  0  0  0  0  0
   37.1350   24.8370   42.1660 C   0  0  0  0  0  0  0  0  0  0  0  0
   37.0030   23.9470   41.1170 C   0  0  0  0  0  0  0  0  0  0  0  0
   36.7990   24.4180   39.8420 C   0  0  0  0  0  0  0  0  0  0  0  0
   36.7200   25.7840   39.5650 C   0  0  0  0  0  0  0  0  0  0  0  0
   37.1630   26.8620   42.7350 H   0  0  0  0  0  0  0  0  0  0  0  0
   37.2980   24.5050   43.1810 H   0  0  0  0  0  0  0  0  0  0  0  0
   37.0730   22.9020   41.3840 H   0  0  0  0  0  0  0  0  0  0  0  0
   36.7040   23.6760   39.0600 H   0  0  0  0  0  0  0  0  0  0  0  0
   36.5210   26.2550   38.1760 C   0  0  0  0  0  2  0  0  0  0  0  0
   35.1280   26.2440   37.6750 C   0  0  0  0  0  2  0  0  0  0  0  0
   35.1010   26.0300   36.5670 H   0  0  0  0  0  0  0  0  0  0  0  0
   40.1700   27.7680   39.7610 N   0  0  0  0  0  0  0  0  0  0  0  0
   39.1420   28.2940   39.9340 C   0  0  0  0  0  0  0  0  0  0  0  0
  1  6  1  0  0  0  0
  2  1  2  0  0  0  0
  2  3  1  0  0  0  0
  3  4  2  0  0  0  0
  4  5  1  0  0  0  0
  4  8  1  0  0  0  0
  5  9  1  0  0  0  0
  6 21  1  0  0  0  0
  6  5  2  0  0  0  0
  7  3  1  0  0  0  0
 10 11  2  0  0  0  0
 10 15  1  0  0  0  0
 11 12  1  0  0  0  0
 12  2  1  0  0  0  0
 12 13  2  0  0  0  0
 14 13  1  0  0  0  0
 14 18  1  0  0  0  0
 15 14  2  0  0  0  0
 16 10  1  0  0  0  0
 17 11  1  0  0  0  0
 19 16  1  0  0  0  0
 20 16  1  0  0  0  0
 21 22  1  0  0  0  0
 22 23  2  0  0  0  0
 22 27  1  0  0  0  0
 23 28  1  0  0  0  0
 24 29  1  0  0  0  0
 24 23  1  0  0  0  0
 25 24  2  0  0  0  0
 26 25  1  0  0  0  0
 26 21  2  0  0  0  0
 30 25  1  0  0  0  0
 31 26  1  0  0  0  0
 32 31  1  0  0  0  0
 33 32  1  0  0  0  0
 34 35  3  0  0  0  0
 35  1  1  0  0  0  0
M  END
>  <minimizedAffinity>
-5.55176449

$$$$

 OpenBabel03252508403D

 35 37  0  0  0  0  0  0  0  0999 V2000
   37.7780   29.3820   39.8780 C   0  0  0  0  0  0  0  0  0  0  0  0
   37.0960   30.2900   39.1070 C   0  0  0  0  0  0  0  0  0  0  0  0
   37.1090   31.5990   39.4970 C   0  0  0  0  0  0  0  0  0  0  0  0
   37.7670   32.0530   40.6160 C   0  0  0  0  0  0  0  0  0  0  0  0
   38.4440   31.1330   41.3750 C   0  0  0  0  0  0  0  0  0  0  0  0
   38.4630   29.7890   41.0220 C   0  0  0  0  0  0  0  0  0  0  0  0
   36.5580   32.2790   38.8560 H   0  0  0  0  0  0  0  0  0  0  0  0
   37.7450   33.0950   40.8800 H   0  0  0  0  0  0  0  0  0  0  0  0
   38.9700   31.4770   42.2620 H   0  0  0  0  0  0  0  0  0  0  0  0
   36.3650   29.1690   35.5800 C   0  0  0  0  0  0  0  0  0  0  0  0
   37.0640   29.6800   36.6860 C   0  0  0  0  0  0  0  0  0  0  0  0
   36.4190   29.7700   37.9350 C   0  0  0  0  0  0  0  0  0  0  0  0
   35.1260   29.3370   37.9570 N   0  0  0  0  0  0  0  0  0  0  0  0
   34.4890   28.8550   36.8890 C   0  0  0  0  0  0  0  0  0  0  0  0
   35.1160   28.7730   35.6980 N   0  0  0  0  0  0  0  0  0  0  0  0
   37.0650   29.1040   34.3520 N   0  0  0  0  0  0  0  0  0  0  0  0
   38.0940   30.0170   36.6180 H   0  0  0  0  0  0  0  0  0  0  0  0
   33.4610   28.5140   36.9210 H   0  0  0  0  0  0  0  0  0  0  0  0
   37.9000   29.6990   34.1610 H   0  0  0  0  0  0  0  0  0  0  0  0
   36.8480   28.4970   33.5410 H   0  0  0  0  0  0  0  0  0  0  0  0
   39.2030   28.8960   41.8900 C   0  0  0  0  0  0  0  0  0  0  0  0
   40.5520   28.7790   41.6030 C   0  0  0  0  0  0  0  0  0  0  0  0
   41.4270   27.9690   42.3260 C   0  0  0  0  0  0  0  0  0  0  0  0
   40.8970   27.2520   43.3820 C   0  0  0  0  0  0  0  0  0  0  0  0
   39.5590   27.3590   43.6790 C   0  0  0  0  0  0  0  0  0  0  0  0
   38.7040   28.1770   42.9390 C   0  0  0  0  0  0  0  0  0  0  0  0
   41.0240   29.3280   40.7720 H   0  0  0  0  0  0  0  0  0  0  0  0
   42.4720   27.9090   42.0610 H   0  0  0  0  0  0  0  0  0  0  0  0
   41.6010   26.6330   43.9210 H   0  0  0  0  0  0  0  0  0  0  0  0
   39.2000   26.7740   44.5150 H   0  0  0  0  0  0  0  0  0  0  0  0
   37.2640   28.2500   43.2740 C   0  0  0  0  0  2  0  0  0  0  0  0
   36.4610   27.0420   42.9770 C   0  0  0  0  0  2  0  0  0  0  0  0
   35.4060   27.3220   42.6890 H   0  0  0  0  0  0  0  0  0  0  0  0
   37.8350   26.8530   39.2780 N   0  0  0  0  0  0  0  0  0  0  0  0
   37.8100   27.9910   39.5390 C   0  0  0  0  0  0  0  0  0  0  0  0
  1  6  1  0  0  0  0
  2  3  1  0  0  0  0
  2  1  2  0  0  0  0
  3  4  2  0  0  0  0
  4  8  1  0  0  0  0
  4  5  1  0  0  0  0
  5  9  1  0  0  0  0
  6  5  2  0  0  0  0
  6 21  1  0  0  0  0
  7  3  1  0  0  0  0
 10 15  2  0  0  0  0
 10 11  1  0  0  0  0
 11 12  2  0  0  0  0
 12 13  1  0  0  0  0
 12  2  1  0  0  0  0
 14 18  1  0  0  0  0
 14 13  2  0  0  0  0
 15 14  1  0  0  0  0
 16 10  1  0  0  0  0
 17 11  1  0  0  0  0
 19 16  1  0  0  0  0
 20 16  1  0  0  0  0
 21 26  1  0  0  0  0
 22 21  2  0  0  0  0
 22 23  1  0  0  0  0
 23 24  2  0  0  0  0
 24 25  1  0  0  0  0
 24 29  1  0  0  0  0
 25 30  1  0  0  0  0
 26 31  1  0  0  0  0
 26 25  2  0  0  0  0
 27 22  1  0  0  0  0
 28 23  1  0  0  0  0
 32 31  1  0  0  0  0
 33 32  1  0  0  0  0
 34 35  3  0  0  0  0
 35  1  1  0  0  0  0
M  END
>  <minimizedAffinity>
-5.43202734

$$$$

 OpenBabel03252508403D

 35 37  0  0  0  0  0  0  0  0999 V2000
   38.2950   28.4640   41.3470 C   0  0  0  0  0  0  0  0  0  0  0  0
   38.9360   28.5770   42.5550 C   0  0  0  0  0  0  0  0  0  0  0  0
   38.2540   28.2070   43.6780 C   0  0  0  0  0  0  0  0  0  0  0  0
   36.9640   27.7310   43.6640 C   0  0  0  0  0  0  0  0  0  0  0  0
   36.3380   27.6250   42.4480 C   0  0  0  0  0  0  0  0  0  0  0  0
   36.9880   27.9860   41.2740 C   0  0  0  0  0  0  0  0  0  0  0  0
   38.8020   28.3120   44.6100 H   0  0  0  0  0  0  0  0  0  0  0  0
   36.4710   27.4550   44.5770 H   0  0  0  0  0  0  0  0  0  0  0  0
   35.3180   27.2490   42.4200 H   0  0  0  0  0  0  0  0  0  0  0  0
   41.9130   30.8950   42.5620 C   0  0  0  0  0  0  0  0  0  0  0  0
   40.5780   30.4580   42.5930 C   0  0  0  0  0  0  0  0  0  0  0  0
   40.2970   29.0800   42.5260 C   0  0  0  0  0  0  0  0  0  0  0  0
   41.3860   28.2640   42.4330 N   0  0  0  0  0  0  0  0  0  0  0  0
   42.6430   28.7090   42.4070 C   0  0  0  0  0  0  0  0  0  0  0  0
   42.9010   30.0310   42.4710 N   0  0  0  0  0  0  0  0  0  0  0  0
   42.1340   32.2910   42.6310 N   0  0  0  0  0  0  0  0  0  0  0  0
   39.7420   31.1470   42.6650 H   0  0  0  0  0  0  0  0  0  0  0  0
   43.4990   28.0500   42.3320 H   0  0  0  0  0  0  0  0  0  0  0  0
   41.3960   32.9790   42.3710 H   0  0  0  0  0  0  0  0  0  0  0  0
   43.0010   32.7720   42.9290 H   0  0  0  0  0  0  0  0  0  0  0  0
   36.2410   27.8410   40.0420 C   0  0  0  0  0  0  0  0  0  0  0  0
   35.4030   28.8980   39.7310 C   0  0  0  0  0  0  0  0  0  0  0  0
   34.6060   28.9420   38.5890 C   0  0  0  0  0  0  0  0  0  0  0  0
   34.6690   27.8590   37.7330 C   0  0  0  0  0  0  0  0  0  0  0  0
   35.4960   26.8010   38.0280 C   0  0  0  0  0  0  0  0  0  0  0  0
   36.2850   26.7810   39.1790 C   0  0  0  0  0  0  0  0  0  0  0  0
   35.3150   29.7860   40.3800 H   0  0  0  0  0  0  0  0  0  0  0  0
   33.9670   29.7900   38.3920 H   0  0  0  0  0  0  0  0  0  0  0  0
   34.0390   27.9220   36.8570 H   0  0  0  0  0  0  0  0  0  0  0  0
   35.5050   25.9800   37.3230 H   0  0  0  0  0  0  0  0  0  0  0  0
   37.1470   25.6160   39.4760 C   0  0  0  0  0  2  0  0  0  0  0  0
   36.4940   24.4760   40.1600 C   0  0  0  0  0  2  0  0  0  0  0  0
   37.2200   23.9490   40.8450 H   0  0  0  0  0  0  0  0  0  0  0  0
   39.4790   29.1390   39.1320 N   0  0  0  0  0  0  0  0  0  0  0  0
   38.9410   28.8330   40.1230 C   0  0  0  0  0  0  0  0  0  0  0  0
  1  2  1  0  0  0  0
  2  3  2  0  0  0  0
  3  7  1  0  0  0  0
  4  3  1  0  0  0  0
  4  8  1  0  0  0  0
  5  4  2  0  0  0  0
  6  1  2  0  0  0  0
  6  5  1  0  0  0  0
  9  5  1  0  0  0  0
 10 11  1  0  0  0  0
 10 16  1  0  0  0  0
 11 17  1  0  0  0  0
 12  2  1  0  0  0  0
 12 11  2  0  0  0  0
 13 12  1  0  0  0  0
 14 13  2  0  0  0  0
 14 15  1  0  0  0  0
 15 10  2  0  0  0  0
 16 20  1  0  0  0  0
 18 14  1  0  0  0  0
 19 16  1  0  0  0  0
 21  6  1  0  0  0  0
 22 21  1  0  0  0  0
 22 27  1  0  0  0  0
 23 22  2  0  0  0  0
 24 25  2  0  0  0  0
 24 23  1  0  0  0  0
 25 26  1  0  0  0  0
 26 31  1  0  0  0  0
 26 21  2  0  0  0  0
 28 23  1  0  0  0  0
 29 24  1  0  0  0  0
 30 25  1  0  0  0  0
 31 32  1  0  0  0  0
 32 33  1  0  0  0  0
 34 35  3  0  0  0  0
 35  1  1  0  0  0  0
M  END
>  <minimizedAffinity>
-5.42160273

$$$$

 OpenBabel03252508403D

 35 37  0  0  0  0  0  0  0  0999 V2000
   38.4640   27.7900   41.4900 C   0  0  0  0  0  0  0  0  0  0  0  0
   38.4080   28.8830   42.3170 C   0  0  0  0  0  0  0  0  0  0  0  0
   37.5590   28.8350   43.3850 C   0  0  0  0  0  0  0  0  0  0  0  0
   36.7610   27.7540   43.6750 C   0  0  0  0  0  0  0  0  0  0  0  0
   36.8290   26.6690   42.8390 C   0  0  0  0  0  0  0  0  0  0  0  0
   37.6770   26.6650   41.7380 C   0  0  0  0  0  0  0  0  0  0  0  0
   37.5500   29.7220   44.0100 H   0  0  0  0  0  0  0  0  0  0  0  0
   36.1080   27.7670   44.5280 H   0  0  0  0  0  0  0  0  0  0  0  0
   36.2050   25.8060   43.0550 H   0  0  0  0  0  0  0  0  0  0  0  0
   41.1950   31.4240   42.3860 C   0  0  0  0  0  0  0  0  0  0  0  0
   40.3930   30.3330   42.7580 C   0  0  0  0  0  0  0  0  0  0  0  0
   39.2680   30.0010   41.9770 C   0  0  0  0  0  0  0  0  0  0  0  0
   39.0520   30.7990   40.8930 N   0  0  0  0  0  0  0  0  0  0  0  0
   39.8330   31.8290   40.5660 C   0  0  0  0  0  0  0  0  0  0  0  0
   40.9080   32.1390   41.3200 N   0  0  0  0  0  0  0  0  0  0  0  0
   42.3100   31.7110   43.2090 N   0  0  0  0  0  0  0  0  0  0  0  0
   40.6040   29.7270   43.6330 H   0  0  0  0  0  0  0  0  0  0  0  0
   39.6490   32.4560   39.7020 H   0  0  0  0  0  0  0  0  0  0  0  0
   42.3620   31.3910   44.2000 H   0  0  0  0  0  0  0  0  0  0  0  0
   43.1600   32.2420   42.9460 H   0  0  0  0  0  0  0  0  0  0  0  0
   37.6740   25.4750   40.9140 C   0  0  0  0  0  0  0  0  0  0  0  0
   38.4030   24.4090   41.4140 C   0  0  0  0  0  0  0  0  0  0  0  0
   38.5190   23.1810   40.7660 C   0  0  0  0  0  0  0  0  0  0  0  0
   37.8620   23.0400   39.5580 C   0  0  0  0  0  0  0  0  0  0  0  0
   37.1340   24.0880   39.0490 C   0  0  0  0  0  0  0  0  0  0  0  0
   37.0350   25.3100   39.7170 C   0  0  0  0  0  0  0  0  0  0  0  0
   38.9460   24.4700   42.3720 H   0  0  0  0  0  0  0  0  0  0  0  0
   39.1020   22.3800   41.1970 H   0  0  0  0  0  0  0  0  0  0  0  0
   37.9720   22.0760   39.0800 H   0  0  0  0  0  0  0  0  0  0  0  0
   36.6420   23.9220   38.1000 H   0  0  0  0  0  0  0  0  0  0  0  0
   36.2600   26.4240   39.1280 C   0  0  0  0  0  2  0  0  0  0  0  0
   35.4820   26.1070   37.9090 C   0  0  0  0  0  2  0  0  0  0  0  0
   35.4280   27.0010   37.2220 H   0  0  0  0  0  0  0  0  0  0  0  0
   40.0370   27.7510   39.4190 N   0  0  0  0  0  0  0  0  0  0  0  0
   39.3260   27.7620   40.3460 C   0  0  0  0  0  0  0  0  0  0  0  0
  1  6  2  0  0  0  0
  1  2  1  0  0  0  0
  2  3  2  0  0  0  0
  3  4  1  0  0  0  0
  3  7  1  0  0  0  0
  4  8  1  0  0  0  0
  5  9  1  0  0  0  0
  5  4  2  0  0  0  0
  6  5  1  0  0  0  0
 10 11  1  0  0  0  0
 10 16  1  0  0  0  0
 11 17  1  0  0  0  0
 12  2  1  0  0  0  0
 12 11  2  0  0  0  0
 13 12  1  0  0  0  0
 14 13  2  0  0  0  0
 14 15  1  0  0  0  0
 15 10  2  0  0  0  0
 16 19  1  0  0  0  0
 18 14  1  0  0  0  0
 20 16  1  0  0  0  0
 21 22  1  0  0  0  0
 21  6  1  0  0  0  0
 22 27  1  0  0  0  0
 23 28  1  0  0  0  0
 23 22  2  0  0  0  0
 24 23  1  0  0  0  0
 25 24  2  0  0  0  0
 25 26  1  0  0  0  0
 26 21  2  0  0  0  0
 29 24  1  0  0  0  0
 30 25  1  0  0  0  0
 31 26  1  0  0  0  0
 32 31  1  0  0  0  0
 33 32  1  0  0  0  0
 34 35  3  0  0  0  0
 35  1  1  0  0  0  0
M  END
>  <minimizedAffinity>
-5.38036537

$$$$
