
 OpenBabel03252505253D

 37 39  0  0  1  0  0  0  0  0999 V2000
   46.7120   33.3520   44.6720 F   0  0  0  0  0  0  0  0  0  0  0  0
   47.3800   32.1760   44.4940 C   0  0  0  0  0  0  0  0  0  0  0  0
   48.2060   32.0560   43.4030 C   0  0  0  0  0  0  0  0  0  0  0  0
   48.8750   30.8750   43.2270 C   0  0  0  0  0  0  0  0  0  0  0  0
   48.7070   29.8490   44.1340 C   0  0  0  0  0  0  0  0  0  0  0  0
   47.8840   29.9610   45.2250 C   0  0  0  0  0  0  0  0  0  0  0  0
   47.2040   31.1800   45.3930 C   0  0  0  0  0  0  0  0  0  0  0  0
   49.5230   30.7950   42.3630 H   0  0  0  0  0  0  0  0  0  0  0  0
   49.2620   28.9400   43.9430 H   0  0  0  0  0  0  0  0  0  0  0  0
   47.7740   29.1410   45.9160 H   0  0  0  0  0  0  0  0  0  0  0  0
   46.3610   31.2420   46.5450 N   0  0  0  0  0  0  0  0  0  0  0  0
   45.2880   30.3950   46.9750 C   0  0  0  0  0  0  0  0  0  0  0  0
   45.6430   30.1280   48.4510 C   0  0  0  0  0  0  0  0  0  0  0  0
   46.5370   31.2900   48.8180 C   0  0  0  0  0  0  0  0  0  0  0  0
   46.3500   32.2020   47.6290 C   0  0  2  0  0  0  0  0  0  0  0  0
   44.2900   30.8460   46.8820 H   0  0  0  0  0  0  0  0  0  0  0  0
   45.3700   29.4140   46.4600 H   0  0  0  0  0  0  0  0  0  0  0  0
   44.7200   30.2350   49.0320 H   0  0  0  0  0  0  0  0  0  0  0  0
   46.1560   29.1740   48.5830 H   0  0  0  0  0  0  0  0  0  0  0  0
   46.2300   31.8120   49.7240 H   0  0  0  0  0  0  0  0  0  0  0  0
   47.6170   30.9990   48.8150 H   0  0  0  0  0  0  0  0  0  0  0  0
   47.2450   32.8770   47.5460 H   0  0  0  0  0  0  0  0  0  0  0  0
   45.1340   33.0550   47.6900 C   0  0  0  0  0  0  0  0  0  0  0  0
   44.2230   32.5490   48.0090 H   0  0  0  0  0  0  0  0  0  0  0  0
   44.9810   33.5190   46.7150 H   0  0  0  0  0  0  0  0  0  0  0  0
   45.3400   33.8290   48.4680 H   0  0  0  0  0  0  0  0  0  0  0  0
   49.1230   35.3290   42.0140 C   0  0  0  0  0  0  0  0  0  0  0  0
   48.6170   35.2590   40.6920 C   0  0  0  0  0  0  0  0  0  0  0  0
   47.9780   34.0770   40.3330 C   0  0  0  0  0  0  0  0  0  0  0  0
   47.8770   33.0840   41.2470 N   0  0  0  0  0  0  0  0  0  0  0  0
   48.3520   33.1680   42.4720 C   0  0  0  0  0  0  0  0  0  0  0  0
   48.9770   34.2920   42.8590 N   0  0  0  0  0  0  0  0  0  0  0  0
   49.6190   36.2360   42.3050 H   0  0  0  0  0  0  0  0  0  0  0  0
   48.7070   36.0610   39.9730 H   0  0  0  0  0  0  0  0  0  0  0  0
   47.4030   33.8660   38.9880 C   0  0  0  0  0  0  0  0  0  0  0  0
   48.3690   34.4370   37.9740 C   0  0  0  0  0  0  0  0  0  0  0  0
   49.3370   33.9050   37.9650 H   0  0  0  0  0  0  0  0  0  0  0  0
  2  1  1  0  0  0  0
  2  7  1  0  0  0  0
  3  2  2  0  0  0  0
  4  3  1  0  0  0  0
  4  5  2  0  0  0  0
  5  6  1  0  0  0  0
  6  7  2  0  0  0  0
  6 10  1  0  0  0  0
  7 11  1  0  0  0  0
  8  4  1  0  0  0  0
  9  5  1  0  0  0  0
 11 12  1  0  0  0  0
 11 15  1  0  0  0  0
 12 13  1  0  0  0  0
 13 19  1  0  0  0  0
 13 14  1  0  0  0  0
 13 18  1  0  0  0  0
 14 20  1  0  0  0  0
 15 22  1  6  0  0  0
 15 23  1  0  0  0  0
 15 14  1  0  0  0  0
 16 12  1  0  0  0  0
 17 12  1  0  0  0  0
 21 14  1  0  0  0  0
 23 24  1  0  0  0  0
 23 26  1  0  0  0  0
 25 23  1  0  0  0  0
 27 33  1  0  0  0  0
 27 32  1  0  0  0  0
 28 27  2  0  0  0  0
 29 28  1  0  0  0  0
 29 30  2  0  0  0  0
 30 31  1  0  0  0  0
 31 32  2  0  0  0  0
 31  3  1  0  0  0  0
 34 28  1  0  0  0  0
 35 29  1  0  0  0  0
 36 35  1  0  0  0  0
 37 36  1  0  0  0  0
M  END
>  <minimizedAffinity>
-5.11942673

>  <minimizedRMSD>
0.535139084

$$$$
