
 OpenBabel03252508573D

 33 34  0  0  1  0  0  0  0  0999 V2000
   49.3370   33.3020   42.5970 N   0  0  0  0  0  0  0  0  0  0  0  0
   49.7360   34.5970   42.1640 C   0  0  0  0  0  0  0  0  0  0  0  0
   48.6840   35.4880   41.5840 C   0  0  0  0  0  0  0  0  0  0  0  0
   47.3040   35.2880   42.1420 C   0  0  0  0  0  0  0  0  0  0  0  0
   47.2770   34.2810   43.2220 C   0  0  0  0  0  0  0  0  0  0  0  0
   47.9800   33.0000   42.6910 C   0  0  2  0  0  0  0  0  0  0  0  0
   50.5740   34.5260   41.4420 H   0  0  0  0  0  0  0  0  0  0  0  0
   50.1520   35.1200   43.0550 H   0  0  0  0  0  0  0  0  0  0  0  0
   49.0570   36.5380   41.6820 H   0  0  0  0  0  0  0  0  0  0  0  0
   48.6300   35.2500   40.4840 H   0  0  0  0  0  0  0  0  0  0  0  0
   46.5380   35.1340   41.3550 H   0  0  0  0  0  0  0  0  0  0  0  0
   47.0180   36.2770   42.6080 H   0  0  0  0  0  0  0  0  0  0  0  0
   47.8300   34.6590   44.1060 H   0  0  0  0  0  0  0  0  0  0  0  0
   46.2090   34.0800   43.4490 H   0  0  0  0  0  0  0  0  0  0  0  0
   47.4140   32.8010   41.7640 H   0  0  0  0  0  0  0  0  0  0  0  0
   50.2390   32.2630   42.2360 C   0  0  0  0  0  0  0  0  0  0  0  0
   50.4150   31.5410   43.0390 H   0  0  0  0  0  0  0  0  0  0  0  0
   51.2410   32.7610   42.0810 H   0  0  0  0  0  0  0  0  0  0  0  0
   49.8400   31.6050   40.9690 C   0  0  0  0  0  0  0  0  0  0  0  0
   49.0630   32.0680   40.3740 H   0  0  0  0  0  0  0  0  0  0  0  0
   49.6390   30.5200   41.2380 H   0  0  0  0  0  0  0  0  0  0  0  0
   51.9210   31.5790   37.8400 C   0  0  0  0  0  0  0  0  0  0  0  0
   50.8300   31.6530   38.7110 C   0  0  0  0  0  0  0  0  0  0  0  0
   51.0280   31.5180   40.0660 C   0  0  0  0  0  0  0  0  0  0  0  0
   52.2850   31.3170   40.4900 N   0  0  0  0  0  0  0  0  0  0  0  0
   53.3300   31.2470   39.6400 C   0  0  0  0  0  0  0  0  0  0  0  0
   53.1570   31.3760   38.3160 N   0  0  0  0  0  0  0  0  0  0  0  0
   51.7700   31.6830   36.7900 H   0  0  0  0  0  0  0  0  0  0  0  0
   49.8500   31.8210   38.2390 H   0  0  0  0  0  0  0  0  0  0  0  0
   54.3280   31.0810   40.0520 H   0  0  0  0  0  0  0  0  0  0  0  0
   47.6180   32.0340   43.8240 C   0  0  0  0  0  2  0  0  0  0  0  0
   46.9240   32.7780   44.9660 C   0  0  0  0  0  2  0  0  0  0  0  0
   46.2210   33.5410   44.5940 H   0  0  0  0  0  0  0  0  0  0  0  0
  1  6  1  0  0  0  0
  2  1  1  0  0  0  0
  2  8  1  0  0  0  0
  3  9  1  0  0  0  0
  3  4  1  0  0  0  0
  3  2  1  0  0  0  0
  4 12  1  0  0  0  0
  4  5  1  0  0  0  0
  5 14  1  0  0  0  0
  5 13  1  0  0  0  0
  6 15  1  6  0  0  0
  6  5  1  0  0  0  0
  6 31  1  0  0  0  0
  7  2  1  0  0  0  0
 10  3  1  0  0  0  0
 11  4  1  0  0  0  0
 16  1  1  0  0  0  0
 16 17  1  0  0  0  0
 18 16  1  0  0  0  0
 19 21  1  0  0  0  0
 19 16  1  0  0  0  0
 20 19  1  0  0  0  0
 22 27  2  0  0  0  0
 22 23  1  0  0  0  0
 23 24  2  0  0  0  0
 24 25  1  0  0  0  0
 24 19  1  0  0  0  0
 26 30  1  0  0  0  0
 26 25  2  0  0  0  0
 27 26  1  0  0  0  0
 28 22  1  0  0  0  0
 29 23  1  0  0  0  0
 31 32  1  0  0  0  0
 33 32  1  0  0  0  0
M  END
>  <minimizedAffinity>
-3.78214955

>  <minimizedRMSD>
6.83205795

$$$$
