
 OpenBabel03252508573D

 33 34  0  0  1  0  0  0  0  0999 V2000
   48.3290   33.2860   40.8190 N   0  0  0  0  0  0  0  0  0  0  0  0
   49.1590   32.1310   40.8380 C   0  0  0  0  0  0  0  0  0  0  0  0
   50.5790   32.3040   41.2720 C   0  0  0  0  0  0  0  0  0  0  0  0
   50.8070   33.3940   42.2810 C   0  0  0  0  0  0  0  0  0  0  0  0
   49.5470   34.0390   42.7020 C   0  0  0  0  0  0  0  0  0  0  0  0
   48.7800   34.4610   41.4170 C   0  0  2  0  0  0  0  0  0  0  0  0
   49.1510   31.6290   39.8490 H   0  0  0  0  0  0  0  0  0  0  0  0
   48.6880   31.4090   41.5430 H   0  0  0  0  0  0  0  0  0  0  0  0
   50.9420   31.3010   41.6090 H   0  0  0  0  0  0  0  0  0  0  0  0
   51.1660   32.5840   40.3510 H   0  0  0  0  0  0  0  0  0  0  0  0
   51.6040   34.1030   41.9790 H   0  0  0  0  0  0  0  0  0  0  0  0
   51.2330   32.8800   43.1920 H   0  0  0  0  0  0  0  0  0  0  0  0
   48.9270   33.3200   43.2750 H   0  0  0  0  0  0  0  0  0  0  0  0
   49.8260   34.9280   43.3050 H   0  0  0  0  0  0  0  0  0  0  0  0
   49.5390   35.0680   40.8910 H   0  0  0  0  0  0  0  0  0  0  0  0
   47.4960   33.3860   39.6710 C   0  0  0  0  0  0  0  0  0  0  0  0
   46.4940   33.7660   39.8930 H   0  0  0  0  0  0  0  0  0  0  0  0
   47.3230   32.3270   39.3180 H   0  0  0  0  0  0  0  0  0  0  0  0
   48.1530   34.1440   38.5780 C   0  0  0  0  0  0  0  0  0  0  0  0
   49.2270   34.2730   38.6200 H   0  0  0  0  0  0  0  0  0  0  0  0
   47.5690   35.1140   38.4850 H   0  0  0  0  0  0  0  0  0  0  0  0
   46.3380   32.3440   35.8250 C   0  0  0  0  0  0  0  0  0  0  0  0
   46.6180   32.9870   37.0330 C   0  0  0  0  0  0  0  0  0  0  0  0
   47.8880   33.4590   37.2770 C   0  0  0  0  0  0  0  0  0  0  0  0
   48.8110   33.2730   36.3220 N   0  0  0  0  0  0  0  0  0  0  0  0
   48.5290   32.6500   35.1590 C   0  0  0  0  0  0  0  0  0  0  0  0
   47.2980   32.1830   34.9020 N   0  0  0  0  0  0  0  0  0  0  0  0
   45.3560   31.9780   35.6330 H   0  0  0  0  0  0  0  0  0  0  0  0
   45.7760   33.0780   37.7350 H   0  0  0  0  0  0  0  0  0  0  0  0
   49.3280   32.5310   34.4230 H   0  0  0  0  0  0  0  0  0  0  0  0
   47.6800   35.3150   42.0560 C   0  0  0  0  0  2  0  0  0  0  0  0
   46.9300   34.5150   43.1220 C   0  0  0  0  0  2  0  0  0  0  0  0
   47.6090   33.8840   43.7200 H   0  0  0  0  0  0  0  0  0  0  0  0
  1  2  1  0  0  0  0
  1  6  1  0  0  0  0
  2  3  1  0  0  0  0
  2  8  1  0  0  0  0
  3  9  1  0  0  0  0
  3  4  1  0  0  0  0
  4  5  1  0  0  0  0
  4 12  1  0  0  0  0
  5 13  1  0  0  0  0
  5 14  1  0  0  0  0
  6 15  1  6  0  0  0
  6 31  1  0  0  0  0
  6  5  1  0  0  0  0
  7  2  1  0  0  0  0
 10  3  1  0  0  0  0
 11  4  1  0  0  0  0
 16 17  1  0  0  0  0
 16  1  1  0  0  0  0
 18 16  1  0  0  0  0
 19 20  1  0  0  0  0
 19 16  1  0  0  0  0
 21 19  1  0  0  0  0
 22 23  1  0  0  0  0
 23 24  2  0  0  0  0
 23 29  1  0  0  0  0
 24 19  1  0  0  0  0
 25 24  1  0  0  0  0
 26 25  2  0  0  0  0
 27 26  1  0  0  0  0
 27 22  2  0  0  0  0
 28 22  1  0  0  0  0
 30 26  1  0  0  0  0
 31 32  1  0  0  0  0
 32 33  1  0  0  0  0
M  END
>  <minimizedAffinity>
-3.97875547

>  <minimizedRMSD>
6.1969738

$$$$
