
     RDKit          3D

 42 43  0  0  0  0  0  0  0  0999 V2000
   46.5766   34.9075   43.2504 O   0  0  0  0  0  0  0  0  0  0  0  0
   46.8012   33.9767   42.2295 C   0  0  1  0  0  0  0  0  0  0  0  0
   46.0734   34.4142   40.9565 C   0  0  0  0  0  0  0  0  0  0  0  0
   46.6894   33.4796   39.9445 C   0  0  0  0  0  0  0  0  0  0  0  0
   48.0744   33.1438   40.4725 C   0  0  0  0  0  0  0  0  0  0  0  0
   48.2156   33.9587   41.7410 C   0  0  1  0  0  0  0  0  0  0  0  0
   48.7569   35.3356   41.4593 C   0  0  0  0  0  0  0  0  0  0  0  0
   49.6567   35.7533   42.4140 O   0  0  0  0  0  0  0  0  0  0  0  0
   44.7301   35.3497   44.9978 O   0  0  0  0  0  0  0  0  0  0  0  0
   45.5811   34.2390   44.4121 P   0  0  1  0  0  0  0  0  0  0  0  0
   44.6049   33.0404   43.7152 O   0  0  0  0  0  0  0  0  0  0  0  0
   46.4760   33.4899   45.6028 O   0  0  0  0  0  0  0  0  0  0  0  0
   46.2422   32.1567   45.5742 C   0  0  0  0  0  0  0  0  0  0  0  0
   45.6390   31.9093   49.2429 C   0  0  0  0  0  0  0  0  0  0  0  0
   45.9803   32.4553   47.9942 C   0  0  0  0  0  0  0  0  0  0  0  0
   45.8881   31.6039   46.8928 C   0  0  0  0  0  0  0  0  0  0  0  0
   45.4788   30.3061   47.0760 N   0  0  0  0  0  0  0  0  0  0  0  0
   45.1581   29.8117   48.2884 C   0  0  0  0  0  0  0  0  0  0  0  0
   45.2412   30.6147   49.3531 N   0  0  0  0  0  0  0  0  0  0  0  0
   46.4471   32.9736   42.4573 H   0  0  0  0  0  0  0  0  0  0  0  0
   44.9950   34.1572   41.0743 H   0  0  0  0  0  0  0  0  0  0  0  0
   46.1688   35.4724   40.7333 H   0  0  0  0  0  0  0  0  0  0  0  0
   46.8187   34.0132   38.9745 H   0  0  0  0  0  0  0  0  0  0  0  0
   46.0774   32.5818   39.7625 H   0  0  0  0  0  0  0  0  0  0  0  0
   48.0655   32.0628   40.7061 H   0  0  0  0  0  0  0  0  0  0  0  0
   48.8725   33.3867   39.7449 H   0  0  0  0  0  0  0  0  0  0  0  0
   48.8841   33.4006   42.4272 H   0  0  0  0  0  0  0  0  0  0  0  0
   49.3123   35.2785   40.4798 H   0  0  0  0  0  0  0  0  0  0  0  0
   48.0063   36.1174   41.3456 H   0  0  0  0  0  0  0  0  0  0  0  0
   50.5972   35.5689   42.1290 H   0  0  0  0  0  0  0  0  0  0  0  0
   43.6504   33.2367   43.8596 H   0  0  0  0  0  0  0  0  0  0  0  0
   45.5323   31.7704   44.8438 H   0  0  0  0  0  0  0  0  0  0  0  0
   47.2266   31.6681   45.3096 H   0  0  0  0  0  0  0  0  0  0  0  0
   45.6812   32.4939   50.1453 H   0  0  0  0  0  0  0  0  0  0  0  0
   46.2922   33.4851   47.9384 H   0  0  0  0  0  0  0  0  0  0  0  0
   44.7258   28.3907   48.3798 C   0  0  0  0  0  0  0  0  0  0  0  0
   43.3017   28.2128   47.8613 C   0  0  0  0  0  0  0  0  0  0  0  0
   42.7035   27.6238   48.6154 H   0  0  0  0  0  0  0  0  0  0  0  0
   45.3848   27.7935   47.7035 H   0  0  0  0  0  0  0  0  0  0  0  0
   44.8359   27.9933   49.4078 H   0  0  0  0  0  0  0  0  0  0  0  0
   43.2695   27.6145   46.9253 H   0  0  0  0  0  0  0  0  0  0  0  0
   42.7855   29.1714   47.6853 H   0  0  0  0  0  0  0  0  0  0  0  0
 10  1  1  6
  2  1  1  0
  3  2  1  0
  4  5  1  0
  4  3  1  0
  5  6  1  0
  6  2  1  0
  7  6  1  0
  7  8  1  0
 10  9  2  0
 10 12  1  0
 11 10  1  0
 13 12  1  0
 13 16  1  0
 14 19  2  0
 15 14  1  0
 16 17  1  0
 16 15  2  0
 17 18  2  0
 18 19  1  0
  2 20  1  1
  3 21  1  0
  3 22  1  0
  4 23  1  0
  4 24  1  0
  5 25  1  0
  5 26  1  0
  6 27  1  1
  7 28  1  0
  7 29  1  0
  8 30  1  0
 11 31  1  0
 13 32  1  0
 13 33  1  0
 14 34  1  0
 15 35  1  0
 36 37  1  0
 37 38  1  0
 36 39  1  0
 36 40  1  0
 37 41  1  0
 37 42  1  0
 18 36  1  0
M  ISO  8  20  13  21  13  22  13  23  13  24  13  25  13  26  13  27  13
M  ISO  8  28   8  29   8  30   3  31   3  32   8  33   8  34  14  35  14
M  ISO  1  38   8
M  END
>  <DihAtoms>  (1) 
16,17,35,36

>  <DihDeg>  (1) 
90.00088859305968

$$$$
