REMARK  Name = 
REMARK  10 active torsions:
REMARK  status: ('A' for Active; 'I' for Inactive)
REMARK    1  A    between atoms: O_1  and  C_2
REMARK    2  A    between atoms: O_1  and  P_10
REMARK    3  A    between atoms: C_6  and  C_7
REMARK    4  A    between atoms: C_7  and  O_8
REMARK    5  A    between atoms: P_10  and  O_11
REMARK    6  A    between atoms: P_10  and  O_12
REMARK    7  A    between atoms: O_12  and  C_13
REMARK    8  A    between atoms: C_13  and  C_16
REMARK    9  A    between atoms: C_18  and  C_36
REMARK   10  A    between atoms: C_36  and  C_37
REMARK                            x       y       z     vdW  Elec       q    Type
REMARK                         _______ _______ _______ _____ _____    ______ ____
ROOT
ATOM      1  O   UNL     1      46.577  34.907  43.250  0.00  0.00    +0.000 OA
ENDROOT
BRANCH   1   2
ATOM      2  C   UNL     1      46.801  33.977  42.230  0.00  0.00    +0.000 C 
ATOM      3  C   UNL     1      46.073  34.414  40.956  0.00  0.00    +0.000 C 
ATOM      4  C   UNL     1      46.689  33.480  39.944  0.00  0.00    +0.000 C 
ATOM      5  C   UNL     1      48.074  33.144  40.472  0.00  0.00    +0.000 C 
ATOM      6  C   UNL     1      48.216  33.959  41.741  0.00  0.00    +0.000 C 
ATOM      7  H   UNL     1      46.447  32.974  42.457  0.00  0.00    +0.000 HD
ATOM      8  H   UNL     1      44.995  34.157  41.074  0.00  0.00    +0.000 HD
ATOM      9  H   UNL     1      46.169  35.472  40.733  0.00  0.00    +0.000 HD
ATOM     10  H   UNL     1      46.819  34.013  38.974  0.00  0.00    +0.000 HD
ATOM     11  H   UNL     1      46.077  32.582  39.763  0.00  0.00    +0.000 HD
ATOM     12  H   UNL     1      48.066  32.063  40.706  0.00  0.00    +0.000 HD
ATOM     13  H   UNL     1      48.873  33.387  39.745  0.00  0.00    +0.000 HD
ATOM     14  H   UNL     1      48.884  33.401  42.427  0.00  0.00    +0.000 HD
BRANCH   6  15
ATOM     15  C   UNL     1      48.757  35.336  41.459  0.00  0.00    +0.000 C 
ATOM     16  H   UNL     1      49.312  35.279  40.480  0.00  0.00    +0.000 HD
ATOM     17  H   UNL     1      48.006  36.117  41.346  0.00  0.00    +0.000 HD
BRANCH  15  18
ATOM     18  O   UNL     1      49.657  35.753  42.414  0.00  0.00    +0.000 OA
ATOM     19  H   UNL     1      50.597  35.569  42.129  0.00  0.00    +0.000 HD
ENDBRANCH  15  18
ENDBRANCH   6  15
ENDBRANCH   1   2
BRANCH   1  21
ATOM     20  O   UNL     1      44.730  35.350  44.998  0.00  0.00    +0.000 OA
ATOM     21  P   UNL     1      45.581  34.239  44.412  0.00  0.00    +0.000 P 
BRANCH  21  22
ATOM     22  O   UNL     1      44.605  33.040  43.715  0.00  0.00    +0.000 OA
ATOM     23  H   UNL     1      43.650  33.237  43.860  0.00  0.00    +0.000 HD
ENDBRANCH  21  22
BRANCH  21  24
ATOM     24  O   UNL     1      46.476  33.490  45.603  0.00  0.00    +0.000 OA
BRANCH  24  25
ATOM     25  C   UNL     1      46.242  32.157  45.574  0.00  0.00    +0.000 C 
ATOM     26  H   UNL     1      45.532  31.770  44.844  0.00  0.00    +0.000 HD
ATOM     27  H   UNL     1      47.227  31.668  45.310  0.00  0.00    +0.000 HD
BRANCH  25  30
ATOM     28  C   UNL     1      45.639  31.909  49.243  0.00  0.00    +0.000 A 
ATOM     29  C   UNL     1      45.980  32.455  47.994  0.00  0.00    +0.000 A 
ATOM     30  C   UNL     1      45.888  31.604  46.893  0.00  0.00    +0.000 A 
ATOM     31  N   UNL     1      45.479  30.306  47.076  0.00  0.00    +0.000 NA
ATOM     32  C   UNL     1      45.158  29.812  48.288  0.00  0.00    +0.000 A 
ATOM     33  N   UNL     1      45.241  30.615  49.353  0.00  0.00    +0.000 NA
ATOM     34  H   UNL     1      45.681  32.494  50.145  0.00  0.00    +0.000 HD
ATOM     35  H   UNL     1      46.292  33.485  47.938  0.00  0.00    +0.000 HD
BRANCH  32  36
ATOM     36  C   UNL     1      44.726  28.391  48.380  0.00  0.00    +0.000 C 
BRANCH  36  37
ATOM     37  C   UNL     1      43.314  28.279  48.948  0.00  0.00    +0.000 C 
ATOM     38  H   UNL     1      43.308  27.515  49.778  0.00  0.00    +0.000 HD
ENDBRANCH  36  37
ENDBRANCH  32  36
ENDBRANCH  25  30
ENDBRANCH  24  25
ENDBRANCH  21  24
ENDBRANCH   1  21
TORSDOF 10
