
 OpenBabel03252508583D

 33 34  0  0  1  0  0  0  0  0999 V2000
   48.8170   33.1140   41.4280 N   0  0  0  0  0  0  0  0  0  0  0  0
   49.3380   32.2550   40.4210 C   0  0  0  0  0  0  0  0  0  0  0  0
   48.6170   32.2060   39.1120 C   0  0  0  0  0  0  0  0  0  0  0  0
   47.9350   33.4830   38.7130 C   0  0  0  0  0  0  0  0  0  0  0  0
   48.1790   34.5730   39.6790 C   0  0  0  0  0  0  0  0  0  0  0  0
   47.8270   34.0360   41.0960 C   0  0  2  0  0  0  0  0  0  0  0  0
   49.4410   31.2200   40.8050 H   0  0  0  0  0  0  0  0  0  0  0  0
   50.3760   32.6000   40.2090 H   0  0  0  0  0  0  0  0  0  0  0  0
   49.3480   31.8340   38.3510 H   0  0  0  0  0  0  0  0  0  0  0  0
   47.8120   31.4250   39.2160 H   0  0  0  0  0  0  0  0  0  0  0  0
   46.8690   33.3390   38.4470 H   0  0  0  0  0  0  0  0  0  0  0  0
   48.4170   33.7940   37.7400 H   0  0  0  0  0  0  0  0  0  0  0  0
   49.2490   34.8660   39.6580 H   0  0  0  0  0  0  0  0  0  0  0  0
   47.5080   35.4110   39.3970 H   0  0  0  0  0  0  0  0  0  0  0  0
   46.7930   33.6770   40.9490 H   0  0  0  0  0  0  0  0  0  0  0  0
   48.8020   32.5420   42.7300 C   0  0  0  0  0  0  0  0  0  0  0  0
   49.0370   33.2590   43.5230 H   0  0  0  0  0  0  0  0  0  0  0  0
   49.6550   31.8030   42.7570 H   0  0  0  0  0  0  0  0  0  0  0  0
   47.5390   31.8110   42.9950 C   0  0  0  0  0  0  0  0  0  0  0  0
   47.5570   30.7290   42.9570 H   0  0  0  0  0  0  0  0  0  0  0  0
   46.7610   32.2890   42.3190 H   0  0  0  0  0  0  0  0  0  0  0  0
   45.8480   33.6410   45.8060 C   0  0  0  0  0  0  0  0  0  0  0  0
   46.3170   33.2990   44.5360 C   0  0  0  0  0  0  0  0  0  0  0  0
   47.0540   32.1490   44.3670 C   0  0  0  0  0  0  0  0  0  0  0  0
   47.2890   31.4000   45.4550 N   0  0  0  0  0  0  0  0  0  0  0  0
   46.8310   31.7400   46.6770 C   0  0  0  0  0  0  0  0  0  0  0  0
   46.1110   32.8570   46.8620 N   0  0  0  0  0  0  0  0  0  0  0  0
   45.2770   34.5320   45.9400 H   0  0  0  0  0  0  0  0  0  0  0  0
   46.0580   33.9950   43.7240 H   0  0  0  0  0  0  0  0  0  0  0  0
   47.0580   31.0850   47.5220 H   0  0  0  0  0  0  0  0  0  0  0  0
   47.8900   35.3510   41.8800 C   0  0  0  0  0  2  0  0  0  0  0  0
   49.1830   36.1060   41.5620 C   0  0  0  0  0  2  0  0  0  0  0  0
   49.4450   36.0430   40.4930 H   0  0  0  0  0  0  0  0  0  0  0  0
  1 16  1  0  0  0  0
  2  7  1  0  0  0  0
  2  1  1  0  0  0  0
  3 10  1  0  0  0  0
  3  2  1  0  0  0  0
  4  3  1  0  0  0  0
  4  5  1  0  0  0  0
  5  6  1  0  0  0  0
  6 15  1  1  0  0  0
  6  1  1  0  0  0  0
  6 31  1  0  0  0  0
  8  2  1  0  0  0  0
  9  3  1  0  0  0  0
 11  4  1  0  0  0  0
 12  4  1  0  0  0  0
 13  5  1  0  0  0  0
 14  5  1  0  0  0  0
 16 18  1  0  0  0  0
 16 19  1  0  0  0  0
 16 17  1  0  0  0  0
 19 24  1  0  0  0  0
 20 19  1  0  0  0  0
 21 19  1  0  0  0  0
 22 28  1  0  0  0  0
 22 27  1  0  0  0  0
 23 22  2  0  0  0  0
 24 23  1  0  0  0  0
 24 25  2  0  0  0  0
 25 26  1  0  0  0  0
 26 27  2  0  0  0  0
 26 30  1  0  0  0  0
 29 23  1  0  0  0  0
 32 31  1  0  0  0  0
 33 32  1  0  0  0  0
M  END
>  <minimizedAffinity>
-4.03744459

>  <minimizedRMSD>
2.72416687

$$$$
