
 OpenBabel03252504103D

 19 19  0  0  0  0  0  0  0  0999 V2000
   47.0260   34.2570   42.9940 C   0  0  0  0  0  0  0  0  0  0  0  0
   45.8410   34.6430   43.6170 C   0  0  0  0  0  0  0  0  0  0  0  0
   45.3020   33.7860   44.5950 C   0  0  0  0  0  0  0  0  0  0  0  0
   45.9580   32.6400   44.8780 N   0  0  0  0  0  0  0  0  0  0  0  0
   47.1090   32.3030   44.2480 C   0  0  0  0  0  0  0  0  0  0  0  0
   47.6410   33.1060   43.3110 N   0  0  0  0  0  0  0  0  0  0  0  0
   44.3810   34.1050   45.0670 H   0  0  0  0  0  0  0  0  0  0  0  0
   45.1940   35.9280   43.2340 C   0  0  0  0  0  0  0  0  0  0  0  0
   46.1460   36.9120   43.0750 F   0  0  0  0  0  0  0  0  0  0  0  0
   44.5880   35.7310   41.9970 F   0  0  0  0  0  0  0  0  0  0  0  0
   44.2640   36.3720   44.1130 F   0  0  0  0  0  0  0  0  0  0  0  0
   47.5290   35.0880   42.0590 O   0  0  0  0  0  0  0  0  0  0  0  0
   48.8620   35.1570   41.5950 C   0  0  0  0  0  0  0  0  0  0  0  0
   49.6480   35.4280   42.7340 F   0  0  0  0  0  0  0  0  0  0  0  0
   49.2120   33.9880   40.9930 F   0  0  0  0  0  0  0  0  0  0  0  0
   49.0250   36.2640   40.7990 F   0  0  0  0  0  0  0  0  0  0  0  0
   47.8100   31.0270   44.5850 C   0  0  0  0  0  0  0  0  0  0  0  0
   48.7210   30.6110   43.4360 C   0  0  0  0  0  0  0  0  0  0  0  0
   49.0330   29.5690   43.5940 H   0  0  0  0  0  0  0  0  0  0  0  0
  1  6  2  0  0  0  0
  1  2  1  0  0  0  0
  2  3  2  0  0  0  0
  3  4  1  0  0  0  0
  3  7  1  0  0  0  0
  5 17  1  0  0  0  0
  5  4  2  0  0  0  0
  6  5  1  0  0  0  0
  8  2  1  0  0  0  0
  8 11  1  0  0  0  0
  9  8  1  0  0  0  0
 10  8  1  0  0  0  0
 12  1  1  0  0  0  0
 13 12  1  0  0  0  0
 13 14  1  0  0  0  0
 15 13  1  0  0  0  0
 16 13  1  0  0  0  0
 18 19  1  0  0  0  0
 18 17  1  0  0  0  0
M  END
>  <minimizedAffinity>
-4.56749582

>  <minimizedRMSD>
0.488486141

$$$$
