
 OpenBabel03242521013D

 21 22  0  0  0  0  0  0  0  0999 V2000
   46.7600   34.7800   42.0430 C   0  0  0  0  0  0  0  0  0  0  0  0
   47.9760   35.3680   41.8230 C   0  0  0  0  0  0  0  0  0  0  0  0
   48.7050   35.2520   40.6640 C   0  0  0  0  0  0  0  0  0  0  0  0
   48.2020   34.4990   39.6340 C   0  0  0  0  0  0  0  0  0  0  0  0
   46.9730   33.9100   39.8650 C   0  0  0  0  0  0  0  0  0  0  0  0
   46.2870   34.0420   41.0090 N   0  0  0  0  0  0  0  0  0  0  0  0
   48.4200   35.9750   42.6030 H   0  0  0  0  0  0  0  0  0  0  0  0
   49.6640   35.7300   40.5200 H   0  0  0  0  0  0  0  0  0  0  0  0
   48.6900   34.3420   38.6820 H   0  0  0  0  0  0  0  0  0  0  0  0
   44.4670   35.9540   44.8090 C   0  0  0  0  0  0  0  0  0  0  0  0
   45.1100   35.9630   43.5600 C   0  0  0  0  0  0  0  0  0  0  0  0
   46.0120   34.9220   43.2850 C   0  0  0  0  0  0  0  0  0  0  0  0
   46.2030   33.9820   44.2370 N   0  0  0  0  0  0  0  0  0  0  0  0
   45.5740   33.9980   45.4260 C   0  0  0  0  0  0  0  0  0  0  0  0
   44.7130   34.9790   45.7090 N   0  0  0  0  0  0  0  0  0  0  0  0
   43.7950   36.8080   44.9020 H   0  0  0  0  0  0  0  0  0  0  0  0
   45.0020   36.6680   42.7750 H   0  0  0  0  0  0  0  0  0  0  0  0
   45.7160   33.2590   46.1950 H   0  0  0  0  0  0  0  0  0  0  0  0
   46.3000   33.0620   38.8400 C   0  0  0  0  0  0  0  0  0  0  0  0
   46.8040   33.3590   37.4460 C   0  0  0  0  0  0  0  0  0  0  0  0
   47.8660   33.1020   37.3580 H   0  0  0  0  0  0  0  0  0  0  0  0
  1 12  1  0  0  0  0
  2  1  1  0  0  0  0
  2  7  1  0  0  0  0
  3  2  2  0  0  0  0
  4  5  2  0  0  0  0
  4  3  1  0  0  0  0
  5  6  1  0  0  0  0
  6  1  2  0  0  0  0
  8  3  1  0  0  0  0
  9  4  1  0  0  0  0
 10 16  1  0  0  0  0
 10 15  1  0  0  0  0
 11 10  2  0  0  0  0
 12 11  1  0  0  0  0
 12 13  2  0  0  0  0
 13 14  1  0  0  0  0
 14 15  2  0  0  0  0
 14 18  1  0  0  0  0
 17 11  1  0  0  0  0
 19  5  1  0  0  0  0
 20 19  1  0  0  0  0
 21 20  1  0  0  0  0
M  END
>  <minimizedAffinity>
-4.92172146

>  <minimizedRMSD>
0.184399471

$$$$
