
 OpenBabel03252507533D

 32 34  0  0  1  0  0  0  0  0999 V2000
   46.7620   34.7030   42.0070 C   0  0  2  0  0  0  0  0  0  0  0  0
   45.8940   34.2740   40.8520 C   0  0  0  0  0  0  0  0  0  0  0  0
   47.0190   33.9980   39.8340 C   0  0  0  0  0  0  0  0  0  0  0  0
   48.1550   33.4380   40.6500 C   0  0  1  0  0  0  0  0  0  0  0  0
   47.6910   33.4860   42.0650 C   0  0  0  0  0  0  0  0  0  0  0  0
   47.2770   35.6270   41.7400 H   0  0  0  0  0  0  0  0  0  0  0  0
   45.2720   35.0970   40.4840 H   0  0  0  0  0  0  0  0  0  0  0  0
   45.3680   33.3560   41.1140 H   0  0  0  0  0  0  0  0  0  0  0  0
   46.7010   33.2380   39.0870 H   0  0  0  0  0  0  0  0  0  0  0  0
   47.3720   34.9390   39.4000 H   0  0  0  0  0  0  0  0  0  0  0  0
   49.0810   34.0250   40.5800 H   0  0  0  0  0  0  0  0  0  0  0  0
   46.9170   32.7450   42.3520 H   0  0  0  0  0  0  0  0  0  0  0  0
   48.4550   33.6990   42.8230 H   0  0  0  0  0  0  0  0  0  0  0  0
   44.4890   35.9480   44.7540 C   0  0  0  0  0  0  0  0  0  0  0  0
   45.1300   35.8960   43.5100 C   0  0  0  0  0  0  0  0  0  0  0  0
   46.0200   34.8400   43.2850 C   0  0  0  0  0  0  0  0  0  0  0  0
   46.2330   33.8980   44.2810 N   0  0  0  0  0  0  0  0  0  0  0  0
   45.5820   34.0020   45.4650 C   0  0  0  0  0  0  0  0  0  0  0  0
   44.7200   35.0160   45.6980 N   0  0  0  0  0  0  0  0  0  0  0  0
   43.8270   36.8050   44.8130 H   0  0  0  0  0  0  0  0  0  0  0  0
   45.0000   36.5970   42.7090 H   0  0  0  0  0  0  0  0  0  0  0  0
   45.7510   33.2730   46.2310 H   0  0  0  0  0  0  0  0  0  0  0  0
   48.4580   31.9990   40.3560 C   0  0  2  0  0  0  0  0  0  0  0  0
   48.6010   31.0870   41.4810 C   0  0  0  0  0  0  0  0  0  0  0  0
   49.7340   31.3770   40.4930 C   0  0  2  0  0  0  0  0  0  0  0  0
   47.7480   31.6390   39.5510 H   0  0  0  0  0  0  0  0  0  0  0  0
   48.1310   30.0570   41.3980 H   0  0  0  0  0  0  0  0  0  0  0  0
   49.0090   31.1910   42.4760 H   0  0  0  0  0  0  0  0  0  0  0  0
   49.9320   30.5140   39.7830 H   0  0  0  0  0  0  0  0  0  0  0  0
   51.0240   31.9790   40.9320 C   0  0  0  0  0  2  0  0  0  0  0  0
   51.1270   32.0170   42.4700 C   0  0  0  0  0  2  0  0  0  0  0  0
   52.1000   31.6600   42.8230 H   0  0  0  0  0  0  0  0  0  0  0  0
  1  6  1  6  0  0  0
  1  5  1  0  0  0  0
  1 16  1  0  0  0  0
  2  8  1  0  0  0  0
  2  1  1  0  0  0  0
  3  4  1  0  0  0  0
  3  2  1  0  0  0  0
  4 11  1  6  0  0  0
  4  5  1  0  0  0  0
  5 12  1  0  0  0  0
  5 13  1  0  0  0  0
  7  2  1  0  0  0  0
  9  3  1  0  0  0  0
 10  3  1  0  0  0  0
 14 20  1  0  0  0  0
 14 19  1  0  0  0  0
 15 14  2  0  0  0  0
 16 15  1  0  0  0  0
 16 17  2  0  0  0  0
 17 18  1  0  0  0  0
 18 19  2  0  0  0  0
 18 22  1  0  0  0  0
 21 15  1  0  0  0  0
 23 26  1  6  0  0  0
 23 25  1  0  0  0  0
 23  4  1  0  0  0  0
 23 24  1  0  0  0  0
 24 28  1  0  0  0  0
 25 29  1  6  0  0  0
 25 30  1  0  0  0  0
 25 24  1  0  0  0  0
 27 24  1  0  0  0  0
 30 31  1  0  0  0  0
 31 32  1  0  0  0  0
M  END
>  <minimizedAffinity>
-4.26350927

>  <minimizedRMSD>
1.32803166

$$$$
