REMARK  Name = 
REMARK  7 active torsions:
REMARK  status: ('A' for Active; 'I' for Inactive)
REMARK    1  A    between atoms: C_1  and  C_3
REMARK    2  A    between atoms: C_1  and  C_13
REMARK    3  A    between atoms: C_10  and  C_11
REMARK    4  A    between atoms: C_13  and  N_17
REMARK    5  A    between atoms: C_14  and  C_23
REMARK    6  A    between atoms: C_21  and  C_39
REMARK    7  A    between atoms: C_39  and  C_40
REMARK                            x       y       z     vdW  Elec       q    Type
REMARK                         _______ _______ _______ _____ _____    ______ ____
ROOT
ATOM      1  C   UNL     1      47.149  30.380  47.922  0.00  0.00    +0.000 C 
ATOM      2  H   UNL     1      47.762  29.489  47.790  0.00  0.00    +0.000 HD
ATOM      3  H   UNL     1      47.620  31.065  48.667  0.00  0.00    +0.000 HD
ENDROOT
BRANCH   1   7
ATOM      4  C   UNL     1      46.505  32.711  45.295  0.00  0.00    +0.000 A 
ATOM      5  C   UNL     1      47.254  31.716  44.620  0.00  0.00    +0.000 A 
ATOM      6  C   UNL     1      47.574  30.749  45.508  0.00  0.00    +0.000 A 
ATOM      7  N   UNL     1      47.045  31.129  46.687  0.00  0.00    +0.000 N 
ATOM      8  N   UNL     1      46.408  32.298  46.564  0.00  0.00    +0.000 NA
ATOM      9  H   UNL     1      47.506  31.762  43.563  0.00  0.00    +0.000 HD
ATOM     10  H   UNL     1      48.142  29.829  45.352  0.00  0.00    +0.000 HD
BRANCH   4  15
ATOM     11  C   UNL     1      44.573  35.758  44.734  0.00  0.00    +0.000 A 
ATOM     12  C   UNL     1      44.995  36.186  43.474  0.00  0.00    +0.000 A 
ATOM     13  C   UNL     1      45.953  35.401  42.835  0.00  0.00    +0.000 A 
ATOM     14  N   UNL     1      46.403  34.302  43.458  0.00  0.00    +0.000 NA
ATOM     15  C   UNL     1      45.984  33.909  44.668  0.00  0.00    +0.000 A 
ATOM     16  N   UNL     1      45.064  34.649  45.299  0.00  0.00    +0.000 NA
ATOM     17  H   UNL     1      43.816  36.384  45.230  0.00  0.00    +0.000 HD
ATOM     18  H   UNL     1      44.634  37.074  42.966  0.00  0.00    +0.000 HD
BRANCH  13  19
ATOM     19  C   UNL     1      46.498  35.728  41.494  0.00  0.00    +0.000 C 
BRANCH  19  20
ATOM     20  C   UNL     1      47.995  35.588  41.425  0.00  0.00    +0.000 C 
ATOM     21  H   UNL     1      48.361  34.894  42.237  0.00  0.00    +0.000 HD
ENDBRANCH  19  20
ENDBRANCH  13  19
ENDBRANCH   4  15
ENDBRANCH   1   7
BRANCH   1  22
ATOM     22  C   UNL     1      45.789  30.052  48.436  0.00  0.00    +0.000 C 
ATOM     23  H   UNL     1      45.927  29.717  49.504  0.00  0.00    +0.000 HD
ATOM     24  H   UNL     1      45.196  30.988  48.505  0.00  0.00    +0.000 HD
BRANCH  22  26
ATOM     25  C   UNL     1      45.013  27.654  48.018  0.00  0.00    +0.000 A 
ATOM     26  C   UNL     1      45.058  29.006  47.751  0.00  0.00    +0.000 A 
ATOM     27  C   UNL     1      44.296  29.444  46.669  0.00  0.00    +0.000 A 
ATOM     28  C   UNL     1      43.546  28.590  45.912  0.00  0.00    +0.000 A 
ATOM     29  N   UNL     1      42.738  28.719  44.844  0.00  0.00    +0.000 N 
ATOM     30  C   UNL     1      42.220  27.555  44.460  0.00  0.00    +0.000 A 
ATOM     31  C   UNL     1      42.701  26.558  45.317  0.00  0.00    +0.000 A 
ATOM     32  C   UNL     1      43.507  27.249  46.184  0.00  0.00    +0.000 A 
ATOM     33  C   UNL     1      44.253  26.797  47.250  0.00  0.00    +0.000 A 
ATOM     34  H   UNL     1      45.615  27.349  48.865  0.00  0.00    +0.000 HD
ATOM     35  H   UNL     1      44.247  30.489  46.354  0.00  0.00    +0.000 HD
ATOM     36  H   UNL     1      42.537  29.643  44.365  0.00  0.00    +0.000 HD
ATOM     37  H   UNL     1      41.544  27.408  43.629  0.00  0.00    +0.000 HD
ATOM     38  H   UNL     1      42.449  25.522  45.243  0.00  0.00    +0.000 HD
BRANCH  33  39
ATOM     39  C   UNL     1      44.247  25.374  47.585  0.00  0.00    +0.000 C 
ATOM     40  O   UNL     1      44.928  24.932  48.546  0.00  0.00    +0.000 OA
ATOM     41  H   UNL     1      43.654  24.674  47.009  0.00  0.00    +0.000 HD
ENDBRANCH  33  39
ENDBRANCH  22  26
ENDBRANCH   1  22
TORSDOF 7
