
 OpenBabel03252507533D

 32 34  0  0  1  0  0  0  0  0999 V2000
   46.3630   35.1810   42.0140 C   0  0  2  0  0  0  0  0  0  0  0  0
   45.5390   35.2460   43.2740 C   0  0  0  0  0  0  0  0  0  0  0  0
   44.2190   35.7280   42.6390 C   0  0  0  0  0  0  0  0  0  0  0  0
   44.1610   35.0480   41.2970 C   0  0  1  0  0  0  0  0  0  0  0  0
   45.4390   34.2920   41.1770 C   0  0  0  0  0  0  0  0  0  0  0  0
   46.4740   36.1890   41.6100 H   0  0  0  0  0  0  0  0  0  0  0  0
   45.9080   36.0150   43.9610 H   0  0  0  0  0  0  0  0  0  0  0  0
   45.4310   34.2450   43.6900 H   0  0  0  0  0  0  0  0  0  0  0  0
   43.3450   35.4070   43.2460 H   0  0  0  0  0  0  0  0  0  0  0  0
   44.2660   36.8060   42.4480 H   0  0  0  0  0  0  0  0  0  0  0  0
   44.1030   35.7450   40.4490 H   0  0  0  0  0  0  0  0  0  0  0  0
   45.5290   33.3820   41.8060 H   0  0  0  0  0  0  0  0  0  0  0  0
   45.8770   34.2260   40.1730 H   0  0  0  0  0  0  0  0  0  0  0  0
   50.0660   34.5250   42.3560 C   0  0  0  0  0  0  0  0  0  0  0  0
   48.8750   35.2420   42.1870 C   0  0  0  0  0  0  0  0  0  0  0  0
   47.6770   34.5190   42.2020 C   0  0  0  0  0  0  0  0  0  0  0  0
   47.7080   33.1430   42.3810 N   0  0  0  0  0  0  0  0  0  0  0  0
   48.8930   32.5060   42.5400 C   0  0  0  0  0  0  0  0  0  0  0  0
   50.0590   33.1900   42.5280 N   0  0  0  0  0  0  0  0  0  0  0  0
   50.9240   35.1880   42.3270 H   0  0  0  0  0  0  0  0  0  0  0  0
   48.7970   36.3020   42.0450 H   0  0  0  0  0  0  0  0  0  0  0  0
   48.9130   31.4430   42.6770 H   0  0  0  0  0  0  0  0  0  0  0  0
   43.0610   34.0350   41.1790 C   0  0  2  0  0  0  0  0  0  0  0  0
   42.8980   33.3470   39.9080 C   0  0  0  0  0  0  0  0  0  0  0  0
   41.8140   34.2400   40.5180 C   0  0  2  0  0  0  0  0  0  0  0  0
   43.1060   33.3490   42.0790 H   0  0  0  0  0  0  0  0  0  0  0  0
   42.6810   32.2330   39.9270 H   0  0  0  0  0  0  0  0  0  0  0  0
   43.0200   33.6490   38.8780 H   0  0  0  0  0  0  0  0  0  0  0  0
   40.9400   33.6500   40.9370 H   0  0  0  0  0  0  0  0  0  0  0  0
   41.3160   35.4580   39.8200 C   0  0  0  0  0  2  0  0  0  0  0  0
   40.3580   36.2650   40.7200 C   0  0  0  0  0  2  0  0  0  0  0  0
   40.5910   37.3340   40.7090 H   0  0  0  0  0  0  0  0  0  0  0  0
  1  6  1  6  0  0  0
  1 16  1  0  0  0  0
  1  2  1  0  0  0  0
  2  8  1  0  0  0  0
  2  7  1  0  0  0  0
  3  9  1  0  0  0  0
  3  2  1  0  0  0  0
  4 11  1  6  0  0  0
  4  3  1  0  0  0  0
  5  4  1  0  0  0  0
  5 12  1  0  0  0  0
  5  1  1  0  0  0  0
 10  3  1  0  0  0  0
 13  5  1  0  0  0  0
 14 19  1  0  0  0  0
 15 16  1  0  0  0  0
 15 14  2  0  0  0  0
 16 17  2  0  0  0  0
 17 18  1  0  0  0  0
 18 22  1  0  0  0  0
 19 18  2  0  0  0  0
 20 14  1  0  0  0  0
 21 15  1  0  0  0  0
 23  4  1  0  0  0  0
 23 26  1  1  0  0  0
 24 27  1  0  0  0  0
 24 25  1  0  0  0  0
 24 23  1  0  0  0  0
 25 29  1  1  0  0  0
 25 23  1  0  0  0  0
 28 24  1  0  0  0  0
 30 25  1  0  0  0  0
 30 31  1  0  0  0  0
 32 31  1  0  0  0  0
M  END
>  <minimizedAffinity>
-4.72475147

>  <minimizedRMSD>
6.14923048

$$$$
