
     RDKit          3D

 45 48  0  0  0  0  0  0  0  0999 V2000
   45.7886   30.0515   48.4364 C   0  0  0  0  0  0  0  0  0  0  0  0
   45.0128   27.6542   48.0183 C   0  0  0  0  0  0  0  0  0  0  0  0
   45.0584   29.0065   47.7514 C   0  0  0  0  0  0  0  0  0  0  0  0
   44.2964   29.4443   46.6686 C   0  0  0  0  0  0  0  0  0  0  0  0
   43.5458   28.5896   45.9118 C   0  0  0  0  0  0  0  0  0  0  0  0
   42.7378   28.7194   44.8443 N   0  0  0  0  0  0  0  0  0  0  0  0
   42.2197   27.5546   44.4602 C   0  0  0  0  0  0  0  0  0  0  0  0
   42.7007   26.5584   45.3168 C   0  0  0  0  0  0  0  0  0  0  0  0
   43.5069   27.2494   46.1845 C   0  0  0  0  0  0  0  0  0  0  0  0
   44.2529   26.7965   47.2502 C   0  0  0  0  0  0  0  0  0  0  0  0
   44.2472   25.3737   47.5853 C   0  0  0  0  0  0  0  0  0  0  0  0
   44.9278   24.9316   48.5460 O   0  0  0  0  0  0  0  0  0  0  0  0
   47.1486   30.3800   47.9225 C   0  0  0  0  0  0  0  0  0  0  0  0
   46.5055   32.7110   45.2948 C   0  0  0  0  0  0  0  0  0  0  0  0
   47.2536   31.7156   44.6204 C   0  0  0  0  0  0  0  0  0  0  0  0
   47.5737   30.7486   45.5081 C   0  0  0  0  0  0  0  0  0  0  0  0
   47.0451   31.1290   46.6866 N   0  0  0  0  0  0  0  0  0  0  0  0
   46.4076   32.2981   46.5641 N   0  0  0  0  0  0  0  0  0  0  0  0
   44.5727   35.7575   44.7340 C   0  0  0  0  0  0  0  0  0  0  0  0
   44.9950   36.1859   43.4741 C   0  0  0  0  0  0  0  0  0  0  0  0
   45.9532   35.4012   42.8352 C   0  0  0  0  0  0  0  0  0  0  0  0
   46.4029   34.3024   43.4584 N   0  0  0  0  0  0  0  0  0  0  0  0
   45.9842   33.9092   44.6678 C   0  0  0  0  0  0  0  0  0  0  0  0
   45.0639   34.6487   45.2993 N   0  0  0  0  0  0  0  0  0  0  0  0
   45.9274   29.7170   49.5040 H   0  0  0  0  0  0  0  0  0  0  0  0
   45.1956   30.9876   48.5054 H   0  0  0  0  0  0  0  0  0  0  0  0
   45.6153   27.3486   48.8647 H   0  0  0  0  0  0  0  0  0  0  0  0
   44.2468   30.4892   46.3536 H   0  0  0  0  0  0  0  0  0  0  0  0
   42.5372   29.6432   44.3646 H   0  0  0  0  0  0  0  0  0  0  0  0
   41.5438   27.4081   43.6286 H   0  0  0  0  0  0  0  0  0  0  0  0
   42.4489   25.5221   45.2432 H   0  0  0  0  0  0  0  0  0  0  0  0
   43.6542   24.6737   47.0094 H   0  0  0  0  0  0  0  0  0  0  0  0
   47.7617   29.4893   47.7898 H   0  0  0  0  0  0  0  0  0  0  0  0
   47.6198   31.0647   48.6673 H   0  0  0  0  0  0  0  0  0  0  0  0
   47.5059   31.7617   43.5626 H   0  0  0  0  0  0  0  0  0  0  0  0
   48.1416   29.8292   45.3520 H   0  0  0  0  0  0  0  0  0  0  0  0
   43.8162   36.3838   45.2299 H   0  0  0  0  0  0  0  0  0  0  0  0
   44.6336   37.0743   42.9663 H   0  0  0  0  0  0  0  0  0  0  0  0
   46.4981   35.7285   41.4941 C   0  0  0  0  0  0  0  0  0  0  0  0
   47.9955   35.5881   41.4245 C   0  0  0  0  0  0  0  0  0  0  0  0
   48.3609   34.8944   42.2370 H   0  0  0  0  0  0  0  0  0  0  0  0
   46.2374   36.7848   41.2214 H   0  0  0  0  0  0  0  0  0  0  0  0
   46.0549   35.1154   40.6938 H   0  0  0  0  0  0  0  0  0  0  0  0
   48.3197   35.0747   40.4815 H   0  0  0  0  0  0  0  0  0  0  0  0
   48.5387   36.5335   41.5488 H   0  0  0  0  0  0  0  0  0  0  0  0
  3  2  2  0
  3  1  1  0
  4  3  1  0
  5  9  1  0
  5  4  2  0
  6  5  1  0
  7  6  1  0
  7  8  2  0
  8  9  1  0
  9 10  2  0
 10 11  1  0
 10  2  1  0
 11 12  2  0
 13  1  1  0
 14 18  2  0
 15 14  1  0
 15 16  2  0
 16 17  1  0
 17 13  1  0
 18 17  1  0
 19 24  2  0
 20 19  1  0
 21 22  1  0
 21 20  2  0
 22 23  2  0
 23 14  1  0
 23 24  1  0
  1 25  1  0
  1 26  1  0
  2 27  1  0
  4 28  1  0
  6 29  1  0
  7 30  1  0
  8 31  1  0
 11 32  1  0
 13 33  1  0
 13 34  1  0
 15 35  1  0
 16 36  1  0
 19 37  1  0
 20 38  1  0
 39 40  1  0
 40 41  1  0
 39 42  1  0
 39 43  1  0
 40 44  1  0
 40 45  1  0
 21 39  1  0
M  ISO  8  25   8  26   8  27  14  28  14  29   9  30  14  31  14  32   6
M  ISO  7  33   8  34   8  35  14  36  14  37  14  38  14  41   8
M  END
>  <DihAtoms>  (1) 
21,20,38,39

>  <DihDeg>  (1) 
-90.00005215167388

$$$$
