
 OpenBabel03242517443D

 23 24  0  0  0  0  0  0  0  0999 V2000
   41.5010   33.8640   40.5310 C   0  0  0  0  0  0  0  0  0  0  0  0
   40.9760   32.8170   41.2740 C   0  0  0  0  0  0  0  0  0  0  0  0
   39.6090   32.6340   41.3340 C   0  0  0  0  0  0  0  0  0  0  0  0
   38.7310   33.4700   40.6690 C   0  0  0  0  0  0  0  0  0  0  0  0
   39.2490   34.5200   39.9240 C   0  0  0  0  0  0  0  0  0  0  0  0
   40.6280   34.7020   39.8650 C   0  0  0  0  0  0  0  0  0  0  0  0
   41.7520   32.2320   41.7470 H   0  0  0  0  0  0  0  0  0  0  0  0
   39.2910   31.8120   41.9230 H   0  0  0  0  0  0  0  0  0  0  0  0
   37.6840   33.2420   40.7820 H   0  0  0  0  0  0  0  0  0  0  0  0
   38.5250   35.1450   39.4230 H   0  0  0  0  0  0  0  0  0  0  0  0
   43.2160   34.2680   40.3310 S   0  0  0  0  0  0  0  0  0  0  0  0
   44.0610   35.6400   42.6020 C   0  0  0  0  0  0  0  0  0  0  0  0
   43.9770   34.3790   41.9470 C   0  0  0  0  0  0  0  0  0  0  0  0
   44.5010   33.2600   42.6070 C   0  0  0  0  0  0  0  0  0  0  0  0
   45.0550   33.4730   43.8400 N   0  0  0  0  0  0  0  0  0  0  0  0
   45.1120   34.6710   44.4160 C   0  0  0  0  0  0  0  0  0  0  0  0
   44.6260   35.7700   43.8260 N   0  0  0  0  0  0  0  0  0  0  0  0
   43.6740   36.5390   42.1430 H   0  0  0  0  0  0  0  0  0  0  0  0
   44.4120   32.3430   42.0720 H   0  0  0  0  0  0  0  0  0  0  0  0
   45.6040   34.4990   45.3750 H   0  0  0  0  0  0  0  0  0  0  0  0
   41.0170   35.8510   39.0120 C   0  0  0  0  0  0  0  0  0  0  0  0
   40.7880   35.5960   37.5350 C   0  0  0  0  0  0  0  0  0  0  0  0
   41.2640   34.6570   37.2120 H   0  0  0  0  0  0  0  0  0  0  0  0
  1  2  1  0  0  0  0
  2  3  2  0  0  0  0
  2  7  1  0  0  0  0
  3  8  1  0  0  0  0
  4  9  1  0  0  0  0
  4  3  1  0  0  0  0
  5  4  2  0  0  0  0
  6  5  1  0  0  0  0
  6  1  2  0  0  0  0
 10  5  1  0  0  0  0
 11  1  1  0  0  0  0
 11 13  1  0  0  0  0
 12 17  1  0  0  0  0
 13 12  2  0  0  0  0
 13 14  1  0  0  0  0
 14 15  2  0  0  0  0
 15 16  1  0  0  0  0
 16 20  1  0  0  0  0
 17 16  2  0  0  0  0
 18 12  1  0  0  0  0
 19 14  1  0  0  0  0
 21  6  1  0  0  0  0
 22 21  1  0  0  0  0
 23 22  1  0  0  0  0
M  END
>  <minimizedAffinity>
-4.511693

>  <minimizedRMSD>
1.55998886

$$$$
