
 OpenBabel03242518593D

 29 31  0  0  1  0  0  0  0  0999 V2000
   44.7530   34.5620   43.3080 C   0  0  1  0  0  0  0  0  0  0  0  0
   45.4380   35.7680   43.0430 C   0  0  0  0  0  0  0  0  0  0  0  0
   44.9550   35.0010   41.9450 C   0  0  1  0  0  0  0  0  0  0  0  0
   43.6600   34.4290   43.5830 H   0  0  0  0  0  0  0  0  0  0  0  0
   44.9760   36.4600   43.7840 H   0  0  0  0  0  0  0  0  0  0  0  0
   45.8660   36.5600   42.4680 H   0  0  0  0  0  0  0  0  0  0  0  0
   43.9470   35.0820   41.4170 H   0  0  0  0  0  0  0  0  0  0  0  0
   45.9020   34.3940   41.0250 C   0  0  0  0  0  0  0  0  0  0  0  0
   45.4940   33.5510   40.0130 C   0  0  0  0  0  0  0  0  0  0  0  0
   46.3200   32.9540   39.1130 C   0  0  0  0  0  0  0  0  0  0  0  0
   47.6420   33.1870   39.1960 C   0  0  0  0  0  0  0  0  0  0  0  0
   48.1210   34.0060   40.1700 C   0  0  0  0  0  0  0  0  0  0  0  0
   47.2590   34.6120   41.0880 C   0  0  0  0  0  0  0  0  0  0  0  0
   44.4190   33.3250   39.9080 H   0  0  0  0  0  0  0  0  0  0  0  0
   45.9170   32.3000   38.3470 H   0  0  0  0  0  0  0  0  0  0  0  0
   48.2900   32.7010   38.4720 H   0  0  0  0  0  0  0  0  0  0  0  0
   49.2130   34.1360   40.1580 H   0  0  0  0  0  0  0  0  0  0  0  0
   47.9450   35.4480   42.0760 C   0  0  0  0  0  0  0  0  0  0  0  0
   49.2110   36.1080   41.4560 C   0  0  0  0  0  0  0  0  0  0  0  0
   49.6900   35.4210   40.7410 H   0  0  0  0  0  0  0  0  0  0  0  0
   45.4230   33.3840   43.9110 C   0  0  0  0  0  0  0  0  0  0  0  0
   44.9790   32.0950   43.4510 C   0  0  0  0  0  0  0  0  0  0  0  0
   45.6190   30.9970   43.9890 C   0  0  0  0  0  0  0  0  0  0  0  0
   46.6030   31.2140   44.8980 N   0  0  0  0  0  0  0  0  0  0  0  0
   46.9850   32.4610   45.3030 C   0  0  0  0  0  0  0  0  0  0  0  0
   46.4030   33.5790   44.8200 N   0  0  0  0  0  0  0  0  0  0  0  0
   44.1980   32.0320   42.7350 H   0  0  0  0  0  0  0  0  0  0  0  0
   45.3180   30.0300   43.6750 H   0  0  0  0  0  0  0  0  0  0  0  0
   47.7790   32.5950   46.0350 H   0  0  0  0  0  0  0  0  0  0  0  0
  1  4  1  1  0  0  0
  1 21  1  0  0  0  0
  2  1  1  0  0  0  0
  2  5  1  0  0  0  0
  3  7  1  6  0  0  0
  3  2  1  0  0  0  0
  3  1  1  0  0  0  0
  6  2  1  0  0  0  0
  8 13  1  0  0  0  0
  8  3  1  0  0  0  0
  9  8  2  0  0  0  0
 10 11  2  0  0  0  0
 10  9  1  0  0  0  0
 11 12  1  0  0  0  0
 12 13  2  0  0  0  0
 13 18  1  0  0  0  0
 14  9  1  0  0  0  0
 15 10  1  0  0  0  0
 16 11  1  0  0  0  0
 17 12  1  0  0  0  0
 19 18  1  0  0  0  0
 20 19  1  0  0  0  0
 21 26  1  0  0  0  0
 22 21  2  0  0  0  0
 22 23  1  0  0  0  0
 23 24  2  0  0  0  0
 24 25  1  0  0  0  0
 25 29  1  0  0  0  0
 26 25  2  0  0  0  0
 27 22  1  0  0  0  0
 28 23  1  0  0  0  0
M  END
>  <minimizedAffinity>
-4.60644817

>  <minimizedRMSD>
1.09948611

$$$$
