
 OpenBabel03252507533D

 32 34  0  0  1  0  0  0  0  0999 V2000
   46.4040   35.1820   42.3940 C   0  0  2  0  0  0  0  0  0  0  0  0
   45.5990   35.0170   43.6560 C   0  0  0  0  0  0  0  0  0  0  0  0
   44.2910   35.6640   43.1590 C   0  0  0  0  0  0  0  0  0  0  0  0
   44.1910   35.2750   41.7070 C   0  0  1  0  0  0  0  0  0  0  0  0
   45.4370   34.5160   41.4110 C   0  0  0  0  0  0  0  0  0  0  0  0
   46.5480   36.2480   42.2020 H   0  0  0  0  0  0  0  0  0  0  0  0
   46.0040   35.6160   44.4790 H   0  0  0  0  0  0  0  0  0  0  0  0
   45.4580   33.9560   43.8610 H   0  0  0  0  0  0  0  0  0  0  0  0
   43.4120   35.2560   43.7040 H   0  0  0  0  0  0  0  0  0  0  0  0
   44.3750   36.7550   43.1910 H   0  0  0  0  0  0  0  0  0  0  0  0
   44.1490   36.1330   41.0210 H   0  0  0  0  0  0  0  0  0  0  0  0
   45.5010   33.4940   41.8390 H   0  0  0  0  0  0  0  0  0  0  0  0
   45.8600   34.6420   40.4060 H   0  0  0  0  0  0  0  0  0  0  0  0
   50.0850   34.3390   42.3410 C   0  0  0  0  0  0  0  0  0  0  0  0
   48.9210   35.1180   42.3270 C   0  0  0  0  0  0  0  0  0  0  0  0
   47.6950   34.4510   42.4170 C   0  0  0  0  0  0  0  0  0  0  0  0
   47.6720   33.0670   42.5150 N   0  0  0  0  0  0  0  0  0  0  0  0
   48.8330   32.3680   42.5240 C   0  0  0  0  0  0  0  0  0  0  0  0
   50.0260   32.9980   42.4380 N   0  0  0  0  0  0  0  0  0  0  0  0
   50.9690   34.9620   42.2660 H   0  0  0  0  0  0  0  0  0  0  0  0
   48.8850   36.1880   42.2530 H   0  0  0  0  0  0  0  0  0  0  0  0
   48.8100   31.2990   42.5990 H   0  0  0  0  0  0  0  0  0  0  0  0
   43.0510   34.3470   41.4070 C   0  0  2  0  0  0  0  0  0  0  0  0
   43.3080   33.2100   40.5360 C   0  0  0  0  0  0  0  0  0  0  0  0
   42.3070   34.3160   40.1910 C   0  0  2  0  0  0  0  0  0  0  0  0
   42.5370   34.0820   42.3800 H   0  0  0  0  0  0  0  0  0  0  0  0
   42.8530   32.2080   40.8160 H   0  0  0  0  0  0  0  0  0  0  0  0
   43.9350   33.0630   39.6690 H   0  0  0  0  0  0  0  0  0  0  0  0
   41.2270   33.9810   40.2920 H   0  0  0  0  0  0  0  0  0  0  0  0
   42.4630   35.1660   38.9780 C   0  0  0  0  0  2  0  0  0  0  0  0
   41.0930   35.6100   38.4270 C   0  0  0  0  0  2  0  0  0  0  0  0
   41.0770   36.6790   38.1890 H   0  0  0  0  0  0  0  0  0  0  0  0
  1  6  1  6  0  0  0
  1 16  1  0  0  0  0
  1  2  1  0  0  0  0
  2  8  1  0  0  0  0
  2  7  1  0  0  0  0
  3 10  1  0  0  0  0
  3  2  1  0  0  0  0
  3  9  1  0  0  0  0
  4 11  1  6  0  0  0
  4  3  1  0  0  0  0
  5  4  1  0  0  0  0
  5 12  1  0  0  0  0
  5  1  1  0  0  0  0
 13  5  1  0  0  0  0
 14 19  1  0  0  0  0
 15 14  2  0  0  0  0
 15 16  1  0  0  0  0
 16 17  2  0  0  0  0
 17 18  1  0  0  0  0
 18 22  1  0  0  0  0
 19 18  2  0  0  0  0
 20 14  1  0  0  0  0
 21 15  1  0  0  0  0
 23  4  1  0  0  0  0
 23 26  1  1  0  0  0
 24 27  1  0  0  0  0
 24 23  1  0  0  0  0
 25 29  1  1  0  0  0
 25 24  1  0  0  0  0
 25 23  1  0  0  0  0
 28 24  1  0  0  0  0
 30 25  1  0  0  0  0
 31 30  1  0  0  0  0
 32 31  1  0  0  0  0
M  END
>  <minimizedAffinity>
-4.57319117

>  <minimizedRMSD>
6.17842913

$$$$
