
 OpenBabel03242523193D

 31 33  0  0  0  0  0  0  0  0999 V2000
   47.4850   32.8140   43.9530 C   0  0  0  0  0  0  0  0  0  0  0  0
   48.3230   33.3520   43.0540 C   0  0  0  0  0  0  0  0  0  0  0  0
   49.1770   32.4480   42.4490 C   0  0  0  0  0  0  0  0  0  0  0  0
   49.0960   31.0970   42.8210 N   0  0  0  0  0  0  0  0  0  0  0  0
   48.2510   30.6430   43.7150 C   0  0  0  0  0  0  0  0  0  0  0  0
   47.3800   31.5130   44.3380 N   0  0  0  0  0  0  0  0  0  0  0  0
   49.9170   32.6740   41.7050 H   0  0  0  0  0  0  0  0  0  0  0  0
   48.3050   29.5750   43.8990 H   0  0  0  0  0  0  0  0  0  0  0  0
   48.4770   34.7350   42.7710 C   0  0  0  0  0  0  0  0  0  0  0  0
   49.4930   35.3640   42.1210 C   0  0  0  0  0  0  0  0  0  0  0  0
   48.2760   35.1770   41.2600 C   0  0  0  0  0  0  0  0  0  0  0  0
   47.9920   35.3960   43.5140 H   0  0  0  0  0  0  0  0  0  0  0  0
   49.8060   36.4310   42.1480 H   0  0  0  0  0  0  0  0  0  0  0  0
   50.3710   34.7550   41.7440 H   0  0  0  0  0  0  0  0  0  0  0  0
   47.5610   36.0140   41.1590 H   0  0  0  0  0  0  0  0  0  0  0  0
   48.2210   34.3150   40.5690 H   0  0  0  0  0  0  0  0  0  0  0  0
   46.4120   33.5110   44.6740 C   0  0  0  0  0  0  0  0  0  0  0  0
   45.8430   33.8690   45.6760 O   0  0  0  0  0  0  0  0  0  0  0  0
   44.6140   31.7110   42.9320 Cl  0  0  0  0  0  0  0  0  0  0  0  0
   44.6180   33.4620   42.7910 C   0  0  0  0  0  0  0  0  0  0  0  0
   45.4940   34.1340   43.6710 C   0  0  0  0  0  0  0  0  0  0  0  0
   45.4250   35.5040   43.4870 C   0  0  0  0  0  0  0  0  0  0  0  0
   44.6790   36.2210   42.6330 C   0  0  0  0  0  0  0  0  0  0  0  0
   43.8580   35.4970   41.8130 C   0  0  0  0  0  0  0  0  0  0  0  0
   43.8170   34.1500   41.8800 C   0  0  0  0  0  0  0  0  0  0  0  0
   46.0270   36.1870   44.1250 H   0  0  0  0  0  0  0  0  0  0  0  0
   44.6530   37.2800   42.5180 H   0  0  0  0  0  0  0  0  0  0  0  0
   43.1860   35.8900   41.0620 H   0  0  0  0  0  0  0  0  0  0  0  0
   42.9520   33.2600   41.0300 C   0  0  0  0  0  2  0  0  0  0  0  0
   43.3280   33.3150   39.5760 C   0  0  0  0  0  2  0  0  0  0  0  0
   42.5110   32.7930   39.0270 H   0  0  0  0  0  0  0  0  0  0  0  0
  1  6  1  0  0  0  0
  1 17  1  0  0  0  0
  2  1  2  0  0  0  0
  3  4  2  0  0  0  0
  3  2  1  0  0  0  0
  4  5  1  0  0  0  0
  5  8  1  0  0  0  0
  5  6  2  0  0  0  0
  7  3  1  0  0  0  0
  9  2  1  0  0  0  0
  9 12  1  0  0  0  0
 10 13  1  0  0  0  0
 10  9  1  0  0  0  0
 11 10  1  0  0  0  0
 11  9  1  0  0  0  0
 14 10  1  0  0  0  0
 15 11  1  0  0  0  0
 16 11  1  0  0  0  0
 17 18  2  0  0  0  0
 20 19  1  0  0  0  0
 20 21  1  0  0  0  0
 21 17  1  0  0  0  0
 22 21  2  0  0  0  0
 22 26  1  0  0  0  0
 23 22  1  0  0  0  0
 24 25  1  0  0  0  0
 24 23  2  0  0  0  0
 25 20  2  0  0  0  0
 27 23  1  0  0  0  0
 28 24  1  0  0  0  0
 29 25  1  0  0  0  0
 30 29  1  0  0  0  0
 31 30  1  0  0  0  0
M  END
>  <minimizedAffinity>
-4.92771912

>  <minimizedRMSD>
0.082535699

$$$$
