
 OpenBabel03242523193D

 31 33  0  0  0  0  0  0  0  0999 V2000
   47.5220   32.8380   43.9150 C   0  0  0  0  0  0  0  0  0  0  0  0
   48.3540   33.3870   43.0180 C   0  0  0  0  0  0  0  0  0  0  0  0
   49.2180   32.4940   42.4110 C   0  0  0  0  0  0  0  0  0  0  0  0
   49.1510   31.1420   42.7790 N   0  0  0  0  0  0  0  0  0  0  0  0
   48.3100   30.6770   43.6710 C   0  0  0  0  0  0  0  0  0  0  0  0
   47.4300   31.5360   44.2960 N   0  0  0  0  0  0  0  0  0  0  0  0
   49.9550   32.7300   41.6670 H   0  0  0  0  0  0  0  0  0  0  0  0
   48.3750   29.6090   43.8530 H   0  0  0  0  0  0  0  0  0  0  0  0
   48.4940   34.7740   42.7390 C   0  0  0  0  0  0  0  0  0  0  0  0
   49.5120   35.4170   42.1080 C   0  0  0  0  0  0  0  0  0  0  0  0
   48.3140   35.2140   41.2250 C   0  0  0  0  0  0  0  0  0  0  0  0
   47.9870   35.4260   43.4740 H   0  0  0  0  0  0  0  0  0  0  0  0
   49.8100   36.4880   42.1410 H   0  0  0  0  0  0  0  0  0  0  0  0
   50.4050   34.8200   41.7460 H   0  0  0  0  0  0  0  0  0  0  0  0
   47.5890   36.0410   41.1110 H   0  0  0  0  0  0  0  0  0  0  0  0
   48.2830   34.3520   40.5320 H   0  0  0  0  0  0  0  0  0  0  0  0
   46.4410   33.5220   44.6380 C   0  0  0  0  0  0  0  0  0  0  0  0
   45.8720   33.8770   45.6410 O   0  0  0  0  0  0  0  0  0  0  0  0
   44.6240   31.6890   42.9530 Cl  0  0  0  0  0  0  0  0  0  0  0  0
   44.6230   33.4370   42.7800 C   0  0  0  0  0  0  0  0  0  0  0  0
   45.5090   34.1260   43.6360 C   0  0  0  0  0  0  0  0  0  0  0  0
   45.4350   35.4930   43.4300 C   0  0  0  0  0  0  0  0  0  0  0  0
   44.6770   36.1930   42.5730 C   0  0  0  0  0  0  0  0  0  0  0  0
   43.8460   35.4540   41.7770 C   0  0  0  0  0  0  0  0  0  0  0  0
   43.8090   34.1080   41.8680 C   0  0  0  0  0  0  0  0  0  0  0  0
   46.0440   36.1870   44.0470 H   0  0  0  0  0  0  0  0  0  0  0  0
   44.6470   37.2500   42.4390 H   0  0  0  0  0  0  0  0  0  0  0  0
   43.1630   35.8320   41.0280 H   0  0  0  0  0  0  0  0  0  0  0  0
   42.9330   33.2020   41.0460 C   0  0  0  0  0  2  0  0  0  0  0  0
   43.4450   33.0310   39.6430 C   0  0  0  0  0  2  0  0  0  0  0  0
   42.6290   32.5210   39.0790 H   0  0  0  0  0  0  0  0  0  0  0  0
  1  6  1  0  0  0  0
  1 17  1  0  0  0  0
  2  1  2  0  0  0  0
  3  4  2  0  0  0  0
  3  2  1  0  0  0  0
  4  5  1  0  0  0  0
  5  8  1  0  0  0  0
  5  6  2  0  0  0  0
  7  3  1  0  0  0  0
  9  2  1  0  0  0  0
  9 12  1  0  0  0  0
 10 13  1  0  0  0  0
 10  9  1  0  0  0  0
 11 10  1  0  0  0  0
 11  9  1  0  0  0  0
 14 10  1  0  0  0  0
 15 11  1  0  0  0  0
 16 11  1  0  0  0  0
 17 18  2  0  0  0  0
 20 19  1  0  0  0  0
 20 21  1  0  0  0  0
 21 17  1  0  0  0  0
 22 21  2  0  0  0  0
 22 26  1  0  0  0  0
 23 22  1  0  0  0  0
 24 25  1  0  0  0  0
 24 23  2  0  0  0  0
 25 20  2  0  0  0  0
 27 23  1  0  0  0  0
 28 24  1  0  0  0  0
 29 25  1  0  0  0  0
 30 29  1  0  0  0  0
 31 30  1  0  0  0  0
M  END
>  <minimizedAffinity>
-4.8996067

>  <minimizedRMSD>
0.0417823941

$$$$
