
 OpenBabel03242523203D

 31 33  0  0  0  0  0  0  0  0999 V2000
   47.4970   32.8250   43.9280 C   0  0  0  0  0  0  0  0  0  0  0  0
   48.3340   33.3700   43.0320 C   0  0  0  0  0  0  0  0  0  0  0  0
   49.1900   32.4710   42.4220 C   0  0  0  0  0  0  0  0  0  0  0  0
   49.1110   31.1180   42.7860 N   0  0  0  0  0  0  0  0  0  0  0  0
   48.2670   30.6580   43.6780 C   0  0  0  0  0  0  0  0  0  0  0  0
   47.3950   31.5220   44.3050 N   0  0  0  0  0  0  0  0  0  0  0  0
   49.9290   32.7030   41.6790 H   0  0  0  0  0  0  0  0  0  0  0  0
   48.3230   29.5890   43.8560 H   0  0  0  0  0  0  0  0  0  0  0  0
   48.4860   34.7560   42.7570 C   0  0  0  0  0  0  0  0  0  0  0  0
   49.5060   35.3910   42.1200 C   0  0  0  0  0  0  0  0  0  0  0  0
   48.2990   35.2030   41.2460 C   0  0  0  0  0  0  0  0  0  0  0  0
   47.9900   35.4110   43.4980 H   0  0  0  0  0  0  0  0  0  0  0  0
   49.8140   36.4590   42.1550 H   0  0  0  0  0  0  0  0  0  0  0  0
   50.3900   34.7870   41.7500 H   0  0  0  0  0  0  0  0  0  0  0  0
   47.5810   36.0380   41.1410 H   0  0  0  0  0  0  0  0  0  0  0  0
   48.2540   34.3440   40.5500 H   0  0  0  0  0  0  0  0  0  0  0  0
   46.4230   33.5160   44.6530 C   0  0  0  0  0  0  0  0  0  0  0  0
   45.8560   33.8710   45.6570 O   0  0  0  0  0  0  0  0  0  0  0  0
   44.5990   31.7100   42.9450 Cl  0  0  0  0  0  0  0  0  0  0  0  0
   44.6110   33.4600   42.7880 C   0  0  0  0  0  0  0  0  0  0  0  0
   45.4990   34.1360   43.6530 C   0  0  0  0  0  0  0  0  0  0  0  0
   45.4340   35.5050   43.4580 C   0  0  0  0  0  0  0  0  0  0  0  0
   44.6840   36.2170   42.6040 C   0  0  0  0  0  0  0  0  0  0  0  0
   43.8510   35.4910   41.8000 C   0  0  0  0  0  0  0  0  0  0  0  0
   43.8040   34.1450   41.8780 C   0  0  0  0  0  0  0  0  0  0  0  0
   46.0460   36.1890   44.0840 H   0  0  0  0  0  0  0  0  0  0  0  0
   44.6620   37.2750   42.4800 H   0  0  0  0  0  0  0  0  0  0  0  0
   43.1730   35.8800   41.0510 H   0  0  0  0  0  0  0  0  0  0  0  0
   42.9260   33.2510   41.0450 C   0  0  0  0  0  2  0  0  0  0  0  0
   41.4780   33.6500   41.1110 C   0  0  0  0  0  2  0  0  0  0  0  0
   40.9080   32.8180   40.6360 H   0  0  0  0  0  0  0  0  0  0  0  0
  1  6  1  0  0  0  0
  1 17  1  0  0  0  0
  2  1  2  0  0  0  0
  3  4  2  0  0  0  0
  3  2  1  0  0  0  0
  4  5  1  0  0  0  0
  5  8  1  0  0  0  0
  5  6  2  0  0  0  0
  7  3  1  0  0  0  0
  9  2  1  0  0  0  0
  9 12  1  0  0  0  0
 10 13  1  0  0  0  0
 10  9  1  0  0  0  0
 11 10  1  0  0  0  0
 11  9  1  0  0  0  0
 14 10  1  0  0  0  0
 15 11  1  0  0  0  0
 16 11  1  0  0  0  0
 17 18  2  0  0  0  0
 20 19  1  0  0  0  0
 20 21  1  0  0  0  0
 21 17  1  0  0  0  0
 22 21  2  0  0  0  0
 22 26  1  0  0  0  0
 23 22  1  0  0  0  0
 24 25  1  0  0  0  0
 24 23  2  0  0  0  0
 25 20  2  0  0  0  0
 27 23  1  0  0  0  0
 28 24  1  0  0  0  0
 29 30  1  0  0  0  0
 29 25  1  0  0  0  0
 31 30  1  0  0  0  0
M  END
>  <minimizedAffinity>
-5.00955868

>  <minimizedRMSD>
0.0848813951

$$$$
