
 OpenBabel03242523193D

 31 33  0  0  0  0  0  0  0  0999 V2000
   47.4080   32.7620   44.0580 C   0  0  0  0  0  0  0  0  0  0  0  0
   48.2450   33.2620   43.1360 C   0  0  0  0  0  0  0  0  0  0  0  0
   49.0850   32.3300   42.5550 C   0  0  0  0  0  0  0  0  0  0  0  0
   48.9930   30.9930   42.9710 N   0  0  0  0  0  0  0  0  0  0  0  0
   48.1500   30.5770   43.8850 C   0  0  0  0  0  0  0  0  0  0  0  0
   47.2930   31.4750   44.4850 N   0  0  0  0  0  0  0  0  0  0  0  0
   49.8220   32.5240   41.7980 H   0  0  0  0  0  0  0  0  0  0  0  0
   48.1950   29.5150   44.1040 H   0  0  0  0  0  0  0  0  0  0  0  0
   48.4120   34.6340   42.8070 C   0  0  0  0  0  0  0  0  0  0  0  0
   49.4110   35.2250   42.1000 C   0  0  0  0  0  0  0  0  0  0  0  0
   48.1580   35.0360   41.2930 C   0  0  0  0  0  0  0  0  0  0  0  0
   47.9670   35.3230   43.5490 H   0  0  0  0  0  0  0  0  0  0  0  0
   49.7430   36.2860   42.0840 H   0  0  0  0  0  0  0  0  0  0  0  0
   50.2630   34.5900   41.7070 H   0  0  0  0  0  0  0  0  0  0  0  0
   47.4540   35.8830   41.1960 H   0  0  0  0  0  0  0  0  0  0  0  0
   48.0610   34.1560   40.6300 H   0  0  0  0  0  0  0  0  0  0  0  0
   46.3480   33.4930   44.7640 C   0  0  0  0  0  0  0  0  0  0  0  0
   45.7770   33.8700   45.7570 O   0  0  0  0  0  0  0  0  0  0  0  0
   44.6200   31.7420   42.9050 Cl  0  0  0  0  0  0  0  0  0  0  0  0
   44.6230   33.4970   42.8170 C   0  0  0  0  0  0  0  0  0  0  0  0
   45.4650   34.1440   43.7480 C   0  0  0  0  0  0  0  0  0  0  0  0
   45.3970   35.5190   43.6030 C   0  0  0  0  0  0  0  0  0  0  0  0
   44.6790   36.2590   42.7440 C   0  0  0  0  0  0  0  0  0  0  0  0
   43.8900   35.5590   41.8750 C   0  0  0  0  0  0  0  0  0  0  0  0
   43.8530   34.2100   41.8990 C   0  0  0  0  0  0  0  0  0  0  0  0
   45.9730   36.1830   44.2820 H   0  0  0  0  0  0  0  0  0  0  0  0
   44.6530   37.3210   42.6610 H   0  0  0  0  0  0  0  0  0  0  0  0
   43.2440   35.9720   41.1120 H   0  0  0  0  0  0  0  0  0  0  0  0
   43.0210   33.3440   40.9920 C   0  0  0  0  0  2  0  0  0  0  0  0
   42.9950   33.8550   39.5800 C   0  0  0  0  0  2  0  0  0  0  0  0
   42.2030   33.2700   39.0560 H   0  0  0  0  0  0  0  0  0  0  0  0
  1  6  1  0  0  0  0
  1 17  1  0  0  0  0
  2  1  2  0  0  0  0
  3  4  2  0  0  0  0
  3  2  1  0  0  0  0
  4  5  1  0  0  0  0
  5  8  1  0  0  0  0
  5  6  2  0  0  0  0
  7  3  1  0  0  0  0
  9  2  1  0  0  0  0
  9 12  1  0  0  0  0
 10  9  1  0  0  0  0
 11 10  1  0  0  0  0
 11  9  1  0  0  0  0
 13 10  1  0  0  0  0
 14 10  1  0  0  0  0
 15 11  1  0  0  0  0
 16 11  1  0  0  0  0
 17 18  2  0  0  0  0
 20 19  1  0  0  0  0
 20 21  1  0  0  0  0
 21 17  1  0  0  0  0
 22 21  2  0  0  0  0
 22 26  1  0  0  0  0
 23 22  1  0  0  0  0
 24 25  1  0  0  0  0
 24 23  2  0  0  0  0
 25 20  2  0  0  0  0
 27 23  1  0  0  0  0
 28 24  1  0  0  0  0
 29 25  1  0  0  0  0
 30 29  1  0  0  0  0
 31 30  1  0  0  0  0
M  END
>  <minimizedAffinity>
-4.96867132

>  <minimizedRMSD>
0.218083441

$$$$
