
 OpenBabel03242523193D

 31 33  0  0  0  0  0  0  0  0999 V2000
   47.3880   32.8130   44.0190 C   0  0  0  0  0  0  0  0  0  0  0  0
   48.2450   33.3120   43.1150 C   0  0  0  0  0  0  0  0  0  0  0  0
   49.0900   32.3770   42.5450 C   0  0  0  0  0  0  0  0  0  0  0  0
   48.9800   31.0380   42.9520 N   0  0  0  0  0  0  0  0  0  0  0  0
   48.1180   30.6240   43.8480 C   0  0  0  0  0  0  0  0  0  0  0  0
   47.2560   31.5250   44.4380 N   0  0  0  0  0  0  0  0  0  0  0  0
   49.8410   32.5700   41.8030 H   0  0  0  0  0  0  0  0  0  0  0  0
   48.1510   29.5600   44.0620 H   0  0  0  0  0  0  0  0  0  0  0  0
   48.4270   34.6840   42.7970 C   0  0  0  0  0  0  0  0  0  0  0  0
   49.4560   35.2760   42.1330 C   0  0  0  0  0  0  0  0  0  0  0  0
   48.2370   35.0900   41.2750 C   0  0  0  0  0  0  0  0  0  0  0  0
   47.9540   35.3730   43.5220 H   0  0  0  0  0  0  0  0  0  0  0  0
   49.7890   36.3360   42.1330 H   0  0  0  0  0  0  0  0  0  0  0  0
   50.3220   34.6400   41.7740 H   0  0  0  0  0  0  0  0  0  0  0  0
   47.5380   35.9380   41.1500 H   0  0  0  0  0  0  0  0  0  0  0  0
   48.1660   34.2120   40.6060 H   0  0  0  0  0  0  0  0  0  0  0  0
   46.3200   33.5480   44.7090 C   0  0  0  0  0  0  0  0  0  0  0  0
   45.7440   33.9390   45.6940 O   0  0  0  0  0  0  0  0  0  0  0  0
   44.5440   31.7500   42.9430 Cl  0  0  0  0  0  0  0  0  0  0  0  0
   44.5700   33.5000   42.7850 C   0  0  0  0  0  0  0  0  0  0  0  0
   45.4320   34.1710   43.6790 C   0  0  0  0  0  0  0  0  0  0  0  0
   45.3810   35.5400   43.4810 C   0  0  0  0  0  0  0  0  0  0  0  0
   44.6630   36.2560   42.6030 C   0  0  0  0  0  0  0  0  0  0  0  0
   43.8530   35.5330   41.7720 C   0  0  0  0  0  0  0  0  0  0  0  0
   43.7970   34.1870   41.8490 C   0  0  0  0  0  0  0  0  0  0  0  0
   45.9750   36.2220   44.1260 H   0  0  0  0  0  0  0  0  0  0  0  0
   44.6500   37.3140   42.4780 H   0  0  0  0  0  0  0  0  0  0  0  0
   43.2030   35.9260   41.0010 H   0  0  0  0  0  0  0  0  0  0  0  0
   42.9420   33.2980   40.9880 C   0  0  0  0  0  2  0  0  0  0  0  0
   41.4810   33.6300   41.0970 C   0  0  0  0  0  2  0  0  0  0  0  0
   40.9380   32.7970   40.5920 H   0  0  0  0  0  0  0  0  0  0  0  0
  1  6  1  0  0  0  0
  1 17  1  0  0  0  0
  2  1  2  0  0  0  0
  3  4  2  0  0  0  0
  3  2  1  0  0  0  0
  4  5  1  0  0  0  0
  5  8  1  0  0  0  0
  5  6  2  0  0  0  0
  7  3  1  0  0  0  0
  9  2  1  0  0  0  0
  9 12  1  0  0  0  0
 10 13  1  0  0  0  0
 10  9  1  0  0  0  0
 11 10  1  0  0  0  0
 11  9  1  0  0  0  0
 14 10  1  0  0  0  0
 15 11  1  0  0  0  0
 16 11  1  0  0  0  0
 17 18  2  0  0  0  0
 20 19  1  0  0  0  0
 20 21  1  0  0  0  0
 21 17  1  0  0  0  0
 22 21  2  0  0  0  0
 22 26  1  0  0  0  0
 23 22  1  0  0  0  0
 24 25  1  0  0  0  0
 24 23  2  0  0  0  0
 25 20  2  0  0  0  0
 27 23  1  0  0  0  0
 28 24  1  0  0  0  0
 29 30  1  0  0  0  0
 29 25  1  0  0  0  0
 31 30  1  0  0  0  0
M  END
>  <minimizedAffinity>
-5.00679731

>  <minimizedRMSD>
0.560439706

$$$$
