
 OpenBabel03242521213D

 30 32  0  0  0  0  0  0  0  0999 V2000
   44.4200   32.9490   38.7370 C   0  0  0  0  0  0  0  0  0  0  0  0
   43.7960   32.2590   37.7610 C   0  0  0  0  0  0  0  0  0  0  0  0
   44.4200   31.3930   36.9020 C   0  0  0  0  0  0  0  0  0  0  0  0
   45.7510   31.2520   37.0840 N   0  0  0  0  0  0  0  0  0  0  0  0
   46.3860   31.9210   38.0390 C   0  0  0  0  0  0  0  0  0  0  0  0
   45.7640   32.7860   38.8960 N   0  0  0  0  0  0  0  0  0  0  0  0
   42.7160   32.3670   37.6090 H   0  0  0  0  0  0  0  0  0  0  0  0
   43.8900   30.8420   36.1150 H   0  0  0  0  0  0  0  0  0  0  0  0
   47.8410   31.7580   38.2280 C   0  0  0  0  0  0  0  0  0  0  0  0
   48.3230   30.9350   39.2150 C   0  0  0  0  0  0  0  0  0  0  0  0
   49.6710   30.7350   39.4560 C   0  0  0  0  0  0  0  0  0  0  0  0
   50.5840   31.4040   38.6560 C   0  0  0  0  0  0  0  0  0  0  0  0
   50.1130   32.2170   37.6800 C   0  0  0  0  0  0  0  0  0  0  0  0
   48.7720   32.3990   37.4600 C   0  0  0  0  0  0  0  0  0  0  0  0
   47.6060   30.4000   39.8540 H   0  0  0  0  0  0  0  0  0  0  0  0
   49.9780   30.0610   40.2640 H   0  0  0  0  0  0  0  0  0  0  0  0
   51.6450   31.2580   38.8310 H   0  0  0  0  0  0  0  0  0  0  0  0
   50.8660   32.7180   37.0800 H   0  0  0  0  0  0  0  0  0  0  0  0
   48.3770   33.3010   36.3660 C   0  0  0  0  0  2  0  0  0  0  0  0
   48.5980   32.6130   35.0550 C   0  0  0  0  0  2  0  0  0  0  0  0
   48.7850   31.5420   35.2130 H   0  0  0  0  0  0  0  0  0  0  0  0
   43.7300   35.2320   41.5260 C   0  0  0  0  0  0  0  0  0  0  0  0
   42.3860   35.5610   41.3080 C   0  0  0  0  0  0  0  0  0  0  0  0
   41.7270   35.0060   40.2170 C   0  0  0  0  0  0  0  0  0  0  0  0
   42.4160   34.1530   39.3880 N   0  0  0  0  0  0  0  0  0  0  0  0
   43.7060   33.8590   39.6290 C   0  0  0  0  0  0  0  0  0  0  0  0
   44.3510   34.3880   40.6760 N   0  0  0  0  0  0  0  0  0  0  0  0
   44.2560   35.6560   42.3710 H   0  0  0  0  0  0  0  0  0  0  0  0
   41.9000   36.2470   42.0070 H   0  0  0  0  0  0  0  0  0  0  0  0
   40.6810   35.2540   40.0360 H   0  0  0  0  0  0  0  0  0  0  0  0
  1  6  1  0  0  0  0
  1 26  1  0  0  0  0
  2  1  2  0  0  0  0
  3  4  2  0  0  0  0
  3  2  1  0  0  0  0
  4  5  1  0  0  0  0
  5  9  1  0  0  0  0
  5  6  2  0  0  0  0
  7  2  1  0  0  0  0
  8  3  1  0  0  0  0
  9 10  1  0  0  0  0
 10 11  2  0  0  0  0
 10 15  1  0  0  0  0
 11 16  1  0  0  0  0
 12 17  1  0  0  0  0
 12 11  1  0  0  0  0
 13 12  2  0  0  0  0
 14 13  1  0  0  0  0
 14  9  2  0  0  0  0
 18 13  1  0  0  0  0
 19 14  1  0  0  0  0
 20 21  1  0  0  0  0
 20 19  1  0  0  0  0
 22 28  1  0  0  0  0
 23 22  1  0  0  0  0
 23 29  1  0  0  0  0
 24 23  2  0  0  0  0
 25 26  2  0  0  0  0
 25 24  1  0  0  0  0
 26 27  1  0  0  0  0
 27 22  2  0  0  0  0
 30 24  1  0  0  0  0
M  END
>  <minimizedAffinity>
-3.44349504

>  <minimizedRMSD>
7.32683849

$$$$
