REMARK  Name = 
REMARK  4 active torsions:
REMARK  status: ('A' for Active; 'I' for Inactive)
REMARK    1  A    between atoms: C_1  and  C_11
REMARK    2  A    between atoms: C_5  and  C_13
REMARK    3  A    between atoms: C_18  and  C_28
REMARK    4  A    between atoms: C_28  and  C_29
REMARK                            x       y       z     vdW  Elec       q    Type
REMARK                         _______ _______ _______ _____ _____    ______ ____
ROOT
ATOM      1  C   UNL     1      45.972  33.578  45.568  0.00  0.00    +0.000 A 
ATOM      2  C   UNL     1      45.013  34.489  45.827  0.00  0.00    +0.000 A 
ATOM      3  C   UNL     1      44.631  35.481  44.962  0.00  0.00    +0.000 A 
ATOM      4  N   UNL     1      45.287  35.508  43.782  0.00  0.00    +0.000 NA
ATOM      5  C   UNL     1      46.235  34.620  43.505  0.00  0.00    +0.000 A 
ATOM      6  N   UNL     1      46.617  33.630  44.368  0.00  0.00    +0.000 NA
ATOM      7  H   UNL     1      44.476  34.473  46.782  0.00  0.00    +0.000 HD
ATOM      8  H   UNL     1      43.846  36.212  45.196  0.00  0.00    +0.000 HD
ENDROOT
BRANCH   5   9
ATOM      9  C   UNL     1      46.943  34.659  42.211  0.00  0.00    +0.000 A 
ATOM     10  C   UNL     1      46.467  33.947  41.139  0.00  0.00    +0.000 A 
ATOM     11  C   UNL     1      47.078  33.930  39.897  0.00  0.00    +0.000 A 
ATOM     12  C   UNL     1      48.236  34.674  39.729  0.00  0.00    +0.000 A 
ATOM     13  C   UNL     1      48.710  35.379  40.784  0.00  0.00    +0.000 A 
ATOM     14  C   UNL     1      48.086  35.380  42.005  0.00  0.00    +0.000 A 
ATOM     15  H   UNL     1      45.550  33.355  41.263  0.00  0.00    +0.000 HD
ATOM     16  H   UNL     1      46.636  33.336  39.089  0.00  0.00    +0.000 HD
ATOM     17  H   UNL     1      48.728  34.672  38.761  0.00  0.00    +0.000 HD
ATOM     18  H   UNL     1      49.617  35.945  40.603  0.00  0.00    +0.000 HD
BRANCH  14  19
ATOM     19  C   UNL     1      48.688  36.190  43.077  0.00  0.00    +0.000 C 
BRANCH  19  20
ATOM     20  C   UNL     1      48.043  35.840  44.381  0.00  0.00    +0.000 C 
ATOM     21  H   UNL     1      47.444  34.925  44.278  0.00  0.00    +0.000 HD
ENDBRANCH  19  20
ENDBRANCH  14  19
ENDBRANCH   5   9
BRANCH   1  26
ATOM     22  C   UNL     1      46.110  30.329  47.269  0.00  0.00    +0.000 A 
ATOM     23  C   UNL     1      47.015  30.581  48.307  0.00  0.00    +0.000 A 
ATOM     24  C   UNL     1      47.571  31.851  48.420  0.00  0.00    +0.000 A 
ATOM     25  N   UNL     1      47.213  32.816  47.509  0.00  0.00    +0.000 NA
ATOM     26  C   UNL     1      46.340  32.538  46.525  0.00  0.00    +0.000 A 
ATOM     27  N   UNL     1      45.799  31.319  46.406  0.00  0.00    +0.000 NA
ATOM     28  H   UNL     1      45.669  29.346  47.168  0.00  0.00    +0.000 HD
ATOM     29  H   UNL     1      47.255  29.767  48.996  0.00  0.00    +0.000 HD
ATOM     30  H   UNL     1      48.277  32.061  49.224  0.00  0.00    +0.000 HD
ENDBRANCH   1  26
TORSDOF 4
