
 OpenBabel03252507053D

 41 43  0  0  0  0  0  0  0  0999 V2000
   37.7130   27.9560   43.5640 C   0  0  0  0  0  0  0  0  0  0  0  0
   38.2730   27.1230   44.0490 H   0  0  0  0  0  0  0  0  0  0  0  0
   37.1540   28.5500   44.3290 H   0  0  0  0  0  0  0  0  0  0  0  0
   38.6710   28.8590   42.9040 C   0  0  0  0  0  0  0  0  0  0  0  0
   40.0240   28.5830   42.9420 C   0  0  0  0  0  0  0  0  0  0  0  0
   40.8860   29.4700   42.3130 C   0  0  0  0  0  0  0  0  0  0  0  0
   40.3590   30.5640   41.6910 N   0  0  0  0  0  0  0  0  0  0  0  0
   39.0420   30.7930   41.6770 C   0  0  0  0  0  0  0  0  0  0  0  0
   38.2300   29.9310   42.2860 N   0  0  0  0  0  0  0  0  0  0  0  0
   40.6150   27.7850   43.3550 H   0  0  0  0  0  0  0  0  0  0  0  0
   41.9780   29.4130   42.2430 H   0  0  0  0  0  0  0  0  0  0  0  0
   38.5740   31.9710   40.9640 C   0  0  0  0  0  0  0  0  0  0  0  0
   37.4870   31.8790   40.0990 C   0  0  0  0  0  0  0  0  0  0  0  0
   37.0600   32.9990   39.4110 C   0  0  0  0  0  0  0  0  0  0  0  0
   37.7850   34.1460   39.6600 C   0  0  0  0  0  0  0  0  0  0  0  0
   38.8650   34.2780   40.5060 C   0  0  0  0  0  0  0  0  0  0  0  0
   39.2210   33.1310   41.1440 N   0  0  0  0  0  0  0  0  0  0  0  0
   36.9570   30.9290   39.9510 H   0  0  0  0  0  0  0  0  0  0  0  0
   36.2250   33.0070   38.7230 H   0  0  0  0  0  0  0  0  0  0  0  0
   37.4810   35.0500   39.1360 H   0  0  0  0  0  0  0  0  0  0  0  0
   39.3780   35.2190   40.6430 H   0  0  0  0  0  0  0  0  0  0  0  0
   36.7790   27.4290   42.5320 C   0  0  0  0  0  0  0  0  0  0  0  0
   35.8390   27.1460   43.0540 H   0  0  0  0  0  0  0  0  0  0  0  0
   36.4770   28.3520   41.9320 H   0  0  0  0  0  0  0  0  0  0  0  0
   37.2890   26.4420   41.8060 N   0  0  0  0  0  0  0  0  0  0  0  0
   38.0020   25.2920   42.2200 C   0  0  0  0  0  0  0  0  0  0  0  0
   36.8920   24.2470   42.0120 C   0  0  0  0  0  0  0  0  0  0  0  0
   36.4510   24.1450   40.6320 C   0  0  0  0  0  0  0  0  0  0  0  0
   36.6100   25.2750   39.7440 C   0  0  0  0  0  0  0  0  0  0  0  0
   37.0530   26.5750   40.3520 C   0  0  0  0  0  0  0  0  0  0  0  0
   38.9370   25.0370   41.7490 H   0  0  0  0  0  0  0  0  0  0  0  0
   38.1300   25.3130   43.3370 H   0  0  0  0  0  0  0  0  0  0  0  0
   36.0720   24.5530   42.6920 H   0  0  0  0  0  0  0  0  0  0  0  0
   37.3030   23.2630   42.3700 H   0  0  0  0  0  0  0  0  0  0  0  0
   36.9290   23.2450   40.1480 H   0  0  0  0  0  0  0  0  0  0  0  0
   35.3530   23.8800   40.6280 H   0  0  0  0  0  0  0  0  0  0  0  0
   36.4290   25.3120   38.6990 H   0  0  0  0  0  0  0  0  0  0  0  0
   37.2020   28.0370   39.3910 S   0  0  0  0  0  0  0  0  0  0  0  0
   35.5500   28.5740   38.8720 C   0  0  0  0  0  2  0  0  0  0  0  0
   34.7790   29.2320   39.9870 C   0  0  0  0  0  2  0  0  0  0  0  0
   33.8490   28.6390   40.2370 H   0  0  0  0  0  0  0  0  0  0  0  0
  1  2  1  0  0  0  0
  1  3  1  0  0  0  0
  4  5  1  0  0  0  0
  4  1  1  0  0  0  0
  5 10  1  0  0  0  0
  6  5  2  0  0  0  0
  7  6  1  0  0  0  0
  8  7  2  0  0  0  0
  8  9  1  0  0  0  0
  9  4  2  0  0  0  0
 11  6  1  0  0  0  0
 12 17  1  0  0  0  0
 12  8  1  0  0  0  0
 13 12  2  0  0  0  0
 14 15  2  0  0  0  0
 14 13  1  0  0  0  0
 15 16  1  0  0  0  0
 16 21  1  0  0  0  0
 16 17  2  0  0  0  0
 18 13  1  0  0  0  0
 19 14  1  0  0  0  0
 20 15  1  0  0  0  0
 22 23  1  0  0  0  0
 22  1  1  0  0  0  0
 24 22  1  0  0  0  0
 25 26  1  0  0  0  0
 25 22  1  0  0  0  0
 26 32  1  0  0  0  0
 27 26  1  0  0  0  0
 27 34  1  0  0  0  0
 27 33  1  0  0  0  0
 28 27  1  0  0  0  0
 29 30  2  0  0  0  0
 29 28  1  0  0  0  0
 30 25  1  0  0  0  0
 31 26  1  0  0  0  0
 35 28  1  0  0  0  0
 36 28  1  0  0  0  0
 37 29  1  0  0  0  0
 38 30  1  0  0  0  0
 39 38  1  0  0  0  0
 39 40  1  0  0  0  0
 40 41  1  0  0  0  0
M  END
>  <minimizedAffinity>
-5.48105764

$$$$

 OpenBabel03252507053D

 41 43  0  0  0  0  0  0  0  0999 V2000
   37.6120   27.9680   39.8320 C   0  0  0  0  0  0  0  0  0  0  0  0
   36.7240   27.4750   40.2910 H   0  0  0  0  0  0  0  0  0  0  0  0
   37.6600   27.7480   38.7370 H   0  0  0  0  0  0  0  0  0  0  0  0
   37.4870   29.4260   39.9930 C   0  0  0  0  0  0  0  0  0  0  0  0
   36.3500   29.9680   40.5600 C   0  0  0  0  0  0  0  0  0  0  0  0
   36.2770   31.3490   40.6800 C   0  0  0  0  0  0  0  0  0  0  0  0
   37.3260   32.0990   40.2380 N   0  0  0  0  0  0  0  0  0  0  0  0
   38.4100   31.5350   39.6960 C   0  0  0  0  0  0  0  0  0  0  0  0
   38.4630   30.2090   39.5880 N   0  0  0  0  0  0  0  0  0  0  0  0
   35.4480   29.5530   40.9740 H   0  0  0  0  0  0  0  0  0  0  0  0
   35.4590   31.9460   41.0990 H   0  0  0  0  0  0  0  0  0  0  0  0
   39.4890   32.4180   39.2800 C   0  0  0  0  0  0  0  0  0  0  0  0
   39.7270   33.6040   39.9680 C   0  0  0  0  0  0  0  0  0  0  0  0
   40.7420   34.4460   39.5550 C   0  0  0  0  0  0  0  0  0  0  0  0
   41.4490   34.0070   38.4540 C   0  0  0  0  0  0  0  0  0  0  0  0
   41.2450   32.8430   37.7470 C   0  0  0  0  0  0  0  0  0  0  0  0
   40.2290   32.0720   38.2180 N   0  0  0  0  0  0  0  0  0  0  0  0
   39.1210   33.8890   40.8390 H   0  0  0  0  0  0  0  0  0  0  0  0
   40.9870   35.3830   40.0370 H   0  0  0  0  0  0  0  0  0  0  0  0
   42.2560   34.6440   38.0970 H   0  0  0  0  0  0  0  0  0  0  0  0
   41.8490   32.5750   36.8920 H   0  0  0  0  0  0  0  0  0  0  0  0
   38.8640   27.5280   40.5070 C   0  0  0  0  0  0  0  0  0  0  0  0
   39.1830   26.5800   40.0200 H   0  0  0  0  0  0  0  0  0  0  0  0
   39.6490   28.2790   40.1560 H   0  0  0  0  0  0  0  0  0  0  0  0
   38.7500   27.4250   41.8260 N   0  0  0  0  0  0  0  0  0  0  0  0
   39.5000   28.0530   42.8480 C   0  0  0  0  0  0  0  0  0  0  0  0
   38.4500   29.0790   43.3050 C   0  0  0  0  0  0  0  0  0  0  0  0
   37.2360   28.4690   43.8190 C   0  0  0  0  0  0  0  0  0  0  0  0
   36.8650   27.1400   43.3870 C   0  0  0  0  0  0  0  0  0  0  0  0
   37.6630   26.5270   42.2710 C   0  0  0  0  0  0  0  0  0  0  0  0
   39.9170   27.4660   43.6500 H   0  0  0  0  0  0  0  0  0  0  0  0
   40.3020   28.6920   42.3860 H   0  0  0  0  0  0  0  0  0  0  0  0
   38.2570   29.7140   42.4170 H   0  0  0  0  0  0  0  0  0  0  0  0
   38.9390   29.7140   44.0950 H   0  0  0  0  0  0  0  0  0  0  0  0
   37.2540   28.4840   44.9460 H   0  0  0  0  0  0  0  0  0  0  0  0
   36.3660   29.1460   43.5720 H   0  0  0  0  0  0  0  0  0  0  0  0
   36.0710   26.5370   43.7490 H   0  0  0  0  0  0  0  0  0  0  0  0
   37.2570   24.9540   41.6060 S   0  0  0  0  0  0  0  0  0  0  0  0
   38.6930   23.8580   41.7630 C   0  0  0  0  0  2  0  0  0  0  0  0
   39.5740   24.2240   42.9300 C   0  0  0  0  0  2  0  0  0  0  0  0
   40.6040   24.5290   42.5750 H   0  0  0  0  0  0  0  0  0  0  0  0
  1  4  1  0  0  0  0
  1  2  1  0  0  0  0
  1 22  1  0  0  0  0
  3  1  1  0  0  0  0
  4  5  1  0  0  0  0
  5  6  2  0  0  0  0
  5 10  1  0  0  0  0
  6 11  1  0  0  0  0
  7  6  1  0  0  0  0
  8  7  2  0  0  0  0
  9  8  1  0  0  0  0
  9  4  2  0  0  0  0
 12  8  1  0  0  0  0
 12 13  1  0  0  0  0
 13 18  1  0  0  0  0
 14 13  2  0  0  0  0
 14 19  1  0  0  0  0
 15 14  1  0  0  0  0
 16 17  1  0  0  0  0
 16 15  2  0  0  0  0
 17 12  2  0  0  0  0
 20 15  1  0  0  0  0
 21 16  1  0  0  0  0
 22 25  1  0  0  0  0
 23 22  1  0  0  0  0
 24 22  1  0  0  0  0
 25 30  1  0  0  0  0
 25 26  1  0  0  0  0
 26 27  1  0  0  0  0
 26 31  1  0  0  0  0
 27 28  1  0  0  0  0
 27 34  1  0  0  0  0
 28 35  1  0  0  0  0
 29 37  1  0  0  0  0
 29 28  1  0  0  0  0
 30 29  2  0  0  0  0
 32 26  1  0  0  0  0
 33 27  1  0  0  0  0
 36 28  1  0  0  0  0
 38 39  1  0  0  0  0
 38 30  1  0  0  0  0
 39 40  1  0  0  0  0
 41 40  1  0  0  0  0
M  END
>  <minimizedAffinity>
-5.1778059

$$$$

 OpenBabel03252507053D

 41 43  0  0  0  0  0  0  0  0999 V2000
   36.7650   26.6800   40.1610 C   0  0  0  0  0  0  0  0  0  0  0  0
   35.9960   26.6020   40.9640 H   0  0  0  0  0  0  0  0  0  0  0  0
   36.6850   25.8150   39.4560 H   0  0  0  0  0  0  0  0  0  0  0  0
   36.5320   27.9120   39.3900 C   0  0  0  0  0  0  0  0  0  0  0  0
   35.5910   27.9320   38.3790 C   0  0  0  0  0  0  0  0  0  0  0  0
   35.4160   29.1150   37.6760 C   0  0  0  0  0  0  0  0  0  0  0  0
   36.1750   30.1960   38.0160 N   0  0  0  0  0  0  0  0  0  0  0  0
   37.0750   30.1350   39.0020 C   0  0  0  0  0  0  0  0  0  0  0  0
   37.2300   28.9910   39.6660 N   0  0  0  0  0  0  0  0  0  0  0  0
   34.9000   27.2080   37.9840 H   0  0  0  0  0  0  0  0  0  0  0  0
   34.7220   29.3110   36.8500 H   0  0  0  0  0  0  0  0  0  0  0  0
   37.8160   31.3480   39.3090 C   0  0  0  0  0  0  0  0  0  0  0  0
   37.1380   32.5340   39.5750 C   0  0  0  0  0  0  0  0  0  0  0  0
   37.8500   33.6870   39.8480 C   0  0  0  0  0  0  0  0  0  0  0  0
   39.2230   33.5400   39.8290 C   0  0  0  0  0  0  0  0  0  0  0  0
   39.9300   32.3870   39.5700 C   0  0  0  0  0  0  0  0  0  0  0  0
   39.1550   31.3000   39.3120 N   0  0  0  0  0  0  0  0  0  0  0  0
   36.0410   32.5760   39.5740 H   0  0  0  0  0  0  0  0  0  0  0  0
   37.3960   34.6450   40.0630 H   0  0  0  0  0  0  0  0  0  0  0  0
   39.8200   34.4260   40.0370 H   0  0  0  0  0  0  0  0  0  0  0  0
   41.0100   32.3610   39.5750 H   0  0  0  0  0  0  0  0  0  0  0  0
   38.1320   26.7470   40.7480 C   0  0  0  0  0  0  0  0  0  0  0  0
   38.8360   26.3470   39.9870 H   0  0  0  0  0  0  0  0  0  0  0  0
   38.3730   27.8630   40.7660 H   0  0  0  0  0  0  0  0  0  0  0  0
   38.2360   26.1410   41.9250 N   0  0  0  0  0  0  0  0  0  0  0  0
   38.1350   24.7660   42.2440 C   0  0  0  0  0  0  0  0  0  0  0  0
   39.6260   24.4780   42.4870 C   0  0  0  0  0  0  0  0  0  0  0  0
   40.1900   25.2490   43.5810 C   0  0  0  0  0  0  0  0  0  0  0  0
   39.5880   26.5110   43.9520 C   0  0  0  0  0  0  0  0  0  0  0  0
   38.5140   27.0550   43.0540 C   0  0  0  0  0  0  0  0  0  0  0  0
   37.4900   24.4440   43.0450 H   0  0  0  0  0  0  0  0  0  0  0  0
   37.9070   24.1810   41.3120 H   0  0  0  0  0  0  0  0  0  0  0  0
   40.1260   24.6920   41.5210 H   0  0  0  0  0  0  0  0  0  0  0  0
   39.7130   23.3750   42.6950 H   0  0  0  0  0  0  0  0  0  0  0  0
   40.2580   24.6050   44.5030 H   0  0  0  0  0  0  0  0  0  0  0  0
   41.2730   25.4640   43.3430 H   0  0  0  0  0  0  0  0  0  0  0  0
   39.8270   27.1260   44.7830 H   0  0  0  0  0  0  0  0  0  0  0  0
   37.7660   28.6150   43.3540 S   0  0  0  0  0  0  0  0  0  0  0  0
   38.8350   29.9200   42.6890 C   0  0  0  0  0  2  0  0  0  0  0  0
   40.1790   29.3990   42.2490 C   0  0  0  0  0  2  0  0  0  0  0  0
   41.0100   29.8630   42.8600 H   0  0  0  0  0  0  0  0  0  0  0  0
  1 22  1  0  0  0  0
  1  2  1  0  0  0  0
  3  1  1  0  0  0  0
  4  9  1  0  0  0  0
  4  1  1  0  0  0  0
  5  4  2  0  0  0  0
  6  7  2  0  0  0  0
  6  5  1  0  0  0  0
  7  8  1  0  0  0  0
  8 12  1  0  0  0  0
  8  9  2  0  0  0  0
 10  5  1  0  0  0  0
 11  6  1  0  0  0  0
 12 17  2  0  0  0  0
 12 13  1  0  0  0  0
 13 14  2  0  0  0  0
 14 19  1  0  0  0  0
 15 14  1  0  0  0  0
 15 20  1  0  0  0  0
 16 21  1  0  0  0  0
 16 15  2  0  0  0  0
 17 16  1  0  0  0  0
 18 13  1  0  0  0  0
 22 24  1  0  0  0  0
 22 25  1  0  0  0  0
 23 22  1  0  0  0  0
 25 26  1  0  0  0  0
 25 30  1  0  0  0  0
 26 27  1  0  0  0  0
 26 31  1  0  0  0  0
 27 34  1  0  0  0  0
 27 28  1  0  0  0  0
 28 29  1  0  0  0  0
 28 35  1  0  0  0  0
 29 37  1  0  0  0  0
 30 38  1  0  0  0  0
 30 29  2  0  0  0  0
 32 26  1  0  0  0  0
 33 27  1  0  0  0  0
 36 28  1  0  0  0  0
 39 38  1  0  0  0  0
 40 39  1  0  0  0  0
 40 41  1  0  0  0  0
M  END
>  <minimizedAffinity>
-5.13579178

$$$$

 OpenBabel03252507053D

 41 43  0  0  0  0  0  0  0  0999 V2000
   37.7650   27.0600   39.3070 C   0  0  0  0  0  0  0  0  0  0  0  0
   36.9790   26.2800   39.4280 H   0  0  0  0  0  0  0  0  0  0  0  0
   38.0590   27.1560   38.2320 H   0  0  0  0  0  0  0  0  0  0  0  0
   37.2240   28.3580   39.7440 C   0  0  0  0  0  0  0  0  0  0  0  0
   35.9380   28.4430   40.2410 C   0  0  0  0  0  0  0  0  0  0  0  0
   35.4720   29.6910   40.6300 C   0  0  0  0  0  0  0  0  0  0  0  0
   36.3010   30.7660   40.5040 N   0  0  0  0  0  0  0  0  0  0  0  0
   37.5400   30.6410   40.0180 C   0  0  0  0  0  0  0  0  0  0  0  0
   37.9700   29.4360   39.6490 N   0  0  0  0  0  0  0  0  0  0  0  0
   35.1580   27.7260   40.4300 H   0  0  0  0  0  0  0  0  0  0  0  0
   34.4880   29.9430   41.0420 H   0  0  0  0  0  0  0  0  0  0  0  0
   38.3580   31.8420   39.9490 C   0  0  0  0  0  0  0  0  0  0  0  0
   39.7070   31.7510   39.6190 C   0  0  0  0  0  0  0  0  0  0  0  0
   40.4810   32.8950   39.5730 C   0  0  0  0  0  0  0  0  0  0  0  0
   39.8110   34.0630   39.8730 C   0  0  0  0  0  0  0  0  0  0  0  0
   38.4800   34.1950   40.2040 C   0  0  0  0  0  0  0  0  0  0  0  0
   37.7890   33.0230   40.2260 N   0  0  0  0  0  0  0  0  0  0  0  0
   40.1730   30.7830   39.3920 H   0  0  0  0  0  0  0  0  0  0  0  0
   41.5340   32.9050   39.3260 H   0  0  0  0  0  0  0  0  0  0  0  0
   40.3870   34.9860   39.8490 H   0  0  0  0  0  0  0  0  0  0  0  0
   38.0330   35.1530   40.4250 H   0  0  0  0  0  0  0  0  0  0  0  0
   38.9540   26.7430   40.1450 C   0  0  0  0  0  0  0  0  0  0  0  0
   39.6470   26.1420   39.5160 H   0  0  0  0  0  0  0  0  0  0  0  0
   39.4960   27.7420   40.2500 H   0  0  0  0  0  0  0  0  0  0  0  0
   38.6520   26.1550   41.2970 N   0  0  0  0  0  0  0  0  0  0  0  0
   37.7960   25.0590   41.5530 C   0  0  0  0  0  0  0  0  0  0  0  0
   38.8680   23.9890   41.8230 C   0  0  0  0  0  0  0  0  0  0  0  0
   39.7120   24.2970   42.9640 C   0  0  0  0  0  0  0  0  0  0  0  0
   39.8880   25.6730   43.3740 C   0  0  0  0  0  0  0  0  0  0  0  0
   39.3350   26.7390   42.4710 C   0  0  0  0  0  0  0  0  0  0  0  0
   37.0440   25.1290   42.3220 H   0  0  0  0  0  0  0  0  0  0  0  0
   37.3260   24.7160   40.5900 H   0  0  0  0  0  0  0  0  0  0  0  0
   39.4470   23.9120   40.8810 H   0  0  0  0  0  0  0  0  0  0  0  0
   38.3230   23.0180   41.9850 H   0  0  0  0  0  0  0  0  0  0  0  0
   39.3700   23.7030   43.8590 H   0  0  0  0  0  0  0  0  0  0  0  0
   40.7440   23.8830   42.7660 H   0  0  0  0  0  0  0  0  0  0  0  0
   40.3880   26.0360   44.2360 H   0  0  0  0  0  0  0  0  0  0  0  0
   39.5580   28.4460   42.8190 S   0  0  0  0  0  0  0  0  0  0  0  0
   37.9870   29.1390   43.4020 C   0  0  0  0  0  2  0  0  0  0  0  0
   37.0750   28.0920   43.9900 C   0  0  0  0  0  2  0  0  0  0  0  0
   36.1220   28.0070   43.3890 H   0  0  0  0  0  0  0  0  0  0  0  0
  1  2  1  0  0  0  0
  1  4  1  0  0  0  0
  1 22  1  0  0  0  0
  3  1  1  0  0  0  0
  4  5  1  0  0  0  0
  5 10  1  0  0  0  0
  5  6  2  0  0  0  0
  6 11  1  0  0  0  0
  7  6  1  0  0  0  0
  8  7  2  0  0  0  0
  9  4  2  0  0  0  0
  9  8  1  0  0  0  0
 12  8  1  0  0  0  0
 12 17  1  0  0  0  0
 13 12  2  0  0  0  0
 14 13  1  0  0  0  0
 14 15  2  0  0  0  0
 15 16  1  0  0  0  0
 16 17  2  0  0  0  0
 16 21  1  0  0  0  0
 18 13  1  0  0  0  0
 19 14  1  0  0  0  0
 20 15  1  0  0  0  0
 22 24  1  0  0  0  0
 22 25  1  0  0  0  0
 23 22  1  0  0  0  0
 25 26  1  0  0  0  0
 25 30  1  0  0  0  0
 26 27  1  0  0  0  0
 26 31  1  0  0  0  0
 27 34  1  0  0  0  0
 27 28  1  0  0  0  0
 28 29  1  0  0  0  0
 28 35  1  0  0  0  0
 29 37  1  0  0  0  0
 30 38  1  0  0  0  0
 30 29  2  0  0  0  0
 32 26  1  0  0  0  0
 33 27  1  0  0  0  0
 36 28  1  0  0  0  0
 38 39  1  0  0  0  0
 39 40  1  0  0  0  0
 41 40  1  0  0  0  0
M  END
>  <minimizedAffinity>
-5.12799931

$$$$

 OpenBabel03252507053D

 41 43  0  0  0  0  0  0  0  0999 V2000
   37.7240   28.5740   43.3160 C   0  0  0  0  0  0  0  0  0  0  0  0
   36.8090   28.6150   42.6810 H   0  0  0  0  0  0  0  0  0  0  0  0
   37.4590   28.7050   44.3940 H   0  0  0  0  0  0  0  0  0  0  0  0
   38.3550   27.2530   43.1640 C   0  0  0  0  0  0  0  0  0  0  0  0
   39.4740   26.9280   43.9070 C   0  0  0  0  0  0  0  0  0  0  0  0
   40.0370   25.6740   43.7190 C   0  0  0  0  0  0  0  0  0  0  0  0
   39.4620   24.8270   42.8180 N   0  0  0  0  0  0  0  0  0  0  0  0
   38.3790   25.1800   42.1200 C   0  0  0  0  0  0  0  0  0  0  0  0
   37.8520   26.3890   42.3120 N   0  0  0  0  0  0  0  0  0  0  0  0
   40.0480   27.4380   44.6600 H   0  0  0  0  0  0  0  0  0  0  0  0
   40.9180   25.2500   44.2160 H   0  0  0  0  0  0  0  0  0  0  0  0
   37.8210   24.1980   41.2030 C   0  0  0  0  0  0  0  0  0  0  0  0
   36.5250   24.3500   40.7190 C   0  0  0  0  0  0  0  0  0  0  0  0
   35.9970   23.4020   39.8630 C   0  0  0  0  0  0  0  0  0  0  0  0
   36.8440   22.3550   39.5600 C   0  0  0  0  0  0  0  0  0  0  0  0
   38.1300   22.1700   40.0170 C   0  0  0  0  0  0  0  0  0  0  0  0
   38.5740   23.1460   40.8540 N   0  0  0  0  0  0  0  0  0  0  0  0
   35.9080   25.2110   41.0040 H   0  0  0  0  0  0  0  0  0  0  0  0
   34.9990   23.4490   39.4460 H   0  0  0  0  0  0  0  0  0  0  0  0
   36.4640   21.5870   38.8890 H   0  0  0  0  0  0  0  0  0  0  0  0
   38.7270   21.3170   39.7280 H   0  0  0  0  0  0  0  0  0  0  0  0
   38.7030   29.6130   42.8920 C   0  0  0  0  0  0  0  0  0  0  0  0
   38.6910   30.4100   43.6660 H   0  0  0  0  0  0  0  0  0  0  0  0
   39.7200   29.1160   43.0450 H   0  0  0  0  0  0  0  0  0  0  0  0
   38.4930   30.0730   41.6650 N   0  0  0  0  0  0  0  0  0  0  0  0
   37.5190   29.6920   40.7120 C   0  0  0  0  0  0  0  0  0  0  0  0
   36.5950   30.9160   40.8280 C   0  0  0  0  0  0  0  0  0  0  0  0
   37.2460   32.1630   40.4690 C   0  0  0  0  0  0  0  0  0  0  0  0
   38.6830   32.2810   40.5850 C   0  0  0  0  0  0  0  0  0  0  0  0
   39.4160   31.1560   41.2590 C   0  0  0  0  0  0  0  0  0  0  0  0
   37.8140   29.4590   39.7020 H   0  0  0  0  0  0  0  0  0  0  0  0
   36.8940   28.8560   41.1290 H   0  0  0  0  0  0  0  0  0  0  0  0
   36.2390   30.9150   41.8770 H   0  0  0  0  0  0  0  0  0  0  0  0
   35.7140   30.7220   40.1540 H   0  0  0  0  0  0  0  0  0  0  0  0
   36.9500   32.4570   39.4210 H   0  0  0  0  0  0  0  0  0  0  0  0
   36.8010   32.9910   41.0970 H   0  0  0  0  0  0  0  0  0  0  0  0
   39.2970   33.0850   40.2690 H   0  0  0  0  0  0  0  0  0  0  0  0
   41.1490   31.2200   41.5320 S   0  0  0  0  0  0  0  0  0  0  0  0
   41.8960   32.3440   40.3210 C   0  0  0  0  0  2  0  0  0  0  0  0
   42.1740   33.7090   40.8940 C   0  0  0  0  0  2  0  0  0  0  0  0
   41.5710   34.5010   40.3570 H   0  0  0  0  0  0  0  0  0  0  0  0
  1  3  1  0  0  0  0
  2  1  1  0  0  0  0
  4  1  1  0  0  0  0
  4  5  1  0  0  0  0
  5 10  1  0  0  0  0
  6  5  2  0  0  0  0
  6 11  1  0  0  0  0
  7  6  1  0  0  0  0
  8  9  1  0  0  0  0
  8  7  2  0  0  0  0
  9  4  2  0  0  0  0
 12  8  1  0  0  0  0
 13 18  1  0  0  0  0
 13 12  2  0  0  0  0
 14 13  1  0  0  0  0
 15 14  2  0  0  0  0
 15 16  1  0  0  0  0
 16 17  2  0  0  0  0
 17 12  1  0  0  0  0
 19 14  1  0  0  0  0
 20 15  1  0  0  0  0
 21 16  1  0  0  0  0
 22 24  1  0  0  0  0
 22  1  1  0  0  0  0
 22 23  1  0  0  0  0
 25 22  1  0  0  0  0
 26 27  1  0  0  0  0
 26 32  1  0  0  0  0
 26 25  1  0  0  0  0
 27 33  1  0  0  0  0
 28 29  1  0  0  0  0
 28 27  1  0  0  0  0
 28 36  1  0  0  0  0
 29 30  2  0  0  0  0
 30 38  1  0  0  0  0
 30 25  1  0  0  0  0
 31 26  1  0  0  0  0
 34 27  1  0  0  0  0
 35 28  1  0  0  0  0
 37 29  1  0  0  0  0
 39 40  1  0  0  0  0
 39 38  1  0  0  0  0
 41 40  1  0  0  0  0
M  END
>  <minimizedAffinity>
-5.12307453

$$$$

 OpenBabel03252507053D

 41 43  0  0  0  0  0  0  0  0999 V2000
   37.6470   28.3060   43.6630 C   0  0  0  0  0  0  0  0  0  0  0  0
   36.5760   28.2190   43.3660 H   0  0  0  0  0  0  0  0  0  0  0  0
   37.7370   28.4640   44.7660 H   0  0  0  0  0  0  0  0  0  0  0  0
   38.3420   27.0520   43.3290 C   0  0  0  0  0  0  0  0  0  0  0  0
   39.5570   26.7530   43.9160 C   0  0  0  0  0  0  0  0  0  0  0  0
   40.1750   25.5630   43.5600 C   0  0  0  0  0  0  0  0  0  0  0  0
   39.5570   24.7500   42.6560 N   0  0  0  0  0  0  0  0  0  0  0  0
   38.3810   25.0760   42.1120 C   0  0  0  0  0  0  0  0  0  0  0  0
   37.8010   26.2220   42.4650 N   0  0  0  0  0  0  0  0  0  0  0  0
   40.1790   27.2440   44.6430 H   0  0  0  0  0  0  0  0  0  0  0  0
   41.1320   25.1680   43.9200 H   0  0  0  0  0  0  0  0  0  0  0  0
   37.7880   24.1300   41.1800 C   0  0  0  0  0  0  0  0  0  0  0  0
   36.4910   24.3270   40.7140 C   0  0  0  0  0  0  0  0  0  0  0  0
   35.9280   23.4140   39.8430 C   0  0  0  0  0  0  0  0  0  0  0  0
   36.7440   22.3530   39.5060 C   0  0  0  0  0  0  0  0  0  0  0  0
   38.0290   22.1230   39.9430 C   0  0  0  0  0  0  0  0  0  0  0  0
   38.5080   23.0670   40.7980 N   0  0  0  0  0  0  0  0  0  0  0  0
   35.8990   25.1980   41.0270 H   0  0  0  0  0  0  0  0  0  0  0  0
   34.9280   23.4970   39.4390 H   0  0  0  0  0  0  0  0  0  0  0  0
   36.3360   21.6110   38.8220 H   0  0  0  0  0  0  0  0  0  0  0  0
   38.6000   21.2610   39.6280 H   0  0  0  0  0  0  0  0  0  0  0  0
   38.3070   29.4170   42.9230 C   0  0  0  0  0  0  0  0  0  0  0  0
   38.2010   30.3330   43.5450 H   0  0  0  0  0  0  0  0  0  0  0  0
   39.4220   29.1790   42.9980 H   0  0  0  0  0  0  0  0  0  0  0  0
   37.8580   29.5730   41.6830 N   0  0  0  0  0  0  0  0  0  0  0  0
   36.5390   29.4700   41.1820 C   0  0  0  0  0  0  0  0  0  0  0  0
   36.2560   30.9680   40.9750 C   0  0  0  0  0  0  0  0  0  0  0  0
   37.1530   31.5960   40.0210 C   0  0  0  0  0  0  0  0  0  0  0  0
   38.4640   31.0300   39.7900 C   0  0  0  0  0  0  0  0  0  0  0  0
   38.9070   29.9190   40.6990 C   0  0  0  0  0  0  0  0  0  0  0  0
   36.3370   28.8630   40.3150 H   0  0  0  0  0  0  0  0  0  0  0  0
   35.8410   29.1890   42.0170 H   0  0  0  0  0  0  0  0  0  0  0  0
   36.3330   31.4210   41.9840 H   0  0  0  0  0  0  0  0  0  0  0  0
   35.1880   31.0510   40.6290 H   0  0  0  0  0  0  0  0  0  0  0  0
   36.6330   31.7020   39.0260 H   0  0  0  0  0  0  0  0  0  0  0  0
   37.3140   32.6690   40.3360 H   0  0  0  0  0  0  0  0  0  0  0  0
   39.1770   31.3180   39.0600 H   0  0  0  0  0  0  0  0  0  0  0  0
   40.5060   29.2080   40.5710 S   0  0  0  0  0  0  0  0  0  0  0  0
   40.3420   27.4700   40.0800 C   0  0  0  0  0  2  0  0  0  0  0  0
   39.1380   27.2270   39.2070 C   0  0  0  0  0  2  0  0  0  0  0  0
   38.4090   26.5270   39.7140 H   0  0  0  0  0  0  0  0  0  0  0  0
  1  3  1  0  0  0  0
  2  1  1  0  0  0  0
  4  1  1  0  0  0  0
  4  5  1  0  0  0  0
  5 10  1  0  0  0  0
  6  5  2  0  0  0  0
  6 11  1  0  0  0  0
  7  6  1  0  0  0  0
  8  9  1  0  0  0  0
  8  7  2  0  0  0  0
  9  4  2  0  0  0  0
 12  8  1  0  0  0  0
 13 18  1  0  0  0  0
 13 12  2  0  0  0  0
 14 13  1  0  0  0  0
 15 14  2  0  0  0  0
 15 16  1  0  0  0  0
 16 17  2  0  0  0  0
 17 12  1  0  0  0  0
 19 14  1  0  0  0  0
 20 15  1  0  0  0  0
 21 16  1  0  0  0  0
 22 24  1  0  0  0  0
 22 23  1  0  0  0  0
 22  1  1  0  0  0  0
 25 22  1  0  0  0  0
 26 25  1  0  0  0  0
 26 32  1  0  0  0  0
 27 26  1  0  0  0  0
 27 33  1  0  0  0  0
 28 36  1  0  0  0  0
 28 27  1  0  0  0  0
 29 28  1  0  0  0  0
 29 30  2  0  0  0  0
 30 25  1  0  0  0  0
 31 26  1  0  0  0  0
 34 27  1  0  0  0  0
 35 28  1  0  0  0  0
 37 29  1  0  0  0  0
 38 30  1  0  0  0  0
 39 38  1  0  0  0  0
 40 41  1  0  0  0  0
 40 39  1  0  0  0  0
M  END
>  <minimizedAffinity>
-5.04896212

$$$$

 OpenBabel03252507053D

 41 43  0  0  0  0  0  0  0  0999 V2000
   35.6290   30.0500   40.3210 C   0  0  0  0  0  0  0  0  0  0  0  0
   35.3480   30.5220   39.3510 H   0  0  0  0  0  0  0  0  0  0  0  0
   34.7160   29.8150   40.9210 H   0  0  0  0  0  0  0  0  0  0  0  0
   36.3310   28.7840   40.0530 C   0  0  0  0  0  0  0  0  0  0  0  0
   36.2290   28.1820   38.8130 C   0  0  0  0  0  0  0  0  0  0  0  0
   36.9020   26.9850   38.6140 C   0  0  0  0  0  0  0  0  0  0  0  0
   37.6280   26.4640   39.6450 N   0  0  0  0  0  0  0  0  0  0  0  0
   37.7010   27.0790   40.8290 C   0  0  0  0  0  0  0  0  0  0  0  0
   37.0490   28.2280   41.0030 N   0  0  0  0  0  0  0  0  0  0  0  0
   35.7340   28.4390   37.8940 H   0  0  0  0  0  0  0  0  0  0  0  0
   36.9320   26.3730   37.7060 H   0  0  0  0  0  0  0  0  0  0  0  0
   38.5240   26.4600   41.8570 C   0  0  0  0  0  0  0  0  0  0  0  0
   38.8540   27.1680   43.0080 C   0  0  0  0  0  0  0  0  0  0  0  0
   39.6510   26.5790   43.9720 C   0  0  0  0  0  0  0  0  0  0  0  0
   40.0570   25.2920   43.6830 C   0  0  0  0  0  0  0  0  0  0  0  0
   39.7520   24.5590   42.5570 C   0  0  0  0  0  0  0  0  0  0  0  0
   38.9650   25.2100   41.6600 N   0  0  0  0  0  0  0  0  0  0  0  0
   38.4940   28.1920   43.1710 H   0  0  0  0  0  0  0  0  0  0  0  0
   39.9520   27.0640   44.8910 H   0  0  0  0  0  0  0  0  0  0  0  0
   40.6880   24.7930   44.4160 H   0  0  0  0  0  0  0  0  0  0  0  0
   40.1140   23.5510   42.4100 H   0  0  0  0  0  0  0  0  0  0  0  0
   36.5430   30.9380   41.0910 C   0  0  0  0  0  0  0  0  0  0  0  0
   35.9060   31.5910   41.7280 H   0  0  0  0  0  0  0  0  0  0  0  0
   37.0390   30.2400   41.8470 H   0  0  0  0  0  0  0  0  0  0  0  0
   37.3910   31.6190   40.3300 N   0  0  0  0  0  0  0  0  0  0  0  0
   37.2010   32.1760   39.0430 C   0  0  0  0  0  0  0  0  0  0  0  0
   37.1030   33.6570   39.4480 C   0  0  0  0  0  0  0  0  0  0  0  0
   38.3060   34.1600   40.0860 C   0  0  0  0  0  0  0  0  0  0  0  0
   39.1940   33.2420   40.7660 C   0  0  0  0  0  0  0  0  0  0  0  0
   38.7210   31.8280   40.9430 C   0  0  0  0  0  0  0  0  0  0  0  0
   37.9160   31.9830   38.2610 H   0  0  0  0  0  0  0  0  0  0  0  0
   36.1640   31.9380   38.6810 H   0  0  0  0  0  0  0  0  0  0  0  0
   36.2180   33.7190   40.1130 H   0  0  0  0  0  0  0  0  0  0  0  0
   36.8810   34.2360   38.5080 H   0  0  0  0  0  0  0  0  0  0  0  0
   38.9120   34.7500   39.3390 H   0  0  0  0  0  0  0  0  0  0  0  0
   38.0070   34.9440   40.8430 H   0  0  0  0  0  0  0  0  0  0  0  0
   40.1460   33.4490   41.1840 H   0  0  0  0  0  0  0  0  0  0  0  0
   39.6720   30.6430   41.8220 S   0  0  0  0  0  0  0  0  0  0  0  0
   40.4850   29.5390   40.6350 C   0  0  0  0  0  2  0  0  0  0  0  0
   39.9430   29.6930   39.2370 C   0  0  0  0  0  2  0  0  0  0  0  0
   39.4610   28.7320   38.8850 H   0  0  0  0  0  0  0  0  0  0  0  0
  1  3  1  0  0  0  0
  1 22  1  0  0  0  0
  2  1  1  0  0  0  0
  4  1  1  0  0  0  0
  4  9  1  0  0  0  0
  5  4  2  0  0  0  0
  6  5  1  0  0  0  0
  6  7  2  0  0  0  0
  7  8  1  0  0  0  0
  8  9  2  0  0  0  0
  8 12  1  0  0  0  0
 10  5  1  0  0  0  0
 11  6  1  0  0  0  0
 12 13  1  0  0  0  0
 13 18  1  0  0  0  0
 13 14  2  0  0  0  0
 14 19  1  0  0  0  0
 15 14  1  0  0  0  0
 15 20  1  0  0  0  0
 16 15  2  0  0  0  0
 17 12  2  0  0  0  0
 17 16  1  0  0  0  0
 21 16  1  0  0  0  0
 22 23  1  0  0  0  0
 22 24  1  0  0  0  0
 25 30  1  0  0  0  0
 25 22  1  0  0  0  0
 26 27  1  0  0  0  0
 26 25  1  0  0  0  0
 27 28  1  0  0  0  0
 27 33  1  0  0  0  0
 28 29  1  0  0  0  0
 28 36  1  0  0  0  0
 29 30  2  0  0  0  0
 29 37  1  0  0  0  0
 30 38  1  0  0  0  0
 31 26  1  0  0  0  0
 32 26  1  0  0  0  0
 34 27  1  0  0  0  0
 35 28  1  0  0  0  0
 39 38  1  0  0  0  0
 40 39  1  0  0  0  0
 41 40  1  0  0  0  0
M  END
>  <minimizedAffinity>
-5.03868198

$$$$

 OpenBabel03252507053D

 41 43  0  0  0  0  0  0  0  0999 V2000
   37.5850   28.7400   43.0170 C   0  0  0  0  0  0  0  0  0  0  0  0
   38.5250   28.8480   43.6060 H   0  0  0  0  0  0  0  0  0  0  0  0
   36.6920   28.8410   43.6830 H   0  0  0  0  0  0  0  0  0  0  0  0
   37.5220   29.8160   42.0130 C   0  0  0  0  0  0  0  0  0  0  0  0
   36.3890   29.9780   41.2380 C   0  0  0  0  0  0  0  0  0  0  0  0
   36.3840   30.9990   40.2990 C   0  0  0  0  0  0  0  0  0  0  0  0
   37.4900   31.7910   40.1890 N   0  0  0  0  0  0  0  0  0  0  0  0
   38.5650   31.6010   40.9590 C   0  0  0  0  0  0  0  0  0  0  0  0
   38.5530   30.6150   41.8540 N   0  0  0  0  0  0  0  0  0  0  0  0
   35.4370   29.4800   41.1900 H   0  0  0  0  0  0  0  0  0  0  0  0
   35.5810   31.2710   39.6050 H   0  0  0  0  0  0  0  0  0  0  0  0
   39.6840   32.5140   40.7860 C   0  0  0  0  0  0  0  0  0  0  0  0
   40.9710   32.1190   41.1410 C   0  0  0  0  0  0  0  0  0  0  0  0
   42.0250   33.0000   40.9900 C   0  0  0  0  0  0  0  0  0  0  0  0
   41.6830   34.2360   40.4810 C   0  0  0  0  0  0  0  0  0  0  0  0
   40.4250   34.6640   40.1190 C   0  0  0  0  0  0  0  0  0  0  0  0
   39.4440   33.7390   40.2980 N   0  0  0  0  0  0  0  0  0  0  0  0
   41.1680   31.1160   41.5410 H   0  0  0  0  0  0  0  0  0  0  0  0
   43.0510   32.7670   41.2440 H   0  0  0  0  0  0  0  0  0  0  0  0
   42.4860   34.9580   40.3490 H   0  0  0  0  0  0  0  0  0  0  0  0
   40.2440   35.6540   39.7260 H   0  0  0  0  0  0  0  0  0  0  0  0
   37.5580   27.4330   42.3050 C   0  0  0  0  0  0  0  0  0  0  0  0
   36.8090   26.7940   42.8230 H   0  0  0  0  0  0  0  0  0  0  0  0
   37.0540   27.6690   41.3080 H   0  0  0  0  0  0  0  0  0  0  0  0
   38.7500   26.8590   42.1990 N   0  0  0  0  0  0  0  0  0  0  0  0
   39.9520   27.1430   42.8890 C   0  0  0  0  0  0  0  0  0  0  0  0
   39.9680   25.9270   43.8310 C   0  0  0  0  0  0  0  0  0  0  0  0
   40.0310   24.6570   43.1290 C   0  0  0  0  0  0  0  0  0  0  0  0
   39.5380   24.5630   41.7720 C   0  0  0  0  0  0  0  0  0  0  0  0
   38.8040   25.7520   41.2200 C   0  0  0  0  0  0  0  0  0  0  0  0
   40.8690   27.2830   42.3400 H   0  0  0  0  0  0  0  0  0  0  0  0
   39.7890   28.0080   43.5870 H   0  0  0  0  0  0  0  0  0  0  0  0
   39.0500   26.0220   44.4450 H   0  0  0  0  0  0  0  0  0  0  0  0
   40.8600   26.0510   44.5050 H   0  0  0  0  0  0  0  0  0  0  0  0
   41.0880   24.2660   43.1490 H   0  0  0  0  0  0  0  0  0  0  0  0
   39.4660   23.8880   43.7330 H   0  0  0  0  0  0  0  0  0  0  0  0
   39.6100   23.7380   41.1100 H   0  0  0  0  0  0  0  0  0  0  0  0
   38.0880   25.7280   39.6170 S   0  0  0  0  0  0  0  0  0  0  0  0
   36.4170   25.0340   39.7270 C   0  0  0  0  0  2  0  0  0  0  0  0
   36.4220   23.5520   40.0010 C   0  0  0  0  0  2  0  0  0  0  0  0
   35.9510   22.9840   39.1440 H   0  0  0  0  0  0  0  0  0  0  0  0
  1  2  1  0  0  0  0
  1  3  1  0  0  0  0
  4  1  1  0  0  0  0
  5  4  2  0  0  0  0
  6  5  1  0  0  0  0
  7  6  2  0  0  0  0
  7  8  1  0  0  0  0
  8  9  2  0  0  0  0
  9  4  1  0  0  0  0
 10  5  1  0  0  0  0
 11  6  1  0  0  0  0
 12  8  1  0  0  0  0
 12 13  1  0  0  0  0
 13 18  1  0  0  0  0
 14 13  2  0  0  0  0
 14 19  1  0  0  0  0
 15 14  1  0  0  0  0
 16 17  1  0  0  0  0
 16 15  2  0  0  0  0
 17 12  2  0  0  0  0
 20 15  1  0  0  0  0
 21 16  1  0  0  0  0
 22 23  1  0  0  0  0
 22  1  1  0  0  0  0
 24 22  1  0  0  0  0
 25 22  1  0  0  0  0
 25 26  1  0  0  0  0
 26 32  1  0  0  0  0
 26 27  1  0  0  0  0
 27 33  1  0  0  0  0
 27 34  1  0  0  0  0
 28 35  1  0  0  0  0
 28 36  1  0  0  0  0
 28 27  1  0  0  0  0
 29 28  1  0  0  0  0
 30 29  2  0  0  0  0
 30 25  1  0  0  0  0
 31 26  1  0  0  0  0
 37 29  1  0  0  0  0
 38 39  1  0  0  0  0
 38 30  1  0  0  0  0
 39 40  1  0  0  0  0
 41 40  1  0  0  0  0
M  END
>  <minimizedAffinity>
-5.03690386

$$$$

 OpenBabel03252507053D

 41 43  0  0  0  0  0  0  0  0999 V2000
   37.6190   28.8870   42.5360 C   0  0  0  0  0  0  0  0  0  0  0  0
   38.6480   28.4630   42.5950 H   0  0  0  0  0  0  0  0  0  0  0  0
   37.2530   29.1690   43.5540 H   0  0  0  0  0  0  0  0  0  0  0  0
   37.6500   30.1090   41.7140 C   0  0  0  0  0  0  0  0  0  0  0  0
   36.5120   30.5330   41.0560 C   0  0  0  0  0  0  0  0  0  0  0  0
   36.5960   31.6850   40.2870 C   0  0  0  0  0  0  0  0  0  0  0  0
   37.7910   32.3390   40.2190 N   0  0  0  0  0  0  0  0  0  0  0  0
   38.8690   31.8960   40.8720 C   0  0  0  0  0  0  0  0  0  0  0  0
   38.7700   30.7880   41.6060 N   0  0  0  0  0  0  0  0  0  0  0  0
   35.5000   30.1730   41.0020 H   0  0  0  0  0  0  0  0  0  0  0  0
   35.8030   32.1620   39.7010 H   0  0  0  0  0  0  0  0  0  0  0  0
   40.0900   32.6780   40.7610 C   0  0  0  0  0  0  0  0  0  0  0  0
   41.3010   32.1520   41.2020 C   0  0  0  0  0  0  0  0  0  0  0  0
   42.4530   32.9090   41.1090 C   0  0  0  0  0  0  0  0  0  0  0  0
   42.2810   34.1660   40.5650 C   0  0  0  0  0  0  0  0  0  0  0  0
   41.1030   34.7220   40.1170 C   0  0  0  0  0  0  0  0  0  0  0  0
   40.0170   33.9120   40.2440 N   0  0  0  0  0  0  0  0  0  0  0  0
   41.3620   31.1410   41.6260 H   0  0  0  0  0  0  0  0  0  0  0  0
   43.4290   32.5710   41.4310 H   0  0  0  0  0  0  0  0  0  0  0  0
   43.1650   34.7940   40.4760 H   0  0  0  0  0  0  0  0  0  0  0  0
   41.0570   35.7180   39.7020 H   0  0  0  0  0  0  0  0  0  0  0  0
   36.6880   27.9170   41.8970 C   0  0  0  0  0  0  0  0  0  0  0  0
   35.8550   27.7430   42.6120 H   0  0  0  0  0  0  0  0  0  0  0  0
   36.1920   28.5160   41.0600 H   0  0  0  0  0  0  0  0  0  0  0  0
   37.2770   26.7960   41.4980 N   0  0  0  0  0  0  0  0  0  0  0  0
   38.0140   25.8490   42.2460 C   0  0  0  0  0  0  0  0  0  0  0  0
   36.9610   24.7280   42.2960 C   0  0  0  0  0  0  0  0  0  0  0  0
   36.6000   24.2210   40.9840 C   0  0  0  0  0  0  0  0  0  0  0  0
   36.7580   25.0670   39.8210 C   0  0  0  0  0  0  0  0  0  0  0  0
   37.1140   26.5070   40.0570 C   0  0  0  0  0  0  0  0  0  0  0  0
   38.9820   25.5250   41.9040 H   0  0  0  0  0  0  0  0  0  0  0  0
   38.0810   26.1860   43.3170 H   0  0  0  0  0  0  0  0  0  0  0  0
   36.0940   25.1660   42.8300 H   0  0  0  0  0  0  0  0  0  0  0  0
   37.3920   23.9060   42.9320 H   0  0  0  0  0  0  0  0  0  0  0  0
   37.1390   23.2500   40.7920 H   0  0  0  0  0  0  0  0  0  0  0  0
   35.5150   23.9060   41.0100 H   0  0  0  0  0  0  0  0  0  0  0  0
   36.6320   24.8010   38.8020 H   0  0  0  0  0  0  0  0  0  0  0  0
   37.2540   27.6490   38.7310 S   0  0  0  0  0  0  0  0  0  0  0  0
   35.5980   28.2330   38.2780 C   0  0  0  0  0  2  0  0  0  0  0  0
   35.6360   29.3730   37.2930 C   0  0  0  0  0  2  0  0  0  0  0  0
   35.1850   30.3070   37.7420 H   0  0  0  0  0  0  0  0  0  0  0  0
  1  2  1  0  0  0  0
  1  3  1  0  0  0  0
  4  1  1  0  0  0  0
  5  4  2  0  0  0  0
  6  5  1  0  0  0  0
  7  6  2  0  0  0  0
  7  8  1  0  0  0  0
  8  9  2  0  0  0  0
  9  4  1  0  0  0  0
 10  5  1  0  0  0  0
 11  6  1  0  0  0  0
 12  8  1  0  0  0  0
 12 13  1  0  0  0  0
 13 18  1  0  0  0  0
 14 13  2  0  0  0  0
 14 19  1  0  0  0  0
 15 14  1  0  0  0  0
 16 17  1  0  0  0  0
 16 15  2  0  0  0  0
 17 12  2  0  0  0  0
 20 15  1  0  0  0  0
 21 16  1  0  0  0  0
 22  1  1  0  0  0  0
 22 23  1  0  0  0  0
 24 22  1  0  0  0  0
 25 22  1  0  0  0  0
 25 26  1  0  0  0  0
 26 27  1  0  0  0  0
 26 32  1  0  0  0  0
 27 33  1  0  0  0  0
 27 34  1  0  0  0  0
 28 36  1  0  0  0  0
 28 27  1  0  0  0  0
 29 30  2  0  0  0  0
 29 28  1  0  0  0  0
 30 25  1  0  0  0  0
 31 26  1  0  0  0  0
 35 28  1  0  0  0  0
 37 29  1  0  0  0  0
 38 30  1  0  0  0  0
 39 38  1  0  0  0  0
 40 41  1  0  0  0  0
 40 39  1  0  0  0  0
M  END
>  <minimizedAffinity>
-5.03270435

$$$$
