
 OpenBabel03252504233D

 26 28  0  0  0  0  0  0  0  0999 V2000
   38.9120   26.8000   42.7360 C   0  0  0  0  0  0  0  0  0  0  0  0
   38.0610   27.4020   43.6790 C   0  0  0  0  0  0  0  0  0  0  0  0
   37.7170   28.7540   43.5020 C   0  0  0  0  0  0  0  0  0  0  0  0
   38.2370   29.3970   42.4170 N   0  0  0  0  0  0  0  0  0  0  0  0
   39.0440   28.7840   41.5430 C   0  0  0  0  0  0  0  0  0  0  0  0
   39.3810   27.4970   41.6980 N   0  0  0  0  0  0  0  0  0  0  0  0
   39.5460   29.5350   40.4250 N   0  0  0  0  0  0  0  0  0  0  0  0
   40.8200   29.5310   39.9610 C   0  0  0  0  0  0  0  0  0  0  0  0
   40.8810   30.3680   38.8900 N   0  0  0  0  0  0  0  0  0  0  0  0
   39.6440   30.8690   38.7200 C   0  0  0  0  0  0  0  0  0  0  0  0
   39.0910   31.7490   37.8200 C   0  0  0  0  0  0  0  0  0  0  0  0
   37.8020   32.0940   37.8630 N   0  0  0  0  0  0  0  0  0  0  0  0
   36.9690   31.5990   38.7890 C   0  0  0  0  0  0  0  0  0  0  0  0
   37.5150   30.7370   39.6690 N   0  0  0  0  0  0  0  0  0  0  0  0
   38.8010   30.3570   39.6720 C   0  0  0  0  0  0  0  0  0  0  0  0
   37.6270   26.9580   44.5420 H   0  0  0  0  0  0  0  0  0  0  0  0
   37.0800   29.2630   44.1790 H   0  0  0  0  0  0  0  0  0  0  0  0
   41.5930   28.9330   40.4230 H   0  0  0  0  0  0  0  0  0  0  0  0
   35.9230   31.8650   38.8440 H   0  0  0  0  0  0  0  0  0  0  0  0
   39.8680   32.3320   36.7920 N   0  0  0  0  0  0  0  0  0  0  0  0
   40.1100   33.3380   36.6690 H   0  0  0  0  0  0  0  0  0  0  0  0
   40.2750   31.7110   36.0320 H   0  0  0  0  0  0  0  0  0  0  0  0
   39.2990   25.0630   43.0460 S   0  0  0  0  0  0  0  0  0  0  0  0
   38.4140   24.0400   41.8410 C   0  0  0  0  0  2  0  0  0  0  0  0
   36.9540   24.4050   41.7740 C   0  0  0  0  0  2  0  0  0  0  0  0
   36.7060   25.0830   42.6050 H   0  0  0  0  0  0  0  0  0  0  0  0
  1 23  1  0  0  0  0
  1  2  1  0  0  0  0
  2 16  1  0  0  0  0
  3  2  2  0  0  0  0
  3 17  1  0  0  0  0
  4  3  1  0  0  0  0
  5  6  1  0  0  0  0
  5  4  2  0  0  0  0
  6  1  2  0  0  0  0
  7  5  1  0  0  0  0
  8 18  1  0  0  0  0
  8  7  1  0  0  0  0
  9  8  2  0  0  0  0
 10  9  1  0  0  0  0
 10 15  1  0  0  0  0
 11 12  1  0  0  0  0
 11 10  2  0  0  0  0
 12 13  2  0  0  0  0
 13 19  1  0  0  0  0
 13 14  1  0  0  0  0
 14 15  2  0  0  0  0
 15  7  1  0  0  0  0
 20 11  1  0  0  0  0
 21 20  1  0  0  0  0
 22 20  1  0  0  0  0
 24 23  1  0  0  0  0
 25 24  1  0  0  0  0
 25 26  1  0  0  0  0
M  END
>  <minimizedAffinity>
-5.18292713

$$$$

 OpenBabel03252504233D

 26 28  0  0  0  0  0  0  0  0999 V2000
   37.4470   25.4890   40.9420 C   0  0  0  0  0  0  0  0  0  0  0  0
   36.8950   24.9010   39.7910 C   0  0  0  0  0  0  0  0  0  0  0  0
   36.2850   25.7370   38.8400 C   0  0  0  0  0  0  0  0  0  0  0  0
   36.2700   27.0770   39.0990 N   0  0  0  0  0  0  0  0  0  0  0  0
   36.8080   27.5950   40.2100 C   0  0  0  0  0  0  0  0  0  0  0  0
   37.3930   26.8110   41.1260 N   0  0  0  0  0  0  0  0  0  0  0  0
   36.7500   29.0170   40.4050 N   0  0  0  0  0  0  0  0  0  0  0  0
   36.4290   29.6590   41.5550 C   0  0  0  0  0  0  0  0  0  0  0  0
   36.4940   30.9980   41.3240 N   0  0  0  0  0  0  0  0  0  0  0  0
   36.8550   31.1500   40.0360 C   0  0  0  0  0  0  0  0  0  0  0  0
   37.0800   32.2450   39.2370 C   0  0  0  0  0  0  0  0  0  0  0  0
   37.4390   32.1280   37.9560 N   0  0  0  0  0  0  0  0  0  0  0  0
   37.6010   30.9320   37.3740 C   0  0  0  0  0  0  0  0  0  0  0  0
   37.3780   29.8620   38.1610 N   0  0  0  0  0  0  0  0  0  0  0  0
   37.0170   29.9210   39.4510 C   0  0  0  0  0  0  0  0  0  0  0  0
   36.8740   23.8700   39.5320 H   0  0  0  0  0  0  0  0  0  0  0  0
   35.8510   25.3530   37.9520 H   0  0  0  0  0  0  0  0  0  0  0  0
   36.1760   29.1190   42.4570 H   0  0  0  0  0  0  0  0  0  0  0  0
   37.8890   30.8140   36.3390 H   0  0  0  0  0  0  0  0  0  0  0  0
   36.9480   33.5610   39.7390 N   0  0  0  0  0  0  0  0  0  0  0  0
   36.2530   34.2840   39.4560 H   0  0  0  0  0  0  0  0  0  0  0  0
   37.6130   33.8970   40.4970 H   0  0  0  0  0  0  0  0  0  0  0  0
   38.2080   24.3370   42.1060 S   0  0  0  0  0  0  0  0  0  0  0  0
   39.8850   24.9070   42.4870 C   0  0  0  0  0  2  0  0  0  0  0  0
   39.8940   25.8440   43.6660 C   0  0  0  0  0  2  0  0  0  0  0  0
   38.8610   26.1260   43.9200 H   0  0  0  0  0  0  0  0  0  0  0  0
  1  6  1  0  0  0  0
  1 23  1  0  0  0  0
  2  1  2  0  0  0  0
  3  4  2  0  0  0  0
  3  2  1  0  0  0  0
  4  5  1  0  0  0  0
  5  7  1  0  0  0  0
  5  6  2  0  0  0  0
  7  8  1  0  0  0  0
  8 18  1  0  0  0  0
  9  8  2  0  0  0  0
 10  9  1  0  0  0  0
 11 20  1  0  0  0  0
 11 10  2  0  0  0  0
 12 11  1  0  0  0  0
 13 12  2  0  0  0  0
 13 14  1  0  0  0  0
 14 15  2  0  0  0  0
 15 10  1  0  0  0  0
 15  7  1  0  0  0  0
 16  2  1  0  0  0  0
 17  3  1  0  0  0  0
 19 13  1  0  0  0  0
 20 22  1  0  0  0  0
 21 20  1  0  0  0  0
 23 24  1  0  0  0  0
 24 25  1  0  0  0  0
 25 26  1  0  0  0  0
M  END
>  <minimizedAffinity>
-5.04513502

$$$$

 OpenBabel03252504233D

 26 28  0  0  0  0  0  0  0  0999 V2000
   36.4910   25.1880   39.6510 C   0  0  0  0  0  0  0  0  0  0  0  0
   35.9600   24.9140   38.3790 C   0  0  0  0  0  0  0  0  0  0  0  0
   35.5270   25.9930   37.5880 C   0  0  0  0  0  0  0  0  0  0  0  0
   35.6520   27.2460   38.1120 N   0  0  0  0  0  0  0  0  0  0  0  0
   36.1650   27.4620   39.3310 C   0  0  0  0  0  0  0  0  0  0  0  0
   36.5820   26.4450   40.0960 N   0  0  0  0  0  0  0  0  0  0  0  0
   36.2620   28.8140   39.8060 N   0  0  0  0  0  0  0  0  0  0  0  0
   35.9350   29.2560   41.0450 C   0  0  0  0  0  0  0  0  0  0  0  0
   36.1770   30.5940   41.0930 N   0  0  0  0  0  0  0  0  0  0  0  0
   36.6480   30.9460   39.8830 C   0  0  0  0  0  0  0  0  0  0  0  0
   37.0610   32.1360   39.3340 C   0  0  0  0  0  0  0  0  0  0  0  0
   37.4980   32.2240   38.0750 N   0  0  0  0  0  0  0  0  0  0  0  0
   37.5590   31.1540   37.2720 C   0  0  0  0  0  0  0  0  0  0  0  0
   37.1520   29.9900   37.8140 N   0  0  0  0  0  0  0  0  0  0  0  0
   36.7060   29.8440   39.0700 C   0  0  0  0  0  0  0  0  0  0  0  0
   35.8360   23.9650   37.9160 H   0  0  0  0  0  0  0  0  0  0  0  0
   35.1180   25.8490   36.6210 H   0  0  0  0  0  0  0  0  0  0  0  0
   35.5530   28.5890   41.8050 H   0  0  0  0  0  0  0  0  0  0  0  0
   37.9070   31.2020   36.2500 H   0  0  0  0  0  0  0  0  0  0  0  0
   37.0500   33.3340   40.0850 N   0  0  0  0  0  0  0  0  0  0  0  0
   36.4700   34.1840   39.9200 H   0  0  0  0  0  0  0  0  0  0  0  0
   37.6920   33.4260   40.9270 H   0  0  0  0  0  0  0  0  0  0  0  0
   37.0210   23.7420   40.5940 S   0  0  0  0  0  0  0  0  0  0  0  0
   37.7350   24.2930   42.1640 C   0  0  0  0  0  2  0  0  0  0  0  0
   39.2190   24.5260   42.0430 C   0  0  0  0  0  2  0  0  0  0  0  0
   39.5760   24.1310   41.0800 H   0  0  0  0  0  0  0  0  0  0  0  0
  1  6  1  0  0  0  0
  1 23  1  0  0  0  0
  2  1  2  0  0  0  0
  3  4  2  0  0  0  0
  3  2  1  0  0  0  0
  4  5  1  0  0  0  0
  5  7  1  0  0  0  0
  5  6  2  0  0  0  0
  7  8  1  0  0  0  0
  8  9  2  0  0  0  0
  8 18  1  0  0  0  0
 10  9  1  0  0  0  0
 11 10  1  0  0  0  0
 11 20  1  0  0  0  0
 12 11  2  0  0  0  0
 13 14  2  0  0  0  0
 13 12  1  0  0  0  0
 14 15  1  0  0  0  0
 15  7  1  0  0  0  0
 15 10  2  0  0  0  0
 16  2  1  0  0  0  0
 17  3  1  0  0  0  0
 19 13  1  0  0  0  0
 20 22  1  0  0  0  0
 21 20  1  0  0  0  0
 23 24  1  0  0  0  0
 25 24  1  0  0  0  0
 26 25  1  0  0  0  0
M  END
>  <minimizedAffinity>
-5.02022648

$$$$

 OpenBabel03252504233D

 26 28  0  0  0  0  0  0  0  0999 V2000
   38.5840   26.4030   42.5240 C   0  0  0  0  0  0  0  0  0  0  0  0
   37.2320   26.4130   42.9080 C   0  0  0  0  0  0  0  0  0  0  0  0
   36.5840   27.6540   43.0410 C   0  0  0  0  0  0  0  0  0  0  0  0
   37.3170   28.7760   42.7860 N   0  0  0  0  0  0  0  0  0  0  0  0
   38.6050   28.7200   42.4230 C   0  0  0  0  0  0  0  0  0  0  0  0
   39.2360   27.5450   42.2920 N   0  0  0  0  0  0  0  0  0  0  0  0
   39.3030   29.9500   42.1720 N   0  0  0  0  0  0  0  0  0  0  0  0
   40.5520   30.2660   42.5940 C   0  0  0  0  0  0  0  0  0  0  0  0
   40.8460   31.5150   42.1440 N   0  0  0  0  0  0  0  0  0  0  0  0
   39.7710   31.9410   41.4550 C   0  0  0  0  0  0  0  0  0  0  0  0
   39.4760   33.0990   40.7770 C   0  0  0  0  0  0  0  0  0  0  0  0
   38.3060   33.2820   40.1580 N   0  0  0  0  0  0  0  0  0  0  0  0
   37.3510   32.3430   40.1620 C   0  0  0  0  0  0  0  0  0  0  0  0
   37.6450   31.2090   40.8270 N   0  0  0  0  0  0  0  0  0  0  0  0
   38.8010   30.9730   41.4650 C   0  0  0  0  0  0  0  0  0  0  0  0
   36.6080   25.5780   43.1210 H   0  0  0  0  0  0  0  0  0  0  0  0
   35.5660   27.7260   43.3270 H   0  0  0  0  0  0  0  0  0  0  0  0
   41.1440   29.5800   43.1840 H   0  0  0  0  0  0  0  0  0  0  0  0
   36.3970   32.4700   39.6690 H   0  0  0  0  0  0  0  0  0  0  0  0
   40.4070   34.1610   40.6970 N   0  0  0  0  0  0  0  0  0  0  0  0
   40.3180   35.1180   41.1000 H   0  0  0  0  0  0  0  0  0  0  0  0
   41.3200   34.0130   40.1740 H   0  0  0  0  0  0  0  0  0  0  0  0
   39.3310   24.7650   42.3790 S   0  0  0  0  0  0  0  0  0  0  0  0
   38.9290   24.0770   40.7530 C   0  0  0  0  0  2  0  0  0  0  0  0
   37.6430   23.2940   40.7880 C   0  0  0  0  0  2  0  0  0  0  0  0
   37.3270   23.1520   41.8330 H   0  0  0  0  0  0  0  0  0  0  0  0
  1  2  1  0  0  0  0
  2  3  2  0  0  0  0
  2 16  1  0  0  0  0
  3 17  1  0  0  0  0
  4  3  1  0  0  0  0
  5  4  2  0  0  0  0
  6  5  1  0  0  0  0
  6  1  2  0  0  0  0
  7  5  1  0  0  0  0
  7  8  1  0  0  0  0
  8 18  1  0  0  0  0
  9  8  2  0  0  0  0
 10 15  1  0  0  0  0
 10  9  1  0  0  0  0
 11 10  2  0  0  0  0
 12 13  2  0  0  0  0
 12 11  1  0  0  0  0
 13 14  1  0  0  0  0
 14 15  2  0  0  0  0
 15  7  1  0  0  0  0
 19 13  1  0  0  0  0
 20 11  1  0  0  0  0
 20 21  1  0  0  0  0
 22 20  1  0  0  0  0
 23  1  1  0  0  0  0
 24 25  1  0  0  0  0
 24 23  1  0  0  0  0
 25 26  1  0  0  0  0
M  END
>  <minimizedAffinity>
-4.90558815

$$$$

 OpenBabel03252504233D

 26 28  0  0  0  0  0  0  0  0999 V2000
   39.8460   27.8090   42.9040 C   0  0  0  0  0  0  0  0  0  0  0  0
   38.5930   27.4970   43.4580 C   0  0  0  0  0  0  0  0  0  0  0  0
   37.4480   28.0990   42.9040 C   0  0  0  0  0  0  0  0  0  0  0  0
   37.6330   28.9530   41.8560 N   0  0  0  0  0  0  0  0  0  0  0  0
   38.8470   29.2220   41.3600 C   0  0  0  0  0  0  0  0  0  0  0  0
   39.9460   28.6570   41.8760 N   0  0  0  0  0  0  0  0  0  0  0  0
   38.9520   30.1320   40.2530 N   0  0  0  0  0  0  0  0  0  0  0  0
   39.8590   31.1310   40.1170 C   0  0  0  0  0  0  0  0  0  0  0  0
   39.6250   31.7550   38.9310 N   0  0  0  0  0  0  0  0  0  0  0  0
   38.5790   31.1260   38.3640 C   0  0  0  0  0  0  0  0  0  0  0  0
   37.8940   31.2970   37.1840 C   0  0  0  0  0  0  0  0  0  0  0  0
   36.8630   30.5210   36.8420 N   0  0  0  0  0  0  0  0  0  0  0  0
   36.4350   29.5260   37.6310 C   0  0  0  0  0  0  0  0  0  0  0  0
   37.1090   29.3630   38.7860 N   0  0  0  0  0  0  0  0  0  0  0  0
   38.1490   30.1120   39.1790 C   0  0  0  0  0  0  0  0  0  0  0  0
   38.3830   26.8450   44.2700 H   0  0  0  0  0  0  0  0  0  0  0  0
   36.4760   27.9040   43.2780 H   0  0  0  0  0  0  0  0  0  0  0  0
   40.6070   31.3270   40.8720 H   0  0  0  0  0  0  0  0  0  0  0  0
   35.6020   28.8870   37.3750 H   0  0  0  0  0  0  0  0  0  0  0  0
   38.2570   32.3090   36.2650 N   0  0  0  0  0  0  0  0  0  0  0  0
   37.6970   33.1410   35.9790 H   0  0  0  0  0  0  0  0  0  0  0  0
   39.2020   32.2590   35.7830 H   0  0  0  0  0  0  0  0  0  0  0  0
   41.2560   26.9900   43.6800 S   0  0  0  0  0  0  0  0  0  0  0  0
   41.4590   25.3470   42.9460 C   0  0  0  0  0  2  0  0  0  0  0  0
   42.0730   25.4280   41.5730 C   0  0  0  0  0  2  0  0  0  0  0  0
   42.0900   26.4770   41.2390 H   0  0  0  0  0  0  0  0  0  0  0  0
  1  2  1  0  0  0  0
  1 23  1  0  0  0  0
  2 16  1  0  0  0  0
  3 17  1  0  0  0  0
  3  2  2  0  0  0  0
  4  3  1  0  0  0  0
  5  4  2  0  0  0  0
  5  6  1  0  0  0  0
  6  1  2  0  0  0  0
  7  5  1  0  0  0  0
  8  7  1  0  0  0  0
  8 18  1  0  0  0  0
  9  8  2  0  0  0  0
 10  9  1  0  0  0  0
 10 15  1  0  0  0  0
 11 10  2  0  0  0  0
 12 11  1  0  0  0  0
 12 13  2  0  0  0  0
 13 14  1  0  0  0  0
 14 15  2  0  0  0  0
 15  7  1  0  0  0  0
 19 13  1  0  0  0  0
 20 11  1  0  0  0  0
 21 20  1  0  0  0  0
 22 20  1  0  0  0  0
 24 23  1  0  0  0  0
 25 24  1  0  0  0  0
 26 25  1  0  0  0  0
M  END
>  <minimizedAffinity>
-4.72608185

$$$$

 OpenBabel03252504233D

 26 28  0  0  0  0  0  0  0  0999 V2000
   38.2640   31.2350   40.5000 C   0  0  0  0  0  0  0  0  0  0  0  0
   39.1850   32.0460   41.1840 C   0  0  0  0  0  0  0  0  0  0  0  0
   39.9540   31.4680   42.2100 C   0  0  0  0  0  0  0  0  0  0  0  0
   39.7520   30.1440   42.4750 N   0  0  0  0  0  0  0  0  0  0  0  0
   38.8630   29.4080   41.7980 C   0  0  0  0  0  0  0  0  0  0  0  0
   38.1230   29.9450   40.8180 N   0  0  0  0  0  0  0  0  0  0  0  0
   38.7150   28.0210   42.1400 N   0  0  0  0  0  0  0  0  0  0  0  0
   37.5460   27.3480   42.2840 C   0  0  0  0  0  0  0  0  0  0  0  0
   37.8380   26.0590   42.6060 N   0  0  0  0  0  0  0  0  0  0  0  0
   39.1800   25.9670   42.6530 C   0  0  0  0  0  0  0  0  0  0  0  0
   40.0510   24.9380   42.9200 C   0  0  0  0  0  0  0  0  0  0  0  0
   41.3760   25.1070   42.9030 N   0  0  0  0  0  0  0  0  0  0  0  0
   41.9330   26.2930   42.6220 C   0  0  0  0  0  0  0  0  0  0  0  0
   41.0750   27.2980   42.3610 N   0  0  0  0  0  0  0  0  0  0  0  0
   39.7390   27.1840   42.3640 C   0  0  0  0  0  0  0  0  0  0  0  0
   39.3870   33.0780   41.0270 H   0  0  0  0  0  0  0  0  0  0  0  0
   40.6640   32.0280   42.7620 H   0  0  0  0  0  0  0  0  0  0  0  0
   36.5900   27.8330   42.1470 H   0  0  0  0  0  0  0  0  0  0  0  0
   43.0020   26.4530   42.6030 H   0  0  0  0  0  0  0  0  0  0  0  0
   39.5830   23.6390   43.2230 N   0  0  0  0  0  0  0  0  0  0  0  0
   39.6840   23.1180   44.1210 H   0  0  0  0  0  0  0  0  0  0  0  0
   39.0610   23.0880   42.4800 H   0  0  0  0  0  0  0  0  0  0  0  0
   37.3230   32.0640   39.2010 S   0  0  0  0  0  0  0  0  0  0  0  0
   37.8690   31.4410   37.5900 C   0  0  0  0  0  2  0  0  0  0  0  0
   36.9940   30.3130   37.1090 C   0  0  0  0  0  2  0  0  0  0  0  0
   36.3300   29.9890   37.9260 H   0  0  0  0  0  0  0  0  0  0  0  0
  1  6  2  0  0  0  0
  1  2  1  0  0  0  0
  2  3  2  0  0  0  0
  3  4  1  0  0  0  0
  3 17  1  0  0  0  0
  5  7  1  0  0  0  0
  5  4  2  0  0  0  0
  6  5  1  0  0  0  0
  7  8  1  0  0  0  0
  7 15  1  0  0  0  0
  8  9  2  0  0  0  0
  9 10  1  0  0  0  0
 10 11  1  0  0  0  0
 11 20  1  0  0  0  0
 12 11  2  0  0  0  0
 13 12  1  0  0  0  0
 14 15  1  0  0  0  0
 14 13  2  0  0  0  0
 15 10  2  0  0  0  0
 16  2  1  0  0  0  0
 18  8  1  0  0  0  0
 19 13  1  0  0  0  0
 20 21  1  0  0  0  0
 22 20  1  0  0  0  0
 23  1  1  0  0  0  0
 24 23  1  0  0  0  0
 25 24  1  0  0  0  0
 25 26  1  0  0  0  0
M  END
>  <minimizedAffinity>
-4.67614079

$$$$

 OpenBabel03252504233D

 26 28  0  0  0  0  0  0  0  0999 V2000
   37.4260   30.6520   39.2020 C   0  0  0  0  0  0  0  0  0  0  0  0
   36.8280   30.2050   38.0110 C   0  0  0  0  0  0  0  0  0  0  0  0
   36.8840   28.8330   37.7080 C   0  0  0  0  0  0  0  0  0  0  0  0
   37.5200   28.0190   38.6000 N   0  0  0  0  0  0  0  0  0  0  0  0
   38.0760   28.4880   39.7240 C   0  0  0  0  0  0  0  0  0  0  0  0
   38.0320   29.7920   40.0260 N   0  0  0  0  0  0  0  0  0  0  0  0
   38.7250   27.5600   40.6080 N   0  0  0  0  0  0  0  0  0  0  0  0
   39.9220   27.7370   41.2210 C   0  0  0  0  0  0  0  0  0  0  0  0
   40.1770   26.6330   41.9750 N   0  0  0  0  0  0  0  0  0  0  0  0
   39.1320   25.8020   41.8090 C   0  0  0  0  0  0  0  0  0  0  0  0
   38.8200   24.5590   42.3050 C   0  0  0  0  0  0  0  0  0  0  0  0
   37.6890   23.9270   41.9790 N   0  0  0  0  0  0  0  0  0  0  0  0
   36.7900   24.4720   41.1490 C   0  0  0  0  0  0  0  0  0  0  0  0
   37.0990   25.6900   40.6660 N   0  0  0  0  0  0  0  0  0  0  0  0
   38.2190   26.3690   40.9580 C   0  0  0  0  0  0  0  0  0  0  0  0
   36.3210   30.7860   37.2790 H   0  0  0  0  0  0  0  0  0  0  0  0
   36.4520   28.4360   36.8260 H   0  0  0  0  0  0  0  0  0  0  0  0
   40.5080   28.6340   41.0790 H   0  0  0  0  0  0  0  0  0  0  0  0
   35.8690   23.9790   40.8710 H   0  0  0  0  0  0  0  0  0  0  0  0
   39.6870   23.8850   43.1960 N   0  0  0  0  0  0  0  0  0  0  0  0
   40.2050   22.9960   43.0300 H   0  0  0  0  0  0  0  0  0  0  0  0
   39.8630   24.2950   44.1600 H   0  0  0  0  0  0  0  0  0  0  0  0
   37.3050   32.4280   39.5060 S   0  0  0  0  0  0  0  0  0  0  0  0
   38.5670   32.9050   40.7150 C   0  0  0  0  0  2  0  0  0  0  0  0
   39.4840   33.9650   40.1650 C   0  0  0  0  0  2  0  0  0  0  0  0
   39.3060   34.0830   39.0850 H   0  0  0  0  0  0  0  0  0  0  0  0
  1 23  1  0  0  0  0
  1  6  1  0  0  0  0
  2  1  2  0  0  0  0
  3  2  1  0  0  0  0
  3  4  2  0  0  0  0
  4  5  1  0  0  0  0
  5  6  2  0  0  0  0
  5  7  1  0  0  0  0
  7 15  1  0  0  0  0
  7  8  1  0  0  0  0
  8  9  2  0  0  0  0
 10  9  1  0  0  0  0
 10 11  1  0  0  0  0
 11 20  1  0  0  0  0
 12 11  2  0  0  0  0
 13 12  1  0  0  0  0
 14 15  1  0  0  0  0
 14 13  2  0  0  0  0
 15 10  2  0  0  0  0
 16  2  1  0  0  0  0
 17  3  1  0  0  0  0
 18  8  1  0  0  0  0
 19 13  1  0  0  0  0
 20 22  1  0  0  0  0
 21 20  1  0  0  0  0
 23 24  1  0  0  0  0
 25 24  1  0  0  0  0
 26 25  1  0  0  0  0
M  END
>  <minimizedAffinity>
-4.60225582

$$$$

 OpenBabel03252504233D

 26 28  0  0  0  0  0  0  0  0999 V2000
   39.0460   27.3890   42.5570 C   0  0  0  0  0  0  0  0  0  0  0  0
   38.3390   28.3640   43.2820 C   0  0  0  0  0  0  0  0  0  0  0  0
   37.6870   29.3860   42.5680 C   0  0  0  0  0  0  0  0  0  0  0  0
   37.7850   29.3630   41.2080 N   0  0  0  0  0  0  0  0  0  0  0  0
   38.4690   28.4130   40.5570 C   0  0  0  0  0  0  0  0  0  0  0  0
   39.0950   27.4340   41.2230 N   0  0  0  0  0  0  0  0  0  0  0  0
   38.5200   28.4620   39.1220 N   0  0  0  0  0  0  0  0  0  0  0  0
   39.6170   28.2690   38.3490 C   0  0  0  0  0  0  0  0  0  0  0  0
   39.2430   28.3940   37.0480 N   0  0  0  0  0  0  0  0  0  0  0  0
   37.9240   28.6620   37.0480 C   0  0  0  0  0  0  0  0  0  0  0  0
   37.0000   28.8850   36.0550 C   0  0  0  0  0  0  0  0  0  0  0  0
   35.7160   29.1360   36.3230 N   0  0  0  0  0  0  0  0  0  0  0  0
   35.2520   29.1830   37.5790 C   0  0  0  0  0  0  0  0  0  0  0  0
   36.1610   28.9630   38.5480 N   0  0  0  0  0  0  0  0  0  0  0  0
   37.4600   28.7070   38.3370 C   0  0  0  0  0  0  0  0  0  0  0  0
   38.2270   28.4390   44.3360 H   0  0  0  0  0  0  0  0  0  0  0  0
   37.1390   30.1490   43.0580 H   0  0  0  0  0  0  0  0  0  0  0  0
   40.5860   28.0550   38.7790 H   0  0  0  0  0  0  0  0  0  0  0  0
   34.2180   29.3850   37.8180 H   0  0  0  0  0  0  0  0  0  0  0  0
   37.3680   28.8550   34.6900 N   0  0  0  0  0  0  0  0  0  0  0  0
   37.3570   29.6450   34.0100 H   0  0  0  0  0  0  0  0  0  0  0  0
   37.7010   27.9420   34.2620 H   0  0  0  0  0  0  0  0  0  0  0  0
   39.8500   26.1180   43.5560 S   0  0  0  0  0  0  0  0  0  0  0  0
   39.6210   24.5090   42.7580 C   0  0  0  0  0  2  0  0  0  0  0  0
   38.1850   24.2920   42.3570 C   0  0  0  0  0  2  0  0  0  0  0  0
   37.5550   25.0770   42.8050 H   0  0  0  0  0  0  0  0  0  0  0  0
  1  2  1  0  0  0  0
  1 23  1  0  0  0  0
  2 16  1  0  0  0  0
  3 17  1  0  0  0  0
  3  2  2  0  0  0  0
  4  3  1  0  0  0  0
  5  4  2  0  0  0  0
  5  6  1  0  0  0  0
  6  1  2  0  0  0  0
  7  5  1  0  0  0  0
  8 18  1  0  0  0  0
  8  7  1  0  0  0  0
  9 10  1  0  0  0  0
  9  8  2  0  0  0  0
 10 15  1  0  0  0  0
 11 12  1  0  0  0  0
 11 10  2  0  0  0  0
 12 13  2  0  0  0  0
 13 19  1  0  0  0  0
 13 14  1  0  0  0  0
 15 14  2  0  0  0  0
 15  7  1  0  0  0  0
 20 11  1  0  0  0  0
 21 20  1  0  0  0  0
 22 20  1  0  0  0  0
 24 23  1  0  0  0  0
 25 24  1  0  0  0  0
 25 26  1  0  0  0  0
M  END
>  <minimizedAffinity>
-4.5625844

$$$$

 OpenBabel03252504233D

 26 28  0  0  0  0  0  0  0  0999 V2000
   37.2500   30.0810   38.5230 C   0  0  0  0  0  0  0  0  0  0  0  0
   36.9490   31.1020   39.4410 C   0  0  0  0  0  0  0  0  0  0  0  0
   36.9640   30.7950   40.8130 C   0  0  0  0  0  0  0  0  0  0  0  0
   37.2740   29.5130   41.1660 N   0  0  0  0  0  0  0  0  0  0  0  0
   37.5550   28.5710   40.2570 C   0  0  0  0  0  0  0  0  0  0  0  0
   37.5440   28.8490   38.9470 N   0  0  0  0  0  0  0  0  0  0  0  0
   37.8720   27.2470   40.7150 N   0  0  0  0  0  0  0  0  0  0  0  0
   37.4070   26.0840   40.1950 C   0  0  0  0  0  0  0  0  0  0  0  0
   37.9480   25.0580   40.9070 N   0  0  0  0  0  0  0  0  0  0  0  0
   38.7350   25.6130   41.8480 C   0  0  0  0  0  0  0  0  0  0  0  0
   39.5280   25.0990   42.8450 C   0  0  0  0  0  0  0  0  0  0  0  0
   40.2290   25.8820   43.6710 N   0  0  0  0  0  0  0  0  0  0  0  0
   40.1980   27.2180   43.5730 C   0  0  0  0  0  0  0  0  0  0  0  0
   39.4190   27.7170   42.5940 N   0  0  0  0  0  0  0  0  0  0  0  0
   38.6960   26.9790   41.7390 C   0  0  0  0  0  0  0  0  0  0  0  0
   36.7000   32.1140   39.2310 H   0  0  0  0  0  0  0  0  0  0  0  0
   36.7460   31.5220   41.5530 H   0  0  0  0  0  0  0  0  0  0  0  0
   36.7250   26.0670   39.3570 H   0  0  0  0  0  0  0  0  0  0  0  0
   40.7550   27.8700   44.2300 H   0  0  0  0  0  0  0  0  0  0  0  0
   39.6480   23.7040   43.0430 N   0  0  0  0  0  0  0  0  0  0  0  0
   39.3370   23.1490   43.8690 H   0  0  0  0  0  0  0  0  0  0  0  0
   40.1000   23.1090   42.2890 H   0  0  0  0  0  0  0  0  0  0  0  0
   37.2050   30.5690   36.7860 S   0  0  0  0  0  0  0  0  0  0  0  0
   36.6350   29.1640   35.7940 C   0  0  0  0  0  2  0  0  0  0  0  0
   35.1970   28.8270   36.0910 C   0  0  0  0  0  2  0  0  0  0  0  0
   34.8640   29.3850   36.9800 H   0  0  0  0  0  0  0  0  0  0  0  0
  1  6  2  0  0  0  0
  1  2  1  0  0  0  0
  2  3  2  0  0  0  0
  3  4  1  0  0  0  0
  3 17  1  0  0  0  0
  5  7  1  0  0  0  0
  5  4  2  0  0  0  0
  6  5  1  0  0  0  0
  7 15  1  0  0  0  0
  8  7  1  0  0  0  0
  8  9  2  0  0  0  0
  9 10  1  0  0  0  0
 10 11  1  0  0  0  0
 11 20  1  0  0  0  0
 11 12  2  0  0  0  0
 13 12  1  0  0  0  0
 13 19  1  0  0  0  0
 14 13  2  0  0  0  0
 15 10  2  0  0  0  0
 15 14  1  0  0  0  0
 16  2  1  0  0  0  0
 18  8  1  0  0  0  0
 20 21  1  0  0  0  0
 22 20  1  0  0  0  0
 23  1  1  0  0  0  0
 24 25  1  0  0  0  0
 24 23  1  0  0  0  0
 25 26  1  0  0  0  0
M  END
>  <minimizedAffinity>
-4.52813625

$$$$
