
 OpenBabel03252509123D

 26 28  0  0  0  0  0  0  0  0999 V2000
   46.4950   30.5450   44.0660 C   0  0  0  0  0  0  0  0  0  0  0  0
   45.8980   31.8030   43.9170 C   0  0  0  0  0  0  0  0  0  0  0  0
   45.9460   32.7780   44.9000 C   0  0  0  0  0  0  0  0  0  0  0  0
   46.6150   32.5100   46.1000 C   0  0  0  0  0  0  0  0  0  0  0  0
   46.8650   33.1820   47.2450 N   0  0  0  0  0  0  0  0  0  0  0  0
   47.5770   32.4140   48.0840 C   0  0  0  0  0  0  0  0  0  0  0  0
   47.7670   31.2430   47.4350 N   0  0  0  0  0  0  0  0  0  0  0  0
   47.1870   31.2730   46.2140 C   0  0  0  0  0  0  0  0  0  0  0  0
   47.1640   30.2790   45.2670 C   0  0  0  0  0  0  0  0  0  0  0  0
   46.4090   29.8340   43.2430 H   0  0  0  0  0  0  0  0  0  0  0  0
   46.5040   34.1590   47.3500 H   0  0  0  0  0  0  0  0  0  0  0  0
   47.9160   32.7010   49.0700 H   0  0  0  0  0  0  0  0  0  0  0  0
   47.6210   29.3060   45.3680 H   0  0  0  0  0  0  0  0  0  0  0  0
   43.1800   32.3900   41.5230 C   0  0  0  0  0  0  0  0  0  0  0  0
   43.8610   32.6750   40.3420 C   0  0  0  0  0  0  0  0  0  0  0  0
   45.2500   32.6610   40.3880 C   0  0  0  0  0  0  0  0  0  0  0  0
   45.8970   32.3720   41.5690 N   0  0  0  0  0  0  0  0  0  0  0  0
   45.1910   32.1040   42.6830 C   0  0  0  0  0  0  0  0  0  0  0  0
   43.8350   32.1110   42.6720 N   0  0  0  0  0  0  0  0  0  0  0  0
   42.0880   32.3820   41.5690 H   0  0  0  0  0  0  0  0  0  0  0  0
   43.3050   32.8960   39.4370 H   0  0  0  0  0  0  0  0  0  0  0  0
   45.7660   32.8830   39.4670 H   0  0  0  0  0  0  0  0  0  0  0  0
   45.1900   34.3760   44.7010 S   0  0  0  0  0  0  0  0  0  0  0  0
   45.9900   35.1900   43.3030 C   0  0  0  0  0  2  0  0  0  0  0  0
   44.9110   35.8280   42.4460 C   0  0  0  0  0  2  0  0  0  0  0  0
   44.2650   35.0380   42.0050 H   0  0  0  0  0  0  0  0  0  0  0  0
  1  9  1  0  0  0  0
  2  1  2  0  0  0  0
  2  3  1  0  0  0  0
  3  4  2  0  0  0  0
  4  8  1  0  0  0  0
  4  5  1  0  0  0  0
  5 11  1  0  0  0  0
  5  6  1  0  0  0  0
  6 12  1  0  0  0  0
  7  6  2  0  0  0  0
  8  7  1  0  0  0  0
  9 13  1  0  0  0  0
  9  8  2  0  0  0  0
 10  1  1  0  0  0  0
 14 20  1  0  0  0  0
 14 19  1  0  0  0  0
 15 16  1  0  0  0  0
 15 14  2  0  0  0  0
 16 17  2  0  0  0  0
 17 18  1  0  0  0  0
 18  2  1  0  0  0  0
 19 18  2  0  0  0  0
 21 15  1  0  0  0  0
 22 16  1  0  0  0  0
 23  3  1  0  0  0  0
 24 23  1  0  0  0  0
 25 24  1  0  0  0  0
 26 25  1  0  0  0  0
M  END
>  <minimizedAffinity>
-3.84170961

>  <minimizedRMSD>
2.45703459

$$$$
