
 OpenBabel03242522443D

 41 43  0  0  0  0  0  0  0  0999 V2000
   36.5810   27.5460   42.7230 C   0  0  0  0  0  0  0  0  0  0  0  0
   36.1230   27.9090   43.6890 H   0  0  0  0  0  0  0  0  0  0  0  0
   35.7530   26.9050   42.3310 H   0  0  0  0  0  0  0  0  0  0  0  0
   35.8960   29.0690   40.9000 C   0  0  0  0  0  0  0  0  0  0  0  0
   36.7970   28.7580   41.9440 C   0  0  0  0  0  0  0  0  0  0  0  0
   37.8240   29.6510   42.1970 C   0  0  0  0  0  0  0  0  0  0  0  0
   37.9100   30.7670   41.4390 N   0  0  0  0  0  0  0  0  0  0  0  0
   37.0440   31.0330   40.4660 C   0  0  0  0  0  0  0  0  0  0  0  0
   36.0220   30.1940   40.1750 N   0  0  0  0  0  0  0  0  0  0  0  0
   35.0470   28.5180   40.5390 H   0  0  0  0  0  0  0  0  0  0  0  0
   38.5020   29.4000   42.9920 H   0  0  0  0  0  0  0  0  0  0  0  0
   37.2120   32.3030   39.6770 C   0  0  0  0  0  0  0  0  0  0  0  0
   37.4190   33.1400   40.3740 H   0  0  0  0  0  0  0  0  0  0  0  0
   36.2160   32.5490   39.2220 H   0  0  0  0  0  0  0  0  0  0  0  0
   38.2880   32.2390   38.6920 C   0  0  0  0  0  0  0  0  0  0  0  0
   39.6290   32.5010   38.9460 C   0  0  0  0  0  0  0  0  0  0  0  0
   40.3280   32.3400   37.7810 C   0  0  0  0  0  0  0  0  0  0  0  0
   39.3930   31.9840   36.8530 N   0  0  0  0  0  0  0  0  0  0  0  0
   38.1730   31.9220   37.3890 N   0  0  0  0  0  0  0  0  0  0  0  0
   40.0250   32.7810   39.9040 H   0  0  0  0  0  0  0  0  0  0  0  0
   41.3850   32.4550   37.5820 H   0  0  0  0  0  0  0  0  0  0  0  0
   39.6170   31.7850   35.8390 H   0  0  0  0  0  0  0  0  0  0  0  0
   37.8950   26.8510   42.8780 C   0  0  0  0  0  0  0  0  0  0  0  0
   38.7470   27.5050   42.7090 H   0  0  0  0  0  0  0  0  0  0  0  0
   37.7960   26.4220   43.8960 H   0  0  0  0  0  0  0  0  0  0  0  0
   39.3090   25.5420   41.3910 C   0  0  0  0  0  0  0  0  0  0  0  0
   38.0920   25.6610   42.0300 C   0  0  0  0  0  0  0  0  0  0  0  0
   37.0880   24.7730   41.9440 C   0  0  0  0  0  0  0  0  0  0  0  0
   37.2680   23.6610   41.1690 C   0  0  0  0  0  0  0  0  0  0  0  0
   38.4300   23.4410   40.4950 C   0  0  0  0  0  0  0  0  0  0  0  0
   39.4280   24.3960   40.6260 C   0  0  0  0  0  0  0  0  0  0  0  0
   36.1360   24.7530   42.3940 H   0  0  0  0  0  0  0  0  0  0  0  0
   36.5340   22.8640   41.0110 H   0  0  0  0  0  0  0  0  0  0  0  0
   38.6250   22.5670   39.8620 H   0  0  0  0  0  0  0  0  0  0  0  0
   40.3620   24.1960   40.0720 H   0  0  0  0  0  0  0  0  0  0  0  0
   40.6100   26.6380   41.3630 S   0  0  0  0  0  0  0  0  0  0  0  0
   40.3360   27.8730   40.5410 O   0  0  0  0  0  0  0  0  0  0  0  0
   41.7790   25.9470   40.6200 O   0  0  0  0  0  0  0  0  0  0  0  0
   41.4120   27.1820   42.7790 C   0  0  0  0  0  2  0  0  0  0  0  0
   41.6390   25.9020   43.6410 C   0  0  0  0  0  2  0  0  0  0  0  0
   41.9540   25.0930   42.9210 H   0  0  0  0  0  0  0  0  0  0  0  0
  1 23  1  0  0  0  0
  1  2  1  0  0  0  0
  3  1  1  0  0  0  0
  4  5  1  0  0  0  0
  5  6  2  0  0  0  0
  5  1  1  0  0  0  0
  6 11  1  0  0  0  0
  7  6  1  0  0  0  0
  8  7  2  0  0  0  0
  9  8  1  0  0  0  0
  9  4  2  0  0  0  0
 10  4  1  0  0  0  0
 12 13  1  0  0  0  0
 12  8  1  0  0  0  0
 14 12  1  0  0  0  0
 15 16  1  0  0  0  0
 15 12  1  0  0  0  0
 16 20  1  0  0  0  0
 17 16  2  0  0  0  0
 18 19  1  0  0  0  0
 18 17  1  0  0  0  0
 19 15  2  0  0  0  0
 21 17  1  0  0  0  0
 22 18  1  0  0  0  0
 23 25  1  0  0  0  0
 24 23  1  0  0  0  0
 26 27  1  0  0  0  0
 27 23  1  0  0  0  0
 28 27  2  0  0  0  0
 28 32  1  0  0  0  0
 29 28  1  0  0  0  0
 30 31  1  0  0  0  0
 30 29  2  0  0  0  0
 31 26  2  0  0  0  0
 33 29  1  0  0  0  0
 34 30  1  0  0  0  0
 35 31  1  0  0  0  0
 36 26  1  0  0  0  0
 36 39  1  0  0  0  0
 37 36  2  0  0  0  0
 38 36  2  0  0  0  0
 39 40  1  0  0  0  0
 41 40  1  0  0  0  0
M  END
>  <minimizedAffinity>
-5.50691271

$$$$

 OpenBabel03242522443D

 41 43  0  0  0  0  0  0  0  0999 V2000
   35.7300   28.0750   38.6540 C   0  0  0  0  0  0  0  0  0  0  0  0
   34.9000   27.9110   39.4010 H   0  0  0  0  0  0  0  0  0  0  0  0
   35.1650   27.9790   37.6940 H   0  0  0  0  0  0  0  0  0  0  0  0
   35.9480   30.0000   40.1900 C   0  0  0  0  0  0  0  0  0  0  0  0
   36.1970   29.4290   38.9210 C   0  0  0  0  0  0  0  0  0  0  0  0
   36.9130   30.1810   38.0060 C   0  0  0  0  0  0  0  0  0  0  0  0
   37.3350   31.4120   38.3700 N   0  0  0  0  0  0  0  0  0  0  0  0
   37.0880   31.9200   39.5730 C   0  0  0  0  0  0  0  0  0  0  0  0
   36.3920   31.2300   40.5070 N   0  0  0  0  0  0  0  0  0  0  0  0
   35.4150   29.5980   41.0310 H   0  0  0  0  0  0  0  0  0  0  0  0
   37.0920   29.7350   37.0440 H   0  0  0  0  0  0  0  0  0  0  0  0
   37.6020   33.2960   39.8950 C   0  0  0  0  0  0  0  0  0  0  0  0
   36.9920   33.7320   40.7120 H   0  0  0  0  0  0  0  0  0  0  0  0
   37.3950   33.9490   39.0050 H   0  0  0  0  0  0  0  0  0  0  0  0
   39.0050   33.3150   40.3010 C   0  0  0  0  0  0  0  0  0  0  0  0
   39.9800   34.1590   39.7860 C   0  0  0  0  0  0  0  0  0  0  0  0
   41.1660   33.8800   40.4100 C   0  0  0  0  0  0  0  0  0  0  0  0
   40.8770   32.8740   41.2860 N   0  0  0  0  0  0  0  0  0  0  0  0
   39.5890   32.5320   41.2260 N   0  0  0  0  0  0  0  0  0  0  0  0
   39.8090   34.9000   39.0270 H   0  0  0  0  0  0  0  0  0  0  0  0
   42.1430   34.3240   40.2790 H   0  0  0  0  0  0  0  0  0  0  0  0
   41.5900   32.4290   41.9260 H   0  0  0  0  0  0  0  0  0  0  0  0
   36.8910   27.1460   38.7970 C   0  0  0  0  0  0  0  0  0  0  0  0
   37.4610   27.0290   37.8780 H   0  0  0  0  0  0  0  0  0  0  0  0
   37.4280   27.5970   39.6570 H   0  0  0  0  0  0  0  0  0  0  0  0
   37.1360   25.3960   40.4710 C   0  0  0  0  0  0  0  0  0  0  0  0
   36.5700   25.7890   39.2760 C   0  0  0  0  0  0  0  0  0  0  0  0
   35.7450   25.0350   38.5310 C   0  0  0  0  0  0  0  0  0  0  0  0
   35.4320   23.7800   38.9750 C   0  0  0  0  0  0  0  0  0  0  0  0
   35.9320   23.2900   40.1420 C   0  0  0  0  0  0  0  0  0  0  0  0
   36.7790   24.1200   40.8650 C   0  0  0  0  0  0  0  0  0  0  0  0
   35.2490   25.2350   37.6230 H   0  0  0  0  0  0  0  0  0  0  0  0
   34.7780   23.0640   38.4660 H   0  0  0  0  0  0  0  0  0  0  0  0
   35.7140   22.2930   40.5430 H   0  0  0  0  0  0  0  0  0  0  0  0
   37.1710   23.7020   41.8090 H   0  0  0  0  0  0  0  0  0  0  0  0
   38.2500   26.2310   41.4490 S   0  0  0  0  0  0  0  0  0  0  0  0
   39.5870   26.4460   40.7840 O   0  0  0  0  0  0  0  0  0  0  0  0
   38.5750   25.3220   42.6580 O   0  0  0  0  0  0  0  0  0  0  0  0
   37.8800   27.7020   42.2500 C   0  0  0  0  0  2  0  0  0  0  0  0
   36.5970   27.4050   43.0860 C   0  0  0  0  0  2  0  0  0  0  0  0
   36.7460   26.3800   43.5310 H   0  0  0  0  0  0  0  0  0  0  0  0
  1 23  1  0  0  0  0
  1  5  1  0  0  0  0
  1  2  1  0  0  0  0
  3  1  1  0  0  0  0
  4  9  1  0  0  0  0
  4 10  1  0  0  0  0
  5  4  2  0  0  0  0
  6  7  2  0  0  0  0
  6  5  1  0  0  0  0
  7  8  1  0  0  0  0
  8 12  1  0  0  0  0
  8  9  2  0  0  0  0
 11  6  1  0  0  0  0
 12 15  1  0  0  0  0
 12 13  1  0  0  0  0
 14 12  1  0  0  0  0
 15 19  2  0  0  0  0
 16 15  1  0  0  0  0
 16 17  2  0  0  0  0
 17 18  1  0  0  0  0
 18 22  1  0  0  0  0
 19 18  1  0  0  0  0
 20 16  1  0  0  0  0
 21 17  1  0  0  0  0
 23 27  1  0  0  0  0
 23 25  1  0  0  0  0
 24 23  1  0  0  0  0
 26 31  1  0  0  0  0
 26 36  1  0  0  0  0
 27 26  2  0  0  0  0
 28 29  2  0  0  0  0
 28 27  1  0  0  0  0
 29 30  1  0  0  0  0
 30 34  1  0  0  0  0
 30 31  2  0  0  0  0
 31 35  1  0  0  0  0
 32 28  1  0  0  0  0
 33 29  1  0  0  0  0
 36 39  1  0  0  0  0
 36 38  2  0  0  0  0
 37 36  2  0  0  0  0
 39 40  1  0  0  0  0
 40 41  1  0  0  0  0
M  END
>  <minimizedAffinity>
-5.40084982

$$$$

 OpenBabel03242522443D

 41 43  0  0  0  0  0  0  0  0999 V2000
   35.4750   28.0690   38.8670 C   0  0  0  0  0  0  0  0  0  0  0  0
   34.7230   27.8730   39.6850 H   0  0  0  0  0  0  0  0  0  0  0  0
   34.8090   28.0610   37.9690 H   0  0  0  0  0  0  0  0  0  0  0  0
   36.7520   30.0730   38.1840 C   0  0  0  0  0  0  0  0  0  0  0  0
   36.0170   29.3860   39.1770 C   0  0  0  0  0  0  0  0  0  0  0  0
   35.8160   30.0250   40.3870 C   0  0  0  0  0  0  0  0  0  0  0  0
   36.3280   31.2650   40.5560 N   0  0  0  0  0  0  0  0  0  0  0  0
   37.0130   31.8860   39.6020 C   0  0  0  0  0  0  0  0  0  0  0  0
   37.2400   31.3080   38.3990 N   0  0  0  0  0  0  0  0  0  0  0  0
   37.0240   29.7620   37.1920 H   0  0  0  0  0  0  0  0  0  0  0  0
   35.2580   29.4890   41.1340 H   0  0  0  0  0  0  0  0  0  0  0  0
   37.5410   33.2680   39.8740 C   0  0  0  0  0  0  0  0  0  0  0  0
   36.9260   33.7450   40.6630 H   0  0  0  0  0  0  0  0  0  0  0  0
   37.3560   33.8850   38.9550 H   0  0  0  0  0  0  0  0  0  0  0  0
   38.9390   33.2850   40.2990 C   0  0  0  0  0  0  0  0  0  0  0  0
   39.9110   34.1600   39.8330 C   0  0  0  0  0  0  0  0  0  0  0  0
   41.0910   33.8680   40.4600 C   0  0  0  0  0  0  0  0  0  0  0  0
   40.8020   32.8240   41.2900 N   0  0  0  0  0  0  0  0  0  0  0  0
   39.5190   32.4710   41.1990 N   0  0  0  0  0  0  0  0  0  0  0  0
   39.7410   34.9290   39.1020 H   0  0  0  0  0  0  0  0  0  0  0  0
   42.0650   34.3280   40.3610 H   0  0  0  0  0  0  0  0  0  0  0  0
   41.5120   32.3610   41.9210 H   0  0  0  0  0  0  0  0  0  0  0  0
   36.6110   27.0990   38.8160 C   0  0  0  0  0  0  0  0  0  0  0  0
   36.6220   26.5000   37.9090 H   0  0  0  0  0  0  0  0  0  0  0  0
   37.4790   27.7710   38.9750 H   0  0  0  0  0  0  0  0  0  0  0  0
   36.3400   24.8520   39.7110 C   0  0  0  0  0  0  0  0  0  0  0  0
   36.7010   26.1610   39.9500 C   0  0  0  0  0  0  0  0  0  0  0  0
   37.1360   26.6360   41.1290 C   0  0  0  0  0  0  0  0  0  0  0  0
   37.2340   25.7700   42.1830 C   0  0  0  0  0  0  0  0  0  0  0  0
   36.9060   24.4550   42.0590 C   0  0  0  0  0  0  0  0  0  0  0  0
   36.4630   24.0280   40.8140 C   0  0  0  0  0  0  0  0  0  0  0  0
   37.4500   27.5990   41.4190 H   0  0  0  0  0  0  0  0  0  0  0  0
   37.5700   26.0250   43.1940 H   0  0  0  0  0  0  0  0  0  0  0  0
   36.9660   23.7200   42.8700 H   0  0  0  0  0  0  0  0  0  0  0  0
   36.2040   22.9580   40.7360 H   0  0  0  0  0  0  0  0  0  0  0  0
   35.7020   24.1650   38.2910 S   0  0  0  0  0  0  0  0  0  0  0  0
   35.3490   22.7050   38.4380 O   0  0  0  0  0  0  0  0  0  0  0  0
   36.8290   24.1720   37.2300 O   0  0  0  0  0  0  0  0  0  0  0  0
   34.4210   24.8730   37.3970 C   0  0  0  0  0  2  0  0  0  0  0  0
   33.2240   23.8820   37.5370 C   0  0  0  0  0  2  0  0  0  0  0  0
   33.2270   23.5380   38.6110 H   0  0  0  0  0  0  0  0  0  0  0  0
  1  5  1  0  0  0  0
  1  2  1  0  0  0  0
  3  1  1  0  0  0  0
  4  9  2  0  0  0  0
  4  5  1  0  0  0  0
  5  6  2  0  0  0  0
  6  7  1  0  0  0  0
  6 11  1  0  0  0  0
  8 12  1  0  0  0  0
  8  7  2  0  0  0  0
  9  8  1  0  0  0  0
 10  4  1  0  0  0  0
 12 15  1  0  0  0  0
 12 13  1  0  0  0  0
 14 12  1  0  0  0  0
 15 19  2  0  0  0  0
 16 15  1  0  0  0  0
 16 17  2  0  0  0  0
 17 18  1  0  0  0  0
 18 22  1  0  0  0  0
 19 18  1  0  0  0  0
 20 16  1  0  0  0  0
 21 17  1  0  0  0  0
 23  1  1  0  0  0  0
 23 25  1  0  0  0  0
 23 27  1  0  0  0  0
 24 23  1  0  0  0  0
 26 27  2  0  0  0  0
 26 31  1  0  0  0  0
 27 28  1  0  0  0  0
 28 32  1  0  0  0  0
 28 29  2  0  0  0  0
 29 33  1  0  0  0  0
 30 29  1  0  0  0  0
 30 34  1  0  0  0  0
 31 30  2  0  0  0  0
 35 31  1  0  0  0  0
 36 37  2  0  0  0  0
 36 26  1  0  0  0  0
 38 36  2  0  0  0  0
 39 40  1  0  0  0  0
 39 36  1  0  0  0  0
 40 41  1  0  0  0  0
M  END
>  <minimizedAffinity>
-5.32340384

$$$$

 OpenBabel03242522443D

 41 43  0  0  0  0  0  0  0  0999 V2000
   37.4830   28.6030   42.8790 C   0  0  0  0  0  0  0  0  0  0  0  0
   38.4370   28.0350   43.0820 H   0  0  0  0  0  0  0  0  0  0  0  0
   37.1170   28.7690   43.9220 H   0  0  0  0  0  0  0  0  0  0  0  0
   39.2670   30.2310   42.3510 C   0  0  0  0  0  0  0  0  0  0  0  0
   37.9200   29.8240   42.2150 C   0  0  0  0  0  0  0  0  0  0  0  0
   37.0920   30.5950   41.4190 C   0  0  0  0  0  0  0  0  0  0  0  0
   37.6100   31.6880   40.8160 N   0  0  0  0  0  0  0  0  0  0  0  0
   38.8820   32.0430   40.9610 C   0  0  0  0  0  0  0  0  0  0  0  0
   39.7370   31.3260   41.7280 N   0  0  0  0  0  0  0  0  0  0  0  0
   40.0640   29.7870   42.9180 H   0  0  0  0  0  0  0  0  0  0  0  0
   36.0690   30.2750   41.3270 H   0  0  0  0  0  0  0  0  0  0  0  0
   39.3760   33.2710   40.2460 C   0  0  0  0  0  0  0  0  0  0  0  0
   40.0990   33.8050   40.8950 H   0  0  0  0  0  0  0  0  0  0  0  0
   38.5060   33.9750   40.1490 H   0  0  0  0  0  0  0  0  0  0  0  0
   40.0190   32.9830   38.9670 C   0  0  0  0  0  0  0  0  0  0  0  0
   41.3020   33.3740   38.6060 C   0  0  0  0  0  0  0  0  0  0  0  0
   41.5500   32.9220   37.3380 C   0  0  0  0  0  0  0  0  0  0  0  0
   40.4110   32.2690   36.9660 N   0  0  0  0  0  0  0  0  0  0  0  0
   39.4930   32.3020   37.9330 N   0  0  0  0  0  0  0  0  0  0  0  0
   41.9690   33.9360   39.2330 H   0  0  0  0  0  0  0  0  0  0  0  0
   42.4320   33.0290   36.7210 H   0  0  0  0  0  0  0  0  0  0  0  0
   40.2820   31.8010   36.0280 H   0  0  0  0  0  0  0  0  0  0  0  0
   36.5190   27.9030   41.9770 C   0  0  0  0  0  0  0  0  0  0  0  0
   35.5210   27.8180   42.4020 H   0  0  0  0  0  0  0  0  0  0  0  0
   36.6120   28.5040   41.0500 H   0  0  0  0  0  0  0  0  0  0  0  0
   37.0820   26.3530   40.1870 C   0  0  0  0  0  0  0  0  0  0  0  0
   36.9160   26.5510   41.5420 C   0  0  0  0  0  0  0  0  0  0  0  0
   37.1000   25.6130   42.4850 C   0  0  0  0  0  0  0  0  0  0  0  0
   37.4810   24.3600   42.0910 C   0  0  0  0  0  0  0  0  0  0  0  0
   37.6750   24.0530   40.7790 C   0  0  0  0  0  0  0  0  0  0  0  0
   37.4680   25.0670   39.8540 C   0  0  0  0  0  0  0  0  0  0  0  0
   37.0190   25.6550   43.5350 H   0  0  0  0  0  0  0  0  0  0  0  0
   37.6610   23.5060   42.7520 H   0  0  0  0  0  0  0  0  0  0  0  0
   37.9790   23.0660   40.4100 H   0  0  0  0  0  0  0  0  0  0  0  0
   37.6330   24.7960   38.7970 H   0  0  0  0  0  0  0  0  0  0  0  0
   36.7980   27.4380   38.9080 S   0  0  0  0  0  0  0  0  0  0  0  0
   35.3960   27.9960   38.8960 O   0  0  0  0  0  0  0  0  0  0  0  0
   36.8910   26.6320   37.5900 O   0  0  0  0  0  0  0  0  0  0  0  0
   37.8340   28.7570   38.5470 C   0  0  0  0  0  2  0  0  0  0  0  0
   39.2320   28.3470   39.1030 C   0  0  0  0  0  2  0  0  0  0  0  0
   39.3640   27.2570   38.8430 H   0  0  0  0  0  0  0  0  0  0  0  0
  1  2  1  0  0  0  0
  1  3  1  0  0  0  0
  4 10  1  0  0  0  0
  5  4  1  0  0  0  0
  5  1  1  0  0  0  0
  6  5  2  0  0  0  0
  7  8  2  0  0  0  0
  7  6  1  0  0  0  0
  8  9  1  0  0  0  0
  9  4  2  0  0  0  0
 11  6  1  0  0  0  0
 12 13  1  0  0  0  0
 12  8  1  0  0  0  0
 14 12  1  0  0  0  0
 15 12  1  0  0  0  0
 16 15  1  0  0  0  0
 16 20  1  0  0  0  0
 17 16  2  0  0  0  0
 18 17  1  0  0  0  0
 18 19  1  0  0  0  0
 19 15  2  0  0  0  0
 21 17  1  0  0  0  0
 22 18  1  0  0  0  0
 23 24  1  0  0  0  0
 23  1  1  0  0  0  0
 25 23  1  0  0  0  0
 26 27  1  0  0  0  0
 27 23  1  0  0  0  0
 27 28  2  0  0  0  0
 28 32  1  0  0  0  0
 29 28  1  0  0  0  0
 29 33  1  0  0  0  0
 30 29  2  0  0  0  0
 31 26  2  0  0  0  0
 31 30  1  0  0  0  0
 34 30  1  0  0  0  0
 35 31  1  0  0  0  0
 36 26  1  0  0  0  0
 37 36  2  0  0  0  0
 38 36  2  0  0  0  0
 39 36  1  0  0  0  0
 39 40  1  0  0  0  0
 41 40  1  0  0  0  0
M  END
>  <minimizedAffinity>
-5.30043411

$$$$

 OpenBabel03242522443D

 41 43  0  0  0  0  0  0  0  0999 V2000
   36.6350   28.9050   38.7660 C   0  0  0  0  0  0  0  0  0  0  0  0
   36.8480   27.8080   38.9240 H   0  0  0  0  0  0  0  0  0  0  0  0
   37.5940   29.2350   38.2950 H   0  0  0  0  0  0  0  0  0  0  0  0
   34.1940   28.8180   38.3840 C   0  0  0  0  0  0  0  0  0  0  0  0
   35.5000   28.9280   37.8530 C   0  0  0  0  0  0  0  0  0  0  0  0
   35.6270   29.0930   36.4850 C   0  0  0  0  0  0  0  0  0  0  0  0
   34.5050   29.1430   35.7330 N   0  0  0  0  0  0  0  0  0  0  0  0
   33.2910   29.0390   36.2620 C   0  0  0  0  0  0  0  0  0  0  0  0
   33.1070   28.8750   37.5940 N   0  0  0  0  0  0  0  0  0  0  0  0
   33.8760   28.6800   39.4000 H   0  0  0  0  0  0  0  0  0  0  0  0
   36.6260   29.1730   36.0960 H   0  0  0  0  0  0  0  0  0  0  0  0
   32.0970   29.1110   35.3500 C   0  0  0  0  0  0  0  0  0  0  0  0
   31.3200   28.4070   35.7100 H   0  0  0  0  0  0  0  0  0  0  0  0
   32.4120   28.7030   34.3530 H   0  0  0  0  0  0  0  0  0  0  0  0
   31.5110   30.4460   35.2600 C   0  0  0  0  0  0  0  0  0  0  0  0
   31.4750   31.2340   34.1170 C   0  0  0  0  0  0  0  0  0  0  0  0
   30.8500   32.4120   34.4230 C   0  0  0  0  0  0  0  0  0  0  0  0
   30.5230   32.3050   35.7450 N   0  0  0  0  0  0  0  0  0  0  0  0
   30.9150   31.1350   36.2500 N   0  0  0  0  0  0  0  0  0  0  0  0
   31.8770   30.9450   33.1640 H   0  0  0  0  0  0  0  0  0  0  0  0
   30.6350   33.2690   33.8000 H   0  0  0  0  0  0  0  0  0  0  0  0
   30.0240   33.0610   36.2890 H   0  0  0  0  0  0  0  0  0  0  0  0
   36.2520   29.6500   40.0040 C   0  0  0  0  0  0  0  0  0  0  0  0
   36.4950   30.7090   39.9570 H   0  0  0  0  0  0  0  0  0  0  0  0
   35.1760   29.3930   40.0890 H   0  0  0  0  0  0  0  0  0  0  0  0
   37.9380   29.7770   41.7540 C   0  0  0  0  0  0  0  0  0  0  0  0
   36.8210   29.1350   41.2620 C   0  0  0  0  0  0  0  0  0  0  0  0
   36.2140   28.0900   41.8480 C   0  0  0  0  0  0  0  0  0  0  0  0
   36.7280   27.6130   43.0230 C   0  0  0  0  0  0  0  0  0  0  0  0
   37.8270   28.1730   43.6000 C   0  0  0  0  0  0  0  0  0  0  0  0
   38.4070   29.2490   42.9430 C   0  0  0  0  0  0  0  0  0  0  0  0
   35.3580   27.5390   41.5750 H   0  0  0  0  0  0  0  0  0  0  0  0
   36.3340   26.7710   43.6010 H   0  0  0  0  0  0  0  0  0  0  0  0
   38.2790   27.8300   44.5380 H   0  0  0  0  0  0  0  0  0  0  0  0
   39.2960   29.6880   43.4300 H   0  0  0  0  0  0  0  0  0  0  0  0
   38.8310   31.0460   41.0580 S   0  0  0  0  0  0  0  0  0  0  0  0
   39.6160   30.6280   39.8390 O   0  0  0  0  0  0  0  0  0  0  0  0
   39.9180   31.4590   42.0790 O   0  0  0  0  0  0  0  0  0  0  0  0
   38.1540   32.5760   40.6800 C   0  0  0  0  0  2  0  0  0  0  0  0
   38.0240   32.5970   39.1260 C   0  0  0  0  0  2  0  0  0  0  0  0
   37.6570   31.5730   38.8290 H   0  0  0  0  0  0  0  0  0  0  0  0
  1  2  1  0  0  0  0
  1 23  1  0  0  0  0
  3  1  1  0  0  0  0
  4 10  1  0  0  0  0
  5  4  1  0  0  0  0
  5  1  1  0  0  0  0
  6  5  2  0  0  0  0
  7  8  2  0  0  0  0
  7  6  1  0  0  0  0
  8  9  1  0  0  0  0
  9  4  2  0  0  0  0
 11  6  1  0  0  0  0
 12 13  1  0  0  0  0
 12  8  1  0  0  0  0
 14 12  1  0  0  0  0
 15 12  1  0  0  0  0
 15 19  2  0  0  0  0
 16 17  2  0  0  0  0
 16 15  1  0  0  0  0
 17 18  1  0  0  0  0
 18 19  1  0  0  0  0
 18 22  1  0  0  0  0
 20 16  1  0  0  0  0
 21 17  1  0  0  0  0
 23 25  1  0  0  0  0
 23 27  1  0  0  0  0
 24 23  1  0  0  0  0
 26 31  1  0  0  0  0
 27 26  2  0  0  0  0
 27 28  1  0  0  0  0
 28 29  2  0  0  0  0
 29 30  1  0  0  0  0
 29 33  1  0  0  0  0
 30 34  1  0  0  0  0
 31 35  1  0  0  0  0
 31 30  2  0  0  0  0
 32 28  1  0  0  0  0
 36 26  1  0  0  0  0
 36 38  2  0  0  0  0
 37 36  2  0  0  0  0
 39 36  1  0  0  0  0
 40 39  1  0  0  0  0
 41 40  1  0  0  0  0
M  END
>  <minimizedAffinity>
-5.26698494

$$$$

 OpenBabel03242522443D

 41 43  0  0  0  0  0  0  0  0999 V2000
   35.4230   26.4250   37.7490 C   0  0  0  0  0  0  0  0  0  0  0  0
   34.8570   25.5380   38.1560 H   0  0  0  0  0  0  0  0  0  0  0  0
   35.9900   25.9420   36.9150 H   0  0  0  0  0  0  0  0  0  0  0  0
   33.5710   26.9630   36.2020 C   0  0  0  0  0  0  0  0  0  0  0  0
   34.3870   27.3420   37.2930 C   0  0  0  0  0  0  0  0  0  0  0  0
   34.1270   28.5590   37.8990 C   0  0  0  0  0  0  0  0  0  0  0  0
   33.1140   29.3150   37.4220 N   0  0  0  0  0  0  0  0  0  0  0  0
   32.3620   28.9290   36.3950 C   0  0  0  0  0  0  0  0  0  0  0  0
   32.5730   27.7500   35.7640 N   0  0  0  0  0  0  0  0  0  0  0  0
   33.6060   26.0780   35.5940 H   0  0  0  0  0  0  0  0  0  0  0  0
   34.7560   28.8340   38.7260 H   0  0  0  0  0  0  0  0  0  0  0  0
   31.2510   29.8320   35.9340 C   0  0  0  0  0  0  0  0  0  0  0  0
   30.5640   29.2600   35.2800 H   0  0  0  0  0  0  0  0  0  0  0  0
   31.7060   30.6080   35.2610 H   0  0  0  0  0  0  0  0  0  0  0  0
   30.4780   30.4120   37.0290 C   0  0  0  0  0  0  0  0  0  0  0  0
   29.6670   29.7030   37.9060 C   0  0  0  0  0  0  0  0  0  0  0  0
   29.1110   30.5870   38.7900 C   0  0  0  0  0  0  0  0  0  0  0  0
   29.6000   31.8080   38.4260 N   0  0  0  0  0  0  0  0  0  0  0  0
   30.4170   31.7110   37.3760 N   0  0  0  0  0  0  0  0  0  0  0  0
   29.5180   28.6400   37.8750 H   0  0  0  0  0  0  0  0  0  0  0  0
   28.4300   30.4130   39.6130 H   0  0  0  0  0  0  0  0  0  0  0  0
   29.3560   32.7100   38.9190 H   0  0  0  0  0  0  0  0  0  0  0  0
   36.2680   27.1400   38.7530 C   0  0  0  0  0  0  0  0  0  0  0  0
   37.2180   27.4810   38.3470 H   0  0  0  0  0  0  0  0  0  0  0  0
   35.5700   27.9270   39.1040 H   0  0  0  0  0  0  0  0  0  0  0  0
   36.9280   27.1240   41.0950 C   0  0  0  0  0  0  0  0  0  0  0  0
   36.5730   26.3880   39.9830 C   0  0  0  0  0  0  0  0  0  0  0  0
   36.4770   25.0490   39.9450 C   0  0  0  0  0  0  0  0  0  0  0  0
   36.7460   24.3450   41.0860 C   0  0  0  0  0  0  0  0  0  0  0  0
   37.1030   24.9690   42.2430 C   0  0  0  0  0  0  0  0  0  0  0  0
   37.1850   26.3540   42.2150 C   0  0  0  0  0  0  0  0  0  0  0  0
   36.2040   24.3920   39.1680 H   0  0  0  0  0  0  0  0  0  0  0  0
   36.7080   23.2550   41.1920 H   0  0  0  0  0  0  0  0  0  0  0  0
   37.3300   24.4520   43.1830 H   0  0  0  0  0  0  0  0  0  0  0  0
   37.4740   26.8380   43.1640 H   0  0  0  0  0  0  0  0  0  0  0  0
   37.1600   28.8030   41.2330 S   0  0  0  0  0  0  0  0  0  0  0  0
   38.4280   29.2880   40.5770 O   0  0  0  0  0  0  0  0  0  0  0  0
   37.3720   29.1180   42.7340 O   0  0  0  0  0  0  0  0  0  0  0  0
   35.9520   29.9550   40.8360 C   0  0  0  0  0  2  0  0  0  0  0  0
   36.5540   30.7970   39.6690 C   0  0  0  0  0  2  0  0  0  0  0  0
   37.0760   30.0630   38.9910 H   0  0  0  0  0  0  0  0  0  0  0  0
  1  2  1  0  0  0  0
  1 23  1  0  0  0  0
  3  1  1  0  0  0  0
  4  5  1  0  0  0  0
  5  1  1  0  0  0  0
  5  6  2  0  0  0  0
  6 11  1  0  0  0  0
  7  6  1  0  0  0  0
  8  7  2  0  0  0  0
  9  4  2  0  0  0  0
  9  8  1  0  0  0  0
 10  4  1  0  0  0  0
 12  8  1  0  0  0  0
 12 15  1  0  0  0  0
 13 12  1  0  0  0  0
 14 12  1  0  0  0  0
 15 19  2  0  0  0  0
 15 16  1  0  0  0  0
 16 17  2  0  0  0  0
 17 21  1  0  0  0  0
 18 17  1  0  0  0  0
 18 22  1  0  0  0  0
 19 18  1  0  0  0  0
 20 16  1  0  0  0  0
 23 25  1  0  0  0  0
 23 27  1  0  0  0  0
 24 23  1  0  0  0  0
 26 36  1  0  0  0  0
 26 31  1  0  0  0  0
 27 26  2  0  0  0  0
 28 27  1  0  0  0  0
 28 29  2  0  0  0  0
 29 33  1  0  0  0  0
 29 30  1  0  0  0  0
 30 34  1  0  0  0  0
 31 30  2  0  0  0  0
 31 35  1  0  0  0  0
 32 28  1  0  0  0  0
 36 38  2  0  0  0  0
 37 36  2  0  0  0  0
 39 36  1  0  0  0  0
 40 39  1  0  0  0  0
 41 40  1  0  0  0  0
M  END
>  <minimizedAffinity>
-5.21321106

$$$$

 OpenBabel03242522443D

 41 43  0  0  0  0  0  0  0  0999 V2000
   36.8390   28.4330   38.7680 C   0  0  0  0  0  0  0  0  0  0  0  0
   37.4970   28.2130   37.8780 H   0  0  0  0  0  0  0  0  0  0  0  0
   37.3290   29.3580   39.1610 H   0  0  0  0  0  0  0  0  0  0  0  0
   35.3750   28.6770   36.7920 C   0  0  0  0  0  0  0  0  0  0  0  0
   35.5200   28.6700   38.1980 C   0  0  0  0  0  0  0  0  0  0  0  0
   34.3820   28.8530   38.9640 C   0  0  0  0  0  0  0  0  0  0  0  0
   33.1990   29.0250   38.3330 N   0  0  0  0  0  0  0  0  0  0  0  0
   33.0950   29.0220   37.0070 C   0  0  0  0  0  0  0  0  0  0  0  0
   34.1750   28.8500   36.2100 N   0  0  0  0  0  0  0  0  0  0  0  0
   36.1180   28.5620   36.0240 H   0  0  0  0  0  0  0  0  0  0  0  0
   34.5080   28.8480   40.0310 H   0  0  0  0  0  0  0  0  0  0  0  0
   31.7360   29.2140   36.3900 C   0  0  0  0  0  0  0  0  0  0  0  0
   31.1550   28.2750   36.4870 H   0  0  0  0  0  0  0  0  0  0  0  0
   31.8860   29.3440   35.2850 H   0  0  0  0  0  0  0  0  0  0  0  0
   30.9700   30.3020   36.9920 C   0  0  0  0  0  0  0  0  0  0  0  0
   30.6960   31.5230   36.3890 C   0  0  0  0  0  0  0  0  0  0  0  0
   29.9580   32.2780   37.2600 C   0  0  0  0  0  0  0  0  0  0  0  0
   29.8050   31.4940   38.3660 N   0  0  0  0  0  0  0  0  0  0  0  0
   30.4060   30.3130   38.2130 N   0  0  0  0  0  0  0  0  0  0  0  0
   31.0200   31.8040   35.4050 H   0  0  0  0  0  0  0  0  0  0  0  0
   29.5590   33.2770   37.1490 H   0  0  0  0  0  0  0  0  0  0  0  0
   29.2740   31.7930   39.2300 H   0  0  0  0  0  0  0  0  0  0  0  0
   36.7260   27.3150   39.7530 C   0  0  0  0  0  0  0  0  0  0  0  0
   35.7150   26.9250   39.8440 H   0  0  0  0  0  0  0  0  0  0  0  0
   37.4940   26.6110   39.3730 H   0  0  0  0  0  0  0  0  0  0  0  0
   37.7220   26.5680   41.8440 C   0  0  0  0  0  0  0  0  0  0  0  0
   37.1940   27.6150   41.1180 C   0  0  0  0  0  0  0  0  0  0  0  0
   37.0850   28.8790   41.5590 C   0  0  0  0  0  0  0  0  0  0  0  0
   37.5280   29.1700   42.8200 C   0  0  0  0  0  0  0  0  0  0  0  0
   38.0700   28.2130   43.6240 C   0  0  0  0  0  0  0  0  0  0  0  0
   38.1530   26.9270   43.1090 C   0  0  0  0  0  0  0  0  0  0  0  0
   36.7180   29.7500   41.0930 H   0  0  0  0  0  0  0  0  0  0  0  0
   37.4960   30.1530   43.3010 H   0  0  0  0  0  0  0  0  0  0  0  0
   38.4390   28.3920   44.6410 H   0  0  0  0  0  0  0  0  0  0  0  0
   38.5970   26.1690   43.7770 H   0  0  0  0  0  0  0  0  0  0  0  0
   37.8320   24.9250   41.4200 S   0  0  0  0  0  0  0  0  0  0  0  0
   36.4920   24.2350   41.3450 O   0  0  0  0  0  0  0  0  0  0  0  0
   38.5620   24.1980   42.5750 O   0  0  0  0  0  0  0  0  0  0  0  0
   38.7300   24.3590   40.0720 C   0  0  0  0  0  2  0  0  0  0  0  0
   40.0370   25.2100   40.0620 C   0  0  0  0  0  2  0  0  0  0  0  0
   40.3630   25.2950   41.1380 H   0  0  0  0  0  0  0  0  0  0  0  0
  1  3  1  0  0  0  0
  1 23  1  0  0  0  0
  2  1  1  0  0  0  0
  4  5  1  0  0  0  0
  5  1  1  0  0  0  0
  5  6  2  0  0  0  0
  6 11  1  0  0  0  0
  7  6  1  0  0  0  0
  8  7  2  0  0  0  0
  9  4  2  0  0  0  0
  9  8  1  0  0  0  0
 10  4  1  0  0  0  0
 12 13  1  0  0  0  0
 12 15  1  0  0  0  0
 12  8  1  0  0  0  0
 14 12  1  0  0  0  0
 15 19  2  0  0  0  0
 16 15  1  0  0  0  0
 16 17  2  0  0  0  0
 17 18  1  0  0  0  0
 18 22  1  0  0  0  0
 19 18  1  0  0  0  0
 20 16  1  0  0  0  0
 21 17  1  0  0  0  0
 23 24  1  0  0  0  0
 23 27  1  0  0  0  0
 25 23  1  0  0  0  0
 26 31  1  0  0  0  0
 27 28  1  0  0  0  0
 27 26  2  0  0  0  0
 28 29  2  0  0  0  0
 29 33  1  0  0  0  0
 29 30  1  0  0  0  0
 30 34  1  0  0  0  0
 31 30  2  0  0  0  0
 31 35  1  0  0  0  0
 32 28  1  0  0  0  0
 36 26  1  0  0  0  0
 36 38  2  0  0  0  0
 37 36  2  0  0  0  0
 39 36  1  0  0  0  0
 40 39  1  0  0  0  0
 40 41  1  0  0  0  0
M  END
>  <minimizedAffinity>
-5.20207262

$$$$

 OpenBabel03242522443D

 41 43  0  0  0  0  0  0  0  0999 V2000
   36.4610   28.7710   40.2290 C   0  0  0  0  0  0  0  0  0  0  0  0
   35.9740   28.5970   41.2320 H   0  0  0  0  0  0  0  0  0  0  0  0
   35.5660   28.7530   39.5600 H   0  0  0  0  0  0  0  0  0  0  0  0
   38.2200   30.2370   41.1600 C   0  0  0  0  0  0  0  0  0  0  0  0
   37.0750   30.0870   40.3450 C   0  0  0  0  0  0  0  0  0  0  0  0
   36.6180   31.2020   39.6640 C   0  0  0  0  0  0  0  0  0  0  0  0
   37.2870   32.3680   39.8110 N   0  0  0  0  0  0  0  0  0  0  0  0
   38.3630   32.4760   40.5830 C   0  0  0  0  0  0  0  0  0  0  0  0
   38.8530   31.4190   41.2720 N   0  0  0  0  0  0  0  0  0  0  0  0
   38.7280   29.5140   41.7700 H   0  0  0  0  0  0  0  0  0  0  0  0
   35.7450   31.0730   39.0510 H   0  0  0  0  0  0  0  0  0  0  0  0
   39.0490   33.8110   40.6820 C   0  0  0  0  0  0  0  0  0  0  0  0
   39.1300   34.1010   41.7490 H   0  0  0  0  0  0  0  0  0  0  0  0
   38.3620   34.5760   40.2300 H   0  0  0  0  0  0  0  0  0  0  0  0
   40.3840   33.8260   40.0910 C   0  0  0  0  0  0  0  0  0  0  0  0
   41.5670   34.0670   40.7800 C   0  0  0  0  0  0  0  0  0  0  0  0
   42.6050   33.9990   39.8920 C   0  0  0  0  0  0  0  0  0  0  0  0
   42.0240   33.7180   38.6890 N   0  0  0  0  0  0  0  0  0  0  0  0
   40.6990   33.6140   38.8010 N   0  0  0  0  0  0  0  0  0  0  0  0
   41.6290   34.2700   41.8330 H   0  0  0  0  0  0  0  0  0  0  0  0
   43.6670   34.1300   40.0510 H   0  0  0  0  0  0  0  0  0  0  0  0
   42.5650   33.6010   37.7880 H   0  0  0  0  0  0  0  0  0  0  0  0
   37.5300   27.7890   39.8760 C   0  0  0  0  0  0  0  0  0  0  0  0
   37.8530   27.8630   38.8400 H   0  0  0  0  0  0  0  0  0  0  0  0
   38.2940   28.0100   40.6480 H   0  0  0  0  0  0  0  0  0  0  0  0
   37.6840   25.8130   41.2890 C   0  0  0  0  0  0  0  0  0  0  0  0
   37.2040   26.3720   40.1230 C   0  0  0  0  0  0  0  0  0  0  0  0
   36.4590   25.7280   39.2100 C   0  0  0  0  0  0  0  0  0  0  0  0
   36.1420   24.4170   39.4370 C   0  0  0  0  0  0  0  0  0  0  0  0
   36.5610   23.7650   40.5570 C   0  0  0  0  0  0  0  0  0  0  0  0
   37.3280   24.4880   41.4610 C   0  0  0  0  0  0  0  0  0  0  0  0
   36.0310   26.0540   38.3040 H   0  0  0  0  0  0  0  0  0  0  0  0
   35.5470   23.7760   38.7780 H   0  0  0  0  0  0  0  0  0  0  0  0
   36.3350   22.7170   40.7870 H   0  0  0  0  0  0  0  0  0  0  0  0
   37.6540   23.9400   42.3610 H   0  0  0  0  0  0  0  0  0  0  0  0
   38.6970   26.5070   42.4660 S   0  0  0  0  0  0  0  0  0  0  0  0
   39.9340   27.1500   41.8870 O   0  0  0  0  0  0  0  0  0  0  0  0
   39.2490   25.3540   43.3370 O   0  0  0  0  0  0  0  0  0  0  0  0
   38.1320   27.5790   43.6800 C   0  0  0  0  0  2  0  0  0  0  0  0
   36.5800   27.4210   43.6790 C   0  0  0  0  0  2  0  0  0  0  0  0
   36.3790   26.3170   43.5660 H   0  0  0  0  0  0  0  0  0  0  0  0
  1  5  1  0  0  0  0
  1  2  1  0  0  0  0
  3  1  1  0  0  0  0
  4  9  1  0  0  0  0
  4 10  1  0  0  0  0
  5  4  2  0  0  0  0
  6  7  2  0  0  0  0
  6  5  1  0  0  0  0
  7  8  1  0  0  0  0
  8 12  1  0  0  0  0
  8  9  2  0  0  0  0
 11  6  1  0  0  0  0
 12 13  1  0  0  0  0
 14 12  1  0  0  0  0
 15 12  1  0  0  0  0
 15 16  1  0  0  0  0
 16 20  1  0  0  0  0
 17 21  1  0  0  0  0
 17 16  2  0  0  0  0
 18 19  1  0  0  0  0
 18 17  1  0  0  0  0
 19 15  2  0  0  0  0
 22 18  1  0  0  0  0
 23 27  1  0  0  0  0
 23  1  1  0  0  0  0
 23 25  1  0  0  0  0
 24 23  1  0  0  0  0
 26 31  1  0  0  0  0
 26 36  1  0  0  0  0
 27 26  2  0  0  0  0
 28 29  2  0  0  0  0
 28 27  1  0  0  0  0
 29 30  1  0  0  0  0
 30 34  1  0  0  0  0
 30 31  2  0  0  0  0
 31 35  1  0  0  0  0
 32 28  1  0  0  0  0
 33 29  1  0  0  0  0
 36 38  2  0  0  0  0
 36 39  1  0  0  0  0
 37 36  2  0  0  0  0
 40 39  1  0  0  0  0
 41 40  1  0  0  0  0
M  END
>  <minimizedAffinity>
-5.16869211

$$$$

 OpenBabel03242522443D

 41 43  0  0  0  0  0  0  0  0999 V2000
   36.5230   27.7130   42.8950 C   0  0  0  0  0  0  0  0  0  0  0  0
   36.1410   28.6180   43.4490 H   0  0  0  0  0  0  0  0  0  0  0  0
   35.7240   26.9700   43.1380 H   0  0  0  0  0  0  0  0  0  0  0  0
   36.0450   29.4010   41.1530 C   0  0  0  0  0  0  0  0  0  0  0  0
   36.5330   28.1190   41.4950 C   0  0  0  0  0  0  0  0  0  0  0  0
   37.0340   27.3280   40.4770 C   0  0  0  0  0  0  0  0  0  0  0  0
   37.0340   27.8180   39.2170 N   0  0  0  0  0  0  0  0  0  0  0  0
   36.5700   29.0300   38.9280 C   0  0  0  0  0  0  0  0  0  0  0  0
   36.0670   29.8460   39.8840 N   0  0  0  0  0  0  0  0  0  0  0  0
   35.6130   30.1600   41.7780 H   0  0  0  0  0  0  0  0  0  0  0  0
   37.4000   26.3550   40.7520 H   0  0  0  0  0  0  0  0  0  0  0  0
   36.6140   29.4980   37.4990 C   0  0  0  0  0  0  0  0  0  0  0  0
   35.6210   29.9000   37.2160 H   0  0  0  0  0  0  0  0  0  0  0  0
   36.7490   28.5890   36.8530 H   0  0  0  0  0  0  0  0  0  0  0  0
   37.6220   30.5250   37.2520 C   0  0  0  0  0  0  0  0  0  0  0  0
   38.8780   30.5790   37.8430 C   0  0  0  0  0  0  0  0  0  0  0  0
   39.5330   31.6820   37.3660 C   0  0  0  0  0  0  0  0  0  0  0  0
   38.6560   32.2660   36.4980 N   0  0  0  0  0  0  0  0  0  0  0  0
   37.5130   31.5820   36.4260 N   0  0  0  0  0  0  0  0  0  0  0  0
   39.2510   29.8630   38.5520 H   0  0  0  0  0  0  0  0  0  0  0  0
   40.5230   32.0550   37.5890 H   0  0  0  0  0  0  0  0  0  0  0  0
   38.8650   33.1500   35.9580 H   0  0  0  0  0  0  0  0  0  0  0  0
   37.9080   27.2910   43.2660 C   0  0  0  0  0  0  0  0  0  0  0  0
   38.0080   27.0290   44.3170 H   0  0  0  0  0  0  0  0  0  0  0  0
   38.0930   26.4790   42.5350 H   0  0  0  0  0  0  0  0  0  0  0  0
   40.1490   27.7620   42.4430 C   0  0  0  0  0  0  0  0  0  0  0  0
   38.9750   28.2630   42.9640 C   0  0  0  0  0  0  0  0  0  0  0  0
   38.7310   29.5620   43.2040 C   0  0  0  0  0  0  0  0  0  0  0  0
   39.7110   30.4720   42.9150 C   0  0  0  0  0  0  0  0  0  0  0  0
   40.9100   30.0880   42.3950 C   0  0  0  0  0  0  0  0  0  0  0  0
   41.0980   28.7320   42.1720 C   0  0  0  0  0  0  0  0  0  0  0  0
   37.8780   30.0530   43.5800 H   0  0  0  0  0  0  0  0  0  0  0  0
   39.6450   31.5550   43.0640 H   0  0  0  0  0  0  0  0  0  0  0  0
   41.7280   30.7760   42.1470 H   0  0  0  0  0  0  0  0  0  0  0  0
   42.0760   28.4450   41.7480 H   0  0  0  0  0  0  0  0  0  0  0  0
   40.5930   26.1420   42.1780 S   0  0  0  0  0  0  0  0  0  0  0  0
   42.0850   25.9190   42.1900 O   0  0  0  0  0  0  0  0  0  0  0  0
   40.1720   25.7790   40.7340 O   0  0  0  0  0  0  0  0  0  0  0  0
   39.9130   24.8270   43.0460 C   0  0  0  0  0  2  0  0  0  0  0  0
   38.9830   24.0980   42.0280 C   0  0  0  0  0  2  0  0  0  0  0  0
   39.5440   24.0800   41.0500 H   0  0  0  0  0  0  0  0  0  0  0  0
  1  3  1  0  0  0  0
  1 23  1  0  0  0  0
  1  2  1  0  0  0  0
  4  5  1  0  0  0  0
  4 10  1  0  0  0  0
  5  1  1  0  0  0  0
  6 11  1  0  0  0  0
  6  5  2  0  0  0  0
  7  6  1  0  0  0  0
  8  7  2  0  0  0  0
  8  9  1  0  0  0  0
  9  4  2  0  0  0  0
 12  8  1  0  0  0  0
 13 12  1  0  0  0  0
 14 12  1  0  0  0  0
 15 12  1  0  0  0  0
 15 16  1  0  0  0  0
 16 20  1  0  0  0  0
 17 21  1  0  0  0  0
 17 16  2  0  0  0  0
 18 17  1  0  0  0  0
 19 18  1  0  0  0  0
 19 15  2  0  0  0  0
 22 18  1  0  0  0  0
 23 24  1  0  0  0  0
 25 23  1  0  0  0  0
 26 27  1  0  0  0  0
 27 28  2  0  0  0  0
 27 23  1  0  0  0  0
 28 32  1  0  0  0  0
 29 33  1  0  0  0  0
 29 28  1  0  0  0  0
 30 29  2  0  0  0  0
 31 30  1  0  0  0  0
 31 26  2  0  0  0  0
 34 30  1  0  0  0  0
 35 31  1  0  0  0  0
 36 37  2  0  0  0  0
 36 26  1  0  0  0  0
 36 39  1  0  0  0  0
 38 36  2  0  0  0  0
 40 39  1  0  0  0  0
 41 40  1  0  0  0  0
M  END
>  <minimizedAffinity>
-5.13875389

$$$$
