
 OpenBabel03242517543D

 37 38  0  0  0  0  0  0  0  0999 V2000
   45.2960   34.2330   43.7530 C   0  0  0  0  0  0  0  0  0  0  0  0
   46.4520   34.7460   43.1440 C   0  0  0  0  0  0  0  0  0  0  0  0
   47.6370   34.0810   43.2910 C   0  0  0  0  0  0  0  0  0  0  0  0
   47.6110   32.9540   44.0290 N   0  0  0  0  0  0  0  0  0  0  0  0
   46.5160   32.4740   44.6010 C   0  0  0  0  0  0  0  0  0  0  0  0
   45.3570   33.1150   44.4630 N   0  0  0  0  0  0  0  0  0  0  0  0
   44.3800   34.7680   43.6250 H   0  0  0  0  0  0  0  0  0  0  0  0
   46.3640   35.6370   42.5860 H   0  0  0  0  0  0  0  0  0  0  0  0
   48.9030   34.5090   42.6820 C   0  0  0  0  0  0  0  0  0  0  0  0
   49.6270   34.7490   43.4860 H   0  0  0  0  0  0  0  0  0  0  0  0
   49.3380   33.6560   42.1180 H   0  0  0  0  0  0  0  0  0  0  0  0
   48.7460   35.6590   41.7390 C   0  0  0  0  0  0  0  0  0  0  0  0
   48.0390   36.4290   42.0000 H   0  0  0  0  0  0  0  0  0  0  0  0
   49.7510   36.1850   41.7830 H   0  0  0  0  0  0  0  0  0  0  0  0
   48.6170   35.2650   40.3340 C   0  0  0  0  0  0  0  0  0  0  0  0
   48.0380   34.3540   39.5630 C   0  0  0  0  0  0  0  0  0  0  0  0
   48.2260   34.1890   38.0630 C   0  0  0  0  0  0  0  0  0  0  0  0
   48.3420   33.1190   37.8780 H   0  0  0  0  0  0  0  0  0  0  0  0
   47.3060   34.6130   37.5960 H   0  0  0  0  0  0  0  0  0  0  0  0
   49.0700   34.8200   37.7270 H   0  0  0  0  0  0  0  0  0  0  0  0
   46.4940   31.3280   45.3510 O   0  0  0  0  0  0  0  0  0  0  0  0
   45.5460   30.1120   47.2720 C   0  0  0  0  0  0  0  0  0  0  0  0
   46.0600   31.2080   46.6690 C   0  0  0  0  0  0  0  0  0  0  0  0
   46.1910   32.3710   47.4060 C   0  0  0  0  0  0  0  0  0  0  0  0
   45.8230   32.4630   48.7260 C   0  0  0  0  0  0  0  0  0  0  0  0
   45.3020   31.3460   49.3360 C   0  0  0  0  0  0  0  0  0  0  0  0
   45.1670   30.1760   48.6040 C   0  0  0  0  0  0  0  0  0  0  0  0
   46.5940   33.2910   46.9960 H   0  0  0  0  0  0  0  0  0  0  0  0
   45.9170   33.3540   49.3140 H   0  0  0  0  0  0  0  0  0  0  0  0
   44.9800   31.3100   50.3720 H   0  0  0  0  0  0  0  0  0  0  0  0
   44.7640   29.2470   49.0090 H   0  0  0  0  0  0  0  0  0  0  0  0
   45.3210   28.7150   46.2690 S   0  0  0  0  0  0  0  0  0  0  0  0
   46.4990   28.3650   45.4480 O   0  0  0  0  0  0  0  0  0  0  0  0
   44.2370   29.1160   45.2440 O   0  0  0  0  0  0  0  0  0  0  0  0
   44.5180   27.3590   47.0830 C   0  0  0  0  0  0  0  0  0  0  0  0
   43.2950   27.0120   46.2110 C   0  0  0  0  0  0  0  0  0  0  0  0
   43.0350   27.8390   45.5320 H   0  0  0  0  0  0  0  0  0  0  0  0
  1  6  1  0  0  0  0
  2  3  1  0  0  0  0
  2  1  2  0  0  0  0
  3  4  2  0  0  0  0
  4  5  1  0  0  0  0
  5 21  1  0  0  0  0
  6  5  2  0  0  0  0
  7  1  1  0  0  0  0
  8  2  1  0  0  0  0
  9  3  1  0  0  0  0
  9 10  1  0  0  0  0
 11  9  1  0  0  0  0
 12 14  1  0  0  0  0
 12 13  1  0  0  0  0
 12  9  1  0  0  0  0
 15 12  1  0  0  0  0
 16 15  2  0  0  0  0
 17 16  1  0  0  0  0
 18 17  1  0  0  0  0
 19 17  1  0  0  0  0
 20 17  1  0  0  0  0
 21 23  1  0  0  0  0
 22 27  1  0  0  0  0
 23 22  2  0  0  0  0
 23 24  1  0  0  0  0
 24 25  2  0  0  0  0
 25 29  1  0  0  0  0
 25 26  1  0  0  0  0
 26 30  1  0  0  0  0
 27 31  1  0  0  0  0
 27 26  2  0  0  0  0
 28 24  1  0  0  0  0
 32 35  1  0  0  0  0
 32 22  1  0  0  0  0
 33 32  2  0  0  0  0
 34 32  2  0  0  0  0
 36 35  1  0  0  0  0
 37 36  1  0  0  0  0
M  END
>  <minimizedAffinity>
-5.53434944

>  <minimizedRMSD>
1.43768466

$$$$
