
     RDKit          3D

 39 41  0  0  0  0  0  0  0  0999 V2000
   45.2825   35.2905   43.1198 Cl  0  0  0  0  0  0  0  0  0  0  0  0
   45.1668   34.5358   41.5572 C   0  0  0  0  0  0  0  0  0  0  0  0
   46.2736   34.1517   40.8820 C   0  0  0  0  0  0  0  0  0  0  0  0
   46.0701   33.5575   39.6421 C   0  0  0  0  0  0  0  0  0  0  0  0
   44.8203   33.3612   39.1103 C   0  0  0  0  0  0  0  0  0  0  0  0
   43.7208   33.7567   39.8103 C   0  0  0  0  0  0  0  0  0  0  0  0
   43.9038   34.3485   41.0438 C   0  0  0  0  0  0  0  0  0  0  0  0
   49.5439   35.7454   41.8880 C   0  0  0  0  0  0  0  0  0  0  0  0
   48.2866   35.5475   41.3125 C   0  0  0  0  0  0  0  0  0  0  0  0
   47.5784   34.3697   41.4696 C   0  0  0  0  0  0  0  0  0  0  0  0
   48.1956   33.4324   42.2190 N   0  0  0  0  0  0  0  0  0  0  0  0
   49.4059   33.6102   42.7791 C   0  0  0  0  0  0  0  0  0  0  0  0
   50.0654   34.7575   42.6099 N   0  0  0  0  0  0  0  0  0  0  0  0
   47.8122   31.8919   38.9766 C   0  0  0  0  0  0  0  0  0  0  0  0
   47.2241   33.1169   38.8795 C   0  0  0  0  0  0  0  0  0  0  0  0
   47.7606   34.0208   37.9816 C   0  0  0  0  0  0  0  0  0  0  0  0
   48.8497   33.6941   37.2121 C   0  0  0  0  0  0  0  0  0  0  0  0
   49.4521   32.4465   37.3060 C   0  0  0  0  0  0  0  0  0  0  0  0
   48.9156   31.5350   38.2087 C   0  0  0  0  0  0  0  0  0  0  0  0
   47.1914   30.7175   40.0323 S   0  0  0  0  0  0  0  0  0  0  0  0
   46.7781   29.4471   39.3231 O   0  0  0  0  0  0  0  0  0  0  0  0
   48.4052   30.2696   40.8886 O   0  0  0  0  0  0  0  0  0  0  0  0
   44.6765   32.8986   38.1447 H   0  0  0  0  0  0  0  0  0  0  0  0
   42.7248   33.6136   39.4150 H   0  0  0  0  0  0  0  0  0  0  0  0
   43.0223   34.6579   41.5893 H   0  0  0  0  0  0  0  0  0  0  0  0
   50.0396   36.6893   41.7238 H   0  0  0  0  0  0  0  0  0  0  0  0
   47.8635   36.3462   40.7282 H   0  0  0  0  0  0  0  0  0  0  0  0
   49.8374   32.8120   43.3678 H   0  0  0  0  0  0  0  0  0  0  0  0
   47.3258   35.0078   37.8715 H   0  0  0  0  0  0  0  0  0  0  0  0
   49.2497   34.4165   36.5193 H   0  0  0  0  0  0  0  0  0  0  0  0
   50.2953   32.2038   36.7043 H   0  0  0  0  0  0  0  0  0  0  0  0
   49.3812   30.5591   38.2873 H   0  0  0  0  0  0  0  0  0  0  0  0
   46.0061   30.9789   41.2155 C   0  0  0  0  0  0  0  0  0  0  0  0
   46.7577   31.7491   42.3504 C   0  0  0  0  0  0  0  0  0  0  0  0
   47.0257   32.7529   41.9200 H   0  0  0  0  0  0  0  0  0  0  0  0
   45.1998   31.6965   41.0799 H   0  0  0  0  0  0  0  0  0  0  0  0
   45.6838   30.0893   41.8386 H   0  0  0  0  0  0  0  0  0  0  0  0
   47.6165   31.1828   42.7079 H   0  0  0  0  0  0  0  0  0  0  0  0
   46.0253   31.8741   43.1655 H   0  0  0  0  0  0  0  0  0  0  0  0
  2  1  1  0
  3 10  1  0
  3  2  2  0
  4  3  1  0
  5  4  2  0
  5  6  1  0
  6  7  2  0
  7  2  1  0
  8 13  2  0
  9 10  2  0
  9  8  1  0
 10 11  1  0
 11 12  2  0
 13 12  1  0
 14 20  1  0
 15 14  2  0
 15  4  1  0
 16 15  1  0
 17 18  1  0
 17 16  2  0
 18 19  2  0
 19 14  1  0
 20 22  2  0
 21 20  2  0
  5 23  1  0
  6 24  1  0
  7 25  1  0
  8 26  1  0
  9 27  1  0
 12 28  1  0
 16 29  1  0
 17 30  1  0
 18 31  1  0
 19 32  1  0
 33 34  1  0
 34 35  1  0
 33 36  1  0
 33 37  1  0
 34 38  1  0
 34 39  1  0
 20 33  1  0
M  ISO  8  23  14  24  14  25  14  26  14  27  14  28  14  29  14  30  14
M  ISO  3  31  14  32  14  35   8
M  END
>  <DihAtoms>  (1) 
13,19,32,33

>  <DihDeg>  (1) 
-179.60602427333464

$$$$
