
 OpenBabel03252509073D

 35 37  0  0  0  0  0  0  0  0999 V2000
   45.2980   35.2740   43.1310 Cl  0  0  0  0  0  0  0  0  0  0  0  0
   45.1780   34.5310   41.5620 C   0  0  0  0  0  0  0  0  0  0  0  0
   46.2830   34.1490   40.8820 C   0  0  0  0  0  0  0  0  0  0  0  0
   46.0750   33.5640   39.6380 C   0  0  0  0  0  0  0  0  0  0  0  0
   44.8230   33.3760   39.1070 C   0  0  0  0  0  0  0  0  0  0  0  0
   43.7260   33.7700   39.8120 C   0  0  0  0  0  0  0  0  0  0  0  0
   43.9130   34.3520   41.0500 C   0  0  0  0  0  0  0  0  0  0  0  0
   44.6760   32.9220   38.1390 H   0  0  0  0  0  0  0  0  0  0  0  0
   42.7290   33.6330   39.4180 H   0  0  0  0  0  0  0  0  0  0  0  0
   43.0330   34.6590   41.5990 H   0  0  0  0  0  0  0  0  0  0  0  0
   47.7580   31.8730   38.8940 C   0  0  0  0  0  0  0  0  0  0  0  0
   47.2260   33.1270   38.8710 C   0  0  0  0  0  0  0  0  0  0  0  0
   47.8220   34.0660   38.0490 C   0  0  0  0  0  0  0  0  0  0  0  0
   48.9130   33.7450   37.2800 C   0  0  0  0  0  0  0  0  0  0  0  0
   49.4590   32.4680   37.2990 C   0  0  0  0  0  0  0  0  0  0  0  0
   48.8630   31.5210   38.1250 C   0  0  0  0  0  0  0  0  0  0  0  0
   47.4320   35.0770   37.9980 H   0  0  0  0  0  0  0  0  0  0  0  0
   49.3600   34.4940   36.6470 H   0  0  0  0  0  0  0  0  0  0  0  0
   50.3040   32.2300   36.6980 H   0  0  0  0  0  0  0  0  0  0  0  0
   49.2840   30.5230   38.1440 H   0  0  0  0  0  0  0  0  0  0  0  0
   47.0630   30.6580   39.8520 S   0  0  0  0  0  0  0  0  0  0  0  0
   47.1840   29.2810   39.2370 O   0  0  0  0  0  0  0  0  0  0  0  0
   47.9730   30.5710   41.1060 O   0  0  0  0  0  0  0  0  0  0  0  0
   45.5170   30.7080   40.5440 C   0  0  0  0  0  2  0  0  0  0  0  0
   45.7840   30.6990   42.0850 C   0  0  0  0  0  2  0  0  0  0  0  0
   46.2860   31.6790   42.3200 H   0  0  0  0  0  0  0  0  0  0  0  0
   49.5560   35.7280   41.9000 C   0  0  0  0  0  0  0  0  0  0  0  0
   48.2970   35.5380   41.3250 C   0  0  0  0  0  0  0  0  0  0  0  0
   47.5880   34.3590   41.4690 C   0  0  0  0  0  0  0  0  0  0  0  0
   48.2080   33.4110   42.2040 N   0  0  0  0  0  0  0  0  0  0  0  0
   49.4200   33.5820   42.7630 C   0  0  0  0  0  0  0  0  0  0  0  0
   50.0790   34.7320   42.6070 N   0  0  0  0  0  0  0  0  0  0  0  0
   50.0510   36.6740   41.7480 H   0  0  0  0  0  0  0  0  0  0  0  0
   47.8720   36.3450   40.7530 H   0  0  0  0  0  0  0  0  0  0  0  0
   49.8520   32.7760   43.3400 H   0  0  0  0  0  0  0  0  0  0  0  0
  2  1  1  0  0  0  0
  3 29  1  0  0  0  0
  3  2  2  0  0  0  0
  4  3  1  0  0  0  0
  5  4  2  0  0  0  0
  5  6  1  0  0  0  0
  6  7  2  0  0  0  0
  7  2  1  0  0  0  0
  7 10  1  0  0  0  0
  8  5  1  0  0  0  0
  9  6  1  0  0  0  0
 11 21  1  0  0  0  0
 12 11  1  0  0  0  0
 12  4  1  0  0  0  0
 13 12  2  0  0  0  0
 14 15  2  0  0  0  0
 14 13  1  0  0  0  0
 15 16  1  0  0  0  0
 16 20  1  0  0  0  0
 16 11  2  0  0  0  0
 17 13  1  0  0  0  0
 18 14  1  0  0  0  0
 19 15  1  0  0  0  0
 21 24  1  0  0  0  0
 21 23  2  0  0  0  0
 22 21  2  0  0  0  0
 24 25  1  0  0  0  0
 25 26  1  0  0  0  0
 27 32  1  0  0  0  0
 28 29  1  0  0  0  0
 28 27  2  0  0  0  0
 29 30  2  0  0  0  0
 30 31  1  0  0  0  0
 31 35  1  0  0  0  0
 32 31  2  0  0  0  0
 33 27  1  0  0  0  0
 34 28  1  0  0  0  0
M  END
>  <minimizedAffinity>
-4.44571114

>  <minimizedRMSD>
0.312828422

$$$$
