
 OpenBabel03242519263D

 34 36  0  0  0  0  0  0  0  0999 V2000
   37.3730   27.3580   42.4940 C   0  0  0  0  0  0  0  0  0  0  0  0
   38.1840   27.6120   43.6800 C   0  0  0  0  0  0  0  0  0  0  0  0
   39.5530   27.0440   43.6310 C   0  0  0  0  0  0  0  0  0  0  0  0
   39.5890   25.5700   43.2620 C   0  0  0  0  0  0  0  0  0  0  0  0
   38.5010   25.1470   42.3080 C   0  0  0  0  0  0  0  0  0  0  0  0
   38.0020   26.3440   41.5220 C   0  0  0  0  0  0  0  0  0  0  0  0
   36.3800   26.8800   42.7490 H   0  0  0  0  0  0  0  0  0  0  0  0
   38.2520   28.6780   43.8810 H   0  0  0  0  0  0  0  0  0  0  0  0
   37.6780   27.1490   44.5770 H   0  0  0  0  0  0  0  0  0  0  0  0
   39.9320   27.0710   44.6980 H   0  0  0  0  0  0  0  0  0  0  0  0
   40.3090   27.6250   43.0760 H   0  0  0  0  0  0  0  0  0  0  0  0
   39.6570   24.9060   44.1460 H   0  0  0  0  0  0  0  0  0  0  0  0
   40.5590   25.4140   42.7090 H   0  0  0  0  0  0  0  0  0  0  0  0
   37.6800   24.7490   42.9590 H   0  0  0  0  0  0  0  0  0  0  0  0
   38.8010   24.3500   41.6300 H   0  0  0  0  0  0  0  0  0  0  0  0
   37.2210   26.0590   40.8200 H   0  0  0  0  0  0  0  0  0  0  0  0
   38.8990   26.8100   41.0560 H   0  0  0  0  0  0  0  0  0  0  0  0
   37.0710   28.5580   41.7020 C   0  0  0  0  0  0  0  0  0  0  0  0
   35.8160   28.5460   41.0680 C   0  0  0  0  0  0  0  0  0  0  0  0
   35.4100   29.6440   40.2820 C   0  0  0  0  0  0  0  0  0  0  0  0
   36.2990   30.6810   40.1890 N   0  0  0  0  0  0  0  0  0  0  0  0
   37.5140   30.6550   40.8230 C   0  0  0  0  0  0  0  0  0  0  0  0
   37.8730   29.6130   41.5560 N   0  0  0  0  0  0  0  0  0  0  0  0
   35.0470   27.7860   41.0780 H   0  0  0  0  0  0  0  0  0  0  0  0
   34.4840   29.7190   39.7700 H   0  0  0  0  0  0  0  0  0  0  0  0
   38.3360   31.8460   40.6270 C   0  0  0  0  0  0  0  0  0  0  0  0
   37.6900   32.9980   40.3410 N   0  0  0  0  0  0  0  0  0  0  0  0
   38.5840   33.9940   40.1970 C   0  0  0  0  0  0  0  0  0  0  0  0
   39.8020   33.4330   40.4010 N   0  0  0  0  0  0  0  0  0  0  0  0
   39.6620   32.1190   40.6640 N   0  0  0  0  0  0  0  0  0  0  0  0
   38.3990   35.0350   39.9660 H   0  0  0  0  0  0  0  0  0  0  0  0
   41.0660   34.1360   40.3430 C   0  0  0  0  0  2  0  0  0  0  0  0
   42.1430   33.3630   41.0740 C   0  0  0  0  0  2  0  0  0  0  0  0
   42.5040   32.5650   40.3670 H   0  0  0  0  0  0  0  0  0  0  0  0
  1  7  1  0  0  0  0
  1  2  1  0  0  0  0
  2  8  1  0  0  0  0
  2  9  1  0  0  0  0
  3  2  1  0  0  0  0
  3 10  1  0  0  0  0
  4  3  1  0  0  0  0
  4 12  1  0  0  0  0
  5 14  1  0  0  0  0
  5  4  1  0  0  0  0
  6  5  1  0  0  0  0
  6  1  1  0  0  0  0
 11  3  1  0  0  0  0
 13  4  1  0  0  0  0
 15  5  1  0  0  0  0
 16  6  1  0  0  0  0
 17  6  1  0  0  0  0
 18  1  1  0  0  0  0
 19 24  1  0  0  0  0
 19 18  2  0  0  0  0
 20 19  1  0  0  0  0
 21 20  2  0  0  0  0
 21 22  1  0  0  0  0
 22 23  2  0  0  0  0
 23 18  1  0  0  0  0
 25 20  1  0  0  0  0
 26 30  2  0  0  0  0
 26 22  1  0  0  0  0
 27 26  1  0  0  0  0
 28 27  2  0  0  0  0
 28 29  1  0  0  0  0
 29 30  1  0  0  0  0
 31 28  1  0  0  0  0
 32 29  1  0  0  0  0
 32 33  1  0  0  0  0
 34 33  1  0  0  0  0
M  END
>  <minimizedAffinity>
-5.31320238

$$$$

 OpenBabel03242519263D

 34 36  0  0  0  0  0  0  0  0999 V2000
   36.9440   25.8250   40.8250 C   0  0  0  0  0  0  0  0  0  0  0  0
   36.9470   24.6870   41.7370 C   0  0  0  0  0  0  0  0  0  0  0  0
   38.0960   23.7630   41.5780 C   0  0  0  0  0  0  0  0  0  0  0  0
   38.3130   23.3020   40.1460 C   0  0  0  0  0  0  0  0  0  0  0  0
   37.9490   24.3310   39.1060 C   0  0  0  0  0  0  0  0  0  0  0  0
   37.9990   25.7220   39.7080 C   0  0  0  0  0  0  0  0  0  0  0  0
   35.9750   25.9090   40.2490 H   0  0  0  0  0  0  0  0  0  0  0  0
   36.9050   25.0210   42.7720 H   0  0  0  0  0  0  0  0  0  0  0  0
   36.0170   24.0730   41.5620 H   0  0  0  0  0  0  0  0  0  0  0  0
   37.8070   22.8190   42.1310 H   0  0  0  0  0  0  0  0  0  0  0  0
   39.0420   24.0620   42.0610 H   0  0  0  0  0  0  0  0  0  0  0  0
   37.8600   22.3130   39.9380 H   0  0  0  0  0  0  0  0  0  0  0  0
   39.4240   23.1390   40.0390 H   0  0  0  0  0  0  0  0  0  0  0  0
   36.8980   24.0830   38.8050 H   0  0  0  0  0  0  0  0  0  0  0  0
   38.5680   24.2860   38.2110 H   0  0  0  0  0  0  0  0  0  0  0  0
   37.7470   26.4820   38.9710 H   0  0  0  0  0  0  0  0  0  0  0  0
   39.0080   25.8310   40.1630 H   0  0  0  0  0  0  0  0  0  0  0  0
   37.1600   27.1230   41.4790 C   0  0  0  0  0  0  0  0  0  0  0  0
   37.2650   27.0670   42.8800 C   0  0  0  0  0  0  0  0  0  0  0  0
   37.4770   28.2490   43.6200 C   0  0  0  0  0  0  0  0  0  0  0  0
   37.5700   29.4070   42.8960 N   0  0  0  0  0  0  0  0  0  0  0  0
   37.4620   29.4190   41.5290 C   0  0  0  0  0  0  0  0  0  0  0  0
   37.2630   28.2970   40.8550 N   0  0  0  0  0  0  0  0  0  0  0  0
   37.2070   26.2140   43.5410 H   0  0  0  0  0  0  0  0  0  0  0  0
   37.5670   28.2990   44.6760 H   0  0  0  0  0  0  0  0  0  0  0  0
   37.5950   30.7370   40.9140 C   0  0  0  0  0  0  0  0  0  0  0  0
   36.7960   31.0040   39.8560 N   0  0  0  0  0  0  0  0  0  0  0  0
   37.0370   32.2520   39.4130 C   0  0  0  0  0  0  0  0  0  0  0  0
   38.0050   32.7540   40.2190 N   0  0  0  0  0  0  0  0  0  0  0  0
   38.3540   31.8350   41.1400 N   0  0  0  0  0  0  0  0  0  0  0  0
   36.5700   32.7730   38.5860 H   0  0  0  0  0  0  0  0  0  0  0  0
   38.5810   34.0770   40.1090 C   0  0  0  0  0  2  0  0  0  0  0  0
   40.0850   34.0230   40.2780 C   0  0  0  0  0  2  0  0  0  0  0  0
   40.5090   33.7070   39.2850 H   0  0  0  0  0  0  0  0  0  0  0  0
  1 18  1  0  0  0  0
  1  2  1  0  0  0  0
  2  8  1  0  0  0  0
  3  2  1  0  0  0  0
  3 11  1  0  0  0  0
  3 10  1  0  0  0  0
  4  3  1  0  0  0  0
  5  6  1  0  0  0  0
  5  4  1  0  0  0  0
  6 17  1  0  0  0  0
  6  1  1  0  0  0  0
  7  1  1  0  0  0  0
  9  2  1  0  0  0  0
 12  4  1  0  0  0  0
 13  4  1  0  0  0  0
 14  5  1  0  0  0  0
 15  5  1  0  0  0  0
 16  6  1  0  0  0  0
 18 19  1  0  0  0  0
 19 24  1  0  0  0  0
 19 20  2  0  0  0  0
 20 25  1  0  0  0  0
 21 20  1  0  0  0  0
 22 21  2  0  0  0  0
 23 18  2  0  0  0  0
 23 22  1  0  0  0  0
 26 30  2  0  0  0  0
 26 22  1  0  0  0  0
 27 26  1  0  0  0  0
 28 27  2  0  0  0  0
 28 29  1  0  0  0  0
 29 30  1  0  0  0  0
 31 28  1  0  0  0  0
 32 29  1  0  0  0  0
 32 33  1  0  0  0  0
 34 33  1  0  0  0  0
M  END
>  <minimizedAffinity>
-5.075109

$$$$

 OpenBabel03242519263D

 34 36  0  0  0  0  0  0  0  0999 V2000
   37.8100   25.8380   40.7270 C   0  0  0  0  0  0  0  0  0  0  0  0
   37.4110   25.9480   39.3280 C   0  0  0  0  0  0  0  0  0  0  0  0
   36.1430   25.2590   38.9850 C   0  0  0  0  0  0  0  0  0  0  0  0
   36.0940   23.8100   39.4450 C   0  0  0  0  0  0  0  0  0  0  0  0
   36.8410   23.5460   40.7270 C   0  0  0  0  0  0  0  0  0  0  0  0
   36.9730   24.8250   41.5280 C   0  0  0  0  0  0  0  0  0  0  0  0
   38.8620   25.4410   40.8410 H   0  0  0  0  0  0  0  0  0  0  0  0
   37.3370   26.9910   39.0280 H   0  0  0  0  0  0  0  0  0  0  0  0
   38.2110   25.4850   38.6800 H   0  0  0  0  0  0  0  0  0  0  0  0
   36.1290   25.1910   37.8560 H   0  0  0  0  0  0  0  0  0  0  0  0
   35.2090   25.7960   39.2210 H   0  0  0  0  0  0  0  0  0  0  0  0
   36.3630   23.0950   38.6430 H   0  0  0  0  0  0  0  0  0  0  0  0
   35.0110   23.5960   39.6720 H   0  0  0  0  0  0  0  0  0  0  0  0
   37.8540   23.1900   40.4070 H   0  0  0  0  0  0  0  0  0  0  0  0
   36.3950   22.7620   41.3380 H   0  0  0  0  0  0  0  0  0  0  0  0
   37.5020   24.6550   42.4640 H   0  0  0  0  0  0  0  0  0  0  0  0
   35.9430   25.2310   41.6450 H   0  0  0  0  0  0  0  0  0  0  0  0
   37.7530   27.1040   41.4710 C   0  0  0  0  0  0  0  0  0  0  0  0
   37.5560   26.9640   42.8570 C   0  0  0  0  0  0  0  0  0  0  0  0
   37.4880   28.1070   43.6800 C   0  0  0  0  0  0  0  0  0  0  0  0
   37.6250   29.3140   43.0480 N   0  0  0  0  0  0  0  0  0  0  0  0
   37.8160   29.4080   41.6940 C   0  0  0  0  0  0  0  0  0  0  0  0
   37.8770   28.3210   40.9420 N   0  0  0  0  0  0  0  0  0  0  0  0
   37.4380   26.0670   43.4480 H   0  0  0  0  0  0  0  0  0  0  0  0
   37.3420   28.0950   44.7300 H   0  0  0  0  0  0  0  0  0  0  0  0
   37.9520   30.7700   41.1850 C   0  0  0  0  0  0  0  0  0  0  0  0
   36.9470   31.2420   40.4140 N   0  0  0  0  0  0  0  0  0  0  0  0
   37.2230   32.5030   40.0340 C   0  0  0  0  0  0  0  0  0  0  0  0
   38.4240   32.8050   40.5860 N   0  0  0  0  0  0  0  0  0  0  0  0
   38.8790   31.7510   41.2920 N   0  0  0  0  0  0  0  0  0  0  0  0
   36.6280   33.1630   39.4150 H   0  0  0  0  0  0  0  0  0  0  0  0
   39.1170   34.0660   40.4410 C   0  0  0  0  0  2  0  0  0  0  0  0
   40.3750   33.8950   39.6160 C   0  0  0  0  0  2  0  0  0  0  0  0
   40.0560   33.8960   38.5370 H   0  0  0  0  0  0  0  0  0  0  0  0
  1  7  1  0  0  0  0
  1 18  1  0  0  0  0
  1  6  1  0  0  0  0
  2  1  1  0  0  0  0
  3 11  1  0  0  0  0
  3  2  1  0  0  0  0
  3  4  1  0  0  0  0
  4 13  1  0  0  0  0
  4  5  1  0  0  0  0
  5 15  1  0  0  0  0
  5  6  1  0  0  0  0
  6 17  1  0  0  0  0
  6 16  1  0  0  0  0
  8  2  1  0  0  0  0
  9  2  1  0  0  0  0
 10  3  1  0  0  0  0
 12  4  1  0  0  0  0
 14  5  1  0  0  0  0
 18 19  1  0  0  0  0
 19 24  1  0  0  0  0
 19 20  2  0  0  0  0
 20 25  1  0  0  0  0
 21 20  1  0  0  0  0
 22 21  2  0  0  0  0
 23 18  2  0  0  0  0
 23 22  1  0  0  0  0
 26 30  2  0  0  0  0
 26 22  1  0  0  0  0
 27 26  1  0  0  0  0
 28 27  2  0  0  0  0
 28 29  1  0  0  0  0
 29 30  1  0  0  0  0
 31 28  1  0  0  0  0
 32 29  1  0  0  0  0
 33 32  1  0  0  0  0
 34 33  1  0  0  0  0
M  END
>  <minimizedAffinity>
-5.06036568

$$$$

 OpenBabel03242519263D

 34 36  0  0  0  0  0  0  0  0999 V2000
   37.6110   29.7290   42.1690 C   0  0  0  0  0  0  0  0  0  0  0  0
   38.8110   29.3740   42.9190 C   0  0  0  0  0  0  0  0  0  0  0  0
   39.1350   27.9260   42.9280 C   0  0  0  0  0  0  0  0  0  0  0  0
   37.9670   27.0440   43.3360 C   0  0  0  0  0  0  0  0  0  0  0  0
   36.6190   27.5710   42.9130 C   0  0  0  0  0  0  0  0  0  0  0  0
   36.7730   28.5120   41.7360 C   0  0  0  0  0  0  0  0  0  0  0  0
   36.8820   30.3300   42.7890 H   0  0  0  0  0  0  0  0  0  0  0  0
   39.6740   29.9250   42.5520 H   0  0  0  0  0  0  0  0  0  0  0  0
   38.6740   29.6770   43.9970 H   0  0  0  0  0  0  0  0  0  0  0  0
   39.8890   27.7890   43.7610 H   0  0  0  0  0  0  0  0  0  0  0  0
   39.6580   27.5310   42.0410 H   0  0  0  0  0  0  0  0  0  0  0  0
   37.9930   26.7620   44.4070 H   0  0  0  0  0  0  0  0  0  0  0  0
   38.1040   26.0730   42.7790 H   0  0  0  0  0  0  0  0  0  0  0  0
   36.2330   28.1330   43.8030 H   0  0  0  0  0  0  0  0  0  0  0  0
   35.8980   26.7890   42.6790 H   0  0  0  0  0  0  0  0  0  0  0  0
   35.8100   28.8990   41.4080 H   0  0  0  0  0  0  0  0  0  0  0  0
   37.3380   27.9520   40.9570 H   0  0  0  0  0  0  0  0  0  0  0  0
   37.8700   30.5080   40.9500 C   0  0  0  0  0  0  0  0  0  0  0  0
   36.8860   31.4640   40.6420 C   0  0  0  0  0  0  0  0  0  0  0  0
   37.0240   32.2770   39.4980 C   0  0  0  0  0  0  0  0  0  0  0  0
   38.1480   32.0700   38.7430 N   0  0  0  0  0  0  0  0  0  0  0  0
   39.0850   31.1270   39.0780 C   0  0  0  0  0  0  0  0  0  0  0  0
   38.9330   30.3760   40.1570 N   0  0  0  0  0  0  0  0  0  0  0  0
   35.9720   31.7050   41.1660 H   0  0  0  0  0  0  0  0  0  0  0  0
   36.3330   33.0200   39.1900 H   0  0  0  0  0  0  0  0  0  0  0  0
   40.2260   31.0440   38.1700 C   0  0  0  0  0  0  0  0  0  0  0  0
   40.7600   32.2120   37.7450 N   0  0  0  0  0  0  0  0  0  0  0  0
   41.7980   31.9620   36.9270 C   0  0  0  0  0  0  0  0  0  0  0  0
   41.8980   30.6110   36.8520 N   0  0  0  0  0  0  0  0  0  0  0  0
   40.9400   30.0400   37.6080 N   0  0  0  0  0  0  0  0  0  0  0  0
   42.4390   32.6720   36.4190 H   0  0  0  0  0  0  0  0  0  0  0  0
   42.8810   29.8880   36.0760 C   0  0  0  0  0  2  0  0  0  0  0  0
   44.1720   30.6740   35.9770 C   0  0  0  0  0  2  0  0  0  0  0  0
   44.7320   30.4950   36.9370 H   0  0  0  0  0  0  0  0  0  0  0  0
  1  7  1  0  0  0  0
  1  2  1  0  0  0  0
  2  3  1  0  0  0  0
  2  9  1  0  0  0  0
  3  4  1  0  0  0  0
  3 10  1  0  0  0  0
  4 12  1  0  0  0  0
  5  4  1  0  0  0  0
  5 14  1  0  0  0  0
  6  1  1  0  0  0  0
  6  5  1  0  0  0  0
  8  2  1  0  0  0  0
 11  3  1  0  0  0  0
 13  4  1  0  0  0  0
 15  5  1  0  0  0  0
 16  6  1  0  0  0  0
 17  6  1  0  0  0  0
 18  1  1  0  0  0  0
 19 18  1  0  0  0  0
 19 24  1  0  0  0  0
 20 19  2  0  0  0  0
 21 22  2  0  0  0  0
 21 20  1  0  0  0  0
 22 23  1  0  0  0  0
 23 18  2  0  0  0  0
 25 20  1  0  0  0  0
 26 22  1  0  0  0  0
 27 26  1  0  0  0  0
 28 27  2  0  0  0  0
 29 28  1  0  0  0  0
 29 30  1  0  0  0  0
 30 26  2  0  0  0  0
 31 28  1  0  0  0  0
 32 29  1  0  0  0  0
 33 32  1  0  0  0  0
 33 34  1  0  0  0  0
M  END
>  <minimizedAffinity>
-5.04062796

$$$$

 OpenBabel03242519263D

 34 36  0  0  0  0  0  0  0  0999 V2000
   31.2710   29.5920   36.9620 C   0  0  0  0  0  0  0  0  0  0  0  0
   30.9500   30.5640   35.9230 C   0  0  0  0  0  0  0  0  0  0  0  0
   30.5180   31.8920   36.4230 C   0  0  0  0  0  0  0  0  0  0  0  0
   29.4030   31.8210   37.4540 C   0  0  0  0  0  0  0  0  0  0  0  0
   29.4560   30.5990   38.3360 C   0  0  0  0  0  0  0  0  0  0  0  0
   30.8660   30.0460   38.3760 C   0  0  0  0  0  0  0  0  0  0  0  0
   30.6980   28.6250   36.8340 H   0  0  0  0  0  0  0  0  0  0  0  0
   31.7910   30.6990   35.2460 H   0  0  0  0  0  0  0  0  0  0  0  0
   30.0980   30.1660   35.2970 H   0  0  0  0  0  0  0  0  0  0  0  0
   30.0420   32.4110   35.5370 H   0  0  0  0  0  0  0  0  0  0  0  0
   31.3160   32.5880   36.7290 H   0  0  0  0  0  0  0  0  0  0  0  0
   28.3990   31.9820   37.0140 H   0  0  0  0  0  0  0  0  0  0  0  0
   29.5610   32.7010   38.1400 H   0  0  0  0  0  0  0  0  0  0  0  0
   28.7690   29.8590   37.8500 H   0  0  0  0  0  0  0  0  0  0  0  0
   29.0910   30.7750   39.3460 H   0  0  0  0  0  0  0  0  0  0  0  0
   30.9290   29.1670   39.0150 H   0  0  0  0  0  0  0  0  0  0  0  0
   31.5260   30.8890   38.6790 H   0  0  0  0  0  0  0  0  0  0  0  0
   32.6940   29.2330   37.0330 C   0  0  0  0  0  0  0  0  0  0  0  0
   33.3550   29.1960   35.7930 C   0  0  0  0  0  0  0  0  0  0  0  0
   34.7250   28.8680   35.7320 C   0  0  0  0  0  0  0  0  0  0  0  0
   35.3350   28.5990   36.9280 N   0  0  0  0  0  0  0  0  0  0  0  0
   34.6540   28.6450   38.1170 C   0  0  0  0  0  0  0  0  0  0  0  0
   33.3680   28.9560   38.1490 N   0  0  0  0  0  0  0  0  0  0  0  0
   32.9700   29.3900   34.8020 H   0  0  0  0  0  0  0  0  0  0  0  0
   35.3010   28.8160   34.8430 H   0  0  0  0  0  0  0  0  0  0  0  0
   35.4580   28.3410   39.2980 C   0  0  0  0  0  0  0  0  0  0  0  0
   36.1940   27.2080   39.2660 N   0  0  0  0  0  0  0  0  0  0  0  0
   36.8750   27.0790   40.4190 C   0  0  0  0  0  0  0  0  0  0  0  0
   36.5440   28.1580   41.1710 N   0  0  0  0  0  0  0  0  0  0  0  0
   35.6770   28.9370   40.4940 N   0  0  0  0  0  0  0  0  0  0  0  0
   37.5530   26.2870   40.7140 H   0  0  0  0  0  0  0  0  0  0  0  0
   37.0430   28.4350   42.5000 C   0  0  0  0  0  2  0  0  0  0  0  0
   36.5320   27.4090   43.4900 C   0  0  0  0  0  2  0  0  0  0  0  0
   37.1910   26.5030   43.3840 H   0  0  0  0  0  0  0  0  0  0  0  0
  1 18  1  0  0  0  0
  1  6  1  0  0  0  0
  2  3  1  0  0  0  0
  2  1  1  0  0  0  0
  3 11  1  0  0  0  0
  3  4  1  0  0  0  0
  4 13  1  0  0  0  0
  4  5  1  0  0  0  0
  5  6  1  0  0  0  0
  5 15  1  0  0  0  0
  6 17  1  0  0  0  0
  6 16  1  0  0  0  0
  7  1  1  0  0  0  0
  8  2  1  0  0  0  0
  9  2  1  0  0  0  0
 10  3  1  0  0  0  0
 12  4  1  0  0  0  0
 14  5  1  0  0  0  0
 18 23  1  0  0  0  0
 19 18  2  0  0  0  0
 20 19  1  0  0  0  0
 20 21  2  0  0  0  0
 21 22  1  0  0  0  0
 22 23  2  0  0  0  0
 22 26  1  0  0  0  0
 24 19  1  0  0  0  0
 25 20  1  0  0  0  0
 26 30  2  0  0  0  0
 27 26  1  0  0  0  0
 27 28  2  0  0  0  0
 28 31  1  0  0  0  0
 28 29  1  0  0  0  0
 29 32  1  0  0  0  0
 30 29  1  0  0  0  0
 32 33  1  0  0  0  0
 34 33  1  0  0  0  0
M  END
>  <minimizedAffinity>
-4.96446514

$$$$

 OpenBabel03242519263D

 34 36  0  0  0  0  0  0  0  0999 V2000
   37.2040   27.1490   42.5850 C   0  0  0  0  0  0  0  0  0  0  0  0
   38.1030   27.5730   43.6530 C   0  0  0  0  0  0  0  0  0  0  0  0
   39.4990   27.0900   43.5210 C   0  0  0  0  0  0  0  0  0  0  0  0
   39.6060   25.5900   43.2940 C   0  0  0  0  0  0  0  0  0  0  0  0
   38.4660   25.0050   42.4990 C   0  0  0  0  0  0  0  0  0  0  0  0
   37.8110   26.0820   41.6570 C   0  0  0  0  0  0  0  0  0  0  0  0
   36.2770   26.6390   42.9840 H   0  0  0  0  0  0  0  0  0  0  0  0
   38.1130   28.6560   43.7430 H   0  0  0  0  0  0  0  0  0  0  0  0
   37.7190   27.1740   44.6370 H   0  0  0  0  0  0  0  0  0  0  0  0
   39.9740   27.2490   44.5370 H   0  0  0  0  0  0  0  0  0  0  0  0
   40.1560   27.6560   42.8400 H   0  0  0  0  0  0  0  0  0  0  0  0
   39.8050   25.0260   44.2260 H   0  0  0  0  0  0  0  0  0  0  0  0
   40.5280   25.4390   42.6640 H   0  0  0  0  0  0  0  0  0  0  0  0
   37.7410   24.6250   43.2650 H   0  0  0  0  0  0  0  0  0  0  0  0
   38.7580   24.1630   41.8740 H   0  0  0  0  0  0  0  0  0  0  0  0
   36.9900   25.6780   41.0670 H   0  0  0  0  0  0  0  0  0  0  0  0
   38.6240   26.5520   41.0600 H   0  0  0  0  0  0  0  0  0  0  0  0
   36.7430   28.2400   41.7160 C   0  0  0  0  0  0  0  0  0  0  0  0
   37.1510   29.5250   42.1170 C   0  0  0  0  0  0  0  0  0  0  0  0
   36.7750   30.6540   41.3600 C   0  0  0  0  0  0  0  0  0  0  0  0
   36.0120   30.4090   40.2490 N   0  0  0  0  0  0  0  0  0  0  0  0
   35.6350   29.1410   39.8920 C   0  0  0  0  0  0  0  0  0  0  0  0
   36.0010   28.0960   40.6180 N   0  0  0  0  0  0  0  0  0  0  0  0
   37.7490   29.8240   42.9660 H   0  0  0  0  0  0  0  0  0  0  0  0
   37.0370   31.6560   41.5880 H   0  0  0  0  0  0  0  0  0  0  0  0
   34.8320   29.0570   38.6760 C   0  0  0  0  0  0  0  0  0  0  0  0
   35.4970   29.0420   37.4990 N   0  0  0  0  0  0  0  0  0  0  0  0
   34.6180   28.9570   36.4840 C   0  0  0  0  0  0  0  0  0  0  0  0
   33.3900   28.9200   37.0560 N   0  0  0  0  0  0  0  0  0  0  0  0
   33.5090   28.9810   38.3970 N   0  0  0  0  0  0  0  0  0  0  0  0
   34.8210   28.9250   35.4210 H   0  0  0  0  0  0  0  0  0  0  0  0
   32.1360   28.8300   36.3400 C   0  0  0  0  0  2  0  0  0  0  0  0
   31.3840   30.1430   36.4070 C   0  0  0  0  0  2  0  0  0  0  0  0
   31.8350   30.8130   35.6240 H   0  0  0  0  0  0  0  0  0  0  0  0
  1  7  1  0  0  0  0
  1  2  1  0  0  0  0
  2  8  1  0  0  0  0
  2  9  1  0  0  0  0
  3  2  1  0  0  0  0
  3 10  1  0  0  0  0
  4  3  1  0  0  0  0
  4 12  1  0  0  0  0
  5 14  1  0  0  0  0
  5  4  1  0  0  0  0
  6  5  1  0  0  0  0
  6  1  1  0  0  0  0
 11  3  1  0  0  0  0
 13  4  1  0  0  0  0
 15  5  1  0  0  0  0
 16  6  1  0  0  0  0
 17  6  1  0  0  0  0
 18 19  1  0  0  0  0
 18  1  1  0  0  0  0
 19 24  1  0  0  0  0
 20 25  1  0  0  0  0
 20 19  2  0  0  0  0
 21 20  1  0  0  0  0
 22 21  2  0  0  0  0
 22 23  1  0  0  0  0
 23 18  2  0  0  0  0
 26 22  1  0  0  0  0
 27 26  1  0  0  0  0
 28 29  1  0  0  0  0
 28 27  2  0  0  0  0
 29 30  1  0  0  0  0
 30 26  2  0  0  0  0
 31 28  1  0  0  0  0
 32 33  1  0  0  0  0
 32 29  1  0  0  0  0
 34 33  1  0  0  0  0
M  END
>  <minimizedAffinity>
-4.9608264

$$$$

 OpenBabel03242519263D

 34 36  0  0  0  0  0  0  0  0999 V2000
   36.9280   28.9700   41.2450 C   0  0  0  0  0  0  0  0  0  0  0  0
   37.4590   29.5180   42.4890 C   0  0  0  0  0  0  0  0  0  0  0  0
   38.4990   28.6870   43.1430 C   0  0  0  0  0  0  0  0  0  0  0  0
   38.0900   27.2350   43.3290 C   0  0  0  0  0  0  0  0  0  0  0  0
   37.1930   26.7040   42.2400 C   0  0  0  0  0  0  0  0  0  0  0  0
   37.3680   27.5200   40.9750 C   0  0  0  0  0  0  0  0  0  0  0  0
   35.8000   28.8930   41.2590 H   0  0  0  0  0  0  0  0  0  0  0  0
   37.8550   30.5190   42.3320 H   0  0  0  0  0  0  0  0  0  0  0  0
   36.6170   29.6210   43.2340 H   0  0  0  0  0  0  0  0  0  0  0  0
   38.5870   29.0860   44.1980 H   0  0  0  0  0  0  0  0  0  0  0  0
   39.5240   28.7780   42.7480 H   0  0  0  0  0  0  0  0  0  0  0  0
   37.6950   27.0250   44.3420 H   0  0  0  0  0  0  0  0  0  0  0  0
   39.0420   26.6350   43.2600 H   0  0  0  0  0  0  0  0  0  0  0  0
   36.1500   26.8280   42.6330 H   0  0  0  0  0  0  0  0  0  0  0  0
   37.3410   25.6460   42.0290 H   0  0  0  0  0  0  0  0  0  0  0  0
   36.7350   27.1470   40.1710 H   0  0  0  0  0  0  0  0  0  0  0  0
   38.4570   27.5170   40.7470 H   0  0  0  0  0  0  0  0  0  0  0  0
   37.2840   29.7410   40.0460 C   0  0  0  0  0  0  0  0  0  0  0  0
   36.4520   29.5190   38.9350 C   0  0  0  0  0  0  0  0  0  0  0  0
   36.6890   30.2050   37.7250 C   0  0  0  0  0  0  0  0  0  0  0  0
   37.7520   31.0690   37.7210 N   0  0  0  0  0  0  0  0  0  0  0  0
   38.5400   31.2580   38.8260 C   0  0  0  0  0  0  0  0  0  0  0  0
   38.2970   30.6030   39.9510 N   0  0  0  0  0  0  0  0  0  0  0  0
   35.5960   28.8660   38.8350 H   0  0  0  0  0  0  0  0  0  0  0  0
   36.1150   30.0980   36.8400 H   0  0  0  0  0  0  0  0  0  0  0  0
   39.6230   32.2210   38.6520 C   0  0  0  0  0  0  0  0  0  0  0  0
   39.7390   33.1910   39.5870 N   0  0  0  0  0  0  0  0  0  0  0  0
   40.7820   33.9860   39.2860 C   0  0  0  0  0  0  0  0  0  0  0  0
   41.3110   33.4900   38.1400 N   0  0  0  0  0  0  0  0  0  0  0  0
   40.6090   32.4100   37.7440 N   0  0  0  0  0  0  0  0  0  0  0  0
   41.1450   34.8510   39.8260 H   0  0  0  0  0  0  0  0  0  0  0  0
   42.4560   34.0340   37.4440 C   0  0  0  0  0  2  0  0  0  0  0  0
   43.7460   33.5170   38.0450 C   0  0  0  0  0  2  0  0  0  0  0  0
   43.9150   32.4920   37.6130 H   0  0  0  0  0  0  0  0  0  0  0  0
  1  7  1  0  0  0  0
  1  2  1  0  0  0  0
  2  3  1  0  0  0  0
  2  9  1  0  0  0  0
  3  4  1  0  0  0  0
  3 10  1  0  0  0  0
  4 12  1  0  0  0  0
  5 14  1  0  0  0  0
  5  4  1  0  0  0  0
  6  1  1  0  0  0  0
  6  5  1  0  0  0  0
  8  2  1  0  0  0  0
 11  3  1  0  0  0  0
 13  4  1  0  0  0  0
 15  5  1  0  0  0  0
 16  6  1  0  0  0  0
 17  6  1  0  0  0  0
 18  1  1  0  0  0  0
 19 18  2  0  0  0  0
 20 19  1  0  0  0  0
 21 20  2  0  0  0  0
 21 22  1  0  0  0  0
 22 23  2  0  0  0  0
 23 18  1  0  0  0  0
 24 19  1  0  0  0  0
 25 20  1  0  0  0  0
 26 22  1  0  0  0  0
 26 27  1  0  0  0  0
 28 27  2  0  0  0  0
 28 31  1  0  0  0  0
 29 28  1  0  0  0  0
 30 29  1  0  0  0  0
 30 26  2  0  0  0  0
 32 33  1  0  0  0  0
 32 29  1  0  0  0  0
 34 33  1  0  0  0  0
M  END
>  <minimizedAffinity>
-4.92093754

$$$$

 OpenBabel03242519263D

 34 36  0  0  0  0  0  0  0  0999 V2000
   37.1600   27.0760   42.4710 C   0  0  0  0  0  0  0  0  0  0  0  0
   37.9700   27.4810   43.6140 C   0  0  0  0  0  0  0  0  0  0  0  0
   39.3840   27.0360   43.5660 C   0  0  0  0  0  0  0  0  0  0  0  0
   39.5460   25.5490   43.2940 C   0  0  0  0  0  0  0  0  0  0  0  0
   38.4810   24.9670   42.4000 C   0  0  0  0  0  0  0  0  0  0  0  0
   37.8590   26.0580   41.5510 C   0  0  0  0  0  0  0  0  0  0  0  0
   36.2210   26.5290   42.7840 H   0  0  0  0  0  0  0  0  0  0  0  0
   37.9450   28.5600   43.7430 H   0  0  0  0  0  0  0  0  0  0  0  0
   37.5280   27.0370   44.5540 H   0  0  0  0  0  0  0  0  0  0  0  0
   39.7820   27.1700   44.6170 H   0  0  0  0  0  0  0  0  0  0  0  0
   40.0720   27.6430   42.9530 H   0  0  0  0  0  0  0  0  0  0  0  0
   39.6940   24.9560   44.2180 H   0  0  0  0  0  0  0  0  0  0  0  0
   40.5140   25.4430   42.7260 H   0  0  0  0  0  0  0  0  0  0  0  0
   37.7140   24.5420   43.0980 H   0  0  0  0  0  0  0  0  0  0  0  0
   38.8370   24.1550   41.7680 H   0  0  0  0  0  0  0  0  0  0  0  0
   37.0920   25.6570   40.8910 H   0  0  0  0  0  0  0  0  0  0  0  0
   38.6990   26.5690   41.0310 H   0  0  0  0  0  0  0  0  0  0  0  0
   36.7330   28.1870   41.6100 C   0  0  0  0  0  0  0  0  0  0  0  0
   37.0490   29.4670   42.1000 C   0  0  0  0  0  0  0  0  0  0  0  0
   36.6950   30.6140   41.3600 C   0  0  0  0  0  0  0  0  0  0  0  0
   36.0450   30.3910   40.1750 N   0  0  0  0  0  0  0  0  0  0  0  0
   35.7550   29.1270   39.7320 C   0  0  0  0  0  0  0  0  0  0  0  0
   36.0990   28.0650   40.4440 N   0  0  0  0  0  0  0  0  0  0  0  0
   37.5540   29.7490   43.0120 H   0  0  0  0  0  0  0  0  0  0  0  0
   36.8920   31.6140   41.6530 H   0  0  0  0  0  0  0  0  0  0  0  0
   35.0690   29.0680   38.4450 C   0  0  0  0  0  0  0  0  0  0  0  0
   33.7330   28.8620   38.4700 N   0  0  0  0  0  0  0  0  0  0  0  0
   33.2560   28.8400   37.2110 C   0  0  0  0  0  0  0  0  0  0  0  0
   34.3270   29.0370   36.4030 N   0  0  0  0  0  0  0  0  0  0  0  0
   35.4410   29.1770   37.1480 N   0  0  0  0  0  0  0  0  0  0  0  0
   32.2340   28.6970   36.8820 H   0  0  0  0  0  0  0  0  0  0  0  0
   34.2850   29.0880   34.9580 C   0  0  0  0  0  2  0  0  0  0  0  0
   35.3280   28.1690   34.3580 C   0  0  0  0  0  2  0  0  0  0  0  0
   34.8930   27.1310   34.3780 H   0  0  0  0  0  0  0  0  0  0  0  0
  1  7  1  0  0  0  0
  1  2  1  0  0  0  0
  2  8  1  0  0  0  0
  2  9  1  0  0  0  0
  3  2  1  0  0  0  0
  3 10  1  0  0  0  0
  4  3  1  0  0  0  0
  4 12  1  0  0  0  0
  5 14  1  0  0  0  0
  5  4  1  0  0  0  0
  6  5  1  0  0  0  0
  6  1  1  0  0  0  0
 11  3  1  0  0  0  0
 13  4  1  0  0  0  0
 15  5  1  0  0  0  0
 16  6  1  0  0  0  0
 17  6  1  0  0  0  0
 18 19  1  0  0  0  0
 18  1  1  0  0  0  0
 19 24  1  0  0  0  0
 20 25  1  0  0  0  0
 20 19  2  0  0  0  0
 21 20  1  0  0  0  0
 22 21  2  0  0  0  0
 22 23  1  0  0  0  0
 23 18  2  0  0  0  0
 26 27  1  0  0  0  0
 26 22  1  0  0  0  0
 28 27  2  0  0  0  0
 29 30  1  0  0  0  0
 29 28  1  0  0  0  0
 30 26  2  0  0  0  0
 31 28  1  0  0  0  0
 32 29  1  0  0  0  0
 33 34  1  0  0  0  0
 33 32  1  0  0  0  0
M  END
>  <minimizedAffinity>
-4.88150597

$$$$

 OpenBabel03242519263D

 34 36  0  0  0  0  0  0  0  0999 V2000
   37.1730   29.6280   42.1350 C   0  0  0  0  0  0  0  0  0  0  0  0
   38.5110   29.6670   42.7130 C   0  0  0  0  0  0  0  0  0  0  0  0
   39.1490   28.3410   42.9000 C   0  0  0  0  0  0  0  0  0  0  0  0
   38.2730   27.3430   43.6420 C   0  0  0  0  0  0  0  0  0  0  0  0
   36.7980   27.5040   43.3780 C   0  0  0  0  0  0  0  0  0  0  0  0
   36.5780   28.2100   42.0550 C   0  0  0  0  0  0  0  0  0  0  0  0
   36.4180   30.1830   42.7660 H   0  0  0  0  0  0  0  0  0  0  0  0
   39.1720   30.2940   42.1190 H   0  0  0  0  0  0  0  0  0  0  0  0
   38.4560   30.1410   43.7360 H   0  0  0  0  0  0  0  0  0  0  0  0
   40.0200   28.5180   43.6020 H   0  0  0  0  0  0  0  0  0  0  0  0
   39.6230   27.8910   42.0120 H   0  0  0  0  0  0  0  0  0  0  0  0
   38.5060   27.2860   44.7230 H   0  0  0  0  0  0  0  0  0  0  0  0
   38.5480   26.3290   43.2330 H   0  0  0  0  0  0  0  0  0  0  0  0
   36.4190   28.1420   44.2190 H   0  0  0  0  0  0  0  0  0  0  0  0
   36.2450   26.5660   43.4020 H   0  0  0  0  0  0  0  0  0  0  0  0
   35.5170   28.3290   41.8410 H   0  0  0  0  0  0  0  0  0  0  0  0
   37.1440   27.6310   41.2920 H   0  0  0  0  0  0  0  0  0  0  0  0
   37.0850   30.1900   40.7800 C   0  0  0  0  0  0  0  0  0  0  0  0
   37.2210   31.5880   40.7130 C   0  0  0  0  0  0  0  0  0  0  0  0
   37.1580   32.2450   39.4660 C   0  0  0  0  0  0  0  0  0  0  0  0
   36.9630   31.4450   38.3720 N   0  0  0  0  0  0  0  0  0  0  0  0
   36.8350   30.0850   38.4800 C   0  0  0  0  0  0  0  0  0  0  0  0
   36.8980   29.4900   39.6610 N   0  0  0  0  0  0  0  0  0  0  0  0
   37.3770   32.3030   41.5070 H   0  0  0  0  0  0  0  0  0  0  0  0
   37.2500   33.2920   39.3230 H   0  0  0  0  0  0  0  0  0  0  0  0
   36.6420   29.3830   37.2140 C   0  0  0  0  0  0  0  0  0  0  0  0
   37.7350   28.8230   36.6490 N   0  0  0  0  0  0  0  0  0  0  0  0
   37.3880   28.2150   35.5000 C   0  0  0  0  0  0  0  0  0  0  0  0
   36.0530   28.4100   35.3630 N   0  0  0  0  0  0  0  0  0  0  0  0
   35.5870   29.1240   36.4060 N   0  0  0  0  0  0  0  0  0  0  0  0
   38.0220   27.6750   34.8070 H   0  0  0  0  0  0  0  0  0  0  0  0
   35.2460   27.9280   34.2630 C   0  0  0  0  0  2  0  0  0  0  0  0
   35.4140   26.4330   34.0890 C   0  0  0  0  0  2  0  0  0  0  0  0
   34.7470   25.9430   34.8520 H   0  0  0  0  0  0  0  0  0  0  0  0
  1  2  1  0  0  0  0
  1  7  1  0  0  0  0
  2  3  1  0  0  0  0
  2  9  1  0  0  0  0
  3 10  1  0  0  0  0
  3  4  1  0  0  0  0
  4 12  1  0  0  0  0
  5 15  1  0  0  0  0
  5  4  1  0  0  0  0
  5 14  1  0  0  0  0
  6  1  1  0  0  0  0
  6  5  1  0  0  0  0
  8  2  1  0  0  0  0
 11  3  1  0  0  0  0
 13  4  1  0  0  0  0
 16  6  1  0  0  0  0
 17  6  1  0  0  0  0
 18  1  1  0  0  0  0
 19 18  1  0  0  0  0
 19 24  1  0  0  0  0
 20 19  2  0  0  0  0
 21 22  2  0  0  0  0
 21 20  1  0  0  0  0
 22 23  1  0  0  0  0
 23 18  2  0  0  0  0
 25 20  1  0  0  0  0
 26 22  1  0  0  0  0
 27 26  1  0  0  0  0
 28 27  2  0  0  0  0
 29 28  1  0  0  0  0
 29 30  1  0  0  0  0
 30 26  2  0  0  0  0
 31 28  1  0  0  0  0
 32 29  1  0  0  0  0
 33 32  1  0  0  0  0
 33 34  1  0  0  0  0
M  END
>  <minimizedAffinity>
-4.83827209

$$$$
