
 OpenBabel03252509123D

 26 28  0  0  0  0  0  0  0  0999 V2000
   46.8230   33.1140   46.3620 C   0  0  0  0  0  0  0  0  0  0  0  0
   46.5630   32.7090   45.0480 C   0  0  0  0  0  0  0  0  0  0  0  0
   45.9210   31.5210   44.7410 C   0  0  0  0  0  0  0  0  0  0  0  0
   45.5060   30.6770   45.7780 C   0  0  0  0  0  0  0  0  0  0  0  0
   44.8760   29.4860   45.8700 N   0  0  0  0  0  0  0  0  0  0  0  0
   44.7330   29.1380   47.1570 C   0  0  0  0  0  0  0  0  0  0  0  0
   45.2910   30.1420   47.8710 N   0  0  0  0  0  0  0  0  0  0  0  0
   45.7740   31.1020   47.0500 C   0  0  0  0  0  0  0  0  0  0  0  0
   46.4070   32.2690   47.3980 C   0  0  0  0  0  0  0  0  0  0  0  0
   47.3350   34.0650   46.5160 H   0  0  0  0  0  0  0  0  0  0  0  0
   44.5850   28.9960   44.9910 H   0  0  0  0  0  0  0  0  0  0  0  0
   44.2630   28.2340   47.5190 H   0  0  0  0  0  0  0  0  0  0  0  0
   46.6120   32.5940   48.4080 H   0  0  0  0  0  0  0  0  0  0  0  0
   48.5880   34.1520   42.3490 C   0  0  0  0  0  0  0  0  0  0  0  0
   47.7860   35.1890   41.8780 C   0  0  0  0  0  0  0  0  0  0  0  0
   46.5570   35.3760   42.4980 C   0  0  0  0  0  0  0  0  0  0  0  0
   46.1760   34.5530   43.5340 N   0  0  0  0  0  0  0  0  0  0  0  0
   46.9890   33.5650   43.9510 C   0  0  0  0  0  0  0  0  0  0  0  0
   48.1940   33.3550   43.3670 N   0  0  0  0  0  0  0  0  0  0  0  0
   49.5670   33.9410   41.9130 H   0  0  0  0  0  0  0  0  0  0  0  0
   48.1310   35.8090   41.0580 H   0  0  0  0  0  0  0  0  0  0  0  0
   45.9450   36.1820   42.1240 H   0  0  0  0  0  0  0  0  0  0  0  0
   45.5900   31.0160   43.0670 S   0  0  0  0  0  0  0  0  0  0  0  0
   44.0410   31.7920   42.5570 C   0  0  0  0  0  2  0  0  0  0  0  0
   44.2900   32.5310   41.2530 C   0  0  0  0  0  2  0  0  0  0  0  0
   45.0040   33.3660   41.4250 H   0  0  0  0  0  0  0  0  0  0  0  0
  1 10  1  0  0  0  0
  1  9  1  0  0  0  0
  2  1  2  0  0  0  0
  3  2  1  0  0  0  0
  3  4  2  0  0  0  0
  4  5  1  0  0  0  0
  4  8  1  0  0  0  0
  5  6  1  0  0  0  0
  6 12  1  0  0  0  0
  6  7  2  0  0  0  0
  8  9  2  0  0  0  0
  8  7  1  0  0  0  0
  9 13  1  0  0  0  0
 11  5  1  0  0  0  0
 14 19  1  0  0  0  0
 15 14  2  0  0  0  0
 15 16  1  0  0  0  0
 16 17  2  0  0  0  0
 17 18  1  0  0  0  0
 18  2  1  0  0  0  0
 19 18  2  0  0  0  0
 20 14  1  0  0  0  0
 21 15  1  0  0  0  0
 22 16  1  0  0  0  0
 23  3  1  0  0  0  0
 24 23  1  0  0  0  0
 25 26  1  0  0  0  0
 25 24  1  0  0  0  0
M  END
>  <minimizedAffinity>
-4.01981497

>  <minimizedRMSD>
3.07277727

$$$$
