REMARK  Name = 
REMARK  5 active torsions:
REMARK  status: ('A' for Active; 'I' for Inactive)
REMARK    1  A    between atoms: C_3  and  C_10
REMARK    2  A    between atoms: C_4  and  C_15
REMARK    3  A    between atoms: C_14  and  S_20
REMARK    4  A    between atoms: S_20  and  C_33
REMARK    5  A    between atoms: C_33  and  C_34
REMARK                            x       y       z     vdW  Elec       q    Type
REMARK                         _______ _______ _______ _____ _____    ______ ____
ROOT
ATOM      1 CL   UNL     1      45.282  35.291  43.120  0.00  0.00    +0.000 Cl
ATOM      2  C   UNL     1      45.167  34.536  41.557  0.00  0.00    +0.000 A 
ATOM      3  C   UNL     1      46.274  34.152  40.882  0.00  0.00    +0.000 A 
ATOM      4  C   UNL     1      46.070  33.557  39.642  0.00  0.00    +0.000 A 
ATOM      5  C   UNL     1      44.820  33.361  39.110  0.00  0.00    +0.000 A 
ATOM      6  C   UNL     1      43.721  33.757  39.810  0.00  0.00    +0.000 A 
ATOM      7  C   UNL     1      43.904  34.349  41.044  0.00  0.00    +0.000 A 
ATOM      8  H   UNL     1      44.676  32.899  38.145  0.00  0.00    +0.000 HD
ATOM      9  H   UNL     1      42.725  33.614  39.415  0.00  0.00    +0.000 HD
ATOM     10  H   UNL     1      43.022  34.658  41.589  0.00  0.00    +0.000 HD
ENDROOT
BRANCH   4  12
ATOM     11  C   UNL     1      47.812  31.892  38.977  0.00  0.00    +0.000 A 
ATOM     12  C   UNL     1      47.224  33.117  38.880  0.00  0.00    +0.000 A 
ATOM     13  C   UNL     1      47.761  34.021  37.982  0.00  0.00    +0.000 A 
ATOM     14  C   UNL     1      48.850  33.694  37.212  0.00  0.00    +0.000 A 
ATOM     15  C   UNL     1      49.452  32.447  37.306  0.00  0.00    +0.000 A 
ATOM     16  C   UNL     1      48.916  31.535  38.209  0.00  0.00    +0.000 A 
ATOM     17  H   UNL     1      47.326  35.008  37.871  0.00  0.00    +0.000 HD
ATOM     18  H   UNL     1      49.250  34.416  36.519  0.00  0.00    +0.000 HD
ATOM     19  H   UNL     1      50.295  32.204  36.704  0.00  0.00    +0.000 HD
ATOM     20  H   UNL     1      49.381  30.559  38.287  0.00  0.00    +0.000 HD
BRANCH  11  21
ATOM     21  S   UNL     1      47.191  30.718  40.032  0.00  0.00    +0.000 S 
ATOM     22  O   UNL     1      46.778  29.447  39.323  0.00  0.00    +0.000 OA
ATOM     23  O   UNL     1      48.405  30.270  40.889  0.00  0.00    +0.000 OA
BRANCH  21  24
ATOM     24  C   UNL     1      46.006  30.979  41.215  0.00  0.00    +0.000 C 
BRANCH  24  25
ATOM     25  C   UNL     1      45.034  29.764  41.062  0.00  0.00    +0.000 C 
ATOM     26  H   UNL     1      45.620  28.855  41.373  0.00  0.00    +0.000 HD
ENDBRANCH  24  25
ENDBRANCH  21  24
ENDBRANCH  11  21
ENDBRANCH   4  12
BRANCH   3  29
ATOM     27  C   UNL     1      49.544  35.745  41.888  0.00  0.00    +0.000 A 
ATOM     28  C   UNL     1      48.287  35.547  41.312  0.00  0.00    +0.000 A 
ATOM     29  C   UNL     1      47.578  34.370  41.470  0.00  0.00    +0.000 A 
ATOM     30  N   UNL     1      48.196  33.432  42.219  0.00  0.00    +0.000 NA
ATOM     31  C   UNL     1      49.406  33.610  42.779  0.00  0.00    +0.000 A 
ATOM     32  N   UNL     1      50.065  34.758  42.610  0.00  0.00    +0.000 NA
ATOM     33  H   UNL     1      50.040  36.689  41.724  0.00  0.00    +0.000 HD
ATOM     34  H   UNL     1      47.864  36.346  40.728  0.00  0.00    +0.000 HD
ATOM     35  H   UNL     1      49.837  32.812  43.368  0.00  0.00    +0.000 HD
ENDBRANCH   3  29
TORSDOF 5
