
 OpenBabel03242518273D

 15 15  0  0  0  0  0  0  0  0999 V2000
   46.1750   34.3390   43.5370 C   0  0  0  0  0  0  0  0  0  0  0  0
   45.5060   35.5070   43.2280 C   0  0  0  0  0  0  0  0  0  0  0  0
   44.6780   36.0710   44.2020 C   0  0  0  0  0  0  0  0  0  0  0  0
   44.5730   35.4450   45.4020 N   0  0  0  0  0  0  0  0  0  0  0  0
   45.2530   34.2890   45.6700 C   0  0  0  0  0  0  0  0  0  0  0  0
   46.0380   33.7690   44.7230 N   0  0  0  0  0  0  0  0  0  0  0  0
   45.5430   36.0510   42.3060 H   0  0  0  0  0  0  0  0  0  0  0  0
   44.1290   36.9870   44.0140 H   0  0  0  0  0  0  0  0  0  0  0  0
   45.1780   33.7790   46.6220 H   0  0  0  0  0  0  0  0  0  0  0  0
   46.9990   33.8330   42.4800 C   0  0  0  0  0  0  0  0  0  0  0  0
   47.6570   32.7550   42.4960 O   0  0  0  0  0  0  0  0  0  0  0  0
   47.0500   34.6350   41.3450 O   0  0  0  0  0  0  0  0  0  0  0  0
   48.2750   34.9600   40.7000 C   0  0  0  0  0  0  0  0  0  0  0  0
   49.1030   35.9380   41.5370 C   0  0  0  0  0  0  0  0  0  0  0  0
   49.5800   36.7180   40.9140 H   0  0  0  0  0  0  0  0  0  0  0  0
  1  6  1  0  0  0  0
  2  1  2  0  0  0  0
  2  3  1  0  0  0  0
  3  4  2  0  0  0  0
  4  5  1  0  0  0  0
  5  9  1  0  0  0  0
  6  5  2  0  0  0  0
  7  2  1  0  0  0  0
  8  3  1  0  0  0  0
 10 11  2  0  0  0  0
 10  1  1  0  0  0  0
 12 10  1  0  0  0  0
 13 12  1  0  0  0  0
 13 14  1  0  0  0  0
 15 14  1  0  0  0  0
M  END
>  <minimizedAffinity>
-3.77157116

>  <minimizedRMSD>
1.58840597

$$$$
