
 OpenBabel03242518293D

 15 15  0  0  0  0  0  0  0  0999 V2000
   36.9070   29.3140   41.7300 C   0  0  0  0  0  0  0  0  0  0  0  0
   36.4130   28.0590   42.0260 C   0  0  0  0  0  0  0  0  0  0  0  0
   37.1440   27.2490   42.9000 C   0  0  0  0  0  0  0  0  0  0  0  0
   38.3020   27.7360   43.4140 N   0  0  0  0  0  0  0  0  0  0  0  0
   38.7590   28.9860   43.0970 C   0  0  0  0  0  0  0  0  0  0  0  0
   38.0420   29.7400   42.2590 N   0  0  0  0  0  0  0  0  0  0  0  0
   35.5110   27.6130   41.6570 H   0  0  0  0  0  0  0  0  0  0  0  0
   36.8030   26.2550   43.1660 H   0  0  0  0  0  0  0  0  0  0  0  0
   39.6800   29.3870   43.4990 H   0  0  0  0  0  0  0  0  0  0  0  0
   36.0940   30.0710   40.8280 C   0  0  0  0  0  0  0  0  0  0  0  0
   35.0980   29.6440   40.1790 O   0  0  0  0  0  0  0  0  0  0  0  0
   36.4700   31.4020   40.6810 O   0  0  0  0  0  0  0  0  0  0  0  0
   37.0070   31.9090   39.4650 C   0  0  0  0  0  2  0  0  0  0  0  0
   37.3640   33.3930   39.5900 C   0  0  0  0  0  2  0  0  0  0  0  0
   37.0840   33.9670   38.6870 H   0  0  0  0  0  0  0  0  0  0  0  0
  1  2  2  0  0  0  0
  1  6  1  0  0  0  0
  2  3  1  0  0  0  0
  3  8  1  0  0  0  0
  3  4  2  0  0  0  0
  5  4  1  0  0  0  0
  5  9  1  0  0  0  0
  6  5  2  0  0  0  0
  7  2  1  0  0  0  0
 10  1  1  0  0  0  0
 11 10  2  0  0  0  0
 12 10  1  0  0  0  0
 13 14  1  0  0  0  0
 13 12  1  0  0  0  0
 15 14  1  0  0  0  0
M  END
>  <minimizedAffinity>
-3.47719073

$$$$

 OpenBabel03242518293D

 15 15  0  0  0  0  0  0  0  0999 V2000
   37.5870   31.1880   40.9610 C   0  0  0  0  0  0  0  0  0  0  0  0
   36.9170   31.9820   40.0520 C   0  0  0  0  0  0  0  0  0  0  0  0
   37.5780   33.1020   39.5400 C   0  0  0  0  0  0  0  0  0  0  0  0
   38.8430   33.3540   39.9600 N   0  0  0  0  0  0  0  0  0  0  0  0
   39.4740   32.5430   40.8630 C   0  0  0  0  0  0  0  0  0  0  0  0
   38.8220   31.4780   41.3380 N   0  0  0  0  0  0  0  0  0  0  0  0
   35.9220   31.8430   39.6780 H   0  0  0  0  0  0  0  0  0  0  0  0
   37.0990   33.7610   38.8230 H   0  0  0  0  0  0  0  0  0  0  0  0
   40.4830   32.7320   41.2070 H   0  0  0  0  0  0  0  0  0  0  0  0
   36.8350   30.0650   41.4320 C   0  0  0  0  0  0  0  0  0  0  0  0
   35.7760   29.6050   40.9190 O   0  0  0  0  0  0  0  0  0  0  0  0
   37.3560   29.4480   42.5650 O   0  0  0  0  0  0  0  0  0  0  0  0
   37.5160   28.0370   42.6550 C   0  0  0  0  0  2  0  0  0  0  0  0
   36.5470   27.4300   43.6730 C   0  0  0  0  0  2  0  0  0  0  0  0
   37.0260   26.6450   44.2870 H   0  0  0  0  0  0  0  0  0  0  0  0
  1  6  1  0  0  0  0
  1 10  1  0  0  0  0
  2  1  2  0  0  0  0
  3  4  2  0  0  0  0
  3  2  1  0  0  0  0
  4  5  1  0  0  0  0
  5  9  1  0  0  0  0
  5  6  2  0  0  0  0
  7  2  1  0  0  0  0
  8  3  1  0  0  0  0
 10 12  1  0  0  0  0
 11 10  2  0  0  0  0
 12 13  1  0  0  0  0
 13 14  1  0  0  0  0
 14 15  1  0  0  0  0
M  END
>  <minimizedAffinity>
-3.32059908

$$$$

 OpenBabel03242518293D

 15 15  0  0  0  0  0  0  0  0999 V2000
   38.2230   26.7100   42.9610 C   0  0  0  0  0  0  0  0  0  0  0  0
   39.4100   26.7230   43.6660 C   0  0  0  0  0  0  0  0  0  0  0  0
   40.1830   25.5590   43.6800 C   0  0  0  0  0  0  0  0  0  0  0  0
   39.7290   24.4740   43.0000 N   0  0  0  0  0  0  0  0  0  0  0  0
   38.5470   24.5020   42.3140 C   0  0  0  0  0  0  0  0  0  0  0  0
   37.8260   25.6260   42.3150 N   0  0  0  0  0  0  0  0  0  0  0  0
   39.8260   27.5400   44.2210 H   0  0  0  0  0  0  0  0  0  0  0  0
   41.1240   25.5130   44.2170 H   0  0  0  0  0  0  0  0  0  0  0  0
   38.1730   23.6450   41.7680 H   0  0  0  0  0  0  0  0  0  0  0  0
   37.4980   27.9440   43.0030 C   0  0  0  0  0  0  0  0  0  0  0  0
   37.8540   29.0020   43.5940 O   0  0  0  0  0  0  0  0  0  0  0  0
   36.2910   27.9360   42.3100 O   0  0  0  0  0  0  0  0  0  0  0  0
   36.0840   28.7130   41.1370 C   0  0  0  0  0  2  0  0  0  0  0  0
   36.2000   27.8560   39.8740 C   0  0  0  0  0  2  0  0  0  0  0  0
   36.7470   28.3770   39.0660 H   0  0  0  0  0  0  0  0  0  0  0  0
  1 10  1  0  0  0  0
  1  2  1  0  0  0  0
  2  3  2  0  0  0  0
  2  7  1  0  0  0  0
  3  8  1  0  0  0  0
  4  3  1  0  0  0  0
  5  6  1  0  0  0  0
  5  4  2  0  0  0  0
  6  1  2  0  0  0  0
  9  5  1  0  0  0  0
 10 11  2  0  0  0  0
 12 10  1  0  0  0  0
 13 12  1  0  0  0  0
 14 13  1  0  0  0  0
 15 14  1  0  0  0  0
M  END
>  <minimizedAffinity>
-3.29599881

$$$$

 OpenBabel03242518293D

 15 15  0  0  0  0  0  0  0  0999 V2000
   36.8250   28.7210   41.8540 C   0  0  0  0  0  0  0  0  0  0  0  0
   35.7210   28.7590   41.0260 C   0  0  0  0  0  0  0  0  0  0  0  0
   35.5670   29.8590   40.1780 C   0  0  0  0  0  0  0  0  0  0  0  0
   36.5100   30.8350   40.2090 N   0  0  0  0  0  0  0  0  0  0  0  0
   37.5910   30.7610   41.0430 C   0  0  0  0  0  0  0  0  0  0  0  0
   37.7160   29.6990   41.8440 N   0  0  0  0  0  0  0  0  0  0  0  0
   34.9410   28.0270   40.9510 H   0  0  0  0  0  0  0  0  0  0  0  0
   34.7180   29.9400   39.5080 H   0  0  0  0  0  0  0  0  0  0  0  0
   38.3510   31.5320   41.0790 H   0  0  0  0  0  0  0  0  0  0  0  0
   36.9000   27.5600   42.6870 C   0  0  0  0  0  0  0  0  0  0  0  0
   36.1630   27.3020   43.6790 O   0  0  0  0  0  0  0  0  0  0  0  0
   37.8940   26.6520   42.3340 O   0  0  0  0  0  0  0  0  0  0  0  0
   37.7180   25.7030   41.2890 C   0  0  0  0  0  2  0  0  0  0  0  0
   36.9350   24.4790   41.7750 C   0  0  0  0  0  2  0  0  0  0  0  0
   37.3510   23.5340   41.3770 H   0  0  0  0  0  0  0  0  0  0  0  0
  1 10  1  0  0  0  0
  2  1  2  0  0  0  0
  3  4  2  0  0  0  0
  3  2  1  0  0  0  0
  4  5  1  0  0  0  0
  5  9  1  0  0  0  0
  5  6  2  0  0  0  0
  6  1  1  0  0  0  0
  7  2  1  0  0  0  0
  8  3  1  0  0  0  0
 10 11  2  0  0  0  0
 12 10  1  0  0  0  0
 13 14  1  0  0  0  0
 13 12  1  0  0  0  0
 15 14  1  0  0  0  0
M  END
>  <minimizedAffinity>
-3.2536726

$$$$

 OpenBabel03242518293D

 15 15  0  0  0  0  0  0  0  0999 V2000
   38.0870   29.7280   42.0790 C   0  0  0  0  0  0  0  0  0  0  0  0
   38.2620   29.0940   43.2930 C   0  0  0  0  0  0  0  0  0  0  0  0
   37.4110   28.0330   43.6130 C   0  0  0  0  0  0  0  0  0  0  0  0
   36.4550   27.6780   42.7170 N   0  0  0  0  0  0  0  0  0  0  0  0
   36.3130   28.3320   41.5240 C   0  0  0  0  0  0  0  0  0  0  0  0
   37.1400   29.3420   41.2400 N   0  0  0  0  0  0  0  0  0  0  0  0
   38.9920   29.3200   44.0440 H   0  0  0  0  0  0  0  0  0  0  0  0
   37.5030   27.4990   44.5530 H   0  0  0  0  0  0  0  0  0  0  0  0
   35.5560   28.0600   40.8000 H   0  0  0  0  0  0  0  0  0  0  0  0
   39.0020   30.8020   41.8360 C   0  0  0  0  0  0  0  0  0  0  0  0
   39.9410   31.1710   42.5950 O   0  0  0  0  0  0  0  0  0  0  0  0
   38.8050   31.4760   40.6350 O   0  0  0  0  0  0  0  0  0  0  0  0
   38.3200   32.8120   40.5860 C   0  0  0  0  0  2  0  0  0  0  0  0
   37.3200   33.0000   39.4410 C   0  0  0  0  0  2  0  0  0  0  0  0
   37.4670   33.9610   38.9130 H   0  0  0  0  0  0  0  0  0  0  0  0
  1  2  1  0  0  0  0
  2  3  2  0  0  0  0
  2  7  1  0  0  0  0
  3  8  1  0  0  0  0
  4  3  1  0  0  0  0
  5  4  2  0  0  0  0
  6  5  1  0  0  0  0
  6  1  2  0  0  0  0
  9  5  1  0  0  0  0
 10  1  1  0  0  0  0
 10 11  2  0  0  0  0
 12 10  1  0  0  0  0
 13 12  1  0  0  0  0
 14 13  1  0  0  0  0
 15 14  1  0  0  0  0
M  END
>  <minimizedAffinity>
-3.24507189

$$$$

 OpenBabel03242518293D

 15 15  0  0  0  0  0  0  0  0999 V2000
   38.2370   26.8250   42.9320 C   0  0  0  0  0  0  0  0  0  0  0  0
   37.6620   25.7530   42.2790 C   0  0  0  0  0  0  0  0  0  0  0  0
   38.3190   24.5210   42.3240 C   0  0  0  0  0  0  0  0  0  0  0  0
   39.4890   24.4380   43.0080 N   0  0  0  0  0  0  0  0  0  0  0  0
   40.0270   25.5230   43.6430 C   0  0  0  0  0  0  0  0  0  0  0  0
   39.3800   26.6900   43.5850 N   0  0  0  0  0  0  0  0  0  0  0  0
   36.7450   25.7480   41.7230 H   0  0  0  0  0  0  0  0  0  0  0  0
   37.9130   23.6460   41.8290 H   0  0  0  0  0  0  0  0  0  0  0  0
   40.9590   25.4720   44.1910 H   0  0  0  0  0  0  0  0  0  0  0  0
   37.4960   28.0460   42.8320 C   0  0  0  0  0  0  0  0  0  0  0  0
   37.8320   29.1670   43.3060 O   0  0  0  0  0  0  0  0  0  0  0  0
   36.2960   27.9430   42.1360 O   0  0  0  0  0  0  0  0  0  0  0  0
   35.9500   28.8360   41.0840 C   0  0  0  0  0  2  0  0  0  0  0  0
   35.9920   28.1360   39.7230 C   0  0  0  0  0  2  0  0  0  0  0  0
   36.4410   28.7740   38.9390 H   0  0  0  0  0  0  0  0  0  0  0  0
  1  6  1  0  0  0  0
  2  3  1  0  0  0  0
  2  1  2  0  0  0  0
  3  4  2  0  0  0  0
  4  5  1  0  0  0  0
  5  9  1  0  0  0  0
  6  5  2  0  0  0  0
  7  2  1  0  0  0  0
  8  3  1  0  0  0  0
 10  1  1  0  0  0  0
 10 11  2  0  0  0  0
 12 10  1  0  0  0  0
 13 12  1  0  0  0  0
 14 13  1  0  0  0  0
 15 14  1  0  0  0  0
M  END
>  <minimizedAffinity>
-3.24138689

$$$$

 OpenBabel03242518293D

 15 15  0  0  0  0  0  0  0  0999 V2000
   36.9340   29.1340   41.8060 C   0  0  0  0  0  0  0  0  0  0  0  0
   36.4950   27.8790   42.1800 C   0  0  0  0  0  0  0  0  0  0  0  0
   37.2920   27.1310   43.0500 C   0  0  0  0  0  0  0  0  0  0  0  0
   38.4580   27.6730   43.4850 N   0  0  0  0  0  0  0  0  0  0  0  0
   38.8590   28.9210   43.0920 C   0  0  0  0  0  0  0  0  0  0  0  0
   38.0790   29.6160   42.2600 N   0  0  0  0  0  0  0  0  0  0  0  0
   35.5900   27.3910   41.8750 H   0  0  0  0  0  0  0  0  0  0  0  0
   36.9960   26.1390   43.3750 H   0  0  0  0  0  0  0  0  0  0  0  0
   39.7860   29.3660   43.4310 H   0  0  0  0  0  0  0  0  0  0  0  0
   36.0550   29.8270   40.9140 C   0  0  0  0  0  0  0  0  0  0  0  0
   36.0520   31.0670   40.6800 O   0  0  0  0  0  0  0  0  0  0  0  0
   35.1320   29.0170   40.2600 O   0  0  0  0  0  0  0  0  0  0  0  0
   35.2020   28.7620   38.8630 C   0  0  0  0  0  2  0  0  0  0  0  0
   33.8160   28.8320   38.2140 C   0  0  0  0  0  2  0  0  0  0  0  0
   33.6660   28.0310   37.4660 H   0  0  0  0  0  0  0  0  0  0  0  0
  1  2  2  0  0  0  0
  1  6  1  0  0  0  0
  2  3  1  0  0  0  0
  3  8  1  0  0  0  0
  3  4  2  0  0  0  0
  5  9  1  0  0  0  0
  5  4  1  0  0  0  0
  6  5  2  0  0  0  0
  7  2  1  0  0  0  0
 10  1  1  0  0  0  0
 11 10  2  0  0  0  0
 12 10  1  0  0  0  0
 13 12  1  0  0  0  0
 14 13  1  0  0  0  0
 15 14  1  0  0  0  0
M  END
>  <minimizedAffinity>
-3.23463821

$$$$

 OpenBabel03242518293D

 15 15  0  0  0  0  0  0  0  0999 V2000
   38.1630   26.6910   42.7670 C   0  0  0  0  0  0  0  0  0  0  0  0
   39.3250   26.7830   43.5080 C   0  0  0  0  0  0  0  0  0  0  0  0
   40.0930   25.6270   43.6780 C   0  0  0  0  0  0  0  0  0  0  0  0
   39.6600   24.4740   43.1070 N   0  0  0  0  0  0  0  0  0  0  0  0
   38.5030   24.4240   42.3800 C   0  0  0  0  0  0  0  0  0  0  0  0
   37.7860   25.5410   42.2320 N   0  0  0  0  0  0  0  0  0  0  0  0
   39.7240   27.6560   43.9840 H   0  0  0  0  0  0  0  0  0  0  0  0
   41.0150   25.6420   44.2500 H   0  0  0  0  0  0  0  0  0  0  0  0
   38.1460   23.5120   41.9200 H   0  0  0  0  0  0  0  0  0  0  0  0
   37.4410   27.9210   42.6460 C   0  0  0  0  0  0  0  0  0  0  0  0
   36.2820   28.0640   42.1660 O   0  0  0  0  0  0  0  0  0  0  0  0
   38.1160   29.0420   43.1170 O   0  0  0  0  0  0  0  0  0  0  0  0
   38.4900   30.1170   42.2640 C   0  0  0  0  0  2  0  0  0  0  0  0
   39.8990   30.6220   42.5890 C   0  0  0  0  0  2  0  0  0  0  0  0
   39.9640   31.7260   42.5550 H   0  0  0  0  0  0  0  0  0  0  0  0
  1  2  1  0  0  0  0
  2  3  2  0  0  0  0
  2  7  1  0  0  0  0
  3  8  1  0  0  0  0
  4  3  1  0  0  0  0
  5  4  2  0  0  0  0
  6  5  1  0  0  0  0
  6  1  2  0  0  0  0
  9  5  1  0  0  0  0
 10  1  1  0  0  0  0
 10 12  1  0  0  0  0
 11 10  2  0  0  0  0
 13 14  1  0  0  0  0
 13 12  1  0  0  0  0
 15 14  1  0  0  0  0
M  END
>  <minimizedAffinity>
-3.22271824

$$$$

 OpenBabel03242518293D

 15 15  0  0  0  0  0  0  0  0999 V2000
   37.5450   30.6030   41.2820 C   0  0  0  0  0  0  0  0  0  0  0  0
   38.8730   30.8640   41.5560 C   0  0  0  0  0  0  0  0  0  0  0  0
   39.4410   32.0270   41.0290 C   0  0  0  0  0  0  0  0  0  0  0  0
   38.6600   32.8430   40.2760 N   0  0  0  0  0  0  0  0  0  0  0  0
   37.3480   32.5500   40.0270 C   0  0  0  0  0  0  0  0  0  0  0  0
   36.8280   31.4330   40.5420 N   0  0  0  0  0  0  0  0  0  0  0  0
   39.5450   30.2660   42.1400 H   0  0  0  0  0  0  0  0  0  0  0  0
   40.4800   32.2810   41.2130 H   0  0  0  0  0  0  0  0  0  0  0  0
   36.7140   33.1910   39.4280 H   0  0  0  0  0  0  0  0  0  0  0  0
   37.0490   29.3910   41.8600 C   0  0  0  0  0  0  0  0  0  0  0  0
   36.2580   28.5720   41.3160 O   0  0  0  0  0  0  0  0  0  0  0  0
   37.5090   29.1290   43.1470 O   0  0  0  0  0  0  0  0  0  0  0  0
   37.5640   27.8110   43.6780 C   0  0  0  0  0  2  0  0  0  0  0  0
   38.9490   27.1880   43.4820 C   0  0  0  0  0  2  0  0  0  0  0  0
   38.8890   26.1250   43.1830 H   0  0  0  0  0  0  0  0  0  0  0  0
  1  2  1  0  0  0  0
  1 10  1  0  0  0  0
  2  7  1  0  0  0  0
  3  8  1  0  0  0  0
  3  2  2  0  0  0  0
  4  3  1  0  0  0  0
  5  4  2  0  0  0  0
  5  6  1  0  0  0  0
  6  1  2  0  0  0  0
  9  5  1  0  0  0  0
 10 12  1  0  0  0  0
 11 10  2  0  0  0  0
 12 13  1  0  0  0  0
 14 13  1  0  0  0  0
 15 14  1  0  0  0  0
M  END
>  <minimizedAffinity>
-3.1642375

$$$$
