
 OpenBabel03252500503D

 23 24  0  0  0  0  0  0  0  0999 V2000
   39.0750   28.0840   41.4240 C   0  0  0  0  0  0  0  0  0  0  0  0
   37.9060   27.5540   41.9440 C   0  0  0  0  0  0  0  0  0  0  0  0
   36.7580   28.3560   42.0730 C   0  0  0  0  0  0  0  0  0  0  0  0
   36.8560   29.6650   41.6680 N   0  0  0  0  0  0  0  0  0  0  0  0
   37.9950   30.1540   41.1700 C   0  0  0  0  0  0  0  0  0  0  0  0
   39.0930   29.3730   41.0490 N   0  0  0  0  0  0  0  0  0  0  0  0
   39.9690   27.4880   41.3160 H   0  0  0  0  0  0  0  0  0  0  0  0
   35.8390   27.9540   42.4770 H   0  0  0  0  0  0  0  0  0  0  0  0
   38.0730   31.5430   40.7480 C   0  0  0  0  0  0  0  0  0  0  0  0
   37.1660   32.1100   39.9120 C   0  0  0  0  0  0  0  0  0  0  0  0
   37.2210   33.4170   39.5020 C   0  0  0  0  0  0  0  0  0  0  0  0
   38.2540   34.1560   39.9760 N   0  0  0  0  0  0  0  0  0  0  0  0
   39.1410   33.6010   40.7920 C   0  0  0  0  0  0  0  0  0  0  0  0
   39.1090   32.3220   41.2100 N   0  0  0  0  0  0  0  0  0  0  0  0
   36.3400   31.5110   39.5360 H   0  0  0  0  0  0  0  0  0  0  0  0
   36.4930   33.8620   38.8360 H   0  0  0  0  0  0  0  0  0  0  0  0
   39.9650   34.2010   41.1670 H   0  0  0  0  0  0  0  0  0  0  0  0
   37.8940   26.1630   42.3460 C   0  0  0  0  0  0  0  0  0  0  0  0
   38.9530   25.7040   42.8470 O   0  0  0  0  0  0  0  0  0  0  0  0
   36.9390   25.1690   42.3050 O   0  0  0  0  0  0  0  0  0  0  0  0
   37.0550   24.1250   41.3820 C   0  0  0  0  0  2  0  0  0  0  0  0
   36.4470   24.4650   40.0410 C   0  0  0  0  0  2  0  0  0  0  0  0
   35.6510   23.7410   39.7700 H   0  0  0  0  0  0  0  0  0  0  0  0
  1  2  1  0  0  0  0
  2  3  2  0  0  0  0
  2 18  1  0  0  0  0
  3  8  1  0  0  0  0
  4  3  1  0  0  0  0
  5  4  2  0  0  0  0
  6  5  1  0  0  0  0
  6  1  2  0  0  0  0
  7  1  1  0  0  0  0
  9  5  1  0  0  0  0
  9 14  1  0  0  0  0
 10  9  2  0  0  0  0
 11 10  1  0  0  0  0
 11 12  2  0  0  0  0
 12 13  1  0  0  0  0
 13 17  1  0  0  0  0
 13 14  2  0  0  0  0
 15 10  1  0  0  0  0
 16 11  1  0  0  0  0
 18 19  2  0  0  0  0
 20 18  1  0  0  0  0
 21 20  1  0  0  0  0
 22 21  1  0  0  0  0
 23 22  1  0  0  0  0
M  END
>  <minimizedAffinity>
-4.2687974

$$$$

 OpenBabel03252500503D

 23 24  0  0  0  0  0  0  0  0999 V2000
   38.9310   27.8950   40.8860 C   0  0  0  0  0  0  0  0  0  0  0  0
   37.8930   27.3890   41.6500 C   0  0  0  0  0  0  0  0  0  0  0  0
   36.8630   28.2360   42.0990 C   0  0  0  0  0  0  0  0  0  0  0  0
   36.9420   29.5610   41.7490 N   0  0  0  0  0  0  0  0  0  0  0  0
   37.9540   30.0270   41.0110 C   0  0  0  0  0  0  0  0  0  0  0  0
   38.9380   29.2030   40.5840 N   0  0  0  0  0  0  0  0  0  0  0  0
   39.7320   27.2640   40.5300 H   0  0  0  0  0  0  0  0  0  0  0  0
   36.0470   27.8530   42.6960 H   0  0  0  0  0  0  0  0  0  0  0  0
   38.0130   31.4340   40.6540 C   0  0  0  0  0  0  0  0  0  0  0  0
   37.1390   32.0120   39.7910 C   0  0  0  0  0  0  0  0  0  0  0  0
   37.1770   33.3370   39.4410 C   0  0  0  0  0  0  0  0  0  0  0  0
   38.1580   34.0830   40.0060 N   0  0  0  0  0  0  0  0  0  0  0  0
   39.0130   33.5180   40.8490 C   0  0  0  0  0  0  0  0  0  0  0  0
   38.9960   32.2210   41.2090 N   0  0  0  0  0  0  0  0  0  0  0  0
   36.3540   31.4080   39.3420 H   0  0  0  0  0  0  0  0  0  0  0  0
   36.4760   33.7910   38.7530 H   0  0  0  0  0  0  0  0  0  0  0  0
   39.7960   34.1230   41.2970 H   0  0  0  0  0  0  0  0  0  0  0  0
   37.8920   25.9770   41.9720 C   0  0  0  0  0  0  0  0  0  0  0  0
   36.8530   25.5140   42.5090 O   0  0  0  0  0  0  0  0  0  0  0  0
   38.8170   24.9660   41.8180 O   0  0  0  0  0  0  0  0  0  0  0  0
   39.4960   24.4630   42.9320 C   0  0  0  0  0  2  0  0  0  0  0  0
   40.5060   25.4390   43.4870 C   0  0  0  0  0  2  0  0  0  0  0  0
   41.5250   25.0000   43.4890 H   0  0  0  0  0  0  0  0  0  0  0  0
  1  2  1  0  0  0  0
  2 18  1  0  0  0  0
  2  3  2  0  0  0  0
  3  8  1  0  0  0  0
  4  3  1  0  0  0  0
  5  4  2  0  0  0  0
  6  1  2  0  0  0  0
  6  5  1  0  0  0  0
  7  1  1  0  0  0  0
  9  5  1  0  0  0  0
  9 14  1  0  0  0  0
 10  9  2  0  0  0  0
 11 10  1  0  0  0  0
 11 12  2  0  0  0  0
 12 13  1  0  0  0  0
 13 14  2  0  0  0  0
 13 17  1  0  0  0  0
 15 10  1  0  0  0  0
 16 11  1  0  0  0  0
 18 19  2  0  0  0  0
 20 18  1  0  0  0  0
 20 21  1  0  0  0  0
 21 22  1  0  0  0  0
 22 23  1  0  0  0  0
M  END
>  <minimizedAffinity>
-4.19177341

$$$$

 OpenBabel03252500503D

 23 24  0  0  0  0  0  0  0  0999 V2000
   38.7080   28.1510   40.7610 C   0  0  0  0  0  0  0  0  0  0  0  0
   38.4570   27.9650   42.1090 C   0  0  0  0  0  0  0  0  0  0  0  0
   38.5470   29.0450   43.0050 C   0  0  0  0  0  0  0  0  0  0  0  0
   38.8920   30.2680   42.4820 N   0  0  0  0  0  0  0  0  0  0  0  0
   39.1300   30.4230   41.1770 C   0  0  0  0  0  0  0  0  0  0  0  0
   39.0390   29.3760   40.3250 N   0  0  0  0  0  0  0  0  0  0  0  0
   38.6450   27.3360   40.0550 H   0  0  0  0  0  0  0  0  0  0  0  0
   38.3530   28.9130   44.0600 H   0  0  0  0  0  0  0  0  0  0  0  0
   39.4930   31.7280   40.6490 C   0  0  0  0  0  0  0  0  0  0  0  0
   38.7870   32.8540   40.9210 C   0  0  0  0  0  0  0  0  0  0  0  0
   39.1120   34.0930   40.4330 C   0  0  0  0  0  0  0  0  0  0  0  0
   40.2070   34.1610   39.6360 N   0  0  0  0  0  0  0  0  0  0  0  0
   40.8960   33.0590   39.3700 C   0  0  0  0  0  0  0  0  0  0  0  0
   40.5990   31.8320   39.8360 N   0  0  0  0  0  0  0  0  0  0  0  0
   37.9110   32.7920   41.5620 H   0  0  0  0  0  0  0  0  0  0  0  0
   38.5450   34.9880   40.6560 H   0  0  0  0  0  0  0  0  0  0  0  0
   41.7720   33.1230   38.7300 H   0  0  0  0  0  0  0  0  0  0  0  0
   38.1000   26.6400   42.5720 C   0  0  0  0  0  0  0  0  0  0  0  0
   36.8800   26.4190   42.7870 O   0  0  0  0  0  0  0  0  0  0  0  0
   38.8260   25.5010   42.8480 O   0  0  0  0  0  0  0  0  0  0  0  0
   39.9970   25.5840   43.6080 C   0  0  0  0  0  2  0  0  0  0  0  0
   41.2110   25.0830   42.8610 C   0  0  0  0  0  2  0  0  0  0  0  0
   41.6980   24.2480   43.4050 H   0  0  0  0  0  0  0  0  0  0  0  0
  1  2  1  0  0  0  0
  2 18  1  0  0  0  0
  2  3  2  0  0  0  0
  3  8  1  0  0  0  0
  4  3  1  0  0  0  0
  5  4  2  0  0  0  0
  6  1  2  0  0  0  0
  6  5  1  0  0  0  0
  7  1  1  0  0  0  0
  9 10  1  0  0  0  0
  9  5  1  0  0  0  0
 10 15  1  0  0  0  0
 11 16  1  0  0  0  0
 11 10  2  0  0  0  0
 12 11  1  0  0  0  0
 13 12  2  0  0  0  0
 13 14  1  0  0  0  0
 14  9  2  0  0  0  0
 17 13  1  0  0  0  0
 18 19  2  0  0  0  0
 18 20  1  0  0  0  0
 20 21  1  0  0  0  0
 22 23  1  0  0  0  0
 22 21  1  0  0  0  0
M  END
>  <minimizedAffinity>
-3.91764641

$$$$

 OpenBabel03252500503D

 23 24  0  0  0  0  0  0  0  0999 V2000
   36.3380   30.5400   40.4080 C   0  0  0  0  0  0  0  0  0  0  0  0
   37.6130   31.0780   40.4350 C   0  0  0  0  0  0  0  0  0  0  0  0
   38.7340   30.2430   40.5910 C   0  0  0  0  0  0  0  0  0  0  0  0
   38.5010   28.8950   40.7120 N   0  0  0  0  0  0  0  0  0  0  0  0
   37.2610   28.3980   40.6830 C   0  0  0  0  0  0  0  0  0  0  0  0
   36.1910   29.2120   40.5320 N   0  0  0  0  0  0  0  0  0  0  0  0
   35.4630   31.1620   40.2900 H   0  0  0  0  0  0  0  0  0  0  0  0
   39.7350   30.6510   40.6130 H   0  0  0  0  0  0  0  0  0  0  0  0
   37.0420   26.9670   40.8130 C   0  0  0  0  0  0  0  0  0  0  0  0
   37.2130   26.3000   41.9820 C   0  0  0  0  0  0  0  0  0  0  0  0
   37.0110   24.9520   42.1270 C   0  0  0  0  0  0  0  0  0  0  0  0
   36.6200   24.2770   41.0170 N   0  0  0  0  0  0  0  0  0  0  0  0
   36.4530   24.9300   39.8740 C   0  0  0  0  0  0  0  0  0  0  0  0
   36.6440   26.2520   39.7070 N   0  0  0  0  0  0  0  0  0  0  0  0
   37.5260   26.8480   42.8680 H   0  0  0  0  0  0  0  0  0  0  0  0
   37.1490   24.4260   43.0630 H   0  0  0  0  0  0  0  0  0  0  0  0
   36.1400   24.3820   38.9910 H   0  0  0  0  0  0  0  0  0  0  0  0
   37.7640   32.5120   40.3000 C   0  0  0  0  0  0  0  0  0  0  0  0
   37.0600   33.0810   39.4270 O   0  0  0  0  0  0  0  0  0  0  0  0
   38.5440   33.4510   40.9420 O   0  0  0  0  0  0  0  0  0  0  0  0
   39.5550   34.1180   40.2420 C   0  0  0  0  0  2  0  0  0  0  0  0
   40.8860   33.4090   40.3280 C   0  0  0  0  0  2  0  0  0  0  0  0
   41.6620   34.0680   40.7690 H   0  0  0  0  0  0  0  0  0  0  0  0
  1  2  2  0  0  0  0
  1  6  1  0  0  0  0
  2  3  1  0  0  0  0
  3  8  1  0  0  0  0
  3  4  2  0  0  0  0
  5  4  1  0  0  0  0
  5  9  1  0  0  0  0
  6  5  2  0  0  0  0
  7  1  1  0  0  0  0
  9 10  1  0  0  0  0
 10 11  2  0  0  0  0
 10 15  1  0  0  0  0
 11 16  1  0  0  0  0
 12 11  1  0  0  0  0
 13 12  2  0  0  0  0
 14 13  1  0  0  0  0
 14  9  2  0  0  0  0
 17 13  1  0  0  0  0
 18  2  1  0  0  0  0
 18 20  1  0  0  0  0
 19 18  2  0  0  0  0
 21 22  1  0  0  0  0
 21 20  1  0  0  0  0
 22 23  1  0  0  0  0
M  END
>  <minimizedAffinity>
-3.90140629

$$$$

 OpenBabel03252500503D

 23 24  0  0  0  0  0  0  0  0999 V2000
   35.9040   29.4590   37.3450 C   0  0  0  0  0  0  0  0  0  0  0  0
   34.9450   28.8150   38.1080 C   0  0  0  0  0  0  0  0  0  0  0  0
   34.7950   29.1260   39.4720 C   0  0  0  0  0  0  0  0  0  0  0  0
   35.6340   30.0790   39.9950 N   0  0  0  0  0  0  0  0  0  0  0  0
   36.5530   30.6870   39.2390 C   0  0  0  0  0  0  0  0  0  0  0  0
   36.6870   30.3800   37.9280 N   0  0  0  0  0  0  0  0  0  0  0  0
   36.0370   29.2360   36.2970 H   0  0  0  0  0  0  0  0  0  0  0  0
   34.0500   28.6300   40.0780 H   0  0  0  0  0  0  0  0  0  0  0  0
   37.4290   31.6930   39.8170 C   0  0  0  0  0  0  0  0  0  0  0  0
   37.3330   33.0120   39.5150 C   0  0  0  0  0  0  0  0  0  0  0  0
   38.1480   33.9770   40.0490 C   0  0  0  0  0  0  0  0  0  0  0  0
   39.0940   33.5530   40.9230 N   0  0  0  0  0  0  0  0  0  0  0  0
   39.1870   32.2630   41.2170 C   0  0  0  0  0  0  0  0  0  0  0  0
   38.4000   31.2970   40.7080 N   0  0  0  0  0  0  0  0  0  0  0  0
   36.5710   33.3450   38.8140 H   0  0  0  0  0  0  0  0  0  0  0  0
   38.0640   35.0280   39.8040 H   0  0  0  0  0  0  0  0  0  0  0  0
   39.9480   31.9320   41.9180 H   0  0  0  0  0  0  0  0  0  0  0  0
   34.1040   27.8220   37.4730 C   0  0  0  0  0  0  0  0  0  0  0  0
   34.4480   26.6180   37.5970 O   0  0  0  0  0  0  0  0  0  0  0  0
   32.9500   27.8930   36.7210 O   0  0  0  0  0  0  0  0  0  0  0  0
   32.4630   29.1350   36.3010 C   0  0  0  0  0  2  0  0  0  0  0  0
   31.4440   29.7120   37.2560 C   0  0  0  0  0  2  0  0  0  0  0  0
   30.4780   29.8960   36.7440 H   0  0  0  0  0  0  0  0  0  0  0  0
  1  6  2  0  0  0  0
  1  2  1  0  0  0  0
  2  3  2  0  0  0  0
  3  4  1  0  0  0  0
  3  8  1  0  0  0  0
  5  9  1  0  0  0  0
  5  4  2  0  0  0  0
  6  5  1  0  0  0  0
  7  1  1  0  0  0  0
  9 14  1  0  0  0  0
 10  9  2  0  0  0  0
 10 11  1  0  0  0  0
 11 12  2  0  0  0  0
 12 13  1  0  0  0  0
 13 17  1  0  0  0  0
 14 13  2  0  0  0  0
 15 10  1  0  0  0  0
 16 11  1  0  0  0  0
 18 19  2  0  0  0  0
 18  2  1  0  0  0  0
 20 18  1  0  0  0  0
 21 20  1  0  0  0  0
 21 22  1  0  0  0  0
 23 22  1  0  0  0  0
M  END
>  <minimizedAffinity>
-3.83464861

$$$$

 OpenBabel03252500503D

 23 24  0  0  0  0  0  0  0  0999 V2000
   37.8920   27.8580   39.5870 C   0  0  0  0  0  0  0  0  0  0  0  0
   37.0460   27.3550   40.5610 C   0  0  0  0  0  0  0  0  0  0  0  0
   36.4180   28.2220   41.4740 C   0  0  0  0  0  0  0  0  0  0  0  0
   36.6840   29.5640   41.3510 N   0  0  0  0  0  0  0  0  0  0  0  0
   37.5040   30.0260   40.4030 C   0  0  0  0  0  0  0  0  0  0  0  0
   38.1020   29.1830   39.5300 N   0  0  0  0  0  0  0  0  0  0  0  0
   38.3850   27.2120   38.8770 H   0  0  0  0  0  0  0  0  0  0  0  0
   35.7550   27.8420   42.2380 H   0  0  0  0  0  0  0  0  0  0  0  0
   37.7680   31.4510   40.2940 C   0  0  0  0  0  0  0  0  0  0  0  0
   38.7840   32.0640   40.9540 C   0  0  0  0  0  0  0  0  0  0  0  0
   39.0500   33.4060   40.8650 C   0  0  0  0  0  0  0  0  0  0  0  0
   38.2320   34.1330   40.0640 N   0  0  0  0  0  0  0  0  0  0  0  0
   37.2390   33.5330   39.4200 C   0  0  0  0  0  0  0  0  0  0  0  0
   36.9570   32.2190   39.4890 N   0  0  0  0  0  0  0  0  0  0  0  0
   39.4360   31.4750   41.5930 H   0  0  0  0  0  0  0  0  0  0  0  0
   39.8630   33.8870   41.3930 H   0  0  0  0  0  0  0  0  0  0  0  0
   36.5890   34.1230   38.7800 H   0  0  0  0  0  0  0  0  0  0  0  0
   36.8250   25.9250   40.6160 C   0  0  0  0  0  0  0  0  0  0  0  0
   36.4300   25.3670   39.5600 O   0  0  0  0  0  0  0  0  0  0  0  0
   36.9520   24.9810   41.6130 O   0  0  0  0  0  0  0  0  0  0  0  0
   38.1770   24.8140   42.2670 C   0  0  0  0  0  2  0  0  0  0  0  0
   39.2750   24.3540   41.3360 C   0  0  0  0  0  2  0  0  0  0  0  0
   39.7080   23.3910   41.6760 H   0  0  0  0  0  0  0  0  0  0  0  0
  1  2  1  0  0  0  0
  2 18  1  0  0  0  0
  2  3  2  0  0  0  0
  3  8  1  0  0  0  0
  4  3  1  0  0  0  0
  5  4  2  0  0  0  0
  6  1  2  0  0  0  0
  6  5  1  0  0  0  0
  7  1  1  0  0  0  0
  9  5  1  0  0  0  0
  9 10  1  0  0  0  0
 10 15  1  0  0  0  0
 11 10  2  0  0  0  0
 11 16  1  0  0  0  0
 12 11  1  0  0  0  0
 13 14  1  0  0  0  0
 13 12  2  0  0  0  0
 14  9  2  0  0  0  0
 17 13  1  0  0  0  0
 18 20  1  0  0  0  0
 19 18  2  0  0  0  0
 20 21  1  0  0  0  0
 22 23  1  0  0  0  0
 22 21  1  0  0  0  0
M  END
>  <minimizedAffinity>
-3.81094933

$$$$

 OpenBabel03252500503D

 23 24  0  0  0  0  0  0  0  0999 V2000
   37.5810   27.3270   39.5990 C   0  0  0  0  0  0  0  0  0  0  0  0
   37.1840   26.8010   40.8160 C   0  0  0  0  0  0  0  0  0  0  0  0
   36.9600   27.6470   41.9180 C   0  0  0  0  0  0  0  0  0  0  0  0
   37.1530   28.9930   41.7250 N   0  0  0  0  0  0  0  0  0  0  0  0
   37.5360   29.4780   40.5410 C   0  0  0  0  0  0  0  0  0  0  0  0
   37.7480   28.6540   39.4890 N   0  0  0  0  0  0  0  0  0  0  0  0
   37.7590   26.6970   38.7400 H   0  0  0  0  0  0  0  0  0  0  0  0
   36.6500   27.2480   42.8730 H   0  0  0  0  0  0  0  0  0  0  0  0
   37.7330   30.9070   40.3630 C   0  0  0  0  0  0  0  0  0  0  0  0
   37.0320   31.6400   39.4620 C   0  0  0  0  0  0  0  0  0  0  0  0
   37.2020   32.9880   39.2790 C   0  0  0  0  0  0  0  0  0  0  0  0
   38.1330   33.5910   40.0590 N   0  0  0  0  0  0  0  0  0  0  0  0
   38.8180   32.8740   40.9390 C   0  0  0  0  0  0  0  0  0  0  0  0
   38.6700   31.5510   41.1390 N   0  0  0  0  0  0  0  0  0  0  0  0
   36.2870   31.1500   38.8400 H   0  0  0  0  0  0  0  0  0  0  0  0
   36.6380   33.5660   38.5580 H   0  0  0  0  0  0  0  0  0  0  0  0
   39.5620   33.3650   41.5600 H   0  0  0  0  0  0  0  0  0  0  0  0
   37.0060   25.3680   40.9280 C   0  0  0  0  0  0  0  0  0  0  0  0
   36.8450   24.9000   42.0850 O   0  0  0  0  0  0  0  0  0  0  0  0
   36.9700   24.3400   40.0100 O   0  0  0  0  0  0  0  0  0  0  0  0
   35.8850   24.2200   39.1350 C   0  0  0  0  0  2  0  0  0  0  0  0
   34.9320   23.1190   39.5390 C   0  0  0  0  0  2  0  0  0  0  0  0
   34.8240   22.3680   38.7300 H   0  0  0  0  0  0  0  0  0  0  0  0
  1  2  1  0  0  0  0
  2 18  1  0  0  0  0
  2  3  2  0  0  0  0
  3  8  1  0  0  0  0
  4  3  1  0  0  0  0
  5  4  2  0  0  0  0
  6  1  2  0  0  0  0
  6  5  1  0  0  0  0
  7  1  1  0  0  0  0
  9  5  1  0  0  0  0
  9 14  1  0  0  0  0
 10  9  2  0  0  0  0
 11 10  1  0  0  0  0
 11 12  2  0  0  0  0
 12 13  1  0  0  0  0
 13 14  2  0  0  0  0
 13 17  1  0  0  0  0
 15 10  1  0  0  0  0
 16 11  1  0  0  0  0
 18 19  2  0  0  0  0
 20 18  1  0  0  0  0
 21 22  1  0  0  0  0
 21 20  1  0  0  0  0
 23 22  1  0  0  0  0
M  END
>  <minimizedAffinity>
-3.80114174

$$$$

 OpenBabel03252500503D

 23 24  0  0  0  0  0  0  0  0999 V2000
   36.6180   27.1880   40.5230 C   0  0  0  0  0  0  0  0  0  0  0  0
   36.5340   28.1770   41.4880 C   0  0  0  0  0  0  0  0  0  0  0  0
   35.9680   29.4270   41.1790 C   0  0  0  0  0  0  0  0  0  0  0  0
   35.5150   29.6110   39.8950 N   0  0  0  0  0  0  0  0  0  0  0  0
   35.6070   28.6420   38.9800 C   0  0  0  0  0  0  0  0  0  0  0  0
   36.1520   27.4440   39.2900 N   0  0  0  0  0  0  0  0  0  0  0  0
   37.0480   26.2220   40.7380 H   0  0  0  0  0  0  0  0  0  0  0  0
   35.8970   30.2070   41.9240 H   0  0  0  0  0  0  0  0  0  0  0  0
   35.1190   28.8620   37.6280 C   0  0  0  0  0  0  0  0  0  0  0  0
   35.9410   29.1440   36.5870 C   0  0  0  0  0  0  0  0  0  0  0  0
   35.5030   29.3550   35.3050 C   0  0  0  0  0  0  0  0  0  0  0  0
   34.1640   29.2700   35.1030 N   0  0  0  0  0  0  0  0  0  0  0  0
   33.3610   28.9950   36.1220 C   0  0  0  0  0  0  0  0  0  0  0  0
   33.7670   28.7830   37.3880 N   0  0  0  0  0  0  0  0  0  0  0  0
   37.0140   29.2100   36.7560 H   0  0  0  0  0  0  0  0  0  0  0  0
   36.1650   29.5790   34.4780 H   0  0  0  0  0  0  0  0  0  0  0  0
   32.2900   28.9290   35.9510 H   0  0  0  0  0  0  0  0  0  0  0  0
   37.0380   27.8950   42.8160 C   0  0  0  0  0  0  0  0  0  0  0  0
   36.2390   27.3610   43.6290 O   0  0  0  0  0  0  0  0  0  0  0  0
   38.2570   28.0860   43.4320 O   0  0  0  0  0  0  0  0  0  0  0  0
   39.1080   26.9980   43.6540 C   0  0  0  0  0  2  0  0  0  0  0  0
   39.9960   26.7040   42.4670 C   0  0  0  0  0  2  0  0  0  0  0  0
   39.8420   25.6680   42.1010 H   0  0  0  0  0  0  0  0  0  0  0  0
  1  7  1  0  0  0  0
  1  2  1  0  0  0  0
  2 18  1  0  0  0  0
  3  2  2  0  0  0  0
  3  8  1  0  0  0  0
  4  3  1  0  0  0  0
  5  6  1  0  0  0  0
  5  4  2  0  0  0  0
  6  1  2  0  0  0  0
  9  5  1  0  0  0  0
 10 15  1  0  0  0  0
 10  9  2  0  0  0  0
 11 10  1  0  0  0  0
 12 11  2  0  0  0  0
 12 13  1  0  0  0  0
 13 14  2  0  0  0  0
 14  9  1  0  0  0  0
 16 11  1  0  0  0  0
 17 13  1  0  0  0  0
 18 20  1  0  0  0  0
 18 19  2  0  0  0  0
 20 21  1  0  0  0  0
 22 21  1  0  0  0  0
 23 22  1  0  0  0  0
M  END
>  <minimizedAffinity>
-3.73759151

$$$$

 OpenBabel03252500503D

 23 24  0  0  0  0  0  0  0  0999 V2000
   37.9040   29.1820   39.4250 C   0  0  0  0  0  0  0  0  0  0  0  0
   37.2440   29.6820   40.5350 C   0  0  0  0  0  0  0  0  0  0  0  0
   37.5680   30.9540   41.0420 C   0  0  0  0  0  0  0  0  0  0  0  0
   38.5520   31.6570   40.3920 N   0  0  0  0  0  0  0  0  0  0  0  0
   39.1760   31.1530   39.3230 C   0  0  0  0  0  0  0  0  0  0  0  0
   38.8550   29.9290   38.8440 N   0  0  0  0  0  0  0  0  0  0  0  0
   37.6720   28.2090   39.0190 H   0  0  0  0  0  0  0  0  0  0  0  0
   37.0590   31.3550   41.9070 H   0  0  0  0  0  0  0  0  0  0  0  0
   40.2150   31.9180   38.6530 C   0  0  0  0  0  0  0  0  0  0  0  0
   40.9380   31.4260   37.6160 C   0  0  0  0  0  0  0  0  0  0  0  0
   41.9210   32.1310   36.9710 C   0  0  0  0  0  0  0  0  0  0  0  0
   42.1600   33.3870   37.4220 N   0  0  0  0  0  0  0  0  0  0  0  0
   41.4530   33.8670   38.4370 C   0  0  0  0  0  0  0  0  0  0  0  0
   40.4830   33.1970   39.0860 N   0  0  0  0  0  0  0  0  0  0  0  0
   40.7400   30.4190   37.2590 H   0  0  0  0  0  0  0  0  0  0  0  0
   42.4930   31.7320   36.1420 H   0  0  0  0  0  0  0  0  0  0  0  0
   41.6510   34.8740   38.7920 H   0  0  0  0  0  0  0  0  0  0  0  0
   36.2180   28.8700   41.1560 C   0  0  0  0  0  0  0  0  0  0  0  0
   35.0720   28.9030   40.6390 O   0  0  0  0  0  0  0  0  0  0  0  0
   36.2050   28.0220   42.2430 O   0  0  0  0  0  0  0  0  0  0  0  0
   37.2820   27.1590   42.4720 C   0  0  0  0  0  2  0  0  0  0  0  0
   37.2160   25.9100   41.6250 C   0  0  0  0  0  2  0  0  0  0  0  0
   37.2010   24.9990   42.2580 H   0  0  0  0  0  0  0  0  0  0  0  0
  1  2  1  0  0  0  0
  2  3  2  0  0  0  0
  2 18  1  0  0  0  0
  3  8  1  0  0  0  0
  4  3  1  0  0  0  0
  5  4  2  0  0  0  0
  6  5  1  0  0  0  0
  6  1  2  0  0  0  0
  7  1  1  0  0  0  0
  9 14  1  0  0  0  0
  9  5  1  0  0  0  0
 10  9  2  0  0  0  0
 11 12  2  0  0  0  0
 11 10  1  0  0  0  0
 12 13  1  0  0  0  0
 13 17  1  0  0  0  0
 13 14  2  0  0  0  0
 15 10  1  0  0  0  0
 16 11  1  0  0  0  0
 18 20  1  0  0  0  0
 19 18  2  0  0  0  0
 20 21  1  0  0  0  0
 22 23  1  0  0  0  0
 22 21  1  0  0  0  0
M  END
>  <minimizedAffinity>
-3.73276615

$$$$
