
     RDKit          3D

 43 44  0  0  0  0  0  0  0  0999 V2000
   47.1726   34.1604   43.0885 N   0  0  0  0  0  0  0  0  0  0  0  0
   46.6549   35.3549   42.5286 C   0  0  0  0  0  0  0  0  0  0  0  0
   45.1763   35.5916   42.7432 C   0  0  0  0  0  0  0  0  0  0  0  0
   44.6519   35.0534   44.0423 C   0  0  0  0  0  0  0  0  0  0  0  0
   45.7486   34.4689   44.9001 C   0  0  0  0  0  0  0  0  0  0  0  0
   46.4109   33.3992   43.9591 C   0  0  2  0  0  0  0  0  0  0  0  0
   48.1489   33.5004   42.2704 C   0  0  0  0  0  0  0  0  0  0  0  0
   47.4596   32.6646   41.2576 C   0  0  0  0  0  0  0  0  0  0  0  0
   49.3266   32.2814   38.0261 C   0  0  0  0  0  0  0  0  0  0  0  0
   48.8078   32.0238   39.3092 C   0  0  0  0  0  0  0  0  0  0  0  0
   47.9973   32.9502   39.9080 C   0  0  0  0  0  0  0  0  0  0  0  0
   47.7331   34.0768   39.2309 N   0  0  0  0  0  0  0  0  0  0  0  0
   48.2348   34.3120   38.0047 C   0  0  0  0  0  0  0  0  0  0  0  0
   49.0299   33.4239   37.3955 N   0  0  0  0  0  0  0  0  0  0  0  0
   47.2007   32.6880   44.8516 O   0  0  0  0  0  0  0  0  0  0  0  0
   46.0047   30.5451   43.8626 O   0  0  0  0  0  0  0  0  0  0  0  0
   46.6522   31.1206   45.1120 P   0  0  2  0  0  0  0  0  0  0  0  0
   45.3982   31.2402   46.2686 O   0  0  0  0  0  0  0  0  0  0  0  0
   47.8472   30.1326   45.7379 O   0  0  0  0  0  0  0  0  0  0  0  0
   46.8648   35.5225   41.4696 H   0  0  0  0  0  0  0  0  0  0  0  0
   47.1737   36.2069   43.0598 H   0  0  0  0  0  0  0  0  0  0  0  0
   45.0043   36.6841   42.6594 H   0  0  0  0  0  0  0  0  0  0  0  0
   44.6539   35.1244   41.8896 H   0  0  0  0  0  0  0  0  0  0  0  0
   43.9021   34.2413   43.8251 H   0  0  0  0  0  0  0  0  0  0  0  0
   44.1193   35.8393   44.5817 H   0  0  0  0  0  0  0  0  0  0  0  0
   46.4729   35.2522   45.1245 H   0  0  0  0  0  0  0  0  0  0  0  0
   45.3123   33.9639   45.7635 H   0  0  0  0  0  0  0  0  0  0  0  0
   45.5505   32.8274   43.5577 H   0  0  0  0  0  0  0  0  0  0  0  0
   48.7735   34.2888   41.7903 H   0  0  0  0  0  0  0  0  0  0  0  0
   48.8357   32.9253   42.9416 H   0  0  0  0  0  0  0  0  0  0  0  0
   46.3708   32.9246   41.2051 H   0  0  0  0  0  0  0  0  0  0  0  0
   47.5347   31.5966   41.4793 H   0  0  0  0  0  0  0  0  0  0  0  0
   49.9743   31.5666   37.5207 H   0  0  0  0  0  0  0  0  0  0  0  0
   49.0919   31.0900   39.7436 H   0  0  0  0  0  0  0  0  0  0  0  0
   47.9378   35.2593   37.5812 H   0  0  0  0  0  0  0  0  0  0  0  0
   45.7470   31.4775   47.1638 H   0  0  0  0  0  0  0  0  0  0  0  0
   48.7549   29.7019   44.7798 C   0  0  0  0  0  0  0  0  0  0  0  0
   48.7080   28.1887   44.7395 C   0  0  0  0  0  0  0  0  0  0  0  0
   47.9565   27.7711   45.4680 H   0  0  0  0  0  0  0  0  0  0  0  0
   48.3528   30.0612   43.7937 H   0  0  0  0  0  0  0  0  0  0  0  0
   49.7633   30.1077   44.8898 H   0  0  0  0  0  0  0  0  0  0  0  0
   48.4103   27.7949   43.7488 H   0  0  0  0  0  0  0  0  0  0  0  0
   49.7034   27.7985   45.0866 H   0  0  0  0  0  0  0  0  0  0  0  0
  1  6  1  0
  2  3  1  0
  2  1  1  0
  3  4  1  0
  4  5  1  0
  6 15  1  0
  6  5  1  0
  7  1  1  0
  8  7  1  0
  9 10  2  0
 10 11  1  0
 11  8  1  0
 12 11  2  0
 13 12  1  0
 14 13  2  0
 14  9  1  0
 17 15  1  6
 16 17  2  0
 17 19  1  0
 17 18  1  0
  2 20  1  0
  2 21  1  0
  3 22  1  0
  3 23  1  0
  4 24  1  0
  4 25  1  0
  5 26  1  0
  5 27  1  0
  6 28  1  6
  7 29  1  0
  7 30  1  0
  8 31  1  0
  8 32  1  0
  9 33  1  0
 10 34  1  0
 13 35  1  0
 18 36  1  0
 37 38  1  0
 38 39  1  0
 37 40  1  0
 37 41  1  0
 38 42  1  0
 38 43  1  0
 19 37  1  0
M  ISO  8  20  13  21  13  22  13  23  13  24  13  25  13  26  13  27  13
M  ISO  8  28  13  29   8  30   8  31   8  32   8  33  14  34  14  35  14
M  ISO  2  36   3  39   8
M  END
>  <DihAtoms>  (1) 
16,18,36,37

>  <DihDeg>  (1) 
-179.99086023693997

$$$$
