
 OpenBabel03252508583D

 39 40  0  0  1  0  0  0  0  0999 V2000
   47.1630   34.1480   43.1020 N   0  0  0  0  0  0  0  0  0  0  0  0
   46.6690   35.3530   42.5410 C   0  0  0  0  0  0  0  0  0  0  0  0
   45.1950   35.6190   42.7540 C   0  0  0  0  0  0  0  0  0  0  0  0
   44.6600   35.0920   44.0540 C   0  0  0  0  0  0  0  0  0  0  0  0
   45.7460   34.4870   44.9120 C   0  0  0  0  0  0  0  0  0  0  0  0
   46.3860   33.4030   43.9720 C   0  0  2  0  0  0  0  0  0  0  0  0
   46.8830   35.5160   41.4810 H   0  0  0  0  0  0  0  0  0  0  0  0
   47.2050   36.1950   43.0710 H   0  0  0  0  0  0  0  0  0  0  0  0
   45.0450   36.7140   42.6690 H   0  0  0  0  0  0  0  0  0  0  0  0
   44.6640   35.1610   41.9010 H   0  0  0  0  0  0  0  0  0  0  0  0
   43.8950   34.2940   43.8370 H   0  0  0  0  0  0  0  0  0  0  0  0
   44.1430   35.8880   44.5930 H   0  0  0  0  0  0  0  0  0  0  0  0
   46.4850   35.2560   45.1360 H   0  0  0  0  0  0  0  0  0  0  0  0
   45.2990   33.9910   45.7760 H   0  0  0  0  0  0  0  0  0  0  0  0
   45.5140   32.8480   43.5710 H   0  0  0  0  0  0  0  0  0  0  0  0
   48.1260   33.4690   42.2830 C   0  0  0  0  0  0  0  0  0  0  0  0
   48.7730   34.2440   41.8120 H   0  0  0  0  0  0  0  0  0  0  0  0
   48.7940   32.8710   42.9550 H   0  0  0  0  0  0  0  0  0  0  0  0
   47.4210   32.6590   41.2620 C   0  0  0  0  0  0  0  0  0  0  0  0
   46.3400   32.9470   41.2060 H   0  0  0  0  0  0  0  0  0  0  0  0
   47.4680   31.5880   41.4750 H   0  0  0  0  0  0  0  0  0  0  0  0
   49.3240   32.2670   38.0510 C   0  0  0  0  0  0  0  0  0  0  0  0
   48.7910   32.0130   39.3300 C   0  0  0  0  0  0  0  0  0  0  0  0
   47.9720   32.9400   39.9170 C   0  0  0  0  0  0  0  0  0  0  0  0
   47.7130   34.0640   39.2320 N   0  0  0  0  0  0  0  0  0  0  0  0
   48.2270   34.2950   38.0110 C   0  0  0  0  0  0  0  0  0  0  0  0
   49.0310   33.4070   37.4130 N   0  0  0  0  0  0  0  0  0  0  0  0
   49.9770   31.5520   37.5560 H   0  0  0  0  0  0  0  0  0  0  0  0
   49.0730   31.0820   39.7710 H   0  0  0  0  0  0  0  0  0  0  0  0
   47.9330   35.2400   37.5800 H   0  0  0  0  0  0  0  0  0  0  0  0
   47.1620   32.6770   44.8660 O   0  0  0  0  0  0  0  0  0  0  0  0
   45.6730   30.6460   44.0570 O   0  0  0  0  0  0  0  0  0  0  0  0
   46.5280   31.1590   45.2050 P   0  0  2  0  0  0  0  0  0  0  0  0
   45.4550   31.3720   46.5200 O   0  0  0  0  0  0  0  0  0  0  0  0
   45.9400   31.5730   47.3580 H   0  0  0  0  0  0  0  0  0  0  0  0
   47.7120   30.0730   45.6670 O   0  0  0  0  0  0  0  0  0  0  0  0
   48.5970   29.7620   44.6440 C   0  0  0  0  0  2  0  0  0  0  0  0
   49.7880   29.0540   45.2550 C   0  0  0  0  0  2  0  0  0  0  0  0
   49.6790   28.9330   46.3700 H   0  0  0  0  0  0  0  0  0  0  0  0
  1  6  1  0  0  0  0
  2  3  1  0  0  0  0
  2  8  1  0  0  0  0
  2  1  1  0  0  0  0
  3  4  1  0  0  0  0
  4 12  1  0  0  0  0
  4  5  1  0  0  0  0
  5 13  1  0  0  0  0
  5 14  1  0  0  0  0
  6 15  1  6  0  0  0
  6 31  1  0  0  0  0
  6  5  1  0  0  0  0
  7  2  1  0  0  0  0
  9  3  1  0  0  0  0
 10  3  1  0  0  0  0
 11  4  1  0  0  0  0
 16 18  1  0  0  0  0
 16  1  1  0  0  0  0
 17 16  1  0  0  0  0
 19 21  1  0  0  0  0
 19 16  1  0  0  0  0
 20 19  1  0  0  0  0
 22 23  1  0  0  0  0
 23 29  1  0  0  0  0
 23 24  2  0  0  0  0
 24 19  1  0  0  0  0
 25 24  1  0  0  0  0
 26 25  2  0  0  0  0
 27 26  1  0  0  0  0
 27 22  2  0  0  0  0
 28 22  1  0  0  0  0
 30 26  1  0  0  0  0
 31 33  1  0  0  0  0
 33 32  2  6  0  0  0
 33 36  1  0  0  0  0
 33 34  1  0  0  0  0
 34 35  1  0  0  0  0
 37 38  1  0  0  0  0
 37 36  1  0  0  0  0
 38 39  1  0  0  0  0
M  END
>  <minimizedAffinity>
-3.67266202

>  <minimizedRMSD>
0.1471553

$$$$
