
 OpenBabel03252508443D

 33 34  0  0  0  0  0  0  0  0999 V2000
   36.9790   30.7420   38.5030 C   0  0  0  0  0  0  0  0  0  0  0  0
   36.0930   29.9450   39.2160 C   0  0  0  0  0  0  0  0  0  0  0  0
   35.3770   28.9910   38.5320 C   0  0  0  0  0  0  0  0  0  0  0  0
   35.5420   28.8410   37.1830 C   0  0  0  0  0  0  0  0  0  0  0  0
   36.4090   29.6130   36.4560 C   0  0  0  0  0  0  0  0  0  0  0  0
   37.1100   30.5610   37.1800 C   0  0  0  0  0  0  0  0  0  0  0  0
   34.6850   28.3670   39.0820 H   0  0  0  0  0  0  0  0  0  0  0  0
   34.9820   28.0890   36.6250 H   0  0  0  0  0  0  0  0  0  0  0  0
   36.6030   29.5630   35.3820 H   0  0  0  0  0  0  0  0  0  0  0  0
   37.8310   31.2380   36.7150 H   0  0  0  0  0  0  0  0  0  0  0  0
   38.1340   33.9480   40.1470 C   0  0  0  0  0  0  0  0  0  0  0  0
   37.3500   33.0730   39.3690 C   0  0  0  0  0  0  0  0  0  0  0  0
   37.7130   31.7390   39.2790 C   0  0  0  0  0  0  0  0  0  0  0  0
   38.8250   31.3440   39.9570 N   0  0  0  0  0  0  0  0  0  0  0  0
   39.5710   32.1950   40.7030 C   0  0  0  0  0  0  0  0  0  0  0  0
   39.2130   33.4920   40.7880 N   0  0  0  0  0  0  0  0  0  0  0  0
   37.7520   34.9680   40.1430 H   0  0  0  0  0  0  0  0  0  0  0  0
   36.4720   33.3690   38.8280 H   0  0  0  0  0  0  0  0  0  0  0  0
   40.4520   31.8640   41.2380 H   0  0  0  0  0  0  0  0  0  0  0  0
   35.9280   30.1240   40.6850 C   0  0  0  0  0  0  0  0  0  0  0  0
   36.8390   30.6270   41.0760 H   0  0  0  0  0  0  0  0  0  0  0  0
   35.0620   30.8060   40.8400 H   0  0  0  0  0  0  0  0  0  0  0  0
   35.7930   28.9030   41.4240 N   0  0  0  0  0  0  0  0  0  0  0  0
   35.7340   28.1220   40.7160 H   0  0  0  0  0  0  0  0  0  0  0  0
   37.1840   28.5560   42.3670 S   0  0  0  0  0  0  0  0  0  0  0  0
   37.1530   29.2980   43.6790 O   0  0  0  0  0  0  0  0  0  0  0  0
   36.4650   29.1090   44.3620 H   0  0  0  0  0  0  0  0  0  0  0  0
   38.4360   28.8760   41.6250 O   0  0  0  0  0  0  0  0  0  0  0  0
   39.2830   28.9930   42.0830 H   0  0  0  0  0  0  0  0  0  0  0  0
   37.1630   26.9050   42.6900 O   0  0  0  0  0  0  0  0  0  0  0  0
   37.1410   26.2290   41.4830 C   0  0  0  0  0  2  0  0  0  0  0  0
   36.9630   24.7300   41.7560 C   0  0  0  0  0  2  0  0  0  0  0  0
   37.9650   24.2660   41.8910 H   0  0  0  0  0  0  0  0  0  0  0  0
  1  2  1  0  0  0  0
  1 13  1  0  0  0  0
  2 20  1  0  0  0  0
  3  7  1  0  0  0  0
  3  2  2  0  0  0  0
  4  3  1  0  0  0  0
  5  6  1  0  0  0  0
  5  4  2  0  0  0  0
  6  1  2  0  0  0  0
  8  4  1  0  0  0  0
  9  5  1  0  0  0  0
 10  6  1  0  0  0  0
 11 16  1  0  0  0  0
 12 11  2  0  0  0  0
 13 12  1  0  0  0  0
 13 14  2  0  0  0  0
 14 15  1  0  0  0  0
 15 16  2  0  0  0  0
 15 19  1  0  0  0  0
 17 11  1  0  0  0  0
 18 12  1  0  0  0  0
 20 22  1  0  0  0  0
 20 21  1  0  0  0  0
 20 23  1  0  0  0  0
 23 25  1  0  0  0  0
 24 23  1  0  0  0  0
 25 30  1  0  0  0  0
 25 26  1  0  0  0  0
 26 27  1  0  0  0  0
 28 29  1  0  0  0  0
 28 25  1  0  0  0  0
 31 32  1  0  0  0  0
 31 30  1  0  0  0  0
 32 33  1  0  0  0  0
M  END
>  <minimizedAffinity>
-5.35131788

$$$$

 OpenBabel03252508443D

 33 34  0  0  0  0  0  0  0  0999 V2000
   36.9260   30.6610   38.2070 C   0  0  0  0  0  0  0  0  0  0  0  0
   36.0330   30.0310   39.0650 C   0  0  0  0  0  0  0  0  0  0  0  0
   35.2190   29.0480   38.5530 C   0  0  0  0  0  0  0  0  0  0  0  0
   35.2970   28.7070   37.2310 C   0  0  0  0  0  0  0  0  0  0  0  0
   36.1680   29.3110   36.3640 C   0  0  0  0  0  0  0  0  0  0  0  0
   36.9690   30.2950   36.9160 C   0  0  0  0  0  0  0  0  0  0  0  0
   34.5220   28.5540   39.2160 H   0  0  0  0  0  0  0  0  0  0  0  0
   34.6580   27.9290   36.8100 H   0  0  0  0  0  0  0  0  0  0  0  0
   36.2960   29.1040   35.2990 H   0  0  0  0  0  0  0  0  0  0  0  0
   37.7040   30.8500   36.3280 H   0  0  0  0  0  0  0  0  0  0  0  0
   38.1830   33.8120   39.8800 C   0  0  0  0  0  0  0  0  0  0  0  0
   37.2790   32.8820   39.3310 C   0  0  0  0  0  0  0  0  0  0  0  0
   37.7660   31.6970   38.8010 C   0  0  0  0  0  0  0  0  0  0  0  0
   39.1120   31.4980   38.8420 N   0  0  0  0  0  0  0  0  0  0  0  0
   39.9720   32.4010   39.3740 C   0  0  0  0  0  0  0  0  0  0  0  0
   39.4930   33.5520   39.8880 N   0  0  0  0  0  0  0  0  0  0  0  0
   37.6860   34.7020   40.2640 H   0  0  0  0  0  0  0  0  0  0  0  0
   36.2160   33.0230   39.2900 H   0  0  0  0  0  0  0  0  0  0  0  0
   41.0400   32.2270   39.4000 H   0  0  0  0  0  0  0  0  0  0  0  0
   35.9650   30.4170   40.5010 C   0  0  0  0  0  0  0  0  0  0  0  0
   36.9690   30.7830   40.8090 H   0  0  0  0  0  0  0  0  0  0  0  0
   35.2470   31.2630   40.5820 H   0  0  0  0  0  0  0  0  0  0  0  0
   35.6370   29.3430   41.3930 N   0  0  0  0  0  0  0  0  0  0  0  0
   35.2900   28.5450   40.7940 H   0  0  0  0  0  0  0  0  0  0  0  0
   37.0160   28.7320   42.2110 S   0  0  0  0  0  0  0  0  0  0  0  0
   37.2100   27.2640   41.9320 O   0  0  0  0  0  0  0  0  0  0  0  0
   37.4230   26.9350   41.0250 H   0  0  0  0  0  0  0  0  0  0  0  0
   36.9240   28.9690   43.6790 O   0  0  0  0  0  0  0  0  0  0  0  0
   37.4670   28.4710   44.3100 H   0  0  0  0  0  0  0  0  0  0  0  0
   38.3520   29.5660   41.6200 O   0  0  0  0  0  0  0  0  0  0  0  0
   39.2970   29.6380   42.6290 C   0  0  0  0  0  2  0  0  0  0  0  0
   39.8830   31.0550   42.6600 C   0  0  0  0  0  2  0  0  0  0  0  0
   40.7530   31.1020   41.9690 H   0  0  0  0  0  0  0  0  0  0  0  0
  1 13  1  0  0  0  0
  1  2  1  0  0  0  0
  2 20  1  0  0  0  0
  3  2  2  0  0  0  0
  3  7  1  0  0  0  0
  4  3  1  0  0  0  0
  5  6  1  0  0  0  0
  5  4  2  0  0  0  0
  6  1  2  0  0  0  0
  8  4  1  0  0  0  0
  9  5  1  0  0  0  0
 10  6  1  0  0  0  0
 11 16  1  0  0  0  0
 11 17  1  0  0  0  0
 12 11  2  0  0  0  0
 13 14  2  0  0  0  0
 13 12  1  0  0  0  0
 14 15  1  0  0  0  0
 15 19  1  0  0  0  0
 15 16  2  0  0  0  0
 18 12  1  0  0  0  0
 20 22  1  0  0  0  0
 20 21  1  0  0  0  0
 20 23  1  0  0  0  0
 23 25  1  0  0  0  0
 24 23  1  0  0  0  0
 25 28  1  0  0  0  0
 26 25  1  0  0  0  0
 27 26  1  0  0  0  0
 28 29  1  0  0  0  0
 30 25  1  0  0  0  0
 30 31  1  0  0  0  0
 31 32  1  0  0  0  0
 33 32  1  0  0  0  0
M  END
>  <minimizedAffinity>
-5.11200094

$$$$

 OpenBabel03252508443D

 33 34  0  0  0  0  0  0  0  0999 V2000
   36.4230   28.4420   40.6510 C   0  0  0  0  0  0  0  0  0  0  0  0
   36.9070   29.7010   40.9850 C   0  0  0  0  0  0  0  0  0  0  0  0
   37.5070   29.8650   42.2110 C   0  0  0  0  0  0  0  0  0  0  0  0
   37.6200   28.8080   43.0710 C   0  0  0  0  0  0  0  0  0  0  0  0
   37.1530   27.5570   42.7660 C   0  0  0  0  0  0  0  0  0  0  0  0
   36.5550   27.4320   41.5240 C   0  0  0  0  0  0  0  0  0  0  0  0
   37.8850   30.8430   42.4770 H   0  0  0  0  0  0  0  0  0  0  0  0
   38.0940   28.9220   44.0470 H   0  0  0  0  0  0  0  0  0  0  0  0
   37.2000   26.6600   43.3880 H   0  0  0  0  0  0  0  0  0  0  0  0
   36.1440   26.4850   41.1650 H   0  0  0  0  0  0  0  0  0  0  0  0
   35.6910   27.6520   37.0240 C   0  0  0  0  0  0  0  0  0  0  0  0
   36.3900   27.7090   38.2460 C   0  0  0  0  0  0  0  0  0  0  0  0
   35.7950   28.3230   39.3370 C   0  0  0  0  0  0  0  0  0  0  0  0
   34.5500   28.8430   39.1630 N   0  0  0  0  0  0  0  0  0  0  0  0
   33.8870   28.7810   37.9820 C   0  0  0  0  0  0  0  0  0  0  0  0
   34.4700   28.1830   36.9240 N   0  0  0  0  0  0  0  0  0  0  0  0
   36.2570   27.1480   36.2410 H   0  0  0  0  0  0  0  0  0  0  0  0
   37.3730   27.3050   38.4000 H   0  0  0  0  0  0  0  0  0  0  0  0
   32.8950   29.1990   37.8600 H   0  0  0  0  0  0  0  0  0  0  0  0
   36.7730   30.8390   40.0340 C   0  0  0  0  0  0  0  0  0  0  0  0
   37.6970   30.8830   39.4160 H   0  0  0  0  0  0  0  0  0  0  0  0
   35.9170   30.6100   39.3620 H   0  0  0  0  0  0  0  0  0  0  0  0
   36.6440   32.1240   40.6560 N   0  0  0  0  0  0  0  0  0  0  0  0
   36.9980   32.0210   41.6460 H   0  0  0  0  0  0  0  0  0  0  0  0
   37.6580   33.3030   39.9320 S   0  0  0  0  0  0  0  0  0  0  0  0
   38.3330   34.1570   40.9750 O   0  0  0  0  0  0  0  0  0  0  0  0
   38.9870   33.7750   41.6090 H   0  0  0  0  0  0  0  0  0  0  0  0
   36.8970   34.1610   38.9800 O   0  0  0  0  0  0  0  0  0  0  0  0
   37.2360   35.0220   38.6890 H   0  0  0  0  0  0  0  0  0  0  0  0
   38.8440   32.4760   39.0730 O   0  0  0  0  0  0  0  0  0  0  0  0
   40.0280   32.5540   39.7870 C   0  0  0  0  0  2  0  0  0  0  0  0
   40.4240   31.1460   40.2480 C   0  0  0  0  0  2  0  0  0  0  0  0
   39.9510   30.9420   41.2340 H   0  0  0  0  0  0  0  0  0  0  0  0
  1  2  2  0  0  0  0
  1  6  1  0  0  0  0
  2  3  1  0  0  0  0
  3  7  1  0  0  0  0
  3  4  2  0  0  0  0
  4  8  1  0  0  0  0
  5  4  1  0  0  0  0
  5  9  1  0  0  0  0
  6  5  2  0  0  0  0
 10  6  1  0  0  0  0
 11 12  1  0  0  0  0
 12 18  1  0  0  0  0
 12 13  2  0  0  0  0
 13  1  1  0  0  0  0
 14 13  1  0  0  0  0
 15 14  2  0  0  0  0
 16 11  2  0  0  0  0
 16 15  1  0  0  0  0
 17 11  1  0  0  0  0
 19 15  1  0  0  0  0
 20 23  1  0  0  0  0
 20  2  1  0  0  0  0
 21 20  1  0  0  0  0
 22 20  1  0  0  0  0
 23 24  1  0  0  0  0
 25 23  1  0  0  0  0
 25 26  1  0  0  0  0
 26 27  1  0  0  0  0
 28 25  1  0  0  0  0
 29 28  1  0  0  0  0
 30 31  1  0  0  0  0
 30 25  1  0  0  0  0
 31 32  1  0  0  0  0
 32 33  1  0  0  0  0
M  END
>  <minimizedAffinity>
-5.02412462

$$$$

 OpenBabel03252508443D

 33 34  0  0  0  0  0  0  0  0999 V2000
   36.6010   27.3870   40.0840 C   0  0  0  0  0  0  0  0  0  0  0  0
   36.1180   28.3400   40.9720 C   0  0  0  0  0  0  0  0  0  0  0  0
   36.3160   28.1390   42.3170 C   0  0  0  0  0  0  0  0  0  0  0  0
   36.9750   27.0250   42.7580 C   0  0  0  0  0  0  0  0  0  0  0  0
   37.4610   26.0700   41.9060 C   0  0  0  0  0  0  0  0  0  0  0  0
   37.2410   26.3080   40.5600 C   0  0  0  0  0  0  0  0  0  0  0  0
   35.9420   28.8780   43.0130 H   0  0  0  0  0  0  0  0  0  0  0  0
   37.1400   26.8510   43.8230 H   0  0  0  0  0  0  0  0  0  0  0  0
   37.9950   25.1540   42.1680 H   0  0  0  0  0  0  0  0  0  0  0  0
   37.5820   25.6210   39.7810 H   0  0  0  0  0  0  0  0  0  0  0  0
   35.0830   27.5960   36.6250 C   0  0  0  0  0  0  0  0  0  0  0  0
   35.2040   27.2930   37.9960 C   0  0  0  0  0  0  0  0  0  0  0  0
   36.3630   27.6500   38.6670 C   0  0  0  0  0  0  0  0  0  0  0  0
   37.3330   28.2820   37.9520 N   0  0  0  0  0  0  0  0  0  0  0  0
   37.2050   28.5690   36.6340 C   0  0  0  0  0  0  0  0  0  0  0  0
   36.0750   28.2200   35.9850 N   0  0  0  0  0  0  0  0  0  0  0  0
   34.1320   27.2690   36.2070 H   0  0  0  0  0  0  0  0  0  0  0  0
   34.4500   26.7950   38.5740 H   0  0  0  0  0  0  0  0  0  0  0  0
   37.9860   29.0740   36.0790 H   0  0  0  0  0  0  0  0  0  0  0  0
   35.4040   29.5470   40.4710 C   0  0  0  0  0  0  0  0  0  0  0  0
   35.6660   29.6830   39.3980 H   0  0  0  0  0  0  0  0  0  0  0  0
   34.3130   29.3370   40.5380 H   0  0  0  0  0  0  0  0  0  0  0  0
   35.7620   30.7690   41.1300 N   0  0  0  0  0  0  0  0  0  0  0  0
   36.1260   30.5050   42.0850 H   0  0  0  0  0  0  0  0  0  0  0  0
   37.0640   31.5710   40.3530 S   0  0  0  0  0  0  0  0  0  0  0  0
   36.9050   33.0680   40.4260 O   0  0  0  0  0  0  0  0  0  0  0  0
   36.9340   33.5480   41.2880 H   0  0  0  0  0  0  0  0  0  0  0  0
   37.1990   31.1360   38.9340 O   0  0  0  0  0  0  0  0  0  0  0  0
   37.6940   31.6620   38.2860 H   0  0  0  0  0  0  0  0  0  0  0  0
   38.4690   31.1460   41.1760 O   0  0  0  0  0  0  0  0  0  0  0  0
   39.2220   30.3280   40.3510 C   0  0  0  0  0  2  0  0  0  0  0  0
   39.7590   29.1510   41.1750 C   0  0  0  0  0  2  0  0  0  0  0  0
   40.7340   29.4400   41.6250 H   0  0  0  0  0  0  0  0  0  0  0  0
  1  6  2  0  0  0  0
  1  2  1  0  0  0  0
  2  3  2  0  0  0  0
  3  4  1  0  0  0  0
  3  7  1  0  0  0  0
  4  8  1  0  0  0  0
  5  9  1  0  0  0  0
  5  4  2  0  0  0  0
  6  5  1  0  0  0  0
 10  6  1  0  0  0  0
 11 12  1  0  0  0  0
 12 18  1  0  0  0  0
 12 13  2  0  0  0  0
 13  1  1  0  0  0  0
 14 13  1  0  0  0  0
 15 14  2  0  0  0  0
 16 11  2  0  0  0  0
 16 15  1  0  0  0  0
 17 11  1  0  0  0  0
 19 15  1  0  0  0  0
 20 22  1  0  0  0  0
 20  2  1  0  0  0  0
 20 23  1  0  0  0  0
 21 20  1  0  0  0  0
 23 24  1  0  0  0  0
 25 26  1  0  0  0  0
 25 23  1  0  0  0  0
 25 30  1  0  0  0  0
 26 27  1  0  0  0  0
 28 25  1  0  0  0  0
 29 28  1  0  0  0  0
 31 32  1  0  0  0  0
 31 30  1  0  0  0  0
 32 33  1  0  0  0  0
M  END
>  <minimizedAffinity>
-4.9639802

$$$$

 OpenBabel03252508443D

 33 34  0  0  0  0  0  0  0  0999 V2000
   36.9260   27.7640   40.3330 C   0  0  0  0  0  0  0  0  0  0  0  0
   36.0500   28.8410   40.3510 C   0  0  0  0  0  0  0  0  0  0  0  0
   35.0890   28.9180   39.3700 C   0  0  0  0  0  0  0  0  0  0  0  0
   35.0090   27.9500   38.4070 C   0  0  0  0  0  0  0  0  0  0  0  0
   35.8590   26.8770   38.3660 C   0  0  0  0  0  0  0  0  0  0  0  0
   36.8110   26.8370   39.3700 C   0  0  0  0  0  0  0  0  0  0  0  0
   34.4040   29.7550   39.3780 H   0  0  0  0  0  0  0  0  0  0  0  0
   34.2520   27.9960   37.6220 H   0  0  0  0  0  0  0  0  0  0  0  0
   35.8680   26.0630   37.6390 H   0  0  0  0  0  0  0  0  0  0  0  0
   37.5470   26.0310   39.4470 H   0  0  0  0  0  0  0  0  0  0  0  0
   38.8060   27.0680   43.5420 C   0  0  0  0  0  0  0  0  0  0  0  0
   37.7750   27.0280   42.5830 C   0  0  0  0  0  0  0  0  0  0  0  0
   37.9260   27.7310   41.3980 C   0  0  0  0  0  0  0  0  0  0  0  0
   39.0800   28.4310   41.2270 N   0  0  0  0  0  0  0  0  0  0  0  0
   40.0660   28.4620   42.1560 C   0  0  0  0  0  0  0  0  0  0  0  0
   39.9140   27.7760   43.3070 N   0  0  0  0  0  0  0  0  0  0  0  0
   38.5760   26.4790   44.4290 H   0  0  0  0  0  0  0  0  0  0  0  0
   36.8590   26.4820   42.7030 H   0  0  0  0  0  0  0  0  0  0  0  0
   40.9790   29.0230   42.0040 H   0  0  0  0  0  0  0  0  0  0  0  0
   36.1550   29.8840   41.4080 C   0  0  0  0  0  0  0  0  0  0  0  0
   35.3930   29.6640   42.1880 H   0  0  0  0  0  0  0  0  0  0  0  0
   37.1620   29.7870   41.8700 H   0  0  0  0  0  0  0  0  0  0  0  0
   35.8940   31.2200   40.9570 N   0  0  0  0  0  0  0  0  0  0  0  0
   35.6670   31.7930   41.8150 H   0  0  0  0  0  0  0  0  0  0  0  0
   37.2810   31.9580   40.2710 S   0  0  0  0  0  0  0  0  0  0  0  0
   38.5460   31.4400   40.9060 O   0  0  0  0  0  0  0  0  0  0  0  0
   38.8230   30.4970   40.8100 H   0  0  0  0  0  0  0  0  0  0  0  0
   37.2190   33.4430   40.3870 O   0  0  0  0  0  0  0  0  0  0  0  0
   38.0120   33.9940   40.2980 H   0  0  0  0  0  0  0  0  0  0  0  0
   37.3030   31.5530   38.6380 O   0  0  0  0  0  0  0  0  0  0  0  0
   38.5040   30.9200   38.3660 C   0  0  0  0  0  2  0  0  0  0  0  0
   38.2410   29.7390   37.4240 C   0  0  0  0  0  2  0  0  0  0  0  0
   38.0090   28.8360   38.0320 H   0  0  0  0  0  0  0  0  0  0  0  0
  1  2  1  0  0  0  0
  1 13  1  0  0  0  0
  2 20  1  0  0  0  0
  3  7  1  0  0  0  0
  3  2  2  0  0  0  0
  4  3  1  0  0  0  0
  5  4  2  0  0  0  0
  5  6  1  0  0  0  0
  6 10  1  0  0  0  0
  6  1  2  0  0  0  0
  8  4  1  0  0  0  0
  9  5  1  0  0  0  0
 11 17  1  0  0  0  0
 12 18  1  0  0  0  0
 12 11  2  0  0  0  0
 13 12  1  0  0  0  0
 14 13  2  0  0  0  0
 14 15  1  0  0  0  0
 15 16  2  0  0  0  0
 16 11  1  0  0  0  0
 19 15  1  0  0  0  0
 20 22  1  0  0  0  0
 20 21  1  0  0  0  0
 23 20  1  0  0  0  0
 23 24  1  0  0  0  0
 25 28  1  0  0  0  0
 25 26  1  0  0  0  0
 25 23  1  0  0  0  0
 27 26  1  0  0  0  0
 29 28  1  0  0  0  0
 30 25  1  0  0  0  0
 31 30  1  0  0  0  0
 32 33  1  0  0  0  0
 32 31  1  0  0  0  0
M  END
>  <minimizedAffinity>
-4.92163706

$$$$

 OpenBabel03252508443D

 33 34  0  0  0  0  0  0  0  0999 V2000
   34.9790   29.1320   38.3850 C   0  0  0  0  0  0  0  0  0  0  0  0
   35.7570   29.1460   37.2350 C   0  0  0  0  0  0  0  0  0  0  0  0
   35.1270   29.0260   36.0190 C   0  0  0  0  0  0  0  0  0  0  0  0
   33.7670   28.8970   35.9560 C   0  0  0  0  0  0  0  0  0  0  0  0
   32.9760   28.8810   37.0740 C   0  0  0  0  0  0  0  0  0  0  0  0
   33.6480   29.0040   38.2780 C   0  0  0  0  0  0  0  0  0  0  0  0
   35.7280   29.0350   35.1190 H   0  0  0  0  0  0  0  0  0  0  0  0
   33.2520   28.8010   34.9990 H   0  0  0  0  0  0  0  0  0  0  0  0
   31.8890   28.7830   37.1180 H   0  0  0  0  0  0  0  0  0  0  0  0
   33.1280   29.0060   39.2400 H   0  0  0  0  0  0  0  0  0  0  0  0
   36.8020   28.4320   41.6250 C   0  0  0  0  0  0  0  0  0  0  0  0
   36.1150   28.1880   40.4200 C   0  0  0  0  0  0  0  0  0  0  0  0
   35.6990   29.2630   39.6490 C   0  0  0  0  0  0  0  0  0  0  0  0
   35.9830   30.5120   40.1090 N   0  0  0  0  0  0  0  0  0  0  0  0
   36.6460   30.7340   41.2700 C   0  0  0  0  0  0  0  0  0  0  0  0
   37.0480   29.6860   42.0160 N   0  0  0  0  0  0  0  0  0  0  0  0
   37.0780   27.5140   42.1430 H   0  0  0  0  0  0  0  0  0  0  0  0
   35.8820   27.2100   40.0440 H   0  0  0  0  0  0  0  0  0  0  0  0
   36.8650   31.7350   41.6210 H   0  0  0  0  0  0  0  0  0  0  0  0
   37.2370   29.2870   37.3240 C   0  0  0  0  0  0  0  0  0  0  0  0
   37.5010   29.4930   38.3850 H   0  0  0  0  0  0  0  0  0  0  0  0
   37.6800   28.3070   37.0410 H   0  0  0  0  0  0  0  0  0  0  0  0
   37.7810   30.3690   36.5570 N   0  0  0  0  0  0  0  0  0  0  0  0
   36.9690   30.8330   36.0660 H   0  0  0  0  0  0  0  0  0  0  0  0
   38.4710   31.5870   37.5480 S   0  0  0  0  0  0  0  0  0  0  0  0
   37.4130   32.5140   38.0900 O   0  0  0  0  0  0  0  0  0  0  0  0
   36.7190   32.1950   38.7160 H   0  0  0  0  0  0  0  0  0  0  0  0
   39.5060   32.3640   36.8100 O   0  0  0  0  0  0  0  0  0  0  0  0
   39.8020   33.2370   37.1150 H   0  0  0  0  0  0  0  0  0  0  0  0
   39.2110   30.8110   38.8440 O   0  0  0  0  0  0  0  0  0  0  0  0
   40.3130   31.5590   39.2230 C   0  0  0  0  0  2  0  0  0  0  0  0
   40.0040   32.2620   40.5500 C   0  0  0  0  0  2  0  0  0  0  0  0
   39.5270   33.2440   40.3370 H   0  0  0  0  0  0  0  0  0  0  0  0
  1 13  1  0  0  0  0
  2 20  1  0  0  0  0
  2  1  2  0  0  0  0
  3  2  1  0  0  0  0
  4  3  2  0  0  0  0
  4  5  1  0  0  0  0
  5  9  1  0  0  0  0
  5  6  2  0  0  0  0
  6  1  1  0  0  0  0
  6 10  1  0  0  0  0
  7  3  1  0  0  0  0
  8  4  1  0  0  0  0
 11 16  1  0  0  0  0
 11 17  1  0  0  0  0
 12 11  2  0  0  0  0
 13 14  2  0  0  0  0
 13 12  1  0  0  0  0
 14 15  1  0  0  0  0
 15 19  1  0  0  0  0
 15 16  2  0  0  0  0
 18 12  1  0  0  0  0
 20 21  1  0  0  0  0
 22 20  1  0  0  0  0
 23 20  1  0  0  0  0
 23 25  1  0  0  0  0
 24 23  1  0  0  0  0
 25 26  1  0  0  0  0
 25 30  1  0  0  0  0
 26 27  1  0  0  0  0
 28 29  1  0  0  0  0
 28 25  1  0  0  0  0
 30 31  1  0  0  0  0
 31 32  1  0  0  0  0
 33 32  1  0  0  0  0
M  END
>  <minimizedAffinity>
-4.88745689

$$$$

 OpenBabel03252508443D

 33 34  0  0  0  0  0  0  0  0999 V2000
   40.6990   28.2980   42.6400 C   0  0  0  0  0  0  0  0  0  0  0  0
   39.3830   28.3030   43.0840 C   0  0  0  0  0  0  0  0  0  0  0  0
   38.8650   27.1400   43.6050 C   0  0  0  0  0  0  0  0  0  0  0  0
   39.6370   26.0140   43.6790 C   0  0  0  0  0  0  0  0  0  0  0  0
   40.9370   25.9820   43.2490 C   0  0  0  0  0  0  0  0  0  0  0  0
   41.4210   27.1710   42.7320 C   0  0  0  0  0  0  0  0  0  0  0  0
   37.8400   27.1380   43.9520 H   0  0  0  0  0  0  0  0  0  0  0  0
   39.2410   25.0840   44.0900 H   0  0  0  0  0  0  0  0  0  0  0  0
   41.6230   25.1320   43.2700 H   0  0  0  0  0  0  0  0  0  0  0  0
   42.4420   27.2730   42.3560 H   0  0  0  0  0  0  0  0  0  0  0  0
   41.6430   31.1520   40.3430 C   0  0  0  0  0  0  0  0  0  0  0  0
   41.1280   29.9070   40.7570 C   0  0  0  0  0  0  0  0  0  0  0  0
   41.1980   29.5580   42.0960 C   0  0  0  0  0  0  0  0  0  0  0  0
   41.7710   30.4520   42.9480 N   0  0  0  0  0  0  0  0  0  0  0  0
   42.2620   31.6470   42.5380 C   0  0  0  0  0  0  0  0  0  0  0  0
   42.1920   31.9820   41.2340 N   0  0  0  0  0  0  0  0  0  0  0  0
   41.5320   31.3150   39.2710 H   0  0  0  0  0  0  0  0  0  0  0  0
   40.6740   29.1920   40.0980 H   0  0  0  0  0  0  0  0  0  0  0  0
   42.7140   32.3470   43.2290 H   0  0  0  0  0  0  0  0  0  0  0  0
   38.5590   29.5400   42.9940 C   0  0  0  0  0  0  0  0  0  0  0  0
   38.4550   29.9610   44.0180 H   0  0  0  0  0  0  0  0  0  0  0  0
   39.1250   30.2700   42.3740 H   0  0  0  0  0  0  0  0  0  0  0  0
   37.2260   29.3350   42.5070 N   0  0  0  0  0  0  0  0  0  0  0  0
   36.5700   29.6450   43.2740 H   0  0  0  0  0  0  0  0  0  0  0  0
   36.8620   30.3390   41.1640 S   0  0  0  0  0  0  0  0  0  0  0  0
   35.5430   31.0440   41.3510 O   0  0  0  0  0  0  0  0  0  0  0  0
   35.4120   31.7100   42.0690 H   0  0  0  0  0  0  0  0  0  0  0  0
   36.8540   29.5620   39.8930 O   0  0  0  0  0  0  0  0  0  0  0  0
   36.4190   29.8990   39.0930 H   0  0  0  0  0  0  0  0  0  0  0  0
   38.0760   31.5000   41.0700 O   0  0  0  0  0  0  0  0  0  0  0  0
   37.5980   32.5660   40.3270 C   0  0  0  0  0  2  0  0  0  0  0  0
   38.7850   33.4160   39.8570 C   0  0  0  0  0  2  0  0  0  0  0  0
   39.0140   34.1790   40.6330 H   0  0  0  0  0  0  0  0  0  0  0  0
  1  6  2  0  0  0  0
  1  2  1  0  0  0  0
  2  3  2  0  0  0  0
  3  4  1  0  0  0  0
  3  7  1  0  0  0  0
  4  8  1  0  0  0  0
  5  9  1  0  0  0  0
  5  4  2  0  0  0  0
  6  5  1  0  0  0  0
 10  6  1  0  0  0  0
 11 12  2  0  0  0  0
 11 16  1  0  0  0  0
 12 13  1  0  0  0  0
 13  1  1  0  0  0  0
 13 14  2  0  0  0  0
 15 14  1  0  0  0  0
 15 19  1  0  0  0  0
 16 15  2  0  0  0  0
 17 11  1  0  0  0  0
 18 12  1  0  0  0  0
 20  2  1  0  0  0  0
 20 21  1  0  0  0  0
 22 20  1  0  0  0  0
 23 20  1  0  0  0  0
 23 24  1  0  0  0  0
 25 26  1  0  0  0  0
 25 23  1  0  0  0  0
 26 27  1  0  0  0  0
 28 25  1  0  0  0  0
 29 28  1  0  0  0  0
 30 25  1  0  0  0  0
 31 30  1  0  0  0  0
 32 31  1  0  0  0  0
 32 33  1  0  0  0  0
M  END
>  <minimizedAffinity>
-4.75814581

$$$$

 OpenBabel03252508443D

 33 34  0  0  0  0  0  0  0  0999 V2000
   39.1820   26.4440   42.0970 C   0  0  0  0  0  0  0  0  0  0  0  0
   37.9840   26.9090   42.6210 C   0  0  0  0  0  0  0  0  0  0  0  0
   36.9010   26.0620   42.6280 C   0  0  0  0  0  0  0  0  0  0  0  0
   37.0150   24.7940   42.1280 C   0  0  0  0  0  0  0  0  0  0  0  0
   38.1850   24.3090   41.6070 C   0  0  0  0  0  0  0  0  0  0  0  0
   39.2500   25.1920   41.6180 C   0  0  0  0  0  0  0  0  0  0  0  0
   35.9640   26.4190   43.0340 H   0  0  0  0  0  0  0  0  0  0  0  0
   36.1650   24.1090   42.1270 H   0  0  0  0  0  0  0  0  0  0  0  0
   38.3650   23.3160   41.1890 H   0  0  0  0  0  0  0  0  0  0  0  0
   40.2360   24.9240   41.2300 H   0  0  0  0  0  0  0  0  0  0  0  0
   42.2420   28.4440   43.0730 C   0  0  0  0  0  0  0  0  0  0  0  0
   41.2000   27.5000   43.1630 C   0  0  0  0  0  0  0  0  0  0  0  0
   40.3000   27.3840   42.1150 C   0  0  0  0  0  0  0  0  0  0  0  0
   40.4780   28.2010   41.0420 N   0  0  0  0  0  0  0  0  0  0  0  0
   41.4850   29.1050   40.9660 C   0  0  0  0  0  0  0  0  0  0  0  0
   42.3580   29.2150   41.9880 N   0  0  0  0  0  0  0  0  0  0  0  0
   42.8830   28.4450   43.9530 H   0  0  0  0  0  0  0  0  0  0  0  0
   41.0450   26.8490   44.0020 H   0  0  0  0  0  0  0  0  0  0  0  0
   41.6140   29.7480   40.1040 H   0  0  0  0  0  0  0  0  0  0  0  0
   37.8810   28.2940   43.1600 C   0  0  0  0  0  0  0  0  0  0  0  0
   37.9700   28.2410   44.2670 H   0  0  0  0  0  0  0  0  0  0  0  0
   38.7500   28.8660   42.7680 H   0  0  0  0  0  0  0  0  0  0  0  0
   36.6350   28.9490   42.8880 N   0  0  0  0  0  0  0  0  0  0  0  0
   36.5240   29.7080   43.6140 H   0  0  0  0  0  0  0  0  0  0  0  0
   36.6430   29.7620   41.3780 S   0  0  0  0  0  0  0  0  0  0  0  0
   38.0420   30.1540   40.9760 O   0  0  0  0  0  0  0  0  0  0  0  0
   38.7310   29.4750   40.7770 H   0  0  0  0  0  0  0  0  0  0  0  0
   35.7600   30.9630   41.4040 O   0  0  0  0  0  0  0  0  0  0  0  0
   35.8460   31.6710   40.7470 H   0  0  0  0  0  0  0  0  0  0  0  0
   36.0430   28.6850   40.2320 O   0  0  0  0  0  0  0  0  0  0  0  0
   37.0640   28.3860   39.3460 C   0  0  0  0  0  2  0  0  0  0  0  0
   36.9790   26.9000   38.9750 C   0  0  0  0  0  2  0  0  0  0  0  0
   37.5680   26.3090   39.7100 H   0  0  0  0  0  0  0  0  0  0  0  0
  1 13  1  0  0  0  0
  1  2  1  0  0  0  0
  2  3  2  0  0  0  0
  2 20  1  0  0  0  0
  3  7  1  0  0  0  0
  4  3  1  0  0  0  0
  5  6  1  0  0  0  0
  5  4  2  0  0  0  0
  6  1  2  0  0  0  0
  8  4  1  0  0  0  0
  9  5  1  0  0  0  0
 10  6  1  0  0  0  0
 11 12  1  0  0  0  0
 11 17  1  0  0  0  0
 12 18  1  0  0  0  0
 13 12  2  0  0  0  0
 14 13  1  0  0  0  0
 15 14  2  0  0  0  0
 15 16  1  0  0  0  0
 16 11  2  0  0  0  0
 19 15  1  0  0  0  0
 20 21  1  0  0  0  0
 22 20  1  0  0  0  0
 23 20  1  0  0  0  0
 23 24  1  0  0  0  0
 25 28  1  0  0  0  0
 25 23  1  0  0  0  0
 26 25  1  0  0  0  0
 27 26  1  0  0  0  0
 29 28  1  0  0  0  0
 30 25  1  0  0  0  0
 31 30  1  0  0  0  0
 32 31  1  0  0  0  0
 32 33  1  0  0  0  0
M  END
>  <minimizedAffinity>
-4.65229797

$$$$

 OpenBabel03252508443D

 33 34  0  0  0  0  0  0  0  0999 V2000
   36.5490   28.5340   41.2700 C   0  0  0  0  0  0  0  0  0  0  0  0
   37.4380   29.6010   41.2800 C   0  0  0  0  0  0  0  0  0  0  0  0
   38.2210   29.7880   42.3950 C   0  0  0  0  0  0  0  0  0  0  0  0
   38.1180   28.9370   43.4600 C   0  0  0  0  0  0  0  0  0  0  0  0
   37.2520   27.8770   43.4760 C   0  0  0  0  0  0  0  0  0  0  0  0
   36.4810   27.7230   42.3370 C   0  0  0  0  0  0  0  0  0  0  0  0
   38.9140   30.6180   42.4090 H   0  0  0  0  0  0  0  0  0  0  0  0
   38.7330   29.0720   44.3520 H   0  0  0  0  0  0  0  0  0  0  0  0
   37.1040   27.1510   44.2790 H   0  0  0  0  0  0  0  0  0  0  0  0
   35.7530   26.9150   42.2280 H   0  0  0  0  0  0  0  0  0  0  0  0
   33.9110   28.9040   38.5830 C   0  0  0  0  0  0  0  0  0  0  0  0
   34.6150   29.1380   39.7810 C   0  0  0  0  0  0  0  0  0  0  0  0
   35.7420   28.3810   40.0620 C   0  0  0  0  0  0  0  0  0  0  0  0
   36.1090   27.4400   39.1500 N   0  0  0  0  0  0  0  0  0  0  0  0
   35.4240   27.2250   38.0000 C   0  0  0  0  0  0  0  0  0  0  0  0
   34.3290   27.9640   37.7320 N   0  0  0  0  0  0  0  0  0  0  0  0
   33.0460   29.5570   38.4720 H   0  0  0  0  0  0  0  0  0  0  0  0
   34.3390   29.8750   40.5110 H   0  0  0  0  0  0  0  0  0  0  0  0
   35.7310   26.4730   37.2840 H   0  0  0  0  0  0  0  0  0  0  0  0
   37.5330   30.5170   40.1100 C   0  0  0  0  0  0  0  0  0  0  0  0
   36.5210   30.6070   39.6580 H   0  0  0  0  0  0  0  0  0  0  0  0
   37.8320   31.5160   40.4950 H   0  0  0  0  0  0  0  0  0  0  0  0
   38.4010   30.0590   39.0640 N   0  0  0  0  0  0  0  0  0  0  0  0
   37.8740   29.3130   38.5340 H   0  0  0  0  0  0  0  0  0  0  0  0
   38.7350   31.2850   37.9120 S   0  0  0  0  0  0  0  0  0  0  0  0
   40.0380   31.0270   37.2000 O   0  0  0  0  0  0  0  0  0  0  0  0
   40.1590   30.2410   36.6140 H   0  0  0  0  0  0  0  0  0  0  0  0
   38.7530   32.6340   38.5450 O   0  0  0  0  0  0  0  0  0  0  0  0
   39.1760   33.3930   38.1130 H   0  0  0  0  0  0  0  0  0  0  0  0
   37.4940   31.2480   36.7750 O   0  0  0  0  0  0  0  0  0  0  0  0
   37.1760   29.9240   36.5270 C   0  0  0  0  0  2  0  0  0  0  0  0
   36.3500   29.8450   35.2370 C   0  0  0  0  0  2  0  0  0  0  0  0
   35.2730   29.9600   35.4890 H   0  0  0  0  0  0  0  0  0  0  0  0
  1  2  2  0  0  0  0
  1  6  1  0  0  0  0
  2  3  1  0  0  0  0
  3  7  1  0  0  0  0
  3  4  2  0  0  0  0
  4  5  1  0  0  0  0
  4  8  1  0  0  0  0
  5  9  1  0  0  0  0
  6  5  2  0  0  0  0
 10  6  1  0  0  0  0
 11 12  1  0  0  0  0
 12 13  2  0  0  0  0
 12 18  1  0  0  0  0
 13  1  1  0  0  0  0
 14 13  1  0  0  0  0
 15 14  2  0  0  0  0
 16 15  1  0  0  0  0
 16 11  2  0  0  0  0
 17 11  1  0  0  0  0
 19 15  1  0  0  0  0
 20 22  1  0  0  0  0
 20  2  1  0  0  0  0
 21 20  1  0  0  0  0
 23 20  1  0  0  0  0
 24 23  1  0  0  0  0
 25 28  1  0  0  0  0
 25 23  1  0  0  0  0
 26 25  1  0  0  0  0
 27 26  1  0  0  0  0
 29 28  1  0  0  0  0
 30 25  1  0  0  0  0
 31 30  1  0  0  0  0
 32 33  1  0  0  0  0
 32 31  1  0  0  0  0
M  END
>  <minimizedAffinity>
-4.65005207

$$$$
