
 OpenBabel03252505103D

 38 40  0  0  1  0  0  0  0  0999 V2000
   44.5780   35.5940   44.6160 C   0  0  0  0  0  0  0  0  0  0  0  0
   45.2280   35.6030   43.3590 C   0  0  0  0  0  0  0  0  0  0  0  0
   46.2990   34.6990   43.1730 C   0  0  0  0  0  0  0  0  0  0  0  0
   46.6490   33.8740   44.1950 N   0  0  0  0  0  0  0  0  0  0  0  0
   46.0100   33.8920   45.3730 C   0  0  0  0  0  0  0  0  0  0  0  0
   44.9610   34.7600   45.5920 N   0  0  0  0  0  0  0  0  0  0  0  0
   43.7820   36.2980   44.6850 H   0  0  0  0  0  0  0  0  0  0  0  0
   44.9700   36.2480   42.5310 H   0  0  0  0  0  0  0  0  0  0  0  0
   46.4280   32.9770   46.4690 C   0  0  2  0  0  0  0  0  0  0  0  0
   46.9590   31.7560   45.7600 C   0  0  0  0  0  0  0  0  0  0  0  0
   46.0960   30.5620   45.7840 C   0  0  0  0  0  0  0  0  0  0  0  0
   45.8220   30.3040   47.2710 C   0  0  0  0  0  0  0  0  0  0  0  0
   45.0250   31.3610   47.8680 C   0  0  0  0  0  0  0  0  0  0  0  0
   45.3840   32.7250   47.4180 C   0  0  0  0  0  0  0  0  0  0  0  0
   47.2790   33.5030   46.9740 H   0  0  0  0  0  0  0  0  0  0  0  0
   47.2530   31.9430   44.7060 H   0  0  0  0  0  0  0  0  0  0  0  0
   47.9270   31.4740   46.2590 H   0  0  0  0  0  0  0  0  0  0  0  0
   46.6690   29.7170   45.3690 H   0  0  0  0  0  0  0  0  0  0  0  0
   45.1200   30.7490   45.3280 H   0  0  0  0  0  0  0  0  0  0  0  0
   46.8410   30.2370   47.7250 H   0  0  0  0  0  0  0  0  0  0  0  0
   45.2540   29.3820   47.3500 H   0  0  0  0  0  0  0  0  0  0  0  0
   44.2330   31.4630   48.5580 H   0  0  0  0  0  0  0  0  0  0  0  0
   44.6820   33.8730   47.9300 N   0  0  0  0  0  0  0  0  0  0  0  0
   43.7490   34.2950   47.7150 H   0  0  0  0  0  0  0  0  0  0  0  0
   45.1590   34.4400   48.6720 H   0  0  0  0  0  0  0  0  0  0  0  0
   46.9890   34.6760   41.8930 C   0  0  0  0  0  0  0  0  0  0  0  0
   48.1320   35.3950   41.7620 C   0  0  0  0  0  0  0  0  0  0  0  0
   48.7700   35.3270   40.5030 C   0  0  0  0  0  0  0  0  0  0  0  0
   48.1660   34.5350   39.5380 C   0  0  0  0  0  0  0  0  0  0  0  0
   47.0320   33.8280   39.6860 C   0  0  0  0  0  0  0  0  0  0  0  0
   46.4360   33.9180   40.9240 N   0  0  0  0  0  0  0  0  0  0  0  0
   48.5850   36.0070   42.5290 H   0  0  0  0  0  0  0  0  0  0  0  0
   49.6700   35.8410   40.2610 H   0  0  0  0  0  0  0  0  0  0  0  0
   48.5520   34.3890   38.5180 H   0  0  0  0  0  0  0  0  0  0  0  0
   46.4690   33.0410   38.6770 O   0  0  0  0  0  0  0  0  0  0  0  0
   45.1480   33.0340   38.5130 C   0  0  0  0  0  0  0  0  0  0  0  0
   43.7410   33.0280   38.3390 C   0  0  0  0  0  0  0  0  0  0  0  0
   43.2950   34.0150   38.0310 H   0  0  0  0  0  0  0  0  0  0  0  0
  1  7  1  0  0  0  0
  1  6  1  0  0  0  0
  2  1  2  0  0  0  0
  3  2  1  0  0  0  0
  3  4  2  0  0  0  0
  4  5  1  0  0  0  0
  5  6  2  0  0  0  0
  5  9  1  0  0  0  0
  8  2  1  0  0  0  0
  9 15  1  1  0  0  0
  9 14  1  0  0  0  0
 10 11  1  0  0  0  0
 10 17  1  0  0  0  0
 10  9  1  0  0  0  0
 11 12  1  0  0  0  0
 12 21  1  0  0  0  0
 12 20  1  0  0  0  0
 12 13  1  0  0  0  0
 13 22  1  0  0  0  0
 14 13  2  0  0  0  0
 14 23  1  0  0  0  0
 16 10  1  0  0  0  0
 18 11  1  0  0  0  0
 19 11  1  0  0  0  0
 23 25  1  0  0  0  0
 24 23  1  0  0  0  0
 26  3  1  0  0  0  0
 27 26  1  0  0  0  0
 27 32  1  0  0  0  0
 28 27  2  0  0  0  0
 29 30  2  0  0  0  0
 29 28  1  0  0  0  0
 30 31  1  0  0  0  0
 31 26  2  0  0  0  0
 33 28  1  0  0  0  0
 34 29  1  0  0  0  0
 35 30  1  0  0  0  0
 36 35  1  0  0  0  0
 37 36  1  0  0  0  0
 38 37  1  0  0  0  0
M  END
>  <minimizedAffinity>
-6.61552334

>  <minimizedRMSD>
0.370437056

$$$$
