
 OpenBabel03242515083D

 30 31  0  0  0  0  0  0  0  0999 V2000
   46.3850   33.6700   44.7590 C   0  0  0  0  0  0  0  0  0  0  0  0
   45.2040   34.3360   44.9600 C   0  0  0  0  0  0  0  0  0  0  0  0
   44.7210   35.3350   44.1300 C   0  0  0  0  0  0  0  0  0  0  0  0
   45.4590   35.6850   43.0420 C   0  0  0  0  0  0  0  0  0  0  0  0
   46.6450   35.0460   42.8010 C   0  0  0  0  0  0  0  0  0  0  0  0
   47.1050   34.0500   43.6500 C   0  0  0  0  0  0  0  0  0  0  0  0
   44.5990   34.0750   45.8210 H   0  0  0  0  0  0  0  0  0  0  0  0
   43.7820   35.8130   44.3560 H   0  0  0  0  0  0  0  0  0  0  0  0
   45.0630   36.4750   42.3980 H   0  0  0  0  0  0  0  0  0  0  0  0
   47.1880   35.3650   41.9240 H   0  0  0  0  0  0  0  0  0  0  0  0
   47.6320   30.4320   45.9180 C   0  0  0  0  0  0  0  0  0  0  0  0
   47.7230   30.5900   47.2880 C   0  0  0  0  0  0  0  0  0  0  0  0
   47.3550   31.8170   47.8240 C   0  0  0  0  0  0  0  0  0  0  0  0
   46.9180   32.8260   47.0120 N   0  0  0  0  0  0  0  0  0  0  0  0
   46.8420   32.6290   45.6640 C   0  0  0  0  0  0  0  0  0  0  0  0
   47.1990   31.4430   45.1590 N   0  0  0  0  0  0  0  0  0  0  0  0
   47.9130   29.4760   45.4550 H   0  0  0  0  0  0  0  0  0  0  0  0
   48.0630   29.8120   47.9450 H   0  0  0  0  0  0  0  0  0  0  0  0
   47.3890   32.0490   48.8920 H   0  0  0  0  0  0  0  0  0  0  0  0
   48.3460   33.4820   43.2710 N   0  0  0  0  0  0  0  0  0  0  0  0
   48.3880   32.4650   43.5180 H   0  0  0  0  0  0  0  0  0  0  0  0
   49.7270   34.1340   42.5130 S   0  0  0  0  0  0  0  0  0  0  0  0
   49.4010   34.4240   41.0610 O   0  0  0  0  0  0  0  0  0  0  0  0
   49.0870   35.2810   40.6820 H   0  0  0  0  0  0  0  0  0  0  0  0
   50.2500   35.3750   43.1600 O   0  0  0  0  0  0  0  0  0  0  0  0
   50.6160   36.1210   42.6280 H   0  0  0  0  0  0  0  0  0  0  0  0
   50.8840   32.8990   42.4940 O   0  0  0  0  0  0  0  0  0  0  0  0
   50.6360   32.1350   41.3650 C   0  0  0  0  0  0  0  0  0  0  0  0
   51.9140   31.6770   40.6910 C   0  0  0  0  0  0  0  0  0  0  0  0
   51.6740   30.7920   40.0710 H   0  0  0  0  0  0  0  0  0  0  0  0
  1  2  1  0  0  0  0
  1 15  1  0  0  0  0
  2  7  1  0  0  0  0
  3  8  1  0  0  0  0
  3  2  2  0  0  0  0
  4  3  1  0  0  0  0
  5  4  2  0  0  0  0
  5  6  1  0  0  0  0
  6  1  2  0  0  0  0
  9  4  1  0  0  0  0
 10  5  1  0  0  0  0
 11 12  1  0  0  0  0
 12 13  2  0  0  0  0
 12 18  1  0  0  0  0
 13 19  1  0  0  0  0
 14 13  1  0  0  0  0
 15 14  2  0  0  0  0
 16 15  1  0  0  0  0
 16 11  2  0  0  0  0
 17 11  1  0  0  0  0
 20 21  1  0  0  0  0
 20  6  1  0  0  0  0
 22 25  1  0  0  0  0
 22 20  1  0  0  0  0
 23 22  1  0  0  0  0
 24 23  1  0  0  0  0
 26 25  1  0  0  0  0
 27 22  1  0  0  0  0
 28 27  1  0  0  0  0
 29 28  1  0  0  0  0
 30 29  1  0  0  0  0
M  END
>  <minimizedAffinity>
-5.73783159

>  <minimizedRMSD>
2.02045178

$$$$
