
 OpenBabel03242518163D

 26 27  0  0  0  0  0  0  0  0999 V2000
   36.0220   28.1740   40.3130 C   0  0  0  0  0  0  0  0  0  0  0  0
   35.2370   27.3880   40.1730 H   0  0  0  0  0  0  0  0  0  0  0  0
   36.6590   28.0460   39.3850 H   0  0  0  0  0  0  0  0  0  0  0  0
   36.8100   27.8490   41.4390 C   0  0  0  0  0  0  0  0  0  0  0  0
   36.6030   27.7860   42.8270 C   0  0  0  0  0  0  0  0  0  0  0  0
   37.6140   27.4370   43.6780 C   0  0  0  0  0  0  0  0  0  0  0  0
   38.8850   27.1410   43.0700 C   0  0  0  0  0  0  0  0  0  0  0  0
   38.6240   27.3660   41.2830 S   0  0  0  0  0  0  0  0  0  0  0  0
   35.5980   28.0350   43.1230 H   0  0  0  0  0  0  0  0  0  0  0  0
   37.4800   27.3820   44.7420 H   0  0  0  0  0  0  0  0  0  0  0  0
   39.9770   26.7930   43.6770 O   0  0  0  0  0  0  0  0  0  0  0  0
   40.6810   25.6150   43.3240 C   0  0  0  0  0  2  0  0  0  0  0  0
   39.7920   24.4160   43.2230 C   0  0  0  0  0  2  0  0  0  0  0  0
   38.8780   24.5830   43.8270 H   0  0  0  0  0  0  0  0  0  0  0  0
   35.3400   29.4810   40.2810 C   0  0  0  0  0  0  0  0  0  0  0  0
   34.9950   29.7500   41.3080 H   0  0  0  0  0  0  0  0  0  0  0  0
   34.4040   29.4880   39.6510 H   0  0  0  0  0  0  0  0  0  0  0  0
   36.2530   30.5250   39.8220 C   0  0  0  0  0  0  0  0  0  0  0  0
   36.6260   30.6330   38.5010 C   0  0  0  0  0  0  0  0  0  0  0  0
   37.5000   31.6450   38.1220 C   0  0  0  0  0  0  0  0  0  0  0  0
   37.9360   32.4760   39.0960 N   0  0  0  0  0  0  0  0  0  0  0  0
   37.5660   32.3590   40.3740 C   0  0  0  0  0  0  0  0  0  0  0  0
   36.7340   31.3900   40.7200 N   0  0  0  0  0  0  0  0  0  0  0  0
   36.2600   29.9510   37.7380 H   0  0  0  0  0  0  0  0  0  0  0  0
   37.8460   31.8090   37.1190 H   0  0  0  0  0  0  0  0  0  0  0  0
   37.9390   33.0490   41.1320 H   0  0  0  0  0  0  0  0  0  0  0  0
  1  4  1  0  0  0  0
  2  1  1  0  0  0  0
  3  1  1  0  0  0  0
  4  5  2  0  0  0  0
  5  9  1  0  0  0  0
  5  6  1  0  0  0  0
  6 10  1  0  0  0  0
  7 11  1  0  0  0  0
  7  6  2  0  0  0  0
  8  4  1  0  0  0  0
  8  7  1  0  0  0  0
 12 11  1  0  0  0  0
 13 12  1  0  0  0  0
 13 14  1  0  0  0  0
 15  1  1  0  0  0  0
 15 16  1  0  0  0  0
 17 15  1  0  0  0  0
 18 15  1  0  0  0  0
 18 23  1  0  0  0  0
 19 18  2  0  0  0  0
 20 19  1  0  0  0  0
 20 21  2  0  0  0  0
 21 22  1  0  0  0  0
 22 23  2  0  0  0  0
 22 26  1  0  0  0  0
 24 19  1  0  0  0  0
 25 20  1  0  0  0  0
M  END
>  <minimizedAffinity>
-4.39045382

$$$$

 OpenBabel03242518163D

 26 27  0  0  0  0  0  0  0  0999 V2000
   37.4400   28.4020   43.5800 C   0  0  0  0  0  0  0  0  0  0  0  0
   36.7350   28.8900   44.3000 H   0  0  0  0  0  0  0  0  0  0  0  0
   38.1780   27.8940   44.2730 H   0  0  0  0  0  0  0  0  0  0  0  0
   38.1280   29.3990   42.8550 C   0  0  0  0  0  0  0  0  0  0  0  0
   39.3830   30.0240   42.9490 C   0  0  0  0  0  0  0  0  0  0  0  0
   39.7550   30.9990   42.0650 C   0  0  0  0  0  0  0  0  0  0  0  0
   38.7940   31.3390   41.0500 C   0  0  0  0  0  0  0  0  0  0  0  0
   37.3620   30.2600   41.3660 S   0  0  0  0  0  0  0  0  0  0  0  0
   39.9870   29.6570   43.7620 H   0  0  0  0  0  0  0  0  0  0  0  0
   40.7090   31.4910   42.1160 H   0  0  0  0  0  0  0  0  0  0  0  0
   38.9290   32.2290   40.1150 O   0  0  0  0  0  0  0  0  0  0  0  0
   38.3800   33.5280   40.2400 C   0  0  0  0  0  2  0  0  0  0  0  0
   37.1580   33.7250   39.4000 C   0  0  0  0  0  2  0  0  0  0  0  0
   37.1660   32.9990   38.5630 H   0  0  0  0  0  0  0  0  0  0  0  0
   36.6700   27.3900   42.8340 C   0  0  0  0  0  0  0  0  0  0  0  0
   36.3490   27.8110   41.8510 H   0  0  0  0  0  0  0  0  0  0  0  0
   35.7100   27.0840   43.3440 H   0  0  0  0  0  0  0  0  0  0  0  0
   37.4900   26.2090   42.5740 C   0  0  0  0  0  0  0  0  0  0  0  0
   37.0000   25.1240   41.8830 C   0  0  0  0  0  0  0  0  0  0  0  0
   37.8250   24.0270   41.6660 C   0  0  0  0  0  0  0  0  0  0  0  0
   39.0820   24.0970   42.1590 N   0  0  0  0  0  0  0  0  0  0  0  0
   39.5440   25.1570   42.8290 C   0  0  0  0  0  0  0  0  0  0  0  0
   38.7470   26.1940   43.0270 N   0  0  0  0  0  0  0  0  0  0  0  0
   35.9840   25.0940   41.4970 H   0  0  0  0  0  0  0  0  0  0  0  0
   37.5330   23.1380   41.1390 H   0  0  0  0  0  0  0  0  0  0  0  0
   40.5660   25.1780   43.2110 H   0  0  0  0  0  0  0  0  0  0  0  0
  1  3  1  0  0  0  0
  1  2  1  0  0  0  0
  4  5  2  0  0  0  0
  4  1  1  0  0  0  0
  5  9  1  0  0  0  0
  6 10  1  0  0  0  0
  6  5  1  0  0  0  0
  7  8  1  0  0  0  0
  7  6  2  0  0  0  0
  8  4  1  0  0  0  0
 11 12  1  0  0  0  0
 11  7  1  0  0  0  0
 13 12  1  0  0  0  0
 14 13  1  0  0  0  0
 15 17  1  0  0  0  0
 15  1  1  0  0  0  0
 16 15  1  0  0  0  0
 18 15  1  0  0  0  0
 18 23  1  0  0  0  0
 19 18  2  0  0  0  0
 20 19  1  0  0  0  0
 20 21  2  0  0  0  0
 21 22  1  0  0  0  0
 22 23  2  0  0  0  0
 22 26  1  0  0  0  0
 24 19  1  0  0  0  0
 25 20  1  0  0  0  0
M  END
>  <minimizedAffinity>
-4.37191105

$$$$

 OpenBabel03242518163D

 26 27  0  0  0  0  0  0  0  0999 V2000
   36.4030   30.7220   41.0330 C   0  0  0  0  0  0  0  0  0  0  0  0
   36.5750   31.6410   41.6490 H   0  0  0  0  0  0  0  0  0  0  0  0
   35.2780   30.6050   41.0860 H   0  0  0  0  0  0  0  0  0  0  0  0
   36.9930   29.6140   41.6790 C   0  0  0  0  0  0  0  0  0  0  0  0
   37.8850   29.4310   42.7490 C   0  0  0  0  0  0  0  0  0  0  0  0
   38.2840   28.1800   43.1320 C   0  0  0  0  0  0  0  0  0  0  0  0
   37.7420   27.0800   42.3780 C   0  0  0  0  0  0  0  0  0  0  0  0
   36.6620   27.8430   41.1280 S   0  0  0  0  0  0  0  0  0  0  0  0
   38.1980   30.3520   43.2100 H   0  0  0  0  0  0  0  0  0  0  0  0
   38.9650   28.0150   43.9470 H   0  0  0  0  0  0  0  0  0  0  0  0
   37.9810   25.8180   42.5600 O   0  0  0  0  0  0  0  0  0  0  0  0
   37.0720   24.8200   42.1330 C   0  0  0  0  0  2  0  0  0  0  0  0
   37.7340   23.7230   41.3620 C   0  0  0  0  0  2  0  0  0  0  0  0
   38.6830   24.0980   40.9290 H   0  0  0  0  0  0  0  0  0  0  0  0
   36.8140   31.0390   39.6540 C   0  0  0  0  0  0  0  0  0  0  0  0
   35.9530   31.4800   39.0970 H   0  0  0  0  0  0  0  0  0  0  0  0
   37.1130   30.1320   39.0510 H   0  0  0  0  0  0  0  0  0  0  0  0
   37.9010   32.0150   39.6530 C   0  0  0  0  0  0  0  0  0  0  0  0
   37.7470   33.2720   40.1930 C   0  0  0  0  0  0  0  0  0  0  0  0
   38.8150   34.1610   40.1620 C   0  0  0  0  0  0  0  0  0  0  0  0
   39.9610   33.7250   39.5910 N   0  0  0  0  0  0  0  0  0  0  0  0
   40.0960   32.5020   39.0700 C   0  0  0  0  0  0  0  0  0  0  0  0
   39.0700   31.6670   39.1070 N   0  0  0  0  0  0  0  0  0  0  0  0
   36.8140   33.5970   40.6460 H   0  0  0  0  0  0  0  0  0  0  0  0
   38.7900   35.1600   40.5570 H   0  0  0  0  0  0  0  0  0  0  0  0
   41.0370   32.1840   38.6190 H   0  0  0  0  0  0  0  0  0  0  0  0
  1  3  1  0  0  0  0
  1  2  1  0  0  0  0
  1  4  1  0  0  0  0
  4  5  2  0  0  0  0
  5  6  1  0  0  0  0
  5  9  1  0  0  0  0
  6 10  1  0  0  0  0
  7 11  1  0  0  0  0
  7  6  2  0  0  0  0
  8  4  1  0  0  0  0
  8  7  1  0  0  0  0
 12 11  1  0  0  0  0
 13 12  1  0  0  0  0
 14 13  1  0  0  0  0
 15  1  1  0  0  0  0
 16 15  1  0  0  0  0
 17 15  1  0  0  0  0
 18 15  1  0  0  0  0
 18 19  1  0  0  0  0
 19 24  1  0  0  0  0
 20 19  2  0  0  0  0
 20 25  1  0  0  0  0
 21 20  1  0  0  0  0
 22 23  1  0  0  0  0
 22 21  2  0  0  0  0
 23 18  2  0  0  0  0
 26 22  1  0  0  0  0
M  END
>  <minimizedAffinity>
-4.28847456

$$$$

 OpenBabel03242518163D

 26 27  0  0  0  0  0  0  0  0999 V2000
   36.3120   28.2490   41.6250 C   0  0  0  0  0  0  0  0  0  0  0  0
   36.6300   27.5280   40.8300 H   0  0  0  0  0  0  0  0  0  0  0  0
   35.1850   28.2540   41.5100 H   0  0  0  0  0  0  0  0  0  0  0  0
   36.7940   29.5370   41.3030 C   0  0  0  0  0  0  0  0  0  0  0  0
   36.2810   30.6670   40.6460 C   0  0  0  0  0  0  0  0  0  0  0  0
   37.0370   31.7940   40.4810 C   0  0  0  0  0  0  0  0  0  0  0  0
   38.3720   31.7490   41.0160 C   0  0  0  0  0  0  0  0  0  0  0  0
   38.5370   30.0930   41.7530 S   0  0  0  0  0  0  0  0  0  0  0  0
   35.2670   30.5430   40.3050 H   0  0  0  0  0  0  0  0  0  0  0  0
   36.6670   32.6710   39.9820 H   0  0  0  0  0  0  0  0  0  0  0  0
   39.2610   32.6930   40.9750 O   0  0  0  0  0  0  0  0  0  0  0  0
   39.4350   33.5010   39.8250 C   0  0  0  0  0  2  0  0  0  0  0  0
   40.4390   32.9420   38.8680 C   0  0  0  0  0  2  0  0  0  0  0  0
   41.1290   32.2650   39.4120 H   0  0  0  0  0  0  0  0  0  0  0  0
   36.6830   27.6590   42.9240 C   0  0  0  0  0  0  0  0  0  0  0  0
   35.7610   27.3510   43.4740 H   0  0  0  0  0  0  0  0  0  0  0  0
   37.2060   28.3800   43.6170 H   0  0  0  0  0  0  0  0  0  0  0  0
   37.5110   26.4710   42.7300 C   0  0  0  0  0  0  0  0  0  0  0  0
   37.0080   25.3220   42.1610 C   0  0  0  0  0  0  0  0  0  0  0  0
   37.8410   24.2210   42.0020 C   0  0  0  0  0  0  0  0  0  0  0  0
   39.1190   24.3510   42.4270 N   0  0  0  0  0  0  0  0  0  0  0  0
   39.5930   25.4720   42.9780 C   0  0  0  0  0  0  0  0  0  0  0  0
   38.7880   26.5120   43.1210 N   0  0  0  0  0  0  0  0  0  0  0  0
   35.9760   25.2440   41.8280 H   0  0  0  0  0  0  0  0  0  0  0  0
   37.5410   23.2850   41.5700 H   0  0  0  0  0  0  0  0  0  0  0  0
   40.6310   25.5410   43.3080 H   0  0  0  0  0  0  0  0  0  0  0  0
  1 15  1  0  0  0  0
  2  1  1  0  0  0  0
  3  1  1  0  0  0  0
  4  1  1  0  0  0  0
  4  8  1  0  0  0  0
  5  4  2  0  0  0  0
  6  5  1  0  0  0  0
  6  7  2  0  0  0  0
  7  8  1  0  0  0  0
  9  5  1  0  0  0  0
 10  6  1  0  0  0  0
 11  7  1  0  0  0  0
 12 11  1  0  0  0  0
 13 14  1  0  0  0  0
 13 12  1  0  0  0  0
 15 16  1  0  0  0  0
 15 17  1  0  0  0  0
 18 15  1  0  0  0  0
 18 23  1  0  0  0  0
 19 18  2  0  0  0  0
 20 19  1  0  0  0  0
 20 21  2  0  0  0  0
 21 22  1  0  0  0  0
 22 23  2  0  0  0  0
 22 26  1  0  0  0  0
 24 19  1  0  0  0  0
 25 20  1  0  0  0  0
M  END
>  <minimizedAffinity>
-4.27298498

$$$$

 OpenBabel03242518163D

 26 27  0  0  0  0  0  0  0  0999 V2000
   38.5450   29.3020   42.8750 C   0  0  0  0  0  0  0  0  0  0  0  0
   38.9560   30.0630   43.5850 H   0  0  0  0  0  0  0  0  0  0  0  0
   39.4860   28.8370   42.4490 H   0  0  0  0  0  0  0  0  0  0  0  0
   37.8660   29.9630   41.8280 C   0  0  0  0  0  0  0  0  0  0  0  0
   36.5220   30.1530   41.4630 C   0  0  0  0  0  0  0  0  0  0  0  0
   36.1870   30.8570   40.3400 C   0  0  0  0  0  0  0  0  0  0  0  0
   37.2810   31.3830   39.5680 C   0  0  0  0  0  0  0  0  0  0  0  0
   38.7850   30.8660   40.4540 S   0  0  0  0  0  0  0  0  0  0  0  0
   35.8230   29.6980   42.1450 H   0  0  0  0  0  0  0  0  0  0  0  0
   35.1670   31.0160   40.0410 H   0  0  0  0  0  0  0  0  0  0  0  0
   37.2010   32.0750   38.4730 O   0  0  0  0  0  0  0  0  0  0  0  0
   37.7680   31.6150   37.2600 C   0  0  0  0  0  2  0  0  0  0  0  0
   37.1960   30.3080   36.8100 C   0  0  0  0  0  2  0  0  0  0  0  0
   36.7720   29.7720   37.6830 H   0  0  0  0  0  0  0  0  0  0  0  0
   37.8100   28.3090   43.6790 C   0  0  0  0  0  0  0  0  0  0  0  0
   36.7110   28.4580   43.5480 H   0  0  0  0  0  0  0  0  0  0  0  0
   37.9840   28.4070   44.7900 H   0  0  0  0  0  0  0  0  0  0  0  0
   38.1370   26.9530   43.2450 C   0  0  0  0  0  0  0  0  0  0  0  0
   37.2750   26.2130   42.4660 C   0  0  0  0  0  0  0  0  0  0  0  0
   37.6380   24.9280   42.0840 C   0  0  0  0  0  0  0  0  0  0  0  0
   38.8400   24.4760   42.5110 N   0  0  0  0  0  0  0  0  0  0  0  0
   39.6660   25.2050   43.2670 C   0  0  0  0  0  0  0  0  0  0  0  0
   39.3060   26.4270   43.6220 N   0  0  0  0  0  0  0  0  0  0  0  0
   36.3150   26.6010   42.1370 H   0  0  0  0  0  0  0  0  0  0  0  0
   37.0350   24.2770   41.4790 H   0  0  0  0  0  0  0  0  0  0  0  0
   40.6280   24.8070   43.5920 H   0  0  0  0  0  0  0  0  0  0  0  0
  1  2  1  0  0  0  0
  1 15  1  0  0  0  0
  3  1  1  0  0  0  0
  4  1  1  0  0  0  0
  5  4  2  0  0  0  0
  5  9  1  0  0  0  0
  6  5  1  0  0  0  0
  7  6  2  0  0  0  0
  7  8  1  0  0  0  0
  8  4  1  0  0  0  0
 10  6  1  0  0  0  0
 11  7  1  0  0  0  0
 12 11  1  0  0  0  0
 13 12  1  0  0  0  0
 13 14  1  0  0  0  0
 15 17  1  0  0  0  0
 16 15  1  0  0  0  0
 18 23  1  0  0  0  0
 18 15  1  0  0  0  0
 19 18  2  0  0  0  0
 20 19  1  0  0  0  0
 20 21  2  0  0  0  0
 21 22  1  0  0  0  0
 22 26  1  0  0  0  0
 22 23  2  0  0  0  0
 24 19  1  0  0  0  0
 25 20  1  0  0  0  0
M  END
>  <minimizedAffinity>
-4.25211906

$$$$

 OpenBabel03242518163D

 26 27  0  0  0  0  0  0  0  0999 V2000
   39.1820   30.0840   42.7800 C   0  0  0  0  0  0  0  0  0  0  0  0
   40.0370   29.9950   43.4970 H   0  0  0  0  0  0  0  0  0  0  0  0
   38.6080   30.9670   43.1970 H   0  0  0  0  0  0  0  0  0  0  0  0
   38.3660   28.9360   42.8860 C   0  0  0  0  0  0  0  0  0  0  0  0
   37.2720   28.5500   43.6790 C   0  0  0  0  0  0  0  0  0  0  0  0
   36.6960   27.3180   43.5370 C   0  0  0  0  0  0  0  0  0  0  0  0
   37.2730   26.4560   42.5400 C   0  0  0  0  0  0  0  0  0  0  0  0
   38.6360   27.4150   41.8090 S   0  0  0  0  0  0  0  0  0  0  0  0
   36.9590   29.3070   44.3770 H   0  0  0  0  0  0  0  0  0  0  0  0
   35.8590   27.0000   44.1320 H   0  0  0  0  0  0  0  0  0  0  0  0
   36.8940   25.2530   42.2360 O   0  0  0  0  0  0  0  0  0  0  0  0
   37.3570   24.6000   41.0680 C   0  0  0  0  0  2  0  0  0  0  0  0
   36.2480   24.0270   40.2440 C   0  0  0  0  0  2  0  0  0  0  0  0
   35.3600   23.8600   40.8860 H   0  0  0  0  0  0  0  0  0  0  0  0
   39.7500   30.4280   41.4640 C   0  0  0  0  0  0  0  0  0  0  0  0
   39.5860   29.5840   40.7510 H   0  0  0  0  0  0  0  0  0  0  0  0
   40.8690   30.5790   41.4790 H   0  0  0  0  0  0  0  0  0  0  0  0
   39.0980   31.6150   40.9180 C   0  0  0  0  0  0  0  0  0  0  0  0
   37.8590   31.5510   40.3180 C   0  0  0  0  0  0  0  0  0  0  0  0
   37.2870   32.7120   39.8140 C   0  0  0  0  0  0  0  0  0  0  0  0
   37.9980   33.8550   39.9460 N   0  0  0  0  0  0  0  0  0  0  0  0
   39.1990   33.9030   40.5300 C   0  0  0  0  0  0  0  0  0  0  0  0
   39.7310   32.7890   41.0050 N   0  0  0  0  0  0  0  0  0  0  0  0
   37.3090   30.6180   40.2250 H   0  0  0  0  0  0  0  0  0  0  0  0
   36.3280   32.7610   39.3310 H   0  0  0  0  0  0  0  0  0  0  0  0
   39.7430   34.8440   40.6190 H   0  0  0  0  0  0  0  0  0  0  0  0
  1  4  1  0  0  0  0
  1  3  1  0  0  0  0
  1  2  1  0  0  0  0
  4  5  2  0  0  0  0
  5  9  1  0  0  0  0
  6  5  1  0  0  0  0
  6 10  1  0  0  0  0
  7  6  2  0  0  0  0
  8  7  1  0  0  0  0
  8  4  1  0  0  0  0
 11  7  1  0  0  0  0
 12 11  1  0  0  0  0
 13 14  1  0  0  0  0
 13 12  1  0  0  0  0
 15 17  1  0  0  0  0
 15  1  1  0  0  0  0
 16 15  1  0  0  0  0
 18 23  1  0  0  0  0
 18 15  1  0  0  0  0
 19 18  2  0  0  0  0
 20 21  2  0  0  0  0
 20 19  1  0  0  0  0
 21 22  1  0  0  0  0
 22 26  1  0  0  0  0
 22 23  2  0  0  0  0
 24 19  1  0  0  0  0
 25 20  1  0  0  0  0
M  END
>  <minimizedAffinity>
-4.23163414

$$$$

 OpenBabel03242518163D

 26 27  0  0  0  0  0  0  0  0999 V2000
   35.7610   28.5770   39.7640 C   0  0  0  0  0  0  0  0  0  0  0  0
   35.0400   28.2790   38.9610 H   0  0  0  0  0  0  0  0  0  0  0  0
   35.0850   28.6890   40.6660 H   0  0  0  0  0  0  0  0  0  0  0  0
   36.3000   29.8450   39.4550 C   0  0  0  0  0  0  0  0  0  0  0  0
   36.7930   30.4750   38.3000 C   0  0  0  0  0  0  0  0  0  0  0  0
   37.2740   31.7540   38.3410 C   0  0  0  0  0  0  0  0  0  0  0  0
   37.2450   32.4040   39.6250 C   0  0  0  0  0  0  0  0  0  0  0  0
   36.5270   31.1800   40.7650 S   0  0  0  0  0  0  0  0  0  0  0  0
   36.7460   29.8550   37.4200 H   0  0  0  0  0  0  0  0  0  0  0  0
   37.6560   32.2560   37.4710 H   0  0  0  0  0  0  0  0  0  0  0  0
   37.6480   33.6060   39.8990 O   0  0  0  0  0  0  0  0  0  0  0  0
   38.8510   33.8430   40.6070 C   0  0  0  0  0  2  0  0  0  0  0  0
   40.0610   33.8020   39.7280 C   0  0  0  0  0  2  0  0  0  0  0  0
   39.8370   33.2040   38.8220 H   0  0  0  0  0  0  0  0  0  0  0  0
   36.6840   27.4450   39.9630 C   0  0  0  0  0  0  0  0  0  0  0  0
   37.5070   27.4940   39.2090 H   0  0  0  0  0  0  0  0  0  0  0  0
   36.2050   26.4360   39.8010 H   0  0  0  0  0  0  0  0  0  0  0  0
   37.2850   27.5010   41.2930 C   0  0  0  0  0  0  0  0  0  0  0  0
   36.5240   27.6870   42.4250 C   0  0  0  0  0  0  0  0  0  0  0  0
   37.1500   27.7340   43.6650 C   0  0  0  0  0  0  0  0  0  0  0  0
   38.4950   27.5910   43.6790 N   0  0  0  0  0  0  0  0  0  0  0  0
   39.2210   27.4110   42.5720 C   0  0  0  0  0  0  0  0  0  0  0  0
   38.6110   27.3690   41.3990 N   0  0  0  0  0  0  0  0  0  0  0  0
   35.4440   27.7990   42.3850 H   0  0  0  0  0  0  0  0  0  0  0  0
   36.6430   27.8740   44.6010 H   0  0  0  0  0  0  0  0  0  0  0  0
   40.3050   27.2980   42.6230 H   0  0  0  0  0  0  0  0  0  0  0  0
  1 15  1  0  0  0  0
  1  3  1  0  0  0  0
  2  1  1  0  0  0  0
  4  1  1  0  0  0  0
  4  8  1  0  0  0  0
  5  6  1  0  0  0  0
  5  4  2  0  0  0  0
  6  7  2  0  0  0  0
  7 11  1  0  0  0  0
  7  8  1  0  0  0  0
  9  5  1  0  0  0  0
 10  6  1  0  0  0  0
 11 12  1  0  0  0  0
 13 12  1  0  0  0  0
 14 13  1  0  0  0  0
 15 18  1  0  0  0  0
 16 15  1  0  0  0  0
 17 15  1  0  0  0  0
 18 23  2  0  0  0  0
 18 19  1  0  0  0  0
 19 20  2  0  0  0  0
 20 21  1  0  0  0  0
 20 25  1  0  0  0  0
 22 26  1  0  0  0  0
 22 21  2  0  0  0  0
 23 22  1  0  0  0  0
 24 19  1  0  0  0  0
M  END
>  <minimizedAffinity>
-4.21928215

$$$$

 OpenBabel03242518163D

 26 27  0  0  0  0  0  0  0  0999 V2000
   38.1060   28.8760   43.2720 C   0  0  0  0  0  0  0  0  0  0  0  0
   37.9630   29.0890   44.3610 H   0  0  0  0  0  0  0  0  0  0  0  0
   37.0510   28.9680   42.8680 H   0  0  0  0  0  0  0  0  0  0  0  0
   38.5250   27.5380   43.1110 C   0  0  0  0  0  0  0  0  0  0  0  0
   39.5150   26.7190   43.6800 C   0  0  0  0  0  0  0  0  0  0  0  0
   39.6760   25.4210   43.2790 C   0  0  0  0  0  0  0  0  0  0  0  0
   38.7800   24.9560   42.2530 C   0  0  0  0  0  0  0  0  0  0  0  0
   37.7130   26.3780   41.8690 S   0  0  0  0  0  0  0  0  0  0  0  0
   40.1020   27.2150   44.4340 H   0  0  0  0  0  0  0  0  0  0  0  0
   40.4250   24.7760   43.6990 H   0  0  0  0  0  0  0  0  0  0  0  0
   38.7510   23.7720   41.7220 O   0  0  0  0  0  0  0  0  0  0  0  0
   37.6420   23.3240   40.9640 C   0  0  0  0  0  2  0  0  0  0  0  0
   37.9520   22.1140   40.1410 C   0  0  0  0  0  2  0  0  0  0  0  0
   39.0450   22.0610   39.9630 H   0  0  0  0  0  0  0  0  0  0  0  0
   38.9510   29.9530   42.7250 C   0  0  0  0  0  0  0  0  0  0  0  0
   39.8860   29.5160   42.2960 H   0  0  0  0  0  0  0  0  0  0  0  0
   39.3080   30.6890   43.5030 H   0  0  0  0  0  0  0  0  0  0  0  0
   38.2520   30.6620   41.6560 C   0  0  0  0  0  0  0  0  0  0  0  0
   38.8540   31.6750   40.9430 C   0  0  0  0  0  0  0  0  0  0  0  0
   38.1400   32.3160   39.9380 C   0  0  0  0  0  0  0  0  0  0  0  0
   36.8730   31.8950   39.7200 N   0  0  0  0  0  0  0  0  0  0  0  0
   36.3020   30.9110   40.4210 C   0  0  0  0  0  0  0  0  0  0  0  0
   36.9940   30.3100   41.3740 N   0  0  0  0  0  0  0  0  0  0  0  0
   39.8750   31.9930   41.1390 H   0  0  0  0  0  0  0  0  0  0  0  0
   38.5240   33.1140   39.3300 H   0  0  0  0  0  0  0  0  0  0  0  0
   35.2770   30.5980   40.2160 H   0  0  0  0  0  0  0  0  0  0  0  0
  1  2  1  0  0  0  0
  3  1  1  0  0  0  0
  4  1  1  0  0  0  0
  4  5  2  0  0  0  0
  5  9  1  0  0  0  0
  6  5  1  0  0  0  0
  6 10  1  0  0  0  0
  7  6  2  0  0  0  0
  8  7  1  0  0  0  0
  8  4  1  0  0  0  0
 11  7  1  0  0  0  0
 12 11  1  0  0  0  0
 13 12  1  0  0  0  0
 14 13  1  0  0  0  0
 15  1  1  0  0  0  0
 15 17  1  0  0  0  0
 16 15  1  0  0  0  0
 18 15  1  0  0  0  0
 19 24  1  0  0  0  0
 19 18  2  0  0  0  0
 20 19  1  0  0  0  0
 21 20  2  0  0  0  0
 21 22  1  0  0  0  0
 22 23  2  0  0  0  0
 23 18  1  0  0  0  0
 25 20  1  0  0  0  0
 26 22  1  0  0  0  0
M  END
>  <minimizedAffinity>
-4.10983467

$$$$

 OpenBabel03242518163D

 26 27  0  0  0  0  0  0  0  0999 V2000
   37.5970   30.1760   37.8280 C   0  0  0  0  0  0  0  0  0  0  0  0
   37.1300   29.7300   36.9140 H   0  0  0  0  0  0  0  0  0  0  0  0
   38.6550   29.7730   37.7800 H   0  0  0  0  0  0  0  0  0  0  0  0
   36.9720   29.6410   38.9760 C   0  0  0  0  0  0  0  0  0  0  0  0
   35.6680   29.6300   39.4980 C   0  0  0  0  0  0  0  0  0  0  0  0
   35.3860   29.0130   40.6850 C   0  0  0  0  0  0  0  0  0  0  0  0
   36.4950   28.3850   41.3550 C   0  0  0  0  0  0  0  0  0  0  0  0
   37.9340   28.6820   40.2810 S   0  0  0  0  0  0  0  0  0  0  0  0
   34.9520   30.1420   38.8780 H   0  0  0  0  0  0  0  0  0  0  0  0
   34.3970   28.9910   41.1040 H   0  0  0  0  0  0  0  0  0  0  0  0
   36.4630   27.7480   42.4850 O   0  0  0  0  0  0  0  0  0  0  0  0
   37.2750   28.1330   43.5790 C   0  0  0  0  0  2  0  0  0  0  0  0
   38.5330   27.3310   43.6800 C   0  0  0  0  0  2  0  0  0  0  0  0
   38.3920   26.3600   43.1640 H   0  0  0  0  0  0  0  0  0  0  0  0
   37.6050   31.6380   37.6430 C   0  0  0  0  0  0  0  0  0  0  0  0
   36.5590   32.0290   37.6870 H   0  0  0  0  0  0  0  0  0  0  0  0
   37.9930   31.9650   36.6350 H   0  0  0  0  0  0  0  0  0  0  0  0
   38.3740   32.2850   38.7030 C   0  0  0  0  0  0  0  0  0  0  0  0
   37.7870   33.1480   39.6020 C   0  0  0  0  0  0  0  0  0  0  0  0
   38.5680   33.7370   40.5890 C   0  0  0  0  0  0  0  0  0  0  0  0
   39.8820   33.4180   40.6040 N   0  0  0  0  0  0  0  0  0  0  0  0
   40.4390   32.5800   39.7250 C   0  0  0  0  0  0  0  0  0  0  0  0
   39.6820   32.0270   38.7910 N   0  0  0  0  0  0  0  0  0  0  0  0
   36.7270   33.3870   39.5670 H   0  0  0  0  0  0  0  0  0  0  0  0
   38.2010   34.4200   41.3320 H   0  0  0  0  0  0  0  0  0  0  0  0
   41.5030   32.3450   39.7690 H   0  0  0  0  0  0  0  0  0  0  0  0
  1  4  1  0  0  0  0
  2  1  1  0  0  0  0
  3  1  1  0  0  0  0
  4  5  2  0  0  0  0
  4  8  1  0  0  0  0
  5  6  1  0  0  0  0
  6 10  1  0  0  0  0
  6  7  2  0  0  0  0
  7 11  1  0  0  0  0
  8  7  1  0  0  0  0
  9  5  1  0  0  0  0
 11 12  1  0  0  0  0
 12 13  1  0  0  0  0
 14 13  1  0  0  0  0
 15 16  1  0  0  0  0
 15  1  1  0  0  0  0
 15 18  1  0  0  0  0
 17 15  1  0  0  0  0
 18 23  2  0  0  0  0
 18 19  1  0  0  0  0
 19 20  2  0  0  0  0
 20 21  1  0  0  0  0
 20 25  1  0  0  0  0
 22 26  1  0  0  0  0
 22 21  2  0  0  0  0
 23 22  1  0  0  0  0
 24 19  1  0  0  0  0
M  END
>  <minimizedAffinity>
-4.09787464

$$$$
