
 OpenBabel03252509313D

 21 21  0  0  0  0  0  0  0  0999 V2000
   46.9280   33.0600   43.2170 C   0  0  0  0  0  0  0  0  0  0  0  0
   46.7720   32.8680   42.1490 H   0  0  0  0  0  0  0  0  0  0  0  0
   46.5990   32.1250   43.7490 H   0  0  0  0  0  0  0  0  0  0  0  0
   44.7640   35.0820   45.4870 C   0  0  0  0  0  0  0  0  0  0  0  0
   45.5710   34.0350   45.0060 C   0  0  0  0  0  0  0  0  0  0  0  0
   46.0850   34.1410   43.7340 C   0  0  0  0  0  0  0  0  0  0  0  0
   45.7940   35.2540   42.9960 N   0  0  0  0  0  0  0  0  0  0  0  0
   45.0090   36.2580   43.4820 C   0  0  0  0  0  0  0  0  0  0  0  0
   44.5120   36.1520   44.7130 N   0  0  0  0  0  0  0  0  0  0  0  0
   44.3880   34.9400   46.4920 H   0  0  0  0  0  0  0  0  0  0  0  0
   45.7980   33.1550   45.5980 H   0  0  0  0  0  0  0  0  0  0  0  0
   44.8130   37.1200   42.8430 H   0  0  0  0  0  0  0  0  0  0  0  0
   48.2630   33.2260   43.5840 O   0  0  0  0  0  0  0  0  0  0  0  0
   49.3210   31.8180   41.6600 O   0  0  0  0  0  0  0  0  0  0  0  0
   49.1710   33.2380   42.1580 P   0  0  2  0  0  0  0  0  0  0  0  0
   50.6400   33.9620   42.5150 O   0  0  0  0  0  0  0  0  0  0  0  0
   51.4150   33.3590   42.5080 H   0  0  0  0  0  0  0  0  0  0  0  0
   48.3140   34.1000   41.0010 O   0  0  0  0  0  0  0  0  0  0  0  0
   49.0020   35.2740   40.6620 C   0  0  0  0  0  2  0  0  0  0  0  0
   49.0030   36.2660   41.7870 C   0  0  0  0  0  2  0  0  0  0  0  0
   49.0830   35.7210   42.7710 H   0  0  0  0  0  0  0  0  0  0  0  0
  1 13  1  0  0  0  0
  1  6  1  0  0  0  0
  1  3  1  0  0  0  0
  2  1  1  0  0  0  0
  4 10  1  0  0  0  0
  5  4  1  0  0  0  0
  5 11  1  0  0  0  0
  6  5  2  0  0  0  0
  7  8  2  0  0  0  0
  7  6  1  0  0  0  0
  8  9  1  0  0  0  0
  9  4  2  0  0  0  0
 12  8  1  0  0  0  0
 15 14  2  6  0  0  0
 15 16  1  0  0  0  0
 15 13  1  0  0  0  0
 17 16  1  0  0  0  0
 18 15  1  0  0  0  0
 19 18  1  0  0  0  0
 19 20  1  0  0  0  0
 20 21  1  0  0  0  0
M  END
>  <minimizedAffinity>
-3.69229674

>  <minimizedRMSD>
1.11702752

$$$$
