
 OpenBabel03252500433D

 28 29  0  0  1  0  0  0  0  0999 V2000
   47.6000   35.2350   41.8200 C   0  0  1  0  0  0  0  0  0  0  0  0
   49.0870   35.4870   41.6430 C   0  0  0  0  0  0  0  0  0  0  0  0
   48.2520   34.9540   40.4980 C   0  0  1  0  0  0  0  0  0  0  0  0
   47.0370   36.1910   41.8180 H   0  0  0  0  0  0  0  0  0  0  0  0
   49.4910   36.5000   41.5950 H   0  0  0  0  0  0  0  0  0  0  0  0
   49.7770   34.7350   42.1200 H   0  0  0  0  0  0  0  0  0  0  0  0
   48.1060   35.6440   39.6420 H   0  0  0  0  0  0  0  0  0  0  0  0
   47.2170   34.0460   42.6020 C   0  0  0  0  0  0  0  0  0  0  0  0
   46.6310   33.3670   41.9190 H   0  0  0  0  0  0  0  0  0  0  0  0
   48.0910   33.4840   42.9580 H   0  0  0  0  0  0  0  0  0  0  0  0
   46.3370   34.3190   43.7510 C   0  0  0  0  0  0  0  0  0  0  0  0
   45.5000   35.3860   43.5630 C   0  0  0  0  0  0  0  0  0  0  0  0
   44.6100   35.7660   44.5770 C   0  0  0  0  0  0  0  0  0  0  0  0
   44.6480   35.0070   45.7270 N   0  0  0  0  0  0  0  0  0  0  0  0
   45.4830   33.9600   45.8860 C   0  0  0  0  0  0  0  0  0  0  0  0
   46.3080   33.6370   44.9000 N   0  0  0  0  0  0  0  0  0  0  0  0
   45.3190   36.0820   42.7540 H   0  0  0  0  0  0  0  0  0  0  0  0
   43.8920   36.5720   44.5920 H   0  0  0  0  0  0  0  0  0  0  0  0
   45.4390   33.4310   46.8140 H   0  0  0  0  0  0  0  0  0  0  0  0
   48.4220   33.6380   40.1560 O   0  0  0  0  0  0  0  0  0  0  0  0
   48.4150   34.7030   37.7060 O   0  0  0  0  0  0  0  0  0  0  0  0
   48.4520   33.4030   38.4840 P   0  0  1  0  0  0  0  0  0  0  0  0
   49.9200   32.6130   38.0930 O   0  0  0  0  0  0  0  0  0  0  0  0
   50.0610   32.6750   37.1140 H   0  0  0  0  0  0  0  0  0  0  0  0
   47.1710   32.3910   38.0570 O   0  0  0  0  0  0  0  0  0  0  0  0
   46.7380   32.6240   36.7570 C   0  0  0  0  0  0  0  0  0  0  0  0
   45.3180   33.1850   36.8280 C   0  0  0  0  0  0  0  0  0  0  0  0
   44.5570   32.3860   36.6250 H   0  0  0  0  0  0  0  0  0  0  0  0
  1  4  1  1  0  0  0
  1  8  1  0  0  0  0
  2  1  1  0  0  0  0
  2  6  1  0  0  0  0
  3  7  1  6  0  0  0
  3  2  1  0  0  0  0
  3  1  1  0  0  0  0
  5  2  1  0  0  0  0
  8 10  1  0  0  0  0
  8 11  1  0  0  0  0
  9  8  1  0  0  0  0
 11 16  1  0  0  0  0
 12 11  2  0  0  0  0
 12 13  1  0  0  0  0
 13 18  1  0  0  0  0
 13 14  2  0  0  0  0
 14 15  1  0  0  0  0
 15 19  1  0  0  0  0
 16 15  2  0  0  0  0
 17 12  1  0  0  0  0
 20  3  1  0  0  0  0
 22 21  2  6  0  0  0
 22 20  1  0  0  0  0
 23 22  1  0  0  0  0
 24 23  1  0  0  0  0
 25 22  1  0  0  0  0
 26 27  1  0  0  0  0
 26 25  1  0  0  0  0
 28 27  1  0  0  0  0
M  END
>  <minimizedAffinity>
-4.56240082

>  <minimizedRMSD>
0.921420395

$$$$
