
 OpenBabel03252505273D

 18 18  0  0  0  0  0  0  0  0999 V2000
   44.4860   35.6290   44.7410 C   0  0  0  0  0  0  0  0  0  0  0  0
   44.8770   35.7780   43.3880 C   0  0  0  0  0  0  0  0  0  0  0  0
   45.9450   34.9740   42.9600 C   0  0  0  0  0  0  0  0  0  0  0  0
   46.5340   34.1230   43.8260 N   0  0  0  0  0  0  0  0  0  0  0  0
   46.1220   34.0170   45.1150 C   0  0  0  0  0  0  0  0  0  0  0  0
   45.1150   34.7580   45.5640 N   0  0  0  0  0  0  0  0  0  0  0  0
   43.6620   36.2620   45.0360 H   0  0  0  0  0  0  0  0  0  0  0  0
   44.4090   36.4530   42.7090 H   0  0  0  0  0  0  0  0  0  0  0  0
   46.3260   35.0020   41.9580 H   0  0  0  0  0  0  0  0  0  0  0  0
   46.6990   33.1550   46.0390 O   0  0  0  0  0  0  0  0  0  0  0  0
   46.9490   32.2300   48.4370 O   0  0  0  0  0  0  0  0  0  0  0  0
   45.9250   32.4020   47.3240 P   0  0  1  0  0  0  0  0  0  0  0  0
   44.6250   33.3380   47.8610 O   0  0  0  0  0  0  0  0  0  0  0  0
   44.8370   33.7070   48.7530 H   0  0  0  0  0  0  0  0  0  0  0  0
   45.3280   30.8690   46.9540 O   0  0  0  0  0  0  0  0  0  0  0  0
   45.0980   30.1130   48.0930 C   0  0  0  0  0  0  0  0  0  0  0  0
   45.1230   28.6130   47.7830 C   0  0  0  0  0  0  0  0  0  0  0  0
   45.7150   28.0800   48.5680 H   0  0  0  0  0  0  0  0  0  0  0  0
  1  7  1  0  0  0  0
  1  6  1  0  0  0  0
  2  1  2  0  0  0  0
  3  2  1  0  0  0  0
  3  4  2  0  0  0  0
  4  5  1  0  0  0  0
  5  6  2  0  0  0  0
  5 10  1  0  0  0  0
  8  2  1  0  0  0  0
  9  3  1  0  0  0  0
 10 12  1  0  0  0  0
 12 13  1  0  0  0  0
 12 11  2  1  0  0  0
 13 14  1  0  0  0  0
 15 12  1  0  0  0  0
 15 16  1  0  0  0  0
 17 16  1  0  0  0  0
 17 18  1  0  0  0  0
M  END
>  <minimizedAffinity>
-4.2024765

>  <minimizedRMSD>
0.390583277

$$$$
