
 OpenBabel03242523483D

 20 21  0  0  0  0  0  0  0  0999 V2000
   45.1600   35.4590   43.1680 C   0  0  0  0  0  0  0  0  0  0  0  0
   46.5150   35.4820   42.7830 C   0  0  0  0  0  0  0  0  0  0  0  0
   46.8530   34.8540   41.5690 C   0  0  0  0  0  0  0  0  0  0  0  0
   45.8520   34.2600   40.8360 N   0  0  0  0  0  0  0  0  0  0  0  0
   44.5800   34.2770   41.2650 C   0  0  0  0  0  0  0  0  0  0  0  0
   44.2500   34.8690   42.4120 N   0  0  0  0  0  0  0  0  0  0  0  0
   47.2900   35.9460   43.3560 H   0  0  0  0  0  0  0  0  0  0  0  0
   43.8390   33.7920   40.6410 H   0  0  0  0  0  0  0  0  0  0  0  0
   48.2640   34.8420   41.0650 C   0  0  0  0  0  0  0  0  0  0  0  0
   49.1430   36.0070   41.3840 C   0  0  0  0  0  0  0  0  0  0  0  0
   49.3520   34.6180   42.0020 C   0  0  0  0  0  0  0  0  0  0  0  0
   48.2930   34.5530   39.9940 H   0  0  0  0  0  0  0  0  0  0  0  0
   49.8830   36.3420   40.6360 H   0  0  0  0  0  0  0  0  0  0  0  0
   48.7350   36.8020   42.0420 H   0  0  0  0  0  0  0  0  0  0  0  0
   49.0690   34.5670   43.0800 H   0  0  0  0  0  0  0  0  0  0  0  0
   50.2970   34.0940   41.7540 H   0  0  0  0  0  0  0  0  0  0  0  0
   44.9020   36.0860   44.3580 O   0  0  0  0  0  0  0  0  0  0  0  0
   44.5260   35.3170   45.4850 C   0  0  0  0  0  0  0  0  0  0  0  0
   45.4310   34.1120   45.6610 C   0  0  0  0  0  0  0  0  0  0  0  0
   46.4860   34.3640   45.3620 H   0  0  0  0  0  0  0  0  0  0  0  0
  1 17  1  0  0  0  0
  2  1  1  0  0  0  0
  2  7  1  0  0  0  0
  3  2  2  0  0  0  0
  4  5  2  0  0  0  0
  4  3  1  0  0  0  0
  5  6  1  0  0  0  0
  6  1  2  0  0  0  0
  8  5  1  0  0  0  0
  9 10  1  0  0  0  0
  9  3  1  0  0  0  0
  9 11  1  0  0  0  0
 10 11  1  0  0  0  0
 10 14  1  0  0  0  0
 11 15  1  0  0  0  0
 12  9  1  0  0  0  0
 13 10  1  0  0  0  0
 16 11  1  0  0  0  0
 17 18  1  0  0  0  0
 18 19  1  0  0  0  0
 20 19  1  0  0  0  0
M  END
>  <minimizedAffinity>
-4.19961596

>  <minimizedRMSD>
2.03059602

$$$$
