
 OpenBabel03252500263D

 31 32  0  0  1  0  0  0  0  0999 V2000
   37.3910   29.4220   42.6400 O   0  0  0  0  0  0  0  0  0  0  0  0
   38.2270   27.2810   43.3060 C   0  0  2  0  0  0  0  0  0  0  0  0
   38.3850   28.4850   42.4610 C   0  0  2  0  0  0  0  0  0  0  0  0
   39.7280   29.0030   42.8180 C   0  0  0  0  0  0  0  0  0  0  0  0
   40.5050   27.9240   43.1880 O   0  0  0  0  0  0  0  0  0  0  0  0
   39.7140   26.8300   43.2990 C   0  0  0  0  0  0  0  0  0  0  0  0
   38.0220   27.2620   44.3400 H   0  0  0  0  0  0  0  0  0  0  0  0
   38.4010   28.0850   41.4100 H   0  0  0  0  0  0  0  0  0  0  0  0
   40.2140   29.3540   41.8550 H   0  0  0  0  0  0  0  0  0  0  0  0
   39.7990   29.8970   43.4360 H   0  0  0  0  0  0  0  0  0  0  0  0
   39.7980   26.2690   42.3210 H   0  0  0  0  0  0  0  0  0  0  0  0
   39.9390   26.1380   44.1100 H   0  0  0  0  0  0  0  0  0  0  0  0
   37.4150   26.3120   42.7970 O   0  0  0  0  0  0  0  0  0  0  0  0
   37.6090   25.6900   41.6540 C   0  0  0  0  0  2  0  0  0  0  0  0
   36.7530   24.4080   41.6400 C   0  0  0  0  0  2  0  0  0  0  0  0
   37.0030   23.7880   40.7360 H   0  0  0  0  0  0  0  0  0  0  0  0
   35.6780   28.5590   40.9280 O   0  0  0  0  0  0  0  0  0  0  0  0
   36.6080   29.7070   41.2030 P   0  0  1  0  0  0  0  0  0  0  0  0
   35.6900   31.1250   41.3380 O   0  0  0  0  0  0  0  0  0  0  0  0
   36.1940   31.8340   40.8470 H   0  0  0  0  0  0  0  0  0  0  0  0
   37.6860   29.7910   39.8780 O   0  0  0  0  0  0  0  0  0  0  0  0
   39.6820   32.1480   38.0760 C   0  0  0  0  0  0  0  0  0  0  0  0
   40.0790   33.0980   39.0620 C   0  0  0  0  0  0  0  0  0  0  0  0
   39.6160   32.8690   40.3740 C   0  0  0  0  0  0  0  0  0  0  0  0
   38.8430   31.7920   40.6110 N   0  0  0  0  0  0  0  0  0  0  0  0
   38.4900   30.9160   39.6440 C   0  0  0  0  0  0  0  0  0  0  0  0
   38.9130   31.1040   38.3840 N   0  0  0  0  0  0  0  0  0  0  0  0
   40.7010   33.9440   38.8120 H   0  0  0  0  0  0  0  0  0  0  0  0
   39.8850   33.5560   41.1640 H   0  0  0  0  0  0  0  0  0  0  0  0
   40.1300   32.3670   36.8030 O   0  0  0  0  0  0  0  0  0  0  0  0
   41.1250   32.3010   36.6220 H   0  0  0  0  0  0  0  0  0  0  0  0
  2  7  1  1  0  0  0
  3  8  1  6  0  0  0
  3  1  1  0  0  0  0
  3  4  1  0  0  0  0
  3  2  1  0  0  0  0
  4  5  1  0  0  0  0
  4 10  1  0  0  0  0
  5  6  1  0  0  0  0
  6  2  1  0  0  0  0
  6 12  1  0  0  0  0
  9  4  1  0  0  0  0
 11  6  1  0  0  0  0
 13  2  1  0  0  0  0
 14 13  1  0  0  0  0
 15 14  1  0  0  0  0
 16 15  1  0  0  0  0
 18 17  2  6  0  0  0
 18 19  1  0  0  0  0
 18  1  1  0  0  0  0
 20 19  1  0  0  0  0
 21 18  1  0  0  0  0
 22 27  2  0  0  0  0
 22 23  1  0  0  0  0
 23 24  2  0  0  0  0
 24 25  1  0  0  0  0
 24 29  1  0  0  0  0
 26 21  1  0  0  0  0
 26 25  2  0  0  0  0
 27 26  1  0  0  0  0
 28 23  1  0  0  0  0
 30 22  1  0  0  0  0
 31 30  1  0  0  0  0
M  END
>  <minimizedAffinity>
-5.28755188

$$$$

 OpenBabel03252500263D

 31 32  0  0  1  0  0  0  0  0999 V2000
   36.8240   28.6000   40.4480 O   0  0  0  0  0  0  0  0  0  0  0  0
   38.7700   28.7000   41.8360 C   0  0  2  0  0  0  0  0  0  0  0  0
   37.2940   28.6970   41.7390 C   0  0  2  0  0  0  0  0  0  0  0  0
   36.8800   27.5510   42.5850 C   0  0  0  0  0  0  0  0  0  0  0  0
   37.8240   27.4070   43.5820 O   0  0  0  0  0  0  0  0  0  0  0  0
   38.8800   28.2090   43.3060 C   0  0  0  0  0  0  0  0  0  0  0  0
   39.4330   28.0350   41.3580 H   0  0  0  0  0  0  0  0  0  0  0  0
   36.9820   29.6600   42.2280 H   0  0  0  0  0  0  0  0  0  0  0  0
   35.9530   27.8760   43.1510 H   0  0  0  0  0  0  0  0  0  0  0  0
   36.5310   26.6400   42.1010 H   0  0  0  0  0  0  0  0  0  0  0  0
   38.7270   29.1610   43.8970 H   0  0  0  0  0  0  0  0  0  0  0  0
   39.8700   27.8190   43.5380 H   0  0  0  0  0  0  0  0  0  0  0  0
   39.3630   29.9180   41.6770 O   0  0  0  0  0  0  0  0  0  0  0  0
   39.6730   30.7390   42.6570 C   0  0  0  0  0  2  0  0  0  0  0  0
   41.1940   30.9920   42.6250 C   0  0  0  0  0  2  0  0  0  0  0  0
   41.5050   31.5790   43.5310 H   0  0  0  0  0  0  0  0  0  0  0  0
   34.5490   29.4000   39.5570 O   0  0  0  0  0  0  0  0  0  0  0  0
   35.8600   29.9050   40.0900 P   0  0  1  0  0  0  0  0  0  0  0  0
   35.5640   30.7870   41.5060 O   0  0  0  0  0  0  0  0  0  0  0  0
   36.1460   31.5970   41.4600 H   0  0  0  0  0  0  0  0  0  0  0  0
   36.5340   30.8980   38.8710 O   0  0  0  0  0  0  0  0  0  0  0  0
   38.6970   33.2880   40.4170 C   0  0  0  0  0  0  0  0  0  0  0  0
   39.8860   33.2450   39.6310 C   0  0  0  0  0  0  0  0  0  0  0  0
   39.8870   32.3460   38.5450 C   0  0  0  0  0  0  0  0  0  0  0  0
   38.7890   31.5990   38.3210 N   0  0  0  0  0  0  0  0  0  0  0  0
   37.6830   31.6710   39.0940 C   0  0  0  0  0  0  0  0  0  0  0  0
   37.6480   32.5160   40.1360 N   0  0  0  0  0  0  0  0  0  0  0  0
   40.7370   33.8700   39.8600 H   0  0  0  0  0  0  0  0  0  0  0  0
   40.7610   32.2710   37.9140 H   0  0  0  0  0  0  0  0  0  0  0  0
   38.6940   34.1600   41.4710 O   0  0  0  0  0  0  0  0  0  0  0  0
   38.7310   35.1540   41.2770 H   0  0  0  0  0  0  0  0  0  0  0  0
  1  3  1  0  0  0  0
  2  7  1  6  0  0  0
  2  6  1  0  0  0  0
  3  2  1  0  0  0  0
  3  8  1  1  0  0  0
  3  4  1  0  0  0  0
  4  9  1  0  0  0  0
  4  5  1  0  0  0  0
  6 12  1  0  0  0  0
  6  5  1  0  0  0  0
  6 11  1  0  0  0  0
 10  4  1  0  0  0  0
 13  2  1  0  0  0  0
 13 14  1  0  0  0  0
 15 14  1  0  0  0  0
 15 16  1  0  0  0  0
 18 17  2  6  0  0  0
 18  1  1  0  0  0  0
 18 19  1  0  0  0  0
 20 19  1  0  0  0  0
 21 26  1  0  0  0  0
 21 18  1  0  0  0  0
 22 30  1  0  0  0  0
 23 28  1  0  0  0  0
 23 22  2  0  0  0  0
 24 23  1  0  0  0  0
 25 24  2  0  0  0  0
 25 26  1  0  0  0  0
 26 27  2  0  0  0  0
 27 22  1  0  0  0  0
 29 24  1  0  0  0  0
 31 30  1  0  0  0  0
M  END
>  <minimizedAffinity>
-5.0397296

$$$$

 OpenBabel03252500263D

 31 32  0  0  1  0  0  0  0  0999 V2000
   38.0930   27.0730   41.7990 O   0  0  0  0  0  0  0  0  0  0  0  0
   40.2850   26.7450   42.7000 C   0  0  2  0  0  0  0  0  0  0  0  0
   38.8440   26.4140   42.7470 C   0  0  2  0  0  0  0  0  0  0  0  0
   38.8060   24.9400   42.5800 C   0  0  0  0  0  0  0  0  0  0  0  0
   39.9740   24.4320   43.1130 O   0  0  0  0  0  0  0  0  0  0  0  0
   40.8130   25.4580   43.3930 C   0  0  0  0  0  0  0  0  0  0  0  0
   40.8960   26.7700   41.8430 H   0  0  0  0  0  0  0  0  0  0  0  0
   38.5310   26.6840   43.7920 H   0  0  0  0  0  0  0  0  0  0  0  0
   38.0080   24.5480   43.2840 H   0  0  0  0  0  0  0  0  0  0  0  0
   38.4780   24.5280   41.6270 H   0  0  0  0  0  0  0  0  0  0  0  0
   40.6790   25.6950   44.4910 H   0  0  0  0  0  0  0  0  0  0  0  0
   41.8730   25.2940   43.2060 H   0  0  0  0  0  0  0  0  0  0  0  0
   40.6500   27.8620   43.3910 O   0  0  0  0  0  0  0  0  0  0  0  0
   41.4640   28.7930   42.9430 C   0  0  0  0  0  2  0  0  0  0  0  0
   40.9740   29.2480   41.5540 C   0  0  0  0  0  2  0  0  0  0  0  0
   41.7260   29.9420   41.0890 H   0  0  0  0  0  0  0  0  0  0  0  0
   36.2190   27.3330   43.5400 O   0  0  0  0  0  0  0  0  0  0  0  0
   37.0230   28.1090   42.5350 P   0  0  1  0  0  0  0  0  0  0  0  0
   37.8850   29.3170   43.3530 O   0  0  0  0  0  0  0  0  0  0  0  0
   37.8170   30.1400   42.7910 H   0  0  0  0  0  0  0  0  0  0  0  0
   35.9050   28.7850   41.4320 O   0  0  0  0  0  0  0  0  0  0  0  0
   36.9100   31.9370   40.0730 C   0  0  0  0  0  0  0  0  0  0  0  0
   37.0550   31.6870   38.6770 C   0  0  0  0  0  0  0  0  0  0  0  0
   36.7840   30.3720   38.2450 C   0  0  0  0  0  0  0  0  0  0  0  0
   36.4140   29.4530   39.1570 N   0  0  0  0  0  0  0  0  0  0  0  0
   36.2900   29.7340   40.4720 C   0  0  0  0  0  0  0  0  0  0  0  0
   36.5390   30.9750   40.9180 N   0  0  0  0  0  0  0  0  0  0  0  0
   37.3560   32.4660   37.9920 H   0  0  0  0  0  0  0  0  0  0  0  0
   36.8780   30.1240   37.1970 H   0  0  0  0  0  0  0  0  0  0  0  0
   37.1700   33.2110   40.4950 O   0  0  0  0  0  0  0  0  0  0  0  0
   36.5580   33.9580   40.1870 H   0  0  0  0  0  0  0  0  0  0  0  0
  1 18  1  0  0  0  0
  1  3  1  0  0  0  0
  2  7  1  6  0  0  0
  2  3  1  0  0  0  0
  2 13  1  0  0  0  0
  2  6  1  0  0  0  0
  3  8  1  1  0  0  0
  4  3  1  0  0  0  0
  4  5  1  0  0  0  0
  4  9  1  0  0  0  0
  5  6  1  0  0  0  0
  6 11  1  0  0  0  0
 10  4  1  0  0  0  0
 12  6  1  0  0  0  0
 14 13  1  0  0  0  0
 15 14  1  0  0  0  0
 16 15  1  0  0  0  0
 18 19  1  0  0  0  0
 18 17  2  1  0  0  0
 20 19  1  0  0  0  0
 21 18  1  0  0  0  0
 22 30  1  0  0  0  0
 22 27  1  0  0  0  0
 23 22  2  0  0  0  0
 24 23  1  0  0  0  0
 24 25  2  0  0  0  0
 25 26  1  0  0  0  0
 26 27  2  0  0  0  0
 26 21  1  0  0  0  0
 28 23  1  0  0  0  0
 29 24  1  0  0  0  0
 31 30  1  0  0  0  0
M  END
>  <minimizedAffinity>
-4.84161282

$$$$

 OpenBabel03252500263D

 31 32  0  0  1  0  0  0  0  0999 V2000
   36.5290   30.5750   41.4330 O   0  0  0  0  0  0  0  0  0  0  0  0
   36.3270   28.1910   41.4640 C   0  0  2  0  0  0  0  0  0  0  0  0
   37.1890   29.3820   41.6290 C   0  0  2  0  0  0  0  0  0  0  0  0
   37.7280   29.2490   43.0050 C   0  0  0  0  0  0  0  0  0  0  0  0
   37.8070   27.9010   43.2920 O   0  0  0  0  0  0  0  0  0  0  0  0
   37.1730   27.2060   42.3170 C   0  0  0  0  0  0  0  0  0  0  0  0
   35.3720   28.0430   41.8850 H   0  0  0  0  0  0  0  0  0  0  0  0
   38.0160   29.2320   40.8830 H   0  0  0  0  0  0  0  0  0  0  0  0
   38.8150   29.5700   42.9670 H   0  0  0  0  0  0  0  0  0  0  0  0
   37.3370   29.8980   43.7880 H   0  0  0  0  0  0  0  0  0  0  0  0
   37.9700   26.8690   41.5890 H   0  0  0  0  0  0  0  0  0  0  0  0
   36.6020   26.3320   42.6260 H   0  0  0  0  0  0  0  0  0  0  0  0
   36.1900   27.7430   40.1840 O   0  0  0  0  0  0  0  0  0  0  0  0
   37.0440   26.9570   39.5650 C   0  0  0  0  0  2  0  0  0  0  0  0
   36.2630   25.7990   38.9110 C   0  0  0  0  0  2  0  0  0  0  0  0
   36.9790   25.0410   38.4930 H   0  0  0  0  0  0  0  0  0  0  0  0
   36.5860   30.9350   38.8880 O   0  0  0  0  0  0  0  0  0  0  0  0
   37.2150   31.4070   40.1680 P   0  0  1  0  0  0  0  0  0  0  0  0
   36.8960   33.0610   40.3480 O   0  0  0  0  0  0  0  0  0  0  0  0
   37.7430   33.4770   40.6750 H   0  0  0  0  0  0  0  0  0  0  0  0
   38.8940   31.1110   40.0270 O   0  0  0  0  0  0  0  0  0  0  0  0
   41.6300   32.9870   41.3610 C   0  0  0  0  0  0  0  0  0  0  0  0
   41.7520   34.1030   40.4820 C   0  0  0  0  0  0  0  0  0  0  0  0
   40.8350   34.1610   39.4130 C   0  0  0  0  0  0  0  0  0  0  0  0
   39.9200   33.1810   39.2890 N   0  0  0  0  0  0  0  0  0  0  0  0
   39.8410   32.1390   40.1460 C   0  0  0  0  0  0  0  0  0  0  0  0
   40.6980   32.0520   41.1750 N   0  0  0  0  0  0  0  0  0  0  0  0
   42.5070   34.8600   40.6320 H   0  0  0  0  0  0  0  0  0  0  0  0
   40.8790   34.9850   38.7140 H   0  0  0  0  0  0  0  0  0  0  0  0
   42.5180   32.9290   42.4000 O   0  0  0  0  0  0  0  0  0  0  0  0
   42.4680   33.6400   43.1200 H   0  0  0  0  0  0  0  0  0  0  0  0
  1  3  1  0  0  0  0
  2  3  1  0  0  0  0
  2  7  1  1  0  0  0
  2  6  1  0  0  0  0
  3  8  1  6  0  0  0
  3  4  1  0  0  0  0
  4  5  1  0  0  0  0
  4 10  1  0  0  0  0
  6 12  1  0  0  0  0
  6  5  1  0  0  0  0
  9  4  1  0  0  0  0
 11  6  1  0  0  0  0
 13  2  1  0  0  0  0
 14 13  1  0  0  0  0
 15 14  1  0  0  0  0
 16 15  1  0  0  0  0
 18 17  2  6  0  0  0
 18 19  1  0  0  0  0
 18  1  1  0  0  0  0
 19 20  1  0  0  0  0
 21 26  1  0  0  0  0
 21 18  1  0  0  0  0
 22 30  1  0  0  0  0
 23 28  1  0  0  0  0
 23 22  2  0  0  0  0
 24 23  1  0  0  0  0
 25 24  2  0  0  0  0
 25 26  1  0  0  0  0
 26 27  2  0  0  0  0
 27 22  1  0  0  0  0
 29 24  1  0  0  0  0
 30 31  1  0  0  0  0
M  END
>  <minimizedAffinity>
-4.71073818

$$$$

 OpenBabel03252500263D

 31 32  0  0  1  0  0  0  0  0999 V2000
   37.6870   30.8780   38.9310 O   0  0  0  0  0  0  0  0  0  0  0  0
   39.7530   31.5140   37.9050 C   0  0  2  0  0  0  0  0  0  0  0  0
   39.0320   30.6030   38.8210 C   0  0  2  0  0  0  0  0  0  0  0  0
   39.2950   29.2520   38.2650 C   0  0  0  0  0  0  0  0  0  0  0  0
   40.5280   29.2900   37.6460 O   0  0  0  0  0  0  0  0  0  0  0  0
   40.9490   30.5750   37.5800 C   0  0  0  0  0  0  0  0  0  0  0  0
   39.4550   31.7940   36.9340 H   0  0  0  0  0  0  0  0  0  0  0  0
   39.5660   30.7170   39.8030 H   0  0  0  0  0  0  0  0  0  0  0  0
   39.4680   28.5600   39.1460 H   0  0  0  0  0  0  0  0  0  0  0  0
   38.4930   28.7360   37.7380 H   0  0  0  0  0  0  0  0  0  0  0  0
   41.6370   30.7370   38.4630 H   0  0  0  0  0  0  0  0  0  0  0  0
   41.4760   30.8770   36.6770 H   0  0  0  0  0  0  0  0  0  0  0  0
   40.1810   32.6830   38.4620 O   0  0  0  0  0  0  0  0  0  0  0  0
   41.3160   32.8380   39.1090 C   0  0  0  0  0  2  0  0  0  0  0  0
   41.0470   33.6610   40.3840 C   0  0  0  0  0  2  0  0  0  0  0  0
   42.0190   33.9260   40.8840 H   0  0  0  0  0  0  0  0  0  0  0  0
   37.4210   33.0710   40.2450 O   0  0  0  0  0  0  0  0  0  0  0  0
   37.3650   31.5780   40.4030 P   0  0  1  0  0  0  0  0  0  0  0  0
   35.8030   31.1460   40.8980 O   0  0  0  0  0  0  0  0  0  0  0  0
   35.9150   30.4480   41.6030 H   0  0  0  0  0  0  0  0  0  0  0  0
   38.5270   31.1670   41.5890 O   0  0  0  0  0  0  0  0  0  0  0  0
   37.2660   28.2590   43.2430 C   0  0  0  0  0  0  0  0  0  0  0  0
   38.4230   27.4570   43.4730 C   0  0  0  0  0  0  0  0  0  0  0  0
   39.6500   27.9860   43.0240 C   0  0  0  0  0  0  0  0  0  0  0  0
   39.6560   29.1880   42.4180 N   0  0  0  0  0  0  0  0  0  0  0  0
   38.5340   29.9140   42.2190 C   0  0  0  0  0  0  0  0  0  0  0  0
   37.3480   29.4410   42.6340 N   0  0  0  0  0  0  0  0  0  0  0  0
   38.3560   26.4980   43.9660 H   0  0  0  0  0  0  0  0  0  0  0  0
   40.5610   27.4220   43.1720 H   0  0  0  0  0  0  0  0  0  0  0  0
   36.0740   27.7490   43.6780 O   0  0  0  0  0  0  0  0  0  0  0  0
   35.9310   27.6360   44.6750 H   0  0  0  0  0  0  0  0  0  0  0  0
  1 18  1  0  0  0  0
  2  7  1  6  0  0  0
  2 13  1  0  0  0  0
  2  3  1  0  0  0  0
  3  1  1  0  0  0  0
  3  8  1  1  0  0  0
  4  3  1  0  0  0  0
  4  9  1  0  0  0  0
  5  4  1  0  0  0  0
  6  5  1  0  0  0  0
  6  2  1  0  0  0  0
  6 11  1  0  0  0  0
 10  4  1  0  0  0  0
 12  6  1  0  0  0  0
 13 14  1  0  0  0  0
 14 15  1  0  0  0  0
 15 16  1  0  0  0  0
 18 17  2  6  0  0  0
 18 19  1  0  0  0  0
 18 21  1  0  0  0  0
 19 20  1  0  0  0  0
 21 26  1  0  0  0  0
 22 23  1  0  0  0  0
 22 30  1  0  0  0  0
 23 28  1  0  0  0  0
 24 29  1  0  0  0  0
 24 23  2  0  0  0  0
 25 24  1  0  0  0  0
 26 25  2  0  0  0  0
 26 27  1  0  0  0  0
 27 22  2  0  0  0  0
 30 31  1  0  0  0  0
M  END
>  <minimizedAffinity>
-4.69655657

$$$$

 OpenBabel03252500263D

 31 32  0  0  1  0  0  0  0  0999 V2000
   37.0700   26.8890   42.4490 O   0  0  0  0  0  0  0  0  0  0  0  0
   38.5590   25.0360   42.1720 C   0  0  2  0  0  0  0  0  0  0  0  0
   38.3860   26.4930   42.3660 C   0  0  2  0  0  0  0  0  0  0  0  0
   39.1490   26.7840   43.6050 C   0  0  0  0  0  0  0  0  0  0  0  0
   40.1840   25.8740   43.6800 O   0  0  0  0  0  0  0  0  0  0  0  0
   40.0050   24.9250   42.7300 C   0  0  0  0  0  0  0  0  0  0  0  0
   38.0810   24.2690   42.7140 H   0  0  0  0  0  0  0  0  0  0  0  0
   38.9080   26.9530   41.4840 H   0  0  0  0  0  0  0  0  0  0  0  0
   39.6840   27.7710   43.4400 H   0  0  0  0  0  0  0  0  0  0  0  0
   38.6010   26.9850   44.5240 H   0  0  0  0  0  0  0  0  0  0  0  0
   40.6370   25.2310   41.8430 H   0  0  0  0  0  0  0  0  0  0  0  0
   40.2660   23.9020   42.9970 H   0  0  0  0  0  0  0  0  0  0  0  0
   38.4940   24.6080   40.8790 O   0  0  0  0  0  0  0  0  0  0  0  0
   38.8000   25.3360   39.8270 C   0  0  0  0  0  2  0  0  0  0  0  0
   37.5380   25.4960   38.9560 C   0  0  0  0  0  2  0  0  0  0  0  0
   37.8020   25.9970   37.9850 H   0  0  0  0  0  0  0  0  0  0  0  0
   35.5500   28.5380   41.1920 O   0  0  0  0  0  0  0  0  0  0  0  0
   36.8970   28.4290   41.8500 P   0  0  1  0  0  0  0  0  0  0  0  0
   36.9630   29.5380   43.1290 O   0  0  0  0  0  0  0  0  0  0  0  0
   37.8680   29.9580   43.0910 H   0  0  0  0  0  0  0  0  0  0  0  0
   38.0590   28.7970   40.6510 O   0  0  0  0  0  0  0  0  0  0  0  0
   37.3760   32.1680   39.6750 C   0  0  0  0  0  0  0  0  0  0  0  0
   37.6580   32.1930   38.2780 C   0  0  0  0  0  0  0  0  0  0  0  0
   38.0940   30.9810   37.7060 C   0  0  0  0  0  0  0  0  0  0  0  0
   38.2150   29.8970   38.4950 N   0  0  0  0  0  0  0  0  0  0  0  0
   37.9370   29.9190   39.8170 C   0  0  0  0  0  0  0  0  0  0  0  0
   37.5190   31.0560   40.3950 N   0  0  0  0  0  0  0  0  0  0  0  0
   37.5430   33.0950   37.6950 H   0  0  0  0  0  0  0  0  0  0  0  0
   38.3240   30.9400   36.6500 H   0  0  0  0  0  0  0  0  0  0  0  0
   36.9520   33.3420   40.2330 O   0  0  0  0  0  0  0  0  0  0  0  0
   36.0550   33.7180   39.9480 H   0  0  0  0  0  0  0  0  0  0  0  0
  2  3  1  0  0  0  0
  2  7  1  1  0  0  0
  2  6  1  0  0  0  0
  3  8  1  6  0  0  0
  3  1  1  0  0  0  0
  3  4  1  0  0  0  0
  4  5  1  0  0  0  0
  4 10  1  0  0  0  0
  6 12  1  0  0  0  0
  6  5  1  0  0  0  0
  9  4  1  0  0  0  0
 11  6  1  0  0  0  0
 13  2  1  0  0  0  0
 14 13  1  0  0  0  0
 15 14  1  0  0  0  0
 16 15  1  0  0  0  0
 18 17  2  6  0  0  0
 18  1  1  0  0  0  0
 18 19  1  0  0  0  0
 20 19  1  0  0  0  0
 21 18  1  0  0  0  0
 22 30  1  0  0  0  0
 22 27  1  0  0  0  0
 23 22  2  0  0  0  0
 24 23  1  0  0  0  0
 24 25  2  0  0  0  0
 25 26  1  0  0  0  0
 26 27  2  0  0  0  0
 26 21  1  0  0  0  0
 28 23  1  0  0  0  0
 29 24  1  0  0  0  0
 31 30  1  0  0  0  0
M  END
>  <minimizedAffinity>
-4.65464115

$$$$

 OpenBabel03252500263D

 31 32  0  0  1  0  0  0  0  0999 V2000
   38.0360   27.9900   43.0650 O   0  0  0  0  0  0  0  0  0  0  0  0
   37.7780   25.7040   42.4080 C   0  0  2  0  0  0  0  0  0  0  0  0
   38.6220   26.9190   42.4290 C   0  0  2  0  0  0  0  0  0  0  0  0
   39.8740   26.4770   43.0910 C   0  0  0  0  0  0  0  0  0  0  0  0
   40.0450   25.1380   42.8060 O   0  0  0  0  0  0  0  0  0  0  0  0
   38.9190   24.6650   42.2190 C   0  0  0  0  0  0  0  0  0  0  0  0
   37.2640   25.2830   43.2250 H   0  0  0  0  0  0  0  0  0  0  0  0
   38.8240   27.1350   41.3440 H   0  0  0  0  0  0  0  0  0  0  0  0
   40.7330   26.9710   42.5390 H   0  0  0  0  0  0  0  0  0  0  0  0
   40.0650   26.7920   44.1170 H   0  0  0  0  0  0  0  0  0  0  0  0
   39.0990   24.6960   41.1030 H   0  0  0  0  0  0  0  0  0  0  0  0
   38.6070   23.6570   42.4870 H   0  0  0  0  0  0  0  0  0  0  0  0
   36.8760   25.6370   41.3870 O   0  0  0  0  0  0  0  0  0  0  0  0
   36.9950   24.8680   40.3260 C   0  0  0  0  0  2  0  0  0  0  0  0
   36.7010   25.7140   39.0710 C   0  0  0  0  0  2  0  0  0  0  0  0
   36.6610   25.0530   38.1630 H   0  0  0  0  0  0  0  0  0  0  0  0
   37.9080   28.7550   40.6140 O   0  0  0  0  0  0  0  0  0  0  0  0
   37.9120   29.2780   42.0230 P   0  0  1  0  0  0  0  0  0  0  0  0
   36.4490   30.0850   42.3030 O   0  0  0  0  0  0  0  0  0  0  0  0
   36.6780   30.9150   42.8090 H   0  0  0  0  0  0  0  0  0  0  0  0
   39.2420   30.3460   42.1450 O   0  0  0  0  0  0  0  0  0  0  0  0
   38.1070   33.1830   40.2880 C   0  0  0  0  0  0  0  0  0  0  0  0
   39.3020   33.8890   39.9600 C   0  0  0  0  0  0  0  0  0  0  0  0
   40.5090   33.3230   40.4190 C   0  0  0  0  0  0  0  0  0  0  0  0
   40.4610   32.1760   41.1230 N   0  0  0  0  0  0  0  0  0  0  0  0
   39.3040   31.5410   41.4120 C   0  0  0  0  0  0  0  0  0  0  0  0
   38.1370   32.0520   40.9910 N   0  0  0  0  0  0  0  0  0  0  0  0
   39.2780   34.8060   39.3910 H   0  0  0  0  0  0  0  0  0  0  0  0
   41.4470   33.8140   40.2000 H   0  0  0  0  0  0  0  0  0  0  0  0
   36.9350   33.7300   39.8440 O   0  0  0  0  0  0  0  0  0  0  0  0
   36.7670   33.7690   38.8450 H   0  0  0  0  0  0  0  0  0  0  0  0
  2  3  1  0  0  0  0
  2  7  1  1  0  0  0
  3  8  1  6  0  0  0
  3  1  1  0  0  0  0
  3  4  1  0  0  0  0
  4 10  1  0  0  0  0
  5  4  1  0  0  0  0
  6  2  1  0  0  0  0
  6 12  1  0  0  0  0
  6  5  1  0  0  0  0
  9  4  1  0  0  0  0
 11  6  1  0  0  0  0
 13  2  1  0  0  0  0
 14 13  1  0  0  0  0
 15 14  1  0  0  0  0
 16 15  1  0  0  0  0
 18 17  2  6  0  0  0
 18 21  1  0  0  0  0
 18 19  1  0  0  0  0
 18  1  1  0  0  0  0
 19 20  1  0  0  0  0
 22 27  1  0  0  0  0
 23 22  2  0  0  0  0
 23 24  1  0  0  0  0
 24 25  2  0  0  0  0
 25 26  1  0  0  0  0
 26 21  1  0  0  0  0
 27 26  2  0  0  0  0
 28 23  1  0  0  0  0
 29 24  1  0  0  0  0
 30 22  1  0  0  0  0
 31 30  1  0  0  0  0
M  END
>  <minimizedAffinity>
-4.59432077

$$$$

 OpenBabel03252500263D

 31 32  0  0  1  0  0  0  0  0999 V2000
   36.2380   28.2850   41.1130 O   0  0  0  0  0  0  0  0  0  0  0  0
   37.9110   26.6230   41.5210 C   0  0  2  0  0  0  0  0  0  0  0  0
   37.4670   28.0250   41.6770 C   0  0  2  0  0  0  0  0  0  0  0  0
   37.4780   28.2450   43.1450 C   0  0  0  0  0  0  0  0  0  0  0  0
   38.4580   27.4330   43.6790 O   0  0  0  0  0  0  0  0  0  0  0  0
   38.8990   26.5850   42.7200 C   0  0  0  0  0  0  0  0  0  0  0  0
   37.3400   25.7580   41.7110 H   0  0  0  0  0  0  0  0  0  0  0  0
   38.2850   28.6300   41.1990 H   0  0  0  0  0  0  0  0  0  0  0  0
   37.8840   29.2900   43.3200 H   0  0  0  0  0  0  0  0  0  0  0  0
   36.5280   28.2880   43.6760 H   0  0  0  0  0  0  0  0  0  0  0  0
   39.8350   27.0470   42.2840 H   0  0  0  0  0  0  0  0  0  0  0  0
   39.1330   25.5670   43.0290 H   0  0  0  0  0  0  0  0  0  0  0  0
   38.5470   26.3390   40.3490 O   0  0  0  0  0  0  0  0  0  0  0  0
   39.4330   27.1160   39.7640 C   0  0  0  0  0  2  0  0  0  0  0  0
   39.0560   27.2580   38.2760 C   0  0  0  0  0  2  0  0  0  0  0  0
   39.8700   27.8040   37.7240 H   0  0  0  0  0  0  0  0  0  0  0  0
   35.4340   29.7040   39.1250 O   0  0  0  0  0  0  0  0  0  0  0  0
   36.2450   29.7800   40.3880 P   0  0  1  0  0  0  0  0  0  0  0  0
   35.5230   30.9080   41.4260 O   0  0  0  0  0  0  0  0  0  0  0  0
   36.2680   31.4410   41.8240 H   0  0  0  0  0  0  0  0  0  0  0  0
   37.8170   30.2760   39.9310 O   0  0  0  0  0  0  0  0  0  0  0  0
   39.9890   32.9980   40.7410 C   0  0  0  0  0  0  0  0  0  0  0  0
   39.2220   34.1610   40.4400 C   0  0  0  0  0  0  0  0  0  0  0  0
   37.9200   33.9410   39.9450 C   0  0  0  0  0  0  0  0  0  0  0  0
   37.4900   32.6750   39.7900 N   0  0  0  0  0  0  0  0  0  0  0  0
   38.2530   31.6000   40.0880 C   0  0  0  0  0  0  0  0  0  0  0  0
   39.4970   31.7730   40.5610 N   0  0  0  0  0  0  0  0  0  0  0  0
   39.6210   35.1540   40.5850 H   0  0  0  0  0  0  0  0  0  0  0  0
   37.2910   34.7860   39.6990 H   0  0  0  0  0  0  0  0  0  0  0  0
   41.2520   33.2080   41.2220 O   0  0  0  0  0  0  0  0  0  0  0  0
   41.3580   33.6460   42.1300 H   0  0  0  0  0  0  0  0  0  0  0  0
  1  3  1  0  0  0  0
  2  3  1  0  0  0  0
  2  7  1  1  0  0  0
  2  6  1  0  0  0  0
  3  8  1  6  0  0  0
  3  4  1  0  0  0  0
  4  9  1  0  0  0  0
  4 10  1  0  0  0  0
  4  5  1  0  0  0  0
  6 12  1  0  0  0  0
  6  5  1  0  0  0  0
 11  6  1  0  0  0  0
 13  2  1  0  0  0  0
 14 13  1  0  0  0  0
 15 14  1  0  0  0  0
 16 15  1  0  0  0  0
 18 17  2  6  0  0  0
 18  1  1  0  0  0  0
 18 19  1  0  0  0  0
 19 20  1  0  0  0  0
 21 26  1  0  0  0  0
 21 18  1  0  0  0  0
 22 30  1  0  0  0  0
 23 28  1  0  0  0  0
 23 22  2  0  0  0  0
 24 23  1  0  0  0  0
 25 24  2  0  0  0  0
 25 26  1  0  0  0  0
 26 27  2  0  0  0  0
 27 22  1  0  0  0  0
 29 24  1  0  0  0  0
 30 31  1  0  0  0  0
M  END
>  <minimizedAffinity>
-4.52682161

$$$$

 OpenBabel03252500263D

 31 32  0  0  1  0  0  0  0  0999 V2000
   38.0700   29.5680   40.3300 O   0  0  0  0  0  0  0  0  0  0  0  0
   38.0570   27.1870   40.5630 C   0  0  2  0  0  0  0  0  0  0  0  0
   37.7450   28.3710   39.7330 C   0  0  2  0  0  0  0  0  0  0  0  0
   38.4980   28.1380   38.4760 C   0  0  0  0  0  0  0  0  0  0  0  0
   38.5860   26.7730   38.2900 O   0  0  0  0  0  0  0  0  0  0  0  0
   38.1530   26.1480   39.4110 C   0  0  0  0  0  0  0  0  0  0  0  0
   38.9600   26.9970   41.0720 H   0  0  0  0  0  0  0  0  0  0  0  0
   36.6420   28.2860   39.5340 H   0  0  0  0  0  0  0  0  0  0  0  0
   37.8290   28.4720   37.6230 H   0  0  0  0  0  0  0  0  0  0  0  0
   39.3980   28.7210   38.2870 H   0  0  0  0  0  0  0  0  0  0  0  0
   37.0690   25.8760   39.2320 H   0  0  0  0  0  0  0  0  0  0  0  0
   38.6850   25.2470   39.7110 H   0  0  0  0  0  0  0  0  0  0  0  0
   37.0970   26.8360   41.4650 O   0  0  0  0  0  0  0  0  0  0  0  0
   37.3180   26.5570   42.7320 C   0  0  0  0  0  2  0  0  0  0  0  0
   36.5840   27.5990   43.6000 C   0  0  0  0  0  2  0  0  0  0  0  0
   36.8670   27.4670   44.6800 H   0  0  0  0  0  0  0  0  0  0  0  0
   36.1080   30.4340   38.9130 O   0  0  0  0  0  0  0  0  0  0  0  0
   36.7870   30.6190   40.2410 P   0  0  1  0  0  0  0  0  0  0  0  0
   35.6780   30.2540   41.4690 O   0  0  0  0  0  0  0  0  0  0  0  0
   35.7990   30.9510   42.1740 H   0  0  0  0  0  0  0  0  0  0  0  0
   37.2770   32.2560   40.3160 O   0  0  0  0  0  0  0  0  0  0  0  0
   40.0950   32.7340   38.1670 C   0  0  0  0  0  0  0  0  0  0  0  0
   41.0390   33.4310   38.9770 C   0  0  0  0  0  0  0  0  0  0  0  0
   40.6390   33.7190   40.2980 C   0  0  0  0  0  0  0  0  0  0  0  0
   39.4170   33.3270   40.7060 N   0  0  0  0  0  0  0  0  0  0  0  0
   38.5530   32.6680   39.9030 C   0  0  0  0  0  0  0  0  0  0  0  0
   38.9010   32.3780   38.6400 N   0  0  0  0  0  0  0  0  0  0  0  0
   42.0070   33.7200   38.5940 H   0  0  0  0  0  0  0  0  0  0  0  0
   41.3140   34.2460   40.9580 H   0  0  0  0  0  0  0  0  0  0  0  0
   40.4810   32.4520   36.8860 O   0  0  0  0  0  0  0  0  0  0  0  0
   41.2460   31.8040   36.7420 H   0  0  0  0  0  0  0  0  0  0  0  0
  2  7  1  1  0  0  0
  2 13  1  0  0  0  0
  3  8  1  6  0  0  0
  3  1  1  0  0  0  0
  3  2  1  0  0  0  0
  4  3  1  0  0  0  0
  5  4  1  0  0  0  0
  5  6  1  0  0  0  0
  6 12  1  0  0  0  0
  6  2  1  0  0  0  0
  9  4  1  0  0  0  0
 10  4  1  0  0  0  0
 11  6  1  0  0  0  0
 13 14  1  0  0  0  0
 14 15  1  0  0  0  0
 15 16  1  0  0  0  0
 18 17  2  6  0  0  0
 18 21  1  0  0  0  0
 18  1  1  0  0  0  0
 18 19  1  0  0  0  0
 19 20  1  0  0  0  0
 22 27  2  0  0  0  0
 22 23  1  0  0  0  0
 23 24  2  0  0  0  0
 24 25  1  0  0  0  0
 24 29  1  0  0  0  0
 26 21  1  0  0  0  0
 26 25  2  0  0  0  0
 27 26  1  0  0  0  0
 28 23  1  0  0  0  0
 30 22  1  0  0  0  0
 31 30  1  0  0  0  0
M  END
>  <minimizedAffinity>
-4.49900055

$$$$
