
 OpenBabel03242521543D

 42 45  0  0  0  0  0  0  0  0999 V2000
   46.0180   32.2540   46.1130 C   0  0  0  0  0  0  0  0  0  0  0  0
   45.8630   32.9120   47.3310 C   0  0  0  0  0  0  0  0  0  0  0  0
   46.1160   32.3050   48.5660 C   0  0  0  0  0  0  0  0  0  0  0  0
   46.5380   31.0070   48.6250 C   0  0  0  0  0  0  0  0  0  0  0  0
   46.6980   30.3100   47.4110 C   0  0  0  0  0  0  0  0  0  0  0  0
   47.0680   29.0080   47.5120 C   0  0  0  0  0  0  0  0  0  0  0  0
   47.1650   28.2750   46.3260 C   0  0  0  0  0  0  0  0  0  0  0  0
   46.8630   28.9270   45.0840 C   0  0  0  0  0  0  0  0  0  0  0  0
   46.5000   30.2540   45.1510 C   0  0  0  0  0  0  0  0  0  0  0  0
   46.4100   31.0080   46.2350 C   0  0  0  0  0  0  0  0  0  0  0  0
   45.5230   33.9610   47.2950 H   0  0  0  0  0  0  0  0  0  0  0  0
   45.9490   32.9470   49.4300 H   0  0  0  0  0  0  0  0  0  0  0  0
   46.7170   30.6110   49.5950 H   0  0  0  0  0  0  0  0  0  0  0  0
   47.2780   28.5650   48.4790 H   0  0  0  0  0  0  0  0  0  0  0  0
   47.4680   27.2550   46.4890 H   0  0  0  0  0  0  0  0  0  0  0  0
   47.0190   28.1360   44.3670 H   0  0  0  0  0  0  0  0  0  0  0  0
   44.6000   29.7740   43.8830 C   0  0  0  0  0  0  0  0  0  0  0  0
   45.9710   30.2410   43.8020 C   0  0  0  0  0  0  0  0  0  0  0  0
   46.3480   30.3710   42.5320 C   0  0  0  0  0  0  0  0  0  0  0  0
   45.5670   30.1020   41.4270 C   0  0  0  0  0  0  0  0  0  0  0  0
   44.2730   29.6580   41.5310 C   0  0  0  0  0  0  0  0  0  0  0  0
   43.7870   29.4930   42.8010 C   0  0  0  0  0  0  0  0  0  0  0  0
   47.3850   30.7290   42.5690 H   0  0  0  0  0  0  0  0  0  0  0  0
   46.1210   30.2910   40.5030 H   0  0  0  0  0  0  0  0  0  0  0  0
   43.8560   29.5210   40.5510 H   0  0  0  0  0  0  0  0  0  0  0  0
   43.8630   29.5280   45.0720 O   0  0  0  0  0  0  0  0  0  0  0  0
   43.3350   30.3120   45.4540 H   0  0  0  0  0  0  0  0  0  0  0  0
   42.4910   29.0440   42.8370 O   0  0  0  0  0  0  0  0  0  0  0  0
   41.4030   29.8920   42.7940 C   0  0  0  0  0  0  0  0  0  0  0  0
   40.4320   29.7550   43.9440 C   0  0  0  0  0  0  0  0  0  0  0  0
   40.5760   30.6690   44.5940 H   0  0  0  0  0  0  0  0  0  0  0  0
   45.2620   34.1410   42.9840 C   0  0  0  0  0  0  0  0  0  0  0  0
   46.5700   34.5310   42.6140 C   0  0  0  0  0  0  0  0  0  0  0  0
   47.5860   34.1010   43.4350 C   0  0  0  0  0  0  0  0  0  0  0  0
   47.2080   33.3720   44.4820 N   0  0  0  0  0  0  0  0  0  0  0  0
   45.9930   32.9900   44.8600 C   0  0  0  0  0  0  0  0  0  0  0  0
   45.0390   33.3980   44.0740 N   0  0  0  0  0  0  0  0  0  0  0  0
   44.4880   34.4930   42.3200 H   0  0  0  0  0  0  0  0  0  0  0  0
   46.7720   35.1280   41.7470 H   0  0  0  0  0  0  0  0  0  0  0  0
   48.9540   34.3600   43.1530 N   0  0  0  0  0  0  0  0  0  0  0  0
   49.5130   35.1170   43.5540 H   0  0  0  0  0  0  0  0  0  0  0  0
   49.4940   33.7550   42.4790 H   0  0  0  0  0  0  0  0  0  0  0  0
  1 10  2  0  0  0  0
  1  2  1  0  0  0  0
  2  3  2  0  0  0  0
  3  4  1  0  0  0  0
  3 12  1  0  0  0  0
  4 13  1  0  0  0  0
  5  6  1  0  0  0  0
  5  4  2  0  0  0  0
  6 14  1  0  0  0  0
  7 15  1  0  0  0  0
  7  6  2  0  0  0  0
  8  9  2  0  0  0  0
  8  7  1  0  0  0  0
  9 10  1  0  0  0  0
 10  5  1  0  0  0  0
 11  2  1  0  0  0  0
 16  8  1  0  0  0  0
 17 26  1  0  0  0  0
 18 17  1  0  0  0  0
 18  9  1  0  0  0  0
 19 23  1  0  0  0  0
 19 18  2  0  0  0  0
 20 21  2  0  0  0  0
 20 19  1  0  0  0  0
 21 22  1  0  0  0  0
 22 28  1  0  0  0  0
 22 17  2  0  0  0  0
 24 20  1  0  0  0  0
 25 21  1  0  0  0  0
 26 27  1  0  0  0  0
 29 28  1  0  0  0  0
 29 30  1  0  0  0  0
 30 31  1  0  0  0  0
 32 37  1  0  0  0  0
 33 32  2  0  0  0  0
 33 34  1  0  0  0  0
 34 35  2  0  0  0  0
 35 36  1  0  0  0  0
 36  1  1  0  0  0  0
 37 36  2  0  0  0  0
 38 32  1  0  0  0  0
 39 33  1  0  0  0  0
 40 34  1  0  0  0  0
 40 41  1  0  0  0  0
 42 40  1  0  0  0  0
M  END
>  <minimizedAffinity>
-4.8746438

>  <minimizedRMSD>
0.761595905

$$$$
