
 OpenBabel03252507543D

 38 40  0  0  1  0  0  0  0  0999 V2000
   47.1100   34.8230   42.0830 C   0  0  2  0  0  0  0  0  0  0  0  0
   46.3400   34.2980   40.8690 C   0  0  0  0  0  0  0  0  0  0  0  0
   47.5400   34.1580   39.9080 C   0  0  0  0  0  0  0  0  0  0  0  0
   48.6770   33.7090   40.7730 C   0  0  1  0  0  0  0  0  0  0  0  0
   48.1650   33.7560   42.1840 C   0  0  0  0  0  0  0  0  0  0  0  0
   47.5290   35.7950   41.8190 H   0  0  0  0  0  0  0  0  0  0  0  0
   45.8920   33.3350   41.1160 H   0  0  0  0  0  0  0  0  0  0  0  0
   45.6420   35.0660   40.5310 H   0  0  0  0  0  0  0  0  0  0  0  0
   47.3100   33.4870   39.0710 H   0  0  0  0  0  0  0  0  0  0  0  0
   47.7650   35.1960   39.5860 H   0  0  0  0  0  0  0  0  0  0  0  0
   49.5780   34.3530   40.6580 H   0  0  0  0  0  0  0  0  0  0  0  0
   47.7460   32.8090   42.5330 H   0  0  0  0  0  0  0  0  0  0  0  0
   48.9670   34.1410   42.8600 H   0  0  0  0  0  0  0  0  0  0  0  0
   44.5380   35.8050   44.6500 C   0  0  0  0  0  0  0  0  0  0  0  0
   45.2670   35.8450   43.4670 C   0  0  0  0  0  0  0  0  0  0  0  0
   46.2450   34.8740   43.2930 C   0  0  0  0  0  0  0  0  0  0  0  0
   46.4680   33.9060   44.2820 N   0  0  0  0  0  0  0  0  0  0  0  0
   45.7220   33.9190   45.4180 C   0  0  0  0  0  0  0  0  0  0  0  0
   44.7620   34.8650   45.5980 N   0  0  0  0  0  0  0  0  0  0  0  0
   43.7770   36.5750   44.7650 H   0  0  0  0  0  0  0  0  0  0  0  0
   45.1210   36.5760   42.6870 H   0  0  0  0  0  0  0  0  0  0  0  0
   45.9210   33.1580   46.1610 H   0  0  0  0  0  0  0  0  0  0  0  0
   49.1390   32.2910   40.5160 C   0  0  2  0  0  0  0  0  0  0  0  0
   49.9710   31.6940   41.5510 C   0  0  0  0  0  0  0  0  0  0  0  0
   50.5350   31.9900   40.1980 C   0  0  1  0  0  0  0  0  0  0  0  0
   48.3700   31.6620   40.0340 H   0  0  0  0  0  0  0  0  0  0  0  0
   50.3460   32.3430   42.3770 H   0  0  0  0  0  0  0  0  0  0  0  0
   49.9160   30.6340   41.8820 H   0  0  0  0  0  0  0  0  0  0  0  0
   51.1530   32.8840   39.9870 H   0  0  0  0  0  0  0  0  0  0  0  0
   50.7840   30.8810   39.3500 O   0  0  0  0  0  0  0  0  0  0  0  0
   51.2230   30.3810   36.8300 O   0  0  0  0  0  0  0  0  0  0  0  0
   51.3410   31.4640   37.8760 P   0  0  1  0  0  0  0  0  0  0  0  0
   50.3660   32.7760   37.3610 O   0  0  0  0  0  0  0  0  0  0  0  0
   50.8870   33.4800   36.9370 H   0  0  0  0  0  0  0  0  0  0  0  0
   52.9090   32.0090   37.8950 O   0  0  0  0  0  0  0  0  0  0  0  0
   53.7730   31.0620   38.4330 C   0  0  0  0  0  0  0  0  0  0  0  0
   54.9140   30.7280   37.5150 C   0  0  0  0  0  0  0  0  0  0  0  0
   54.7560   29.7960   36.9520 H   0  0  0  0  0  0  0  0  0  0  0  0
  1  6  1  6  0  0  0
  1  5  1  0  0  0  0
  1 16  1  0  0  0  0
  2  7  1  0  0  0  0
  2  1  1  0  0  0  0
  3  4  1  0  0  0  0
  3  2  1  0  0  0  0
  4 11  1  6  0  0  0
  4  5  1  0  0  0  0
  5 12  1  0  0  0  0
  5 13  1  0  0  0  0
  8  2  1  0  0  0  0
  9  3  1  0  0  0  0
 10  3  1  0  0  0  0
 14 20  1  0  0  0  0
 14 19  1  0  0  0  0
 15 14  2  0  0  0  0
 16 15  1  0  0  0  0
 16 17  2  0  0  0  0
 17 18  1  0  0  0  0
 18 19  2  0  0  0  0
 18 22  1  0  0  0  0
 21 15  1  0  0  0  0
 23 26  1  6  0  0  0
 23  4  1  0  0  0  0
 23 24  1  0  0  0  0
 24 28  1  0  0  0  0
 24 27  1  0  0  0  0
 25 29  1  6  0  0  0
 25 23  1  0  0  0  0
 25 24  1  0  0  0  0
 30 25  1  0  0  0  0
 32 31  2  6  0  0  0
 32 35  1  0  0  0  0
 32 30  1  0  0  0  0
 33 32  1  0  0  0  0
 34 33  1  0  0  0  0
 35 36  1  0  0  0  0
 37 36  1  0  0  0  0
 38 37  1  0  0  0  0
M  END
>  <minimizedAffinity>
-5.06264257

>  <minimizedRMSD>
0.635339737

$$$$
