
 OpenBabel03242520283D

 35 36  0  0  0  0  0  0  0  0999 V2000
   45.4350   35.5310   43.4170 C   0  0  0  0  0  0  0  0  0  0  0  0
   46.3160   34.4570   43.6950 C   0  0  0  0  0  0  0  0  0  0  0  0
   46.2250   33.8490   44.9450 C   0  0  0  0  0  0  0  0  0  0  0  0
   45.3100   34.3070   45.8260 N   0  0  0  0  0  0  0  0  0  0  0  0
   44.4800   35.3290   45.5480 C   0  0  0  0  0  0  0  0  0  0  0  0
   44.5430   35.9360   44.3490 N   0  0  0  0  0  0  0  0  0  0  0  0
   45.4740   36.0300   42.4580 H   0  0  0  0  0  0  0  0  0  0  0  0
   43.7510   35.6800   46.2740 H   0  0  0  0  0  0  0  0  0  0  0  0
   47.2100   34.1100   42.6560 N   0  0  0  0  0  0  0  0  0  0  0  0
   48.6460   34.2640   42.7580 C   0  0  0  0  0  0  0  0  0  0  0  0
   49.3050   33.6880   41.5290 C   0  0  0  0  0  0  0  0  0  0  0  0
   48.7510   34.1790   40.3030 N   0  0  0  0  0  0  0  0  0  0  0  0
   47.3310   34.1370   40.2120 C   0  0  0  0  0  0  0  0  0  0  0  0
   46.6520   33.5680   41.4170 C   0  0  0  0  0  0  0  0  0  0  0  0
   49.0080   33.6680   43.6220 H   0  0  0  0  0  0  0  0  0  0  0  0
   48.9270   35.3080   42.9100 H   0  0  0  0  0  0  0  0  0  0  0  0
   49.1910   32.5790   41.5890 H   0  0  0  0  0  0  0  0  0  0  0  0
   50.3820   33.9100   41.5390 H   0  0  0  0  0  0  0  0  0  0  0  0
   49.1990   35.0550   39.9910 H   0  0  0  0  0  0  0  0  0  0  0  0
   46.9700   33.5770   39.3270 H   0  0  0  0  0  0  0  0  0  0  0  0
   46.9710   35.1920   40.0780 H   0  0  0  0  0  0  0  0  0  0  0  0
   46.9030   32.4770   41.4430 H   0  0  0  0  0  0  0  0  0  0  0  0
   45.5770   33.6810   41.3560 H   0  0  0  0  0  0  0  0  0  0  0  0
   47.1000   32.8060   45.1790 O   0  0  0  0  0  0  0  0  0  0  0  0
   45.4630   30.7250   44.8720 O   0  0  0  0  0  0  0  0  0  0  0  0
   46.4800   31.3280   45.8520 P   0  0  1  0  0  0  0  0  0  0  0  0
   47.7650   30.3150   46.1160 O   0  0  0  0  0  0  0  0  0  0  0  0
   47.5130   29.0020   45.7400 C   0  0  0  0  0  0  0  0  0  0  0  0
   47.0090   28.2780   46.9940 C   0  0  0  0  0  0  0  0  0  0  0  0
   46.1000   28.8230   47.3190 H   0  0  0  0  0  0  0  0  0  0  0  0
   45.6650   31.7650   47.2570 O   0  0  0  0  0  0  0  0  0  0  0  0
   46.5060   31.9910   48.3140 C   0  0  0  0  0  0  0  0  0  0  0  0
   47.6250   32.7350   47.9740 F   0  0  0  0  0  0  0  0  0  0  0  0
   46.9170   30.8810   48.9890 F   0  0  0  0  0  0  0  0  0  0  0  0
   45.7790   32.7580   49.2260 F   0  0  0  0  0  0  0  0  0  0  0  0
  1  2  2  0  0  0  0
  1  6  1  0  0  0  0
  2  3  1  0  0  0  0
  3 24  1  0  0  0  0
  3  4  2  0  0  0  0
  5  4  1  0  0  0  0
  5  8  1  0  0  0  0
  6  5  2  0  0  0  0
  7  1  1  0  0  0  0
  9 10  1  0  0  0  0
  9  2  1  0  0  0  0
 10 16  1  0  0  0  0
 10 15  1  0  0  0  0
 11 18  1  0  0  0  0
 11 17  1  0  0  0  0
 11 10  1  0  0  0  0
 12 11  1  0  0  0  0
 13 12  1  0  0  0  0
 13 14  1  0  0  0  0
 14 22  1  0  0  0  0
 14  9  1  0  0  0  0
 19 12  1  0  0  0  0
 20 13  1  0  0  0  0
 21 13  1  0  0  0  0
 23 14  1  0  0  0  0
 24 26  1  0  0  0  0
 26 25  2  6  0  0  0
 26 27  1  0  0  0  0
 26 31  1  0  0  0  0
 28 27  1  0  0  0  0
 28 29  1  0  0  0  0
 29 30  1  0  0  0  0
 31 32  1  0  0  0  0
 32 34  1  0  0  0  0
 32 35  1  0  0  0  0
 33 32  1  0  0  0  0
M  END
>  <minimizedAffinity>
-5.00858784

>  <minimizedRMSD>
0.677854121

$$$$
