
 OpenBabel03252502223D

 28 29  0  0  1  0  0  0  0  0999 V2000
   46.8810   34.6150   42.2940 N   0  0  0  0  0  0  0  0  0  0  0  0
   48.3370   34.6650   42.3560 C   0  0  0  0  0  0  0  0  0  0  0  0
   48.7310   35.4690   41.1000 C   0  0  0  0  0  0  0  0  0  0  0  0
   48.3700   34.7000   39.8600 C   0  0  0  0  0  0  0  0  0  0  0  0
   47.0640   33.9970   39.9280 C   0  0  0  0  0  0  0  0  0  0  0  0
   46.1690   34.3980   41.0690 C   0  0  1  0  0  0  0  0  0  0  0  0
   48.6980   35.1760   43.2490 H   0  0  0  0  0  0  0  0  0  0  0  0
   48.6990   33.6360   42.2020 H   0  0  0  0  0  0  0  0  0  0  0  0
   49.8390   35.5230   41.1380 H   0  0  0  0  0  0  0  0  0  0  0  0
   48.3260   36.4820   41.1260 H   0  0  0  0  0  0  0  0  0  0  0  0
   49.1820   33.9660   39.5880 H   0  0  0  0  0  0  0  0  0  0  0  0
   48.3460   35.4160   39.0140 H   0  0  0  0  0  0  0  0  0  0  0  0
   47.2290   32.9010   40.0300 H   0  0  0  0  0  0  0  0  0  0  0  0
   46.4730   34.1190   38.9800 H   0  0  0  0  0  0  0  0  0  0  0  0
   45.5730   35.3040   40.7980 H   0  0  0  0  0  0  0  0  0  0  0  0
   44.4790   35.9390   44.8310 C   0  0  0  0  0  0  0  0  0  0  0  0
   45.1990   35.8590   43.6310 C   0  0  0  0  0  0  0  0  0  0  0  0
   46.0960   34.7860   43.4820 C   0  0  0  0  0  0  0  0  0  0  0  0
   46.2120   33.8950   44.5060 N   0  0  0  0  0  0  0  0  0  0  0  0
   45.4890   34.0200   45.6480 C   0  0  0  0  0  0  0  0  0  0  0  0
   44.6190   35.0540   45.7990 N   0  0  0  0  0  0  0  0  0  0  0  0
   43.8330   36.8070   44.8020 H   0  0  0  0  0  0  0  0  0  0  0  0
   45.1760   36.4990   42.7850 H   0  0  0  0  0  0  0  0  0  0  0  0
   45.5740   33.3150   46.4690 H   0  0  0  0  0  0  0  0  0  0  0  0
   45.2470   33.3600   41.2490 O   0  0  0  0  0  0  0  0  0  0  0  0
   44.2070   33.3920   40.3550 C   0  0  0  0  0  0  0  0  0  0  0  0
   43.4980   34.7330   40.5730 C   0  0  0  0  0  0  0  0  0  0  0  0
   43.1230   34.7710   41.6170 H   0  0  0  0  0  0  0  0  0  0  0  0
  1  2  1  0  0  0  0
  1 18  1  0  0  0  0
  2  7  1  0  0  0  0
  3 10  1  0  0  0  0
  3  9  1  0  0  0  0
  3  2  1  0  0  0  0
  4  5  1  0  0  0  0
  4  3  1  0  0  0  0
  5 13  1  0  0  0  0
  5  6  1  0  0  0  0
  6 15  1  6  0  0  0
  6 25  1  0  0  0  0
  6  1  1  0  0  0  0
  8  2  1  0  0  0  0
 11  4  1  0  0  0  0
 12  4  1  0  0  0  0
 14  5  1  0  0  0  0
 16 21  1  0  0  0  0
 17 16  2  0  0  0  0
 18 17  1  0  0  0  0
 18 19  2  0  0  0  0
 19 20  1  0  0  0  0
 20 21  2  0  0  0  0
 20 24  1  0  0  0  0
 22 16  1  0  0  0  0
 23 17  1  0  0  0  0
 26 27  1  0  0  0  0
 26 25  1  0  0  0  0
 27 28  1  0  0  0  0
M  END
>  <minimizedAffinity>
-4.80242872

>  <minimizedRMSD>
0.359361112

$$$$
