
 OpenBabel03242518143D

 26 27  0  0  0  0  0  0  0  0999 V2000
   43.8870   32.7480   40.5820 C   0  0  0  0  0  0  0  0  0  0  0  0
   43.9620   31.6820   40.9160 H   0  0  0  0  0  0  0  0  0  0  0  0
   43.2650   32.6610   39.6380 H   0  0  0  0  0  0  0  0  0  0  0  0
   45.1700   33.2140   40.2230 C   0  0  0  0  0  0  0  0  0  0  0  0
   46.0440   33.0200   39.1400 C   0  0  0  0  0  0  0  0  0  0  0  0
   47.2670   33.6290   39.1000 C   0  0  0  0  0  0  0  0  0  0  0  0
   47.5980   34.4680   40.2210 C   0  0  0  0  0  0  0  0  0  0  0  0
   46.1540   34.3810   41.3260 S   0  0  0  0  0  0  0  0  0  0  0  0
   45.6490   32.3650   38.3810 H   0  0  0  0  0  0  0  0  0  0  0  0
   47.9520   33.4960   38.2830 H   0  0  0  0  0  0  0  0  0  0  0  0
   48.6950   35.1380   40.3970 O   0  0  0  0  0  0  0  0  0  0  0  0
   48.9870   35.7780   41.6260 C   0  0  0  0  0  0  0  0  0  0  0  0
   49.8150   34.9330   42.5390 C   0  0  0  0  0  0  0  0  0  0  0  0
   49.6870   33.8650   42.2700 H   0  0  0  0  0  0  0  0  0  0  0  0
   43.1330   33.4770   41.6170 C   0  0  0  0  0  0  0  0  0  0  0  0
   43.7930   34.2430   42.0930 H   0  0  0  0  0  0  0  0  0  0  0  0
   42.7870   32.8240   42.4700 H   0  0  0  0  0  0  0  0  0  0  0  0
   41.9900   34.1700   41.0280 C   0  0  0  0  0  0  0  0  0  0  0  0
   41.2540   33.6150   40.0050 C   0  0  0  0  0  0  0  0  0  0  0  0
   40.1770   34.3200   39.4820 C   0  0  0  0  0  0  0  0  0  0  0  0
   39.9160   35.5330   40.0220 N   0  0  0  0  0  0  0  0  0  0  0  0
   40.6400   36.0600   41.0140 C   0  0  0  0  0  0  0  0  0  0  0  0
   41.6610   35.3760   41.5020 N   0  0  0  0  0  0  0  0  0  0  0  0
   41.4850   32.6370   39.5900 H   0  0  0  0  0  0  0  0  0  0  0  0
   39.5460   33.9700   38.6860 H   0  0  0  0  0  0  0  0  0  0  0  0
   40.3990   37.0410   41.4250 H   0  0  0  0  0  0  0  0  0  0  0  0
  1  2  1  0  0  0  0
  1 15  1  0  0  0  0
  3  1  1  0  0  0  0
  4  1  1  0  0  0  0
  4  8  1  0  0  0  0
  5  4  2  0  0  0  0
  6  5  1  0  0  0  0
  6  7  2  0  0  0  0
  7 11  1  0  0  0  0
  7  8  1  0  0  0  0
  9  5  1  0  0  0  0
 10  6  1  0  0  0  0
 11 12  1  0  0  0  0
 12 13  1  0  0  0  0
 14 13  1  0  0  0  0
 15 16  1  0  0  0  0
 15 17  1  0  0  0  0
 18 23  1  0  0  0  0
 18 15  1  0  0  0  0
 19 18  2  0  0  0  0
 20 19  1  0  0  0  0
 20 21  2  0  0  0  0
 21 22  1  0  0  0  0
 22 26  1  0  0  0  0
 22 23  2  0  0  0  0
 24 19  1  0  0  0  0
 25 20  1  0  0  0  0
M  END
>  <minimizedAffinity>
-3.924402

>  <minimizedRMSD>
4.8041997

$$$$
