
 OpenBabel03252501583D

 27 28  0  0  0  0  0  0  0  0999 V2000
   44.9380   34.9460   45.1700 C   0  0  0  0  0  0  0  0  0  0  0  0
   45.5430   35.1850   43.9350 C   0  0  0  0  0  0  0  0  0  0  0  0
   46.5850   34.3510   43.5390 C   0  0  0  0  0  0  0  0  0  0  0  0
   46.9510   33.3390   44.4040 N   0  0  0  0  0  0  0  0  0  0  0  0
   46.3330   33.1510   45.5870 C   0  0  0  0  0  0  0  0  0  0  0  0
   45.3220   33.9510   45.9820 N   0  0  0  0  0  0  0  0  0  0  0  0
   44.1130   35.5980   45.4810 H   0  0  0  0  0  0  0  0  0  0  0  0
   46.6290   32.3570   46.2640 H   0  0  0  0  0  0  0  0  0  0  0  0
   47.2360   34.5600   42.2690 C   0  0  0  0  0  0  0  0  0  0  0  0
   48.2810   35.3850   41.9730 C   0  0  0  0  0  0  0  0  0  0  0  0
   48.7570   35.4470   40.6800 C   0  0  0  0  0  0  0  0  0  0  0  0
   48.1740   34.6720   39.6770 C   0  0  0  0  0  0  0  0  0  0  0  0
   47.1250   33.8410   39.9690 C   0  0  0  0  0  0  0  0  0  0  0  0
   46.6580   33.7900   41.2740 C   0  0  0  0  0  0  0  0  0  0  0  0
   48.6730   35.9600   42.8140 H   0  0  0  0  0  0  0  0  0  0  0  0
   49.5830   36.1080   40.4650 H   0  0  0  0  0  0  0  0  0  0  0  0
   48.5440   34.7100   38.6750 H   0  0  0  0  0  0  0  0  0  0  0  0
   46.6780   33.2350   39.1650 H   0  0  0  0  0  0  0  0  0  0  0  0
   45.8170   33.0920   41.3970 H   0  0  0  0  0  0  0  0  0  0  0  0
   45.0740   36.3220   43.1060 C   0  0  0  0  0  0  0  0  0  0  0  0
   44.0920   36.0600   42.6230 H   0  0  0  0  0  0  0  0  0  0  0  0
   45.7770   36.5480   42.3060 H   0  0  0  0  0  0  0  0  0  0  0  0
   44.8560   37.3980   44.0390 N   0  0  0  0  0  0  0  0  0  0  0  0
   43.8970   37.4170   44.4290 H   0  0  0  0  0  0  0  0  0  0  0  0
   45.3960   38.6590   43.6800 C   0  0  0  0  0  0  0  0  0  0  0  0
   45.3630   39.7200   44.7270 C   0  0  0  0  0  0  0  0  0  0  0  0
   45.3590   39.2280   45.7190 H   0  0  0  0  0  0  0  0  0  0  0  0
  1  7  1  0  0  0  0
  1  6  1  0  0  0  0
  2  1  2  0  0  0  0
  3  2  1  0  0  0  0
  3  4  2  0  0  0  0
  4  5  1  0  0  0  0
  5  6  2  0  0  0  0
  5  8  1  0  0  0  0
  9  3  1  0  0  0  0
 10  9  1  0  0  0  0
 10 15  1  0  0  0  0
 11 10  2  0  0  0  0
 12 13  2  0  0  0  0
 12 11  1  0  0  0  0
 13 14  1  0  0  0  0
 14 19  1  0  0  0  0
 14  9  2  0  0  0  0
 16 11  1  0  0  0  0
 17 12  1  0  0  0  0
 18 13  1  0  0  0  0
 20  2  1  0  0  0  0
 20 23  1  0  0  0  0
 21 20  1  0  0  0  0
 22 20  1  0  0  0  0
 23 24  1  0  0  0  0
 25 23  1  0  0  0  0
 25 26  1  0  0  0  0
 26 27  1  0  0  0  0
M  END
>  <minimizedAffinity>
-5.17480373

>  <minimizedRMSD>
0.484727889

$$$$
