REMARK  Name = 
REMARK  7 active torsions:
REMARK  status: ('A' for Active; 'I' for Inactive)
REMARK    1  A    between atoms: C_1  and  C_4
REMARK    2  A    between atoms: C_1  and  O_8
REMARK    3  A    between atoms: O_8  and  P_10
REMARK    4  A    between atoms: P_10  and  O_11
REMARK    5  A    between atoms: P_10  and  O_12
REMARK    6  A    between atoms: O_12  and  C_19
REMARK    7  A    between atoms: C_19  and  C_20
REMARK                            x       y       z     vdW  Elec       q    Type
REMARK                         _______ _______ _______ _____ _____    ______ ____
ROOT
ATOM      1  C   UNL     1      47.160  33.969  42.479  0.00  0.00    +0.000 C 
ATOM      2  H   UNL     1      47.328  34.703  41.682  0.00  0.00    +0.000 HD
ATOM      3  H   UNL     1      46.635  33.100  41.992  0.00  0.00    +0.000 HD
ENDROOT
BRANCH   1   6
ATOM      4  C   UNL     1      45.289  34.229  45.697  0.00  0.00    +0.000 A 
ATOM      5  C   UNL     1      46.160  33.748  44.702  0.00  0.00    +0.000 A 
ATOM      6  C   UNL     1      46.258  34.455  43.526  0.00  0.00    +0.000 A 
ATOM      7  N   UNL     1      45.511  35.589  43.374  0.00  0.00    +0.000 NA
ATOM      8  C   UNL     1      44.672  36.038  44.352  0.00  0.00    +0.000 A 
ATOM      9  N   UNL     1      44.579  35.351  45.489  0.00  0.00    +0.000 NA
ATOM     10  H   UNL     1      45.255  33.630  46.598  0.00  0.00    +0.000 HD
ATOM     11  H   UNL     1      46.750  32.847  44.830  0.00  0.00    +0.000 HD
ATOM     12  H   UNL     1      44.102  36.950  44.169  0.00  0.00    +0.000 HD
ENDBRANCH   1   6
BRANCH   1  13
ATOM     13  O   UNL     1      48.326  33.423  43.015  0.00  0.00    +0.000 OA
BRANCH  13  15
ATOM     14  O   UNL     1      50.663  33.110  41.899  0.00  0.00    +0.000 OA
ATOM     15  P   UNL     1      49.627  34.162  42.227  0.00  0.00    +0.000 P 
BRANCH  15  16
ATOM     16  O   UNL     1      50.210  35.355  43.250  0.00  0.00    +0.000 OA
ATOM     17  H   UNL     1      51.093  35.174  43.641  0.00  0.00    +0.000 HD
ENDBRANCH  15  16
BRANCH  15  18
ATOM     18  O   UNL     1      49.066  34.799  40.779  0.00  0.00    +0.000 OA
BRANCH  18  19
ATOM     19  C   UNL     1      49.267  36.187  40.750  0.00  0.00    +0.000 C 
BRANCH  19  20
ATOM     20  C   UNL     1      48.863  36.837  42.039  0.00  0.00    +0.000 C 
ATOM     21  H   UNL     1      49.119  36.157  42.902  0.00  0.00    +0.000 HD
ENDBRANCH  19  20
ENDBRANCH  18  19
ENDBRANCH  15  18
ENDBRANCH  13  15
ENDBRANCH   1  13
TORSDOF 7
