
 OpenBabel03252502183D

 30 31  0  0  1  0  0  0  0  0999 V2000
   45.8090   35.3140   42.9350 C   0  0  0  0  0  0  0  0  0  0  0  0
   46.3660   34.1780   43.5360 C   0  0  0  0  0  0  0  0  0  0  0  0
   45.9740   33.8460   44.8220 C   0  0  0  0  0  0  0  0  0  0  0  0
   45.0650   34.6510   45.4230 N   0  0  0  0  0  0  0  0  0  0  0  0
   44.5400   35.7370   44.8340 C   0  0  0  0  0  0  0  0  0  0  0  0
   44.9130   36.0700   43.5860 N   0  0  0  0  0  0  0  0  0  0  0  0
   46.1210   35.5690   41.9290 H   0  0  0  0  0  0  0  0  0  0  0  0
   43.8200   36.2890   45.4410 H   0  0  0  0  0  0  0  0  0  0  0  0
   45.8590   31.3820   45.0910 C   0  0  2  0  0  0  0  0  0  0  0  0
   46.6270   32.6870   45.4730 C   0  0  2  0  0  0  0  0  0  0  0  0
   46.4860   32.6710   46.9460 C   0  0  0  0  0  0  0  0  0  0  0  0
   45.7920   31.5200   47.3250 O   0  0  0  0  0  0  0  0  0  0  0  0
   46.1640   30.5820   46.3540 C   0  0  0  0  0  0  0  0  0  0  0  0
   44.7930   31.5610   44.9990 H   0  0  0  0  0  0  0  0  0  0  0  0
   47.6040   32.4900   45.0120 H   0  0  0  0  0  0  0  0  0  0  0  0
   45.9440   33.6000   47.2720 H   0  0  0  0  0  0  0  0  0  0  0  0
   47.4920   32.6490   47.4250 H   0  0  0  0  0  0  0  0  0  0  0  0
   47.2290   30.3210   46.4100 H   0  0  0  0  0  0  0  0  0  0  0  0
   45.4630   29.7440   46.3680 H   0  0  0  0  0  0  0  0  0  0  0  0
   46.4520   30.7700   43.9860 O   0  0  0  0  0  0  0  0  0  0  0  0
   46.8820   29.9220   44.2370 H   0  0  0  0  0  0  0  0  0  0  0  0
   47.2930   33.4440   42.7810 O   0  0  0  0  0  0  0  0  0  0  0  0
   48.1990   32.6540   40.4600 O   0  0  0  0  0  0  0  0  0  0  0  0
   47.6660   33.8390   41.1770 P   0  0  1  0  0  0  0  0  0  0  0  0
   46.2830   34.3890   40.3550 O   0  0  0  0  0  0  0  0  0  0  0  0
   46.3620   35.3300   40.0690 H   0  0  0  0  0  0  0  0  0  0  0  0
   48.8390   35.0830   41.1670 O   0  0  0  0  0  0  0  0  0  0  0  0
   49.5000   35.1880   42.3760 C   0  0  0  0  0  0  0  0  0  0  0  0
   50.5490   34.0700   42.4110 C   0  0  0  0  0  0  0  0  0  0  0  0
   51.5020   34.4370   42.8510 H   0  0  0  0  0  0  0  0  0  0  0  0
  1  2  2  0  0  0  0
  1  6  1  0  0  0  0
  2  3  1  0  0  0  0
  3  4  2  0  0  0  0
  3 10  1  0  0  0  0
  5  4  1  0  0  0  0
  5  8  1  0  0  0  0
  6  5  2  0  0  0  0
  7  1  1  0  0  0  0
  9 14  1  6  0  0  0
  9 10  1  0  0  0  0
  9 13  1  0  0  0  0
 10 15  1  6  0  0  0
 10 11  1  0  0  0  0
 11 16  1  0  0  0  0
 11 12  1  0  0  0  0
 11 17  1  0  0  0  0
 13 19  1  0  0  0  0
 13 18  1  0  0  0  0
 13 12  1  0  0  0  0
 20 21  1  0  0  0  0
 20  9  1  0  0  0  0
 22  2  1  0  0  0  0
 24 23  2  6  0  0  0
 24 22  1  0  0  0  0
 25 24  1  0  0  0  0
 26 25  1  0  0  0  0
 27 24  1  0  0  0  0
 27 28  1  0  0  0  0
 28 29  1  0  0  0  0
 29 30  1  0  0  0  0
M  END
>  <minimizedAffinity>
-4.76933765

>  <minimizedRMSD>
1.3619473

$$$$
