
 OpenBabel03252509303D

 21 21  0  0  0  0  0  0  0  0999 V2000
   46.9560   33.3420   43.0660 C   0  0  0  0  0  0  0  0  0  0  0  0
   46.8220   33.6570   42.0240 H   0  0  0  0  0  0  0  0  0  0  0  0
   46.6290   32.2650   43.1070 H   0  0  0  0  0  0  0  0  0  0  0  0
   45.0770   34.2740   46.1520 C   0  0  0  0  0  0  0  0  0  0  0  0
   45.9120   33.5650   45.2680 C   0  0  0  0  0  0  0  0  0  0  0  0
   46.0910   34.0660   44.0000 C   0  0  0  0  0  0  0  0  0  0  0  0
   45.4560   35.2260   43.6530 N   0  0  0  0  0  0  0  0  0  0  0  0
   44.6510   35.8980   44.5270 C   0  0  0  0  0  0  0  0  0  0  0  0
   44.4790   35.4090   45.7530 N   0  0  0  0  0  0  0  0  0  0  0  0
   44.9760   33.8290   47.1340 H   0  0  0  0  0  0  0  0  0  0  0  0
   46.4120   32.6450   45.5500 H   0  0  0  0  0  0  0  0  0  0  0  0
   44.1720   36.8180   44.1890 H   0  0  0  0  0  0  0  0  0  0  0  0
   48.2820   33.3250   43.4970 O   0  0  0  0  0  0  0  0  0  0  0  0
   49.9360   33.1610   41.4870 O   0  0  0  0  0  0  0  0  0  0  0  0
   49.1900   34.1610   42.3410 P   0  0  2  0  0  0  0  0  0  0  0  0
   50.2110   35.1990   43.1720 O   0  0  0  0  0  0  0  0  0  0  0  0
   51.1640   34.9620   43.1380 H   0  0  0  0  0  0  0  0  0  0  0  0
   48.1260   34.9940   41.3450 O   0  0  0  0  0  0  0  0  0  0  0  0
   48.3770   34.6840   40.0010 C   0  0  0  0  0  2  0  0  0  0  0  0
   47.2740   33.8620   39.4020 C   0  0  0  0  0  2  0  0  0  0  0  0
   46.2820   34.1990   39.8220 H   0  0  0  0  0  0  0  0  0  0  0  0
  1  3  1  0  0  0  0
  1 13  1  0  0  0  0
  1  6  1  0  0  0  0
  2  1  1  0  0  0  0
  4 10  1  0  0  0  0
  5 11  1  0  0  0  0
  5  4  2  0  0  0  0
  6  5  1  0  0  0  0
  7  6  2  0  0  0  0
  7  8  1  0  0  0  0
  8  9  2  0  0  0  0
  9  4  1  0  0  0  0
 12  8  1  0  0  0  0
 15 14  2  6  0  0  0
 15 16  1  0  0  0  0
 15 13  1  0  0  0  0
 17 16  1  0  0  0  0
 18 15  1  0  0  0  0
 19 18  1  0  0  0  0
 20 21  1  0  0  0  0
 20 19  1  0  0  0  0
M  END
>  <minimizedAffinity>
-4.26468468

>  <minimizedRMSD>
1.45083213

$$$$
