
 OpenBabel03252501583D

 27 28  0  0  0  0  0  0  0  0999 V2000
   39.7480   32.5500   40.9200 C   0  0  0  0  0  0  0  0  0  0  0  0
   38.8360   31.5250   40.6580 C   0  0  0  0  0  0  0  0  0  0  0  0
   37.6150   31.8620   40.0830 C   0  0  0  0  0  0  0  0  0  0  0  0
   37.3880   33.1970   39.8130 N   0  0  0  0  0  0  0  0  0  0  0  0
   38.3020   34.1480   40.0860 C   0  0  0  0  0  0  0  0  0  0  0  0
   39.4900   33.8350   40.6420 N   0  0  0  0  0  0  0  0  0  0  0  0
   40.7140   32.2850   41.3680 H   0  0  0  0  0  0  0  0  0  0  0  0
   38.1160   35.1950   39.8750 H   0  0  0  0  0  0  0  0  0  0  0  0
   36.6450   30.8360   39.7910 C   0  0  0  0  0  0  0  0  0  0  0  0
   35.8130   30.1810   40.6500 C   0  0  0  0  0  0  0  0  0  0  0  0
   34.9550   29.2140   40.1670 C   0  0  0  0  0  0  0  0  0  0  0  0
   34.9380   28.9050   38.8060 C   0  0  0  0  0  0  0  0  0  0  0  0
   35.7700   29.5600   37.9390 C   0  0  0  0  0  0  0  0  0  0  0  0
   36.6270   30.5290   38.4400 C   0  0  0  0  0  0  0  0  0  0  0  0
   35.8950   30.4800   41.6970 H   0  0  0  0  0  0  0  0  0  0  0  0
   34.3060   28.7050   40.8630 H   0  0  0  0  0  0  0  0  0  0  0  0
   34.2690   28.1620   38.4260 H   0  0  0  0  0  0  0  0  0  0  0  0
   35.7420   29.3040   36.8690 H   0  0  0  0  0  0  0  0  0  0  0  0
   37.2480   30.9910   37.6600 H   0  0  0  0  0  0  0  0  0  0  0  0
   39.1900   30.1300   41.0180 C   0  0  0  0  0  0  0  0  0  0  0  0
   40.2720   29.9380   40.7740 H   0  0  0  0  0  0  0  0  0  0  0  0
   38.5980   29.4120   40.4520 H   0  0  0  0  0  0  0  0  0  0  0  0
   39.0200   30.0600   42.4460 N   0  0  0  0  0  0  0  0  0  0  0  0
   39.6860   30.6560   42.9700 H   0  0  0  0  0  0  0  0  0  0  0  0
   38.7960   28.7700   42.9900 C   0  0  0  0  0  2  0  0  0  0  0  0
   37.4780   28.5430   43.6480 C   0  0  0  0  0  2  0  0  0  0  0  0
   36.7430   29.2410   43.2010 H   0  0  0  0  0  0  0  0  0  0  0  0
  1  7  1  0  0  0  0
  2  1  1  0  0  0  0
  2 20  1  0  0  0  0
  3  2  2  0  0  0  0
  4  3  1  0  0  0  0
  4  5  2  0  0  0  0
  5  6  1  0  0  0  0
  6  1  2  0  0  0  0
  8  5  1  0  0  0  0
  9  3  1  0  0  0  0
  9 10  1  0  0  0  0
 10 15  1  0  0  0  0
 11 10  2  0  0  0  0
 11 16  1  0  0  0  0
 12 11  1  0  0  0  0
 13 14  1  0  0  0  0
 13 12  2  0  0  0  0
 14  9  2  0  0  0  0
 17 12  1  0  0  0  0
 18 13  1  0  0  0  0
 19 14  1  0  0  0  0
 20 23  1  0  0  0  0
 21 20  1  0  0  0  0
 22 20  1  0  0  0  0
 23 24  1  0  0  0  0
 23 25  1  0  0  0  0
 25 26  1  0  0  0  0
 27 26  1  0  0  0  0
M  END
>  <minimizedAffinity>
-4.5950284

$$$$

 OpenBabel03252501583D

 27 28  0  0  0  0  0  0  0  0999 V2000
   36.9520   31.0540   38.2090 C   0  0  0  0  0  0  0  0  0  0  0  0
   37.0440   30.6420   39.5400 C   0  0  0  0  0  0  0  0  0  0  0  0
   37.5580   29.3760   39.8040 C   0  0  0  0  0  0  0  0  0  0  0  0
   37.9410   28.6090   38.7210 N   0  0  0  0  0  0  0  0  0  0  0  0
   37.8310   29.0550   37.4540 C   0  0  0  0  0  0  0  0  0  0  0  0
   37.3370   30.2800   37.1850 N   0  0  0  0  0  0  0  0  0  0  0  0
   36.5530   32.0540   38.0000 H   0  0  0  0  0  0  0  0  0  0  0  0
   38.1300   28.4450   36.6080 H   0  0  0  0  0  0  0  0  0  0  0  0
   37.6740   28.9110   41.1630 C   0  0  0  0  0  0  0  0  0  0  0  0
   38.6580   29.1710   42.0720 C   0  0  0  0  0  0  0  0  0  0  0  0
   38.5890   28.6150   43.3330 C   0  0  0  0  0  0  0  0  0  0  0  0
   37.5180   27.7900   43.6800 C   0  0  0  0  0  0  0  0  0  0  0  0
   36.5270   27.5260   42.7720 C   0  0  0  0  0  0  0  0  0  0  0  0
   36.6120   28.0920   41.5090 C   0  0  0  0  0  0  0  0  0  0  0  0
   39.4600   29.8210   41.7160 H   0  0  0  0  0  0  0  0  0  0  0  0
   39.3780   28.8310   44.0360 H   0  0  0  0  0  0  0  0  0  0  0  0
   37.4550   27.3630   44.6580 H   0  0  0  0  0  0  0  0  0  0  0  0
   35.6900   26.8740   43.0640 H   0  0  0  0  0  0  0  0  0  0  0  0
   35.7660   27.8160   40.8630 H   0  0  0  0  0  0  0  0  0  0  0  0
   36.5750   31.5520   40.6150 C   0  0  0  0  0  0  0  0  0  0  0  0
   36.9480   31.1860   41.6110 H   0  0  0  0  0  0  0  0  0  0  0  0
   35.4870   31.5790   40.6650 H   0  0  0  0  0  0  0  0  0  0  0  0
   37.1970   32.8190   40.3270 N   0  0  0  0  0  0  0  0  0  0  0  0
   37.0150   33.1580   39.3650 H   0  0  0  0  0  0  0  0  0  0  0  0
   38.5260   32.9850   40.7920 C   0  0  0  0  0  2  0  0  0  0  0  0
   39.4080   33.8760   39.9850 C   0  0  0  0  0  2  0  0  0  0  0  0
   38.7670   34.6040   39.4480 H   0  0  0  0  0  0  0  0  0  0  0  0
  1  2  1  0  0  0  0
  2  3  2  0  0  0  0
  2 20  1  0  0  0  0
  3  9  1  0  0  0  0
  4  3  1  0  0  0  0
  5  4  2  0  0  0  0
  6  5  1  0  0  0  0
  6  1  2  0  0  0  0
  7  1  1  0  0  0  0
  8  5  1  0  0  0  0
  9 14  2  0  0  0  0
  9 10  1  0  0  0  0
 10 11  2  0  0  0  0
 11 12  1  0  0  0  0
 11 16  1  0  0  0  0
 12 17  1  0  0  0  0
 13 18  1  0  0  0  0
 13 12  2  0  0  0  0
 14 13  1  0  0  0  0
 15 10  1  0  0  0  0
 19 14  1  0  0  0  0
 20 22  1  0  0  0  0
 20 21  1  0  0  0  0
 23 20  1  0  0  0  0
 23 25  1  0  0  0  0
 24 23  1  0  0  0  0
 26 25  1  0  0  0  0
 27 26  1  0  0  0  0
M  END
>  <minimizedAffinity>
-4.5830431

$$$$

 OpenBabel03252501583D

 27 28  0  0  0  0  0  0  0  0999 V2000
   37.0930   31.5530   40.7680 C   0  0  0  0  0  0  0  0  0  0  0  0
   36.5990   30.3270   40.3200 C   0  0  0  0  0  0  0  0  0  0  0  0
   36.4800   30.1260   38.9480 C   0  0  0  0  0  0  0  0  0  0  0  0
   36.8600   31.1640   38.1200 N   0  0  0  0  0  0  0  0  0  0  0  0
   37.3310   32.3300   38.6050 C   0  0  0  0  0  0  0  0  0  0  0  0
   37.4520   32.5360   39.9320 N   0  0  0  0  0  0  0  0  0  0  0  0
   37.1920   31.7110   41.8490 H   0  0  0  0  0  0  0  0  0  0  0  0
   37.6230   33.1430   37.9490 H   0  0  0  0  0  0  0  0  0  0  0  0
   35.9780   28.8730   38.4400 C   0  0  0  0  0  0  0  0  0  0  0  0
   36.6220   27.6750   38.3420 C   0  0  0  0  0  0  0  0  0  0  0  0
   35.9610   26.5850   37.8120 C   0  0  0  0  0  0  0  0  0  0  0  0
   34.6410   26.7070   37.3770 C   0  0  0  0  0  0  0  0  0  0  0  0
   33.9890   27.9070   37.4750 C   0  0  0  0  0  0  0  0  0  0  0  0
   34.6680   28.9920   38.0100 C   0  0  0  0  0  0  0  0  0  0  0  0
   37.6540   27.6700   38.6980 H   0  0  0  0  0  0  0  0  0  0  0  0
   36.4890   25.6470   37.7400 H   0  0  0  0  0  0  0  0  0  0  0  0
   34.1210   25.8640   36.9740 H   0  0  0  0  0  0  0  0  0  0  0  0
   32.9470   27.9840   37.1280 H   0  0  0  0  0  0  0  0  0  0  0  0
   34.0530   29.9030   38.0420 H   0  0  0  0  0  0  0  0  0  0  0  0
   36.2010   29.2980   41.3130 C   0  0  0  0  0  0  0  0  0  0  0  0
   36.5680   28.2880   40.9810 H   0  0  0  0  0  0  0  0  0  0  0  0
   35.1180   29.2350   41.4070 H   0  0  0  0  0  0  0  0  0  0  0  0
   36.8920   29.6640   42.5230 N   0  0  0  0  0  0  0  0  0  0  0  0
   37.5440   30.4590   42.4000 H   0  0  0  0  0  0  0  0  0  0  0  0
   37.3740   28.5950   43.3190 C   0  0  0  0  0  2  0  0  0  0  0  0
   36.6210   27.3100   43.2360 C   0  0  0  0  0  2  0  0  0  0  0  0
   36.1200   27.2660   42.2490 H   0  0  0  0  0  0  0  0  0  0  0  0
  1  7  1  0  0  0  0
  2  1  1  0  0  0  0
  2 20  1  0  0  0  0
  3  2  2  0  0  0  0
  4  5  2  0  0  0  0
  4  3  1  0  0  0  0
  5  6  1  0  0  0  0
  6  1  2  0  0  0  0
  8  5  1  0  0  0  0
  9  3  1  0  0  0  0
 10  9  1  0  0  0  0
 10 15  1  0  0  0  0
 11 10  2  0  0  0  0
 12 13  2  0  0  0  0
 12 11  1  0  0  0  0
 13 14  1  0  0  0  0
 14 19  1  0  0  0  0
 14  9  2  0  0  0  0
 16 11  1  0  0  0  0
 17 12  1  0  0  0  0
 18 13  1  0  0  0  0
 20 22  1  0  0  0  0
 20 23  1  0  0  0  0
 21 20  1  0  0  0  0
 23 25  1  0  0  0  0
 24 23  1  0  0  0  0
 26 25  1  0  0  0  0
 27 26  1  0  0  0  0
M  END
>  <minimizedAffinity>
-4.30568552

$$$$

 OpenBabel03252501583D

 27 28  0  0  0  0  0  0  0  0999 V2000
   38.7650   32.4060   40.6670 C   0  0  0  0  0  0  0  0  0  0  0  0
   38.0800   31.2570   41.0680 C   0  0  0  0  0  0  0  0  0  0  0  0
   38.7930   30.2640   41.7340 C   0  0  0  0  0  0  0  0  0  0  0  0
   40.1390   30.4870   41.9500 N   0  0  0  0  0  0  0  0  0  0  0  0
   40.7520   31.6150   41.5410 C   0  0  0  0  0  0  0  0  0  0  0  0
   40.0720   32.5850   40.8970 N   0  0  0  0  0  0  0  0  0  0  0  0
   38.2030   33.1920   40.1470 H   0  0  0  0  0  0  0  0  0  0  0  0
   41.8100   31.7810   41.7110 H   0  0  0  0  0  0  0  0  0  0  0  0
   38.1260   29.0620   42.1690 C   0  0  0  0  0  0  0  0  0  0  0  0
   37.4220   28.8470   43.3170 C   0  0  0  0  0  0  0  0  0  0  0  0
   36.8620   27.6080   43.5550 C   0  0  0  0  0  0  0  0  0  0  0  0
   37.0150   26.5780   42.6250 C   0  0  0  0  0  0  0  0  0  0  0  0
   37.7200   26.7890   41.4700 C   0  0  0  0  0  0  0  0  0  0  0  0
   38.2760   28.0400   41.2480 C   0  0  0  0  0  0  0  0  0  0  0  0
   37.3570   29.7040   43.9910 H   0  0  0  0  0  0  0  0  0  0  0  0
   36.3110   27.4570   44.4700 H   0  0  0  0  0  0  0  0  0  0  0  0
   36.5760   25.6190   42.8000 H   0  0  0  0  0  0  0  0  0  0  0  0
   37.8290   25.9650   40.7490 H   0  0  0  0  0  0  0  0  0  0  0  0
   38.8180   28.0990   40.2930 H   0  0  0  0  0  0  0  0  0  0  0  0
   36.6360   31.1260   40.7540 C   0  0  0  0  0  0  0  0  0  0  0  0
   36.1230   32.1160   40.9080 H   0  0  0  0  0  0  0  0  0  0  0  0
   36.1510   30.4040   41.4090 H   0  0  0  0  0  0  0  0  0  0  0  0
   36.5890   30.7960   39.3520 N   0  0  0  0  0  0  0  0  0  0  0  0
   36.5070   31.6250   38.7370 H   0  0  0  0  0  0  0  0  0  0  0  0
   35.7800   29.6880   38.9950 C   0  0  0  0  0  2  0  0  0  0  0  0
   34.9140   29.1210   40.0690 C   0  0  0  0  0  2  0  0  0  0  0  0
   34.7010   29.9240   40.8020 H   0  0  0  0  0  0  0  0  0  0  0  0
  1  6  2  0  0  0  0
  1  2  1  0  0  0  0
  2  3  2  0  0  0  0
  3  4  1  0  0  0  0
  3  9  1  0  0  0  0
  5  8  1  0  0  0  0
  5  4  2  0  0  0  0
  6  5  1  0  0  0  0
  7  1  1  0  0  0  0
  9 10  1  0  0  0  0
 10 11  2  0  0  0  0
 10 15  1  0  0  0  0
 11 16  1  0  0  0  0
 12 17  1  0  0  0  0
 12 11  1  0  0  0  0
 13 12  2  0  0  0  0
 14 13  1  0  0  0  0
 14  9  2  0  0  0  0
 18 13  1  0  0  0  0
 19 14  1  0  0  0  0
 20 21  1  0  0  0  0
 20  2  1  0  0  0  0
 20 22  1  0  0  0  0
 23 20  1  0  0  0  0
 24 23  1  0  0  0  0
 25 23  1  0  0  0  0
 25 26  1  0  0  0  0
 26 27  1  0  0  0  0
M  END
>  <minimizedAffinity>
-4.27897024

$$$$

 OpenBabel03252501583D

 27 28  0  0  0  0  0  0  0  0999 V2000
   35.4440   29.0330   39.2380 C   0  0  0  0  0  0  0  0  0  0  0  0
   36.1990   30.1090   39.7090 C   0  0  0  0  0  0  0  0  0  0  0  0
   36.9350   30.8500   38.7890 C   0  0  0  0  0  0  0  0  0  0  0  0
   36.8680   30.4630   37.4650 N   0  0  0  0  0  0  0  0  0  0  0  0
   36.1230   29.4150   37.0620 C   0  0  0  0  0  0  0  0  0  0  0  0
   35.4040   28.6910   37.9430 N   0  0  0  0  0  0  0  0  0  0  0  0
   34.8590   28.4520   39.9610 H   0  0  0  0  0  0  0  0  0  0  0  0
   36.0780   29.1150   36.0210 H   0  0  0  0  0  0  0  0  0  0  0  0
   37.7260   31.9720   39.2300 C   0  0  0  0  0  0  0  0  0  0  0  0
   37.3080   33.2140   39.6060 C   0  0  0  0  0  0  0  0  0  0  0  0
   38.2350   34.1610   39.9900 C   0  0  0  0  0  0  0  0  0  0  0  0
   39.5960   33.8510   39.9940 C   0  0  0  0  0  0  0  0  0  0  0  0
   40.0220   32.6050   39.6190 C   0  0  0  0  0  0  0  0  0  0  0  0
   39.0770   31.6650   39.2360 C   0  0  0  0  0  0  0  0  0  0  0  0
   36.2290   33.3730   39.5670 H   0  0  0  0  0  0  0  0  0  0  0  0
   37.8850   35.1390   40.2820 H   0  0  0  0  0  0  0  0  0  0  0  0
   40.3190   34.5780   40.3000 H   0  0  0  0  0  0  0  0  0  0  0  0
   41.0990   32.3780   39.6300 H   0  0  0  0  0  0  0  0  0  0  0  0
   39.5260   30.7010   38.9560 H   0  0  0  0  0  0  0  0  0  0  0  0
   36.2070   30.4080   41.1620 C   0  0  0  0  0  0  0  0  0  0  0  0
   35.2500   30.9260   41.4480 H   0  0  0  0  0  0  0  0  0  0  0  0
   37.0280   31.0750   41.4260 H   0  0  0  0  0  0  0  0  0  0  0  0
   36.2460   29.1210   41.8060 N   0  0  0  0  0  0  0  0  0  0  0  0
   35.3440   28.8490   42.2370 H   0  0  0  0  0  0  0  0  0  0  0  0
   37.4010   28.8390   42.5780 C   0  0  0  0  0  2  0  0  0  0  0  0
   38.5160   29.8250   42.4950 C   0  0  0  0  0  2  0  0  0  0  0  0
   38.0860   30.8110   42.2290 H   0  0  0  0  0  0  0  0  0  0  0  0
  1  2  1  0  0  0  0
  1  7  1  0  0  0  0
  2 20  1  0  0  0  0
  3  9  1  0  0  0  0
  3  2  2  0  0  0  0
  4  3  1  0  0  0  0
  5  4  2  0  0  0  0
  5  6  1  0  0  0  0
  6  1  2  0  0  0  0
  8  5  1  0  0  0  0
  9 14  2  0  0  0  0
  9 10  1  0  0  0  0
 10 11  2  0  0  0  0
 11 12  1  0  0  0  0
 11 16  1  0  0  0  0
 12 17  1  0  0  0  0
 13 18  1  0  0  0  0
 13 12  2  0  0  0  0
 14 13  1  0  0  0  0
 15 10  1  0  0  0  0
 19 14  1  0  0  0  0
 20 22  1  0  0  0  0
 20 21  1  0  0  0  0
 20 23  1  0  0  0  0
 23 24  1  0  0  0  0
 23 25  1  0  0  0  0
 26 25  1  0  0  0  0
 27 26  1  0  0  0  0
M  END
>  <minimizedAffinity>
-4.26229191

$$$$

 OpenBabel03252501583D

 27 28  0  0  0  0  0  0  0  0999 V2000
   36.7540   30.1270   41.6580 C   0  0  0  0  0  0  0  0  0  0  0  0
   37.2400   28.8420   41.9080 C   0  0  0  0  0  0  0  0  0  0  0  0
   36.8930   27.8230   41.0260 C   0  0  0  0  0  0  0  0  0  0  0  0
   36.0820   28.1570   39.9590 N   0  0  0  0  0  0  0  0  0  0  0  0
   35.6390   29.4140   39.7630 C   0  0  0  0  0  0  0  0  0  0  0  0
   35.9700   30.4110   40.6090 N   0  0  0  0  0  0  0  0  0  0  0  0
   37.0320   30.9320   42.3490 H   0  0  0  0  0  0  0  0  0  0  0  0
   34.9990   29.6690   38.9250 H   0  0  0  0  0  0  0  0  0  0  0  0
   37.3750   26.4820   41.2430 C   0  0  0  0  0  0  0  0  0  0  0  0
   36.9400   25.5550   42.1450 C   0  0  0  0  0  0  0  0  0  0  0  0
   37.5480   24.3180   42.2010 C   0  0  0  0  0  0  0  0  0  0  0  0
   38.6040   24.0130   41.3410 C   0  0  0  0  0  0  0  0  0  0  0  0
   39.0440   24.9390   40.4330 C   0  0  0  0  0  0  0  0  0  0  0  0
   38.4220   26.1780   40.3890 C   0  0  0  0  0  0  0  0  0  0  0  0
   36.1150   25.8780   42.7830 H   0  0  0  0  0  0  0  0  0  0  0  0
   37.1910   23.5990   42.9230 H   0  0  0  0  0  0  0  0  0  0  0  0
   39.0730   23.0530   41.3740 H   0  0  0  0  0  0  0  0  0  0  0  0
   39.8770   24.6810   39.7610 H   0  0  0  0  0  0  0  0  0  0  0  0
   38.8530   26.8430   39.6260 H   0  0  0  0  0  0  0  0  0  0  0  0
   38.0840   28.6060   43.1050 C   0  0  0  0  0  0  0  0  0  0  0  0
   38.1490   27.5020   43.3130 H   0  0  0  0  0  0  0  0  0  0  0  0
   37.6600   29.0780   43.9900 H   0  0  0  0  0  0  0  0  0  0  0  0
   39.3930   29.0830   42.7360 N   0  0  0  0  0  0  0  0  0  0  0  0
   39.3940   29.6580   41.8750 H   0  0  0  0  0  0  0  0  0  0  0  0
   40.4550   28.1510   42.8500 C   0  0  0  0  0  2  0  0  0  0  0  0
   40.1940   26.9390   43.6770 C   0  0  0  0  0  2  0  0  0  0  0  0
   39.1030   26.7450   43.6720 H   0  0  0  0  0  0  0  0  0  0  0  0
  1  2  1  0  0  0  0
  1  7  1  0  0  0  0
  2 20  1  0  0  0  0
  3  9  1  0  0  0  0
  3  2  2  0  0  0  0
  4  3  1  0  0  0  0
  5  4  2  0  0  0  0
  5  6  1  0  0  0  0
  6  1  2  0  0  0  0
  8  5  1  0  0  0  0
  9 10  1  0  0  0  0
 10 11  2  0  0  0  0
 10 15  1  0  0  0  0
 11 16  1  0  0  0  0
 12 17  1  0  0  0  0
 12 11  1  0  0  0  0
 13 12  2  0  0  0  0
 14 13  1  0  0  0  0
 14  9  2  0  0  0  0
 18 13  1  0  0  0  0
 19 14  1  0  0  0  0
 20 21  1  0  0  0  0
 20 22  1  0  0  0  0
 23 25  1  0  0  0  0
 23 20  1  0  0  0  0
 24 23  1  0  0  0  0
 25 26  1  0  0  0  0
 27 26  1  0  0  0  0
M  END
>  <minimizedAffinity>
-4.08499718

$$$$

 OpenBabel03252501583D

 27 28  0  0  0  0  0  0  0  0999 V2000
   38.2670   30.4750   40.9790 C   0  0  0  0  0  0  0  0  0  0  0  0
   38.2460   29.0840   41.1070 C   0  0  0  0  0  0  0  0  0  0  0  0
   37.0130   28.4400   41.0900 C   0  0  0  0  0  0  0  0  0  0  0  0
   35.8870   29.2290   40.9520 N   0  0  0  0  0  0  0  0  0  0  0  0
   35.9630   30.5690   40.8330 C   0  0  0  0  0  0  0  0  0  0  0  0
   37.1510   31.2050   40.8450 N   0  0  0  0  0  0  0  0  0  0  0  0
   39.2390   30.9830   40.9860 H   0  0  0  0  0  0  0  0  0  0  0  0
   35.0740   31.1820   40.7280 H   0  0  0  0  0  0  0  0  0  0  0  0
   36.9430   27.0050   41.2150 C   0  0  0  0  0  0  0  0  0  0  0  0
   37.1150   26.2370   42.3290 C   0  0  0  0  0  0  0  0  0  0  0  0
   37.0160   24.8640   42.2350 C   0  0  0  0  0  0  0  0  0  0  0  0
   36.7440   24.2610   41.0060 C   0  0  0  0  0  0  0  0  0  0  0  0
   36.5710   25.0270   39.8840 C   0  0  0  0  0  0  0  0  0  0  0  0
   36.6730   26.4060   39.9960 C   0  0  0  0  0  0  0  0  0  0  0  0
   37.3300   26.7890   43.2460 H   0  0  0  0  0  0  0  0  0  0  0  0
   37.1570   24.2740   43.1270 H   0  0  0  0  0  0  0  0  0  0  0  0
   36.6590   23.1980   40.9290 H   0  0  0  0  0  0  0  0  0  0  0  0
   36.3550   24.5340   38.9240 H   0  0  0  0  0  0  0  0  0  0  0  0
   36.5160   26.9220   39.0380 H   0  0  0  0  0  0  0  0  0  0  0  0
   39.5250   28.3520   41.2740 C   0  0  0  0  0  0  0  0  0  0  0  0
   40.2700   28.7090   40.5110 H   0  0  0  0  0  0  0  0  0  0  0  0
   39.3930   27.2820   41.1220 H   0  0  0  0  0  0  0  0  0  0  0  0
   39.9950   28.7210   42.5850 N   0  0  0  0  0  0  0  0  0  0  0  0
   39.3130   29.2850   43.1230 H   0  0  0  0  0  0  0  0  0  0  0  0
   41.3450   29.1480   42.6700 C   0  0  0  0  0  2  0  0  0  0  0  0
   41.5730   30.6180   42.7680 C   0  0  0  0  0  2  0  0  0  0  0  0
   40.6730   31.0790   43.2190 H   0  0  0  0  0  0  0  0  0  0  0  0
  1  7  1  0  0  0  0
  1  2  1  0  0  0  0
  2 20  1  0  0  0  0
  3  2  2  0  0  0  0
  3  9  1  0  0  0  0
  4  3  1  0  0  0  0
  5  6  1  0  0  0  0
  5  4  2  0  0  0  0
  6  1  2  0  0  0  0
  8  5  1  0  0  0  0
  9 10  1  0  0  0  0
 10 15  1  0  0  0  0
 11 10  2  0  0  0  0
 11 16  1  0  0  0  0
 12 11  1  0  0  0  0
 13 14  1  0  0  0  0
 13 12  2  0  0  0  0
 14  9  2  0  0  0  0
 17 12  1  0  0  0  0
 18 13  1  0  0  0  0
 19 14  1  0  0  0  0
 20 23  1  0  0  0  0
 21 20  1  0  0  0  0
 22 20  1  0  0  0  0
 23 25  1  0  0  0  0
 23 24  1  0  0  0  0
 25 26  1  0  0  0  0
 26 27  1  0  0  0  0
M  END
>  <minimizedAffinity>
-4.05975294

$$$$

 OpenBabel03252501583D

 27 28  0  0  0  0  0  0  0  0999 V2000
   38.2160   29.6400   42.7210 C   0  0  0  0  0  0  0  0  0  0  0  0
   37.4230   29.6380   41.5720 C   0  0  0  0  0  0  0  0  0  0  0  0
   36.6050   28.5370   41.3370 C   0  0  0  0  0  0  0  0  0  0  0  0
   36.6390   27.5130   42.2640 N   0  0  0  0  0  0  0  0  0  0  0  0
   37.4240   27.5650   43.3580 C   0  0  0  0  0  0  0  0  0  0  0  0
   38.2190   28.6270   43.5980 N   0  0  0  0  0  0  0  0  0  0  0  0
   38.8560   30.5100   42.9100 H   0  0  0  0  0  0  0  0  0  0  0  0
   37.4490   26.7550   44.0800 H   0  0  0  0  0  0  0  0  0  0  0  0
   35.7670   28.4940   40.1650 C   0  0  0  0  0  0  0  0  0  0  0  0
   34.6160   29.1820   39.9150 C   0  0  0  0  0  0  0  0  0  0  0  0
   33.9500   28.9900   38.7220 C   0  0  0  0  0  0  0  0  0  0  0  0
   34.4490   28.0960   37.7740 C   0  0  0  0  0  0  0  0  0  0  0  0
   35.6050   27.4030   38.0190 C   0  0  0  0  0  0  0  0  0  0  0  0
   36.2620   27.6080   39.2230 C   0  0  0  0  0  0  0  0  0  0  0  0
   34.2930   29.8550   40.7120 H   0  0  0  0  0  0  0  0  0  0  0  0
   33.0400   29.5420   38.5440 H   0  0  0  0  0  0  0  0  0  0  0  0
   33.9420   27.9500   36.8440 H   0  0  0  0  0  0  0  0  0  0  0  0
   35.9840   26.7030   37.2580 H   0  0  0  0  0  0  0  0  0  0  0  0
   37.1760   27.0040   39.3150 H   0  0  0  0  0  0  0  0  0  0  0  0
   37.4940   30.7900   40.6390 C   0  0  0  0  0  0  0  0  0  0  0  0
   37.5950   31.7460   41.2240 H   0  0  0  0  0  0  0  0  0  0  0  0
   36.5900   30.8710   40.0380 H   0  0  0  0  0  0  0  0  0  0  0  0
   38.7040   30.5820   39.8850 N   0  0  0  0  0  0  0  0  0  0  0  0
   39.4800   31.2060   40.1710 H   0  0  0  0  0  0  0  0  0  0  0  0
   38.5490   30.4020   38.4870 C   0  0  0  0  0  2  0  0  0  0  0  0
   37.3250   30.9900   37.8710 C   0  0  0  0  0  2  0  0  0  0  0  0
   36.9970   31.8430   38.4980 H   0  0  0  0  0  0  0  0  0  0  0  0
  1  7  1  0  0  0  0
  1  6  1  0  0  0  0
  2  1  2  0  0  0  0
  3  2  1  0  0  0  0
  3  4  2  0  0  0  0
  4  5  1  0  0  0  0
  5  6  2  0  0  0  0
  5  8  1  0  0  0  0
  9  3  1  0  0  0  0
 10  9  1  0  0  0  0
 10 15  1  0  0  0  0
 11 10  2  0  0  0  0
 12 13  2  0  0  0  0
 12 11  1  0  0  0  0
 13 14  1  0  0  0  0
 14 19  1  0  0  0  0
 14  9  2  0  0  0  0
 16 11  1  0  0  0  0
 17 12  1  0  0  0  0
 18 13  1  0  0  0  0
 20 21  1  0  0  0  0
 20  2  1  0  0  0  0
 22 20  1  0  0  0  0
 23 24  1  0  0  0  0
 23 20  1  0  0  0  0
 25 23  1  0  0  0  0
 26 25  1  0  0  0  0
 26 27  1  0  0  0  0
M  END
>  <minimizedAffinity>
-4.05490351

$$$$

 OpenBabel03252501583D

 27 28  0  0  0  0  0  0  0  0999 V2000
   37.4930   30.9870   38.1210 C   0  0  0  0  0  0  0  0  0  0  0  0
   37.5110   30.0000   39.1080 C   0  0  0  0  0  0  0  0  0  0  0  0
   37.3440   30.3900   40.4330 C   0  0  0  0  0  0  0  0  0  0  0  0
   37.1750   31.7390   40.6800 N   0  0  0  0  0  0  0  0  0  0  0  0
   37.1660   32.6520   39.6890 C   0  0  0  0  0  0  0  0  0  0  0  0
   37.3250   32.2860   38.4010 N   0  0  0  0  0  0  0  0  0  0  0  0
   37.6190   30.6800   37.0750 H   0  0  0  0  0  0  0  0  0  0  0  0
   37.0360   33.7100   39.8910 H   0  0  0  0  0  0  0  0  0  0  0  0
   37.3510   29.4040   41.4850 C   0  0  0  0  0  0  0  0  0  0  0  0
   36.3740   28.5170   41.8280 C   0  0  0  0  0  0  0  0  0  0  0  0
   36.5740   27.6530   42.8840 C   0  0  0  0  0  0  0  0  0  0  0  0
   37.7710   27.6850   43.6020 C   0  0  0  0  0  0  0  0  0  0  0  0
   38.7560   28.5730   43.2610 C   0  0  0  0  0  0  0  0  0  0  0  0
   38.5380   29.4350   42.1970 C   0  0  0  0  0  0  0  0  0  0  0  0
   35.4680   28.5630   41.2190 H   0  0  0  0  0  0  0  0  0  0  0  0
   35.7880   26.9600   43.1420 H   0  0  0  0  0  0  0  0  0  0  0  0
   37.9360   27.0120   44.4160 H   0  0  0  0  0  0  0  0  0  0  0  0
   39.6940   28.5830   43.8380 H   0  0  0  0  0  0  0  0  0  0  0  0
   39.3920   30.1030   42.0100 H   0  0  0  0  0  0  0  0  0  0  0  0
   37.7250   28.5850   38.7150 C   0  0  0  0  0  0  0  0  0  0  0  0
   37.7750   27.9390   39.6350 H   0  0  0  0  0  0  0  0  0  0  0  0
   38.6660   28.4600   38.1800 H   0  0  0  0  0  0  0  0  0  0  0  0
   36.5510   28.2260   37.9620 N   0  0  0  0  0  0  0  0  0  0  0  0
   35.9790   29.0410   37.6790 H   0  0  0  0  0  0  0  0  0  0  0  0
   35.8240   27.1020   38.4300 C   0  0  0  0  0  2  0  0  0  0  0  0
   36.6060   26.0540   39.1470 C   0  0  0  0  0  2  0  0  0  0  0  0
   37.5000   26.5340   39.5930 H   0  0  0  0  0  0  0  0  0  0  0  0
  1  6  2  0  0  0  0
  1  2  1  0  0  0  0
  2  3  2  0  0  0  0
  3  4  1  0  0  0  0
  3  9  1  0  0  0  0
  5  8  1  0  0  0  0
  5  4  2  0  0  0  0
  6  5  1  0  0  0  0
  7  1  1  0  0  0  0
  9 10  2  0  0  0  0
  9 14  1  0  0  0  0
 10 11  1  0  0  0  0
 11 16  1  0  0  0  0
 11 12  2  0  0  0  0
 12 17  1  0  0  0  0
 13 12  1  0  0  0  0
 13 18  1  0  0  0  0
 14 13  2  0  0  0  0
 15 10  1  0  0  0  0
 19 14  1  0  0  0  0
 20  2  1  0  0  0  0
 20 21  1  0  0  0  0
 22 20  1  0  0  0  0
 23 25  1  0  0  0  0
 23 20  1  0  0  0  0
 24 23  1  0  0  0  0
 25 26  1  0  0  0  0
 26 27  1  0  0  0  0
M  END
>  <minimizedAffinity>
-4.0406208

$$$$
