
 OpenBabel03242511523D

 28 31  0  0  1  0  0  0  0  0999 V2000
   44.1430   33.7550   41.1200 C   0  0  1  0  0  0  0  0  0  0  0  0
   45.1740   33.6250   40.1250 C   0  0  2  0  0  0  0  0  0  0  0  0
   44.4460   32.4300   40.6110 C   0  0  0  0  0  0  0  0  0  0  0  0
   43.2020   34.2700   40.7580 H   0  0  0  0  0  0  0  0  0  0  0  0
   44.8920   33.8890   39.0600 H   0  0  0  0  0  0  0  0  0  0  0  0
   43.6960   31.8960   39.9560 H   0  0  0  0  0  0  0  0  0  0  0  0
   44.9330   31.6710   41.2850 H   0  0  0  0  0  0  0  0  0  0  0  0
   44.2920   35.5160   42.8020 C   0  0  0  0  0  0  0  0  0  0  0  0
   44.5000   34.1860   42.4740 C   0  0  0  0  0  0  0  0  0  0  0  0
   44.9860   33.2790   43.4300 C   0  0  0  0  0  0  0  0  0  0  0  0
   45.2300   33.7960   44.6780 N   0  0  0  0  0  0  0  0  0  0  0  0
   45.0260   35.0870   44.9930 C   0  0  0  0  0  0  0  0  0  0  0  0
   44.5550   35.9470   44.0450 N   0  0  0  0  0  0  0  0  0  0  0  0
   43.9170   36.2050   42.0490 H   0  0  0  0  0  0  0  0  0  0  0  0
   45.1490   32.2570   43.1860 H   0  0  0  0  0  0  0  0  0  0  0  0
   45.2290   35.4540   45.9820 H   0  0  0  0  0  0  0  0  0  0  0  0
   46.6190   33.5790   40.4150 C   0  0  1  0  0  0  0  0  0  0  0  0
   47.3440   34.1170   39.5570 O   0  0  0  0  0  0  0  0  0  0  0  0
   47.9200   34.0630   40.8770 C   0  0  2  0  0  0  0  0  0  0  0  0
   48.7940   32.9310   41.4210 C   0  0  0  0  0  0  0  0  0  0  0  0
   48.4760   34.0770   42.2140 C   0  0  1  0  0  0  0  0  0  0  0  0
   46.7410   32.4300   40.1560 H   0  0  0  0  0  0  0  0  0  0  0  0
   49.7490   32.8600   40.8510 H   0  0  0  0  0  0  0  0  0  0  0  0
   48.3570   31.9570   41.6830 H   0  0  0  0  0  0  0  0  0  0  0  0
   47.6740   33.9840   42.9940 H   0  0  0  0  0  0  0  0  0  0  0  0
   49.5870   35.0710   42.4800 C   0  0  0  0  0  0  0  0  0  0  0  0
   49.3280   36.2890   41.6050 C   0  0  0  0  0  0  0  0  0  0  0  0
   49.3520   37.2420   42.1920 H   0  0  0  0  0  0  0  0  0  0  0  0
  1  4  1  6  0  0  0
  1  9  1  0  0  0  0
  2  5  1  6  0  0  0
  2 17  1  0  0  0  0
  2  3  1  0  0  0  0
  2  1  1  0  0  0  0
  3  1  1  0  0  0  0
  3  7  1  0  0  0  0
  6  3  1  0  0  0  0
  8 13  1  0  0  0  0
  9  8  2  0  0  0  0
  9 10  1  0  0  0  0
 10 11  2  0  0  0  0
 11 12  1  0  0  0  0
 12 16  1  0  0  0  0
 13 12  2  0  0  0  0
 14  8  1  0  0  0  0
 15 10  1  0  0  0  0
 17 22  1  6  0  0  0
 17 19  1  0  0  0  0
 18 17  1  0  0  0  0
 19 18  1  6  0  0  0
 19 20  1  0  0  0  0
 19 21  1  0  0  0  0
 20 24  1  0  0  0  0
 20 21  1  0  0  0  0
 21 26  1  0  0  0  0
 21 25  1  1  0  0  0
 23 20  1  0  0  0  0
 27 28  1  0  0  0  0
 27 26  1  0  0  0  0
M  END
>  <minimizedAffinity>
-4.42383575

>  <minimizedRMSD>
1.26521003

$$$$
