
 OpenBabel03242511523D

 28 31  0  0  1  0  0  0  0  0999 V2000
   35.9830   29.4870   39.2140 C   0  0  1  0  0  0  0  0  0  0  0  0
   35.8900   28.2320   39.9100 C   0  0  2  0  0  0  0  0  0  0  0  0
   34.8290   29.2530   40.0620 C   0  0  0  0  0  0  0  0  0  0  0  0
   35.8520   29.4140   38.0920 H   0  0  0  0  0  0  0  0  0  0  0  0
   35.5360   27.3390   39.3080 H   0  0  0  0  0  0  0  0  0  0  0  0
   33.8100   29.1120   39.5960 H   0  0  0  0  0  0  0  0  0  0  0  0
   34.7070   29.8450   41.0130 H   0  0  0  0  0  0  0  0  0  0  0  0
   38.2870   30.2540   38.9630 C   0  0  0  0  0  0  0  0  0  0  0  0
   37.0500   30.4270   39.5660 C   0  0  0  0  0  0  0  0  0  0  0  0
   36.8250   31.5020   40.4410 C   0  0  0  0  0  0  0  0  0  0  0  0
   37.8890   32.3440   40.6460 N   0  0  0  0  0  0  0  0  0  0  0  0
   39.0860   32.1730   40.0590 C   0  0  0  0  0  0  0  0  0  0  0  0
   39.2800   31.1200   39.2140 N   0  0  0  0  0  0  0  0  0  0  0  0
   38.4440   29.4150   38.2890 H   0  0  0  0  0  0  0  0  0  0  0  0
   35.8790   31.6410   40.9090 H   0  0  0  0  0  0  0  0  0  0  0  0
   39.8960   32.8540   40.2440 H   0  0  0  0  0  0  0  0  0  0  0  0
   36.5800   27.9190   41.1750 C   0  0  1  0  0  0  0  0  0  0  0  0
   36.8750   26.7200   41.3310 O   0  0  0  0  0  0  0  0  0  0  0  0
   37.7060   27.6400   42.0670 C   0  0  2  0  0  0  0  0  0  0  0  0
   37.4440   28.1290   43.4930 C   0  0  0  0  0  0  0  0  0  0  0  0
   38.5880   28.5600   42.7530 C   0  0  1  0  0  0  0  0  0  0  0  0
   35.6130   28.0250   41.8500 H   0  0  0  0  0  0  0  0  0  0  0  0
   37.5000   27.2840   44.2170 H   0  0  0  0  0  0  0  0  0  0  0  0
   36.6390   28.8460   43.7050 H   0  0  0  0  0  0  0  0  0  0  0  0
   38.5690   29.5780   42.2810 H   0  0  0  0  0  0  0  0  0  0  0  0
   39.9380   28.0210   43.1790 C   0  0  0  0  0  2  0  0  0  0  0  0
   39.7240   26.5990   43.6780 C   0  0  0  0  0  2  0  0  0  0  0  0
   40.4240   25.8720   43.1930 H   0  0  0  0  0  0  0  0  0  0  0  0
  1  4  1  6  0  0  0
  1  9  1  0  0  0  0
  1  2  1  0  0  0  0
  1  3  1  0  0  0  0
  2  5  1  6  0  0  0
  2  3  1  0  0  0  0
  2 17  1  0  0  0  0
  3  7  1  0  0  0  0
  6  3  1  0  0  0  0
  8 13  2  0  0  0  0
  8  9  1  0  0  0  0
  9 10  2  0  0  0  0
 10 11  1  0  0  0  0
 10 15  1  0  0  0  0
 12 16  1  0  0  0  0
 12 11  2  0  0  0  0
 13 12  1  0  0  0  0
 14  8  1  0  0  0  0
 17 18  1  0  0  0  0
 17 22  1  1  0  0  0
 17 19  1  0  0  0  0
 19 18  1  6  0  0  0
 19 21  1  0  0  0  0
 19 20  1  0  0  0  0
 20 24  1  0  0  0  0
 20 23  1  0  0  0  0
 21 25  1  6  0  0  0
 21 26  1  0  0  0  0
 21 20  1  0  0  0  0
 26 27  1  0  0  0  0
 28 27  1  0  0  0  0
M  END
>  <minimizedAffinity>
-4.59283352

$$$$

 OpenBabel03242511523D

 28 31  0  0  1  0  0  0  0  0999 V2000
   36.0210   29.4380   39.1430 C   0  0  1  0  0  0  0  0  0  0  0  0
   35.9090   28.2020   39.8710 C   0  0  2  0  0  0  0  0  0  0  0  0
   34.8620   29.2430   39.9940 C   0  0  0  0  0  0  0  0  0  0  0  0
   35.8920   29.3380   38.0230 H   0  0  0  0  0  0  0  0  0  0  0  0
   35.5430   27.3000   39.2920 H   0  0  0  0  0  0  0  0  0  0  0  0
   33.8420   29.1040   39.5290 H   0  0  0  0  0  0  0  0  0  0  0  0
   34.7460   29.8600   40.9290 H   0  0  0  0  0  0  0  0  0  0  0  0
   36.7870   31.4640   40.2680 C   0  0  0  0  0  0  0  0  0  0  0  0
   37.1010   30.3720   39.4740 C   0  0  0  0  0  0  0  0  0  0  0  0
   38.4210   30.1490   39.0500 C   0  0  0  0  0  0  0  0  0  0  0  0
   39.3500   31.0670   39.4720 N   0  0  0  0  0  0  0  0  0  0  0  0
   39.0430   32.1240   40.2430 C   0  0  0  0  0  0  0  0  0  0  0  0
   37.7520   32.3180   40.6400 N   0  0  0  0  0  0  0  0  0  0  0  0
   35.7590   31.6210   40.5860 H   0  0  0  0  0  0  0  0  0  0  0  0
   38.6690   29.3150   38.4390 H   0  0  0  0  0  0  0  0  0  0  0  0
   39.7990   32.8220   40.5540 H   0  0  0  0  0  0  0  0  0  0  0  0
   36.5900   27.9140   41.1470 C   0  0  1  0  0  0  0  0  0  0  0  0
   36.8760   26.7160   41.3300 O   0  0  0  0  0  0  0  0  0  0  0  0
   37.7110   27.6460   42.0490 C   0  0  2  0  0  0  0  0  0  0  0  0
   37.4470   28.1690   43.4630 C   0  0  0  0  0  0  0  0  0  0  0  0
   38.5980   28.5740   42.7180 C   0  0  1  0  0  0  0  0  0  0  0  0
   35.6220   28.0420   41.8150 H   0  0  0  0  0  0  0  0  0  0  0  0
   37.4930   27.3400   44.2060 H   0  0  0  0  0  0  0  0  0  0  0  0
   36.6470   28.8970   43.6550 H   0  0  0  0  0  0  0  0  0  0  0  0
   38.5890   29.5820   42.2220 H   0  0  0  0  0  0  0  0  0  0  0  0
   39.9410   28.0340   43.1620 C   0  0  0  0  0  2  0  0  0  0  0  0
   39.7160   26.6190   43.6760 C   0  0  0  0  0  2  0  0  0  0  0  0
   40.4170   25.8830   43.2060 H   0  0  0  0  0  0  0  0  0  0  0  0
  1  4  1  6  0  0  0
  1  9  1  0  0  0  0
  1  2  1  0  0  0  0
  1  3  1  0  0  0  0
  2  5  1  6  0  0  0
  2  3  1  0  0  0  0
  2 17  1  0  0  0  0
  3  7  1  0  0  0  0
  6  3  1  0  0  0  0
  8 14  1  0  0  0  0
  8 13  1  0  0  0  0
  9  8  2  0  0  0  0
 10 11  2  0  0  0  0
 10  9  1  0  0  0  0
 11 12  1  0  0  0  0
 12 16  1  0  0  0  0
 12 13  2  0  0  0  0
 15 10  1  0  0  0  0
 17 18  1  0  0  0  0
 17 22  1  1  0  0  0
 17 19  1  0  0  0  0
 19 18  1  6  0  0  0
 19 21  1  0  0  0  0
 19 20  1  0  0  0  0
 20 24  1  0  0  0  0
 20 23  1  0  0  0  0
 21 25  1  6  0  0  0
 21 26  1  0  0  0  0
 21 20  1  0  0  0  0
 26 27  1  0  0  0  0
 28 27  1  0  0  0  0
M  END
>  <minimizedAffinity>
-4.56857872

$$$$

 OpenBabel03242511523D

 28 31  0  0  1  0  0  0  0  0999 V2000
   37.8910   27.0560   43.2390 C   0  0  1  0  0  0  0  0  0  0  0  0
   37.7020   28.4610   43.4820 C   0  0  2  0  0  0  0  0  0  0  0  0
   36.5790   27.5130   43.6580 C   0  0  0  0  0  0  0  0  0  0  0  0
   38.5480   26.5320   43.9970 H   0  0  0  0  0  0  0  0  0  0  0  0
   38.0770   28.8640   44.4730 H   0  0  0  0  0  0  0  0  0  0  0  0
   36.1940   27.2460   44.6860 H   0  0  0  0  0  0  0  0  0  0  0  0
   35.7170   27.4720   42.9350 H   0  0  0  0  0  0  0  0  0  0  0  0
   37.1040   26.1520   41.1130 C   0  0  0  0  0  0  0  0  0  0  0  0
   38.1730   26.5930   41.8780 C   0  0  0  0  0  0  0  0  0  0  0  0
   39.4690   26.6390   41.3400 C   0  0  0  0  0  0  0  0  0  0  0  0
   39.5930   26.2290   40.0360 N   0  0  0  0  0  0  0  0  0  0  0  0
   38.5540   25.8030   39.2960 C   0  0  0  0  0  0  0  0  0  0  0  0
   37.3050   25.7670   39.8440 N   0  0  0  0  0  0  0  0  0  0  0  0
   36.1070   26.1220   41.5470 H   0  0  0  0  0  0  0  0  0  0  0  0
   40.2950   26.9740   41.9210 H   0  0  0  0  0  0  0  0  0  0  0  0
   38.6910   25.4900   38.2770 H   0  0  0  0  0  0  0  0  0  0  0  0
   37.4500   29.4680   42.4340 C   0  0  1  0  0  0  0  0  0  0  0  0
   38.4480   30.1250   42.0860 O   0  0  0  0  0  0  0  0  0  0  0  0
   37.4140   30.0340   41.0860 C   0  0  2  0  0  0  0  0  0  0  0  0
   36.2590   31.0220   40.9080 C   0  0  0  0  0  0  0  0  0  0  0  0
   36.4120   29.8890   40.0510 C   0  0  1  0  0  0  0  0  0  0  0  0
   36.8920   30.2280   43.1510 H   0  0  0  0  0  0  0  0  0  0  0  0
   36.6400   32.0290   40.6200 H   0  0  0  0  0  0  0  0  0  0  0  0
   35.4240   31.0490   41.6220 H   0  0  0  0  0  0  0  0  0  0  0  0
   35.7630   28.9900   40.2300 H   0  0  0  0  0  0  0  0  0  0  0  0
   36.8590   30.1460   38.6270 C   0  0  0  0  0  2  0  0  0  0  0  0
   37.2160   31.6220   38.5220 C   0  0  0  0  0  2  0  0  0  0  0  0
   38.2300   31.7790   38.0750 H   0  0  0  0  0  0  0  0  0  0  0  0
  1  2  1  0  0  0  0
  1  3  1  0  0  0  0
  1  4  1  1  0  0  0
  2  3  1  0  0  0  0
  2  5  1  1  0  0  0
  3  6  1  0  0  0  0
  7  3  1  0  0  0  0
  8 14  1  0  0  0  0
  8  9  1  0  0  0  0
  9  1  1  0  0  0  0
 10  9  2  0  0  0  0
 10 15  1  0  0  0  0
 11 10  1  0  0  0  0
 12 13  1  0  0  0  0
 12 11  2  0  0  0  0
 13  8  2  0  0  0  0
 16 12  1  0  0  0  0
 17 22  1  1  0  0  0
 17  2  1  0  0  0  0
 18 17  1  0  0  0  0
 19 18  1  6  0  0  0
 19 17  1  0  0  0  0
 20 19  1  0  0  0  0
 20 24  1  0  0  0  0
 21 25  1  1  0  0  0
 21 20  1  0  0  0  0
 21 19  1  0  0  0  0
 23 20  1  0  0  0  0
 26 21  1  0  0  0  0
 27 26  1  0  0  0  0
 28 27  1  0  0  0  0
M  END
>  <minimizedAffinity>
-4.45664501

$$$$

 OpenBabel03242511523D

 28 31  0  0  1  0  0  0  0  0999 V2000
   38.5490   29.7060   42.6050 C   0  0  1  0  0  0  0  0  0  0  0  0
   38.3660   28.5280   43.4090 C   0  0  2  0  0  0  0  0  0  0  0  0
   39.6820   28.8210   42.7960 C   0  0  0  0  0  0  0  0  0  0  0  0
   38.5200   30.6790   43.1820 H   0  0  0  0  0  0  0  0  0  0  0  0
   38.3820   28.6690   44.5330 H   0  0  0  0  0  0  0  0  0  0  0  0
   40.5580   29.1590   43.4240 H   0  0  0  0  0  0  0  0  0  0  0  0
   40.0780   28.2250   41.9260 H   0  0  0  0  0  0  0  0  0  0  0  0
   36.5550   30.3450   41.3510 C   0  0  0  0  0  0  0  0  0  0  0  0
   37.8390   29.8240   41.3280 C   0  0  0  0  0  0  0  0  0  0  0  0
   38.4480   29.4720   40.1130 C   0  0  0  0  0  0  0  0  0  0  0  0
   37.6990   29.6810   38.9820 N   0  0  0  0  0  0  0  0  0  0  0  0
   36.4540   30.1890   39.0080 C   0  0  0  0  0  0  0  0  0  0  0  0
   35.8840   30.5200   40.2030 N   0  0  0  0  0  0  0  0  0  0  0  0
   36.0980   30.6100   42.3020 H   0  0  0  0  0  0  0  0  0  0  0  0
   39.4330   29.0700   40.0870 H   0  0  0  0  0  0  0  0  0  0  0  0
   35.8980   30.3380   38.1010 H   0  0  0  0  0  0  0  0  0  0  0  0
   37.7720   27.2670   42.9280 C   0  0  1  0  0  0  0  0  0  0  0  0
   36.5480   27.1550   43.1230 O   0  0  0  0  0  0  0  0  0  0  0  0
   37.0510   26.3730   42.0220 C   0  0  2  0  0  0  0  0  0  0  0  0
   37.5580   24.9320   42.1120 C   0  0  0  0  0  0  0  0  0  0  0  0
   37.5350   25.6400   40.8710 C   0  0  1  0  0  0  0  0  0  0  0  0
   38.2230   26.6010   43.7970 H   0  0  0  0  0  0  0  0  0  0  0  0
   36.7350   24.2410   42.4070 H   0  0  0  0  0  0  0  0  0  0  0  0
   38.5240   24.7020   42.5830 H   0  0  0  0  0  0  0  0  0  0  0  0
   38.4950   26.0720   40.4820 H   0  0  0  0  0  0  0  0  0  0  0  0
   36.5020   25.2180   39.8470 C   0  0  0  0  0  2  0  0  0  0  0  0
   36.0650   23.8030   40.1970 C   0  0  0  0  0  2  0  0  0  0  0  0
   34.9500   23.7090   40.2560 H   0  0  0  0  0  0  0  0  0  0  0  0
  1  3  1  0  0  0  0
  1  4  1  1  0  0  0
  1  2  1  0  0  0  0
  2  5  1  1  0  0  0
  3  2  1  0  0  0  0
  3  6  1  0  0  0  0
  7  3  1  0  0  0  0
  8 14  1  0  0  0  0
  9  8  1  0  0  0  0
  9  1  1  0  0  0  0
 10  9  2  0  0  0  0
 11 12  2  0  0  0  0
 11 10  1  0  0  0  0
 12 13  1  0  0  0  0
 13  8  2  0  0  0  0
 15 10  1  0  0  0  0
 16 12  1  0  0  0  0
 17 18  1  0  0  0  0
 17  2  1  0  0  0  0
 17 22  1  1  0  0  0
 19 20  1  0  0  0  0
 19 17  1  0  0  0  0
 19 18  1  1  0  0  0
 20 23  1  0  0  0  0
 20 24  1  0  0  0  0
 21 25  1  6  0  0  0
 21 19  1  0  0  0  0
 21 20  1  0  0  0  0
 26 27  1  0  0  0  0
 26 21  1  0  0  0  0
 27 28  1  0  0  0  0
M  END
>  <minimizedAffinity>
-4.4024806

$$$$

 OpenBabel03242511523D

 28 31  0  0  1  0  0  0  0  0999 V2000
   37.4400   31.7640   38.2270 C   0  0  1  0  0  0  0  0  0  0  0  0
   37.0640   32.0610   39.5830 C   0  0  2  0  0  0  0  0  0  0  0  0
   38.4110   32.4180   39.0830 C   0  0  0  0  0  0  0  0  0  0  0  0
   36.9060   32.3840   37.4440 H   0  0  0  0  0  0  0  0  0  0  0  0
   36.4160   32.9760   39.7450 H   0  0  0  0  0  0  0  0  0  0  0  0
   38.6980   33.4930   38.8880 H   0  0  0  0  0  0  0  0  0  0  0  0
   39.3330   31.8590   39.4090 H   0  0  0  0  0  0  0  0  0  0  0  0
   36.4060   29.6910   37.4590 C   0  0  0  0  0  0  0  0  0  0  0  0
   37.5660   30.3660   37.8050 C   0  0  0  0  0  0  0  0  0  0  0  0
   38.8190   29.7400   37.7010 C   0  0  0  0  0  0  0  0  0  0  0  0
   38.8070   28.4470   37.2410 N   0  0  0  0  0  0  0  0  0  0  0  0
   37.6800   27.7950   36.9050 C   0  0  0  0  0  0  0  0  0  0  0  0
   36.4760   28.4260   37.0170 N   0  0  0  0  0  0  0  0  0  0  0  0
   35.4440   30.1910   37.5470 H   0  0  0  0  0  0  0  0  0  0  0  0
   39.7130   30.2510   37.9660 H   0  0  0  0  0  0  0  0  0  0  0  0
   37.7120   26.7820   36.5480 H   0  0  0  0  0  0  0  0  0  0  0  0
   37.0970   31.0930   40.6950 C   0  0  1  0  0  0  0  0  0  0  0  0
   36.0200   30.9570   41.3050 O   0  0  0  0  0  0  0  0  0  0  0  0
   36.8980   29.8160   41.3800 C   0  0  2  0  0  0  0  0  0  0  0  0
   37.9520   29.5740   42.4630 C   0  0  0  0  0  0  0  0  0  0  0  0
   37.7420   28.6400   41.4020 C   0  0  1  0  0  0  0  0  0  0  0  0
   37.7080   31.7950   41.4270 H   0  0  0  0  0  0  0  0  0  0  0  0
   37.4720   29.4450   43.4600 H   0  0  0  0  0  0  0  0  0  0  0  0
   38.8810   30.1620   42.4880 H   0  0  0  0  0  0  0  0  0  0  0  0
   38.4630   28.6350   40.5410 H   0  0  0  0  0  0  0  0  0  0  0  0
   37.0740   27.3260   41.7510 C   0  0  0  0  0  2  0  0  0  0  0  0
   36.5890   27.4310   43.1900 C   0  0  0  0  0  2  0  0  0  0  0  0
   35.5110   27.1460   43.2930 H   0  0  0  0  0  0  0  0  0  0  0  0
  1  4  1  6  0  0  0
  1  3  1  0  0  0  0
  1  2  1  0  0  0  0
  2  5  1  1  0  0  0
  2 17  1  0  0  0  0
  3  7  1  0  0  0  0
  3  2  1  0  0  0  0
  6  3  1  0  0  0  0
  8 14  1  0  0  0  0
  8  9  1  0  0  0  0
  9  1  1  0  0  0  0
 10  9  2  0  0  0  0
 10 15  1  0  0  0  0
 11 10  1  0  0  0  0
 12 13  1  0  0  0  0
 12 11  2  0  0  0  0
 13  8  2  0  0  0  0
 16 12  1  0  0  0  0
 17 18  1  0  0  0  0
 17 19  1  0  0  0  0
 17 22  1  1  0  0  0
 19 18  1  1  0  0  0
 19 21  1  0  0  0  0
 19 20  1  0  0  0  0
 20 24  1  0  0  0  0
 20 23  1  0  0  0  0
 21 25  1  6  0  0  0
 21 26  1  0  0  0  0
 21 20  1  0  0  0  0
 26 27  1  0  0  0  0
 27 28  1  0  0  0  0
M  END
>  <minimizedAffinity>
-4.33818531

$$$$

 OpenBabel03242511523D

 28 31  0  0  1  0  0  0  0  0999 V2000
   36.9380   30.5010   39.7860 C   0  0  1  0  0  0  0  0  0  0  0  0
   35.9700   29.6360   40.4030 C   0  0  2  0  0  0  0  0  0  0  0  0
   36.1930   31.0040   40.9240 C   0  0  0  0  0  0  0  0  0  0  0  0
   36.6550   30.8630   38.7520 H   0  0  0  0  0  0  0  0  0  0  0  0
   34.9670   29.5380   39.8840 H   0  0  0  0  0  0  0  0  0  0  0  0
   35.4250   31.8190   40.7760 H   0  0  0  0  0  0  0  0  0  0  0  0
   36.7230   31.1880   41.9000 H   0  0  0  0  0  0  0  0  0  0  0  0
   39.1240   30.7710   40.8370 C   0  0  0  0  0  0  0  0  0  0  0  0
   38.3610   30.1550   39.8570 C   0  0  0  0  0  0  0  0  0  0  0  0
   38.9280   29.1950   39.0040 C   0  0  0  0  0  0  0  0  0  0  0  0
   40.2570   28.9200   39.2090 N   0  0  0  0  0  0  0  0  0  0  0  0
   40.9950   29.5190   40.1600 C   0  0  0  0  0  0  0  0  0  0  0  0
   40.4190   30.4490   40.9750 N   0  0  0  0  0  0  0  0  0  0  0  0
   38.6690   31.5140   41.4880 H   0  0  0  0  0  0  0  0  0  0  0  0
   38.3490   28.7190   38.2490 H   0  0  0  0  0  0  0  0  0  0  0  0
   42.0330   29.2760   40.2900 H   0  0  0  0  0  0  0  0  0  0  0  0
   36.2880   28.5830   41.3860 C   0  0  1  0  0  0  0  0  0  0  0  0
   36.4430   27.4450   40.9050 O   0  0  0  0  0  0  0  0  0  0  0  0
   37.1260   27.6630   42.1550 C   0  0  2  0  0  0  0  0  0  0  0  0
   36.5480   27.3860   43.5450 C   0  0  0  0  0  0  0  0  0  0  0  0
   37.8720   27.8960   43.3740 C   0  0  1  0  0  0  0  0  0  0  0  0
   35.1920   28.5180   41.8280 H   0  0  0  0  0  0  0  0  0  0  0  0
   36.3530   26.2980   43.6830 H   0  0  0  0  0  0  0  0  0  0  0  0
   35.7720   28.0360   43.9740 H   0  0  0  0  0  0  0  0  0  0  0  0
   38.0510   28.9910   43.5440 H   0  0  0  0  0  0  0  0  0  0  0  0
   39.0240   26.9550   43.6590 C   0  0  0  0  0  2  0  0  0  0  0  0
   40.3110   27.6960   43.3240 C   0  0  0  0  0  2  0  0  0  0  0  0
   41.0510   27.6560   44.1630 H   0  0  0  0  0  0  0  0  0  0  0  0
  1  4  1  6  0  0  0
  1  9  1  0  0  0  0
  1  2  1  0  0  0  0
  1  3  1  0  0  0  0
  2  5  1  6  0  0  0
  2  3  1  0  0  0  0
  2 17  1  0  0  0  0
  3  7  1  0  0  0  0
  6  3  1  0  0  0  0
  8 13  1  0  0  0  0
  8 14  1  0  0  0  0
  9  8  2  0  0  0  0
 10 11  2  0  0  0  0
 10  9  1  0  0  0  0
 11 12  1  0  0  0  0
 12 16  1  0  0  0  0
 12 13  2  0  0  0  0
 15 10  1  0  0  0  0
 17 22  1  1  0  0  0
 17 19  1  0  0  0  0
 18 17  1  0  0  0  0
 19 18  1  6  0  0  0
 19 21  1  0  0  0  0
 19 20  1  0  0  0  0
 20 23  1  0  0  0  0
 20 24  1  0  0  0  0
 21 25  1  1  0  0  0
 21 20  1  0  0  0  0
 21 26  1  0  0  0  0
 27 26  1  0  0  0  0
 27 28  1  0  0  0  0
M  END
>  <minimizedAffinity>
-4.31233978

$$$$

 OpenBabel03242511523D

 28 31  0  0  1  0  0  0  0  0999 V2000
   35.9110   28.0890   40.4920 C   0  0  1  0  0  0  0  0  0  0  0  0
   35.4710   29.3970   40.0880 C   0  0  2  0  0  0  0  0  0  0  0  0
   36.0840   28.4750   39.1040 C   0  0  0  0  0  0  0  0  0  0  0  0
   35.0760   27.3710   40.7530 H   0  0  0  0  0  0  0  0  0  0  0  0
   34.3600   29.5300   39.9100 H   0  0  0  0  0  0  0  0  0  0  0  0
   35.4620   27.9780   38.3020 H   0  0  0  0  0  0  0  0  0  0  0  0
   37.1200   28.6440   38.6970 H   0  0  0  0  0  0  0  0  0  0  0  0
   36.7420   27.9450   42.7830 C   0  0  0  0  0  0  0  0  0  0  0  0
   37.0330   27.9640   41.4270 C   0  0  0  0  0  0  0  0  0  0  0  0
   38.3540   27.8150   40.9750 C   0  0  0  0  0  0  0  0  0  0  0  0
   39.3070   27.6520   41.9490 N   0  0  0  0  0  0  0  0  0  0  0  0
   39.0220   27.6320   43.2630 C   0  0  0  0  0  0  0  0  0  0  0  0
   37.7300   27.7800   43.6750 N   0  0  0  0  0  0  0  0  0  0  0  0
   35.7140   28.0630   43.1150 H   0  0  0  0  0  0  0  0  0  0  0  0
   38.5850   27.8310   39.9370 H   0  0  0  0  0  0  0  0  0  0  0  0
   39.7960   27.5010   43.9960 H   0  0  0  0  0  0  0  0  0  0  0  0
   36.2440   30.6390   40.2760 C   0  0  1  0  0  0  0  0  0  0  0  0
   36.1050   31.1810   41.3880 O   0  0  0  0  0  0  0  0  0  0  0  0
   37.3480   31.4880   40.7260 C   0  0  2  0  0  0  0  0  0  0  0  0
   37.5850   32.6690   39.7820 C   0  0  0  0  0  0  0  0  0  0  0  0
   38.6280   31.7450   40.1000 C   0  0  1  0  0  0  0  0  0  0  0  0
   35.5450   31.3030   39.5890 H   0  0  0  0  0  0  0  0  0  0  0  0
   37.4760   33.6370   40.3250 H   0  0  0  0  0  0  0  0  0  0  0  0
   37.1610   32.6760   38.7680 H   0  0  0  0  0  0  0  0  0  0  0  0
   38.8860   30.9490   39.3500 H   0  0  0  0  0  0  0  0  0  0  0  0
   39.7430   32.2330   41.0000 C   0  0  0  0  0  2  0  0  0  0  0  0
   39.8120   31.2880   42.1920 C   0  0  0  0  0  2  0  0  0  0  0  0
   40.8500   30.9070   42.3680 H   0  0  0  0  0  0  0  0  0  0  0  0
  1  4  1  1  0  0  0
  1  9  1  0  0  0  0
  2  5  1  6  0  0  0
  2 17  1  0  0  0  0
  2  1  1  0  0  0  0
  3  2  1  0  0  0  0
  3  1  1  0  0  0  0
  6  3  1  0  0  0  0
  7  3  1  0  0  0  0
  8 14  1  0  0  0  0
  8 13  1  0  0  0  0
  9  8  2  0  0  0  0
 10  9  1  0  0  0  0
 10 11  2  0  0  0  0
 11 12  1  0  0  0  0
 12 13  2  0  0  0  0
 12 16  1  0  0  0  0
 15 10  1  0  0  0  0
 17 22  1  6  0  0  0
 17 19  1  0  0  0  0
 17 18  1  0  0  0  0
 19 18  1  1  0  0  0
 20 21  1  0  0  0  0
 20 23  1  0  0  0  0
 20 19  1  0  0  0  0
 21 25  1  6  0  0  0
 21 19  1  0  0  0  0
 21 26  1  0  0  0  0
 24 20  1  0  0  0  0
 26 27  1  0  0  0  0
 27 28  1  0  0  0  0
M  END
>  <minimizedAffinity>
-4.28059959

$$$$

 OpenBabel03242511523D

 28 31  0  0  1  0  0  0  0  0999 V2000
   37.8980   24.0780   41.8710 C   0  0  1  0  0  0  0  0  0  0  0  0
   36.8490   24.9900   42.2390 C   0  0  2  0  0  0  0  0  0  0  0  0
   36.8990   24.4170   40.8750 C   0  0  0  0  0  0  0  0  0  0  0  0
   37.8390   23.0650   42.3730 H   0  0  0  0  0  0  0  0  0  0  0  0
   35.9920   24.5650   42.8470 H   0  0  0  0  0  0  0  0  0  0  0  0
   36.1530   23.6370   40.5410 H   0  0  0  0  0  0  0  0  0  0  0  0
   37.1910   25.0360   39.9810 H   0  0  0  0  0  0  0  0  0  0  0  0
   40.0040   24.6040   42.9870 C   0  0  0  0  0  0  0  0  0  0  0  0
   39.2800   24.5600   41.8050 C   0  0  0  0  0  0  0  0  0  0  0  0
   39.8780   24.9160   40.5850 C   0  0  0  0  0  0  0  0  0  0  0  0
   41.1950   25.2980   40.6500 N   0  0  0  0  0  0  0  0  0  0  0  0
   41.8940   25.3390   41.7980 C   0  0  0  0  0  0  0  0  0  0  0  0
   41.2890   24.9890   42.9690 N   0  0  0  0  0  0  0  0  0  0  0  0
   39.5250   24.3260   43.9230 H   0  0  0  0  0  0  0  0  0  0  0  0
   39.3290   24.8860   39.6750 H   0  0  0  0  0  0  0  0  0  0  0  0
   42.9240   25.6430   41.8080 H   0  0  0  0  0  0  0  0  0  0  0  0
   36.9800   26.4590   42.2550 C   0  0  1  0  0  0  0  0  0  0  0  0
   36.6290   27.0070   43.3160 O   0  0  0  0  0  0  0  0  0  0  0  0
   37.5880   27.7580   42.5460 C   0  0  2  0  0  0  0  0  0  0  0  0
   37.2510   28.8020   41.4790 C   0  0  0  0  0  0  0  0  0  0  0  0
   38.6030   28.4850   41.8140 C   0  0  1  0  0  0  0  0  0  0  0  0
   36.0460   26.6550   41.5550 H   0  0  0  0  0  0  0  0  0  0  0  0
   36.7240   29.6740   41.9310 H   0  0  0  0  0  0  0  0  0  0  0  0
   36.8530   28.5000   40.4990 H   0  0  0  0  0  0  0  0  0  0  0  0
   39.1810   27.8080   41.1290 H   0  0  0  0  0  0  0  0  0  0  0  0
   39.3910   29.5220   42.5870 C   0  0  0  0  0  2  0  0  0  0  0  0
   40.8120   28.9960   42.7340 C   0  0  0  0  0  2  0  0  0  0  0  0
   41.5760   29.7480   42.4100 H   0  0  0  0  0  0  0  0  0  0  0  0
  1  2  1  0  0  0  0
  1  4  1  1  0  0  0
  2 17  1  0  0  0  0
  2  5  1  1  0  0  0
  3  1  1  0  0  0  0
  3  2  1  0  0  0  0
  6  3  1  0  0  0  0
  7  3  1  0  0  0  0
  8 14  1  0  0  0  0
  9  1  1  0  0  0  0
  9  8  2  0  0  0  0
 10 11  2  0  0  0  0
 10  9  1  0  0  0  0
 11 12  1  0  0  0  0
 12 16  1  0  0  0  0
 12 13  2  0  0  0  0
 13  8  1  0  0  0  0
 15 10  1  0  0  0  0
 17 22  1  6  0  0  0
 17 19  1  0  0  0  0
 17 18  1  0  0  0  0
 19 18  1  1  0  0  0
 20 21  1  0  0  0  0
 20 23  1  0  0  0  0
 20 19  1  0  0  0  0
 21 25  1  6  0  0  0
 21 19  1  0  0  0  0
 21 26  1  0  0  0  0
 24 20  1  0  0  0  0
 26 27  1  0  0  0  0
 28 27  1  0  0  0  0
M  END
>  <minimizedAffinity>
-4.25762224

$$$$

 OpenBabel03242511523D

 28 31  0  0  1  0  0  0  0  0999 V2000
   37.9730   30.5810   37.6280 C   0  0  1  0  0  0  0  0  0  0  0  0
   37.7720   29.2040   37.9930 C   0  0  2  0  0  0  0  0  0  0  0  0
   36.6760   29.9830   37.3720 C   0  0  0  0  0  0  0  0  0  0  0  0
   38.6760   30.7390   36.7560 H   0  0  0  0  0  0  0  0  0  0  0  0
   38.1890   28.4230   37.2860 H   0  0  0  0  0  0  0  0  0  0  0  0
   36.3480   29.7880   36.3090 H   0  0  0  0  0  0  0  0  0  0  0  0
   35.7790   30.3210   37.9640 H   0  0  0  0  0  0  0  0  0  0  0  0
   39.4650   31.6690   39.2230 C   0  0  0  0  0  0  0  0  0  0  0  0
   38.1940   31.5780   38.6790 C   0  0  0  0  0  0  0  0  0  0  0  0
   37.1740   32.4520   39.0900 C   0  0  0  0  0  0  0  0  0  0  0  0
   37.5230   33.3770   40.0420 N   0  0  0  0  0  0  0  0  0  0  0  0
   38.7580   33.4630   40.5670 C   0  0  0  0  0  0  0  0  0  0  0  0
   39.7300   32.6010   40.1510 N   0  0  0  0  0  0  0  0  0  0  0  0
   40.2430   30.9830   38.8950 H   0  0  0  0  0  0  0  0  0  0  0  0
   36.1960   32.3870   38.6780 H   0  0  0  0  0  0  0  0  0  0  0  0
   38.9940   34.2020   41.3100 H   0  0  0  0  0  0  0  0  0  0  0  0
   37.4490   28.7330   39.3520 C   0  0  1  0  0  0  0  0  0  0  0  0
   38.0200   27.6810   39.6930 O   0  0  0  0  0  0  0  0  0  0  0  0
   37.6310   28.5310   40.7900 C   0  0  2  0  0  0  0  0  0  0  0  0
   36.2950   28.4670   41.5340 C   0  0  0  0  0  0  0  0  0  0  0  0
   37.3070   29.4100   41.8930 C   0  0  1  0  0  0  0  0  0  0  0  0
   36.3650   28.3470   39.0750 H   0  0  0  0  0  0  0  0  0  0  0  0
   36.1860   27.4950   42.0680 H   0  0  0  0  0  0  0  0  0  0  0  0
   35.3690   28.8240   41.0630 H   0  0  0  0  0  0  0  0  0  0  0  0
   37.1940   30.4740   41.5510 H   0  0  0  0  0  0  0  0  0  0  0  0
   38.0490   29.1770   43.1930 C   0  0  0  0  0  2  0  0  0  0  0  0
   37.7840   27.7390   43.6160 C   0  0  0  0  0  2  0  0  0  0  0  0
   38.7300   27.1870   43.8460 H   0  0  0  0  0  0  0  0  0  0  0  0
  1  4  1  6  0  0  0
  1  2  1  0  0  0  0
  1  9  1  0  0  0  0
  2  5  1  6  0  0  0
  2 17  1  0  0  0  0
  3  1  1  0  0  0  0
  3  7  1  0  0  0  0
  3  2  1  0  0  0  0
  6  3  1  0  0  0  0
  8 13  1  0  0  0  0
  9 10  1  0  0  0  0
  9  8  2  0  0  0  0
 10 11  2  0  0  0  0
 11 12  1  0  0  0  0
 12 16  1  0  0  0  0
 13 12  2  0  0  0  0
 14  8  1  0  0  0  0
 15 10  1  0  0  0  0
 17 22  1  6  0  0  0
 17 18  1  0  0  0  0
 17 19  1  0  0  0  0
 19 18  1  1  0  0  0
 19 20  1  0  0  0  0
 19 21  1  0  0  0  0
 20 21  1  0  0  0  0
 20 23  1  0  0  0  0
 21 25  1  6  0  0  0
 21 26  1  0  0  0  0
 24 20  1  0  0  0  0
 26 27  1  0  0  0  0
 27 28  1  0  0  0  0
M  END
>  <minimizedAffinity>
-4.24534225

$$$$
