
 OpenBabel03252504323D

 34 35  0  0  0  0  0  0  0  0999 V2000
   43.7340   35.3230   41.2290 C   0  0  0  0  0  3  0  0  0  0  0  0
   44.1840   35.8070   42.3820 C   0  0  0  0  0  3  0  0  0  0  0  0
   45.5830   35.6220   42.9410 C   0  0  0  0  0  0  0  0  0  0  0  0
   46.1210   35.0180   42.1740 H   0  0  0  0  0  0  0  0  0  0  0  0
   46.0820   36.5990   43.1030 H   0  0  0  0  0  0  0  0  0  0  0  0
   45.4660   34.9100   44.1150 O   0  0  0  0  0  0  0  0  0  0  0  0
   45.9050   32.6860   42.7170 O   0  0  0  0  0  0  0  0  0  0  0  0
   46.2350   33.4140   43.9990 P   0  0  1  0  0  0  0  0  0  0  0  0
   47.9270   33.6290   44.0260 O   0  0  0  0  0  0  0  0  0  0  0  0
   48.1790   34.4450   44.5270 H   0  0  0  0  0  0  0  0  0  0  0  0
   45.8380   32.4530   45.3290 O   0  0  0  0  0  0  0  0  0  0  0  0
   46.1010   33.0830   46.5280 C   0  0  0  0  0  0  0  0  0  0  0  0
   47.0300   32.4150   47.4960 C   0  0  0  0  0  0  0  0  0  0  0  0
   45.5420   32.4070   47.7570 C   0  0  0  0  0  0  0  0  0  0  0  0
   46.1250   34.1910   46.5260 H   0  0  0  0  0  0  0  0  0  0  0  0
   47.4500   31.4510   47.1420 H   0  0  0  0  0  0  0  0  0  0  0  0
   47.6160   33.0150   48.2010 H   0  0  0  0  0  0  0  0  0  0  0  0
   45.1340   33.0060   48.5860 H   0  0  0  0  0  0  0  0  0  0  0  0
   45.0090   31.4430   47.6380 H   0  0  0  0  0  0  0  0  0  0  0  0
   42.4150   35.6170   40.9220 O   0  0  0  0  0  0  0  0  0  0  0  0
   41.6650   35.1460   39.8830 C   0  0  0  0  0  0  0  0  0  0  0  0
   40.8310   35.7820   39.5170 H   0  0  0  0  0  0  0  0  0  0  0  0
   42.3120   34.9370   39.0050 H   0  0  0  0  0  0  0  0  0  0  0  0
   40.3330   33.8230   41.4550 C   0  0  0  0  0  0  0  0  0  0  0  0
   40.9860   33.8440   40.2000 C   0  0  0  0  0  0  0  0  0  0  0  0
   40.9240   32.7190   39.4410 C   0  0  0  0  0  0  0  0  0  0  0  0
   40.2550   31.6890   39.9330 N   0  0  0  0  0  0  0  0  0  0  0  0
   39.6430   31.6590   41.1000 C   0  0  0  0  0  0  0  0  0  0  0  0
   39.6600   32.7720   41.9380 N   0  0  0  0  0  0  0  0  0  0  0  0
   40.3190   34.6630   42.1390 H   0  0  0  0  0  0  0  0  0  0  0  0
   41.4430   32.7930   38.4870 H   0  0  0  0  0  0  0  0  0  0  0  0
   38.9240   30.4420   41.5460 C   0  0  0  0  0  2  0  0  0  0  0  0
   37.4360   30.5770   41.2290 C   0  0  0  0  0  2  0  0  0  0  0  0
   37.2050   31.6080   40.8330 H   0  0  0  0  0  0  0  0  0  0  0  0
  1  2  2  0  0  0  0
  2  3  1  0  0  0  0
  3  5  1  0  0  0  0
  3  6  1  0  0  0  0
  4  3  1  0  0  0  0
  8  7  2  6  0  0  0
  8  9  1  0  0  0  0
  8  6  1  0  0  0  0
  8 11  1  0  0  0  0
  9 10  1  0  0  0  0
 11 12  1  0  0  0  0
 12 13  1  0  0  0  0
 12 14  1  0  0  0  0
 13 14  1  0  0  0  0
 13 17  1  0  0  0  0
 14 18  1  0  0  0  0
 15 12  1  0  0  0  0
 16 13  1  0  0  0  0
 19 14  1  0  0  0  0
 20  1  1  0  0  0  0
 21 25  1  0  0  0  0
 21 20  1  0  0  0  0
 22 21  1  0  0  0  0
 23 21  1  0  0  0  0
 24 29  1  0  0  0  0
 24 30  1  0  0  0  0
 25 24  2  0  0  0  0
 26 27  2  0  0  0  0
 26 25  1  0  0  0  0
 27 28  1  0  0  0  0
 28 32  1  0  0  0  0
 28 29  2  0  0  0  0
 31 26  1  0  0  0  0
 33 32  1  0  0  0  0
 34 33  1  0  0  0  0
M  END
>  <minimizedAffinity>
-4.41678667

>  <minimizedRMSD>
1.3062433

$$$$
