
 OpenBabel03252504323D

 34 35  0  0  0  0  0  0  0  0999 V2000
   43.4140   35.4540   41.1100 C   0  0  0  0  0  3  0  0  0  0  0  0
   43.6490   35.4560   42.4180 C   0  0  0  0  0  3  0  0  0  0  0  0
   45.0160   35.4650   43.0780 C   0  0  0  0  0  0  0  0  0  0  0  0
   45.7020   35.0150   42.3240 H   0  0  0  0  0  0  0  0  0  0  0  0
   45.3290   36.4980   43.3360 H   0  0  0  0  0  0  0  0  0  0  0  0
   44.9390   34.6630   44.1950 O   0  0  0  0  0  0  0  0  0  0  0  0
   45.7290   32.5280   42.8120 O   0  0  0  0  0  0  0  0  0  0  0  0
   45.9720   33.3370   44.0640 P   0  0  1  0  0  0  0  0  0  0  0  0
   47.5930   33.8690   44.0060 O   0  0  0  0  0  0  0  0  0  0  0  0
   47.7070   34.7290   44.4800 H   0  0  0  0  0  0  0  0  0  0  0  0
   45.8260   32.3510   45.4270 O   0  0  0  0  0  0  0  0  0  0  0  0
   46.1190   33.0250   46.5950 C   0  0  0  0  0  0  0  0  0  0  0  0
   47.0430   32.3750   47.5810 C   0  0  0  0  0  0  0  0  0  0  0  0
   45.5580   32.4150   47.8580 C   0  0  0  0  0  0  0  0  0  0  0  0
   46.1700   34.1310   46.5460 H   0  0  0  0  0  0  0  0  0  0  0  0
   47.4340   31.3870   47.2630 H   0  0  0  0  0  0  0  0  0  0  0  0
   47.6520   32.9890   48.2530 H   0  0  0  0  0  0  0  0  0  0  0  0
   45.1750   33.0590   48.6660 H   0  0  0  0  0  0  0  0  0  0  0  0
   45.0000   31.4610   47.7870 H   0  0  0  0  0  0  0  0  0  0  0  0
   42.0800   35.4420   40.7340 O   0  0  0  0  0  0  0  0  0  0  0  0
   40.9790   35.3150   41.5310 C   0  0  0  0  0  0  0  0  0  0  0  0
   41.1410   35.1150   42.6110 H   0  0  0  0  0  0  0  0  0  0  0  0
   40.3520   36.2300   41.4690 H   0  0  0  0  0  0  0  0  0  0  0  0
   40.3800   32.9490   41.7230 C   0  0  0  0  0  0  0  0  0  0  0  0
   40.0830   34.1870   41.1070 C   0  0  0  0  0  0  0  0  0  0  0  0
   39.0460   34.2170   40.2280 C   0  0  0  0  0  0  0  0  0  0  0  0
   38.3920   33.0870   40.0180 N   0  0  0  0  0  0  0  0  0  0  0  0
   38.6610   31.9280   40.5880 C   0  0  0  0  0  0  0  0  0  0  0  0
   39.7090   31.8130   41.5000 N   0  0  0  0  0  0  0  0  0  0  0  0
   41.1830   32.8110   42.4370 H   0  0  0  0  0  0  0  0  0  0  0  0
   38.8630   35.1950   39.7850 H   0  0  0  0  0  0  0  0  0  0  0  0
   37.8550   30.7250   40.2710 C   0  0  0  0  0  2  0  0  0  0  0  0
   37.0640   30.2950   41.5050 C   0  0  0  0  0  2  0  0  0  0  0  0
   37.3540   30.9170   42.4000 H   0  0  0  0  0  0  0  0  0  0  0  0
  1  2  2  0  0  0  0
  2  3  1  0  0  0  0
  3  5  1  0  0  0  0
  3  6  1  0  0  0  0
  4  3  1  0  0  0  0
  8  7  2  6  0  0  0
  8  6  1  0  0  0  0
  8 11  1  0  0  0  0
  9  8  1  0  0  0  0
  9 10  1  0  0  0  0
 11 12  1  0  0  0  0
 12 13  1  0  0  0  0
 12 14  1  0  0  0  0
 13 14  1  0  0  0  0
 13 17  1  0  0  0  0
 14 18  1  0  0  0  0
 15 12  1  0  0  0  0
 16 13  1  0  0  0  0
 19 14  1  0  0  0  0
 20  1  1  0  0  0  0
 20 21  1  0  0  0  0
 21 22  1  0  0  0  0
 23 21  1  0  0  0  0
 24 30  1  0  0  0  0
 25 21  1  0  0  0  0
 25 24  2  0  0  0  0
 26 25  1  0  0  0  0
 27 26  2  0  0  0  0
 27 28  1  0  0  0  0
 28 29  2  0  0  0  0
 29 24  1  0  0  0  0
 31 26  1  0  0  0  0
 32 28  1  0  0  0  0
 32 33  1  0  0  0  0
 33 34  1  0  0  0  0
M  END
>  <minimizedAffinity>
-4.69348574

>  <minimizedRMSD>
0.652804971

$$$$
