
 OpenBabel03252501053D

 34 36  0  0  1  0  0  0  0  0999 V2000
   47.7480   34.1610   39.8040 O   0  0  0  0  0  0  0  0  0  0  0  0
   48.1180   35.4620   41.8110 C   0  0  1  0  0  0  0  0  0  0  0  0
   49.3390   34.6580   41.6700 C   0  0  0  0  0  0  0  0  0  0  0  0
   48.4940   35.0780   40.4520 C   0  0  1  0  0  0  0  0  0  0  0  0
   48.1690   36.5080   42.1460 H   0  0  0  0  0  0  0  0  0  0  0  0
   50.3280   35.1160   41.7800 H   0  0  0  0  0  0  0  0  0  0  0  0
   49.2980   33.5410   41.8110 H   0  0  0  0  0  0  0  0  0  0  0  0
   49.0290   35.8030   39.8100 H   0  0  0  0  0  0  0  0  0  0  0  0
   46.0570   32.9400   43.7490 C   0  0  0  0  0  0  0  0  0  0  0  0
   47.1580   33.6070   43.2190 C   0  0  0  0  0  0  0  0  0  0  0  0
   46.9460   34.7360   42.4070 C   0  0  0  0  0  0  0  0  0  0  0  0
   45.6730   35.1400   42.1640 N   0  0  0  0  0  0  0  0  0  0  0  0
   44.6140   34.4780   42.6890 C   0  0  0  0  0  0  0  0  0  0  0  0
   44.8060   33.3790   43.4810 N   0  0  0  0  0  0  0  0  0  0  0  0
   46.2060   32.0730   44.3740 H   0  0  0  0  0  0  0  0  0  0  0  0
   48.1300   33.2450   43.4430 H   0  0  0  0  0  0  0  0  0  0  0  0
   43.6270   34.8610   42.4500 H   0  0  0  0  0  0  0  0  0  0  0  0
   48.4770   32.3950   38.0030 O   0  0  0  0  0  0  0  0  0  0  0  0
   48.0760   33.8530   38.2320 P   0  0  2  0  0  0  0  0  0  0  0  0
   49.3400   34.7720   37.5740 O   0  0  0  0  0  0  0  0  0  0  0  0
   50.1920   34.2970   37.5550 H   0  0  0  0  0  0  0  0  0  0  0  0
   46.7280   34.0880   37.2630 O   0  0  0  0  0  0  0  0  0  0  0  0
   45.8420   33.0830   36.9100 C   0  0  0  0  0  0  0  0  0  0  0  0
   45.8220   32.3040   35.7700 C   0  0  0  0  0  0  0  0  0  0  0  0
   44.8760   31.3470   35.5640 C   0  0  0  0  0  0  0  0  0  0  0  0
   43.8990   31.1310   36.5080 C   0  0  0  0  0  0  0  0  0  0  0  0
   43.9470   31.9370   37.6500 C   0  0  0  0  0  0  0  0  0  0  0  0
   44.8950   32.8800   37.8310 N   0  0  0  0  0  0  0  0  0  0  0  0
   46.6300   32.5370   35.0710 H   0  0  0  0  0  0  0  0  0  0  0  0
   44.9480   30.7890   34.6360 H   0  0  0  0  0  0  0  0  0  0  0  0
   43.1760   30.3780   36.3170 H   0  0  0  0  0  0  0  0  0  0  0  0
   42.8850   31.7170   38.6960 C   0  0  0  0  0  2  0  0  0  0  0  0
   43.2340   32.3790   39.9850 C   0  0  0  0  0  2  0  0  0  0  0  0
   44.2100   32.0030   40.3380 H   0  0  0  0  0  0  0  0  0  0  0  0
  1  4  1  0  0  0  0
  2  5  1  1  0  0  0
  2 11  1  0  0  0  0
  3  6  1  0  0  0  0
  3  7  1  0  0  0  0
  3  2  1  0  0  0  0
  4  8  1  6  0  0  0
  4  3  1  0  0  0  0
  4  2  1  0  0  0  0
  9 15  1  0  0  0  0
 10 16  1  0  0  0  0
 10  9  2  0  0  0  0
 11 10  1  0  0  0  0
 12 11  2  0  0  0  0
 12 13  1  0  0  0  0
 13 14  2  0  0  0  0
 14  9  1  0  0  0  0
 17 13  1  0  0  0  0
 19 18  2  6  0  0  0
 19  1  1  0  0  0  0
 20 19  1  0  0  0  0
 21 20  1  0  0  0  0
 22 19  1  0  0  0  0
 23 22  1  0  0  0  0
 23 28  1  0  0  0  0
 24 23  2  0  0  0  0
 25 24  1  0  0  0  0
 25 26  2  0  0  0  0
 26 27  1  0  0  0  0
 27 28  2  0  0  0  0
 27 32  1  0  0  0  0
 29 24  1  0  0  0  0
 30 25  1  0  0  0  0
 31 26  1  0  0  0  0
 32 33  1  0  0  0  0
 33 34  1  0  0  0  0
M  END
>  <minimizedAffinity>
-4.26761723

>  <minimizedRMSD>
0.19968155

$$$$
