
 OpenBabel03252509143D

 39 42  0  0  1  0  0  0  0  0999 V2000
   47.4790   32.5350   44.3210 C   0  0  0  0  0  0  0  0  0  0  0  0
   46.7840   33.5160   43.6080 C   0  0  0  0  0  0  0  0  0  0  0  0
   45.7470   34.2580   44.1660 C   0  0  0  0  0  0  0  0  0  0  0  0
   45.3770   34.0220   45.4950 C   0  0  0  0  0  0  0  0  0  0  0  0
   44.4550   34.5290   46.3380 N   0  0  0  0  0  0  0  0  0  0  0  0
   44.5470   33.9110   47.5360 C   0  0  0  0  0  0  0  0  0  0  0  0
   45.5340   33.0240   47.4060 N   0  0  0  0  0  0  0  0  0  0  0  0
   46.0750   33.0540   46.1750 C   0  0  0  0  0  0  0  0  0  0  0  0
   47.1050   32.3020   45.6530 C   0  0  0  0  0  0  0  0  0  0  0  0
   48.2660   32.0150   43.7980 H   0  0  0  0  0  0  0  0  0  0  0  0
   43.7710   35.2940   46.0880 H   0  0  0  0  0  0  0  0  0  0  0  0
   43.9660   34.0680   48.4330 H   0  0  0  0  0  0  0  0  0  0  0  0
   47.6370   31.5560   46.1900 H   0  0  0  0  0  0  0  0  0  0  0  0
   47.0040   33.2200   39.9700 C   0  0  0  0  0  0  0  0  0  0  0  0
   47.8560   34.2700   39.6210 C   0  0  0  0  0  0  0  0  0  0  0  0
   48.3490   35.0720   40.6430 C   0  0  0  0  0  0  0  0  0  0  0  0
   47.9820   34.8020   41.9390 N   0  0  0  0  0  0  0  0  0  0  0  0
   47.1550   33.7760   42.2200 C   0  0  0  0  0  0  0  0  0  0  0  0
   46.6490   32.9660   41.2670 N   0  0  0  0  0  0  0  0  0  0  0  0
   46.6170   32.5920   39.1800 H   0  0  0  0  0  0  0  0  0  0  0  0
   48.1220   34.4500   38.5920 H   0  0  0  0  0  0  0  0  0  0  0  0
   49.0140   35.9030   40.4460 H   0  0  0  0  0  0  0  0  0  0  0  0
   44.8800   35.4960   43.2430 S   0  0  0  0  0  0  0  0  0  0  0  0
   42.3490   35.4060   42.5440 N   0  0  0  0  0  0  0  0  0  0  0  0
   43.6250   34.8350   42.1280 C   0  0  1  0  0  0  0  0  0  0  0  0
   44.0080   35.2960   40.7330 C   0  0  0  0  0  0  0  0  0  0  0  0
   42.9560   35.2860   39.8380 O   0  0  0  0  0  0  0  0  0  0  0  0
   41.8140   34.6470   40.2750 C   0  0  0  0  0  0  0  0  0  0  0  0
   41.3400   35.3120   41.5320 C   0  0  1  0  0  0  0  0  0  0  0  0
   42.1060   34.9550   43.4510 H   0  0  0  0  0  0  0  0  0  0  0  0
   43.5720   33.7270   42.1890 H   0  0  0  0  0  0  0  0  0  0  0  0
   44.4200   36.3240   40.7900 H   0  0  0  0  0  0  0  0  0  0  0  0
   44.7260   34.5920   40.3180 H   0  0  0  0  0  0  0  0  0  0  0  0
   41.0480   34.7750   39.5050 H   0  0  0  0  0  0  0  0  0  0  0  0
   42.0530   33.5920   40.4900 H   0  0  0  0  0  0  0  0  0  0  0  0
   40.9000   36.3160   41.3120 H   0  0  0  0  0  0  0  0  0  0  0  0
   40.2000   34.4580   42.0980 C   0  0  0  0  0  2  0  0  0  0  0  0
   39.5650   33.5760   41.0760 C   0  0  0  0  0  2  0  0  0  0  0  0
   40.0120   32.5540   41.0800 H   0  0  0  0  0  0  0  0  0  0  0  0
  1  9  1  0  0  0  0
  2  3  1  0  0  0  0
  2  1  2  0  0  0  0
  3  4  2  0  0  0  0
  4  8  1  0  0  0  0
  4  5  1  0  0  0  0
  5  6  1  0  0  0  0
  6 12  1  0  0  0  0
  7  6  2  0  0  0  0
  8  7  1  0  0  0  0
  9  8  2  0  0  0  0
  9 13  1  0  0  0  0
 10  1  1  0  0  0  0
 11  5  1  0  0  0  0
 14 19  1  0  0  0  0
 15 14  2  0  0  0  0
 15 16  1  0  0  0  0
 16 17  2  0  0  0  0
 17 18  1  0  0  0  0
 18  2  1  0  0  0  0
 19 18  2  0  0  0  0
 20 14  1  0  0  0  0
 21 15  1  0  0  0  0
 22 16  1  0  0  0  0
 23  3  1  0  0  0  0
 24 30  1  0  0  0  0
 25 31  1  1  0  0  0
 25 24  1  0  0  0  0
 25 23  1  0  0  0  0
 26 32  1  0  0  0  0
 26 25  1  0  0  0  0
 27 28  1  0  0  0  0
 27 26  1  0  0  0  0
 28 35  1  0  0  0  0
 28 29  1  0  0  0  0
 29 36  1  6  0  0  0
 29 37  1  0  0  0  0
 29 24  1  0  0  0  0
 33 26  1  0  0  0  0
 34 28  1  0  0  0  0
 38 39  1  0  0  0  0
 38 37  1  0  0  0  0
M  END
>  <minimizedAffinity>
-5.82323122

>  <minimizedRMSD>
0.305025905

$$$$
