
 OpenBabel03252507133D

 36 37  0  0  1  0  0  0  0  0999 V2000
   50.2270   34.8670   42.6280 O   0  0  0  0  0  0  0  0  0  0  0  0
   49.0550   34.5030   41.8020 P   0  0  1  0  0  0  0  0  0  0  0  0
   48.8850   35.7120   40.6130 O   0  0  0  0  0  0  0  0  0  0  0  0
   48.7620   36.5540   41.1250 H   0  0  0  0  0  0  0  0  0  0  0  0
   49.3500   33.0250   40.9680 O   0  0  0  0  0  0  0  0  0  0  0  0
   49.6210   31.3440   42.6000 C   0  0  0  0  0  0  0  0  0  0  0  0
   50.1280   32.0270   41.5190 C   0  0  0  0  0  0  0  0  0  0  0  0
   51.4110   31.6750   41.0290 C   0  0  0  0  0  0  0  0  0  0  0  0
   52.0620   30.6750   41.6670 N   0  0  0  0  0  0  0  0  0  0  0  0
   51.5450   30.0400   42.7030 C   0  0  0  0  0  0  0  0  0  0  0  0
   50.3140   30.3860   43.1630 N   0  0  0  0  0  0  0  0  0  0  0  0
   47.1950   30.8440   42.8520 C   0  0  0  0  0  0  0  0  0  0  0  0
   47.0540   30.4790   41.6240 O   0  0  0  0  0  0  0  0  0  0  0  0
   48.4660   31.3060   43.4240 N   0  0  0  0  0  0  0  0  0  0  0  0
   51.7430   32.2470   40.1870 H   0  0  0  0  0  0  0  0  0  0  0  0
   52.0660   29.2400   43.2130 H   0  0  0  0  0  0  0  0  0  0  0  0
   46.2710   30.7740   43.4230 H   0  0  0  0  0  0  0  0  0  0  0  0
   48.3710   31.5670   44.4070 H   0  0  0  0  0  0  0  0  0  0  0  0
   47.6450   34.4190   42.6530 O   0  0  0  0  0  0  0  0  0  0  0  0
   46.5190   34.8920   42.1090 C   0  0  2  0  0  0  0  0  0  0  0  0
   45.6360   35.7120   42.9620 C   0  0  0  0  0  0  0  0  0  0  0  0
   44.2540   35.7560   42.3930 C   0  0  0  0  0  0  0  0  0  0  0  0
   43.6120   34.5280   42.4420 O   0  0  0  0  0  0  0  0  0  0  0  0
   44.5150   33.4820   42.4270 C   0  0  0  0  0  0  0  0  0  0  0  0
   45.6590   33.7800   41.5030 C   0  0  1  0  0  0  0  0  0  0  0  0
   46.7880   35.4910   41.1880 H   0  0  0  0  0  0  0  0  0  0  0  0
   45.9970   36.7700   43.0950 H   0  0  0  0  0  0  0  0  0  0  0  0
   45.5340   35.3340   44.0030 H   0  0  0  0  0  0  0  0  0  0  0  0
   44.1360   36.3190   41.4610 H   0  0  0  0  0  0  0  0  0  0  0  0
   43.6700   36.3790   43.1430 H   0  0  0  0  0  0  0  0  0  0  0  0
   44.9270   33.3380   43.4370 H   0  0  0  0  0  0  0  0  0  0  0  0
   43.9820   32.5660   42.1120 H   0  0  0  0  0  0  0  0  0  0  0  0
   46.3060   32.8670   41.5840 H   0  0  0  0  0  0  0  0  0  0  0  0
   45.3380   33.9230   40.0700 C   0  0  0  0  0  2  0  0  0  0  0  0
   46.3470   33.0760   39.2770 C   0  0  0  0  0  2  0  0  0  0  0  0
   46.2940   33.3170   38.1980 H   0  0  0  0  0  0  0  0  0  0  0  0
  2  1  2  1  0  0  0
  2 19  1  0  0  0  0
  3  4  1  0  0  0  0
  3  2  1  0  0  0  0
  5  7  1  0  0  0  0
  5  2  1  0  0  0  0
  6 11  1  0  0  0  0
  6 14  1  0  0  0  0
  7  6  2  0  0  0  0
  8  7  1  0  0  0  0
  8  9  2  0  0  0  0
  9 10  1  0  0  0  0
 10 11  2  0  0  0  0
 10 16  1  0  0  0  0
 12 17  1  0  0  0  0
 12 14  1  0  0  0  0
 13 12  2  0  0  0  0
 14 18  1  0  0  0  0
 15  8  1  0  0  0  0
 20 26  1  6  0  0  0
 20 19  1  0  0  0  0
 20 21  1  0  0  0  0
 21 27  1  0  0  0  0
 21 28  1  0  0  0  0
 22 23  1  0  0  0  0
 22 21  1  0  0  0  0
 22 30  1  0  0  0  0
 24 23  1  0  0  0  0
 24 31  1  0  0  0  0
 25 33  1  1  0  0  0
 25 20  1  0  0  0  0
 25 24  1  0  0  0  0
 29 22  1  0  0  0  0
 32 24  1  0  0  0  0
 34 25  1  0  0  0  0
 35 34  1  0  0  0  0
 36 35  1  0  0  0  0
M  END
>  <minimizedAffinity>
-4.15630817

>  <minimizedRMSD>
0.468421876

$$$$
