
 OpenBabel03252505473D

 22 23  0  0  1  0  0  0  0  0999 V2000
   37.3850   28.2820   42.7500 C   0  0  1  0  0  0  0  0  0  0  0  0
   38.1630   27.0490   42.1890 C   0  0  1  0  0  0  0  0  0  0  0  0
   38.1270   27.4410   43.6350 C   0  0  0  0  0  0  0  0  0  0  0  0
   36.2760   28.1910   42.6520 H   0  0  0  0  0  0  0  0  0  0  0  0
   39.0370   27.2260   41.5720 H   0  0  0  0  0  0  0  0  0  0  0  0
   39.1220   27.8210   44.0080 H   0  0  0  0  0  0  0  0  0  0  0  0
   37.6560   26.7570   44.3460 H   0  0  0  0  0  0  0  0  0  0  0  0
   37.8890   29.5430   42.1870 C   0  0  0  0  0  0  0  0  0  0  0  0
   39.1270   30.0720   42.6860 C   0  0  0  0  0  0  0  0  0  0  0  0
   39.6480   31.2500   42.1770 C   0  0  0  0  0  0  0  0  0  0  0  0
   38.9250   31.8610   41.1940 N   0  0  0  0  0  0  0  0  0  0  0  0
   37.7510   31.3300   40.7450 C   0  0  0  0  0  0  0  0  0  0  0  0
   37.2500   30.2040   41.2280 N   0  0  0  0  0  0  0  0  0  0  0  0
   39.6850   29.5500   43.4810 H   0  0  0  0  0  0  0  0  0  0  0  0
   40.5800   31.6420   42.5580 H   0  0  0  0  0  0  0  0  0  0  0  0
   37.0470   32.0800   39.6700 C   0  0  0  0  0  2  0  0  0  0  0  0
   37.4730   33.5340   39.6400 C   0  0  0  0  0  2  0  0  0  0  0  0
   38.5630   33.6270   39.4990 H   0  0  0  0  0  0  0  0  0  0  0  0
   37.2670   25.8880   41.8240 C   0  0  0  0  0  0  0  0  0  0  0  0
   36.5430   26.1260   40.6760 F   0  0  0  0  0  0  0  0  0  0  0  0
   38.0800   24.7670   41.5880 F   0  0  0  0  0  0  0  0  0  0  0  0
   36.4510   25.5450   42.8790 F   0  0  0  0  0  0  0  0  0  0  0  0
  1  4  1  1  0  0  0
  1  3  1  0  0  0  0
  2  5  1  6  0  0  0
  2  1  1  0  0  0  0
  2  3  1  0  0  0  0
  3  6  1  0  0  0  0
  3  7  1  0  0  0  0
  8  9  1  0  0  0  0
  8  1  1  0  0  0  0
  9 14  1  0  0  0  0
 10 15  1  0  0  0  0
 10  9  2  0  0  0  0
 11 10  1  0  0  0  0
 12 11  2  0  0  0  0
 12 13  1  0  0  0  0
 13  8  2  0  0  0  0
 16 12  1  0  0  0  0
 17 16  1  0  0  0  0
 18 17  1  0  0  0  0
 19  2  1  0  0  0  0
 19 22  1  0  0  0  0
 20 19  1  0  0  0  0
 21 19  1  0  0  0  0
M  END
>  <minimizedAffinity>
-4.58594179

$$$$

 OpenBabel03252505473D

 22 23  0  0  1  0  0  0  0  0999 V2000
   38.1650   26.9320   43.2200 C   0  0  1  0  0  0  0  0  0  0  0  0
   39.1190   26.0330   42.3690 C   0  0  1  0  0  0  0  0  0  0  0  0
   39.5180   26.7310   43.6340 C   0  0  0  0  0  0  0  0  0  0  0  0
   37.3220   26.3680   43.6870 H   0  0  0  0  0  0  0  0  0  0  0  0
   39.4370   26.3920   41.3960 H   0  0  0  0  0  0  0  0  0  0  0  0
   40.2500   27.5710   43.4560 H   0  0  0  0  0  0  0  0  0  0  0  0
   39.7950   26.1210   44.4970 H   0  0  0  0  0  0  0  0  0  0  0  0
   37.6960   28.0980   42.4570 C   0  0  0  0  0  0  0  0  0  0  0  0
   38.4870   29.2960   42.4770 C   0  0  0  0  0  0  0  0  0  0  0  0
   38.0910   30.4150   41.7640 C   0  0  0  0  0  0  0  0  0  0  0  0
   36.9280   30.3080   41.0580 N   0  0  0  0  0  0  0  0  0  0  0  0
   36.2020   29.1540   41.0620 C   0  0  0  0  0  0  0  0  0  0  0  0
   36.5760   28.0810   41.7420 N   0  0  0  0  0  0  0  0  0  0  0  0
   39.4220   29.3460   43.0590 H   0  0  0  0  0  0  0  0  0  0  0  0
   38.6920   31.3140   41.7840 H   0  0  0  0  0  0  0  0  0  0  0  0
   34.9510   29.1490   40.2560 C   0  0  0  0  0  2  0  0  0  0  0  0
   35.2500   29.1710   38.7710 C   0  0  0  0  0  2  0  0  0  0  0  0
   35.8790   28.3120   38.4780 H   0  0  0  0  0  0  0  0  0  0  0  0
   38.8460   24.5550   42.5200 C   0  0  0  0  0  0  0  0  0  0  0  0
   37.4980   24.2750   42.5750 F   0  0  0  0  0  0  0  0  0  0  0  0
   39.3690   23.8980   41.3930 F   0  0  0  0  0  0  0  0  0  0  0  0
   39.5190   24.0370   43.6040 F   0  0  0  0  0  0  0  0  0  0  0  0
  1  3  1  0  0  0  0
  1  4  1  1  0  0  0
  2  5  1  6  0  0  0
  2 19  1  0  0  0  0
  2  1  1  0  0  0  0
  2  3  1  0  0  0  0
  3  7  1  0  0  0  0
  6  3  1  0  0  0  0
  8  9  1  0  0  0  0
  8  1  1  0  0  0  0
  9 14  1  0  0  0  0
 10 15  1  0  0  0  0
 10  9  2  0  0  0  0
 11 12  2  0  0  0  0
 11 10  1  0  0  0  0
 12 13  1  0  0  0  0
 13  8  2  0  0  0  0
 16 12  1  0  0  0  0
 17 16  1  0  0  0  0
 18 17  1  0  0  0  0
 19 20  1  0  0  0  0
 19 22  1  0  0  0  0
 21 19  1  0  0  0  0
M  END
>  <minimizedAffinity>
-4.4915719

$$$$

 OpenBabel03252505473D

 22 23  0  0  1  0  0  0  0  0999 V2000
   37.1060   25.3430   42.2280 C   0  0  1  0  0  0  0  0  0  0  0  0
   37.8150   24.7730   40.9570 C   0  0  1  0  0  0  0  0  0  0  0  0
   38.2310   24.4720   42.3650 C   0  0  0  0  0  0  0  0  0  0  0  0
   36.0610   24.9700   42.3580 H   0  0  0  0  0  0  0  0  0  0  0  0
   38.3790   25.4550   40.3300 H   0  0  0  0  0  0  0  0  0  0  0  0
   39.2230   24.9370   42.6360 H   0  0  0  0  0  0  0  0  0  0  0  0
   38.1500   23.4420   42.7200 H   0  0  0  0  0  0  0  0  0  0  0  0
   37.1810   26.8100   42.2790 C   0  0  0  0  0  0  0  0  0  0  0  0
   38.0350   27.4200   43.2590 C   0  0  0  0  0  0  0  0  0  0  0  0
   38.1470   28.7990   43.3360 C   0  0  0  0  0  0  0  0  0  0  0  0
   37.4120   29.5210   42.4420 N   0  0  0  0  0  0  0  0  0  0  0  0
   36.6120   28.9070   41.5240 C   0  0  0  0  0  0  0  0  0  0  0  0
   36.5010   27.5900   41.4460 N   0  0  0  0  0  0  0  0  0  0  0  0
   38.6140   26.8040   43.9660 H   0  0  0  0  0  0  0  0  0  0  0  0
   38.7910   29.2500   44.0780 H   0  0  0  0  0  0  0  0  0  0  0  0
   35.8570   29.7930   40.5980 C   0  0  0  0  0  2  0  0  0  0  0  0
   36.4660   31.1790   40.5380 C   0  0  0  0  0  2  0  0  0  0  0  0
   37.5240   31.1370   40.2250 H   0  0  0  0  0  0  0  0  0  0  0  0
   37.0370   23.6710   40.2770 C   0  0  0  0  0  0  0  0  0  0  0  0
   37.1970   23.6860   38.9080 F   0  0  0  0  0  0  0  0  0  0  0  0
   37.5230   22.4390   40.7460 F   0  0  0  0  0  0  0  0  0  0  0  0
   35.7080   23.7130   40.6350 F   0  0  0  0  0  0  0  0  0  0  0  0
  1  8  1  0  0  0  0
  1  4  1  1  0  0  0
  1  3  1  0  0  0  0
  2  5  1  6  0  0  0
  2  1  1  0  0  0  0
  2  3  1  0  0  0  0
  3  6  1  0  0  0  0
  3  7  1  0  0  0  0
  8  9  1  0  0  0  0
  9 10  2  0  0  0  0
  9 14  1  0  0  0  0
 10 15  1  0  0  0  0
 11 10  1  0  0  0  0
 12 11  2  0  0  0  0
 13 12  1  0  0  0  0
 13  8  2  0  0  0  0
 16 12  1  0  0  0  0
 17 16  1  0  0  0  0
 18 17  1  0  0  0  0
 19 22  1  0  0  0  0
 19 21  1  0  0  0  0
 19  2  1  0  0  0  0
 20 19  1  0  0  0  0
M  END
>  <minimizedAffinity>
-4.45775032

$$$$

 OpenBabel03252505473D

 22 23  0  0  1  0  0  0  0  0999 V2000
   36.5950   27.7900   42.4420 C   0  0  1  0  0  0  0  0  0  0  0  0
   37.7660   26.7630   42.3140 C   0  0  1  0  0  0  0  0  0  0  0  0
   37.2730   27.3260   43.6120 C   0  0  0  0  0  0  0  0  0  0  0  0
   35.6040   27.3730   42.1390 H   0  0  0  0  0  0  0  0  0  0  0  0
   38.6970   27.0940   41.8660 H   0  0  0  0  0  0  0  0  0  0  0  0
   38.0170   28.0220   44.0960 H   0  0  0  0  0  0  0  0  0  0  0  0
   36.8190   26.6430   44.3340 H   0  0  0  0  0  0  0  0  0  0  0  0
   36.9010   29.0510   41.7510 C   0  0  0  0  0  0  0  0  0  0  0  0
   35.9480   29.5680   40.8110 C   0  0  0  0  0  0  0  0  0  0  0  0
   36.1880   30.7590   40.1450 C   0  0  0  0  0  0  0  0  0  0  0  0
   37.3620   31.3930   40.4340 N   0  0  0  0  0  0  0  0  0  0  0  0
   38.2450   30.8710   41.3330 C   0  0  0  0  0  0  0  0  0  0  0  0
   38.0200   29.7340   41.9730 N   0  0  0  0  0  0  0  0  0  0  0  0
   35.0100   29.0280   40.6020 H   0  0  0  0  0  0  0  0  0  0  0  0
   35.4660   31.1420   39.4380 H   0  0  0  0  0  0  0  0  0  0  0  0
   39.4910   31.6470   41.5720 C   0  0  0  0  0  2  0  0  0  0  0  0
   40.3670   30.9800   42.6140 C   0  0  0  0  0  2  0  0  0  0  0  0
   40.6270   29.9490   42.3150 H   0  0  0  0  0  0  0  0  0  0  0  0
   37.3020   25.3560   42.0160 C   0  0  0  0  0  0  0  0  0  0  0  0
   36.2410   24.9750   42.8080 F   0  0  0  0  0  0  0  0  0  0  0  0
   36.8690   25.3130   40.6790 F   0  0  0  0  0  0  0  0  0  0  0  0
   38.3490   24.4640   42.1010 F   0  0  0  0  0  0  0  0  0  0  0  0
  1  4  1  6  0  0  0
  1  3  1  0  0  0  0
  2  5  1  6  0  0  0
  2  1  1  0  0  0  0
  2  3  1  0  0  0  0
  3  6  1  0  0  0  0
  3  7  1  0  0  0  0
  8 13  1  0  0  0  0
  8  1  1  0  0  0  0
  9  8  2  0  0  0  0
 10 11  2  0  0  0  0
 10  9  1  0  0  0  0
 11 12  1  0  0  0  0
 12 16  1  0  0  0  0
 12 13  2  0  0  0  0
 14  9  1  0  0  0  0
 15 10  1  0  0  0  0
 16 17  1  0  0  0  0
 18 17  1  0  0  0  0
 19 22  1  0  0  0  0
 19  2  1  0  0  0  0
 19 20  1  0  0  0  0
 21 19  1  0  0  0  0
M  END
>  <minimizedAffinity>
-4.40764952

$$$$

 OpenBabel03252505473D

 22 23  0  0  1  0  0  0  0  0999 V2000
   36.3570   27.8040   42.0110 C   0  0  1  0  0  0  0  0  0  0  0  0
   37.6270   26.8950   41.9870 C   0  0  1  0  0  0  0  0  0  0  0  0
   37.2070   27.7310   43.1580 C   0  0  0  0  0  0  0  0  0  0  0  0
   35.3990   27.2310   41.9580 H   0  0  0  0  0  0  0  0  0  0  0  0
   38.4570   27.1830   41.3500 H   0  0  0  0  0  0  0  0  0  0  0  0
   37.9050   28.5970   43.3480 H   0  0  0  0  0  0  0  0  0  0  0  0
   36.9220   27.2220   44.0810 H   0  0  0  0  0  0  0  0  0  0  0  0
   36.4270   28.8620   40.9930 C   0  0  0  0  0  0  0  0  0  0  0  0
   35.8470   28.6150   39.7040 C   0  0  0  0  0  0  0  0  0  0  0  0
   35.8790   29.5870   38.7170 C   0  0  0  0  0  0  0  0  0  0  0  0
   36.4830   30.7660   39.0420 N   0  0  0  0  0  0  0  0  0  0  0  0
   37.0240   30.9660   40.2780 C   0  0  0  0  0  0  0  0  0  0  0  0
   36.9960   30.0410   41.2250 N   0  0  0  0  0  0  0  0  0  0  0  0
   35.3670   27.6490   39.4770 H   0  0  0  0  0  0  0  0  0  0  0  0
   35.4400   29.3920   37.7480 H   0  0  0  0  0  0  0  0  0  0  0  0
   37.6570   32.2900   40.5240 C   0  0  0  0  0  2  0  0  0  0  0  0
   37.2560   33.2990   39.4670 C   0  0  0  0  0  2  0  0  0  0  0  0
   36.1600   33.4180   39.4240 H   0  0  0  0  0  0  0  0  0  0  0  0
   37.3160   25.4220   42.1140 C   0  0  0  0  0  0  0  0  0  0  0  0
   36.2540   25.1830   42.9590 F   0  0  0  0  0  0  0  0  0  0  0  0
   36.9620   24.9400   40.8420 F   0  0  0  0  0  0  0  0  0  0  0  0
   38.4350   24.7120   42.4880 F   0  0  0  0  0  0  0  0  0  0  0  0
  1  4  1  1  0  0  0
  1  3  1  0  0  0  0
  2  5  1  6  0  0  0
  2  1  1  0  0  0  0
  2 19  1  0  0  0  0
  2  3  1  0  0  0  0
  3  6  1  0  0  0  0
  3  7  1  0  0  0  0
  8 13  1  0  0  0  0
  8  1  1  0  0  0  0
  9  8  2  0  0  0  0
 10 11  2  0  0  0  0
 10  9  1  0  0  0  0
 11 12  1  0  0  0  0
 12 16  1  0  0  0  0
 12 13  2  0  0  0  0
 14  9  1  0  0  0  0
 15 10  1  0  0  0  0
 17 16  1  0  0  0  0
 18 17  1  0  0  0  0
 19 22  1  0  0  0  0
 19 20  1  0  0  0  0
 21 19  1  0  0  0  0
M  END
>  <minimizedAffinity>
-4.38159895

$$$$

 OpenBabel03252505473D

 22 23  0  0  1  0  0  0  0  0999 V2000
   38.3280   29.3520   42.9360 C   0  0  1  0  0  0  0  0  0  0  0  0
   38.1270   28.1050   42.0160 C   0  0  1  0  0  0  0  0  0  0  0  0
   38.8640   28.0840   43.3210 C   0  0  0  0  0  0  0  0  0  0  0  0
   37.3750   29.7390   43.3730 H   0  0  0  0  0  0  0  0  0  0  0  0
   38.6500   28.0740   41.0650 H   0  0  0  0  0  0  0  0  0  0  0  0
   39.9740   27.9240   43.1920 H   0  0  0  0  0  0  0  0  0  0  0  0
   38.4550   27.4850   44.1370 H   0  0  0  0  0  0  0  0  0  0  0  0
   39.0960   30.4070   42.2600 C   0  0  0  0  0  0  0  0  0  0  0  0
   40.5030   30.5100   42.5260 C   0  0  0  0  0  0  0  0  0  0  0  0
   41.2700   31.4800   41.9020 C   0  0  0  0  0  0  0  0  0  0  0  0
   40.6170   32.3120   41.0390 N   0  0  0  0  0  0  0  0  0  0  0  0
   39.2790   32.1840   40.8100 C   0  0  0  0  0  0  0  0  0  0  0  0
   38.5410   31.2580   41.4030 N   0  0  0  0  0  0  0  0  0  0  0  0
   40.9960   29.8200   43.2300 H   0  0  0  0  0  0  0  0  0  0  0  0
   42.3290   31.5520   42.1090 H   0  0  0  0  0  0  0  0  0  0  0  0
   38.6710   33.1430   39.8490 C   0  0  0  0  0  2  0  0  0  0  0  0
   37.2490   32.7530   39.5020 C   0  0  0  0  0  2  0  0  0  0  0  0
   36.6200   32.6920   40.4070 H   0  0  0  0  0  0  0  0  0  0  0  0
   36.7280   27.5370   42.0680 C   0  0  0  0  0  0  0  0  0  0  0  0
   36.3090   27.2960   43.3590 F   0  0  0  0  0  0  0  0  0  0  0  0
   35.8520   28.4830   41.5080 F   0  0  0  0  0  0  0  0  0  0  0  0
   36.6220   26.4130   41.2800 F   0  0  0  0  0  0  0  0  0  0  0  0
  1  3  1  0  0  0  0
  1  4  1  1  0  0  0
  2  5  1  6  0  0  0
  2 19  1  0  0  0  0
  2  1  1  0  0  0  0
  2  3  1  0  0  0  0
  3  7  1  0  0  0  0
  6  3  1  0  0  0  0
  8  9  1  0  0  0  0
  8  1  1  0  0  0  0
  9 14  1  0  0  0  0
 10 15  1  0  0  0  0
 10  9  2  0  0  0  0
 11 10  1  0  0  0  0
 12 11  2  0  0  0  0
 12 13  1  0  0  0  0
 13  8  2  0  0  0  0
 16 12  1  0  0  0  0
 17 16  1  0  0  0  0
 17 18  1  0  0  0  0
 19 20  1  0  0  0  0
 21 19  1  0  0  0  0
 22 19  1  0  0  0  0
M  END
>  <minimizedAffinity>
-4.36880875

$$$$

 OpenBabel03252505473D

 22 23  0  0  1  0  0  0  0  0999 V2000
   37.7820   28.3210   40.5990 C   0  0  1  0  0  0  0  0  0  0  0  0
   36.5750   28.1310   41.5730 C   0  0  1  0  0  0  0  0  0  0  0  0
   36.9700   27.1470   40.5130 C   0  0  0  0  0  0  0  0  0  0  0  0
   38.7740   28.3080   41.1130 H   0  0  0  0  0  0  0  0  0  0  0  0
   35.7100   28.7770   41.4570 H   0  0  0  0  0  0  0  0  0  0  0  0
   36.2220   27.0890   39.6720 H   0  0  0  0  0  0  0  0  0  0  0  0
   37.3150   26.1590   40.8270 H   0  0  0  0  0  0  0  0  0  0  0  0
   37.6120   29.5100   39.7500 C   0  0  0  0  0  0  0  0  0  0  0  0
   37.3950   29.3250   38.3440 C   0  0  0  0  0  0  0  0  0  0  0  0
   37.2180   30.4150   37.5070 C   0  0  0  0  0  0  0  0  0  0  0  0
   37.2620   31.6460   38.0940 N   0  0  0  0  0  0  0  0  0  0  0  0
   37.4700   31.7840   39.4340 C   0  0  0  0  0  0  0  0  0  0  0  0
   37.6400   30.7460   40.2380 N   0  0  0  0  0  0  0  0  0  0  0  0
   37.3660   28.3140   37.9050 H   0  0  0  0  0  0  0  0  0  0  0  0
   37.0560   30.2670   36.4490 H   0  0  0  0  0  0  0  0  0  0  0  0
   37.4980   33.1730   39.9660 C   0  0  0  0  0  2  0  0  0  0  0  0
   38.9040   33.5910   40.3500 C   0  0  0  0  0  2  0  0  0  0  0  0
   39.5910   33.5130   39.4900 H   0  0  0  0  0  0  0  0  0  0  0  0
   36.9880   27.7530   42.9760 C   0  0  0  0  0  0  0  0  0  0  0  0
   37.5520   28.8090   43.6580 F   0  0  0  0  0  0  0  0  0  0  0  0
   35.8360   27.3620   43.6790 F   0  0  0  0  0  0  0  0  0  0  0  0
   37.8150   26.6520   42.9660 F   0  0  0  0  0  0  0  0  0  0  0  0
  1  4  1  1  0  0  0
  1  2  1  0  0  0  0
  2  5  1  6  0  0  0
  2 19  1  0  0  0  0
  3  1  1  0  0  0  0
  3  7  1  0  0  0  0
  3  2  1  0  0  0  0
  6  3  1  0  0  0  0
  8 13  1  0  0  0  0
  8  1  1  0  0  0  0
  9  8  2  0  0  0  0
 10 11  2  0  0  0  0
 10  9  1  0  0  0  0
 11 12  1  0  0  0  0
 12 16  1  0  0  0  0
 12 13  2  0  0  0  0
 14  9  1  0  0  0  0
 15 10  1  0  0  0  0
 16 17  1  0  0  0  0
 18 17  1  0  0  0  0
 19 20  1  0  0  0  0
 19 21  1  0  0  0  0
 22 19  1  0  0  0  0
M  END
>  <minimizedAffinity>
-4.35096025

$$$$

 OpenBabel03252505473D

 22 23  0  0  1  0  0  0  0  0999 V2000
   36.5650   28.9020   41.8000 C   0  0  1  0  0  0  0  0  0  0  0  0
   36.8960   29.3870   40.3510 C   0  0  1  0  0  0  0  0  0  0  0  0
   35.5810   28.7990   40.7680 C   0  0  0  0  0  0  0  0  0  0  0  0
   36.5390   29.7300   42.5500 H   0  0  0  0  0  0  0  0  0  0  0  0
   37.6140   28.8200   39.7680 H   0  0  0  0  0  0  0  0  0  0  0  0
   35.3980   27.7800   40.3190 H   0  0  0  0  0  0  0  0  0  0  0  0
   34.6930   29.4340   40.7230 H   0  0  0  0  0  0  0  0  0  0  0  0
   37.4460   27.8020   42.2180 C   0  0  0  0  0  0  0  0  0  0  0  0
   38.5920   28.1100   43.0260 C   0  0  0  0  0  0  0  0  0  0  0  0
   39.4440   27.1040   43.4540 C   0  0  0  0  0  0  0  0  0  0  0  0
   39.1310   25.8340   43.0670 N   0  0  0  0  0  0  0  0  0  0  0  0
   38.0330   25.5790   42.2980 C   0  0  0  0  0  0  0  0  0  0  0  0
   37.2160   26.5360   41.8860 N   0  0  0  0  0  0  0  0  0  0  0  0
   38.8140   29.1480   43.3200 H   0  0  0  0  0  0  0  0  0  0  0  0
   40.3050   27.3440   44.0620 H   0  0  0  0  0  0  0  0  0  0  0  0
   37.7870   24.1570   41.9360 C   0  0  0  0  0  2  0  0  0  0  0  0
   36.6090   24.0230   40.9920 C   0  0  0  0  0  2  0  0  0  0  0  0
   36.7650   24.6150   40.0730 H   0  0  0  0  0  0  0  0  0  0  0  0
   36.9010   30.8910   40.2060 C   0  0  0  0  0  0  0  0  0  0  0  0
   36.1070   31.5100   41.1470 F   0  0  0  0  0  0  0  0  0  0  0  0
   38.2180   31.3430   40.4000 F   0  0  0  0  0  0  0  0  0  0  0  0
   36.5600   31.2640   38.9250 F   0  0  0  0  0  0  0  0  0  0  0  0
  1  8  1  0  0  0  0
  1  4  1  1  0  0  0
  2  5  1  6  0  0  0
  2  3  1  0  0  0  0
  2  1  1  0  0  0  0
  3  1  1  0  0  0  0
  6  3  1  0  0  0  0
  7  3  1  0  0  0  0
  8  9  1  0  0  0  0
  9 14  1  0  0  0  0
  9 10  2  0  0  0  0
 10 15  1  0  0  0  0
 11 10  1  0  0  0  0
 12 11  2  0  0  0  0
 13  8  2  0  0  0  0
 13 12  1  0  0  0  0
 16 12  1  0  0  0  0
 17 16  1  0  0  0  0
 18 17  1  0  0  0  0
 19  2  1  0  0  0  0
 19 21  1  0  0  0  0
 19 20  1  0  0  0  0
 22 19  1  0  0  0  0
M  END
>  <minimizedAffinity>
-4.3486352

$$$$

 OpenBabel03252505473D

 22 23  0  0  1  0  0  0  0  0999 V2000
   36.7800   30.6330   41.0080 C   0  0  1  0  0  0  0  0  0  0  0  0
   37.8320   31.1120   39.9570 C   0  0  1  0  0  0  0  0  0  0  0  0
   36.3980   30.8120   39.6420 C   0  0  0  0  0  0  0  0  0  0  0  0
   36.5460   31.4020   41.7840 H   0  0  0  0  0  0  0  0  0  0  0  0
   38.6310   30.4320   39.6780 H   0  0  0  0  0  0  0  0  0  0  0  0
   36.2750   29.8870   39.0070 H   0  0  0  0  0  0  0  0  0  0  0  0
   35.7610   31.6310   39.3020 H   0  0  0  0  0  0  0  0  0  0  0  0
   37.1550   29.3420   41.6020 C   0  0  0  0  0  0  0  0  0  0  0  0
   37.8200   29.3380   42.8740 C   0  0  0  0  0  0  0  0  0  0  0  0
   38.1820   28.1440   43.4770 C   0  0  0  0  0  0  0  0  0  0  0  0
   37.8730   27.0010   42.8000 N   0  0  0  0  0  0  0  0  0  0  0  0
   37.2400   27.0430   41.5930 C   0  0  0  0  0  0  0  0  0  0  0  0
   36.8920   28.1800   41.0110 N   0  0  0  0  0  0  0  0  0  0  0  0
   38.0540   30.2820   43.3920 H   0  0  0  0  0  0  0  0  0  0  0  0
   38.6830   28.1500   44.4350 H   0  0  0  0  0  0  0  0  0  0  0  0
   36.9510   25.7350   40.9440 C   0  0  0  0  0  2  0  0  0  0  0  0
   37.0150   24.5970   41.9430 C   0  0  0  0  0  2  0  0  0  0  0  0
   36.3090   24.7580   42.7760 H   0  0  0  0  0  0  0  0  0  0  0  0
   38.1650   32.5820   40.0640 C   0  0  0  0  0  0  0  0  0  0  0  0
   39.0280   32.9980   39.0740 F   0  0  0  0  0  0  0  0  0  0  0  0
   36.9710   33.3100   39.9190 F   0  0  0  0  0  0  0  0  0  0  0  0
   38.6420   32.8890   41.3190 F   0  0  0  0  0  0  0  0  0  0  0  0
  1  8  1  0  0  0  0
  1  4  1  1  0  0  0
  2  5  1  6  0  0  0
  2 19  1  0  0  0  0
  2  1  1  0  0  0  0
  3  2  1  0  0  0  0
  3  1  1  0  0  0  0
  6  3  1  0  0  0  0
  7  3  1  0  0  0  0
  8  9  1  0  0  0  0
  9 14  1  0  0  0  0
  9 10  2  0  0  0  0
 10 15  1  0  0  0  0
 11 10  1  0  0  0  0
 12 11  2  0  0  0  0
 13 12  1  0  0  0  0
 13  8  2  0  0  0  0
 16 12  1  0  0  0  0
 16 17  1  0  0  0  0
 17 18  1  0  0  0  0
 19 22  1  0  0  0  0
 20 19  1  0  0  0  0
 21 19  1  0  0  0  0
M  END
>  <minimizedAffinity>
-4.32608318

$$$$
