
 OpenBabel03242522263D

 36 38  0  0  1  0  0  0  0  0999 V2000
   38.4570   32.7350   40.6760 C   0  0  0  0  0  0  0  0  0  0  0  0
   37.7000   32.1180   39.6650 C   0  0  0  0  0  0  0  0  0  0  0  0
   37.5560   30.7280   39.6080 C   0  0  0  0  0  0  0  0  0  0  0  0
   38.1830   30.0010   40.5770 N   0  0  0  0  0  0  0  0  0  0  0  0
   38.9000   30.6060   41.5310 C   0  0  0  0  0  0  0  0  0  0  0  0
   39.0390   31.9380   41.5890 N   0  0  0  0  0  0  0  0  0  0  0  0
   38.5730   33.7920   40.7290 H   0  0  0  0  0  0  0  0  0  0  0  0
   37.2140   32.7370   38.9070 H   0  0  0  0  0  0  0  0  0  0  0  0
   39.5490   29.7160   42.5390 C   0  0  2  0  0  0  0  0  0  0  0  0
   40.9390   29.3040   42.0980 C   0  0  0  0  0  0  0  0  0  0  0  0
   40.8020   27.9820   41.3570 C   0  0  0  0  0  0  0  0  0  0  0  0
   40.4090   26.9450   42.1640 O   0  0  0  0  0  0  0  0  0  0  0  0
   39.4580   27.2780   43.1030 C   0  0  0  0  0  0  0  0  0  0  0  0
   38.6700   28.4810   42.6200 C   0  0  1  0  0  0  0  0  0  0  0  0
   39.6300   30.2240   43.5100 H   0  0  0  0  0  0  0  0  0  0  0  0
   41.6200   29.1730   42.9540 H   0  0  0  0  0  0  0  0  0  0  0  0
   41.3380   30.0460   41.3920 H   0  0  0  0  0  0  0  0  0  0  0  0
   41.7450   27.6890   40.8670 H   0  0  0  0  0  0  0  0  0  0  0  0
   40.0700   28.1420   40.5180 H   0  0  0  0  0  0  0  0  0  0  0  0
   39.9680   27.6110   44.0370 H   0  0  0  0  0  0  0  0  0  0  0  0
   38.7640   26.4790   43.3530 H   0  0  0  0  0  0  0  0  0  0  0  0
   38.2200   28.2280   41.6430 H   0  0  0  0  0  0  0  0  0  0  0  0
   37.5460   28.7230   43.6150 C   0  0  0  0  0  2  0  0  0  0  0  0
   36.5750   27.5890   43.6780 C   0  0  0  0  0  2  0  0  0  0  0  0
   36.6770   26.9080   42.7810 H   0  0  0  0  0  0  0  0  0  0  0  0
   35.2190   29.2910   40.6770 Cl  0  0  0  0  0  0  0  0  0  0  0  0
   35.6360   29.3740   38.9640 C   0  0  0  0  0  0  0  0  0  0  0  0
   36.7670   30.0810   38.5590 C   0  0  0  0  0  0  0  0  0  0  0  0
   37.0550   30.1200   37.2240 C   0  0  0  0  0  0  0  0  0  0  0  0
   36.2440   29.4740   36.3000 C   0  0  0  0  0  0  0  0  0  0  0  0
   35.1290   28.7840   36.7670 C   0  0  0  0  0  0  0  0  0  0  0  0
   34.1150   27.9720   35.5810 Cl  0  0  0  0  0  0  0  0  0  0  0  0
   34.8050   28.7180   38.0890 C   0  0  0  0  0  0  0  0  0  0  0  0
   37.9310   30.6700   36.9250 H   0  0  0  0  0  0  0  0  0  0  0  0
   36.4660   29.5000   35.2460 H   0  0  0  0  0  0  0  0  0  0  0  0
   33.9390   28.1830   38.4540 H   0  0  0  0  0  0  0  0  0  0  0  0
  1  7  1  0  0  0  0
  1  6  1  0  0  0  0
  2  1  2  0  0  0  0
  3  2  1  0  0  0  0
  3  4  2  0  0  0  0
  4  5  1  0  0  0  0
  5  6  2  0  0  0  0
  5  9  1  0  0  0  0
  8  2  1  0  0  0  0
  9 14  1  0  0  0  0
  9 15  1  1  0  0  0
 10  9  1  0  0  0  0
 10 16  1  0  0  0  0
 11 10  1  0  0  0  0
 11 12  1  0  0  0  0
 12 13  1  0  0  0  0
 13 21  1  0  0  0  0
 13 20  1  0  0  0  0
 14 22  1  6  0  0  0
 14 13  1  0  0  0  0
 14 23  1  0  0  0  0
 17 10  1  0  0  0  0
 18 11  1  0  0  0  0
 19 11  1  0  0  0  0
 23 24  1  0  0  0  0
 25 24  1  0  0  0  0
 27 26  1  0  0  0  0
 28 27  1  0  0  0  0
 28  3  1  0  0  0  0
 29 28  2  0  0  0  0
 30 31  2  0  0  0  0
 30 29  1  0  0  0  0
 31 33  1  0  0  0  0
 32 31  1  0  0  0  0
 33 36  1  0  0  0  0
 33 27  2  0  0  0  0
 34 29  1  0  0  0  0
 35 30  1  0  0  0  0
M  END
>  <minimizedAffinity>
-5.5908761

$$$$

 OpenBabel03242522263D

 36 38  0  0  1  0  0  0  0  0999 V2000
   35.1780   29.6780   40.0930 C   0  0  0  0  0  0  0  0  0  0  0  0
   36.1690   30.6220   39.7750 C   0  0  0  0  0  0  0  0  0  0  0  0
   37.4410   30.5660   40.3510 C   0  0  0  0  0  0  0  0  0  0  0  0
   37.6760   29.5540   41.2350 N   0  0  0  0  0  0  0  0  0  0  0  0
   36.7210   28.6640   41.5260 C   0  0  0  0  0  0  0  0  0  0  0  0
   35.5000   28.7150   40.9750 N   0  0  0  0  0  0  0  0  0  0  0  0
   34.2060   29.7120   39.6610 H   0  0  0  0  0  0  0  0  0  0  0  0
   35.9390   31.4190   39.0620 H   0  0  0  0  0  0  0  0  0  0  0  0
   37.0810   27.6000   42.5100 C   0  0  2  0  0  0  0  0  0  0  0  0
   37.9250   28.1550   43.6390 C   0  0  0  0  0  0  0  0  0  0  0  0
   39.3830   27.9670   43.2460 C   0  0  0  0  0  0  0  0  0  0  0  0
   39.7640   26.6500   43.1890 O   0  0  0  0  0  0  0  0  0  0  0  0
   38.8190   25.8040   42.6530 C   0  0  0  0  0  0  0  0  0  0  0  0
   37.9020   26.5870   41.7330 C   0  0  1  0  0  0  0  0  0  0  0  0
   36.1780   27.1480   42.9420 H   0  0  0  0  0  0  0  0  0  0  0  0
   37.7330   27.6340   44.5910 H   0  0  0  0  0  0  0  0  0  0  0  0
   37.7420   29.2340   43.7420 H   0  0  0  0  0  0  0  0  0  0  0  0
   40.0640   28.4840   43.9430 H   0  0  0  0  0  0  0  0  0  0  0  0
   39.5320   28.4750   42.2550 H   0  0  0  0  0  0  0  0  0  0  0  0
   38.1660   25.4200   43.4700 H   0  0  0  0  0  0  0  0  0  0  0  0
   39.2250   24.9540   42.1070 H   0  0  0  0  0  0  0  0  0  0  0  0
   38.5220   27.0660   40.9540 H   0  0  0  0  0  0  0  0  0  0  0  0
   36.9710   25.5930   41.0570 C   0  0  0  0  0  2  0  0  0  0  0  0
   37.0080   24.2400   41.6930 C   0  0  0  0  0  2  0  0  0  0  0  0
   37.9200   24.1190   42.3510 H   0  0  0  0  0  0  0  0  0  0  0  0
   39.1110   29.7220   38.0770 Cl  0  0  0  0  0  0  0  0  0  0  0  0
   39.3220   31.2390   38.9550 C   0  0  0  0  0  0  0  0  0  0  0  0
   38.4780   31.5460   40.0210 C   0  0  0  0  0  0  0  0  0  0  0  0
   38.6750   32.7300   40.6750 C   0  0  0  0  0  0  0  0  0  0  0  0
   39.6870   33.5980   40.2880 C   0  0  0  0  0  0  0  0  0  0  0  0
   40.4970   33.2340   39.2160 C   0  0  0  0  0  0  0  0  0  0  0  0
   41.7730   34.3490   38.7410 Cl  0  0  0  0  0  0  0  0  0  0  0  0
   40.3360   32.0640   38.5360 C   0  0  0  0  0  0  0  0  0  0  0  0
   38.0150   32.9540   41.4960 H   0  0  0  0  0  0  0  0  0  0  0  0
   39.8480   34.5320   40.8000 H   0  0  0  0  0  0  0  0  0  0  0  0
   40.9640   31.7800   37.7040 H   0  0  0  0  0  0  0  0  0  0  0  0
  1  6  1  0  0  0  0
  2  1  2  0  0  0  0
  2  3  1  0  0  0  0
  3  4  2  0  0  0  0
  4  5  1  0  0  0  0
  5  9  1  0  0  0  0
  6  5  2  0  0  0  0
  7  1  1  0  0  0  0
  8  2  1  0  0  0  0
  9 15  1  1  0  0  0
  9 10  1  0  0  0  0
 10 17  1  0  0  0  0
 10 16  1  0  0  0  0
 11 10  1  0  0  0  0
 11 18  1  0  0  0  0
 12 11  1  0  0  0  0
 13 12  1  0  0  0  0
 13 20  1  0  0  0  0
 14 22  1  6  0  0  0
 14  9  1  0  0  0  0
 14 13  1  0  0  0  0
 19 11  1  0  0  0  0
 21 13  1  0  0  0  0
 23 24  1  0  0  0  0
 23 14  1  0  0  0  0
 24 25  1  0  0  0  0
 26 27  1  0  0  0  0
 27 28  1  0  0  0  0
 28  3  1  0  0  0  0
 28 29  2  0  0  0  0
 29 34  1  0  0  0  0
 30 29  1  0  0  0  0
 30 35  1  0  0  0  0
 31 30  2  0  0  0  0
 32 31  1  0  0  0  0
 33 27  2  0  0  0  0
 33 31  1  0  0  0  0
 36 33  1  0  0  0  0
M  END
>  <minimizedAffinity>
-5.54257917

$$$$

 OpenBabel03242522263D

 36 38  0  0  1  0  0  0  0  0999 V2000
   36.6070   27.1650   43.3190 C   0  0  0  0  0  0  0  0  0  0  0  0
   36.9010   28.4870   42.9430 C   0  0  0  0  0  0  0  0  0  0  0  0
   37.5220   28.7770   41.7250 C   0  0  0  0  0  0  0  0  0  0  0  0
   37.8290   27.7200   40.9180 N   0  0  0  0  0  0  0  0  0  0  0  0
   37.5420   26.4690   41.2930 C   0  0  0  0  0  0  0  0  0  0  0  0
   36.9460   26.1870   42.4610 N   0  0  0  0  0  0  0  0  0  0  0  0
   36.1360   26.9330   44.2450 H   0  0  0  0  0  0  0  0  0  0  0  0
   36.6400   29.3060   43.6180 H   0  0  0  0  0  0  0  0  0  0  0  0
   37.9250   25.3850   40.3390 C   0  0  2  0  0  0  0  0  0  0  0  0
   36.7290   24.9020   39.5450 C   0  0  0  0  0  0  0  0  0  0  0  0
   36.1380   23.7180   40.2960 C   0  0  0  0  0  0  0  0  0  0  0  0
   36.9630   22.6220   40.3180 O   0  0  0  0  0  0  0  0  0  0  0  0
   38.2980   22.9140   40.4870 C   0  0  0  0  0  0  0  0  0  0  0  0
   38.4390   24.2460   41.2000 C   0  0  1  0  0  0  0  0  0  0  0  0
   38.6890   25.7410   39.6340 H   0  0  0  0  0  0  0  0  0  0  0  0
   37.0110   24.5850   38.5280 H   0  0  0  0  0  0  0  0  0  0  0  0
   35.9650   25.6920   39.5080 H   0  0  0  0  0  0  0  0  0  0  0  0
   35.1720   23.4030   39.8680 H   0  0  0  0  0  0  0  0  0  0  0  0
   35.9000   24.0670   41.3380 H   0  0  0  0  0  0  0  0  0  0  0  0
   38.7700   23.0590   39.4880 H   0  0  0  0  0  0  0  0  0  0  0  0
   38.8640   22.1610   41.0310 H   0  0  0  0  0  0  0  0  0  0  0  0
   37.9010   24.1790   42.1630 H   0  0  0  0  0  0  0  0  0  0  0  0
   39.9150   24.4570   41.4920 C   0  0  0  0  0  2  0  0  0  0  0  0
   40.1970   24.6410   42.9480 C   0  0  0  0  0  2  0  0  0  0  0  0
   39.2550   24.8870   43.5230 H   0  0  0  0  0  0  0  0  0  0  0  0
   40.2200   29.6210   42.5520 Cl  0  0  0  0  0  0  0  0  0  0  0  0
   39.0850   30.6470   41.6720 C   0  0  0  0  0  0  0  0  0  0  0  0
   37.8280   30.1530   41.3270 C   0  0  0  0  0  0  0  0  0  0  0  0
   36.9780   30.9790   40.6460 C   0  0  0  0  0  0  0  0  0  0  0  0
   37.3580   32.2720   40.3100 C   0  0  0  0  0  0  0  0  0  0  0  0
   38.6260   32.7070   40.6840 C   0  0  0  0  0  0  0  0  0  0  0  0
   39.0880   34.3490   40.2490 Cl  0  0  0  0  0  0  0  0  0  0  0  0
   39.5050   31.9180   41.3630 C   0  0  0  0  0  0  0  0  0  0  0  0
   36.0110   30.5840   40.3850 H   0  0  0  0  0  0  0  0  0  0  0  0
   36.6930   32.9280   39.7750 H   0  0  0  0  0  0  0  0  0  0  0  0
   40.4900   32.2540   41.6540 H   0  0  0  0  0  0  0  0  0  0  0  0
  1  7  1  0  0  0  0
  2  1  1  0  0  0  0
  2  8  1  0  0  0  0
  3  2  2  0  0  0  0
  4  5  2  0  0  0  0
  4  3  1  0  0  0  0
  5  6  1  0  0  0  0
  6  1  2  0  0  0  0
  9 15  1  6  0  0  0
  9 14  1  0  0  0  0
  9  5  1  0  0  0  0
 10 11  1  0  0  0  0
 10  9  1  0  0  0  0
 11 12  1  0  0  0  0
 11 19  1  0  0  0  0
 12 13  1  0  0  0  0
 13 21  1  0  0  0  0
 13 14  1  0  0  0  0
 14 23  1  0  0  0  0
 14 22  1  1  0  0  0
 16 10  1  0  0  0  0
 17 10  1  0  0  0  0
 18 11  1  0  0  0  0
 20 13  1  0  0  0  0
 23 24  1  0  0  0  0
 24 25  1  0  0  0  0
 27 26  1  0  0  0  0
 28 27  2  0  0  0  0
 28  3  1  0  0  0  0
 29 28  1  0  0  0  0
 30 29  2  0  0  0  0
 30 31  1  0  0  0  0
 31 33  2  0  0  0  0
 32 31  1  0  0  0  0
 33 36  1  0  0  0  0
 33 27  1  0  0  0  0
 34 29  1  0  0  0  0
 35 30  1  0  0  0  0
M  END
>  <minimizedAffinity>
-5.42869902

$$$$

 OpenBabel03242522263D

 36 38  0  0  1  0  0  0  0  0999 V2000
   38.2620   29.1700   43.3070 C   0  0  0  0  0  0  0  0  0  0  0  0
   38.1380   27.8110   42.9740 C   0  0  0  0  0  0  0  0  0  0  0  0
   38.1250   27.3850   41.6420 C   0  0  0  0  0  0  0  0  0  0  0  0
   38.2390   28.3480   40.6830 N   0  0  0  0  0  0  0  0  0  0  0  0
   38.3550   29.6370   41.0190 C   0  0  0  0  0  0  0  0  0  0  0  0
   38.3680   30.0490   42.2950 N   0  0  0  0  0  0  0  0  0  0  0  0
   38.2720   29.5060   44.3170 H   0  0  0  0  0  0  0  0  0  0  0  0
   38.0490   27.0700   43.7730 H   0  0  0  0  0  0  0  0  0  0  0  0
   38.4680   30.6100   39.8910 C   0  0  2  0  0  0  0  0  0  0  0  0
   39.4920   31.6860   40.1910 C   0  0  0  0  0  0  0  0  0  0  0  0
   38.7470   32.8530   40.8220 C   0  0  0  0  0  0  0  0  0  0  0  0
   37.8820   33.4760   39.9580 O   0  0  0  0  0  0  0  0  0  0  0  0
   37.1920   32.6240   39.1250 C   0  0  0  0  0  0  0  0  0  0  0  0
   37.0980   31.2530   39.7680 C   0  0  1  0  0  0  0  0  0  0  0  0
   38.7640   30.0990   38.9650 H   0  0  0  0  0  0  0  0  0  0  0  0
   40.0050   32.0310   39.2790 H   0  0  0  0  0  0  0  0  0  0  0  0
   40.2170   31.3120   40.9280 H   0  0  0  0  0  0  0  0  0  0  0  0
   39.4400   33.6160   41.2130 H   0  0  0  0  0  0  0  0  0  0  0  0
   38.2040   32.4570   41.7230 H   0  0  0  0  0  0  0  0  0  0  0  0
   37.7780   32.4740   38.1890 H   0  0  0  0  0  0  0  0  0  0  0  0
   36.1920   32.9570   38.8580 H   0  0  0  0  0  0  0  0  0  0  0  0
   36.6040   31.3660   40.7500 H   0  0  0  0  0  0  0  0  0  0  0  0
   36.2110   30.3910   38.8840 C   0  0  0  0  0  2  0  0  0  0  0  0
   36.8150   30.1250   37.5430 C   0  0  0  0  0  2  0  0  0  0  0  0
   37.6600   30.8430   37.3210 H   0  0  0  0  0  0  0  0  0  0  0  0
   40.7240   26.1320   41.0510 Cl  0  0  0  0  0  0  0  0  0  0  0  0
   39.1770   25.2840   40.9930 C   0  0  0  0  0  0  0  0  0  0  0  0
   38.0000   25.9690   41.2900 C   0  0  0  0  0  0  0  0  0  0  0  0
   36.8230   25.2770   41.2330 C   0  0  0  0  0  0  0  0  0  0  0  0
   36.8030   23.9320   40.8900 C   0  0  0  0  0  0  0  0  0  0  0  0
   38.0120   23.3040   40.6040 C   0  0  0  0  0  0  0  0  0  0  0  0
   37.9650   21.5990   40.1700 Cl  0  0  0  0  0  0  0  0  0  0  0  0
   39.2080   23.9550   40.6480 C   0  0  0  0  0  0  0  0  0  0  0  0
   35.9220   25.8180   41.4650 H   0  0  0  0  0  0  0  0  0  0  0  0
   35.8780   23.3810   40.8420 H   0  0  0  0  0  0  0  0  0  0  0  0
   40.1480   23.4700   40.4260 H   0  0  0  0  0  0  0  0  0  0  0  0
  1  7  1  0  0  0  0
  2  1  1  0  0  0  0
  2  8  1  0  0  0  0
  3  2  2  0  0  0  0
  4  5  2  0  0  0  0
  4  3  1  0  0  0  0
  5  6  1  0  0  0  0
  6  1  2  0  0  0  0
  9 15  1  6  0  0  0
  9 10  1  0  0  0  0
  9  5  1  0  0  0  0
 10 11  1  0  0  0  0
 10 17  1  0  0  0  0
 11 18  1  0  0  0  0
 11 19  1  0  0  0  0
 12 11  1  0  0  0  0
 13 14  1  0  0  0  0
 13 12  1  0  0  0  0
 14  9  1  0  0  0  0
 14 22  1  1  0  0  0
 16 10  1  0  0  0  0
 20 13  1  0  0  0  0
 21 13  1  0  0  0  0
 23 14  1  0  0  0  0
 24 23  1  0  0  0  0
 25 24  1  0  0  0  0
 27 26  1  0  0  0  0
 27 28  1  0  0  0  0
 28  3  1  0  0  0  0
 29 28  2  0  0  0  0
 29 34  1  0  0  0  0
 30 29  1  0  0  0  0
 31 33  1  0  0  0  0
 31 30  2  0  0  0  0
 32 31  1  0  0  0  0
 33 27  2  0  0  0  0
 35 30  1  0  0  0  0
 36 33  1  0  0  0  0
M  END
>  <minimizedAffinity>
-5.37894917

$$$$

 OpenBabel03242522263D

 36 38  0  0  1  0  0  0  0  0999 V2000
   35.7770   26.6740   38.1800 C   0  0  0  0  0  0  0  0  0  0  0  0
   34.7840   27.2680   37.3830 C   0  0  0  0  0  0  0  0  0  0  0  0
   34.1630   28.4630   37.7620 C   0  0  0  0  0  0  0  0  0  0  0  0
   34.5660   29.0230   38.9390 N   0  0  0  0  0  0  0  0  0  0  0  0
   35.5130   28.4420   39.6850 C   0  0  0  0  0  0  0  0  0  0  0  0
   36.1100   27.2980   39.3240 N   0  0  0  0  0  0  0  0  0  0  0  0
   36.2550   25.7650   37.9010 H   0  0  0  0  0  0  0  0  0  0  0  0
   34.4900   26.7870   36.4470 H   0  0  0  0  0  0  0  0  0  0  0  0
   35.8750   29.1360   40.9570 C   0  0  2  0  0  0  0  0  0  0  0  0
   36.1320   30.6120   40.7270 C   0  0  0  0  0  0  0  0  0  0  0  0
   37.6250   30.7750   40.4790 C   0  0  0  0  0  0  0  0  0  0  0  0
   38.3910   30.4920   41.5810 O   0  0  0  0  0  0  0  0  0  0  0  0
   37.9570   29.4130   42.3180 C   0  0  0  0  0  0  0  0  0  0  0  0
   37.1590   28.4790   41.4280 C   0  0  1  0  0  0  0  0  0  0  0  0
   35.0690   29.0360   41.6970 H   0  0  0  0  0  0  0  0  0  0  0  0
   35.8370   31.2210   41.5960 H   0  0  0  0  0  0  0  0  0  0  0  0
   35.6030   30.9420   39.8210 H   0  0  0  0  0  0  0  0  0  0  0  0
   37.8740   31.7970   40.1490 H   0  0  0  0  0  0  0  0  0  0  0  0
   37.8960   30.1100   39.6150 H   0  0  0  0  0  0  0  0  0  0  0  0
   37.2420   29.7670   43.0970 H   0  0  0  0  0  0  0  0  0  0  0  0
   38.7480   28.8460   42.8060 H   0  0  0  0  0  0  0  0  0  0  0  0
   37.8030   28.1740   40.5840 H   0  0  0  0  0  0  0  0  0  0  0  0
   36.8250   27.2410   42.2450 C   0  0  0  0  0  2  0  0  0  0  0  0
   36.5170   27.5560   43.6730 C   0  0  0  0  0  2  0  0  0  0  0  0
   36.8750   28.5910   43.9540 H   0  0  0  0  0  0  0  0  0  0  0  0
   35.0920   29.0150   35.0230 Cl  0  0  0  0  0  0  0  0  0  0  0  0
   33.4720   29.3890   35.6160 C   0  0  0  0  0  0  0  0  0  0  0  0
   33.1310   29.0880   36.9340 C   0  0  0  0  0  0  0  0  0  0  0  0
   31.8670   29.3930   37.3550 C   0  0  0  0  0  0  0  0  0  0  0  0
   30.9530   29.9860   36.4940 C   0  0  0  0  0  0  0  0  0  0  0  0
   31.3540   30.2620   35.1910 C   0  0  0  0  0  0  0  0  0  0  0  0
   30.1810   31.0140   34.1160 Cl  0  0  0  0  0  0  0  0  0  0  0  0
   32.6040   29.9750   34.7290 C   0  0  0  0  0  0  0  0  0  0  0  0
   31.6170   29.1550   38.3750 H   0  0  0  0  0  0  0  0  0  0  0  0
   29.9550   30.2310   36.8210 H   0  0  0  0  0  0  0  0  0  0  0  0
   32.9170   30.1890   33.7170 H   0  0  0  0  0  0  0  0  0  0  0  0
  1  6  1  0  0  0  0
  2  3  1  0  0  0  0
  2  1  2  0  0  0  0
  3  4  2  0  0  0  0
  4  5  1  0  0  0  0
  5  9  1  0  0  0  0
  6  5  2  0  0  0  0
  7  1  1  0  0  0  0
  8  2  1  0  0  0  0
  9 14  1  0  0  0  0
  9 15  1  1  0  0  0
 10  9  1  0  0  0  0
 10 16  1  0  0  0  0
 11 10  1  0  0  0  0
 11 12  1  0  0  0  0
 12 13  1  0  0  0  0
 13 21  1  0  0  0  0
 13 20  1  0  0  0  0
 14 22  1  6  0  0  0
 14 23  1  0  0  0  0
 14 13  1  0  0  0  0
 17 10  1  0  0  0  0
 18 11  1  0  0  0  0
 19 11  1  0  0  0  0
 23 24  1  0  0  0  0
 24 25  1  0  0  0  0
 26 27  1  0  0  0  0
 27 28  1  0  0  0  0
 28 29  2  0  0  0  0
 28  3  1  0  0  0  0
 29 34  1  0  0  0  0
 30 35  1  0  0  0  0
 30 29  1  0  0  0  0
 31 30  2  0  0  0  0
 32 31  1  0  0  0  0
 33 31  1  0  0  0  0
 33 27  2  0  0  0  0
 36 33  1  0  0  0  0
M  END
>  <minimizedAffinity>
-5.34720993

$$$$

 OpenBabel03242522263D

 36 38  0  0  1  0  0  0  0  0999 V2000
   33.1330   26.6160   36.3270 C   0  0  0  0  0  0  0  0  0  0  0  0
   34.0730   27.2000   37.1940 C   0  0  0  0  0  0  0  0  0  0  0  0
   33.9470   28.5260   37.6190 C   0  0  0  0  0  0  0  0  0  0  0  0
   32.8710   29.2250   37.1550 N   0  0  0  0  0  0  0  0  0  0  0  0
   31.9870   28.6520   36.3300 C   0  0  0  0  0  0  0  0  0  0  0  0
   32.1050   27.3810   35.9210 N   0  0  0  0  0  0  0  0  0  0  0  0
   33.2210   25.6080   35.9970 H   0  0  0  0  0  0  0  0  0  0  0  0
   34.9210   26.6050   37.5430 H   0  0  0  0  0  0  0  0  0  0  0  0
   30.8500   29.5080   35.8770 C   0  0  2  0  0  0  0  0  0  0  0  0
   30.9730   29.8570   34.4080 C   0  0  0  0  0  0  0  0  0  0  0  0
   31.7080   31.1870   34.3220 C   0  0  0  0  0  0  0  0  0  0  0  0
   30.9910   32.2380   34.8350 O   0  0  0  0  0  0  0  0  0  0  0  0
   30.2860   31.9450   35.9810 C   0  0  0  0  0  0  0  0  0  0  0  0
   30.9450   30.7810   36.6980 C   0  0  1  0  0  0  0  0  0  0  0  0
   29.8910   28.9930   36.0320 H   0  0  0  0  0  0  0  0  0  0  0  0
   29.9870   29.9530   33.9240 H   0  0  0  0  0  0  0  0  0  0  0  0
   31.5860   29.1000   33.8980 H   0  0  0  0  0  0  0  0  0  0  0  0
   31.9770   31.4380   33.2830 H   0  0  0  0  0  0  0  0  0  0  0  0
   32.6880   31.0640   34.8600 H   0  0  0  0  0  0  0  0  0  0  0  0
   29.2680   31.5860   35.7020 H   0  0  0  0  0  0  0  0  0  0  0  0
   30.1820   32.7740   36.6770 H   0  0  0  0  0  0  0  0  0  0  0  0
   31.9930   31.0580   36.9120 H   0  0  0  0  0  0  0  0  0  0  0  0
   30.2220   30.5870   38.0200 C   0  0  0  0  0  2  0  0  0  0  0  0
   28.8550   30.0060   37.8530 C   0  0  0  0  0  2  0  0  0  0  0  0
   28.4960   30.0960   36.7840 H   0  0  0  0  0  0  0  0  0  0  0  0
   36.2420   29.6910   36.1890 Cl  0  0  0  0  0  0  0  0  0  0  0  0
   36.0460   29.7200   37.9430 C   0  0  0  0  0  0  0  0  0  0  0  0
   34.9210   29.1380   38.5240 C   0  0  0  0  0  0  0  0  0  0  0  0
   34.8060   29.1820   39.8850 C   0  0  0  0  0  0  0  0  0  0  0  0
   35.7840   29.7880   40.6630 C   0  0  0  0  0  0  0  0  0  0  0  0
   36.8850   30.3500   40.0240 C   0  0  0  0  0  0  0  0  0  0  0  0
   38.1120   31.1130   41.0280 Cl  0  0  0  0  0  0  0  0  0  0  0  0
   37.0390   30.3290   38.6700 C   0  0  0  0  0  0  0  0  0  0  0  0
   33.9320   28.7290   40.3210 H   0  0  0  0  0  0  0  0  0  0  0  0
   35.7000   29.8240   41.7370 H   0  0  0  0  0  0  0  0  0  0  0  0
   37.8930   30.7660   38.1710 H   0  0  0  0  0  0  0  0  0  0  0  0
  1  2  1  0  0  0  0
  2  8  1  0  0  0  0
  2  3  2  0  0  0  0
  3 28  1  0  0  0  0
  4  3  1  0  0  0  0
  5  4  2  0  0  0  0
  6  1  2  0  0  0  0
  6  5  1  0  0  0  0
  7  1  1  0  0  0  0
  9 15  1  1  0  0  0
  9  5  1  0  0  0  0
  9 14  1  0  0  0  0
 10  9  1  0  0  0  0
 11 10  1  0  0  0  0
 11 12  1  0  0  0  0
 11 19  1  0  0  0  0
 12 13  1  0  0  0  0
 13 21  1  0  0  0  0
 13 14  1  0  0  0  0
 14 22  1  1  0  0  0
 14 23  1  0  0  0  0
 16 10  1  0  0  0  0
 17 10  1  0  0  0  0
 18 11  1  0  0  0  0
 20 13  1  0  0  0  0
 24 23  1  0  0  0  0
 25 24  1  0  0  0  0
 26 27  1  0  0  0  0
 27 28  2  0  0  0  0
 27 33  1  0  0  0  0
 28 29  1  0  0  0  0
 29 34  1  0  0  0  0
 29 30  2  0  0  0  0
 30 35  1  0  0  0  0
 31 30  1  0  0  0  0
 31 32  1  0  0  0  0
 33 31  2  0  0  0  0
 36 33  1  0  0  0  0
M  END
>  <minimizedAffinity>
-5.18010807

$$$$

 OpenBabel03242522263D

 36 38  0  0  1  0  0  0  0  0999 V2000
   36.1240   24.0540   39.8520 C   0  0  0  0  0  0  0  0  0  0  0  0
   36.0090   25.0030   38.8220 C   0  0  0  0  0  0  0  0  0  0  0  0
   36.4170   26.3280   39.0020 C   0  0  0  0  0  0  0  0  0  0  0  0
   36.9310   26.6570   40.2220 N   0  0  0  0  0  0  0  0  0  0  0  0
   37.0320   25.7410   41.1910 C   0  0  0  0  0  0  0  0  0  0  0  0
   36.6420   24.4700   41.0220 N   0  0  0  0  0  0  0  0  0  0  0  0
   35.8160   23.0430   39.7260 H   0  0  0  0  0  0  0  0  0  0  0  0
   35.5920   24.6980   37.8580 H   0  0  0  0  0  0  0  0  0  0  0  0
   37.6030   26.2080   42.4900 C   0  0  2  0  0  0  0  0  0  0  0  0
   36.7140   27.2480   43.1420 C   0  0  0  0  0  0  0  0  0  0  0  0
   37.2160   28.6130   42.6920 C   0  0  0  0  0  0  0  0  0  0  0  0
   38.4630   28.9190   43.1750 O   0  0  0  0  0  0  0  0  0  0  0  0
   39.3450   27.8630   43.1920 C   0  0  0  0  0  0  0  0  0  0  0  0
   38.9370   26.8440   42.1440 C   0  0  1  0  0  0  0  0  0  0  0  0
   37.7200   25.3670   43.1880 H   0  0  0  0  0  0  0  0  0  0  0  0
   36.7510   27.1900   44.2410 H   0  0  0  0  0  0  0  0  0  0  0  0
   35.6830   27.1330   42.7790 H   0  0  0  0  0  0  0  0  0  0  0  0
   36.5290   29.4200   42.9960 H   0  0  0  0  0  0  0  0  0  0  0  0
   37.2030   28.6210   41.5680 H   0  0  0  0  0  0  0  0  0  0  0  0
   39.2640   27.3340   44.1700 H   0  0  0  0  0  0  0  0  0  0  0  0
   40.3860   28.1350   43.0310 H   0  0  0  0  0  0  0  0  0  0  0  0
   38.9120   27.3510   41.1630 H   0  0  0  0  0  0  0  0  0  0  0  0
   40.0130   25.7720   42.1010 C   0  0  0  0  0  2  0  0  0  0  0  0
   39.9230   24.8150   43.2450 C   0  0  0  0  0  2  0  0  0  0  0  0
   39.2780   25.2260   44.0770 H   0  0  0  0  0  0  0  0  0  0  0  0
   38.8340   26.4640   37.3250 Cl  0  0  0  0  0  0  0  0  0  0  0  0
   37.3970   27.4590   37.0780 C   0  0  0  0  0  0  0  0  0  0  0  0
   36.3030   27.3190   37.9300 C   0  0  0  0  0  0  0  0  0  0  0  0
   35.2100   28.1090   37.7060 C   0  0  0  0  0  0  0  0  0  0  0  0
   35.1940   29.0220   36.6610 C   0  0  0  0  0  0  0  0  0  0  0  0
   36.3180   29.1150   35.8450 C   0  0  0  0  0  0  0  0  0  0  0  0
   36.2760   30.2800   34.5260 Cl  0  0  0  0  0  0  0  0  0  0  0  0
   37.4280   28.3490   36.0330 C   0  0  0  0  0  0  0  0  0  0  0  0
   34.3720   27.9900   38.3710 H   0  0  0  0  0  0  0  0  0  0  0  0
   34.3360   29.6480   36.4790 H   0  0  0  0  0  0  0  0  0  0  0  0
   38.3020   28.4190   35.4000 H   0  0  0  0  0  0  0  0  0  0  0  0
  1  6  1  0  0  0  0
  2  3  1  0  0  0  0
  2  1  2  0  0  0  0
  3  4  2  0  0  0  0
  4  5  1  0  0  0  0
  5  9  1  0  0  0  0
  6  5  2  0  0  0  0
  7  1  1  0  0  0  0
  8  2  1  0  0  0  0
  9 10  1  0  0  0  0
  9 15  1  1  0  0  0
 10 16  1  0  0  0  0
 11 18  1  0  0  0  0
 11 10  1  0  0  0  0
 11 12  1  0  0  0  0
 12 13  1  0  0  0  0
 13 20  1  0  0  0  0
 14 22  1  6  0  0  0
 14  9  1  0  0  0  0
 14 13  1  0  0  0  0
 17 10  1  0  0  0  0
 19 11  1  0  0  0  0
 21 13  1  0  0  0  0
 23 14  1  0  0  0  0
 23 24  1  0  0  0  0
 24 25  1  0  0  0  0
 27 26  1  0  0  0  0
 27 28  1  0  0  0  0
 28  3  1  0  0  0  0
 29 28  2  0  0  0  0
 29 34  1  0  0  0  0
 30 29  1  0  0  0  0
 31 33  1  0  0  0  0
 31 30  2  0  0  0  0
 32 31  1  0  0  0  0
 33 27  2  0  0  0  0
 35 30  1  0  0  0  0
 36 33  1  0  0  0  0
M  END
>  <minimizedAffinity>
-5.10877991

$$$$

 OpenBabel03242522263D

 36 38  0  0  1  0  0  0  0  0999 V2000
   37.7610   30.4980   40.1010 C   0  0  0  0  0  0  0  0  0  0  0  0
   36.7200   30.4210   39.1600 C   0  0  0  0  0  0  0  0  0  0  0  0
   36.1450   29.1960   38.8070 C   0  0  0  0  0  0  0  0  0  0  0  0
   36.6410   28.0810   39.4170 N   0  0  0  0  0  0  0  0  0  0  0  0
   37.6340   28.1740   40.3090 C   0  0  0  0  0  0  0  0  0  0  0  0
   38.1860   29.3460   40.6500 N   0  0  0  0  0  0  0  0  0  0  0  0
   38.2060   31.4250   40.3760 H   0  0  0  0  0  0  0  0  0  0  0  0
   36.3510   31.3380   38.6940 H   0  0  0  0  0  0  0  0  0  0  0  0
   38.1060   26.8920   40.9130 C   0  0  2  0  0  0  0  0  0  0  0  0
   38.2480   25.8070   39.8650 C   0  0  0  0  0  0  0  0  0  0  0  0
   36.9330   25.0410   39.8290 C   0  0  0  0  0  0  0  0  0  0  0  0
   36.6850   24.3350   40.9790 O   0  0  0  0  0  0  0  0  0  0  0  0
   37.0400   24.9860   42.1390 C   0  0  0  0  0  0  0  0  0  0  0  0
   37.0280   26.4850   41.9020 C   0  0  1  0  0  0  0  0  0  0  0  0
   39.0790   27.0290   41.4040 H   0  0  0  0  0  0  0  0  0  0  0  0
   39.0690   25.1120   40.1010 H   0  0  0  0  0  0  0  0  0  0  0  0
   38.3970   26.2650   38.8770 H   0  0  0  0  0  0  0  0  0  0  0  0
   36.8960   24.3330   38.9840 H   0  0  0  0  0  0  0  0  0  0  0  0
   36.1160   25.7860   39.6270 H   0  0  0  0  0  0  0  0  0  0  0  0
   38.0950   24.7330   42.3920 H   0  0  0  0  0  0  0  0  0  0  0  0
   36.4130   24.7600   42.9990 H   0  0  0  0  0  0  0  0  0  0  0  0
   36.0180   26.7710   41.5550 H   0  0  0  0  0  0  0  0  0  0  0  0
   37.2830   27.1630   43.2380 C   0  0  0  0  0  2  0  0  0  0  0  0
   38.7260   27.1450   43.6300 C   0  0  0  0  0  2  0  0  0  0  0  0
   39.3070   26.3860   43.0270 H   0  0  0  0  0  0  0  0  0  0  0  0
   37.1220   29.1540   36.0290 Cl  0  0  0  0  0  0  0  0  0  0  0  0
   35.4180   29.0830   36.4840 C   0  0  0  0  0  0  0  0  0  0  0  0
   35.0580   29.1110   37.8300 C   0  0  0  0  0  0  0  0  0  0  0  0
   33.7290   29.0550   38.1410 C   0  0  0  0  0  0  0  0  0  0  0  0
   32.7670   28.9740   37.1420 C   0  0  0  0  0  0  0  0  0  0  0  0
   33.1890   28.9510   35.8160 C   0  0  0  0  0  0  0  0  0  0  0  0
   31.9550   28.8480   34.5670 Cl  0  0  0  0  0  0  0  0  0  0  0  0
   34.5040   29.0050   35.4620 C   0  0  0  0  0  0  0  0  0  0  0  0
   33.4650   29.0760   39.1840 H   0  0  0  0  0  0  0  0  0  0  0  0
   31.7170   28.9300   37.3800 H   0  0  0  0  0  0  0  0  0  0  0  0
   34.8340   28.9870   34.4330 H   0  0  0  0  0  0  0  0  0  0  0  0
  1  7  1  0  0  0  0
  1  6  1  0  0  0  0
  2  1  2  0  0  0  0
  3  2  1  0  0  0  0
  3  4  2  0  0  0  0
  4  5  1  0  0  0  0
  5  6  2  0  0  0  0
  5  9  1  0  0  0  0
  8  2  1  0  0  0  0
  9 15  1  1  0  0  0
  9 14  1  0  0  0  0
 10 16  1  0  0  0  0
 10  9  1  0  0  0  0
 11 10  1  0  0  0  0
 11 12  1  0  0  0  0
 12 13  1  0  0  0  0
 13 20  1  0  0  0  0
 13 21  1  0  0  0  0
 14 22  1  6  0  0  0
 14 13  1  0  0  0  0
 14 23  1  0  0  0  0
 17 10  1  0  0  0  0
 18 11  1  0  0  0  0
 19 11  1  0  0  0  0
 23 24  1  0  0  0  0
 25 24  1  0  0  0  0
 26 27  1  0  0  0  0
 27 28  1  0  0  0  0
 28 29  2  0  0  0  0
 28  3  1  0  0  0  0
 29 34  1  0  0  0  0
 30 35  1  0  0  0  0
 30 29  1  0  0  0  0
 31 30  2  0  0  0  0
 32 31  1  0  0  0  0
 33 31  1  0  0  0  0
 33 27  2  0  0  0  0
 36 33  1  0  0  0  0
M  END
>  <minimizedAffinity>
-5.10405493

$$$$

 OpenBabel03242522263D

 36 38  0  0  1  0  0  0  0  0999 V2000
   38.1850   31.5820   38.8890 C   0  0  0  0  0  0  0  0  0  0  0  0
   37.2060   31.1250   37.9900 C   0  0  0  0  0  0  0  0  0  0  0  0
   36.6400   29.8530   38.1130 C   0  0  0  0  0  0  0  0  0  0  0  0
   37.0800   29.0770   39.1450 N   0  0  0  0  0  0  0  0  0  0  0  0
   38.0130   29.5280   39.9910 C   0  0  0  0  0  0  0  0  0  0  0  0
   38.5570   30.7480   39.8760 N   0  0  0  0  0  0  0  0  0  0  0  0
   38.6230   32.5480   38.8040 H   0  0  0  0  0  0  0  0  0  0  0  0
   36.8810   31.7780   37.1760 H   0  0  0  0  0  0  0  0  0  0  0  0
   38.4270   28.5960   41.0820 C   0  0  2  0  0  0  0  0  0  0  0  0
   37.4860   27.4140   41.1850 C   0  0  0  0  0  0  0  0  0  0  0  0
   36.4200   27.7750   42.2100 C   0  0  0  0  0  0  0  0  0  0  0  0
   36.9120   27.8960   43.4850 O   0  0  0  0  0  0  0  0  0  0  0  0
   38.1440   28.5060   43.5680 C   0  0  0  0  0  0  0  0  0  0  0  0
   38.3460   29.4060   42.3630 C   0  0  1  0  0  0  0  0  0  0  0  0
   39.4420   28.2160   40.9030 H   0  0  0  0  0  0  0  0  0  0  0  0
   38.0070   26.4990   41.5090 H   0  0  0  0  0  0  0  0  0  0  0  0
   36.9830   27.2560   40.2200 H   0  0  0  0  0  0  0  0  0  0  0  0
   35.6060   27.0320   42.2320 H   0  0  0  0  0  0  0  0  0  0  0  0
   35.9380   28.7320   41.8700 H   0  0  0  0  0  0  0  0  0  0  0  0
   38.9410   27.7300   43.4970 H   0  0  0  0  0  0  0  0  0  0  0  0
   38.3060   29.0870   44.4730 H   0  0  0  0  0  0  0  0  0  0  0  0
   37.5190   30.1380   42.3390 H   0  0  0  0  0  0  0  0  0  0  0  0
   39.6480   30.1620   42.5680 C   0  0  0  0  0  2  0  0  0  0  0  0
   40.8400   29.2610   42.6130 C   0  0  0  0  0  2  0  0  0  0  0  0
   40.5380   28.1860   42.7860 H   0  0  0  0  0  0  0  0  0  0  0  0
   34.1200   29.1460   39.4640 Cl  0  0  0  0  0  0  0  0  0  0  0  0
   34.3850   29.0140   37.7230 C   0  0  0  0  0  0  0  0  0  0  0  0
   35.6180   29.3730   37.1810 C   0  0  0  0  0  0  0  0  0  0  0  0
   35.7830   29.2560   35.8290 C   0  0  0  0  0  0  0  0  0  0  0  0
   34.7520   28.7910   35.0230 C   0  0  0  0  0  0  0  0  0  0  0  0
   33.5450   28.4470   35.6250 C   0  0  0  0  0  0  0  0  0  0  0  0
   32.2520   27.8610   34.5860 Cl  0  0  0  0  0  0  0  0  0  0  0  0
   33.3370   28.5490   36.9680 C   0  0  0  0  0  0  0  0  0  0  0  0
   36.7400   29.5370   35.4240 H   0  0  0  0  0  0  0  0  0  0  0  0
   34.8760   28.6950   33.9570 H   0  0  0  0  0  0  0  0  0  0  0  0
   32.4010   28.2820   37.4370 H   0  0  0  0  0  0  0  0  0  0  0  0
  1  6  1  0  0  0  0
  2  3  1  0  0  0  0
  2  1  2  0  0  0  0
  3  4  2  0  0  0  0
  4  5  1  0  0  0  0
  5  9  1  0  0  0  0
  6  5  2  0  0  0  0
  7  1  1  0  0  0  0
  8  2  1  0  0  0  0
  9 15  1  6  0  0  0
  9 10  1  0  0  0  0
  9 14  1  0  0  0  0
 10 16  1  0  0  0  0
 10 11  1  0  0  0  0
 11 18  1  0  0  0  0
 11 12  1  0  0  0  0
 12 13  1  0  0  0  0
 13 21  1  0  0  0  0
 14 22  1  6  0  0  0
 14 23  1  0  0  0  0
 14 13  1  0  0  0  0
 17 10  1  0  0  0  0
 19 11  1  0  0  0  0
 20 13  1  0  0  0  0
 23 24  1  0  0  0  0
 24 25  1  0  0  0  0
 27 26  1  0  0  0  0
 28 27  1  0  0  0  0
 28  3  1  0  0  0  0
 29 28  2  0  0  0  0
 30 31  2  0  0  0  0
 30 29  1  0  0  0  0
 31 33  1  0  0  0  0
 32 31  1  0  0  0  0
 33 36  1  0  0  0  0
 33 27  2  0  0  0  0
 34 29  1  0  0  0  0
 35 30  1  0  0  0  0
M  END
>  <minimizedAffinity>
-5.09826136

$$$$
