
 OpenBabel03252507133D

 36 37  0  0  1  0  0  0  0  0999 V2000
   50.2260   34.8660   42.6290 O   0  0  0  0  0  0  0  0  0  0  0  0
   49.0540   34.4990   41.8020 P   0  0  1  0  0  0  0  0  0  0  0  0
   48.8840   35.7070   40.6120 O   0  0  0  0  0  0  0  0  0  0  0  0
   48.7600   36.5500   41.1220 H   0  0  0  0  0  0  0  0  0  0  0  0
   49.3510   33.0210   40.9700 O   0  0  0  0  0  0  0  0  0  0  0  0
   49.6170   31.3400   42.6030 C   0  0  0  0  0  0  0  0  0  0  0  0
   50.1270   32.0230   41.5240 C   0  0  0  0  0  0  0  0  0  0  0  0
   51.4120   31.6700   41.0380 C   0  0  0  0  0  0  0  0  0  0  0  0
   52.0610   30.6700   41.6780 N   0  0  0  0  0  0  0  0  0  0  0  0
   51.5400   30.0360   42.7130 C   0  0  0  0  0  0  0  0  0  0  0  0
   50.3070   30.3830   43.1690 N   0  0  0  0  0  0  0  0  0  0  0  0
   47.1900   30.8410   42.8480 C   0  0  0  0  0  0  0  0  0  0  0  0
   47.0530   30.4760   41.6200 O   0  0  0  0  0  0  0  0  0  0  0  0
   48.4590   31.3030   43.4240 N   0  0  0  0  0  0  0  0  0  0  0  0
   51.7470   32.2420   40.1970 H   0  0  0  0  0  0  0  0  0  0  0  0
   52.0590   29.2350   43.2250 H   0  0  0  0  0  0  0  0  0  0  0  0
   46.2630   30.7720   43.4160 H   0  0  0  0  0  0  0  0  0  0  0  0
   48.3610   31.5650   44.4060 H   0  0  0  0  0  0  0  0  0  0  0  0
   47.6440   34.4150   42.6530 O   0  0  0  0  0  0  0  0  0  0  0  0
   46.5190   34.8890   42.1090 C   0  0  2  0  0  0  0  0  0  0  0  0
   45.6370   35.7100   42.9620 C   0  0  0  0  0  0  0  0  0  0  0  0
   44.2550   35.7560   42.3930 C   0  0  0  0  0  0  0  0  0  0  0  0
   43.6120   34.5300   42.4420 O   0  0  0  0  0  0  0  0  0  0  0  0
   44.5130   33.4820   42.4270 C   0  0  0  0  0  0  0  0  0  0  0  0
   45.6570   33.7790   41.5020 C   0  0  1  0  0  0  0  0  0  0  0  0
   46.7880   35.4880   41.1870 H   0  0  0  0  0  0  0  0  0  0  0  0
   45.9990   36.7690   43.0940 H   0  0  0  0  0  0  0  0  0  0  0  0
   45.5350   35.3320   44.0020 H   0  0  0  0  0  0  0  0  0  0  0  0
   44.1370   36.3190   41.4610 H   0  0  0  0  0  0  0  0  0  0  0  0
   43.6720   36.3800   43.1430 H   0  0  0  0  0  0  0  0  0  0  0  0
   44.9250   33.3380   43.4370 H   0  0  0  0  0  0  0  0  0  0  0  0
   43.9790   32.5670   42.1110 H   0  0  0  0  0  0  0  0  0  0  0  0
   46.3030   32.8650   41.5830 H   0  0  0  0  0  0  0  0  0  0  0  0
   45.3360   33.9230   40.0700 C   0  0  0  0  0  2  0  0  0  0  0  0
   46.3480   33.0790   39.2760 C   0  0  0  0  0  2  0  0  0  0  0  0
   46.2950   33.3220   38.1970 H   0  0  0  0  0  0  0  0  0  0  0  0
  2  1  2  1  0  0  0
  2 19  1  0  0  0  0
  3  4  1  0  0  0  0
  3  2  1  0  0  0  0
  5  7  1  0  0  0  0
  5  2  1  0  0  0  0
  6 11  1  0  0  0  0
  6 14  1  0  0  0  0
  7  6  2  0  0  0  0
  8  7  1  0  0  0  0
  8  9  2  0  0  0  0
  9 10  1  0  0  0  0
 10 11  2  0  0  0  0
 10 16  1  0  0  0  0
 12 17  1  0  0  0  0
 12 14  1  0  0  0  0
 13 12  2  0  0  0  0
 14 18  1  0  0  0  0
 15  8  1  0  0  0  0
 20 26  1  6  0  0  0
 20 19  1  0  0  0  0
 20 21  1  0  0  0  0
 21 27  1  0  0  0  0
 21 28  1  0  0  0  0
 22 23  1  0  0  0  0
 22 21  1  0  0  0  0
 22 30  1  0  0  0  0
 24 23  1  0  0  0  0
 24 31  1  0  0  0  0
 25 33  1  1  0  0  0
 25 20  1  0  0  0  0
 25 24  1  0  0  0  0
 29 22  1  0  0  0  0
 32 24  1  0  0  0  0
 34 25  1  0  0  0  0
 35 34  1  0  0  0  0
 36 35  1  0  0  0  0
M  END
>  <minimizedAffinity>
-4.15619564

>  <minimizedRMSD>
0.426049113

$$$$
