REMARK  Name = 
REMARK  4 active torsions:
REMARK  status: ('A' for Active; 'I' for Inactive)
REMARK    1  A    between atoms: C_3  and  S_9
REMARK    2  A    between atoms: S_9  and  C_10
REMARK    3  A    between atoms: C_14  and  C_21
REMARK    4  A    between atoms: C_21  and  C_22
REMARK                            x       y       z     vdW  Elec       q    Type
REMARK                         _______ _______ _______ _____ _____    ______ ____
ROOT
ATOM      1  S   UNL     1      43.828  34.538  41.027  0.00  0.00    +0.000 S 
ENDROOT
BRANCH   1   4
ATOM      2 CL   UNL     1      42.097  31.933  41.704  0.00  0.00    +0.000 Cl
ATOM      3  C   UNL     1      41.267  33.361  41.110  0.00  0.00    +0.000 A 
ATOM      4  C   UNL     1      42.087  34.425  40.847  0.00  0.00    +0.000 A 
ATOM      5  C   UNL     1      41.462  35.592  40.368  0.00  0.00    +0.000 A 
ATOM      6  C   UNL     1      40.086  35.620  40.186  0.00  0.00    +0.000 A 
ATOM      7  C   UNL     1      39.273  34.539  40.455  0.00  0.00    +0.000 A 
ATOM      8  C   UNL     1      39.905  33.384  40.931  0.00  0.00    +0.000 A 
ATOM      9 CL   UNL     1      38.978  31.943  41.310  0.00  0.00    +0.000 Cl
ATOM     10  H   UNL     1      42.010  36.491  40.128  0.00  0.00    +0.000 HD
ATOM     11  H   UNL     1      39.600  36.525  39.814  0.00  0.00    +0.000 HD
ATOM     12  H   UNL     1      38.210  34.553  40.317  0.00  0.00    +0.000 HD
ENDBRANCH   1   4
BRANCH   1  13
ATOM     13  C   UNL     1      44.361  34.622  42.729  0.00  0.00    +0.000 A 
ATOM     14  C   UNL     1      45.024  33.493  43.215  0.00  0.00    +0.000 A 
ATOM     15  C   UNL     1      45.471  33.490  44.545  0.00  0.00    +0.000 A 
ATOM     16  N   UNL     1      45.232  34.590  45.288  0.00  0.00    +0.000 NA
ATOM     17  C   UNL     1      44.590  35.673  44.805  0.00  0.00    +0.000 A 
ATOM     18  N   UNL     1      44.143  35.707  43.515  0.00  0.00    +0.000 NA
ATOM     19  H   UNL     1      45.196  32.626  42.582  0.00  0.00    +0.000 HD
ATOM     20  H   UNL     1      45.982  32.611  44.907  0.00  0.00    +0.000 HD
BRANCH  17  21
ATOM     21  C   UNL     1      44.344  36.864  45.647  0.00  0.00    +0.000 C 
BRANCH  21  22
ATOM     22  C   UNL     1      45.575  37.518  46.180  0.00  0.00    +0.000 C 
ATOM     23  H   UNL     1      45.454  37.794  47.268  0.00  0.00    +0.000 HD
ENDBRANCH  21  22
ENDBRANCH  17  21
ENDBRANCH   1  13
TORSDOF 4
